23
gdb 58471	2.38015	1.21987	1.11572	2.3379	81.69	-0.2282	0.0546	0.2828	1276.9063	0.202004	-425.420286	-425.409459	-425.408515	-425.455117	41.498	
C	-0.6145218361	 0.3495881118	-2.7339344676	-0.405407
C	-0.2700843853	-0.5484172848	-1.5346135307	-0.009011
C	 0.8290173101	 0.0795128465	-0.6651885448	-0.394617
C	-1.5163158387	-0.8501031533	-0.7139994773	 0.313963
O	-2.0815965358	 0.2957309954	-0.1003250803	-0.481948
C	-2.4953193429	-1.9312608406	-1.136606733	-0.426392
C	-1.6908837956	-2.0813718851	 0.148756574	 0.405358
C	-0.6472101297	-3.1625412911	 0.2802513324	-0.445113
O	-2.3657275099	-1.8932688564	 1.3583890984	-0.479662
H	 0.2674408649	 0.5234763243	-3.3578711946	 0.114222
H	-1.3895059847	-0.102043015	-3.3624047366	 0.112335
H	-0.9746806236	 1.3280795012	-2.3966556274	 0.111355
H	 0.0990503504	-1.5028213249	-1.9284141063	 0.073552
H	 1.1287073273	-0.5926927064	 0.1442738086	 0.118129
H	 1.7171372461	 0.3080556062	-1.2629856658	 0.105812
H	 0.4725103292	 1.0097470586	-0.2132177191	 0.127637
H	-2.7035405039	 0.6959833866	-0.7162832501	 0.291382
H	-3.5543413638	-1.7231965601	-1.018813267	 0.106072
H	-2.2396308885	-2.544268294	-1.9957044232	 0.107566
H	-0.1420983899	-3.3626442238	-0.6673178926	 0.113723
H	 0.1020903933	-2.8881533518	 1.0291617688	 0.124665
H	-1.1264239128	-4.0900037119	 0.6103836001	 0.128375
H	-2.5921781799	-0.9528309313	 1.390073844	 0.288002
77.1234	130.0392	176.0726	212.3392	217.0956	238.6171	264.1919	283.1727	288.2156	324.5835	344.3184	401.5721	448.3869	468.3193	492.8241	525.5618	590.31	694.732	757.6804	848.0016	899.3035	918.0117	928.2506	935.8682	965.6463	979.5213	1020.1359	1058.3189	1102.8066	1128.1164	1138.6048	1184.6426	1221.9504	1255.3589	1305.7268	1324.4154	1341.9661	1388.4559	1392.2387	1403.0143	1416.0885	1437.1856	1472.9929	1482.6299	1487.1562	1495.6077	1503.5296	1507.7219	1517.1173	3027.7657	3036.5628	3039.2402	3042.3487	3095.4185	3102.4429	3103.7547	3107.9658	3116.4158	3117.4675	3127.0028	3209.3107	3733.7971	3814.3453
CC(C)C1(O)CC1(C)O	CC(C)[C@@]1(O)C[C@]1(C)O	
InChI=1S/C7H14O2/c1-5(2)7(9)4-6(7,3)8/h5,8-9H,4H2,1-3H3	InChI=1S/C7H14O2/c1-5(2)7(9)4-6(7,3)8/h5,8-9H,4H2,1-3H3/t6-,7-/m0/s1
