20
gdb 63275	2.10847	1.63739	1.26794	3.847	80.12	-0.2417	0.0371	0.2788	1112.5879	0.169125	-403.170622	-403.161078	-403.160134	-403.205973	35.726	
C	-0.0419254874	 1.5431606235	-0.0073226121	-0.424137
C	-0.0220542665	 0.0163977797	 0.022080878	 0.267514
C	-1.3895402599	-0.5850961025	-0.2948098709	-0.424137
N	 1.0768614019	-0.5706837801	-0.7831111125	-0.405775
C	 1.7533306703	-1.1410219907	 0.2706221649	 0.429246
O	 2.763570371	-1.7911710149	 0.3509380308	-0.385679
C	 0.71248171	-0.613050881	 1.2392237907	 0.12673
C	 0.9731128314	-0.0664668506	 2.6115618895	-0.325071
C	 0.172657043	-1.3308880032	 2.4406130128	-0.325061
H	 0.9455825573	 1.9494323276	 0.2256035747	 0.126558
H	-0.3430771534	 1.9106232648	-0.9948058374	 0.114558
H	-0.7589129762	 1.9359589111	 0.7215197679	 0.118816
H	-1.7293521681	-0.2788237696	-1.2905850376	 0.114559
H	-1.3506337767	-1.6768968063	-0.2641844358	 0.12656
H	-2.1397949244	-0.2447345943	 0.4268865129	 0.118809
H	 1.2659297992	-0.555967351	-1.7743102461	 0.241594
H	 1.9876610457	-0.1448246739	 2.9879709266	 0.135152
H	 0.4458301331	 0.835229591	 2.9058753495	 0.117308
H	-0.8968352952	-1.2855585804	 2.6190497307	 0.117306
H	 0.6385546349	-2.2757735891	 2.6999457735	 0.135148
11.3276	150.7368	192.5013	204.922	221.3782	249.4387	309.1985	312.3738	339.1942	380.1075	504.8374	553.4832	611.895	639.9752	735.4366	772.2947	811.1304	862.606	930.9058	947.6145	958.0465	969.972	1003.9655	1017.2589	1056.4943	1083.1941	1118.738	1186.2427	1192.0848	1210.6245	1229.5955	1285.505	1356.0087	1394.871	1402.1222	1421.094	1457.7794	1478.5939	1485.3538	1494.1647	1502.1038	1506.404	1886.0749	3029.5362	3034.9832	3092.1906	3098.5249	3119.965	3121.8764	3127.9116	3129.6814	3209.0112	3223.039	3612.8506
CC1(C)NC(=O)C11CC1	CC1(C)NC(=O)C21CC2	
InChI=1S/C7H11NO/c1-6(2)7(3-4-7)5(9)8-6/h3-4H2,1-2H3,(H,8,9)	InChI=1S/C7H11NO/c1-6(2)7(3-4-7)5(9)8-6/h3-4H2,1-2H3,(H,8,9)
