19
gdb 104670	2.1011	1.39544	1.13161	1.3418	67.81	-0.2277	0.046	0.2737	1174.3977	0.156252	-497.242987	-497.232792	-497.231848	-497.277914	36.987	
C	 0.4859540051	-0.7445285353	 1.5612806182	-0.260969
O	-0.0135491523	-0.2917262493	 0.3033110202	-0.292163
C	-1.3015329211	-0.7424704012	-0.0020176952	 0.310577
C	-2.3961418856	 0.0310345702	 0.6968225755	-0.115508
O	-2.3232535831	 1.4110796235	 0.3907717881	-0.420763
C	-1.5214900046	-1.1256873636	-1.447727737	-0.034143
O	-0.3951563983	-1.0762297444	-2.2805999202	-0.419233
C	-1.486240789	-2.2063495804	-0.3780699166	 0.008401
O	-0.3752470932	-3.0474593835	-0.383338647	-0.436622
H	 1.508671827	-0.3682075361	 1.6368871416	 0.128654
H	-0.0967046433	-0.3457256679	 2.4020488281	 0.111551
H	 0.4906881765	-1.8375201121	 1.6076582182	 0.141408
H	-3.3797165513	-0.324332806	 0.3703419921	 0.102454
H	-2.3379227569	-0.1412451657	 1.784372866	 0.089952
H	-1.3855545532	 1.6380507807	 0.4133645353	 0.290602
H	-2.4602383275	-0.8254421216	-1.9091501722	 0.101744
H	-0.5815590237	-1.6276231702	-3.0492212379	 0.298209
H	-2.3906461623	-2.7290817281	-0.0813866669	 0.103668
H	 0.264138287	-2.6302438591	-0.9798206203	 0.292178
76.4095	120.147	135.0112	173.8724	182.6386	226.7298	268.547	276.8389	316.7888	353.3558	377.991	422.0701	512.6505	566.2566	643.9681	705.9933	720.4083	834.2124	888.4624	989.5398	1019.616	1072.5342	1078.7844	1081.5779	1133.6658	1151.3954	1178.494	1195.9627	1203.8216	1238.8904	1260.6446	1309.8363	1332.8944	1360.2418	1421.1126	1436.7372	1472.1884	1483.2802	1488.102	1509.9189	1513.3191	2968.3195	3014.4069	3063.9274	3090.7362	3120.6902	3130.0192	3155.409	3725.3904	3785.6208	3797.3343
COC1(CO)C(O)C1O	CO[C@@]1(CO)[C@@H](O)[C@H]1O	
InChI=1S/C5H10O4/c1-9-5(2-6)3(7)4(5)8/h3-4,6-8H,2H2,1H3	InChI=1S/C5H10O4/c1-9-5(2-6)3(7)4(5)8/h3-4,6-8H,2H2,1H3/t3-,4+,5-
