20
gdb 122240	2.78351	0.83212	0.70899	3.7813	80.44	-0.2971	0.0046	0.3017	1658.1321	0.169031	-403.147226	-403.13722	-403.136275	-403.183183	35.486	
C	 0.089990091	 1.5065647599	 0.3053251935	-0.38362
C	 0.0082904695	 0.027698453	-0.0818143915	-0.168698
C	-1.3993222778	-0.5540350671	 0.0839146002	-0.17016
C	-1.4791168607	-2.0368403868	-0.3016037021	-0.289588
C	-2.8647123032	-2.6237421504	-0.1117015977	 0.258184
C	-3.071616023	-3.9993082853	 0.3862668733	-0.211255
O	-3.2683696585	-2.8761006533	 1.2401235866	-0.249751
C	-3.9102127698	-2.0508043735	-0.9486990798	 0.267451
N	-4.7145934992	-1.5869033038	-1.636879678	-0.335303
H	 1.1043199992	 1.8960278888	 0.1758127747	 0.114388
H	-0.5821237715	 2.1141307153	-0.3103548366	 0.120013
H	-0.1943943813	 1.6575148398	 1.3524162205	 0.118053
H	 0.3323216488	-0.0980205691	-1.1235046994	 0.098292
H	 0.7145861505	-0.5513514275	 0.5279344346	 0.096819
H	-1.7272328125	-0.4413275896	 1.1247844218	 0.115294
H	-2.1070294109	 0.0195196305	-0.5282811206	 0.119402
H	-1.1803093996	-2.173825738	-1.3484483881	 0.118946
H	-0.7870672484	-2.6237954087	 0.3123431182	 0.113202
H	-3.9723587424	-4.543194826	 0.1099200155	 0.139247
H	-2.1932724202	-4.6065683782	 0.5985112552	 0.129084
51.0658	73.584	105.2655	130.0891	179.0288	234.6339	248.8697	288.2823	319.8512	391.1119	453.5726	576.5838	599.3851	711.6041	737.4785	786.5343	845.573	899.7169	919.7774	944.5961	960.9237	1027.9199	1068.0275	1102.9456	1125.0294	1139.5109	1172.1304	1226.0509	1264.8774	1278.6858	1316.7859	1334.0516	1354.8344	1388.5629	1403.3173	1415.583	1468.5795	1486.2955	1498.2711	1500.3805	1512.2462	1520.0086	2357.1289	3012.1518	3023.9979	3032.3313	3034.6789	3039.0058	3063.0949	3085.6858	3092.2449	3100.2819	3105.5579	3188.1192
CCCCC1(CO1)C#N	CCCC[C@]1(CO1)C#N	
InChI=1S/C7H11NO/c1-2-3-4-7(5-8)6-9-7/h2-4,6H2,1H3	InChI=1S/C7H11NO/c1-2-3-4-7(5-8)6-9-7/h2-4,6H2,1H3/t7-/m1/s1
