21
gdb 10333	2.42949	1.60034	1.30244	3.6951	75.92	-0.2386	0.0319	0.2706	1095.4123	0.187311	-366.29868	-366.288904	-366.28796	-366.333053	35.272	
C	-0.2295641231	 1.4995994761	-0.0637034449	-0.371716
C	 0.139191579	 0.013692611	-0.0099925537	-0.168971
N	 0.8132113315	-0.4709809067	-1.2083405057	-0.027955
C	 2.1356748397	-0.7855547995	-1.1713136234	 0.150902
O	 2.7992143302	-1.2081057476	-2.0991603138	-0.357351
C	 0.0173048906	-0.6534671127	-2.4415910406	 0.041437
C	 0.5215232028	 0.2318221844	-3.5893454942	-0.389782
C	-0.0647591081	-2.1336185313	-2.8411168591	-0.388629
H	 0.6663956821	 2.1168887757	-0.1788649934	 0.127844
H	-0.9010874723	 1.7171752772	-0.8999433596	 0.127228
H	-0.7384838583	 1.7967474608	 0.8588361636	 0.119877
H	 0.8015548214	-0.1692279894	 0.8420974511	 0.117192
H	-0.7618132693	-0.5898888913	 0.1604272006	 0.112267
H	 2.5705005355	-0.6122598342	-0.16559853	 0.070185
H	-0.991927183	-0.3197189558	-2.1771369706	 0.083066
H	-0.1430761375	 0.1330645665	-4.4535149845	 0.109948
H	 0.539448203	 1.2845755389	-3.2915459896	 0.109496
H	 1.5293018352	-0.0635686491	-3.884143972	 0.158672
H	-0.4607898617	-2.7381244929	-2.0190386423	 0.107847
H	-0.7311379463	-2.2514416295	-3.7014609027	 0.110687
H	 0.9238601186	-2.5107125505	-3.106885315	 0.157756
66.8695	85.8653	149.9515	221.8914	231.6986	237.1804	259.0414	271.72	316.4413	367.7935	411.549	472.0407	504.677	643.259	769.1239	802.5883	899.1188	929.947	950.5399	963.4088	1028.8392	1089.3272	1120.8808	1132.7101	1149.7916	1183.3944	1236.7602	1288.0747	1351.622	1372.1852	1391.7295	1394.5258	1411.0663	1411.6418	1440.403	1465.6806	1479.5247	1489.6777	1492.5095	1498.2539	1502.7567	1508.1164	1522.3043	1781.2305	2917.4932	3019.5894	3038.3915	3040.3756	3042.343	3048.592	3074.5271	3104.5829	3109.0031	3111.1614	3117.6398	3147.0954	3151.385
CCN(C=O)C(C)C	CCN(C=O)C(C)C	
InChI=1S/C6H13NO/c1-4-7(5-8)6(2)3/h5-6H,4H2,1-3H3	InChI=1S/C6H13NO/c1-4-7(5-8)6(2)3/h5-6H,4H2,1-3H3
