20
gdb 78504	2.52719	1.57841	1.29498	2.0277	79.25	-0.2134	0.074	0.2874	1087.3114	0.170093	-403.076838	-403.068097	-403.067153	-403.109559	34.115	
C	-0.0497352084	 1.6101640409	 0.0247648022	-0.429056
C	 0.0800376272	 0.0993030545	-0.0677513779	 0.076172
C	 0.8253350563	-0.591436189	-1.1927580989	-0.232131
C	 2.3083983345	-0.6809928535	-0.7284808873	 0.316635
O	 3.3313842504	-0.9825384967	-1.6037546775	-0.466991
C	 2.3683955991	-0.0273996695	 0.6388794657	-0.247262
N	 1.0014653344	-0.6248674673	 0.9211401761	-0.222472
C	 1.2884835655	-1.6459151566	-0.2166460105	 0.335082
C	 1.1824687053	-3.1258644615	-0.1151591575	-0.53012
H	 0.869581238	 2.1345341485	-0.2474438854	 0.114297
H	-0.8374706701	 1.9554807404	-0.6534765244	 0.11682
H	-0.3293109931	 1.9061512123	 1.0419005787	 0.127691
H	-0.9092215983	-0.351989775	 0.0704606557	 0.078946
H	 0.5741594884	-0.7207832638	-2.2400165598	 0.082932
H	 3.4600260702	-0.2342929311	-2.1971342048	 0.287476
H	 3.1017052547	-0.5101054437	 1.2909414665	 0.110236
H	 2.444383296	 1.0589066209	 0.7480006129	 0.090929
H	 0.1517231878	-3.4442297412	 0.0743388883	 0.126334
H	 1.5171360065	-3.5876235963	-1.0495867333	 0.133588
H	 1.8092576857	-3.5110122021	 0.696401381	 0.130893
145.7916	173.4716	188.9353	192.1132	220.66	296.1128	322.8296	378.7044	413.1802	489.3474	579.1496	617.6084	666.975	698.3736	742.8426	820.0387	848.4895	883.6985	913.3738	944.2605	963.1749	1051.7783	1062.3332	1086.7978	1107.4632	1132.6921	1144.4548	1165.0744	1173.7719	1237.049	1252.4663	1273.8504	1299.5054	1346.8234	1396.893	1409.7331	1412.6889	1476.6723	1485.8888	1489.6371	1493.8561	1508.2476	1532.8338	3028.9595	3031.8384	3035.8719	3049.8759	3091.5463	3098.1613	3100.3216	3105.7212	3118.5592	3170.8793	3791.0368
CC1C2C3(O)CN1C23C	C[C@H]1[C@H]2[C@@]3(O)CN1[C@@]23C	
InChI=1S/C7H11NO/c1-4-5-6(2)7(5,9)3-8(4)6/h4-5,9H,3H2,1-2H3	InChI=1S/C7H11NO/c1-4-5-6(2)7(5,9)3-8(4)6/h4-5,9H,3H2,1-2H3/t4-,5+,6-,7-/m0/s1
