18
gdb 33099	6.50729	0.78007	0.70328	1.141	76.79	-0.1781	0.0489	0.2271	1594.6101	0.147176	-439.103226	-439.094045	-439.093101	-439.137407	33.699	
C	 0.0188485232	 1.515113341	-0.019512863	-0.391159
C	 0.013682689	-0.0020220754	-0.013138304	-0.0474
O	 0.6731001533	-0.4550633003	-1.190042733	-0.267952
C	 0.7473441535	-1.7962456191	-1.3313096227	 0.371215
C	 0.2920306668	-2.7896122419	-0.5187346752	-0.198977
O	 0.6089160103	-4.0124711549	-1.0935783026	-0.188176
C	 1.2553419922	-3.7562510594	-2.2485766982	 0.422721
N	 1.5874663689	-4.8734261804	-3.0011884106	-0.593767
C	 1.3804201877	-2.4162444643	-2.4627047748	-0.424556
H	 1.043443823	 1.8970189983	-0.0333209762	 0.130059
H	-0.5033804054	 1.8984640016	-0.9004722814	 0.130832
H	-0.4821125778	 1.8972678458	 0.874787901	 0.117971
H	 0.5347265442	-0.3973315709	 0.8715173397	 0.101395
H	-1.0133339427	-0.3958760738	 0.0033290439	 0.102767
H	-0.2290367381	-2.8331208451	 0.4187489817	 0.124266
H	 1.7663041719	-5.686264713	-2.4251831788	 0.254585
H	 2.3563657599	-4.7057032233	-3.6348820324	 0.255424
H	 1.8474107299	-1.9171178847	-3.2951954433	 0.100753
63.7367	105.157	140.0466	183.7104	220.5366	255.6971	342.8979	344.4938	382.2158	484.4974	569.7505	634.0821	663.339	680.7648	719.7037	744.8812	767.6015	827.77	910.1665	966.0717	1013.8876	1075.9589	1090.5675	1133.7497	1152.5919	1188.5512	1212.9923	1260.9073	1293.3442	1352.7383	1401.8587	1425.9833	1475.8275	1484.1238	1501.2767	1527.0207	1608.8988	1638.9977	1677.6605	2986.8148	3019.5082	3046.9837	3121.729	3124.7478	3271.0897	3311.6568	3547.3877	3648.9046
CCOC1=COC(N)=C1	CCOc1coc(N)c1	
InChI=1S/C6H9NO2/c1-2-8-5-3-6(7)9-4-5/h3-4H,2,7H2,1H3	InChI=1S/C6H9NO2/c1-2-8-5-3-6(7)9-4-5/h3-4H,2,7H2,1H3
