15
gdb 29200	3.16442	1.44445	0.99786	4.1458	73.65	-0.2258	-0.0469	0.1789	1124.4451	0.113437	-453.995757	-453.98792	-453.986975	-454.0283	29.415	
C	-0.0332879387	 1.5367305726	 0.0194173895	-0.489329
C	-0.0085909959	 0.0371472189	-0.0041132957	 0.098227
C	-0.0358365252	-0.7031932365	-1.1280578241	 0.027034
O	-0.013428926	-2.0419123968	-1.1453025887	-0.231397
C	 0.0427072837	-2.7729993735	 0.0766618395	 0.425662
N	 0.0627178994	-4.0361198786	 0.0319783458	-0.531247
N	 0.0714392322	-2.0510310293	 1.2430414593	-0.382915
C	 0.0477895531	-0.7610242862	 1.200861548	 0.389225
O	 0.0768220358	-0.0791333123	 2.3523699514	-0.393518
H	 0.859113635	 1.9424202759	 0.5072560788	 0.144461
H	-0.0797750705	 1.9381865319	-0.9965728682	 0.125902
H	-0.8983065495	 1.912204774	 0.5758499666	 0.144525
H	-0.0786880233	-0.2845500926	-2.1284574668	 0.140322
H	 0.033910364	-4.3559507141	-0.9345934031	 0.223995
H	 0.113162946	-0.7425070335	 3.0591154474	 0.309053
73.4363	161.0618	209.0757	265.5318	281.5458	373.7007	400.439	474.3904	556.0574	583.8913	629.1921	719.6466	728.6124	775.2209	777.4901	823.8687	834.9834	932.0617	1022.2039	1065.4941	1072.0146	1174.4725	1247.3118	1258.0015	1307.6075	1365.6552	1422.1185	1474.1473	1480.6007	1504.0571	1618.5079	1726.464	1760.9107	3037.1987	3094.0085	3116.7052	3193.6453	3516.3249	3735.3341
CC1=COC(=N)N=C1O	CC1=C(N=C(OC1)[NH])O	
InChI=1S/C5H6N2O2/c1-3-2-9-5(6)7-4(3)8/h2H,1H3,(H2,6,7,8)	InChI=1S/C5H7N2O2/c1-3-2-9-5(6)7-4(3)8/h6H,2H2,1H3,(H,7,8)
