16
gdb 127671	3.11658	1.29155	1.00483	1.3912	71.5	-0.2547	-0.0461	0.2086	1150.9272	0.124985	-434.103166	-434.094641	-434.093697	-434.137563	29.263	
C	 0.074422591	 1.4159184009	 0.1063252919	-0.346057
N	 0.043616954	-0.0358500093	 0.103903434	 0.003193
N	 0.0014295402	-0.7160038508	-1.0679530654	-0.24809
C	-0.0658948295	-1.9742210518	-0.6652180639	 0.024214
N	-0.0763559382	-2.1499760411	 0.6819575292	-0.314517
C	-0.016396997	-0.9080255571	 1.1396229351	 0.332226
C	 0.0241670112	-0.5101575068	 2.5836972816	-0.383373
C	 1.4419800953	-0.1046223419	 2.9718295529	 0.148326
O	 1.7867951815	 1.0350249096	 3.1502863309	-0.230326
H	 0.4830471339	 1.7714539437	 1.0528612952	 0.170375
H	 0.7136011148	 1.7476567587	-0.7125448692	 0.164968
H	-0.9305222249	 1.8242140745	-0.0396579165	 0.148541
H	-0.1071460684	-2.792477416	-1.3685087582	 0.128462
H	-0.6487065447	 0.3242828768	 2.7980050438	 0.137186
H	-0.2778541969	-1.3844216846	 3.1666455239	 0.156263
H	 2.1605051476	-0.9482878149	 3.0464361847	 0.108609
57.7797	71.9383	102.9357	156.4469	214.8769	268.8724	351.2318	420.7539	489.402	659.2973	686.6153	722.506	744.2979	882.5552	907.1941	988.0649	1004.1911	1042.4695	1052.9886	1153.6095	1159.456	1214.1689	1233.1402	1289.7761	1311.0029	1314.6738	1416.2602	1425.5689	1452.5857	1464.7683	1491.0733	1495.1697	1523.7742	1552.9802	1824.6472	2914.2544	3051.4059	3064.7421	3126.5851	3131.7852	3165.2578	3260.8675
CN1N=CN=C1CC=O	Cn1ncnc1CC=O	
InChI=1S/C5H7N3O/c1-8-5(2-3-9)6-4-7-8/h3-4H,2H2,1H3	InChI=1S/C5H7N3O/c1-8-5(2-3-9)6-4-7-8/h3-4H,2H2,1H3
