17
gdb 94413	2.61869	1.40567	1.22438	1.8078	69.18	-0.2569	-0.0437	0.2132	1084.992	0.133736	-458.938945	-458.930399	-458.929455	-458.972718	30.815	
C	-0.3245910719	 1.4034115965	-0.041326493	-0.395671
C	 0.1660767749	-0.0257727451	-0.1306426021	 0.088451
O	 1.455433562	-0.1484640649	-0.7797521662	-0.291621
C	 2.0523424838	-0.7388242891	 0.3878546831	-0.12553
C	 0.7320787683	-0.6574199388	 1.1707732711	 0.225349
O	 0.6923199944	 0.0899045572	 2.3988129171	-0.312433
C	 0.043333368	-0.9653072765	 3.1460842808	-0.195443
C	 0.0716537722	-1.8355036666	 1.8829079369	 0.281353
O	-0.267468399	-2.9366938921	 1.576297173	-0.274826
H	 0.3725842906	 2.0231250739	 0.5270736208	 0.135762
H	-0.4255943193	 1.8158186582	-1.049672325	 0.132083
H	-1.3029754921	 1.4439969919	 0.4480713721	 0.120602
H	-0.5720795483	-0.671792456	-0.6246798863	 0.094388
H	 2.4261929199	-1.7527696463	 0.2016388847	 0.119178
H	 2.8467155827	-0.1192452297	 0.8207468512	 0.121235
H	 0.647908875	-1.3259264099	 3.9865577467	 0.139035
H	-0.9552024311	-0.6855074828	 3.5028024352	 0.138089
65.5859	98.4127	136.1214	200.2412	208.7527	257.3228	378.8711	427.7301	497.5541	540.7697	593.5282	718.2069	777.1789	866.344	882.4593	902.9904	995.549	1004.1199	1022.8447	1029.2055	1079.7153	1091.0044	1130.6416	1138.008	1150.9153	1191.4771	1232.318	1284.4844	1300.2165	1349.5003	1367.0535	1404.0185	1481.005	1482.1983	1485.8981	1502.9179	1921.8406	3014.1254	3022.0027	3027.3626	3044.0642	3072.3305	3078.1605	3114.5244	3133.8178
CC1OCC11OCC1=O	C[C@H]1OC[C@]21OCC2=O	
InChI=1S/C6H8O3/c1-4-6(3-8-4)5(7)2-9-6/h4H,2-3H2,1H3	InChI=1S/C6H8O3/c1-4-6(3-8-4)5(7)2-9-6/h4H,2-3H2,1H3/t4-,6-/m1/s1
