14
gdb 65460	3.42007	0.98648	0.92857	3.049	64.64	-0.2904	-0.0104	0.28	1245.3214	0.0981	-473.822911	-473.814057	-473.813113	-473.85699	31.019	
O	-0.5556088777	 1.2565094045	-0.2938718548	-0.43037
C	-0.187915038	-0.0536221975	-0.018145852	 0.203028
C	-0.3781247926	-0.6056408062	 1.3888526922	-0.363973
C	-1.3443307577	-0.9934198185	 0.3170678192	 0.072235
O	-2.6244229556	-0.4448176114	 0.422795262	-0.191375
C	-3.2068697027	-0.0057307812	-0.7305198271	 0.18648
O	-4.3079832951	 0.4441448332	-0.7398345608	-0.259493
C	 0.8946533185	-0.581383229	-0.821181661	 0.249956
N	 1.7660131718	-0.9987429975	-1.456926724	-0.329499
H	 0.1017120106	 1.8548581458	 0.0800194331	 0.308095
H	 0.3211671475	-1.3453088023	 1.7589220221	 0.152447
H	-0.7458712118	 0.1144219535	 2.110982341	 0.157232
H	-1.3088848481	-1.9995126168	-0.0899840128	 0.142313
H	-2.5524633692	-0.1216149664	-1.6114995771	 0.102924
79.4562	94.4283	141.7968	172.4312	223.1076	277.6136	291.0941	347.3517	445.5661	469.1038	575.5293	603.8278	636.8639	739.9814	844.5658	896.5792	917.9237	1039.0959	1052.7535	1071.145	1108.2453	1136.7773	1179.7941	1241.8492	1257.6956	1350.2659	1392.1641	1424.6872	1463.5127	1881.9888	2349.4946	2997.5858	3149.0138	3159.1753	3249.8833	3798.6044
OC1(CC1OC=O)C#N	O[C@]1(C[C@H]1OC=O)C#N	
InChI=1S/C5H5NO3/c6-2-5(8)1-4(5)9-3-7/h3-4,8H,1H2	InChI=1S/C5H5NO3/c6-2-5(8)1-4(5)9-3-7/h3-4,8H,1H2/t4-,5-/m1/s1
