15
gdb 36279	4.74345	1.05251	0.98373	5.5551	69.15	-0.2469	0.021	0.2679	1170.4532	0.111711	-416.70166	-416.694251	-416.693307	-416.734282	28.	
N	 0.1730305856	-1.1254839436	 0.8484261094	-0.30546
C	 0.0288056308	-0.0665214656	 0.4101949495	 0.274151
C	-0.1800421271	 1.2799601395	-0.1513847358	-0.279939
N	 1.0999499749	 1.9882442351	-0.2239560348	-0.062306
C	 1.6092620831	 2.8041919803	-1.283046875	-0.095837
C	 0.5741241637	 3.8632978928	-1.8354140818	-0.003933
O	-0.6798112382	 3.6723515269	-1.1703621466	-0.225938
C	 0.3589427449	 4.389740958	-0.4940173066	-0.003926
C	 1.3860556498	 3.3501271977	 0.1081212167	-0.095835
H	-0.6384854236	 1.1794164944	-1.1382236021	 0.162694
H	-0.8974440856	 1.8130780723	 0.4772963803	 0.162681
H	 2.5290249493	 2.5332416757	-1.7890444364	 0.114192
H	 0.5728696768	 4.3424184864	-2.8060478708	 0.122633
H	 0.1449165539	 5.3894069248	-0.1382803627	 0.122633
H	 2.0991243417	 3.5847437755	 0.8903593966	 0.114189
44.3415	137.2424	236.3623	239.7514	378.7691	414.1609	500.1393	515.2765	707.0866	738.4287	748.2751	765.3301	848.4101	850.7126	868.7754	902.053	943.46	945.7645	976.4882	1036.0746	1045.8342	1047.0921	1052.1845	1212.1466	1218.0871	1239.5545	1260.7934	1276.9866	1351.4367	1361.5832	1415.9784	1440.4538	2362.731	3069.3439	3115.6218	3173.4306	3183.9312	3197.8684	3213.344
N#CCN1C2C3OC3C12	N#CCN1[C@H]2[C@H]3O[C@H]3[C@@H]12	
InChI=1S/C6H6N2O/c7-1-2-8-3-4(8)6-5(3)9-6/h3-6H,2H2	InChI=1S/C6H6N2O/c7-1-2-8-3-4(8)6-5(3)9-6/h3-6H,2H2/t3-,4+,5-,6+,8?
