14
gdb 25231	3.18504	1.67733	1.11381	4.6427	68.93	-0.2454	-0.0367	0.2087	1001.8867	0.103567	-436.740856	-436.73427	-436.733326	-436.772177	24.932	
O	-0.0341215155	-0.0447056179	 0.0040239018	-0.320999
C	 0.027680848	 1.1585512671	 0.0084452816	 0.296921
C	-1.2051919006	 2.1155350157	 0.0316691348	-0.317498
C	-0.688291904	 3.5917105013	 0.0319602167	-0.372666
C	 0.7752813432	 3.3478877294	 0.0100693868	 0.338208
C	 1.1891044841	 2.0590430669	-0.0026098976	 0.127791
N	 2.581130092	 2.0160376618	-0.0218945175	-0.323229
C	 2.9082457806	 3.2633537495	-0.0200548246	 0.044027
O	 1.8536630408	 4.1576415053	-0.0008112132	-0.196982
H	-1.8308290142	 1.9002720227	-0.8386525577	 0.142978
H	-1.8052231737	 1.890932648	 0.9175306065	 0.143055
H	-1.0336911947	 4.1567718178	-0.8405530729	 0.138556
H	-1.0088103228	 4.1476475164	 0.9196966729	 0.138564
H	 3.8930215467	 3.7038447959	-0.0313732276	 0.161273
104.6199	176.2046	240.7362	307.25	510.133	548.8128	599.1097	630.4718	639.723	708.931	735.2926	838.8913	851.3892	929.1446	960.955	1009.5444	1020.9038	1044.5219	1091.2335	1154.2014	1221.5276	1248.8758	1258.8596	1304.917	1370.0296	1408.7434	1454.2466	1489.1262	1547.605	1631.4188	1834.0734	3044.0865	3073.3105	3075.1859	3117.8378	3278.6839
O=C1CCC2=C1N=CO2	O=C1CCc2c1nco2	
InChI=1S/C6H5NO2/c8-4-1-2-5-6(4)7-3-9-5/h3H,1-2H2	InChI=1S/C6H5NO2/c8-4-1-2-5-6(4)7-3-9-5/h3H,1-2H2
