20
gdb 99126	3.49765	0.8026	0.75658	3.755	76.94	-0.2522	-0.0214	0.2308	1576.5076	0.169194	-440.276263	-440.26632	-440.265376	-440.312242	35.663	
C	 0.1041666165	 1.5202353321	-0.0826475684	-0.395077
C	 0.4119187763	 0.0476330102	 0.0423951467	-0.004548
N	 1.7627452176	-0.3295232744	 0.4926530194	-0.334566
C	 0.6026596176	-0.6760721182	 1.330485131	-0.010895
C	 0.5288172313	-0.0216444172	 2.7031134906	-0.309422
C	 1.4834583241	-0.7350275843	 3.6417241613	 0.36429
O	 1.1881013874	-1.7624263722	 4.2179017861	-0.333333
C	 2.8774430209	-0.1576675388	 3.8057333802	-0.141672
O	 3.6801735457	-0.9718824756	 4.6068431077	-0.422515
H	 0.5911657172	 2.1016580635	 0.7030801282	 0.127932
H	 0.4636953241	 1.901160317	-1.0442033589	 0.12619
H	-0.9753459218	 1.6985831186	-0.0321750656	 0.12079
H	-0.018932962	-0.5599781161	-0.7532533351	 0.089286
H	 2.1058778792	-1.1439399406	-0.0080860529	 0.237189
H	 0.2945024365	-1.7201293711	 1.3446364862	 0.103322
H	 0.7888519709	 1.0369180891	 2.6305728506	 0.11406
H	-0.4863530475	-0.1166480399	 3.1007486883	 0.127701
H	 3.3027852532	-0.0209524366	 2.7978712134	 0.140342
H	 2.7718097809	 0.8557145818	 4.2327868099	 0.109891
H	 3.0946704717	-1.6915008173	 4.8932531214	 0.291034
46.956	54.8154	96.6684	158.4056	188.0352	218.2551	274.0975	342.9464	397.4298	416.9	447.9244	483.8838	540.1151	674.7687	771.4387	805.9324	821.4842	888.3169	940.9484	971.2981	1013.5945	1018.8098	1030.1948	1082.4006	1110.5706	1141.0196	1160.534	1206.5458	1239.4169	1250.0893	1271.5775	1274.0721	1300.7512	1326.0596	1396.3491	1419.9681	1449.4431	1461.4974	1469.2444	1489.9587	1493.5816	1502.9276	1791.3914	2956.9576	2996.366	3039.5651	3059.8276	3099.9002	3101.8613	3115.1701	3127.4274	3135.6649	3513.8731	3680.3112
CC1NC1CC(=O)CO	C[C@H]1N[C@H]1CC(=O)CO	
InChI=1S/C6H11NO2/c1-4-6(7-4)2-5(9)3-8/h4,6-8H,2-3H2,1H3	InChI=1S/C6H11NO2/c1-4-6(7-4)2-5(9)3-8/h4,6-8H,2-3H2,1H3/t4-,6+/m1/s1
