12
gdb 21797	6.37792	1.15808	1.07667	2.193	56.88	-0.2619	-0.052	0.2099	1023.9599	0.082487	-414.640856	-414.633837	-414.632893	-414.673823	23.756	
O	-0.3910265818	 0.6983218564	 0.8948948611	-0.224204
C	 0.0732425843	 1.0421719378	-0.1578893013	 0.158198
C	 1.4304396825	 1.7293851006	-0.3045077626	-0.386223
C	 1.373823901	 2.9006726062	-1.2278814266	 0.225947
C	 1.3191562897	 4.239183012	-0.9936568631	-0.036553
O	 1.2526006502	 4.884461551	-2.1538064131	-0.155285
N	 1.2599598493	 3.8794992075	-3.1702348825	 0.004048
N	 1.3294317287	 2.7613446393	-2.6022013333	-0.163855
H	-0.4597918182	 0.8740617384	-1.1190426034	 0.103348
H	 1.7829795072	 2.0142219565	 0.6889942015	 0.140003
H	 2.1260482691	 0.9853686048	-0.7145815617	 0.156471
H	 1.326902418	 4.8349829396	-0.0955205448	 0.178105
35.7897	62.8584	154.4946	310.8486	379.1697	446.788	627.6484	639.3264	680.1699	733.9982	812.6822	855.8335	979.6738	1014.539	1043.1724	1052.8364	1149.9647	1197.6161	1250.5982	1301.8514	1346.6524	1418.5181	1446.7654	1464.7328	1617.3177	1840.7653	2901.6245	3035.4626	3121.5164	3284.5128
O=CCC1=CON=N1	O=CCc1conn1	
InChI=1S/C4H4N2O2/c7-2-1-4-3-8-6-5-4/h2-3H,1H2	InChI=1S/C4H4N2O2/c7-2-1-4-3-8-6-5-4/h2-3H,1H2
