17
gdb 44463	3.98382	1.3635	1.23255	1.6857	72.24	-0.2441	-0.0293	0.2148	1014.9823	0.136268	-421.760751	-421.753941	-421.752997	-421.791927	28.093	
O	 0.0782789427	 0.0159525247	-0.2338733386	-0.287889
C	-0.0109434165	 1.1949226499	-0.0461193514	 0.404847
C	-1.3606881668	 1.999907798	 0.0003164566	-0.396626
C	-0.8734141138	 3.4423256952	-0.0568192805	-0.006654
C	-0.7706728582	 4.5951220223	 0.9908645737	 0.000462
C	-0.1813926665	 3.6346694293	 2.0306088435	-0.272098
C	 0.4878007838	 3.3768619854	 0.6479281511	 0.43689
C	 1.2172036915	 2.1547685252	 0.1899154021	-0.476176
O	 0.6299472303	 4.8415555271	 0.4879723493	-0.369151
H	-1.9961474069	 1.6942478192	-0.8335578663	 0.13472
H	-1.8804948691	 1.7156002084	 0.9209645087	 0.139823
H	-0.7916874422	 3.8218924254	-1.0778242782	 0.092281
H	-1.3881019213	 5.4836897693	 1.1239743813	 0.098814
H	 0.4710202684	 4.0995968556	 2.7696877046	 0.113436
H	-0.8249975388	 2.8657880564	 2.4630238634	 0.101665
H	 1.927231519	 1.7013282596	 0.8839669369	 0.137314
H	 1.7154023747	 2.3073424691	-0.7749423462	 0.148341
84.5295	287.0817	317.9659	365.9564	470.9004	480.6636	498.3418	573.9421	644.5566	680.4864	690.2029	705.0694	801.3768	824.9487	890.6536	920.2236	939.3174	969.7838	1008.8995	1020.1862	1045.7071	1098.8737	1109.8721	1117.2433	1169.8312	1190.4311	1194.5319	1204.5096	1225.7845	1246.5256	1270.9362	1335.4051	1377.6611	1448.9695	1453.3593	1501.9494	1860.9089	3051.6161	3062.0639	3075.3633	3087.4245	3117.4826	3119.477	3121.1758	3152.401
O=C1CC2C3CC2(C1)O3	O=C1C[C@H]2[C@H]3C[C@]2(C1)O3	
InChI=1S/C7H8O2/c8-4-1-5-6-3-7(5,2-4)9-6/h5-6H,1-3H2	InChI=1S/C7H8O2/c8-4-1-5-6-3-7(5,2-4)9-6/h5-6H,1-3H2/t5-,6+,7-/m0/s1
