18
gdb 107223	3.89791	1.23261	1.11623	2.2078	69.74	-0.2415	0.0595	0.301	1108.1674	0.149348	-439.042828	-439.035249	-439.034305	-439.075111	29.8	
O	 0.0797677797	 1.3023031721	-0.4681527469	-0.421346
C	 0.0479685854	 0.04421315	 0.1870439373	-0.125771
C	-1.3520492378	-0.518324912	 0.2243391761	 0.292518
C	-2.3960448268	 0.1141651082	 1.1547792922	-0.323367
C	-3.3977426184	-0.9894007466	 1.4662016721	 0.038973
O	-4.0954516728	-1.5166740921	 0.3250806299	-0.259414
C	-2.9583909362	-2.2390712151	 0.8244655838	 0.025426
C	-1.6830446683	-1.9667476767	 0.0445684629	-0.120364
N	-1.806663034	-1.0308662283	-1.0815408186	-0.377485
H	-0.2673701367	 1.146624419	-1.3546608468	 0.290727
H	 0.7115147481	-0.6819561473	-0.3053897337	 0.092485
H	 0.4265410145	 0.2172224045	 1.2002581638	 0.1024
H	-1.9150410617	 0.4361833018	 2.085654526	 0.113659
H	-2.8719063198	 0.9977852377	 0.7171120814	 0.127464
H	-3.9865586152	-0.9555408879	 2.379672933	 0.103524
H	-3.1665354688	-3.2313430171	 1.2121649481	 0.104107
H	-0.9446304688	-2.7559597047	-0.0521599702	 0.091626
H	-2.7985457424	-0.8359107954	-1.2139931203	 0.244838
68.0087	139.5262	260.8746	309.1815	354.1414	376.3749	437.0677	450.733	610.5772	691.0804	710.2544	727.9271	823.2726	847.2294	882.3981	886.5229	938.4172	941.492	978.924	1027.3932	1037.2753	1051.091	1081.3658	1109.7757	1136.6109	1179.5235	1191.6506	1225.1525	1254.0506	1290.5788	1295.8268	1321.1115	1352.4405	1378.937	1410.6976	1427.727	1439.931	1472.446	1496.2882	2995.551	3045.4863	3073.0864	3086.8385	3142.6059	3160.2042	3174.0356	3473.2365	3791.4901
OCC12CC3OC3C1N2	OC[C@]12C[C@H]3O[C@H]3[C@H]1N2	
InChI=1S/C6H9NO2/c8-2-6-1-3-4(9-3)5(6)7-6/h3-5,7-8H,1-2H2	InChI=1S/C6H9NO2/c8-2-6-1-3-4(9-3)5(6)7-6/h3-5,7-8H,1-2H2/t3-,4-,5-,6-/m1/s1
