16
gdb 130954	6.32354	0.71078	0.67305	4.2191	70.82	-0.2566	-0.0498	0.2069	1578.7423	0.1246	-434.081241	-434.072818	-434.071874	-434.116635	28.655	
O	-0.1706231947	-0.0661520874	-0.2683895359	-0.219117
C	-0.0170551244	 1.1138002529	-0.0988266764	 0.156473
C	 1.3202627548	 1.8247117733	-0.1568103224	-0.27314
C	 1.3294217694	 2.9098669394	-1.2502727568	-0.194649
N	 2.5379365392	 3.7168649426	-1.2325015089	-0.001463
C	 2.7547848243	 4.8990825073	-0.5788552051	 0.016146
N	 3.9836742429	 5.3110692913	-0.7491749306	-0.218238
N	 4.6204956546	 4.3745367353	-1.5407126733	-0.218035
C	 3.7464146947	 3.4405475906	-1.8113900148	 0.017247
H	-0.8842224668	 1.7817345469	 0.1158783702	 0.081112
H	 1.4932546418	 2.3062823205	 0.814783417	 0.139112
H	 2.1092142805	 1.0879385475	-0.3256211005	 0.140896
H	 1.2372419094	 2.4505837539	-2.2386769392	 0.149472
H	 0.474876134	 3.5826933223	-1.1272168696	 0.138011
H	 1.9876988867	 5.4063168876	-0.0134766253	 0.1413
H	 3.9216204735	 2.5626164859	-2.4144794385	 0.144873
37.8875	56.2446	65.7443	104.9423	272.7063	328.4493	338.5881	518.074	650.8881	695.5972	730.4584	776.9551	816.3218	846.6496	859.9683	956.8566	985.094	1023.1391	1079.5883	1088.027	1095.2144	1186.6473	1211.1775	1234.3643	1276.6651	1299.0513	1385.7875	1394.9095	1407.4213	1430.9359	1465.3972	1493.6124	1501.2712	1552.0559	1841.6314	2858.1005	3032.3744	3056.5637	3097.7468	3121.2275	3257.1448	3261.7231
O=CCCN1C=NN=C1	O=CCCn1cnnc1	
InChI=1S/C5H7N3O/c9-3-1-2-8-4-6-7-5-8/h3-5H,1-2H2	InChI=1S/C5H7N3O/c9-3-1-2-8-4-6-7-5-8/h3-5H,1-2H2
