16
gdb 28712	5.65347	0.94656	0.81492	3.7752	78.57	-0.2039	0.0014	0.2054	1373.0435	0.125119	-434.103867	-434.095331	-434.094386	-434.137801	30.462	
C	 0.2989667578	 1.4966172338	-0.1784271488	-0.493907
C	-0.0494597095	 0.0585547652	-0.0940609224	 0.323991
C	-1.181954858	-0.6552359727	 0.0891819145	-0.189183
N	-0.9076895606	-2.023343914	 0.0810246927	-0.309298
C	 0.3685349855	-2.0683523444	-0.1056349792	 0.517132
N	 1.2400183701	-3.1288125638	-0.2088322645	-0.401254
C	 0.9737101061	-4.4860109205	-0.1404851088	 0.071947
N	-0.1810410879	-4.9772095084	 0.0385115637	-0.404258
O	 0.9817748526	-0.8594975123	-0.2242043286	-0.236704
H	 1.0070727347	 1.7908990921	 0.6050705461	 0.137719
H	 0.7527885103	 1.7498788958	-1.1437040424	 0.137714
H	-0.6061744515	 2.0969459188	-0.0608846612	 0.142062
H	-2.1871961686	-0.2891054918	 0.2282824242	 0.119647
H	 2.1988130127	-2.8597012923	-0.3553476056	 0.265012
H	 1.9039646235	-5.0544177761	-0.263677859	 0.092545
H	-0.1239085174	-5.9935894894	 0.0522888194	 0.226836
39.3281	148.0677	152.9493	163.2884	224.3569	263.1603	349.7908	413.7254	464.7418	586.01	629.5698	693.0765	738.5261	806.0535	832.3581	850.6793	966.2454	979.3325	1036.179	1046.4559	1067.5724	1109.8253	1161.2369	1225.6712	1246.7037	1258.8208	1327.8823	1419.1142	1425.0506	1470.9721	1491.6588	1575.1463	1656.2739	1661.9726	1743.301	3026.5693	3038.8483	3075.3418	3127.0377	3260.5853	3507.9908	3659.436
CC1=CN=C(NC=N)O1	Cc1cnc(NC=N)o1	
InChI=1S/C5H7N3O/c1-4-2-7-5(9-4)8-3-6/h2-3H,1H3,(H2,6,7,8)	InChI=1S/C5H7N3O/c1-4-2-7-5(9-4)8-3-6/h2-3H,1H3,(H2,6,7,8)
