21
gdb 60230	2.92824	0.92945	0.85666	3.797	78.55	-0.2701	0.0102	0.2803	1470.1545	0.181611	-424.263582	-424.253883	-424.252939	-424.298973	35.165	
C	 0.0012052037	 1.5367058841	-0.0178712216	-0.393369
C	 0.0159295804	 0.0035176209	 0.0421632949	 0.040168
C	 0.9041431814	-0.4832229155	 1.1959688057	-0.387929
C	-1.4257593711	-0.5342023971	 0.1462071678	-0.209883
C	-1.5492996368	-2.0484050937	-0.032504013	-0.198934
C	-2.9499367289	-2.6570466562	-0.2473056253	-0.105657
O	-2.5530203791	-3.1336847619	-1.5743602886	-0.239535
C	-1.298661469	-2.5909061865	-1.4450048221	 0.463426
O	-0.4196095519	-2.5958203845	-2.2466563775	-0.324995
H	 1.0153327243	 1.9353957646	-0.1215761923	 0.11469
H	-0.5891559565	 1.8986904999	-0.8660803304	 0.113501
H	-0.430585412	 1.9630919289	 0.8960071906	 0.109938
H	 0.4399498268	-0.3726414783	-0.8972467602	 0.108984
H	 0.5026106398	-0.1598951826	 2.1644316263	 0.109291
H	 0.9990796124	-1.5731701039	 1.2181541907	 0.11551
H	 1.9149038402	-0.0733479914	 1.1043427059	 0.117731
H	-1.8504582077	-0.2570312903	 1.1210263486	 0.099883
H	-2.0468063361	-0.041233975	-0.6128720599	 0.101772
H	-0.9592757971	-2.5882296093	 0.7125774444	 0.11555
H	-3.2291390323	-3.4934692704	 0.3962651841	 0.125082
H	-3.7718865405	-1.9417001719	-0.3274381081	 0.124776
43.8788	84.0612	106.8392	172.4119	226.4397	230.1991	270.2793	307.7975	373.8261	418.7269	428.6014	512.038	708.3119	764.4056	809.2178	818.4659	892.0076	932.2207	937.2524	953.4204	968.5763	972.9986	1053.0217	1100.3571	1117.557	1144.936	1155.7663	1173.1243	1193.1804	1221.4007	1267.3804	1303.4551	1341.0997	1363.5522	1382.1448	1389.3472	1403.9976	1424.6532	1482.6771	1490.0838	1497.1598	1505.2276	1511.0384	1516.9658	1927.4035	3008.3225	3022.9599	3025.5778	3035.3234	3050.5397	3069.173	3085.8719	3088.8796	3095.7724	3102.1759	3105.1926	3130.7745
CC(C)CC1COC1=O	CC(C)C[C@H]1COC1=O	
InChI=1S/C7H12O2/c1-5(2)3-6-4-9-7(6)8/h5-6H,3-4H2,1-2H3	InChI=1S/C7H12O2/c1-5(2)3-6-4-9-7(6)8/h5-6H,3-4H2,1-2H3/t6-/m0/s1
