18
gdb 24122	4.83744	0.99452	0.86258	2.0414	79.29	-0.195	0.0456	0.2406	1326.8341	0.149518	-401.964421	-401.956502	-401.955557	-401.997537	30.066	
C	-0.0097589233	 1.4261001388	 0.5766122891	-0.356973
C	-0.1163960897	-0.0298412387	 0.1690923282	 0.100157
C	-1.2774890907	-0.5577123927	-0.5566928774	-0.183335
O	-0.0530809392	-0.2807299443	-1.24470081	-0.245028
C	 1.3575505131	 1.9850317274	 0.3308835858	 0.307977
C	 2.2367684626	 2.6642921697	 1.1462144675	-0.238733
C	 3.3904657826	 2.9763821727	 0.3732117061	-0.14192
C	 3.1830888001	 2.4753360768	-0.8906705138	-0.093463
N	 1.9469982166	 1.8826745872	-0.9077602877	-0.273238
H	-0.7719772256	 1.994484845	 0.0256601492	 0.108958
H	-0.2488833744	 1.5230156158	 1.6409050569	 0.118297
H	 0.4820736624	-0.7256320475	 0.7577650533	 0.103723
H	-1.5359026821	-1.6124591497	-0.4803096201	 0.119758
H	-2.1066722823	 0.1075908168	-0.7936372699	 0.11744
H	 2.0642991793	 2.9137660916	 2.1826245599	 0.084227
H	 4.268386692	 3.5078186246	 0.7069225734	 0.088708
H	 3.8057365471	 2.487897912	-1.7708004608	 0.111713
H	 1.5343036817	 1.3782459546	-1.6752857396	 0.271732
71.2807	88.83	128.6869	286.8578	295.9586	365.911	457.5778	564.285	635.8508	661.2224	715.8352	738.4204	787.4562	794.5767	845.583	860.6653	898.8834	928.6833	949.9615	981.6979	1053.0793	1090.43	1095.6697	1117.6359	1148.2632	1156.9262	1169.1497	1233.6366	1258.5994	1291.0382	1301.4701	1325.3408	1437.4542	1442.6293	1454.2319	1470.6533	1503.736	1526.5202	1616.576	3007.934	3078.2016	3086.5207	3113.3595	3174.5309	3236.9977	3250.7006	3270.4769	3661.0447
C(C1CO1)C1=CC=CN1	C([C@H]1CO1)c1ccc[nH]1	
InChI=1S/C7H9NO/c1-2-6(8-3-1)4-7-5-9-7/h1-3,7-8H,4-5H2	InChI=1S/C7H9NO/c1-2-6(8-3-1)4-7-5-9-7/h1-3,7-8H,4-5H2/t7-/m0/s1
