14
gdb 124404	3.21341	1.23001	0.99218	2.6548	68.26	-0.283	-0.073	0.2101	1157.0441	0.098754	-432.777185	-432.768941	-432.767997	-432.811045	29.39	
C	-0.1125766019	 1.6140270896	-0.0335295823	-0.391189
C	 0.0050701307	 0.0773352009	-0.0531955322	-0.24616
C	-1.3018236415	-0.5721653585	 0.0739159411	 0.330312
C	-2.3830724456	-1.0841943973	 0.1757989001	-0.460244
C	 0.7070171787	-0.4209358689	-1.2877507634	 0.424815
N	 0.9918749499	 0.2888037926	-2.3395175011	-0.144434
O	 1.6167343567	-0.5709872413	-3.1771180195	-0.141903
N	 1.6886615926	-1.8212167046	-2.5633859516	 0.047349
N	 1.1454132862	-1.7279140303	-1.4363709666	-0.19464
H	 0.877057129	 2.0729635099	-0.0953018271	 0.135012
H	-0.7106961689	 1.9662648866	-0.8761273625	 0.151349
H	-0.5953700338	 1.9292275633	 0.8933621089	 0.135055
H	 0.6229894981	-0.2405690459	 0.797766904	 0.144908
H	-3.3347289601	-1.5469330363	 0.2685493222	 0.209769
33.9335	105.0732	183.4008	214.5957	230.7344	307.5346	397.8828	461.7539	542.557	638.6022	658.2858	669.9561	686.3555	690.2739	801.5905	875.6764	960.8041	1020.8211	1060.5516	1076.7191	1089.7932	1141.4664	1245.8397	1312.2348	1349.6997	1414.3811	1482.5776	1491.27	1498.7714	1592.8857	2243.6857	3019.9923	3060.0103	3139.1833	3146.1819	3502.9448
CC(C#C)C1=NON=N1	C[C@@H](C#C)c1nonn1	
InChI=1S/C5H5N3O/c1-3-4(2)5-6-8-9-7-5/h1,4H,2H3	InChI=1S/C5H5N3O/c1-3-4(2)5-6-8-9-7-5/h1,4H,2H3/t4-/m0/s1
