16
gdb 47372	2.32673	1.51634	1.21353	4.0054	68.45	-0.2596	-0.0384	0.2212	1057.9465	0.125054	-437.917317	-437.909388	-437.908444	-437.950254	29.322	
O	-0.0478312189	-0.0793001248	 0.1354559029	-0.291814
C	-0.0502589239	 1.1231932686	 0.0478814073	 0.386026
C	-1.3156160063	 1.9658346299	 0.0638275274	-0.302776
C	-1.2677365313	 3.0516063983	-1.023553882	-0.107687
O	-0.0719535308	 3.8242305279	-0.9343649763	-0.23817
C	 1.1030632967	 3.0653905108	-1.1200602571	-0.046687
C	 1.233880793	 1.9404141307	-0.0642555489	-0.318713
C	 1.1820405047	 2.5168944658	-2.4951352167	 0.274626
N	 1.2348079802	 2.0936697555	-3.56891498	-0.315895
H	-2.1856792858	 1.3161713231	-0.0564685646	 0.133659
H	-1.3806087977	 2.4551385665	 1.0445224558	 0.132996
H	-1.3497222582	 2.5978997123	-2.0210865663	 0.13323
H	-2.0868870381	 3.7636101655	-0.9055849422	 0.130315
H	 1.9315804015	 3.771269522	-1.0063461359	 0.145321
H	 1.4087703577	 2.4291891776	 0.9017848646	 0.139139
H	 2.0749034273	 1.2785921505	-0.2794583279	 0.14643
72.736	103.4546	178.2201	233.454	331.1815	390.7966	411.3022	472.9533	495.9373	576.0549	616.3588	728.093	770.6218	776.0331	866.1187	920.3173	940.107	1002.6937	1021.756	1087.2521	1105.5817	1191.9223	1220.2135	1237.8864	1255.939	1288.7857	1337.278	1353.0455	1367.8642	1408.7741	1447.4475	1458.5906	1510.5142	1830.6522	2354.9061	3017.688	3034.4272	3046.1699	3071.9364	3112.6584	3116.875	3127.8706
O=C1CCOC(C1)C#N	O=C1CCO[C@@H](C1)C#N	
InChI=1S/C6H7NO2/c7-4-6-3-5(8)1-2-9-6/h6H,1-3H2	InChI=1S/C6H7NO2/c7-4-6-3-5(8)1-2-9-6/h6H,1-3H2/t6-/m0/s1
