18
gdb 23393	2.77774	1.39496	1.32344	1.3066	75.54	-0.2433	0.0032	0.2465	1055.4088	0.149128	-439.020383	-439.012765	-439.01182	-439.052364	30.103	
O	-0.3077975907	 1.3479060221	-0.1742705687	-0.393641
N	-0.0905125292	-0.0446671098	-0.1772787105	-0.288263
C	-1.1797733887	-0.6821426391	-0.1106500649	 0.419565
C	-1.4654303527	-2.1638177709	 0.0566266305	-0.104341
C	-2.6270535034	-1.6946646425	 0.9962194245	-0.244239
C	-2.6627010015	-0.3883838233	 0.1450219481	 0.043892
O	-3.4511842151	-0.5995387254	-1.0190654262	-0.275652
C	-2.8355494571	-1.5002514237	-1.9414188036	-0.064647
C	-2.110142056	-2.6760686325	-1.2533979447	-0.235807
H	 0.5915089271	 1.6912006031	-0.2101543257	 0.306722
H	-0.6852402944	-2.81877684	 0.4450619024	 0.083928
H	-3.5455639921	-2.2863229965	 0.9872737741	 0.103222
H	-2.2890070573	-1.5137110071	 2.0189636615	 0.111407
H	-2.9628328157	 0.5583621199	 0.5914327889	 0.101229
H	-3.6297968627	-1.8453955838	-2.6080457474	 0.109425
H	-2.1045229954	-0.9435643948	-2.5456472121	 0.109986
H	-1.3502255645	-3.067442904	-1.9380035919	 0.109826
H	-2.7990644307	-3.4950078217	-1.0185748242	 0.107387
102.5847	179.8782	237.8422	278.8214	321.7884	409.8185	425.4686	457.4069	541.8316	571.8601	678.2655	758.8157	810.6991	829.0245	839.8148	902.0843	936.4661	954.0027	966.3676	1044.7135	1052.6976	1074.3382	1094.9529	1118.8755	1158.3726	1169.2031	1220.5683	1235.9323	1263.054	1271.0393	1305.6942	1340.6568	1358.7438	1408.9516	1410.4696	1473.0972	1490.7813	1508.0607	1786.9905	2998.1346	3038.5185	3062.8443	3082.4447	3097.6758	3110.3837	3128.6449	3133.2702	3817.6572
ON=C1C2CC1OCC2	ON=C1[C@H]2C[C@@H]1OCC2	
InChI=1S/C6H9NO2/c8-7-6-4-1-2-9-5(6)3-4/h4-5,8H,1-3H2	InChI=1S/C6H9NO2/c8-7-6-4-1-2-9-5(6)3-4/h4-5,8H,1-3H2/t4-,5+/m1/s1
