20
gdb 111152	4.04431	1.03542	0.95514	2.6065	80.3	-0.2365	0.077	0.3135	1317.2451	0.170356	-403.04138	-403.032979	-403.032035	-403.074405	32.604	
C	 0.0770986276	 1.5361435964	 0.1400385655	-0.379141
C	-0.151684985	 0.0349820926	-0.0712700732	-0.223816
C	 0.5935425313	-0.506798336	-1.2794658195	 0.045462
C	 2.1189829834	-0.815456985	-1.1539551356	-0.080234
O	 1.7897272007	-1.9693769818	-0.2800587523	-0.313669
C	 0.8171475683	-2.0429026916	-1.4054026107	-0.078767
C	 1.9859506397	-1.7579845313	-2.3577447689	 0.474111
C	 2.2253914512	-1.6498851412	-3.8034642834	-0.346092
N	 2.8990368885	-2.6839316	-2.9635705662	-0.394002
H	 1.1351010851	 1.7553824157	 0.3205292377	 0.115356
H	-0.2365596374	 2.1168052038	-0.7349188009	 0.111714
H	-0.4882198582	 1.9031842947	 1.0019953693	 0.115571
H	 0.1603137407	-0.5253367541	 0.8143711323	 0.119914
H	-1.2245105882	-0.1536261777	-0.2076749295	 0.094279
H	 0.3042618735	-0.0050021104	-2.2100230524	 0.071327
H	 2.9457725923	-0.171147472	-0.850973111	 0.091983
H	 0.0984132073	-2.8618887542	-1.3993679485	 0.099327
H	 1.513949312	-2.0473363692	-4.5221307307	 0.124825
H	 2.8119651105	-0.8083795084	-4.165168561	 0.115444
H	 3.8662250667	-2.4297577703	-2.778473481	 0.236409
87.9974	127.5142	165.2374	232.4427	271.8553	315.3522	330.6025	422.5643	484.9129	603.9508	714.4756	744.7911	751.2134	791.9196	859.9865	872.9505	887.346	911.807	921.7557	964.7936	973.968	1041.6962	1060.1936	1072.4206	1104.621	1105.6756	1130.6039	1141.0858	1160.1991	1193.0193	1212.8159	1241.9327	1248.4388	1263.901	1288.1075	1346.5986	1406.9921	1415.8067	1453.4091	1488.4667	1500.6153	1505.8143	1532.9274	3025.3099	3029.877	3046.5976	3083.0681	3103.3603	3103.6363	3106.2361	3108.6583	3129.1102	3187.6813	3501.5115
CCC1C2OC1C21CN1	CC[C@H]1[C@H]2O[C@@H]1[C@]12CN1	
InChI=1S/C7H11NO/c1-2-4-5-7(3-8-7)6(4)9-5/h4-6,8H,2-3H2,1H3	InChI=1S/C7H11NO/c1-2-4-5-7(3-8-7)6(4)9-5/h4-6,8H,2-3H2,1H3/t4-,5+,6-,7+
