19
gdb 85257	2.47221	1.61011	1.20116	4.1512	76.82	-0.2501	0.0204	0.2705	1094.0807	0.160559	-419.20569	-419.197425	-419.19648	-419.238586	31.892	
C	 0.7980722609	 1.2765198327	-0.0212341592	-0.398894
C	-0.1388177273	 0.0745293255	-0.0340471124	 0.113882
C	 0.0791094456	-0.8869509446	-1.2206357264	-0.335472
C	 1.0838172355	-1.868618927	-0.6466996769	 0.235327
C	 1.6209730761	-3.0602535657	-1.3331113445	-0.29012
N	 2.5028013715	-1.9081157358	-1.0756683167	-0.339342
C	 0.8454759548	-1.8413507527	 0.8342355849	 0.399214
N	 1.2475188876	-2.7051998923	 1.6602908017	-0.548107
O	 0.0969028017	-0.7401233297	 1.1411624636	-0.257563
H	 1.8415066924	 0.9574611982	-0.1097096141	 0.138373
H	 0.5666163191	 1.9485286265	-0.8541340594	 0.117637
H	 0.6876674047	 1.8335385053	 0.9127984748	 0.133647
H	-1.1781545274	 0.4072386974	 0.03398294	 0.092369
H	-0.8571989927	-1.3970944532	-1.4705743129	 0.121018
H	 0.4350545846	-0.3727927675	-2.1172747396	 0.107807
H	 1.8431632576	-3.9379256941	-0.7343700801	 0.14983
H	 1.2909530454	-3.2522769596	-2.3512162276	 0.111086
H	 2.5980970321	-1.3612084567	-1.9297710245	 0.227446
H	 0.9750410177	-2.4539344469	 2.6115616991	 0.221862
78.9463	105.4199	245.4286	251.825	268.5463	311.0671	374.0115	418.641	470.735	559.9455	686.9132	696.0073	739.9471	820.976	838.426	884.4172	885.6837	935.2023	945.0341	968.5948	981.3232	1031.3845	1044.9041	1079.4823	1115.8534	1131.8615	1149.9404	1214.647	1244.146	1269.4419	1296.2487	1331.7142	1354.363	1385.8021	1411.7328	1428.9158	1481.8032	1491.9083	1497.9327	1501.2053	1781.7569	3038.7992	3046.0436	3070.4292	3099.9971	3109.0788	3113.2003	3124.1831	3207.2626	3475.7863	3480.2325
CC1CC2(CN2)C(=N)O1	C[C@H]1C[C@]2(CN2)[C]([NH])O1	
InChI=1S/C6H10N2O/c1-4-2-6(3-8-6)5(7)9-4/h4,7-8H,2-3H2,1H3	InChI=1S/C6H10N2O/c1-4-2-6(3-8-6)5(7)9-4/h4,7-8H,2-3H2,1H3/t4-,6-/m0/s1
