23
gdb 116296	2.33823	1.14761	0.86237	2.1203	81.31	-0.2394	0.076	0.3154	1427.2417	0.206013	-425.427129	-425.417083	-425.416139	-425.462569	36.585	
C	-0.2116954465	 1.743778798	 0.1247555195	-0.390767
C	-0.0399448061	 0.2267594807	 0.2662637176	-0.203329
C	-1.3246325302	-0.5523897911	-0.0365016391	-0.005867
C	-1.8025448813	-0.4533347711	-1.5086530833	-0.074266
O	-2.3139554616	-1.7308143473	-1.8798946903	-0.263806
C	-2.4432967931	-2.5301154811	-0.7087121708	-0.083439
C	-1.2994250292	-2.0830717693	 0.2078181527	-0.028592
C	 0.0093809427	-2.7705848485	-0.1787325613	-0.08599
O	-0.1485510341	-4.1586707275	 0.0907789217	-0.425019
H	 0.7141743533	 2.2711740652	 0.3738805747	 0.113884
H	-0.4864368959	 2.0247703867	-0.8975047013	 0.122264
H	-0.9973297733	 2.1151235589	 0.7923334185	 0.116242
H	 0.7637981477	-0.1096342117	-0.400870313	 0.099661
H	 0.2893969166	-0.0037344167	 1.2873347976	 0.098461
H	-2.116841817	-0.1456646123	 0.6053844887	 0.07565
H	-2.5779014931	 0.3152219523	-1.631415926	 0.093351
H	-0.9776570378	-0.2047249752	-2.1901003463	 0.094168
H	-3.419432937	-2.3648461597	-0.2240271781	 0.079159
H	-2.3705682897	-3.5797054455	-1.0011260871	 0.121569
H	-1.5080387134	-2.3231280707	 1.2553938894	 0.077773
H	 0.2219442225	-2.5958122027	-1.2446497268	 0.097832
H	 0.8449139606	-2.3548125427	 0.4029526941	 0.084648
H	 0.6348390459	-4.6172019388	-0.225819991	 0.286413
61.189	94.5216	123.9638	145.3102	176.232	223.4541	253.1344	259.6889	321.5986	363.6219	441.4545	494.2037	676.3468	710.5311	792.1764	835.4822	868.0297	936.9119	944.2989	963.3084	988.0893	1005.6878	1037.4776	1061.7866	1079.9944	1097.4873	1136.4917	1169.2733	1178.4949	1206.094	1236.6488	1243.8969	1255.2839	1290.9678	1298.0624	1323.7523	1345.4845	1367.8234	1373.0401	1387.8545	1408.4703	1413.0912	1458.2324	1486.4006	1500.1471	1506.7017	1519.3763	1520.3956	1532.0161	2968.5421	2978.9197	2997.2262	3008.3305	3011.158	3020.6485	3030.5956	3033.5342	3054.1468	3064.9065	3098.8538	3104.1031	3110.3133	3833.8835
CCC1COCC1CO	CC[C@H]1COC[C@H]1CO	
InChI=1S/C7H14O2/c1-2-6-4-9-5-7(6)3-8/h6-8H,2-5H2,1H3	InChI=1S/C7H14O2/c1-2-6-4-9-5-7(6)3-8/h6-8H,2-5H2,1H3/t6-,7+/m0/s1
