14
gdb 31904	3.65193	1.1235	0.86389	4.636	75.73	-0.2212	-0.0318	0.1894	1251.0235	0.101184	-436.719525	-436.711485	-436.710541	-436.752828	28.464	
C	 0.0761752132	 1.446002006	-0.1538571684	-0.254266
O	 0.0346794536	 0.0165589022	-0.059229679	-0.265532
C	 0.5936436018	-0.6811041128	-1.0365255766	 0.445763
C	 0.6937482844	-2.0384462306	-1.1959501803	-0.284549
C	 1.3896564098	-2.2207639321	-2.4202040265	-0.253428
C	 1.66441101	-0.9783445987	-2.9219958995	 0.236493
O	 1.1671033073	-0.0158334097	-2.0561055318	-0.213754
C	 2.3185054974	-0.5346376371	-4.0821539866	 0.219259
N	 2.8619149798	-0.1831779212	-5.0452968915	-0.346924
H	 1.1089715709	 1.8052460743	-0.1730119744	 0.148322
H	-0.4443678802	 1.7921374659	-1.0512749011	 0.148263
H	-0.4315281215	 1.8098913151	 0.73864177	 0.149338
H	 0.3167921525	-2.7880805622	-0.5217783245	 0.130562
H	 1.6602489811	-3.1556168592	-2.8851070798	 0.140453
70.7707	132.4891	136.336	173.3563	253.5688	301.9568	487.4021	500.0111	544.9002	587.9189	644.5005	694.5836	705.7379	772.3397	874.5075	966.1558	986.2311	1037.7054	1061.2999	1176.269	1203.2568	1225.7118	1253.0172	1322.7273	1405.507	1470.8813	1487.2564	1498.8777	1581.1051	1647.2994	2328.9365	3045.3051	3119.0668	3164.5628	3266.7085	3286.1898
COC1=CC=C(O1)C#N	COc1ccc(o1)C#N	
InChI=1S/C6H5NO2/c1-8-6-3-2-5(4-7)9-6/h2-3H,1H3	InChI=1S/C6H5NO2/c1-8-6-3-2-5(4-7)9-6/h2-3H,1H3
