15
gdb 124959	2.4004	1.66176	0.98868	2.181	71.84	-0.2337	-0.0538	0.1799	1125.7477	0.112048	-453.970373	-453.961863	-453.960918	-454.003716	30.828	
C	 0.0404341222	 1.4928619109	-0.0440674227	-0.494907
C	-0.0556659689	 0.0089243255	-0.0618399584	 0.388284
C	-1.1077469335	-0.8642022811	 0.0745127179	-0.075885
C	-2.5183590463	-0.6070656117	 0.2428255766	 0.061994
O	-3.3674170404	-1.4819779781	 0.2881246423	-0.308971
C	-0.4846213467	-2.1617050631	-0.0422749885	 0.387305
N	-1.1397177417	-3.34507065	 0.0833576263	-0.591496
N	 0.8120393785	-2.0654347497	-0.2413692926	-0.247248
O	 1.0710115044	-0.6645015638	-0.2467824301	-0.217823
H	 0.7014133227	 1.8225402561	 0.7638527102	 0.163666
H	 0.4616780768	 1.8603545411	-0.9851072858	 0.162826
H	-0.9417525817	 1.9450173238	 0.1011410269	 0.14788
H	-2.8102993894	 0.4611298599	 0.323660081	 0.078615
H	-2.1451493673	-3.2907737934	 0.0124269155	 0.281042
H	-0.6787727787	-4.1746818565	-0.2520388488	 0.264719
67.243	138.9522	186.5278	197.3449	272.6971	287.2653	357.4868	397.9366	422.5705	523.8432	546.1417	605.0645	623.3877	756.2402	768.0785	796.8281	894.6854	1011.8958	1026.0191	1058.7581	1094.8368	1135.1309	1298.6621	1346.4724	1411.6892	1428.6379	1470.0977	1477.401	1497.4138	1555.1512	1629.7453	1663.8967	1754.8045	2904.4491	3047.1262	3106.2298	3144.8772	3571.4117	3706.2387
CC1=C(C=O)C(N)=NO1	Cc1c(C=O)c(N)no1	
InChI=1S/C5H6N2O2/c1-3-4(2-8)5(6)7-9-3/h2H,1H3,(H2,6,7)	InChI=1S/C5H6N2O2/c1-3-4(2-8)5(6)7-9-3/h2H,1H3,(H2,6,7)
