16
gdb 45637	3.66712	0.94771	0.81558	4.2672	75.37	-0.2532	-0.0277	0.2256	1358.8287	0.123824	-400.798874	-400.790569	-400.789625	-400.832905	30.076	
O	 0.0850532719	 0.0524035882	 0.0993940413	-0.293188
C	 0.0006650616	 1.2494895944	 0.0665252005	 0.399041
C	-1.2936410015	 2.0595595431	-0.1298011134	-0.366495
C	-0.8127587431	 3.4830312092	-0.1333168372	-0.17764
C	 0.5074215064	 3.5855151667	 0.0415977946	 0.32798
C	 1.2898576215	 4.8739504901	 0.0643324538	-0.441515
C	 2.0289884732	 5.0588130714	 1.3175524093	 0.264623
N	 2.6089475448	 5.1841643367	 2.3088582237	-0.305843
C	 1.1689701007	 2.241018039	 0.2043707951	-0.423933
H	-1.7913965639	 1.7555980031	-1.059308467	 0.14319
H	-2.0002657449	 1.8380924208	 0.6805340685	 0.146859
H	-1.4802618751	 4.3280780724	-0.2630733932	 0.106099
H	 2.018620094	 4.8954087285	-0.7575757524	 0.161376
H	 0.6213203071	 5.7291906857	-0.0803835014	 0.159291
H	 1.6607900343	 2.1150760555	 1.1775478257	 0.160476
H	 1.9350090928	 2.0303706952	-0.5534858279	 0.139681
54.2887	67.6163	111.8137	251.6875	286.526	387.6821	419.453	459.4424	483.2408	485.4951	616.7066	702.5174	782.9442	805.6447	846.4659	877.0986	936.4238	945.6437	1004.5144	1008.7697	1121.0092	1129.0437	1172.0049	1184.8695	1217.1801	1276.6061	1284.668	1327.9373	1361.0449	1439.4873	1443.835	1454.5149	1713.3075	1860.9038	2363.251	3022.1539	3027.5814	3030.8229	3058.1187	3059.2177	3080.3329	3190.3769
O=C1CC=C(CC#N)C1	O=C1CC=C(CC#N)C1	
InChI=1S/C7H7NO/c8-4-3-6-1-2-7(9)5-6/h1H,2-3,5H2	InChI=1S/C7H7NO/c8-4-3-6-1-2-7(9)5-6/h1H,2-3,5H2
