17
gdb 73603	2.39706	1.63948	1.32441	1.1819	74.88	-0.2295	0.042	0.2716	1032.7832	0.134106	-421.769458	-421.760916	-421.759972	-421.802505	31.962	
C	 0.0402078284	 1.579953721	-0.0557352458	-0.466572
C	 0.0108875323	 0.0912461178	 0.127491305	 0.381865
O	-1.2709787577	-0.4587782248	-0.0294933482	-0.292793
C	-1.3500547682	-1.6480456473	 0.7425132715	 0.008687
O	-0.2337750846	-1.6764432676	 1.6254552953	-0.259003
C	 0.6747870134	-0.7156203366	 1.1838180544	 0.025024
C	 1.2087250352	-0.8057286151	-0.2603469795	-0.381444
C	 1.0903956959	-1.9772555697	-1.0686696752	 0.34505
C	 1.0096848369	-2.9581183086	-1.7614475806	-0.423129
H	 1.0442559828	 1.9719758952	 0.1257780008	 0.124022
H	-0.2513674729	 1.8472512606	-1.0762434925	 0.139492
H	-0.6553450055	 2.0618282025	 0.6382116671	 0.132992
H	-2.2758365323	-1.6386582143	 1.3307116727	 0.114582
H	-1.3195303712	-2.5224596757	 0.0824157286	 0.121812
H	 1.3053274808	-0.3294424931	 1.9757619716	 0.118399
H	 2.1283064231	-0.241932373	-0.4043482794	 0.11583
H	 0.9340460836	-3.8244358315	-2.3703675158	 0.195186
107.7078	119.9658	157.9902	198.333	214.2335	319.0976	357.0923	365.8169	563.0022	571.0409	627.4682	650.979	663.0936	725.6241	733.5474	810.4149	868.755	930.4016	976.0397	990.0622	1041.7586	1072.2158	1102.0534	1122.1877	1148.8344	1152.914	1210.1313	1236.2307	1264.0518	1334.9283	1412.1487	1433.1746	1453.7998	1478.6616	1500.2124	1544.411	2231.6078	3020.6061	3041.1188	3066.063	3109.658	3120.9901	3128.2604	3185.7227	3503.5066
CC12OCOC1C2C#C	C[C@]12OCO[C@H]1[C@H]2C#C	
InChI=1S/C7H8O2/c1-3-5-6-7(5,2)9-4-8-6/h1,5-6H,4H2,2H3	InChI=1S/C7H8O2/c1-3-5-6-7(5,2)9-4-8-6/h1,5-6H,4H2,2H3/t5-,6+,7-/m1/s1
