18
gdb 89917	5.29096	0.87191	0.83051	2.9432	74.95	-0.2557	0.0215	0.2772	1389.5798	0.146582	-439.042164	-439.033412	-439.032468	-439.076208	32.412	
O	-0.2965297954	 1.472602985	-0.1060714943	-0.428329
C	-0.0706708027	 0.0828154898	-0.0394633406	 0.118866
C	 0.4469576757	-0.5193920176	 1.3212282941	-0.34663
C	-0.8650749764	-1.2978689978	 1.4124245321	 0.428075
C	-2.0512868428	-0.3819816873	 1.3940963808	-0.333496
C	-1.3562483867	-0.7276404778	 0.0928998173	-0.136136
O	-0.93571209	-2.6280516872	 1.8168344127	-0.226674
C	-1.2499696812	-2.8521950081	 3.115677492	 0.103034
N	-1.2371460485	-4.0294830996	 3.5663541355	-0.438979
H	 0.5572456247	 1.9158383715	-0.1386281228	 0.286581
H	 0.5435339057	-0.2615494856	-0.880880847	 0.08016
H	 1.311210855	-1.1725764745	 1.1832266069	 0.117974
H	 0.6477740348	 0.1988998537	 2.1225462877	 0.096584
H	-3.007983451	-0.8779389409	 1.5215305762	 0.123739
H	-1.9945208429	 0.6247152623	 1.7965965277	 0.126684
H	-1.8837023801	-1.2164415271	-0.7156502801	 0.103034
H	-1.5059822512	-1.9357753038	 3.6614758287	 0.095269
H	-1.509953847	-4.0265707847	 4.5471368331	 0.230247
55.0179	99.5324	106.6786	211.6864	269.3098	303.1753	363.489	398.2336	435.8831	505.29	571.7321	670.0387	760.7328	823.6751	833.0928	875.1085	938.2426	961.4887	971.9249	977.602	1027.2247	1049.9566	1057.6339	1068.9832	1092.4778	1128.0404	1167.9675	1210.6092	1225.8545	1246.215	1273.3854	1290.1749	1328.915	1381.4805	1414.3063	1421.7427	1470.3134	1497.6949	1745.2677	3019.482	3046.2178	3049.2854	3119.0612	3125.6593	3201.7464	3217.2113	3516.6848	3816.6754
OC1CC2(CC12)OC=N	O[C@H]1C[C@]2(C[C@@H]12)O[CH][NH]	
InChI=1S/C6H9NO2/c7-3-9-6-1-4(6)5(8)2-6/h3-5,7-8H,1-2H2	InChI=1S/C6H9NO2/c7-3-9-6-1-4(6)5(8)2-6/h3-5,7-8H,1-2H2/t4-,5-,6-/m0/s1
