19
gdb 82614	2.36936	1.85017	1.45273	3.0814	73.54	-0.2227	0.0571	0.2798	974.9389	0.161234	-422.986362	-422.978862	-422.977918	-423.018052	30.811	
O	 0.1922490512	 1.3792473145	-0.068569026	-0.439166
C	 0.0241614021	 0.0098958395	 0.0206845128	 0.117436
C	-0.3720109466	-0.7358318415	 1.2706504261	-0.095005
C	-1.1587737391	 0.0157891568	 2.3541206097	-0.268461
C	-2.6269814239	 0.0973901791	 1.9004575794	-0.103486
C	-3.0343134205	 1.0949575692	 0.8500079484	 0.065256
O	-2.2700337242	 2.2303646362	 0.521207411	-0.41432
C	-2.6537713786	-0.2958544868	 0.4205005331	-0.081889
C	-1.2698530983	-0.7864646745	 0.0272450715	-0.123178
H	-0.6711182525	 1.8110702117	 0.039671787	 0.305032
H	 0.8051050226	-0.4891740515	-0.5509660231	 0.093064
H	 0.2231721851	-1.5880921106	 1.5845734707	 0.077401
H	-1.1013272052	-0.5199237865	 3.3045127751	 0.10742
H	-0.7290557224	 1.0113167945	 2.5263102547	 0.101212
H	-3.3900534822	-0.2311203019	 2.5991508487	 0.085514
H	-4.1034216784	 1.2988595361	 0.791439907	 0.098041
H	-2.2508209428	 2.8135448045	 1.2887704666	 0.299439
H	-3.4699149339	-0.8845015378	 0.0146689479	 0.09172
H	-1.2865067325	-1.664817701	-0.6101893406	 0.083969
99.0093	216.6684	225.3432	282.6272	330.5783	450.8669	545.7763	563.0576	630.9064	655.8676	663.439	684.6461	715.0681	749.9942	769.0991	823.3094	849.4929	936.3097	957.0557	1015.5766	1029.4599	1047.2467	1063.867	1084.8909	1097.8428	1112.9503	1123.7141	1125.8922	1217.5518	1240.98	1267.8353	1293.1679	1304.9193	1314.7806	1349.0571	1365.1295	1371.6265	1415.529	1444.7032	1486.9664	1494.1489	3025.178	3093.5922	3097.7948	3114.693	3141.3134	3149.6577	3151.7986	3166.6603	3621.0952	3794.7018
OC1C2CC3C(O)C3C12	O[C@H]1[C@H]2C[C@H]3[C@@H](O)[C@H]3[C@@H]12	
InChI=1S/C7H10O2/c8-6-2-1-3-5(4(2)6)7(3)9/h2-9H,1H2	InChI=1S/C7H10O2/c8-6-2-1-3-5(4(2)6)7(3)9/h2-9H,1H2/t2-,3+,4-,5+,6-,7+
