16
gdb 132969	3.05622	1.36703	0.95074	6.0683	80.44	-0.1916	-0.0089	0.1827	1174.5209	0.12539	-442.061135	-442.053137	-442.052193	-442.093979	29.835	
C	-0.2178059258	 1.4783550244	 0.0208618212	-0.345482
N	-0.026850244	 0.0374140434	-0.0016890017	-0.089691
C	 0.1596562822	-0.6417602984	-1.1820169871	 0.021462
C	 0.4670700879	-1.9575979478	-1.2247818913	-0.195883
C	 0.6411676953	-2.7604358959	-0.0240606307	 0.204584
N	 0.9335769785	-4.0164020094	-0.0683064569	-0.568383
C	 0.4381699927	-1.9682587703	 1.183808576	 0.131727
F	 0.5623923329	-2.6031988025	 2.356328159	-0.081643
C	 0.1308496111	-0.6552345583	 1.1801691683	-0.097674
H	 0.7268716534	 2.0154684814	 0.1729134992	 0.143922
H	-0.6533983362	 1.7997791092	-0.927010128	 0.147211
H	-0.907755765	 1.750105059	 0.8241624444	 0.146335
H	 0.0345710093	-0.0467594193	-2.0785100165	 0.125713
H	 0.5862536984	-2.4535012096	-2.1797740717	 0.115276
H	 1.0065894786	-4.3830520136	 0.8823447232	 0.20809
H	-0.0113072692	-0.1010435325	 2.0989055327	 0.134435
83.57	111.8555	172.6249	302.9803	314.1929	328.1976	419.1151	444.8825	515.1914	521.9533	591.084	716.2358	721.3509	815.5487	824.9414	866.1743	873.6334	954.3599	968.5532	1085.3869	1120.5661	1146.9893	1185.2726	1204.7585	1305.7025	1318.7968	1392.9986	1419.852	1470.6897	1482.7062	1486.3976	1521.8897	1627.6336	1649.3427	1720.4299	3021.3797	3094.3357	3136.3154	3202.5165	3216.9515	3222.5279	3459.7529
CN1C=CC(=N)C(F)=C1	CN1CC=C([NH])C(=C1)F	
InChI=1S/C6H7FN2/c1-9-3-2-6(8)5(7)4-9/h2-4,8H,1H3	InChI=1S/C6H8FN2/c1-9-3-2-6(8)5(7)4-9/h2,4,8H,3H2,1H3
