22
gdb 12284	3.15018	1.44187	1.17712	1.598	78.28	-0.2374	0.0826	0.32	1149.2025	0.198947	-350.204527	-350.195035	-350.194091	-350.239065	34.729	
C	-0.249915195	 1.5169584538	 0.2606767823	-0.381516
C	-0.0495546009	 0.018465975	 0.0096357428	-0.191237
C	 0.8080516277	-0.6224283877	 1.0873713927	 0.165686
O	 0.1886924773	-0.558595001	 2.3950893733	-0.316582
C	 0.4864550531	-1.9492102964	 2.6602233449	 0.164192
C	-0.7052007797	-2.6989549185	 3.222118305	-0.403031
C	 0.9569124149	-2.1671043667	 1.1927339674	-0.089518
C	 0.1029298811	-3.0422852936	 0.2819449891	-0.407122
H	 0.7060170188	 2.052281975	 0.2464011473	 0.111479
H	-0.8959327936	 1.9638955685	-0.5007940425	 0.10829
H	-0.7098344726	 1.6797989573	 1.2393756585	 0.137965
H	-1.0232892658	-0.4816014316	-0.0274835925	 0.0965
H	 0.4322885868	-0.1423387427	-0.9639265355	 0.092363
H	 1.7876395136	-0.1180428076	 1.1112893664	 0.061789
H	 1.3267363641	-2.0258432153	 3.3672094869	 0.066236
H	-1.5670131727	-2.6494461085	 2.5518140615	 0.118453
H	-0.4539813835	-3.7509244492	 3.3962693583	 0.113268
H	-0.9977458872	-2.2582671028	 4.180608614	 0.126133
H	 1.9975092364	-2.4968570683	 1.1279902616	 0.070394
H	-0.9537658668	-2.7630702804	 0.297678673	 0.124003
H	 0.4472485276	-2.9733178865	-0.7552675047	 0.117031
H	 0.1721620163	-4.0934064628	 0.5814900502	 0.115225
36.7247	90.9818	164.6377	203.0842	223.121	225.9391	267.0008	293.24	371.25	437.9945	476.0307	501.6848	736.7221	769.6302	781.1938	827.8541	894.1729	943.9891	968.6808	998.5095	1026.4882	1045.8039	1060.6196	1088.6229	1126.4949	1163.029	1180.1978	1187.2535	1259.7009	1272.6408	1294.2082	1316.4061	1350.9749	1378.4709	1382.5544	1402.1782	1406.2709	1412.7094	1433.3782	1472.6192	1479.0215	1490.7254	1497.9272	1501.281	1507.7249	1509.636	2964.4074	2977.6571	3022.8612	3034.873	3035.7731	3038.7685	3063.267	3070.6252	3096.6054	3102.7804	3104.5985	3113.431	3119.4067	3123.007
CCC1OC(C)C1C	CC[C@H]1O[C@@H](C)[C@H]1C	
InChI=1S/C7H14O/c1-4-7-5(2)6(3)8-7/h5-7H,4H2,1-3H3	InChI=1S/C7H14O/c1-4-7-5(2)6(3)8-7/h5-7H,4H2,1-3H3/t5-,6+,7-/m1/s1
