16
gdb 53882	4.18401	0.76298	0.6786	4.003	69.95	-0.2469	-0.036	0.2108	1584.8113	0.122879	-471.254401	-471.244579	-471.243635	-471.290803	33.672	
N	-0.1395126041	 1.2304722292	-0.4298119662	-0.531801
C	 0.0485427715	-0.0445066693	-0.0119429176	 0.277261
N	 1.1229969118	-0.6738248797	 0.2892986204	-0.545371
C	-1.2816600555	-0.7861892779	 0.112529399	 0.422052
O	-2.3381487325	-0.2528252358	-0.193539766	-0.399793
N	-1.1476333857	-2.0452146649	 0.5819732013	-0.322417
C	-2.2710203462	-2.9244037302	 0.7898787778	-0.2478
C	-2.3134787595	-4.0722371092	-0.2125349793	 0.153654
O	-2.7623977409	-5.1592039937	 0.0328777696	-0.227965
H	 0.6316319205	 1.8265627014	-0.6710877411	 0.258325
H	-1.0804243235	 1.4905165046	-0.6836289445	 0.278676
H	 1.9599831497	-0.1015023993	 0.1772438349	 0.211024
H	-0.1969343233	-2.3247268486	 0.791080933	 0.275339
H	-2.2887072389	-3.3363359725	 1.8037015305	 0.138949
H	-3.1771970056	-2.3221515968	 0.6452400698	 0.171497
H	-1.8962368376	-3.8132714171	-1.2124057714	 0.088369
43.8349	62.2452	70.1681	92.8345	189.1464	211.8938	308.6474	346.461	380.2177	482.1469	503.1451	570.9018	583.9598	621.013	663.0468	749.5169	823.0676	854.3	886.3007	1045.8502	1069.645	1092.6897	1125.1838	1144.5994	1232.5002	1272.8887	1337.7575	1410.3605	1429.2211	1444.6723	1560.8464	1595.8879	1726.319	1780.4081	1841.9372	2880.302	3039.4962	3095.9564	3473.2185	3570.1382	3589.3886	3735.4933
NC(=N)C(=O)NCC=O	NC(=N)C(=O)NCC=O	
InChI=1S/C4H7N3O2/c5-3(6)4(9)7-1-2-8/h2H,1H2,(H3,5,6)(H,7,9)	InChI=1S/C4H7N3O2/c5-3(6)4(9)7-1-2-8/h2H,1H2,(H3,5,6)(H,7,9)
