14
gdb 125342	5.35039	1.05964	0.88935	5.3796	73.81	-0.2463	-0.0906	0.1558	1235.4701	0.100128	-432.885218	-432.877207	-432.876263	-432.918894	27.76	
C	 0.0703043661	 1.5012589721	-0.0125066502	-0.485582
C	 0.0197473772	 0.0029337076	 0.0023977505	 0.351917
C	 0.2644244911	-0.7750889237	-1.140043725	-0.051206
N	 0.21578758	-2.0940156208	-1.0935047077	-0.255634
C	-0.0803091644	-2.6081634924	 0.1108085818	 0.274806
C	-0.1362697865	-4.1103381971	 0.1726259858	 0.126674
O	-0.3848877568	-4.7468598919	 1.1600526599	-0.225226
N	-0.3229716836	-1.9158805773	 1.2243435275	-0.200536
N	-0.2720290847	-0.5920214675	 1.1656388248	-0.225539
H	-0.6153777132	 1.9108136408	-0.761719991	 0.146856
H	-0.2031867374	 1.8862680588	 0.9706360596	 0.161005
H	 1.0757063723	 1.856242826	-0.2643527636	 0.149049
H	 0.5001303443	-0.3118066044	-2.0963731511	 0.133411
H	 0.0813563958	-4.5756166201	-0.8112320613	 0.100005
47.2285	76.9978	138.3043	195.2599	326.8607	341.3278	391.6143	449.956	488.6947	622.382	661.4003	798.1068	814.8032	878.041	955.7241	997.6105	1046.9386	1069.0776	1075.0901	1130.618	1253.6555	1285.848	1352.505	1406.181	1413.7577	1430.6457	1471.3988	1482.2382	1552.0626	1596.5185	1835.0524	2927.77	3040.83	3097.1828	3148.6939	3150.5321
CC1=CN=C(C=O)N=N1	Cc1cnc(C=O)nn1	
InChI=1S/C5H5N3O/c1-4-2-6-5(3-9)8-7-4/h2-3H,1H3	InChI=1S/C5H5N3O/c1-4-2-6-5(3-9)8-7-4/h2-3H,1H3
