18
gdb 69928	3.45987	1.57126	1.37625	1.8051	74.45	-0.2444	0.0208	0.2652	982.0262	0.149504	-401.93556	-401.928381	-401.927437	-401.966893	28.739	
C	-0.0120487669	 1.5463468153	 0.0392654154	-0.50506
C	 0.0195882973	 0.0459581838	 0.0097011624	 0.371525
C	-0.8712076231	-0.8241342823	 0.8398036798	-0.346629
C	 0.6157982051	-0.9657472378	 1.0273333442	-0.120291
C	 1.2475608777	-1.7571190804	-0.1126936387	 0.07702
O	 0.6624898073	-3.0410707988	-0.4522851875	-0.232804
C	-0.1603271461	-2.7750129217	-1.5041195593	 0.103806
N	-0.255112679	-1.5996599883	-1.9792270807	-0.262697
C	 0.6356692799	-0.7817757587	-1.1502503155	-0.094171
H	 0.9536033646	 1.974481565	-0.2533741327	 0.117667
H	-0.770304537	 1.9365964641	-0.6497691911	 0.132697
H	-0.2538123063	 1.9168571335	 1.0408156411	 0.119541
H	-1.3706667564	-0.3074697181	 1.6537725915	 0.113854
H	-1.4634356591	-1.6213666703	 0.4018005131	 0.12841
H	 1.0917421697	-0.7745481054	 1.9819910268	 0.087636
H	 2.3302077228	-1.874350996	-0.0646716482	 0.092615
H	-0.6964976706	-3.643644425	-1.8728135869	 0.136394
H	 1.3292548901	-0.2027407489	-1.7641824739	 0.080487
135.7617	196.7247	244.0247	254.6899	331.6173	443.6361	505.1973	554.1159	624.8806	713.9548	778.0992	808.7923	856.0548	883.5409	907.9502	936.2518	951.3469	965.7254	985.8217	1000.6568	1022.341	1060.273	1077.3438	1087.8672	1106.7192	1122.5858	1216.833	1235.5166	1251.9566	1277.4403	1316.7673	1327.7298	1352.357	1398.2661	1423.5475	1484.4611	1497.7943	1505.1481	1669.8345	3022.4192	3080.9728	3082.7057	3096.7693	3112.6747	3125.9622	3179.639	3204.5177	3205.5349
CC12CC1C1OC=NC21	C[C@]12C[C@H]1[C@H]1OC=N[C@@H]21	
InChI=1S/C7H9NO/c1-7-2-4(7)5-6(7)8-3-9-5/h3-6H,2H2,1H3	InChI=1S/C7H9NO/c1-7-2-4(7)5-6(7)8-3-9-5/h3-6H,2H2,1H3/t4-,5+,6+,7-/m0/s1
