17
gdb 128302	5.46389	1.09571	0.93896	1.9901	77.43	-0.1977	0.0208	0.2185	1245.7834	0.138514	-414.173303	-414.165251	-414.164307	-414.206241	29.278	
C	 0.0217996517	 1.4155279966	 0.1066743726	-0.315956
N	-0.039313796	-0.0329837224	 0.1535952709	-0.359563
C	-1.2284262966	-0.672806977	-0.0579277721	 0.422085
N	-2.4121600119	-0.046243904	 0.0163906137	-0.371907
N	-3.245027442	-1.1332009932	-0.0771096892	 0.055151
C	-4.4969373676	-1.6210778728	-0.7010367193	-0.166779
C	-3.7624069746	-3.0171082395	-0.8147161811	-0.353399
C	-2.549102409	-2.2451865434	-0.3186101765	 0.333001
N	-1.2512443424	-2.0405272404	-0.3116330441	-0.428351
H	 1.0336095581	 1.735555559	 0.3657016676	 0.118996
H	-0.2429061486	 1.8293337813	-0.8774121681	 0.116556
H	-0.6748722576	 1.8312317966	 0.8388398851	 0.151681
H	 0.7509998142	-0.5389503322	-0.2141495582	 0.249823
H	-5.3747753093	-1.5563628403	-0.0544891685	 0.131083
H	-4.7022386308	-1.1609987284	-1.6709634691	 0.138634
H	-4.1412536067	-3.8042747609	-0.1603535193	 0.137209
H	-3.6784691808	-3.395667779	-1.8349775044	 0.141737
90.7726	117.0159	141.2509	188.1799	245.8499	331.1453	381.7514	498.4957	533.2161	660.6869	685.8619	763.7696	804.9669	824.8352	837.3274	928.9677	973.0443	1055.4035	1106.8981	1117.2393	1124.2207	1154.8587	1168.543	1172.4523	1209.6296	1258.3215	1275.259	1299.3703	1446.5311	1462.8611	1473.1315	1479.7474	1483.661	1514.3217	1517.7003	1599.7846	1614.5368	2997.5607	3064.9686	3083.3354	3088.0413	3120.9704	3131.2621	3140.1333	3632.7117
CNC1=NN2CCC2=N1	CNc1nn2CCc2n1	
InChI=1S/C5H8N4/c1-6-5-7-4-2-3-9(4)8-5/h2-3H2,1H3,(H,6,8)	InChI=1S/C5H8N4/c1-6-5-7-4-2-3-9(4)8-5/h2-3H2,1H3,(H,6,8)
