16
gdb 34649	3.51483	1.23045	0.95096	4.8079	80.13	-0.2276	-0.0476	0.18	1188.929	0.1269	-396.95222	-396.944301	-396.943357	-396.984922	29.544	
N	 0.1545177241	-1.1607909343	-0.336324805	-0.322645
C	 0.02913392	-0.0265339997	-0.1516551121	 0.267102
C	-0.08771995	 1.4015502746	 0.1072717908	 0.270392
N	-1.198983436	 1.9493492658	-0.1799095936	-0.277958
C	-1.4992723597	 3.3332582447	 0.1196313087	-0.171358
C	-0.4754702818	 4.379944384	-0.3805714591	-0.281304
C	 0.8424336808	 4.3376072438	 0.3315764332	-0.087251
C	 1.4802947558	 3.2470439132	 0.7639983262	 0.006141
N	 1.0808847665	 1.913760492	 0.6500959503	-0.364702
H	-2.4729675444	 3.5519596475	-0.3296824086	 0.114259
H	-1.6173967795	 3.4507395607	 1.2050403886	 0.123433
H	-0.3428502121	 4.2335449518	-1.4600098458	 0.130628
H	-0.9185945061	 5.3757398545	-0.2647490453	 0.109593
H	 1.3261172274	 5.2849849624	 0.5448153321	 0.098825
H	 2.4354614877	 3.337275782	 1.2694873612	 0.115075
H	 1.7852930774	 1.225198487	 0.8648711186	 0.269769
87.474	124.9183	162.8077	221.448	356.1515	366.9741	444.7797	480.3318	507.9635	574.7329	605.5768	711.6907	716.632	755.5357	807.5839	904.5059	955.2645	962.3236	989.5719	1045.5295	1094.031	1112.9224	1205.1799	1228.6985	1300.5723	1312.2831	1330.7218	1376.6614	1444.7902	1480.7888	1498.2109	1542.6717	1723.3026	1734.5518	2354.2211	3018.1369	3026.4591	3062.5584	3071.6834	3177.5432	3199.9022	3624.9447
N#CC1=NCCC=CN1	N#CC1=NCCC=CN1	
InChI=1S/C6H7N3/c7-5-6-8-3-1-2-4-9-6/h1,3H,2,4H2,(H,8,9)	InChI=1S/C6H7N3/c7-5-6-8-3-1-2-4-9-6/h1,3H,2,4H2,(H,8,9)
