17
gdb 54051	1.84605	1.54925	0.9497	1.7601	77.73	-0.2551	-0.0169	0.2382	1243.3139	0.133941	-418.004985	-417.995364	-417.99442	-418.039876	34.474	
C	 0.3231152259	-0.9324063313	 1.3391053755	-0.515931
C	 0.0199653614	 0.050332132	 0.2273504888	 0.419295
O	 0.1969042337	 1.2439546963	 0.3510558988	-0.342654
N	-0.467712139	-0.4930493665	-0.9700790595	-0.100173
C	-0.7245510472	-1.9263763483	-1.1598384575	-0.339726
C	-1.9533011769	-2.3922569343	-0.519947102	 0.334213
C	-2.9552585166	-2.7851758578	 0.0139727766	-0.459381
C	-0.7622615932	 0.3712950682	-2.0251103101	 0.099825
N	-1.2047652988	-0.0631094618	-3.1343178747	-0.476372
H	 0.5918849364	-0.3567770076	 2.2237910292	 0.15241
H	-0.5336857186	-1.5756195755	 1.5562573821	 0.161296
H	 1.1654249529	-1.5785132417	 1.068344997	 0.146125
H	-0.7946245558	-2.0751181716	-2.2407902526	 0.187355
H	 0.1313724708	-2.5029643068	-0.7975014918	 0.141625
H	-3.8491161941	-3.1298785665	 0.4727174793	 0.207487
H	-0.5580381353	 1.407069797	-1.756935214	 0.150151
H	-1.3516373157	 0.7088950362	-3.780900625	 0.234454
58.9114	81.8848	123.7068	186.9021	198.0431	259.7939	300.3472	310.8301	363.6286	421.8709	474.6408	582.928	613.4109	622.8113	632.7423	669.0455	802.5769	834.6481	944.3798	961.214	984.9745	1056.1453	1085.9345	1091.6382	1153.5234	1257.3135	1336.6838	1350.8488	1393.1476	1396.5764	1415.4044	1458.8218	1479.0783	1487.3829	1711.925	1790.8113	2240.4383	3046.3156	3059.2142	3103.124	3115.2883	3149.1382	3167.8275	3503.4586	3513.9839
CC(=O)N(CC#C)C=N	CC(=O)N(CC#C)C=N	
InChI=1S/C6H8N2O/c1-3-4-8(5-7)6(2)9/h1,5,7H,4H2,2H3	InChI=1S/C6H8N2O/c1-3-4-8(5-7)6(2)9/h1,5,7H,4H2,2H3
