17
gdb 79371	3.32923	1.36668	1.10543	2.1611	79.74	-0.2345	0.0125	0.247	1116.1638	0.133955	-384.561883	-384.554031	-384.553087	-384.594016	30.942	
C	-0.1168735674	 1.6319378146	-0.0016276854	-0.418108
C	-0.0390533571	 0.1125369993	-0.0000384529	-0.022019
C	 1.1539513877	-0.5764165307	-0.7037961539	-0.153121
C	 2.1006612527	-0.3758032511	 0.5213954606	 0.037087
O	 2.5024809955	-1.7730690116	 0.6042006837	-0.36462
C	 1.0796997651	-1.8226995485	 0.2531438202	 0.447761
C	 0.4122282431	-3.0713311471	 0.0742609463	 0.099722
C	-0.1680962676	-4.1131005878	-0.0807565334	-0.379653
C	 0.6943260414	-0.5980227942	 1.1620520824	-0.153125
H	 0.8481267494	 2.0894168271	 0.2415468093	 0.114946
H	-0.4252737049	 2.0079688495	-0.9830767095	 0.121009
H	-0.8480571914	 1.9881143104	 0.7320340012	 0.121008
H	-1.0101351177	-0.3317796939	-0.2443954897	 0.082429
H	 1.4374624751	-0.6002741831	-1.7562010436	 0.089329
H	 2.851715864	 0.3864370319	 0.7152341975	 0.100027
H	-0.6747691551	-5.0366901268	-0.2162547777	 0.187998
H	 0.4567731572	-0.646381848	 2.224941375	 0.08933
113.2068	155.5673	207.0463	229.0878	280.1851	415.6164	463.9382	538.0231	572.2943	612.2714	612.987	693.0782	740.8885	750.1583	804.0252	837.4644	849.4328	897.9911	909.36	991.7166	1026.2907	1048.6741	1073.4328	1082.5168	1118.697	1132.9307	1165.1014	1165.5767	1243.4899	1249.2274	1270.3167	1345.3367	1396.7357	1414.758	1492.6379	1498.5683	2236.4185	3029.6801	3047.2604	3095.2907	3099.2656	3119.666	3120.9321	3151.8781	3500.3606
CC1C2C3OC2(C#C)C13	C[C@H]1[C@H]2[C@@H]3O[C@@]2(C#C)[C@H]13	
InChI=1S/C8H8O/c1-3-8-5-4(2)6(8)7(5)9-8/h1,4-7H,2H3	InChI=1S/C8H8O/c1-3-8-5-4(2)6(8)7(5)9-8/h1,4-7H,2H3/t4-,5-,6+,7-,8+
