19
gdb 89954	2.82772	1.37046	1.07972	1.1664	76.49	-0.2532	-0.0356	0.2176	1156.2117	0.15824	-423.004474	-422.9959	-422.994955	-423.038032	31.847	
C	-0.7164222978	 1.2434593175	 0.0054045631	-0.407061
C	 0.095589917	-0.0416314578	-0.0182299309	 0.02433
C	 1.3052605347	-0.1515151086	-1.002772242	-0.325527
C	 2.2428278129	-0.5510261458	 0.163282363	 0.200188
C	 2.8850290189	 0.6288483141	 0.9138672183	-0.132276
O	 1.6935678691	 0.8762797086	 1.6902689576	-0.282256
C	 1.0516927393	-0.3013166719	 1.1722271722	 0.058975
C	 2.9639819824	-1.8534884769	 0.1032355439	 0.056961
O	 2.8439680076	-2.6674329468	-0.7795622829	-0.251063
H	-0.0730861182	 2.1009631384	 0.2206977714	 0.130103
H	-1.2056105169	 1.4096388304	-0.9599558316	 0.117127
H	-1.4950348134	 1.2082489761	 0.7749621152	 0.118136
H	-0.5635628695	-0.9085913352	-0.1378402353	 0.083725
H	 1.2133134256	-0.9371484415	-1.7538605549	 0.132212
H	 1.5862953214	 0.7835990696	-1.4953326005	 0.101469
H	 3.7257621394	 0.3411518964	 1.5609812856	 0.105896
H	 3.1765248182	 1.4901097677	 0.3017990374	 0.111991
H	 0.7444418271	-0.9888643721	 1.9659181534	 0.083092
H	 3.6270086124	-2.0517627221	 0.977823187	 0.073977
67.4698	97.7257	188.7254	217.2798	232.5831	258.2227	352.1175	368.6726	469.5876	540.3118	627.3075	729.2494	789.6387	839.6774	878.0245	889.978	904.8211	958.6918	973.8217	1018.7669	1033.4963	1073.9522	1082.7857	1124.965	1162.1855	1181.7346	1192.9871	1220.5653	1251.7074	1273.8031	1300.5673	1324.1186	1354.1863	1367.6131	1407.6239	1427.7114	1480.428	1490.4813	1500.8127	1519.0227	1811.4153	2857.2701	2998.7425	3034.9143	3043.2055	3059.6504	3063.6794	3066.8504	3099.3276	3118.8866	3132.14
CC1CC2(COC12)C=O	C[C@H]1C[C@]2(CO[C@@H]12)C=O	
InChI=1S/C7H10O2/c1-5-2-7(3-8)4-9-6(5)7/h3,5-6H,2,4H2,1H3	InChI=1S/C7H10O2/c1-5-2-7(3-8)4-9-6(5)7/h3,5-6H,2,4H2,1H3/t5-,6-,7+/m0/s1
