19
gdb 85012	2.33257	1.51709	0.98048	2.0251	75.58	-0.2394	-0.0397	0.1997	1215.1579	0.157174	-423.088984	-423.079579	-423.078634	-423.123753	34.068	
C	-0.561732121	 1.5176573798	 0.027291036	-0.399965
C	 0.1131056395	 0.1493612147	-0.0147994809	-0.098798
C	 1.0045632925	-0.1376494245	-1.2416156895	-0.341386
C	 2.1891419501	-0.9749782271	-0.7417130368	 0.385678
O	 3.0826875094	-1.3965127627	-1.4284801791	-0.307081
C	 2.077178806	-1.1559628566	 0.7753997488	-0.208363
C	 3.3925641427	-1.1539798606	 1.5448641008	-0.399421
C	 1.0441487402	-0.1072462286	 1.1814912242	 0.372211
O	 0.9900042847	 0.4541687759	 2.2453023098	-0.309996
H	 0.1794935583	 2.3186661965	-0.0614075075	 0.124154
H	-1.2805657253	 1.6270350641	-0.789748318	 0.117156
H	-1.0854967431	 1.6562273139	 0.9759991874	 0.140174
H	-0.6579640971	-0.6335203596	 0.0467999978	 0.108594
H	 0.4932094974	-0.6472690116	-2.0625830605	 0.137853
H	 1.4153889892	 0.7909222799	-1.6584122326	 0.141667
H	 1.5700825678	-2.1283465862	 0.9048449917	 0.135218
H	 3.888792791	-0.1832098382	 1.4592197939	 0.129937
H	 3.2165862059	-1.34752284	 2.6050828151	 0.134526
H	 4.0635756019	-1.915923469	 1.1424793991	 0.137841
53.0958	71.4218	140.873	191.2325	211.4039	237.2494	270.9076	327.7764	431.8046	487.6674	528.8112	546.176	600.1101	662.9978	764.1889	802.2874	862.0398	907.1284	970.4722	993.3232	1006.1783	1045.0726	1098.3381	1142.4933	1153.073	1190.3217	1200.8438	1215.9241	1266.9582	1296.9307	1320.0571	1348.7908	1405.4427	1411.8163	1450.7739	1490.5015	1494.0878	1494.4899	1496.0849	1824.2168	1863.9494	2971.0874	2998.4777	3039.4138	3043.5865	3055.2876	3099.8614	3110.5463	3126.3376	3128.8798	3140.8164
CC1CC(=O)C(C)C1=O	C[C@H]1CC(=O)[C@@H](C)C1=O	
InChI=1S/C7H10O2/c1-4-3-6(8)5(2)7(4)9/h4-5H,3H2,1-2H3	InChI=1S/C7H10O2/c1-4-3-6(8)5(2)7(4)9/h4-5H,3H2,1-2H3/t4-,5+/m0/s1
