16
gdb 19849	4.66462	2.05347	1.73405	1.5135	70.45	-0.2278	0.0041	0.2319	777.9783	0.132294	-346.541279	-346.535241	-346.534297	-346.571207	24.392	
C	 0.0355729601	 1.4158733842	-0.2897883842	-0.264543
C	 1.3171795578	 0.7624860804	 0.1282082493	-0.102521
C	 0.0006170017	-0.0610098047	 0.0520860439	-0.165511
C	 0.5471046092	-0.7548012469	-1.168722351	 0.249457
C	 0.3840262516	-1.0710981945	-2.4465754055	-0.255452
C	 1.6889050662	-0.6869569434	-3.1514002971	-0.108763
O	 2.3863118977	 0.1842612977	-2.2358461365	-0.281708
C	 1.9084902324	-0.1764981511	-0.9527588538	 0.101674
H	-0.401331396	 2.0745514158	 0.4549891992	 0.115162
H	-0.1187282034	 1.7280513263	-1.3177202542	 0.123645
H	 1.854849951	 1.0799302669	 1.0129182199	 0.089407
H	-0.604170159	-0.4632943228	 0.8533494811	 0.101446
H	-0.4943343268	-1.4167492395	-2.9762708484	 0.105357
H	 2.3183980353	-1.5578025566	-3.4003418836	 0.100712
H	 1.504369381	-0.1346333806	-4.0806300537	 0.114233
H	 2.6037171811	-0.8732283113	-0.4552395654	 0.077405
162.9107	211.9429	301.8652	431.7272	528.9724	657.9134	672.746	742.376	758.9721	819.6257	845.2999	884.2044	911.3893	921.2535	971.4511	983.9079	999.7808	1019.679	1037.2709	1062.2419	1091.6256	1096.6201	1133.0011	1176.0554	1197.4563	1227.4101	1254.0262	1272.7418	1328.6279	1356.0165	1376.3183	1483.0138	1510.6708	1727.2973	2960.4318	2963.4874	3047.9607	3122.3379	3188.9162	3203.1484	3212.5191	3215.0159
C1C2C1C1=CCOC21	C1[C@H]2[C@@H]1[C]1[CH]CO[C@@H]21	
InChI=1S/C7H8O/c1-2-8-7-4(1)5-3-6(5)7/h1,5-7H,2-3H2	InChI=1S/C7H8O/c1-2-8-7-4(1)5-3-6(5)7/h1,5-7H,2-3H2/t5-,6-,7+/m0/s1
