19
gdb 39371	2.35908	2.11329	1.56639	1.637	79.87	-0.234	0.0066	0.2406	934.7778	0.162498	-385.898935	-385.892054	-385.891109	-385.929764	28.791	
C	 0.0453556749	 1.4286522701	-0.0315615055	-0.258337
C	 1.4048447127	 2.1506162956	 0.0674155448	-0.205255
C	 2.3197904446	 1.6673274365	 1.2081872268	 0.049224
O	 2.7940232505	 0.3524113916	 0.9122750134	-0.254759
C	 1.8958050587	-0.5718664529	 1.5276019143	-0.007552
C	 1.3685927931	 0.2023912563	 2.7264864463	-0.08275
C	 1.6045326479	 1.4952500176	 2.5321690926	-0.099389
C	 0.7625819186	-0.9568995021	 0.5911115962	-0.052812
C	 0.0131452357	-0.0841088239	-0.0874702725	-0.049151
H	-0.5707962223	 1.7363083167	 0.8273512837	 0.116748
H	-0.47427446	 1.8171205011	-0.9144445844	 0.099932
H	 1.9668608964	 2.0221030706	-0.8642560325	 0.111353
H	 1.2142966455	 3.2258196875	 0.1818353365	 0.089319
H	 3.1947390314	 2.3258004375	 1.273858896	 0.079767
H	 2.4749948011	-1.4596423424	 1.80377301	 0.081337
H	 0.8230074718	-0.2582245385	 3.5395230409	 0.10801
H	 1.2990401939	 2.3207748208	 3.1624153933	 0.101818
H	 0.5610118154	-2.0198982368	 0.4809092655	 0.083519
H	-0.7692139498	-0.4930121351	-0.7244661853	 0.088977
179.173	208.1767	296.5934	328.7622	368.3771	470.589	549.8419	587.6699	676.4915	720.3898	731.9289	792.4138	820.3734	840.1673	869.101	898.0466	933.5584	939.2691	948.5316	974.9889	989.5249	1025.9791	1049.3655	1072.8744	1114.0146	1129.3308	1198.7971	1228.6782	1272.1373	1281.7102	1311.7254	1335.131	1346.4223	1368.4648	1384.5252	1386.4491	1416.3037	1468.1371	1475.9021	1670.2445	1708.5803	2995.2015	3018.4924	3034.4906	3047.6807	3056.9949	3075.3616	3132.2508	3159.2998	3206.8059	3233.0683
C1CC2OC(C=C2)C=C1	C1C[C@@H]2O[C@@H](C=C2)C=C1	
InChI=1S/C8H10O/c1-2-4-8-6-5-7(3-1)9-8/h1,3,5-8H,2,4H2	InChI=1S/C8H10O/c1-2-4-8-6-5-7(3-1)9-8/h1,3,5-8H,2,4H2/t7-,8+/m1/s1
