17
gdb 125974	3.71983	1.27257	1.09783	2.4986	74.59	-0.2129	0.0139	0.2268	1121.9402	0.138209	-414.186526	-414.178663	-414.177719	-414.219491	29.258	
C	-0.0959501943	 1.2528722917	 1.4086469713	-0.406347
C	 0.0909384001	-0.1188869642	 0.8078517981	 0.014211
C	 0.1726466659	-0.3064528377	-0.6713846019	-0.244458
N	 1.3521227151	-0.4997811313	 0.1593595733	-0.146973
C	 2.4184460548	 0.3814852557	 0.0650544969	 0.397949
N	 3.128324773	 0.7459087471	 1.1286570465	-0.298097
N	 4.0939863717	 1.5180737184	 0.5600489665	-0.176175
C	 3.9290607122	 1.5745433638	-0.7718441719	 0.01915
N	 2.8727995186	 0.8699363111	-1.1299941246	-0.31267
H	 0.2580904939	 2.0385411066	 0.7355402763	 0.12534
H	-1.1576264727	 1.4288400546	 1.6104191541	 0.118973
H	 0.453738574	 1.3452133096	 2.3504148911	 0.140211
H	-0.330360788	-0.9321984916	 1.3958779384	 0.096617
H	-0.2157557754	-1.2057869249	-1.1411477493	 0.117766
H	 0.1440757607	 0.585176139	-1.2926981232	 0.130365
H	 4.8007271705	 1.9394509051	 1.1390195182	 0.280277
H	 4.5841144399	 2.1269838169	-1.4289487598	 0.143862
52.7529	120.5645	178.9161	223.8845	302.1544	381.7783	440.8887	504.0632	553.7042	586.2705	672.1836	783.7049	816.564	847.9092	886.2779	909.1187	985.2355	995.7078	1034.2134	1049.0525	1100.4988	1130.4594	1142.5702	1161.1805	1177.3738	1197.4942	1268.8965	1315.6519	1345.7352	1400.6725	1420.6134	1478.0218	1487.4013	1492.0075	1513.5764	1520.8822	1569.5948	3039.2477	3106.4444	3108.5374	3111.1157	3129.7482	3195.9647	3255.6991	3672.2728
CC1CN1C1=NNC=N1	C[C@H]1CN1c1n[nH]cn1	
InChI=1S/C5H8N4/c1-4-2-9(4)5-6-3-7-8-5/h3-4H,2H2,1H3,(H,6,7,8)	InChI=1S/C5H8N4/c1-4-2-9(4)5-6-3-7-8-5/h3-4H,2H2,1H3,(H,6,7,8)/t4-,9?/m0/s1
