17
gdb 49070	2.53409	1.63077	1.31156	1.8866	68.28	-0.2525	-0.0395	0.213	1007.3724	0.135941	-458.956371	-458.948642	-458.947698	-458.988962	28.849	
O	-0.7558625149	 1.087519492	 0.6524520849	-0.253879
C	 0.2195686871	 0.8684123984	-0.0197276083	 0.091216
C	 1.4245638501	 1.7759082458	-0.0871197418	 0.298463
C	 1.7844845305	 2.4973946608	 1.2074976981	-0.278178
C	 2.437437492	 3.7934765346	 0.7027642597	-0.101147
O	 1.7433179729	 4.1194706749	-0.5056498524	-0.252175
C	 1.4115136275	 2.9262648255	-1.1577273329	 0.029112
C	 2.5595441241	 2.122532579	-1.8087576003	-0.117344
O	 2.5390844318	 1.1391253981	-0.7478712091	-0.335722
H	 0.305963816	-0.0273882008	-0.6735612869	 0.093688
H	 0.8588392613	 2.7017532708	 1.7526480929	 0.139023
H	 2.4484536998	 1.8975027098	 1.8336811888	 0.1226
H	 2.3277389251	 4.6410654463	 1.3825138393	 0.121946
H	 3.507588965	 3.6397755242	 0.5058097139	 0.108319
H	 0.5205564209	 3.0949162321	-1.7637583477	 0.107133
H	 2.3177313846	 1.6752712343	-2.78018979	 0.111257
H	 3.5169737362	 2.6506314243	-1.8752518781	 0.115688
87.855	110.8504	208.8013	232.7368	250.1086	371.4263	423.9357	502.5547	599.5731	663.296	722.1318	818.9476	831.7122	877.7625	914.5884	970.1952	978.7548	1015.7755	1019.1734	1048.8837	1104.2732	1125.3081	1159.5234	1174.0679	1196.9625	1221.0772	1229.4443	1255.16	1318.2728	1333.3785	1357.4723	1389.2398	1400.2582	1468.809	1510.3125	1523.0447	1820.616	2896.6924	3009.4863	3026.3372	3072.0846	3079.1018	3107.649	3112.3442	3131.3597
O=CC12CCOC1CO2	O=C[C@]12CCO[C@H]1CO2	
InChI=1S/C6H8O3/c7-4-6-1-2-8-5(6)3-9-6/h4-5H,1-3H2	InChI=1S/C6H8O3/c7-4-6-1-2-8-5(6)3-9-6/h4-5H,1-3H2/t5-,6+/m0/s1
