23
gdb 102400	1.60627	1.31157	1.24923	1.7963	81.94	-0.2396	-0.0294	0.2102	1303.3279	0.201558	-425.431217	-425.419831	-425.418887	-425.46771	40.507	
C	 0.0797309432	 1.4705542972	 0.4181037517	-0.403048
C	-0.1546417367	-0.0427744315	 0.4248496055	-0.21539
C	-1.5743261547	-0.4811496667	 0.0103512749	 0.257085
C	-2.649981495	 0.0991116301	 0.9591944969	-0.205664
C	-4.0876002502	-0.3405605243	 0.6563794921	-0.403776
O	-1.9489965448	-0.0418961976	-1.2950749716	-0.278695
C	-1.0869298353	-0.4071667641	-2.3555075723	-0.253455
C	-1.6830157756	-2.0115712801	 0.0634445571	 0.133659
O	-1.1165195241	-2.7135214689	 0.860605555	-0.263176
H	 1.1385918506	 1.6911701032	 0.5828238297	 0.114745
H	-0.2143448495	 1.9146548509	-0.5377263986	 0.126808
H	-0.4846048601	 1.9775116263	 1.2057718905	 0.121886
H	 0.5692881488	-0.5285937882	-0.2390953564	 0.100056
H	 0.0378025761	-0.4644774602	 1.4155910173	 0.122003
H	-2.3755708641	-0.1772209512	 1.983005034	 0.111936
H	-2.5871327443	 1.1890568388	 0.8874472032	 0.112245
H	-4.3520226682	-0.1137874262	-0.3790300972	 0.136639
H	-4.2336824181	-1.4134097558	 0.81916948	 0.120402
H	-4.7878582664	 0.1858173952	 1.3115062666	 0.115219
H	-0.1459075867	 0.1585347364	-2.3434750314	 0.117065
H	-0.8425104196	-1.4796384976	-2.3513300816	 0.111813
H	-1.6185464857	-0.1789721002	-3.2825897306	 0.131373
H	-2.3754994198	-2.4343175054	-0.6997800049	 0.090269
66.4056	91.3775	105.0039	142.8737	163.006	192.8848	204.0509	225.3038	276.4406	296.5365	303.0193	348.7539	376.2976	480.7111	513.9937	621.5912	703.7936	770.63	777.0954	893.4402	934.9973	995.7343	1003.9313	1039.8516	1059.8128	1083.7823	1119.3756	1168.4892	1178.6124	1186.9072	1198.3372	1239.5156	1301.9693	1319.8155	1362.3185	1373.4726	1394.7404	1411.2018	1413.3219	1470.9846	1474.6345	1484.5499	1496.584	1499.2126	1502.0048	1507.6186	1508.7259	1516.1496	1829.0906	2874.0922	2990.5737	3041.8844	3042.8863	3043.1259	3046.4366	3049.208	3085.2194	3091.1193	3106.9864	3111.1015	3113.6267	3118.1144	3130.5754
CCC(CC)(OC)C=O	CCC(CC)(OC)C=O	
InChI=1S/C7H14O2/c1-4-7(5-2,6-8)9-3/h6H,4-5H2,1-3H3	InChI=1S/C7H14O2/c1-4-7(5-2,6-8)9-3/h6H,4-5H2,1-3H3
