14
gdb 31479	6.48559	0.87832	0.77857	7.747	71.88	-0.2412	-0.0124	0.2288	1358.0113	0.10256	-432.917717	-432.909562	-432.908618	-432.951358	28.786	
O	-0.1311647423	 1.4044641461	 0.1933980206	-0.431705
C	-0.0066476029	 0.002280322	 0.0013132618	-0.195548
C	-1.3902960595	-0.5685639207	 0.0230177444	 0.361004
N	-1.71472868	-1.8365247857	 0.0684130049	-0.357115
C	-3.0975845419	-1.8515368521	 0.0425698244	 0.164076
C	-3.5955891811	-0.5681176563	-0.0150788371	-0.168711
N	-2.4913575018	 0.2368614239	-0.0308392345	-0.252763
C	-3.8535067158	-3.0531749132	 0.0769042824	 0.212099
N	-4.4902285921	-4.0197371604	 0.1032793988	-0.344008
H	 0.7265980612	 1.8116313561	 0.0465088842	 0.303859
H	 0.4718371817	-0.232565444	-0.961228937	 0.128767
H	 0.5911484043	-0.474832682	 0.790090951	 0.135325
H	-4.6014039122	-0.1854407536	-0.0396570212	 0.15755
H	-2.4536799976	 1.2435252398	-0.0472159028	 0.287172
39.894	133.1256	140.076	211.7723	237.8829	273.2843	425.1809	514.1737	574.6589	613.1246	627.9422	684.7605	710.6944	720.1376	781.9696	999.9773	1008.4702	1039.3502	1087.314	1113.2958	1192.8318	1229.0115	1254.9482	1292.834	1372.514	1443.7062	1455.137	1513.4282	1557.7319	1596.8798	2352.1055	2991.9862	3028.1181	3288.1979	3660.8292	3851.1582
OCC1=NC(=CN1)C#N	OCc1nc(c[nH]1)C#N	
InChI=1S/C5H5N3O/c6-1-4-2-7-5(3-9)8-4/h2,9H,3H2,(H,7,8)	InChI=1S/C5H5N3O/c6-1-4-2-7-5(3-9)8-4/h2,9H,3H2,(H,7,8)
