12
gdb 132416	3.02543	1.34687	0.93197	3.0362	66.31	-0.2657	-0.0999	0.1658	1113.9047	0.077719	-476.821917	-476.815021	-476.814077	-476.853827	24.868	
F	 0.0238258356	 0.0473137047	 0.0034672783	-0.053457
C	-0.0140008841	 1.3699585047	 0.0107083021	 0.308596
N	-1.1861580648	 1.9410997403	 0.0298091215	-0.321642
C	-1.178290185	 3.2863342172	 0.0366867876	 0.20074
C	-2.4843343645	 4.0113115981	 0.0583468588	 0.108413
O	-3.5624390181	 3.4790529604	 0.0708212721	-0.234819
C	 0.0144280372	 4.0041502244	 0.0240006108	-0.041357
N	 1.2104527383	 3.399916694	 0.0044517767	-0.222245
C	 1.2011103714	 2.0752549249	-0.002274524	-0.111417
H	-2.3761181386	 5.1183516237	 0.0629414108	 0.085708
H	 0.0118049416	 5.0905167114	 0.0296129478	 0.134205
H	 2.1492369711	 1.5461982261	-0.0179545722	 0.147274
99.1166	184.7801	219.414	225.4916	423.3536	457.7016	483.5894	565.9001	604.026	677.9578	765.8266	768.4914	913.0734	965.7478	1022.9535	1032.1995	1037.6051	1181.4556	1237.87	1266.5499	1332.2312	1431.4294	1450.6531	1485.4004	1599.2649	1610.2835	1824.4309	2891.7495	3173.3014	3183.0277
FC1=NC(C=O)=CN=C1	Fc1nc(C=O)cnc1	
InChI=1S/C5H3FN2O/c6-5-2-7-1-4(3-9)8-5/h1-3H	InChI=1S/C5H3FN2O/c6-5-2-7-1-4(3-9)8-5/h1-3H
