12
gdb 123399	7.97069	0.80526	0.73473	3.304	63.18	-0.2901	-0.0728	0.2173	1401.0671	0.075365	-468.693514	-468.685773	-468.684829	-468.726881	26.957	
C	 0.0898784482	-1.1727499449	-0.0064006974	-0.38513
C	 0.0617826073	 0.0267331894	 0.0016632712	 0.296002
C	-0.0155848587	 1.4740356497	 0.0118982073	-0.250654
O	 1.3300119999	 2.0124097865	-0.0002379261	-0.236847
C	 1.3995536571	 3.3284741644	 0.0072472236	 0.534034
N	 0.4059938786	 4.1751921568	 0.0241700028	-0.181056
O	 1.0297253484	 5.3905114688	 0.0245610205	-0.162485
N	 2.4010210686	 5.1950352295	 0.0073457501	 0.062944
N	 2.6296341339	 3.9592055033	-0.0031120934	-0.223836
H	 0.1195494828	-2.2347879189	-0.0135997121	 0.215633
H	-0.5549342767	 1.8533556591	-0.8640968652	 0.165698
H	-0.5344089095	 1.8419367163	 0.9049943887	 0.165695
46.5507	112.0394	118.3524	226.4235	322.7147	361.7532	423.3293	523.6734	626.7174	652.6236	703.1853	751.106	774.6187	801.9991	939.424	976.1872	1016.7404	1030.091	1061.4478	1116.5849	1255.1012	1328.2079	1405.9335	1486.3541	1521.5126	1632.6745	2256.1088	3034.269	3071.9743	3503.5509
C#CCOC1=NON=N1	C#CCOc1nonn1	
InChI=1S/C4H3N3O2/c1-2-3-8-4-5-7-9-6-4/h1H,3H2	InChI=1S/C4H3N3O2/c1-2-3-8-4-5-7-9-6-4/h1H,3H2
