16
gdb 86857	3.03745	1.20521	1.00506	3.3785	70.8	-0.2548	0.016	0.2708	1175.6579	0.1242	-437.890529	-437.882082	-437.881138	-437.923857	31.766	
O	 0.0730313044	 1.4224555959	 0.1934203906	-0.439494
C	 0.0161132192	 0.028412283	 0.0498350341	 0.048722
C	-1.4062249274	-0.5308649999	-0.0314149428	-0.248923
C	-1.2425064069	-1.8107679049	-0.907956341	-0.200498
N	-0.1009363467	-1.4523931519	-1.7516123047	-0.293154
C	 0.641119757	-0.4139295991	-1.2785099109	 0.393713
O	 1.604318362	 0.1127302047	-1.7953897989	-0.394507
C	-1.010328875	-3.0287843433	-0.1256687889	 0.357548
C	-0.8278455312	-4.0326306614	 0.5091624767	-0.469215
H	 0.8487265264	 1.7014389588	-0.3159844391	 0.29434
H	 0.5751340671	-0.4775411545	 0.8557440399	 0.101396
H	-1.8567388766	-0.7555229265	 0.9348025922	 0.128282
H	-2.0325201226	 0.1929001767	-0.5600686384	 0.127674
H	-2.1314731376	-1.9598365841	-1.5309737005	 0.123273
H	 0.1912710711	-2.0037607919	-2.5434053544	 0.262461
H	-0.6627016232	-4.9191137814	 1.0707156761	 0.208382
71.6147	91.699	184.0328	249.4006	268.4342	379.3335	416.7725	440.1723	479.4075	509.2671	581.8259	607.3919	639.1217	665.2665	719.1887	771.6332	816.2172	838.4138	974.725	1015.1235	1045.0042	1078.5844	1149.6955	1188.1489	1220.8994	1270.44	1271.9889	1322.6231	1368.5054	1383.9283	1428.4592	1431.1863	1489.2377	1829.4	2235.9494	2958.5155	3040.6492	3077.729	3145.9735	3501.0907	3637.6279	3723.0081
OC1CC(NC1=O)C#C	O[C@H]1C[C@@H](NC1=O)C#C	
InChI=1S/C6H7NO2/c1-2-4-3-5(8)6(9)7-4/h1,4-5,8H,3H2,(H,7,9)	InChI=1S/C6H7NO2/c1-2-4-3-5(8)6(9)7-4/h1,4-5,8H,3H2,(H,7,9)/t4-,5-/m0/s1
