16
gdb 12032	3.77153	1.74614	1.53842	3.5958	68.59	-0.251	0.0339	0.2849	866.8676	0.131118	-342.755254	-342.74793	-342.746985	-342.786503	27.987	
C	-0.0468211187	 1.5554176325	 0.0743640882	-0.452072
C	 0.0206884918	 0.0271651116	 0.0219359555	 0.16086
C	 1.1175849438	-0.6270058539	-0.9275489164	-0.272268
C	 1.7363177223	-1.2928063903	 0.3028753886	-0.026407
N	 2.1154188342	-0.1901025815	 1.2182244278	-0.339431
C	 0.7254213925	-0.6895698216	 1.2072206251	-0.079474
C	-1.2954407611	-0.5540575508	-0.2249652191	 0.235677
N	-2.3401130478	-1.0136914193	-0.4115912425	-0.34401
H	 0.9420052392	 1.9439474017	 0.3243386779	 0.149303
H	-0.3589051577	 1.9622303889	-0.8917939691	 0.131871
H	-0.7628898846	 1.8890014697	 0.8310994274	 0.131087
H	 0.6807229391	-1.328940133	-1.6381269714	 0.132597
H	 1.7583562707	 0.0885614348	-1.4472405178	 0.119005
H	 2.2264404944	-2.2560439815	 0.3560986916	 0.105254
H	 2.5738664324	-0.6031116787	 2.0296070063	 0.2374
H	 0.2476336195	-1.0723916186	 2.0999598679	 0.110608
139.2765	170.7919	225.4438	238.0224	297.002	397.9003	481.2758	525.1969	570.3603	634.4421	763.6347	824.2155	841.1901	858.604	914.1814	933.6316	954.6202	993.3179	1019.0951	1088.2464	1107.1626	1140.9539	1145.8016	1172.3433	1235.3996	1260.5695	1291.7275	1320.9489	1376.5298	1406.1301	1471.4441	1490.117	1498.498	2350.1385	3046.8825	3077.1458	3116.4356	3142.851	3145.8651	3195.4475	3208.8263	3482.4367
CC1(CC2NC12)C#N	C[C@]1(C[C@H]2N[C@@H]12)C#N	
InChI=1S/C6H8N2/c1-6(3-7)2-4-5(6)8-4/h4-5,8H,2H2,1H3	InChI=1S/C6H8N2/c1-6(3-7)2-4-5(6)8-4/h4-5,8H,2H2,1H3/t4-,5-,6+/m1/s1
