18
gdb 118334	2.76744	1.10553	0.88284	6.3111	71.78	-0.2484	-0.0117	0.2367	1319.0902	0.148093	-472.428572	-472.41913	-472.418186	-472.463392	34.512	
N	 0.05157757	 1.328322943	 0.6596057744	-0.546522
C	 0.1506705743	 0.0772624417	 0.0645430075	 0.38194
N	 1.2109401676	-0.5046532275	-0.3398810895	-0.50972
N	-1.0994214099	-0.5602640673	-0.1309070179	-0.100022
C	-2.3352626728	 0.2030570875	-0.4040534703	-0.214618
C	-2.9817475966	-0.0731974426	-1.7786004149	-0.047298
O	-3.9351943155	-1.1010884819	-1.7670018891	-0.423041
C	-1.1312750818	-1.9340036808	-0.0964186468	 0.17819
O	-2.1196558986	-2.6036162294	-0.3325988841	-0.352759
H	 0.9368514945	 1.7485999715	 0.8989347402	 0.257412
H	-0.6454128152	 1.4324661994	 1.3833679146	 0.263175
H	 2.0465688137	-0.0097430154	-0.0321847417	 0.212707
H	-3.0785820754	-0.0167740298	 0.3701819296	 0.12974
H	-2.0653674172	 1.2569051482	-0.3437173869	 0.130397
H	-3.5121733661	 0.8369011627	-2.0827290215	 0.105855
H	-2.1780302525	-0.2415862889	-2.5152652655	 0.094187
H	-3.5021708652	-1.8652831551	-1.3538415456	 0.303551
H	-0.1643688732	-2.3676211952	 0.1864970374	 0.136824
47.8752	83.2465	144.5931	175.5973	242.1074	264.3689	318.3597	374.6737	405.0763	450.4793	487.0735	530.5523	559.9594	619.6803	654.0063	727.3423	803.3971	827.2496	880.6909	994.2077	1039.0883	1067.0159	1082.4697	1110.6474	1119.4583	1173.2751	1250.3296	1294.9182	1323.5995	1392.4612	1401.2284	1417.4903	1452.3339	1478.7033	1487.7097	1502.845	1632.1238	1724.8491	1770.6753	2965.209	3048.9024	3058.5107	3073.2613	3140.7853	3495.549	3564.344	3672.2007	3674.6993
NC(=N)N(CCO)C=O	NC(=N)N(CCO)C=O	
InChI=1S/C4H9N3O2/c5-4(6)7(3-9)1-2-8/h3,8H,1-2H2,(H3,5,6)	InChI=1S/C4H9N3O2/c5-4(6)7(3-9)1-2-8/h3,8H,1-2H2,(H3,5,6)
