16
gdb 46319	3.23455	1.34274	1.22295	1.6392	65.67	-0.2669	0.008	0.2749	1046.0292	0.125282	-475.009001	-475.001404	-475.00046	-475.041896	27.836	
N	 0.0479875418	 1.1797566047	-0.3385246857	-0.54579
C	 0.0382029521	-0.0289607609	-0.0140817315	 0.385826
O	 1.0195340752	-0.8492323259	 0.4995099264	-0.256826
C	 0.1283429137	-2.0099427859	 0.5033682148	-0.128593
C	-1.032310952	-1.1192309014	 0.0010066188	 0.256641
C	-2.2679173107	-0.8575560683	 0.8891642228	-0.184321
O	-3.3101472979	-1.5374337624	 0.2085379096	-0.229898
C	-2.9901627789	-1.3821070931	-1.1460572576	 0.010058
O	-1.576818001	-1.5055039035	-1.2391458693	-0.286409
H	 0.9674413369	 1.6046840388	-0.207005272	 0.233509
H	 0.452129086	-2.7615652671	-0.2190420644	 0.134653
H	 0.0391820869	-2.4349738594	 1.5059660716	 0.121224
H	-2.1826889962	-1.2625079051	 1.8988913765	 0.128815
H	-2.4613351458	 0.2234368881	 0.9395047996	 0.129905
H	-3.4608587782	-2.1813280209	-1.7241539421	 0.1267
H	-3.3018101319	-0.3927896478	-1.5210964575	 0.104504
53.2151	119.3764	172.4926	270.7783	275.2638	348.5735	440.2814	570.5186	668.97	728.7548	750.2585	815.7986	864.0565	908.1817	915.1036	970.0785	978.5183	1008.9318	1032.703	1102.0688	1125.6197	1142.535	1162.6614	1190.7383	1200.7903	1232.7328	1245.3816	1280.7627	1358.9949	1367.5877	1429.0339	1502.9009	1510.0291	1541.4322	1827.9759	2966.227	3011.3146	3067.5413	3100.8073	3118.7832	3136.3068	3478.1773
N=C1OCC11COCO1	[NH][C]1OC[C@]21COCO2	
InChI=1S/C5H7NO3/c6-4-5(2-8-4)1-7-3-9-5/h6H,1-3H2	InChI=1S/C5H7NO3/c6-4-5(2-8-4)1-7-3-9-5/h6H,1-3H2/t5-/m0/s1
