15
gdb 48665	3.71025	1.22317	1.08157	2.3275	73.17	-0.255	-0.0667	0.1883	1094.534	0.112564	-420.655326	-420.647925	-420.64698	-420.687409	28.024	
O	-0.156755697	 0.0136080894	 0.1923583328	-0.26071
C	-0.0240783691	 1.177827656	-0.0946372591	 0.084609
C	 1.2710452035	 1.8886238846	-0.104547187	 0.207821
C	 1.2865736535	 3.3842251377	 0.2332504728	-0.315344
C	 1.624308574	 2.9356182568	-1.1559583396	-0.20838
C	 3.1020444755	 2.7165194116	-1.4602543402	 0.399647
O	 3.7370026761	 3.2948878769	-2.3078245716	-0.323165
C	 3.5733214062	 1.6495805617	-0.5342123517	-0.21346
C	 2.5495911864	 1.1719062961	 0.1859960818	-0.125979
H	-0.8965535843	 1.8134318983	-0.3696113923	 0.073929
H	 0.3264063864	 3.8724735603	 0.3726306075	 0.138199
H	 2.0770297526	 3.7201151886	 0.8947612683	 0.144974
H	 0.9567074293	 3.1882740652	-1.9701206319	 0.127073
H	 4.6083749276	 1.3388661404	-0.487502692	 0.127863
H	 2.5893755994	 0.3749664464	 0.9180154123	 0.142923
85.4355	171.8529	195.817	269.5155	348.068	392.089	471.497	479.9064	625.2196	701.0884	745.3446	769.4133	805.5152	833.9095	853.6992	953.3962	966.3432	985.5541	989.9025	1035.5007	1065.6373	1084.8845	1115.0354	1170.6367	1229.237	1291.3795	1329.2238	1385.6098	1434.8561	1475.5254	1634.5648	1810.878	1821.1278	2873.0424	3128.3282	3201.6163	3215.4372	3224.6863	3238.9804
O=CC12CC1C(=O)C=C2	O=C[C@]12C[C@H]1C(=O)C=C2	
InChI=1S/C7H6O2/c8-4-7-2-1-6(9)5(7)3-7/h1-2,4-5H,3H2	InChI=1S/C7H6O2/c8-4-7-2-1-6(9)5(7)3-7/h1-2,4-5H,3H2/t5-,7-/m0/s1
