19
gdb 116264	2.23102	1.54029	1.07636	4.2835	74.17	-0.2538	0.0138	0.2677	1152.9381	0.161351	-419.213345	-419.204452	-419.203508	-419.24794	32.729	
O	 0.2789701025	 1.2990981029	 0.1364264455	-0.432287
C	 0.061712828	-0.0867268905	-0.0636626283	-0.090544
C	-1.4272857068	-0.4563277912	-0.0662532566	-0.001344
C	-1.6797024554	-1.9791285306	-0.2364280514	-0.243697
C	-2.4160723389	-2.4041853136	 1.0546542539	-0.177051
N	-3.1169712971	-1.2116224363	 1.5539196573	-0.27779
C	-2.2171127422	-0.0907754084	 1.2502698336	-0.176038
C	-1.3128149581	 0.1409588905	 2.3922058526	 0.316837
N	-0.5700516511	 0.3470423682	 3.2544790234	-0.346397
H	 0.3372434606	 1.4528638374	 1.0853418449	 0.299787
H	 0.4841283523	-0.338343295	-1.0429176057	 0.109885
H	 0.5962707038	-0.6891319958	 0.684398945	 0.109019
H	-1.8991987003	 0.1027900808	-0.8788932359	 0.092839
H	-2.3031146102	-2.168600998	-1.1149695896	 0.106827
H	-0.7462112017	-2.533612922	-0.377468621	 0.109303
H	-3.1223570808	-3.224422539	 0.9093094374	 0.112803
H	-1.6959123459	-2.7225186376	 1.817572793	 0.128063
H	-3.9747621931	-1.0770121814	 1.028042638	 0.228548
H	-2.7954115655	 0.8275878695	 1.1215870841	 0.131238
24.4475	134.3663	143.8319	181.1814	210.9465	291.2583	362.2683	377.711	414.2209	526.0685	594.5124	640.2945	703.342	772.8517	833.081	836.8518	907.1741	925.4544	955.1427	1010.8266	1023.9443	1067.3316	1079.7761	1109.4568	1119.7458	1176.1472	1228.132	1231.3832	1261.2884	1302.4086	1322.9843	1344.5723	1362.1598	1367.7587	1409.8105	1411.6897	1467.565	1492.3522	1498.5542	1504.6439	2346.2635	3006.8106	3039.9076	3048.9644	3057.3511	3072.355	3086.5337	3091.8914	3112.9369	3520.2144	3814.3003
OCC1CCNC1C#N	OC[C@H]1CCN[C@H]1C#N	
InChI=1S/C6H10N2O/c7-3-6-5(4-9)1-2-8-6/h5-6,8-9H,1-2,4H2	InChI=1S/C6H10N2O/c7-3-6-5(4-9)1-2-8-6/h5-6,8-9H,1-2,4H2/t5-,6+/m1/s1
