23
gdb 56900	2.25855	1.15767	0.93856	0.5749	91.86	-0.2542	0.0555	0.3097	1404.571	0.20249	-351.121626	-351.110852	-351.109908	-351.15704	40.574	
C	 0.1627337903	 1.4404901798	 0.1807571412	-0.388604
C	-0.141899351	-0.0618409217	 0.0015182239	-0.190665
C	-1.5862662737	-0.2990030165	-0.0539537815	 0.343204
C	-2.773815949	-0.4776872008	-0.1172195988	-0.48183
C	 0.5497881781	-0.6156994109	-1.2412173647	-0.002032
C	 1.9966083512	-1.0540128678	-1.1971032734	-0.352287
C	 0.9026751276	-2.0741272957	-1.4347646661	 0.345877
C	 0.6050149754	-3.0890725333	-0.3457746402	-0.458601
C	 0.7526830083	-2.6315150108	-2.8388100696	-0.45174
H	 1.2429083983	 1.5971655252	 0.2535190446	 0.117655
H	-0.2122731159	 2.013546085	-0.6725233376	 0.12428
H	-0.3117119432	 1.830407606	 1.0851730028	 0.121723
H	 0.2501624633	-0.5852585675	 0.8825801608	 0.099955
H	-3.8213543754	-0.6439996282	-0.1648562902	 0.191995
H	 0.2407334895	-0.0987470824	-2.1472597555	 0.083092
H	 2.6489623845	-0.7795008179	-2.0198412011	 0.105092
H	 2.4883551274	-1.0612187096	-0.2282661252	 0.103373
H	 0.7938419669	-2.6963179907	 0.6566999501	 0.11238
H	-0.4405143526	-3.4147206669	-0.3846318053	 0.125115
H	 1.2361373	-3.9766837301	-0.4708773021	 0.112041
H	 1.4293597279	-3.4792436047	-3.000329962	 0.111511
H	-0.2703590254	-2.9845696838	-3.0138390741	 0.118271
H	 0.9788152176	-1.8754194766	-3.5972263659	 0.110195
57.3403	93.8654	155.7916	186.4791	207.2605	222.2738	239.2797	269.0885	299.7041	365.4075	367.1721	412.335	474.5788	519.6926	562.5541	625.2563	629.0109	710.4051	784.904	857.5016	891.6302	918.7274	962.4907	973.4253	977.7527	1030.7724	1060.3278	1075.0532	1086.1557	1105.9509	1128.2781	1156.87	1196.8759	1265.1386	1305.2176	1324.8369	1339.3367	1401.5153	1411.5484	1424.1008	1425.9509	1481.455	1491.4871	1492.5647	1492.9151	1499.275	1501.0671	1514.7925	2231.5108	3019.576	3024.2479	3030.1702	3041.1254	3080.0988	3086.4479	3097.3306	3108.7072	3115.9351	3117.9182	3120.8848	3127.6203	3200.7065	3505.1311
CC(C#C)C1CC1(C)C	C[C@@H](C#C)[C@H]1CC1(C)C	
InChI=1S/C9H14/c1-5-7(2)8-6-9(8,3)4/h1,7-8H,6H2,2-4H3	InChI=1S/C9H14/c1-5-7(2)8-6-9(8,3)4/h1,7-8H,6H2,2-4H3/t7-,8+/m0/s1
