14
gdb 15210	2.51467	2.00523	1.53612	1.0131	69.75	-0.2414	0.0225	0.2639	875.6276	0.103602	-345.313538	-345.305019	-345.304075	-345.346692	30.895	
O	 0.1030731826	 1.3703752072	-0.0520358618	-0.409719
C	-0.0173865669	-0.0016458802	 0.0033789816	 0.130786
C	-0.4699020854	-0.7061382187	 1.2692825159	-0.282516
C	-0.8237563692	 0.0935887252	 2.3992555163	 0.316889
C	-1.1009745104	 0.8095228783	 3.3261362033	-0.434719
C	-1.3724104213	-0.6907805657	 0.0000728031	-0.285949
C	-2.5664480579	 0.0930871125	-0.0235227813	 0.334633
C	-3.5608651646	 0.7690535136	-0.0552682915	-0.440558
H	-0.4826057798	 1.7591482506	 0.610657026	 0.295852
H	 0.7711981306	-0.4770394444	-0.5699178415	 0.123795
H	-0.0106568767	-1.6642433548	 1.4922627976	 0.124657
H	-1.3582902356	 1.4179537278	 4.1575580751	 0.203616
H	-1.4251015172	-1.643001768	-0.5197802331	 0.123352
H	-4.4451171281	 1.3560694567	-0.0821396996	 0.199881
56.324	102.0387	149.0526	192.6924	237.9249	353.93	377.4672	429.1961	583.5545	591.8758	629.5472	647.7317	662.7938	667.3807	669.0679	745.105	750.6826	870.6394	985.0514	1001.2463	1079.6628	1115.4728	1125.6912	1224.2697	1338.5002	1348.0307	1361.9345	1453.3454	2232.0409	2236.9055	3145.6485	3154.251	3176.3544	3503.3887	3505.2099	3771.8424	56.3259	102.0386	149.0524	192.6936	237.9247	353.9291	377.4671	429.1957	583.5519	591.8761	629.5473	647.7314	662.7917	667.3808	669.0685	745.105	750.6827	870.6394	985.0516	1001.2463	1079.6628	1115.473	1125.6913	1224.2699	1338.5001	1348.0309	1361.9347	1453.3454	2232.041	2236.9051	3145.6486	3154.251	3176.3544	3503.3887	3505.2097	3771.8428
OC1C(C#C)C1C#C	O[C@H]1[C@@H](C#C)[C@H]1C#C	
InChI=1S/C7H6O/c1-3-5-6(4-2)7(5)8/h1-2,5-8H	InChI=1S/C7H6O/c1-3-5-6(4-2)7(5)8/h1-2,5-8H/t5-,6+,7-
