21
gdb 39617	4.38538	0.98682	0.82842	0.1186	92.61	-0.2124	0.0237	0.2362	1420.7924	0.183082	-349.959277	-349.950754	-349.94981	-349.99355	32.304	
C	 0.0080523428	 1.5050533947	-0.2182560413	-0.2082
C	 1.5265780184	 1.5226189142	 0.1446289736	-0.322432
C	 1.3738140505	 0.1043360664	 0.6736668781	 0.288896
C	-0.0495137598	-0.011475383	 0.1488146602	-0.322432
C	 2.1513662388	-0.6925395048	 1.3930858859	 0.152475
C	 3.555846247	-0.3544254083	 1.8794482203	-0.356371
C	 3.9402698747	-1.5721627063	 2.6848686462	-0.059517
C	 2.985892648	-2.5011091951	 2.6874031485	-0.059517
C	 1.7767855704	-2.0860804558	 1.8841728377	-0.356371
H	-0.5966278182	 2.1280953092	 0.4443863086	 0.104096
H	-0.2402396845	 1.7573243968	-1.2511886214	 0.098063
H	 2.1844380998	 1.6020899362	-0.72927537	 0.10554
H	 1.846017374	 2.2807563118	 0.8681130386	 0.103261
H	-0.8140228737	-0.3084029034	 0.8751774336	 0.103261
H	-0.1490998412	-0.6692671407	-0.7230780785	 0.10554
H	 4.2538842965	-0.1768317553	 1.0477563302	 0.112134
H	 3.5767263789	 0.5655935848	 2.4822468572	 0.111422
H	 4.8957186472	-1.6547047929	 3.1909574988	 0.088299
H	 3.0439898189	-3.4570916797	 3.1958750597	 0.088299
H	 0.858185722	-2.0805076942	 2.4894664739	 0.111422
H	 1.5781435793	-2.7812734745	 1.0548622502	 0.112134
35.2079	77.4912	130.6152	170.7387	273.8257	384.0932	387.532	473.8708	488.5711	701.9425	720.9901	756.9946	761.5377	795.7106	848.3136	922.809	929.1348	933.2252	947.7699	975.8921	978.1321	1001.6765	1013.2482	1027.427	1086.5953	1087.8341	1131.2911	1150.0371	1174.9525	1196.6848	1217.423	1220.8719	1237.5323	1271.7091	1275.5698	1286.0696	1316.8986	1369.4969	1461.4281	1468.8687	1471.3469	1474.0379	1497.0403	1689.019	1793.181	2989.5644	2992.2023	3005.2076	3005.438	3022.9027	3026.8688	3060.5267	3065.573	3070.7153	3121.6212	3181.5228	3206.964
C1CC(C1)=C1CC=CC1	C1CC(=C2CC=CC2)C1	
InChI=1S/C9H12/c1-2-5-8(4-1)9-6-3-7-9/h1-2H,3-7H2	InChI=1S/C9H12/c1-2-5-8(4-1)9-6-3-7-9/h1-2H,3-7H2
