21
gdb 73479	2.46816	2.141	1.54413	1.5625	80.7	-0.23	0.0911	0.321	954.8693	0.185474	-387.088899	-387.081787	-387.080842	-387.11981	30.317	
C	 0.0476490693	 1.5144968797	-0.0252588173	-0.498
C	 0.0081781817	-0.0027646809	-0.0309161895	 0.351955
C	 0.7213284367	-0.6597575608	-1.2307781665	-0.279237
C	 0.0088129899	-2.0308805881	-1.3853945252	-0.218362
C	-0.7251463036	-2.1388317675	-0.0514563102	 0.09901
O	 0.3071464893	-2.1168018063	 0.9760092504	-0.295782
C	 0.2766142768	-0.7278641165	 1.3408646234	 0.062752
C	-1.2120110914	-0.5252038644	 1.7043623678	-0.257497
C	-1.3670393358	-0.748542217	 0.1813939207	-0.106502
H	 1.0848328167	 1.8699683791	-0.0190596898	 0.118487
H	-0.4294944117	 1.9190961564	-0.9252230722	 0.115896
H	-0.4516886645	 1.9541746142	 0.8424631532	 0.115743
H	 0.623570788	-0.0412985704	-2.1285998667	 0.092129
H	 1.7917965467	-0.7767816198	-1.0353001001	 0.105356
H	-0.7004512646	-2.0285457486	-2.2216445775	 0.089761
H	 0.7008874715	-2.8640031704	-1.5297224155	 0.104561
H	-1.3637361587	-3.0146221578	 0.083212721	 0.067999
H	 1.1142107914	-0.4949154757	 1.9994311219	 0.070047
H	-1.6428300353	-1.2612304202	 2.3866691539	 0.097206
H	-1.4722506106	 0.4862736648	 2.0167256052	 0.100662
H	-2.2716262019	-0.5095840598	-0.3788297172	 0.063817
192.4892	211.388	273.8012	332.7703	371.3379	406.9993	494.0736	562.089	619.9206	686.2827	717.0193	800.4274	839.6641	859.1065	879.5457	899.3313	915.3043	929.6255	955.4613	969.0894	997.6581	1016.2116	1021.9902	1061.6797	1098.3218	1111.3236	1124.8679	1153.5631	1201.5459	1216.1194	1232.3836	1234.9959	1251.7776	1274.896	1278.7075	1293.1899	1331.4952	1347.754	1354.5314	1414.7251	1476.4815	1486.5391	1492.5585	1497.7694	1506.0701	3025.9641	3035.5987	3049.0734	3075.2319	3081.1913	3083.3854	3088.9333	3105.7608	3107.0094	3111.0759	3116.3123	3141.4296
CC12CCC3OC1CC23	C[C@@]12CC[C@H]3O[C@@H]1C[C@@H]23	
InChI=1S/C8H12O/c1-8-3-2-6-5(8)4-7(8)9-6/h5-7H,2-4H2,1H3	InChI=1S/C8H12O/c1-8-3-2-6-5(8)4-7(8)9-6/h5-7H,2-4H2,1H3/t5-,6-,7-,8+/m1/s1
