20
gdb 122259	2.77699	0.81507	0.6975	4.8483	80.24	-0.2703	0.0364	0.3067	1645.1033	0.169839	-403.149141	-403.139109	-403.138165	-403.185038	35.8	
O	 0.030346088	 1.384671351	-0.3428627418	-0.419034
C	 0.0334607111	 0.0334741746	 0.0869757813	-0.074535
C	-1.3680949266	-0.52417028	-0.1256067168	-0.171862
C	-1.4806892033	-1.9996828658	 0.2714656093	-0.288069
C	-2.8825704254	-2.5718349453	 0.0861148314	 0.19373
C	-3.3141041477	-3.049033852	-1.2936666205	-0.283449
C	-3.0517840462	-4.0543729346	-0.2128316763	-0.305854
C	-3.9013089696	-1.9649130122	 0.9082584302	 0.245672
N	-4.707212436	-1.4725812505	 1.5771638682	-0.352961
H	 0.9012496679	 1.7568592124	-0.1770772658	 0.287005
H	 0.7645121034	-0.5651921051	-0.4828089722	 0.081361
H	 0.3082493346	-0.0482181267	 1.1515373208	 0.088415
H	-2.0762063336	 0.0769871106	 0.4555394475	 0.132991
H	-1.6386002199	-0.3973741467	-1.1804045402	 0.109992
H	-0.790421673	-2.6033077284	-0.3306279043	 0.100842
H	-1.1784072277	-2.1316074953	 1.3179545826	 0.11629
H	-4.3397565617	-2.8716134076	-1.5932350606	 0.14169
H	-2.5840021099	-2.9379190316	-2.0878815201	 0.128863
H	-2.1416488909	-4.6421631011	-0.2581462223	 0.127807
H	-3.8987845937	-4.5637840458	 0.2305973294	 0.141104
56.7023	72.2282	106.9962	132.816	179.7127	226.0678	261.0693	291.3749	305.3406	371.8632	475.1623	572.1031	594.9291	696.0823	760.5142	789.1915	855.2687	896.6785	928.8125	953.7028	977.0084	1030.1347	1053.5469	1067.0976	1087.0593	1091.7143	1118.4141	1194.0188	1209.0519	1234.9478	1281.9561	1287.4921	1311.3914	1317.577	1353.1397	1389.6453	1464.5907	1466.7696	1481.9718	1498.4886	1501.483	1528.8428	2347.3527	2952.5483	2979.9343	3022.0768	3041.5776	3058.0299	3090.1663	3141.5083	3145.3192	3226.9937	3240.754	3831.4057
OCCCC1(CC1)C#N	OCCCC1(CC1)C#N	
InChI=1S/C7H11NO/c8-6-7(3-4-7)2-1-5-9/h9H,1-5H2	InChI=1S/C7H11NO/c8-6-7(3-4-7)2-1-5-9/h9H,1-5H2
