14
gdb 35458	2.47551	1.43643	1.1012	4.7703	71.8	-0.2643	-0.0135	0.2508	1081.1724	0.102011	-395.700766	-395.693112	-395.692168	-395.733271	28.254	
N	-0.0683931166	-1.163244168	-0.1617724711	-0.313387
C	-0.033853576	-0.0137532089	-0.0535409773	 0.320114
C	 0.0241241659	 1.4433155183	 0.0764876812	-0.205954
N	-0.1426857151	 1.9593094584	 1.4760938377	-0.3108
C	 1.0969767935	 2.741004389	 1.3435503666	-0.053042
C	 2.2433605198	 1.8083559854	 1.1989704979	-0.309528
C	 1.4099020671	 2.1210311492	-0.0353766655	 0.174371
C	 1.9363215423	 2.6834841904	-1.2292186638	 0.200661
N	 2.3485806692	 3.1548425291	-2.2031591085	-0.340418
H	-0.6788901845	 1.8979921144	-0.6266545366	 0.147021
H	-0.9659147988	 2.5483257289	 1.5369464346	 0.246309
H	 1.1760256111	 3.7720376176	 1.6627798387	 0.136237
H	 3.2275341147	 2.2626913165	 1.1793298387	 0.153188
H	 2.1872283873	 0.8161364596	 1.6361815774	 0.155228
95.6992	125.4228	166.804	222.6889	325.6438	444.83	480.1824	488.9244	552.3089	563.7398	644.6249	722.5198	809.4944	824.6819	892.3397	938.9193	979.8906	1007.2989	1045.6345	1059.7109	1095.9458	1104.1775	1187.1467	1207.3408	1273.1241	1344.951	1376.943	1407.6489	1480.8983	2345.4221	2363.9767	3078.9061	3132.9567	3209.1447	3233.9139	3543.6174
N#CC1NC2CC12C#N	N#C[C@H]1N[C@H]2C[C@@]12C#N	
InChI=1S/C6H5N3/c7-2-5-6(3-8)1-4(6)9-5/h4-5,9H,1H2	InChI=1S/C6H5N3/c7-2-5-6(3-8)1-4(6)9-5/h4-5,9H,1H2/t4-,5+,6-/m0/s1
