16
gdb 77056	3.21719	1.05293	0.86927	4.624	71.09	-0.2677	0.0013	0.269	1293.8077	0.124505	-434.070802	-434.061803	-434.060859	-434.105714	31.56	
N	 0.11063308	 1.5143082677	 0.0217615237	-0.522462
C	 0.0734969738	 0.068936805	 0.0110616128	-0.1333
C	-1.3052058602	-0.6552778013	 0.1510491556	 0.111241
C	-2.5308971553	 0.2490016635	 0.1191036055	-0.338705
C	-3.7777709978	-0.501995428	-0.0038319836	 0.262994
N	-4.7619011789	-1.1007130463	-0.0902706038	-0.299126
O	-1.074611991	-1.3194124128	-1.1345687045	-0.256041
C	 0.0791513755	-0.5994598525	-1.3523215671	 0.423162
N	 0.8203091021	-0.493511502	-2.3559696478	-0.541689
H	 0.7226965681	 1.8674644488	 0.7460987861	 0.244572
H	 0.4615974798	 1.8558526913	-0.8664816346	 0.258325
H	 0.8129491547	-0.3841568489	 0.6799168297	 0.114749
H	-1.3780280349	-1.4019482938	 0.9451114456	 0.111208
H	-2.5534816053	 0.8421132968	 1.0401305986	 0.162175
H	-2.4429575937	 0.9635526198	-0.7043422086	 0.163964
H	 0.4940757431	-1.0643818774	-3.1371540076	 0.238933
49.3979	76.3846	112.949	123.6727	217.7499	246.8138	368.658	387.3021	436.8878	532.8168	551.3836	661.5433	761.4633	824.3028	840.2947	851.1164	877.5872	924.0506	962.3081	1001.3215	1022.5194	1098.936	1146.1865	1192.581	1219.776	1224.565	1258.7797	1298.6573	1348.4822	1393.185	1410.6633	1439.6707	1666.4332	1829.4882	2366.7557	3050.1586	3060.6201	3088.96	3108.3027	3484.8941	3526.4479	3607.3178
NC1C(CC#N)OC1=N	N[C@H]1[C@@H](CC#N)O[C]1[NH]	
InChI=1S/C5H7N3O/c6-2-1-3-4(7)5(8)9-3/h3-4,8H,1,7H2	InChI=1S/C5H7N3O/c6-2-1-3-4(7)5(8)9-3/h3-4,8H,1,7H2/t3-,4+/m1/s1
