18
gdb 55313	2.4592	1.53001	1.12521	5.0233	71.72	-0.2447	0.0178	0.2625	1108.4091	0.148637	-439.085367	-439.077226	-439.076282	-439.118603	30.772	
O	-0.2629643275	-0.0618730458	 0.1204069601	-0.368525
C	-0.0614145255	 1.2511080716	-0.040445114	 0.437637
O	 1.025904921	 1.7494869323	-0.1751218884	-0.354917
C	-1.3454483208	 2.0737329119	 0.0194285817	-0.206666
N	-2.566554685	 1.2361167084	 0.1815835928	-0.346686
H	-3.2077303953	 1.2614657558	-0.6031873336	 0.234757
H	-1.236161331	-0.1535488107	 0.2338397914	 0.303132
C	-3.0070213201	 2.0226130672	 1.3744621067	-0.242224
C	-1.6476638516	 2.7277933581	 1.3824243616	 0.351493
C	-0.6987807725	 2.8988394048	 2.5296510183	-0.321196
C	-1.2988535198	 4.1057441659	 1.8451539603	-0.325358
H	-1.3589398093	 2.7761618235	-0.820599599	 0.102727
H	-3.8502258741	 2.6937267186	 1.1714972723	 0.109089
H	-3.2509264934	 1.397691794	 2.2398105132	 0.117511
H	-1.0535095468	 2.6400648237	 3.5221504223	 0.115632
H	 0.3489579569	 2.684661168	 2.3482080495	 0.148811
H	-0.6507662176	 4.7029845476	 1.2120182353	 0.129866
H	-2.0612523878	 4.672208145	 2.3710490395	 0.114916
62.1584	114.9004	139.5363	245.5966	300.4654	324.1548	396.7879	456.9989	562.4003	628.4947	715.4755	763.2567	781.9575	848.6038	864.3682	883.0301	921.4203	943.1029	967.1225	984.9875	1016.9982	1029.9719	1064.8364	1087.5973	1100.5672	1148.2104	1192.6618	1224.6335	1237.0683	1241.8991	1287.4685	1336.3389	1369.282	1394.2681	1434.6669	1459.1031	1502.9698	1516.2883	1861.4552	3023.4472	3055.1329	3072.6975	3124.8971	3130.5568	3207.271	3223.3924	3455.1969	3540.328
[O-]C(=O)C1[NH2+]CC11CC1	OC(=O)[C@H]1NCC21CC2	
InChI=1S/C6H9NO2/c8-5(9)4-6(1-2-6)3-7-4/h4,7H,1-3H2,(H,8,9)	InChI=1S/C6H9NO2/c8-5(9)4-6(1-2-6)3-7-4/h4,7H,1-3H2,(H,8,9)/t4-/m1/s1
