21
gdb 121587	4.18289	0.69102	0.60244	0.4126	83.13	-0.2249	-0.0545	0.1704	1890.529	0.18037	-420.442479	-420.431408	-420.430463	-420.480626	38.306	
C	 0.0955235672	 1.4923844666	-0.0044461425	-0.379322
C	-0.0332318452	-0.0249443707	 0.1454438201	-0.200161
C	-1.4678614551	-0.5099708194	-0.0569509353	-0.092097
N	-1.5530619199	-1.9487888341	 0.0792831337	-0.306141
C	-2.7275042362	-2.6208473412	 0.0873091671	 0.243353
N	-3.8638108085	-2.021332927	 0.0238079243	-0.536593
C	-2.5194204075	-4.1336251023	 0.1786777395	 0.359912
C	-3.7454541802	-5.0171453036	 0.2494058614	-0.500284
O	-1.3961742171	-4.5887738175	 0.1864405607	-0.311554
H	 1.1295208159	 1.8170083191	 0.1433372736	 0.116645
H	-0.2184031507	 1.8202611103	-1.0012249503	 0.120451
H	-0.5272170159	 2.0167016928	 0.7282154912	 0.121415
H	 0.6218121281	-0.5242072169	-0.5811998607	 0.100965
H	 0.3122798544	-0.3337839028	 1.1399405898	 0.106278
H	-2.140646825	-0.0474382486	 0.6757802002	 0.123583
H	-1.8405132491	-0.199386872	-1.0445721072	 0.10914
H	-0.7204602281	-2.5170718962	 0.0615879945	 0.255748
H	-4.6279762465	-2.690230498	 0.0633736358	 0.212553
H	-4.3649577501	-4.8900262383	-0.6446933193	 0.154255
H	-3.4280094192	-6.0569994348	 0.3271425641	 0.148384
H	-4.3632832713	-4.7547811853	 1.1145259393	 0.15347
21.8084	52.9828	79.5192	96.5494	151.4206	157.7121	228.9704	247.4884	306.6843	337.0726	415.174	456.9017	463.9547	523.5496	606.4629	702.3925	754.0697	806.5807	825.0121	895.1005	923.4556	965.6399	1039.1573	1040.0367	1079.8079	1149.7825	1181.348	1183.0241	1207.1802	1270.9739	1302.7314	1319.0168	1349.6376	1380.6562	1409.0809	1416.803	1466.5061	1471.2963	1493.0481	1499.053	1505.8868	1525.5486	1553.4568	1693.2079	1791.6798	2995.6556	3017.2179	3034.8843	3040.476	3043.4388	3060.4394	3102.1967	3106.3916	3109.4428	3158.4876	3526.9072	3630.446
CCCNC(=N)C(C)=O	CCCNC(=N)C(=O)C	
InChI=1S/C6H12N2O/c1-3-4-8-6(7)5(2)9/h3-4H2,1-2H3,(H2,7,8)	InChI=1S/C6H12N2O/c1-3-4-8-6(7)5(2)9/h3-4H2,1-2H3,(H2,7,8)
