23
gdb 80019	2.69037	1.58418	1.26012	0.2109	90.19	-0.2206	0.014	0.2345	1129.4381	0.205403	-351.126184	-351.117237	-351.116293	-351.158816	36.341	
C	-0.2621731988	 1.5095274576	 1.1294543046	-0.434765
C	-0.0838315749	 0.0589422672	 0.709283002	 0.057298
C	 0.9592753842	-0.3620745453	-0.3945384897	-0.12031
C	 2.2507976691	 0.1549975905	 0.2478271501	-0.090453
C	 2.1358721493	-0.2286883376	 1.5234765799	-0.090447
C	 0.7835776209	-0.9486092052	 1.5555998454	-0.12034
C	 0.8869745007	-1.8289740817	 0.2289473036	 0.355731
C	-0.3566624949	-2.6557286868	-0.131761763	-0.461087
C	 2.0932420112	-2.7574306001	 0.0583206482	-0.456823
H	 0.6877563548	 1.9952640862	 1.3615658391	 0.117466
H	-0.7518587367	 2.0804451112	 0.3321189597	 0.109067
H	-0.9043153388	 1.5741401967	 2.0154305532	 0.109061
H	-1.0712102619	-0.3517573733	 0.4967786027	 0.066781
H	 0.7896959036	-0.1779861864	-1.4571235603	 0.0482
H	 3.0510414879	 0.6859448836	-0.2480872558	 0.094455
H	 2.816759523	-0.09621404	 2.3523723481	 0.094454
H	 0.4331430955	-1.3682856727	 2.5004794857	 0.048203
H	-1.3046774162	-2.1233910814	-0.0562747842	 0.115574
H	-0.2708226199	-3.0281811527	-1.1592451488	 0.113921
H	-0.4214211344	-3.5344742983	 0.5204787399	 0.113913
H	 1.9909285349	-3.6335466412	 0.7093660036	 0.10689
H	 2.1420890645	-3.1280836917	-0.9722817582	 0.106886
H	 3.0412890471	-2.2730156285	 0.2891427344	 0.116327
135.5239	174.6246	210.2948	223.9065	249.5153	258.8213	336.5557	371.243	410.3856	510.1053	539.9349	568.4334	620.7681	739.3851	741.2617	764.6812	798.2595	864.8632	901.8365	915.7039	916.5731	939.4677	950.0532	980.5008	1012.5552	1045.2298	1057.1341	1105.9737	1108.294	1127.7177	1163.3055	1173.0518	1188.7012	1227.8669	1247.6585	1259.6115	1276.6707	1327.5145	1386.811	1402.1308	1409.5166	1428.5866	1483.4182	1485.4575	1492.5054	1503.2763	1506.6327	1513.9426	1618.3014	3025.6257	3029.6814	3032.9091	3077.3409	3083.9893	3084.4988	3090.0176	3095.1158	3100.9999	3125.5542	3139.1237	3144.7282	3215.13	3242.2434
CC1C2C=CC1C2(C)C	C[C@H]1[C@H]2C=C[C@@H]1C2(C)C	
InChI=1S/C9H14/c1-6-7-4-5-8(6)9(7,2)3/h4-8H,1-3H3	InChI=1S/C9H14/c1-6-7-4-5-8(6)9(7,2)3/h4-8H,1-3H3/t6-,7+,8-
