20
gdb 9405	4.39509	0.90746	0.78829	1.8012	73.14	-0.2522	-0.0218	0.2303	1472.0668	0.173655	-386.149829	-386.139763	-386.138818	-386.185644	34.297	
C	-0.0427187771	 1.4471708226	-0.0163233713	-0.385542
C	-0.0746743691	-0.0606901038	 0.1663420329	-0.028209
O	-1.4061044355	-0.5070508165	 0.0026837961	-0.253216
C	-1.5480180448	-1.9030582543	 0.1524015545	-0.048553
C	-3.0160260614	-2.2563031384	-0.0643393105	-0.100698
C	-3.5174616497	-1.8943667864	-1.4745965438	-0.401592
C	-3.2880053019	-3.7161946052	 0.2249546126	 0.153395
O	-2.4626115922	-4.5205757324	 0.5778670342	-0.247267
H	 0.9770523071	 1.82440439	 0.1047083654	 0.11601
H	-0.3979711962	 1.7205750121	-1.0140174876	 0.125129
H	-0.6842031309	 1.9369771225	 0.7218141022	 0.126111
H	 0.5835833142	-0.5546638548	-0.5682807711	 0.087418
H	 0.2975782719	-0.3384149721	 1.1668769033	 0.087988
H	-0.9190153793	-2.4420173474	-0.5753314501	 0.09486
H	-1.223985778	-2.2270207761	 1.1530217192	 0.100918
H	-3.6191073064	-1.6842592399	 0.6582809721	 0.107383
H	-4.5810592754	-2.1252415984	-1.5912430866	 0.1173
H	-3.3705520662	-0.8279012158	-1.6526872464	 0.146341
H	-2.9632975928	-2.4488573317	-2.2397293832	 0.124705
H	-4.3515088662	-4.0175686241	 0.0758792081	 0.077517
52.836	82.4362	106.6206	114.5237	145.6056	213.4934	227.639	249.31	295.8751	391.0728	441.8003	446.2881	675.2895	818.3071	821.731	901.3206	921.2479	926.3282	946.4996	1044.5223	1093.232	1145.3091	1154.9965	1165.1297	1177.4441	1197.8092	1265.2907	1297.9993	1304.0329	1327.7938	1388.8875	1399.8457	1407.0903	1427.925	1454.1723	1484.113	1491.4922	1499.376	1508.1234	1511.4392	1534.2976	1825.497	2858.6227	2954.8205	2972.1428	2981.4268	2994.6638	3011.8762	3038.9886	3044.8466	3103.5932	3119.7007	3120.9027	3140.1054
CCOCC(C)C=O	CCOC[C@@H](C)C=O	
InChI=1S/C6H12O2/c1-3-8-5-6(2)4-7/h4,6H,3,5H2,1-2H3	InChI=1S/C6H12O2/c1-3-8-5-6(2)4-7/h4,6H,3,5H2,1-2H3/t6-/m0/s1
