19
gdb 54000	3.4478	0.91412	0.76991	2.0743	84.79	-0.2247	-0.0494	0.1753	1497.8689	0.157593	-419.223603	-419.213769	-419.212825	-419.259437	35.577	
C	 0.0710479629	 1.4539784135	-0.0780851962	-0.473474
C	-0.0572964102	-0.0478316921	-0.0299555757	 0.367875
O	-0.1594193104	-0.6702034358	 1.0086609243	-0.320896
C	-0.0621769314	-0.7990670169	-1.345068432	 0.238006
N	-0.3223137464	-2.1420837647	-1.19368106	-0.558031
N	 0.1361006989	-0.1317802344	-2.4206857101	-0.276146
C	 0.1127951871	-0.7858963458	-3.6786528582	 0.047083
C	-0.1084996717	 0.0900813805	-4.8938322185	-0.269248
C	 1.2529575942	-0.4855302048	-4.6376133104	-0.26917
H	 0.9347267933	 1.7451075897	-0.6799822894	 0.153922
H	-0.8051780011	 1.8852808995	-0.5722595969	 0.151788
H	 0.1535599689	 1.8397647522	 0.9384548539	 0.132525
H	-0.2755586122	-2.4461155446	-0.2304607706	 0.26734
H	 0.0550186603	-2.7810849541	-1.873394332	 0.256589
H	-0.314047923	-1.7872406785	-3.7354315521	 0.076815
H	-0.7017768353	-0.3145510023	-5.7059844164	 0.113868
H	-0.2546212001	 1.1451190058	-4.6957066135	 0.124064
H	 2.0228241035	 0.1814505665	-4.2688434015	 0.123229
H	 1.6083374328	-1.2942685336	-5.2664737047	 0.113864
39.91	68.663	99.0822	132.2263	141.9128	287.1139	342.8238	361.6161	401.8837	420.9431	496.1537	554.5771	583.5472	622.7976	708.6664	771.9024	792.4482	816.4122	863.7952	922.0952	969.1328	980.4276	1040.3742	1052.0664	1071.2059	1118.6399	1121.0097	1190.4498	1199.0745	1200.6599	1227.3998	1364.2543	1393.023	1404.5006	1454.2575	1457.0954	1460.5319	1492.4007	1606.2191	1719.8146	1783.4934	3056.3721	3091.5927	3123.4472	3139.1371	3143.4363	3162.0882	3225.9295	3240.294	3564.6381	3693.7215
CC(=O)C(N)=NC1CC1	CC(=O)C(=NC1CC1)N	
InChI=1S/C6H10N2O/c1-4(9)6(7)8-5-2-3-5/h5H,2-3H2,1H3,(H2,7,8)	InChI=1S/C6H10N2O/c1-4(9)6(7)8-5-2-3-5/h5H,2-3H2,1H3,(H2,7,8)
