21
gdb 66239	2.54175	1.39696	1.23149	1.8708	77.57	-0.242	0.0865	0.3285	1142.2678	0.182528	-424.215143	-424.206348	-424.205404	-424.248861	33.518	
C	 0.2793030297	 1.751892187	 0.6406316939	-0.425967
C	 0.0887982806	 0.2612841549	 0.3502151255	 0.36279
C	 0.3913894068	-0.1269051073	-1.1219659965	-0.294544
C	 1.746372379	-0.8514133499	-1.0400357517	-0.218515
C	 1.6809054642	-1.4523475495	 0.3635841526	-0.075497
O	 1.0535048206	-0.4503727764	 1.1535799645	-0.299137
C	-1.2962658556	-0.1680194406	 0.8200843449	 0.062031
C	-2.5021635412	-0.1030804747	-0.0116727325	-0.19322
O	-1.8692630886	-1.3550600988	 0.2694443859	-0.238654
H	 1.2824861924	 2.0663988206	 0.3398073101	 0.119303
H	-0.4562083331	 2.3553377578	 0.0997076541	 0.113122
H	 0.1711660173	 1.9498360688	 1.7114817423	 0.123547
H	-0.373783518	-0.8164498998	-1.4868317882	 0.12584
H	 0.4130871187	 0.7466394317	-1.7772206967	 0.098808
H	 1.8787411887	-1.5996933922	-1.825483257	 0.10111
H	 2.5759634638	-0.1396167523	-1.1030570846	 0.104539
H	 1.0905818249	-2.3815395652	 0.365752227	 0.101696
H	 2.6591013373	-1.662597637	 0.8057636375	 0.10332
H	-1.4162021659	-0.0853457682	 1.9010486587	 0.099353
H	-3.4745568036	 0.0440021945	 0.4552272195	 0.117984
H	-2.4296885081	 0.2320013265	-1.0455970793	 0.112089
58.1291	93.7534	201.0296	231.8723	236.0554	263.1533	341.6819	357.9367	454.7271	547.1434	578.21	614.8832	745.8938	833.7321	859.9731	884.9199	900.521	908.9985	936.2015	946.574	1002.8508	1017.9093	1045.8746	1082.406	1098.173	1129.322	1158.0927	1172.1719	1176.5479	1213.6981	1239.7789	1245.1298	1280.8592	1303.7424	1337.9743	1349.4662	1387.7267	1404.0461	1423.857	1480.1057	1486.6695	1492.6787	1496.4904	1522.4402	1531.2984	2988.5261	3038.0773	3050.7727	3067.1226	3084.628	3085.882	3103.0307	3105.3563	3113.0835	3117.2769	3120.789	3171.3358
CC1(CCCO1)C1CO1	C[C@]1(CCCO1)[C@H]1CO1	
InChI=1S/C7H12O2/c1-7(6-5-8-6)3-2-4-9-7/h6H,2-5H2,1H3	InChI=1S/C7H12O2/c1-7(6-5-8-6)3-2-4-9-7/h6H,2-5H2,1H3/t6-,7+/m1/s1
