19
gdb 48985	3.17123	1.41784	1.25428	1.6395	74.78	-0.2512	-0.0283	0.2228	1048.3592	0.161277	-423.049074	-423.041589	-423.040645	-423.081114	29.48	
O	-0.0786887566	 0.0154823909	-0.0057246965	-0.248251
C	 0.0345846437	 1.2147783155	 0.0448490867	 0.059944
C	 1.3350266372	 1.958489854	 0.0231707652	 0.196011
C	 2.6272432787	 1.1155229782	-0.0340440357	-0.254993
C	 3.6981800769	 2.1622969846	-0.4824206021	-0.226798
C	 2.8547390517	 3.4429350821	-0.6352068016	 0.102401
C	 1.5257876798	 2.9159912871	-1.1914612713	-0.26941
O	 2.4887665457	 3.9077614913	 0.672149958	-0.275166
C	 1.4947505664	 2.9943302167	 1.1611001659	-0.109163
H	-0.8658966545	 1.8713082463	 0.1003814755	 0.072479
H	 2.8537568026	 0.6604536276	 0.9331136893	 0.109261
H	 2.5136350047	 0.3023851566	-0.7544305148	 0.117627
H	 4.4856592799	 2.3124446614	 0.2590874335	 0.11196
H	 4.1731988273	 1.8815498249	-1.4274492109	 0.101595
H	 3.3312045361	 4.2679738243	-1.1658254551	 0.079558
H	 1.6180472701	 2.3808496061	-2.1397005455	 0.112782
H	 0.7587689771	 3.6902155484	-1.2696003055	 0.110428
H	 0.5622195524	 3.5387826905	 1.3666524733	 0.099811
H	 1.8366700708	 2.5273851633	 2.0922472317	 0.109927
84.9097	163.0104	211.4481	288.4133	369.1341	409.078	438.4242	468.7038	586.4401	712.6974	780.6851	784.0588	816.4925	873.591	905.9873	920.0631	956.5606	970.3823	979.4426	998.969	1031.2482	1045.4143	1078.8735	1125.3522	1150.7561	1184.0839	1213.0862	1250.2786	1256.0225	1262.0695	1284.3232	1304.1877	1326.269	1347.432	1386.9086	1430.3797	1480.4091	1487.5683	1504.9493	1528.3141	1821.3206	2852.2007	3000.5569	3051.0784	3056.8293	3067.8749	3073.2646	3104.508	3117.7398	3122.1914	3128.2807
O=CC12CCC(C1)OC2	O=C[C@@]12CC[C@@H](C1)OC2	
InChI=1S/C7H10O2/c8-4-7-2-1-6(3-7)9-5-7/h4,6H,1-3,5H2	InChI=1S/C7H10O2/c8-4-7-2-1-6(3-7)9-5-7/h4,6H,1-3,5H2/t6-,7+/m0/s1
