21
gdb 59370	2.98617	1.12201	0.91866	0.8846	81.03	-0.2288	0.0165	0.2452	1346.0657	0.180803	-424.236764	-424.227117	-424.226172	-424.271359	36.158	
C	-0.0713513606	 1.5085226445	-0.1523652911	-0.410298
C	-0.0569497298	-0.0124392264	-0.0477461216	 0.12255
O	 0.7999442079	-0.4736867159	 0.9935254006	-0.433805
C	-1.4702684843	-0.5948602151	 0.1553500062	 0.061871
O	-2.3401734843	-0.1699538438	-0.894024187	-0.290223
C	-3.000813989	-1.2927224229	-1.496746481	 0.093
C	-2.818935853	-1.2481859633	-3.0131734245	-0.388785
C	-2.3862877498	-2.4892085601	-0.8181842271	-0.105259
C	-1.5248087327	-2.0970811573	 0.112086936	-0.096711
H	 0.9403383364	 1.8903249575	-0.314745134	 0.119052
H	-0.7146146131	 1.8272385802	-0.9758490268	 0.139929
H	-0.4647561953	 1.9548253172	 0.7708326673	 0.101777
H	 0.3538574314	-0.4426171027	-0.9683988857	 0.089826
H	 0.5778965483	 0.0171640974	 1.7925956156	 0.278279
H	-1.8484298307	-0.2105618212	 1.1225976192	 0.062467
H	-4.0793504554	-1.227536778	-1.2712925379	 0.079237
H	-1.7600913449	-1.333929326	-3.2740208059	 0.119612
H	-3.3661177413	-2.0680116109	-3.4905549895	 0.11136
H	-3.2016971244	-0.3038434522	-3.410558778	 0.124862
H	-2.6415620698	-3.5076130296	-1.0837082047	 0.103964
H	-0.9208779357	-2.7170810215	 0.7600662001	 0.117294
59.2789	82.2805	165.9226	217.9361	234.2979	257.0336	285.784	322.9539	335.3624	400.8683	461.114	472.7271	555.6579	711.3976	770.529	802.257	855.4354	872.005	897.767	924.5759	962.488	1013.7138	1019.017	1062.1031	1088.472	1107.5219	1114.9711	1131.8713	1135.9056	1164.0085	1255.924	1289.9641	1324.8611	1344.0242	1351.6893	1375.5217	1386.0552	1397.6857	1399.912	1415.0629	1485.7931	1490.9052	1494.0709	1496.2699	1689.7573	2909.4864	2947.9243	3021.3645	3036.8779	3050.4286	3099.5164	3110.5217	3120.7315	3134.704	3208.8388	3241.8213	3798.4321
CC(O)C1OC(C)C=C1	C[C@@H](O)[C@H]1O[C@@H](C)C=C1	
InChI=1S/C7H12O2/c1-5-3-4-7(9-5)6(2)8/h3-8H,1-2H3	InChI=1S/C7H12O2/c1-5-3-4-7(9-5)6(2)8/h3-8H,1-2H3/t5-,6+,7-/m0/s1
