18
gdb 37670	3.01319	2.41226	2.05259	1.5381	75.7	-0.233	0.0848	0.3178	776.7651	0.15271	-364.77269	-364.767405	-364.766461	-364.801904	24.285	
C	-0.0026828075	 1.5733159969	 0.1020035285	-0.237499
C	 1.4557006644	 1.9357425723	-0.1072399912	-0.059894
C	 2.1339649295	 0.8716093845	-0.9602111046	-0.079115
C	 2.5074544321	 1.0266071225	 0.4943213142	-0.016468
N	 2.1559897629	-0.1951226462	 1.228973283	-0.11482
C	 0.7478375217	-0.6288128829	 1.1729595341	-0.049603
C	 1.7726891172	-1.234207316	 0.2760336033	-0.056133
C	 1.2473719341	-0.3777609187	-0.9211338774	-0.094664
C	 0.0313467582	 0.0506557406	 0.0013487123	-0.056492
H	-0.3970154732	 1.9093332396	 1.0689852064	 0.100477
H	-0.6171921115	 2.0244802625	-0.6856285646	 0.096173
H	 1.7283865929	 2.9802900266	-0.2230937622	 0.079451
H	 2.8003535391	 1.0948463098	-1.7843772902	 0.082154
H	 3.4512087769	 1.4634113317	 0.7998743139	 0.09224
H	 0.2943844107	-0.9905743716	 2.0902703775	 0.085873
H	 2.2598660554	-2.2022785697	 0.2781385594	 0.08927
H	 1.0198079242	-0.8519113155	-1.8737100202	 0.067069
H	-0.9155534174	-0.4292828466	-0.2510144124	 0.071982
314.3986	436.5466	518.038	626.4098	665.0788	698.2336	739.0769	753.211	783.8949	810.575	818.5488	850.4416	863.6076	904.6277	922.4246	938.4303	962.5294	985.886	990.4507	1037.0313	1043.1796	1054.1405	1062.3088	1076.2986	1094.5257	1132.1564	1135.33	1189.9393	1207.8806	1228.6767	1237.7624	1260.2851	1286.2381	1299.7013	1320.4714	1354.6314	1364.4051	1399.3923	1488.4621	3025.0173	3063.8119	3098.2274	3136.4007	3154.6703	3157.3364	3172.6868	3181.6148	3186.7563
C1C2C3C2N2C4C2C3C14	C1[C@@H]2[C@H]3[C@@H]2N2[C@@H]4[C@H]2[C@H]3[C@H]14	
InChI=1S/C8H9N/c1-2-4-5-3(1)7-8(5)9(7)6(2)4/h2-8H,1H2	InChI=1S/C8H9N/c1-2-4-5-3(1)7-8(5)9(7)6(2)4/h2-8H,1H2/t2-,3+,4-,5+,6-,7+,8-,9?/m1/s1
