19
gdb 72502	2.54291	1.81356	1.48271	1.1074	69.78	-0.2428	0.057	0.2999	955.6744	0.161457	-460.163908	-460.156528	-460.155584	-460.195174	30.199	
O	-0.0240282769	 1.3766589577	-0.0474959959	-0.485535
C	 0.0146517955	-0.0320629004	 0.0137336847	 0.325848
C	 0.6039498217	-0.6154053272	 1.3214590384	-0.110192
O	-0.0742285552	-1.8566603308	 1.5413734789	-0.267072
C	-0.9918782781	-2.0508487085	 0.4589805011	 0.080115
C	-1.3941506043	-0.6290305142	 0.0585995269	-0.262199
C	-0.2732313598	-2.7354950494	-0.7139795735	-0.079365
O	 0.9072881515	-2.0340243479	-1.0792741149	-0.247742
C	 0.7359361383	-0.6334610376	-1.2100792167	-0.127404
H	 0.881154768	 1.7064377536	-0.072894127	 0.280923
H	 1.6838745317	-0.794769326	 1.2540321931	 0.099222
H	 0.4042866939	 0.0715555662	 2.1540538708	 0.099853
H	-1.8162200374	-2.6739391781	 0.8171409912	 0.082304
H	-1.9976780908	-0.1473819634	 0.8326034191	 0.112774
H	-1.91655329	-0.5663703311	-0.8991344849	 0.103724
H	 0.0575175155	-3.7372059918	-0.4273654084	 0.117244
H	-0.9655883904	-2.8259986084	-1.5684829967	 0.084949
H	 0.1731497403	-0.3737835324	-2.1213510444	 0.096089
H	 1.7464726165	-0.2173970103	-1.3040483918	 0.096465
188.0103	240.096	282.7518	288.6269	329.5775	394.7357	412.0242	451.768	489.3875	561.9362	617.8276	784.5592	827.7261	833.0695	913.7362	931.2155	943.0854	962.2415	984.8567	1004.3799	1052.2156	1066.9606	1103.553	1133.837	1163.822	1183.1957	1199.8815	1243.2313	1265.3342	1286.0626	1295.8878	1320.2045	1340.2061	1363.5549	1377.5069	1400.4692	1421.5032	1487.154	1487.993	1503.0115	1520.5974	2962.8866	2976.7212	3012.0585	3051.6581	3057.4031	3062.278	3077.859	3096.7011	3117.1817	3798.978
OC12COC(C1)COC2	O[C@@]12CO[C@@H](C1)COC2	
InChI=1S/C6H10O3/c7-6-1-5(9-4-6)2-8-3-6/h5,7H,1-4H2	InChI=1S/C6H10O3/c7-6-1-5(9-4-6)2-8-3-6/h5,7H,1-4H2/t5-,6-/m0/s1
