13
gdb 48106	2.84007	1.13303	1.02699	1.6705	66.69	-0.2589	-0.1088	0.1501	1169.4378	0.084969	-456.507013	-456.498297	-456.497353	-456.541475	30.116	
O	-0.7677867535	 1.2765383162	 1.1681693053	-0.218793
C	 0.1859323225	 0.8696593799	 0.5576815109	 0.084351
C	 1.1445368978	 1.7789436277	-0.218662509	 0.279096
O	 2.0904443888	 1.2889328088	-0.7858088152	-0.269127
C	 0.8090403721	 3.2389431456	-0.2231420663	-0.047533
O	 1.8405762644	 4.1310837843	-0.6143704361	-0.214754
C	 0.7481145554	 3.9903994095	-1.5166847154	-0.162901
C	 0.9887374874	 3.3760646805	-2.7911612833	 0.357148
C	 1.1523977091	 2.8994682366	-3.8815875212	-0.408425
H	 0.4679101784	-0.2018647098	 0.4963287384	 0.118301
H	 0.1599605379	 3.5759791113	 0.5817297941	 0.135271
H	 0.0686877149	 4.8425750872	-1.5320407779	 0.134405
H	 1.3136179646	 2.4684201724	-4.8392793942	 0.212961
40.2582	104.5856	130.9229	165.1332	219.1232	250.2032	288.0145	474.9858	527.441	548.8812	627.9636	643.3434	654.843	678.8496	774.1924	863.1731	904.7159	980.6784	1033.4921	1084.4871	1126.8655	1168.2143	1259.4568	1363.4088	1382.9982	1427.0039	1806.567	1819.5933	2244.9713	2935.5713	3114.0323	3152.2596	3500.7954
O=CC(=O)C1OC1C#C	O=CC(=O)[C@H]1O[C@H]1C#C	
InChI=1S/C6H4O3/c1-2-5-6(9-5)4(8)3-7/h1,3,5-6H	InChI=1S/C6H4O3/c1-2-5-6(9-5)4(8)3-7/h1,3,5-6H/t5-,6+/m0/s1
