17
gdb 107955	3.14806	1.51961	1.33929	1.9593	71.59	-0.2329	-0.0099	0.223	991.796	0.136035	-421.743192	-421.735916	-421.734972	-421.774919	29.087	
O	-0.0022313569	 1.4219884478	-0.0997233797	-0.414268
C	 0.0325745584	 0.0080991671	-0.04235146	-0.204603
C	-1.3513781215	-0.5498404616	 0.0985521827	 0.424319
O	-2.3021459033	-0.1893616658	-0.9746041447	-0.370114
C	-3.0809840101	-1.0010459923	-0.031643445	 0.0656
C	-1.9046035817	-2.0225258087	 0.1553499833	-0.150569
C	-1.9029806438	-2.4463065033	 1.609772123	-0.113501
C	-2.2462665167	-1.3408477236	 2.2805058624	-0.110429
C	-2.4422885205	-0.2908536252	 1.2077281737	-0.124906
H	-0.6754937874	 1.6517012382	-0.7515101557	 0.296506
H	 0.5062569507	-0.4283460129	-0.936509492	 0.100168
H	 0.6344315822	-0.2706514586	 0.8289111469	 0.122521
H	-4.131746204	-1.1850550634	-0.2679396145	 0.094754
H	-1.6643259331	-2.7137165411	-0.6507349948	 0.079566
H	-1.6688828043	-3.4314564786	 1.9881705589	 0.110319
H	-2.3614216942	-1.1960063668	 3.3455192362	 0.110907
H	-2.7244425038	 0.7331812488	 1.4427162592	 0.083731
90.5681	156.3264	229.2918	326.5949	414.48	451.8309	501.431	535.8405	639.4109	697.607	701.2738	745.9397	789.7969	837.2266	886.0445	917.0009	924.0249	947.0569	965.9224	979.6975	994.3034	1046.6222	1068.8144	1108.3719	1130.2558	1156.5432	1184.8782	1200.9804	1239.7496	1245.423	1275.8802	1335.7338	1351.381	1373.7017	1439.4238	1490.9923	1629.1494	2979.26	3079.5735	3092.4555	3142.4445	3152.608	3219.6512	3245.0316	3791.8281
OCC12OC3C1C=CC23	OC[C@@]12O[C@H]3[C@@H]1C=C[C@@H]23	
InChI=1S/C7H8O2/c8-3-7-4-1-2-5(7)6(4)9-7/h1-2,4-6,8H,3H2	InChI=1S/C7H8O2/c8-3-7-4-1-2-5(7)6(4)9-7/h1-2,4-6,8H,3H2/t4-,5+,6-,7+
