19
gdb 54260	2.60663	1.47436	1.22679	3.5704	71.22	-0.235	-0.0201	0.2149	1098.4813	0.156681	-460.187037	-460.17754	-460.176596	-460.222086	34.163	
C	 0.8264133186	 0.4196676605	 0.8254704585	-0.491726
C	-0.3567617596	 0.1861973387	-0.0889118284	 0.375443
O	-1.4470284732	 0.6637689816	 0.1068903189	-0.295806
C	-0.1063685718	-0.7395865901	-1.3142699031	 0.353282
C	-1.3519048468	-0.9204578534	-2.1655237252	-0.415327
O	 0.9740785685	-0.1825707563	-2.0490936171	-0.292793
C	 1.808925659	-1.2628751842	-2.4507830839	-0.109291
C	 1.6706232851	-2.2353460265	-1.2817194287	-0.09535
O	 0.3387692727	-2.0100003229	-0.8298483445	-0.303829
H	 1.1673946273	-0.5342385665	 1.2399311264	 0.150951
H	 1.6573754213	 0.8481173858	 0.2586711756	 0.149765
H	 0.5341301292	 1.0901568053	 1.6338595861	 0.138571
H	-1.7187677462	 0.0493865876	-2.5059253913	 0.136921
H	-1.1173134791	-1.5468396843	-3.0298622928	 0.11033
H	-2.1387052601	-1.401180184	-1.5812244336	 0.138385
H	 1.4544262563	-1.708480086	-3.3906619446	 0.108437
H	 2.821403572	-0.8802419477	-2.5957492146	 0.120762
H	 1.7717832569	-3.2855924727	-1.5693096835	 0.118214
H	 2.3941881698	-2.0120459049	-0.4857252142	 0.10306
32.5369	85.4032	136.5452	184.6606	208.3513	235.9142	263.5778	345.297	366.849	429.6699	523.8335	590.0848	636.9646	659.5053	775.0831	865.6563	880.4219	904.2577	954.63	965.6752	1026.5328	1061.2067	1071.1057	1121.7256	1133.6999	1154.4755	1222.5967	1226.1607	1245.8327	1286.4099	1368.0977	1370.3506	1384.6697	1406.4743	1467.473	1470.4195	1472.1862	1479.9451	1514.5043	1524.3269	1825.9583	3004.6535	3012.9994	3051.8622	3059.5127	3089.1903	3110.5171	3120.5659	3138.2541	3149.6765	3158.7978
CC(=O)C1(C)OCCO1	CC(=O)C1(C)OCCO1	
InChI=1S/C6H10O3/c1-5(7)6(2)8-3-4-9-6/h3-4H2,1-2H3	InChI=1S/C6H10O3/c1-5(7)6(2)8-3-4-9-6/h3-4H2,1-2H3
