20
gdb 96641	3.19378	1.10732	0.83971	1.1039	81.29	-0.2189	-0.0002	0.2187	1395.392	0.169459	-436.509319	-436.498895	-436.497951	-436.544907	37.468	
C	 0.0432216814	 0.889546752	-0.0261198473	-0.336458
N	-0.1441399752	-0.545089094	-0.0272265836	-0.329607
C	-1.3395637024	-0.9808092892	-0.1571770885	 0.468056
N	-2.4685412418	-0.2275527149	-0.3143907226	-0.57043
N	-1.5243583329	-2.4036049352	-0.2040980734	-0.185712
C	-0.2995222871	-3.2084701452	-0.2864398977	-0.340372
C	-2.7504758013	-3.0285997178	-0.0763370716	 0.434086
C	-2.7418438464	-4.5479862842	-0.0719741833	-0.495808
O	-3.8188536158	-2.4367776586	 0.0295335025	-0.386827
H	 1.1097226191	 1.115206235	 0.0538905344	 0.121219
H	-0.3318353468	 1.3683876262	-0.9451696596	 0.111801
H	-0.4548139833	 1.3852923561	 0.8254704448	 0.101678
H	-2.397808227	 0.7326218052	-0.0223490682	 0.251951
H	-3.3488987611	-0.7116058675	-0.1694259539	 0.284179
H	-0.0595756209	-3.6758927003	 0.6741770546	 0.129049
H	-0.4033787128	-3.9846255523	-1.0463563932	 0.124145
H	 0.5117169953	-2.5354348909	-0.5494746618	 0.178077
H	-2.0746204132	-4.9566835331	 0.6915403389	 0.143382
H	-3.7629253819	-4.8740273009	 0.1212073976	 0.149309
H	-2.4175756058	-4.9464522604	-1.0385530281	 0.148281
58.5645	82.645	114.5736	166.9675	177.6918	215.5768	230.9627	298.93	353.56	390.3077	413.5328	447.3006	463.4534	585.4888	591.6849	624.4232	682.1122	736.9539	767.8653	913.2211	1013.724	1039.1927	1052.1388	1115.5898	1122.1057	1154.5828	1159.8819	1210.0688	1239.6168	1362.1775	1379.6605	1403.2003	1438.6124	1448.499	1468.7786	1485.6372	1494.4957	1497.6131	1505.3047	1523.004	1607.5821	1721.6485	1750.5138	2947.07	2993.8847	3045.6315	3052.3337	3095.2011	3115.6109	3117.9873	3165.7005	3187.4712	3470.9695	3682.4582
CN=C(N)N(C)C(C)=O	CN=C(N)N(C)C(=O)C	
InChI=1S/C5H11N3O/c1-4(9)8(3)5(6)7-2/h1-3H3,(H2,6,7)	InChI=1S/C5H11N3O/c1-4(9)8(3)5(6)7-2/h1-3H3,(H2,6,7)
