16
gdb 126113	6.63615	0.66431	0.6084	2.9842	84.37	-0.246	-0.0277	0.2182	1792.1141	0.124174	-400.723389	-400.714838	-400.713893	-400.758354	30.15	
C	 0.0278468139	 1.5537626611	 0.0096091593	-0.366167
C	-0.0208302631	 0.0147529126	 0.0027116591	-0.331927
C	-1.3792536566	-0.5121617437	 0.0121280099	 0.264926
C	-2.5143246893	-0.9190026727	 0.0204342805	-0.107726
C	-3.8317512287	-1.4393917744	 0.030404606	 0.235663
N	-4.887222015	-0.6408010802	 0.0415374286	-0.204088
O	-5.9890310254	-1.4814547875	 0.0486378399	-0.157815
C	-5.575058772	-2.7573751217	 0.0411299916	 0.060333
C	-4.2230515164	-2.8161368733	 0.0289337214	-0.335622
H	 1.0656971365	 1.8988490939	 0.0020133658	 0.117871
H	-0.4795103129	 1.9622120422	-0.8681234071	 0.135411
H	-0.4637657273	 1.9538072501	 0.9000807101	 0.1354
H	 0.5074556201	-0.3686863364	-0.8798613213	 0.135873
H	 0.5229809317	-0.3770341616	 0.8720928997	 0.135873
H	-6.3533031222	-3.5047451293	 0.0455074867	 0.153185
H	-3.5846542934	-3.682531089	 0.0204103098	 0.128809
27.8553	71.3162	101.8509	186.8883	218.7611	319.0925	419.9318	472.6567	496.3278	571.0167	610.6183	727.8817	785.8691	803.2599	870.3311	879.0025	915.7261	951.4518	986.659	1052.1024	1080.5335	1103.0973	1105.7281	1155.8251	1283.6993	1307.5067	1349.0687	1406.4814	1411.8585	1471.1612	1483.1419	1495.0483	1505.784	1588.3855	2362.6668	3020.282	3047.6521	3048.3368	3122.7484	3128.9977	3263.7637	3295.7248
CCC#CC1=NOC=C1	CCC#Cc1nocc1	
InChI=1S/C7H7NO/c1-2-3-4-7-5-6-9-8-7/h5-6H,2H2,1H3	InChI=1S/C7H7NO/c1-2-3-4-7-5-6-9-8-7/h5-6H,2H2,1H3
