14
gdb 24411	3.8273	1.64582	1.15925	1.4377	68.91	-0.2076	-0.0147	0.193	966.7307	0.103952	-436.714866	-436.708349	-436.707405	-436.746405	24.653	
C	-0.0238301557	 1.4634047169	 0.1322051028	-0.178551
O	 1.2310366082	 2.0214045741	-0.3346886203	-0.24018
C	 2.2463015407	 1.2372745715	-0.7736744913	 0.123238
N	 2.3122641038	-0.0306090971	-0.8622676294	-0.357101
C	 1.1456488016	-0.6804340856	-0.4343594747	 0.215452
C	 0.0589930902	-0.0146199609	 0.0268186539	 0.274994
O	-0.9311048309	-0.8659480835	 0.3752395773	-0.191938
C	-0.4496425901	-2.1261468956	 0.1234052266	-0.015532
C	 0.8143144705	-2.075622447	-0.3724726825	-0.2924
H	-0.1755864999	 1.815940897	 1.1619858568	 0.132561
H	-0.8240102461	 1.896959933	-0.4838422384	 0.13255
H	 3.0800567006	 1.8670346834	-1.0712921319	 0.134184
H	-1.128637405	-2.9302131824	 0.3515260422	 0.140127
H	 1.4352994121	-2.9094585037	-0.6583692511	 0.122596
54.5212	205.9623	243.4292	402.8244	479.4015	540.776	613.5007	623.2704	714.7058	744.7483	747.999	840.1753	861.2495	909.6816	936.2557	942.8682	1042.499	1056.3778	1117.5021	1132.9812	1190.0485	1209.1281	1279.437	1304.7423	1390.8869	1422.0783	1476.3611	1527.6612	1534.3781	1659.1821	1672.8888	2994.0563	3015.6016	3186.4821	3263.6729	3292.3104
C1OC=NC2=C1OC=C2	C1OC=Nc2c1occ2	
InChI=1S/C6H5NO2/c1-2-9-6-3-8-4-7-5(1)6/h1-2,4H,3H2	InChI=1S/C6H5NO2/c1-2-9-6-3-8-4-7-5(1)6/h1-2,4H,3H2
