21
gdb 117545	2.05912	1.12769	0.76701	1.8879	81.93	-0.2578	0.0381	0.2959	1528.5889	0.177777	-424.183296	-424.172027	-424.171083	-424.220164	40.09	
C	-0.0432109006	 1.4818101565	 0.0309970471	-0.386183
C	-0.0305842804	-0.0280532479	 0.1936633754	-0.038499
O	-1.3140475187	-0.5221534047	-0.1601843295	-0.247337
C	-1.4542531993	-1.9282291069	-0.0665576919	-0.087109
C	-1.3756664972	-2.4034556981	 1.3201455499	 0.35332
C	-1.3040339902	-2.7613777729	 2.465287517	-0.462673
C	-2.8096085185	-2.295546999	-0.7220562336	 0.119112
C	-2.8772397233	-1.8257392609	-2.172030647	-0.41232
O	-3.0582843225	-3.6853609871	-0.598225232	-0.423065
H	 0.9342306308	 1.8986561276	 0.2916221188	 0.116489
H	-0.2745617231	 1.7587320724	-1.0016135952	 0.124005
H	-0.7970576503	 1.930785541	 0.6837347267	 0.130148
H	 0.7353982017	-0.4844982897	-0.4554375338	 0.084609
H	 0.2083616283	-0.3074620301	 1.2294233725	 0.106122
H	-0.6528280205	-2.4204760361	-0.6501779671	 0.076238
H	-1.2500469021	-3.0896760619	 3.4738963071	 0.197294
H	-3.5949858438	-1.8077209456	-0.1355483705	 0.108902
H	-3.8496972428	-2.0821190498	-2.6004193308	 0.122876
H	-2.7254332939	-0.7469175799	-2.2384880098	 0.139282
H	-2.0984851559	-2.3147054252	-2.7725353806	 0.100321
H	-2.4560351678	-4.1493365716	-1.1906551827	 0.278468
54.8554	71.3974	92.0857	136.4464	143.4508	216.4225	242.5619	260.4995	276.544	305.4041	337.7164	406.692	418.2306	462.9297	538.6961	627.2508	632.1028	666.2762	822.8649	864.6105	893.9516	917.057	1002.558	1041.2905	1066.3606	1113.2188	1127.4797	1143.6522	1167.2463	1188.5045	1257.1319	1296.9971	1321.341	1341.9333	1374.4054	1395.0323	1401.5192	1416.5404	1433.3557	1483.3657	1489.5061	1496.4805	1500.3552	1528.0998	2231.4455	2918.1084	2966.6335	3022.3268	3023.0491	3044.7117	3067.6514	3104.1669	3118.6823	3122.081	3143.1295	3502.8399	3795.761
CCOC(C#C)C(C)O	CCO[C@@H](C#C)[C@@H](C)O	
InChI=1S/C7H12O2/c1-4-7(6(3)8)9-5-2/h1,6-8H,5H2,2-3H3	InChI=1S/C7H12O2/c1-4-7(6(3)8)9-5-2/h1,6-8H,5H2,2-3H3/t6-,7+/m1/s1
