15
gdb 48315	2.17022	2.02583	1.21974	3.2469	70.83	-0.2681	-0.0694	0.1986	990.1655	0.11239	-416.72989	-416.722259	-416.721315	-416.762335	28.244	
O	-0.6977416381	 0.7238012724	 0.5111053896	-0.22911
C	 0.2091219822	 0.8909318974	-0.2577480216	 0.088559
C	 1.3489173848	 1.8867635376	-0.0208926781	 0.133058
C	 1.3963027176	 2.7614212586	-1.1897370822	 0.234989
N	 1.3649696889	 3.4295411387	-2.1331401509	-0.324061
C	 1.6117477556	 2.4792186811	 1.3896342903	-0.093387
C	 2.0800905206	 1.0561991435	 1.7632065121	-0.185507
N	 2.7274522975	 1.2440371871	 0.3693767904	-0.174603
C	 3.0658662807	 2.6586791119	 0.8984186476	-0.189072
H	 0.2842524839	 0.3425072899	-1.2193792579	 0.11954
H	 0.9689149517	 3.1694475507	 1.9400000408	 0.101403
H	 2.8284894729	 0.9723600571	 2.5524081986	 0.118857
H	 1.3471592892	 0.2542879961	 1.8236663178	 0.137152
H	 3.2753092626	 3.3869665126	 0.1135895346	 0.141903
H	 3.8550059498	 2.6411082252	 1.6518228789	 0.12028
81.9911	148.5686	168.1085	203.7609	283.9349	433.8796	514.6137	519.1101	548.0283	631.4274	699.6675	776.3084	784.6333	836.8119	900.6545	928.9352	996.8309	1023.5024	1058.1843	1070.5841	1083.3569	1154.4559	1167.1962	1197.2785	1200.9878	1221.4386	1239.9824	1276.459	1414.2649	1521.5741	1558.7217	1831.3628	2343.9212	2927.0914	3077.7888	3088.1213	3098.8961	3149.4756	3171.3855
O=CC1(C#N)C2CN1C2	O=C[C@@]1(C#N)[C@H]2CN1C2	
InChI=1S/C6H6N2O/c7-3-6(4-9)5-1-8(6)2-5/h4-5H,1-2H2	InChI=1S/C6H6N2O/c7-3-6(4-9)5-1-8(6)2-5/h4-5H,1-2H2/t6-/m0/s1
