18
gdb 40685	3.83047	0.97212	0.89112	2.6616	73.01	-0.2478	0.0549	0.3027	1330.5813	0.147172	-439.000071	-438.991785	-438.990841	-439.03395	30.304	
C	-0.0775660482	 1.5276257607	 0.0081866886	-0.184194
O	 1.1426836877	 0.7850171651	-0.0246877354	-0.237463
C	-0.0898159683	 0.0596320339	 0.0047354781	 0.109182
C	-0.354545987	-0.7314062691	 1.2421998465	-0.132324
N	-1.5295780009	-1.6314326529	 1.1836134487	-0.382073
C	-0.1976247094	-2.2014662363	 1.2793801147	 0.278789
C	 0.4165704344	-3.1851386768	 0.288276811	-0.133575
O	 0.9873027855	-3.9431568462	 1.3812518588	-0.273929
C	 0.3931504608	-3.0843999338	 2.3757008419	-0.146452
H	-0.2734108586	 2.0642004865	 0.9361032406	 0.112971
H	-0.3213982569	 2.0720153966	-0.9028233454	 0.1194
H	-0.3453857733	-0.4514999112	-0.9237696372	 0.100285
H	-0.1568867161	-0.1966299187	 2.1705823307	 0.091999
H	-2.0083567956	-1.6614359437	 2.0807675741	 0.236611
H	-0.3113019569	-3.7685914402	-0.2887742234	 0.111239
H	 1.1883709889	-2.7882900805	-0.3819960541	 0.116117
H	 1.1442649987	-2.6196747082	 3.0268852799	 0.111382
H	-0.3437690746	-3.6158831051	 2.994951222	 0.102036
52.8251	102.8768	129.6428	153.3298	308.6545	347.7414	366.4161	414.6696	494.4284	615.8027	802.6263	853.2355	859.2715	879.6315	924.6606	936.3074	959.0173	989.5488	1025.6153	1026.4477	1031.6627	1090.9158	1114.3698	1130.0172	1148.4204	1155.3352	1160.1241	1169.8919	1230.6014	1261.0605	1284.4107	1300.3544	1319.8511	1356.3029	1425.3175	1502.7553	1510.7604	1528.3708	1536.3061	2993.9188	3019.2798	3044.4132	3066.3345	3081.5192	3110.146	3120.2945	3169.068	3496.6207
C1OC1C1NC11COC1	C1O[C@H]1[C@H]1NC21COC2	
InChI=1S/C6H9NO2/c1-4(9-1)5-6(7-5)2-8-3-6/h4-5,7H,1-3H2	InChI=1S/C6H9NO2/c1-4(9-1)5-6(7-5)2-8-3-6/h4-5,7H,1-3H2/t4-,5-/m1/s1
