17
gdb 97189	2.69367	1.35182	0.9293	1.1877	73.7	-0.2575	-0.0219	0.2356	1226.4273	0.136706	-455.182301	-455.173826	-455.172881	-455.215893	30.789	
C	 0.0733303054	 1.4264785699	 0.1043973491	-0.348771
N	 0.060842947	-0.0255432399	 0.0206442613	-0.281862
C	-1.0499816912	-0.630058072	-0.0757572566	 0.389997
C	-1.0978587822	-2.1434090541	-0.1049091901	-0.168411
O	-2.1644457058	-2.6193738456	-0.9027566152	-0.234952
C	-3.4151922487	-2.1987221284	-0.4083891706	-0.193934
C	-3.5248327436	-0.6871296696	-0.2401860336	 0.384481
O	-4.5802673879	-0.0979362044	-0.1941553902	-0.341969
N	-2.3108964176	-0.0288411086	-0.1296649519	-0.382598
H	 1.1032187024	 1.7695877914	 0.2232405126	 0.135711
H	-0.3288812156	 1.8979635445	-0.804740636	 0.123741
H	-0.5025097352	 1.8063063214	 0.9625266375	 0.118353
H	-0.1664265187	-2.5143551633	-0.5314258675	 0.149545
H	-1.1859409072	-2.5240356983	 0.9275132544	 0.113043
H	-4.1806533407	-2.5140865741	-1.1195638302	 0.152688
H	-3.6435679841	-2.6640059534	 0.5664080904	 0.124414
H	-2.3821275463	 0.9776026245	-0.0612904633	 0.260524
79.4526	107.838	135.1234	201.0798	227.3428	313.6809	404.4371	453.6825	473.1634	526.5836	561.8057	626.365	661.091	695.0176	872.6489	927.1106	971.8837	1004.7055	1025.2298	1073.451	1104.5152	1154.5821	1169.4232	1228.7623	1296.8168	1306.9466	1353.5159	1362.6419	1393.8389	1415.6447	1437.1958	1466.3963	1482.185	1496.7866	1510.4702	1760.5179	1817.7711	2961.0412	2965.0874	2976.4492	3027.8596	3110.3254	3123.72	3143.643	3599.1459
CN=C1COCC(=O)N1	CN=C1COCC(=O)N1	
InChI=1S/C5H8N2O2/c1-6-4-2-9-3-5(8)7-4/h2-3H2,1H3,(H,6,7,8)	InChI=1S/C5H8N2O2/c1-6-4-2-9-3-5(8)7-4/h2-3H2,1H3,(H,6,7,8)
