14
gdb 11881	5.04651	1.56782	1.34463	4.4925	57.47	-0.2696	0.0061	0.2757	882.3741	0.107294	-419.697313	-419.690631	-419.689686	-419.728571	24.777	
O	 0.0477611836	-0.0018275287	 0.1882000348	-0.326786
C	-0.0372199265	 1.188118883	 0.1406395804	 0.438947
C	-1.2977133812	 2.0483910155	 0.0897308047	-0.454154
C	-0.7819489922	 3.4471412218	 0.3403319834	 0.387346
C	-1.5663927429	 4.6803704054	 0.3224708084	-0.250628
O	-1.1536626363	 4.0884783125	 1.5601322353	-0.258328
C	 0.7061480052	 3.3820066882	 0.0198270799	-0.140827
O	 1.062724903	 1.99616133	 0.1114378237	-0.219481
H	-1.7507475416	 1.9389911103	-0.9016188591	 0.148776
H	-2.0233080948	 1.7221609131	 0.8358466275	 0.161842
H	-1.0858110568	 5.626370614	 0.0736428304	 0.122134
H	-2.6344407765	 4.636622903	 0.1134621146	 0.12485
H	 0.930627801	 3.7361486197	-0.9931563773	 0.123319
H	 1.2953033463	 3.9495301522	 0.7435698533	 0.14299
71.6432	163.4094	277.4094	362.5127	371.7247	486.3805	528.2288	556.0296	691.9852	793.3554	827.2616	857.4641	896.0445	948.0061	972.2802	1067.6662	1070.9225	1125.6876	1141.2926	1164.8225	1184.952	1233.9568	1250.0099	1265.1496	1365.7372	1435.6993	1453.3217	1506.8039	1538.1116	1893.3044	3038.292	3061.8634	3079.9508	3113.5841	3135.8455	3165.9833
O=C1CC2(CO2)CO1	O=C1C[C@]2(CO2)CO1	
InChI=1S/C5H6O3/c6-4-1-5(2-7-4)3-8-5/h1-3H2	InChI=1S/C5H6O3/c6-4-1-5(2-7-4)3-8-5/h1-3H2/t5-/m1/s1
