17
gdb 89654	2.99901	1.29906	1.07668	2.3435	74.69	-0.2564	0.0046	0.261	1132.193	0.135798	-417.984132	-417.975574	-417.97463	-418.017172	32.244	
C	-0.0387795443	 1.5275362146	 0.0542888367	-0.515321
C	 0.1560111189	 0.0475977262	-0.0282403459	 0.235266
N	-0.721623723	-0.9130944936	 0.666185785	-0.413669
C	 0.7489442195	-0.9400957537	 0.9433974013	 0.193057
C	 1.362287222	-1.7819333038	-0.1776971709	-0.326461
C	 0.7191615827	-0.7768902162	-1.2102433089	 0.116408
O	-0.2148763585	-1.263131043	-2.1247282875	-0.431774
C	 1.2514903577	-0.7018934001	 2.2543825156	 0.174481
N	 1.6668752115	-0.5005488936	 3.3164961496	-0.345523
H	 0.8502956429	 2.0571990651	-0.3011340407	 0.140667
H	-0.8858644129	 1.8375777485	-0.5674290252	 0.145639
H	-0.2333240567	 1.845222369	 1.0839118928	 0.136825
H	-1.1818208035	-0.425735017	 1.4350330475	 0.247471
H	 2.453146017	-1.7650890402	-0.1889203283	 0.12714
H	 0.9990572841	-2.8101511582	-0.2295782559	 0.12029
H	 1.4785609616	-0.2330415402	-1.7762760996	 0.102305
H	-0.937267709	-1.6304096238	-1.5971479757	 0.2932
105.0442	122.752	182.7742	188.7845	262.6945	292.8946	377.7309	451.1724	480.1225	513.5785	557.8836	566.5962	644.1263	691.4622	733.0859	811.9251	854.8226	937.1586	976.6945	1035.5301	1060.003	1097.3653	1108.4425	1119.9046	1155.5831	1204.797	1235.6292	1286.0048	1331.1212	1341.3447	1404.8849	1430.4824	1449.6014	1478.5177	1482.4107	1495.3431	2342.6155	3033.2245	3077.9589	3095.1259	3101.3467	3109.668	3143.4228	3479.92	3756.8642
CC12NC1(CC2O)C#N	C[C@]12N[C@]1(C[C@H]2O)C#N	
InChI=1S/C6H8N2O/c1-5-4(9)2-6(5,3-7)8-5/h4,8-9H,2H2,1H3	InChI=1S/C6H8N2O/c1-5-4(9)2-6(5,3-7)8-5/h4,8-9H,2H2,1H3/t4-,5-,6-/m1/s1
