15
gdb 48060	2.0232	1.80152	1.04932	1.7189	73.8	-0.245	-0.0939	0.151	1107.0168	0.108819	-420.592931	-420.583883	-420.582939	-420.627934	32.288	
O	-0.6210808122	 1.1796005499	-0.9812781795	-0.211541
C	 0.103854259	 1.0070308123	-0.0415480424	 0.071934
C	 1.1715413563	 1.9940198409	 0.4557634366	 0.240272
O	 2.0426778314	 1.521181237	 1.1566540034	-0.301727
C	 1.165214694	 3.4293217431	 0.0371341312	 0.059406
C	 2.0070072346	 4.3477397152	 0.9437299919	-0.275321
C	 2.5661857663	 3.9563985977	-0.3679220621	-0.269093
C	 0.0222960184	 4.0101334669	-0.6084002218	 0.19311
C	-0.905313834	 4.5779228345	-1.1203946665	-0.396488
H	 0.139873883	 0.0633242876	 0.5433289902	 0.110644
H	 1.6191062417	 5.3505813669	 1.0698053568	 0.142269
H	 2.4080225429	 3.8672640074	 1.828299782	 0.150103
H	 3.349990227	 3.2083347253	-0.3848646138	 0.146565
H	 2.5710204008	 4.6745221836	-1.1782896264	 0.145456
H	-1.7371926593	 5.0406966619	-1.5906916097	 0.194413
20.3379	96.8403	142.3761	194.4334	214.3668	250.9726	290.9126	457.3654	506.8498	515.039	579.3906	595.9308	601.3842	668.2152	689.3728	791.2537	798.5016	869.7361	974.2609	978.5368	1025.1558	1068.3746	1104.6168	1150.874	1209.5582	1288.2735	1315.0521	1378.6082	1447.8812	1476.809	1764.7217	1835.1291	2239.8461	2919.2495	3150.0077	3151.0542	3243.4977	3257.6376	3503.6016
O=CC(=O)C1(CC1)C#C	O=CC(=O)C1(CC1)C#C	
InChI=1S/C7H6O2/c1-2-7(3-4-7)6(9)5-8/h1,5H,3-4H2	InChI=1S/C7H6O2/c1-2-7(3-4-7)6(9)5-8/h1,5H,3-4H2
