21
gdb 58591	2.4424	1.44218	1.26934	2.5154	73.72	-0.2456	0.0766	0.3222	1125.8959	0.18103	-461.372749	-461.363168	-461.362224	-461.406901	36.124	
C	 0.0378158308	 1.5313971133	-0.1425602392	-0.414983
C	-0.001253489	 0.0170864013	 0.0526900357	 0.104607
O	 0.6062371748	-0.3675715111	 1.2788525465	-0.438234
C	-1.4311258299	-0.5692413989	 0.0090518988	 0.443785
C	-1.4294939546	-2.0950523829	 0.0438421877	-0.417227
O	-2.1517543919	-0.0812142202	 1.1558076769	-0.319352
C	-3.2688581443	 0.6774971552	 0.707190538	-0.096385
C	-3.4430789583	 0.2162977548	-0.7402057361	-0.110547
O	-2.1107821413	-0.076143992	-1.1336004209	-0.292914
H	 1.0712911276	 1.8784287999	-0.0651580847	 0.11953
H	-0.3632417358	 1.8149022547	-1.1179204035	 0.125708
H	-0.5481844648	 2.0343163778	 0.6343369349	 0.111895
H	 0.5875828228	-0.4684069058	-0.7339132428	 0.090112
H	 0.0107403266	-0.0607393834	 1.9745791503	 0.285617
H	-0.886317496	-2.4453978441	 0.9229750625	 0.138526
H	-2.4535597762	-2.4749072704	 0.0814310887	 0.110296
H	-0.9395085237	-2.4863043073	-0.8520406463	 0.121539
H	-4.1306190762	 0.4538888567	 1.3430676621	 0.112843
H	-3.055032858	 1.7534715098	 0.760659408	 0.103662
H	-4.0826110101	-0.6759335287	-0.8032053729	 0.103666
H	-3.8405519223	 0.9857298713	-1.4059844136	 0.117856
76.0253	89.3368	184.3452	214.9939	233.3986	251.5639	265.8016	337.9048	358.133	419.5811	457.8482	470.4491	586.1386	643.7991	658.9531	778.5617	874.9166	891.1182	905.7044	943.2745	952.5661	1013.13	1066.9291	1067.8831	1098.8999	1111.3325	1133.7656	1155.4105	1190.2282	1228.7528	1242.9819	1272.2926	1294.8488	1364.8414	1376.4563	1386.5517	1394.4693	1400.0289	1426.7294	1478.196	1489.4615	1490.7032	1500.765	1515.6934	1525.0531	2999.395	3012.4275	3041.7046	3049.2705	3054.0102	3083.1007	3105.458	3113.7756	3125.7817	3135.797	3147.0586	3775.2645
CC(O)C1(C)OCCO1	C[C@@H](O)C1(C)OCCO1	
InChI=1S/C6H12O3/c1-5(7)6(2)8-3-4-9-6/h5,7H,3-4H2,1-2H3	InChI=1S/C6H12O3/c1-5(7)6(2)8-3-4-9-6/h5,7H,3-4H2,1-2H3/t5-/m1/s1
