13
gdb 132049	2.41211	1.86279	1.05794	3.2602	64.57	-0.258	-0.0664	0.1916	1029.4828	0.088205	-497.906609	-497.899012	-497.898067	-497.939057	27.398	
C	 0.0311199304	 1.521946275	 0.0115874739	-0.477917
C	-0.0127990008	 0.0271156957	 0.0160667459	 0.186584
C	-1.1562653669	-0.683332324	-0.1378209547	 0.068894
F	-2.3358650694	-0.092656628	-0.3058803524	-0.051382
C	-1.1863100703	-2.1339432027	-0.1317975667	 0.368071
O	-2.1264419675	-2.860468266	-0.2573181304	-0.323033
O	 0.0951262154	-2.6930865297	 0.0501925695	-0.19973
C	 1.1733772055	-1.9080958943	 0.1945049539	 0.136151
N	 1.198055056	-0.6314627384	 0.188953578	-0.320183
H	 0.6951361485	 1.8695215266	-0.786674173	 0.154242
H	-0.960216958	 1.9521183789	-0.1294956294	 0.147195
H	 0.4525328098	 1.881895563	 0.9559361852	 0.154243
H	 2.0773659573	-2.4946686462	 0.3242500003	 0.156865
110.4613	115.5679	174.2463	285.4774	307.4952	320.2047	496.5589	516.376	516.9385	556.6797	630.5969	681.8357	772.1042	871.6622	931.329	951.7083	1005.1307	1059.8222	1121.6152	1170.8535	1287.3331	1359.3532	1410.2165	1422.7783	1475.2258	1476.8328	1626.8296	1684.9163	1871.3284	3045.8163	3101.5667	3159.1018	3199.4785
CC1=C(F)C(=O)OC=N1	Cc1c(F)c(=O)ocn1	
InChI=1S/C5H4FNO2/c1-3-4(6)5(8)9-2-7-3/h2H,1H3	InChI=1S/C5H4FNO2/c1-3-4(6)5(8)9-2-7-3/h2H,1H3
