19
gdb 71646	3.19468	1.89128	1.64778	1.7238	76.7	-0.2323	0.0802	0.3126	898.6868	0.161275	-385.85636	-385.849741	-385.848797	-385.886802	28.457	
C	 0.0094878239	 1.5247298025	-0.047777553	-0.482506
C	-0.0057922446	 0.0191167879	 0.0500539464	 0.415165
C	-1.3566433161	-0.6842661352	-0.1249564118	-0.256103
C	-1.1143883032	-2.0444914196	 0.5134188391	-0.064886
C	 0.2737414024	-2.6567857606	 0.4060451069	-0.097038
C	-0.1764050058	-1.9289830221	 1.6790718055	-0.096095
C	 0.6952660572	-0.7228085621	 1.2588391983	-0.150446
C	 1.3079321182	-1.5442610289	 0.1138990399	 0.113016
O	 0.9275134096	-0.6005940831	-0.899602942	-0.344092
H	 1.0255976515	 1.908686776	 0.0785581982	 0.122135
H	-0.3572204916	 1.8514962662	-1.0266921428	 0.126408
H	-0.6316385686	 1.9656737703	 0.7229049601	 0.11566
H	-2.1587815078	-0.1565649895	 0.4063238176	 0.090704
H	-1.6152764791	-0.733349275	-1.1868443275	 0.108734
H	-1.9287672674	-2.7587051169	 0.5751582897	 0.084931
H	 0.4044108566	-3.717948188	 0.2313303245	 0.081773
H	-0.3482878148	-2.3068489056	 2.6777337581	 0.086463
H	 1.279641132	-0.1460473754	 1.9714237946	 0.071251
H	 2.3535237079	-1.852940921	 0.056749938	 0.074925
202.5996	250.4404	265.9987	379.9899	430.4881	519.2266	573.1923	674.3936	703.0686	736.0806	751.556	795.025	823.6417	867.6482	886.0927	910.5962	930.4125	943.2749	956.0573	968.5063	997.2615	1010.5467	1036.7768	1064.6934	1080.4138	1120.7173	1155.9104	1167.9448	1205.1813	1215.0082	1224.0755	1265.8521	1280.7738	1306.6281	1322.119	1345.9215	1407.093	1408.1856	1475.2969	1479.0759	1493.325	3026.6899	3034.4283	3089.1529	3092.1338	3102.9672	3114.2643	3145.6856	3167.8155	3181.4994	3205.958
CC12CC3C4C3C1C4O2	C[C@]12C[C@H]3[C@@H]4[C@H]3[C@H]1[C@@H]4O2	
InChI=1S/C8H10O/c1-8-2-3-4-5(3)7(9-8)6(4)8/h3-7H,2H2,1H3	InChI=1S/C8H10O/c1-8-2-3-4-5(3)7(9-8)6(4)8/h3-7H,2H2,1H3/t3-,4+,5-,6+,7-,8+/m1/s1
