18
gdb 22943	2.27627	1.20358	0.82675	1.1993	81.7	-0.2424	0.0042	0.2466	1370.9584	0.14514	-401.861256	-401.851824	-401.85088	-401.896252	34.56	
O	-0.0913764086	 1.3169643734	 0.0178584285	-0.393305
N	 0.0132334367	-0.0818639257	 0.1399239639	-0.22622
C	-1.1229032028	-0.630672045	 0.0426467383	 0.408771
C	-2.535493392	-0.1708715833	-0.2555868087	-0.317335
C	-2.8863247392	-1.6633089424	-0.5489470074	-0.253944
C	-1.4984919101	-2.1030624257	 0.0286565137	-0.059477
C	-0.6582443131	-3.0785196689	-0.8105348578	-0.367453
C	 0.5992177247	-3.4624225964	-0.1815658222	 0.315539
C	 1.6228989934	-3.7925633654	 0.3540961014	-0.446898
H	 0.8280791097	 1.5937705405	 0.0936971371	 0.30709
H	-3.0450055012	 0.2408342907	 0.6214116325	 0.126924
H	-2.6385524911	 0.5432496698	-1.076038988	 0.129196
H	-3.7654093691	-2.0678082569	-0.0449698322	 0.10753
H	-2.9683307648	-1.8682655927	-1.6196637896	 0.110546
H	-1.5982383055	-2.4957049151	 1.0467024316	 0.104813
H	-1.2595400513	-3.9785698708	-0.9970889229	 0.130149
H	-0.4607686875	-2.6287756632	-1.7917679261	 0.130009
H	 2.5346945719	-4.0714741527	 0.8207062779	 0.194065
47.3187	73.5073	138.4174	151.8791	212.6425	288.2768	342.1104	362.0994	412.0069	462.2286	502.626	570.7501	616.0629	636.8659	688.9855	762.2445	809.4422	882.1655	932.0016	956.2161	956.7761	992.9654	1042.6739	1079.3786	1108.4915	1166.0337	1200.282	1210.309	1236.2803	1262.4673	1274.753	1325.6382	1360.1454	1405.9398	1460.6213	1465.3054	1490.622	1781.9936	2241.2033	3014.729	3041.0345	3056.2268	3058.3405	3068.254	3106.2473	3128.4117	3508.3051	3817.7816
ON=C1CCC1CC#C	ON=C1CC[C@H]1CC#C	
InChI=1S/C7H9NO/c1-2-3-6-4-5-7(6)8-9/h1,6,9H,3-5H2	InChI=1S/C7H9NO/c1-2-3-6-4-5-7(6)8-9/h1,6,9H,3-5H2/t6-/m1/s1
