17
gdb 18327	3.22129	2.29692	1.5791	2.1817	67.06	-0.2157	-0.0241	0.1916	828.5659	0.144053	-363.86418	-363.857443	-363.856499	-363.895306	25.999	
O	-0.159092266	 0.2171340926	 0.5516990891	-0.311745
C	-0.1106093325	 1.3531779874	 0.1580205339	 0.391804
C	-1.3030921028	 2.2822812199	-0.1144926282	-0.338708
C	-0.690685383	 3.46248449	-0.8973544591	-0.183735
N	 0.7445562656	 3.5000803607	-0.5660523263	-0.088555
C	 1.1158598959	 4.0395749324	 0.7733154136	-0.169069
C	 1.8891853886	 2.7335581928	 1.0854534837	-0.24333
C	 1.1697367898	 2.1406251235	-0.1536800635	-0.092325
H	-2.0991266587	 1.7466921932	-0.6362733505	 0.132547
H	-1.7097219902	 2.5936701051	 0.855625746	 0.135009
H	-0.799367559	 3.301106768	-1.9763251859	 0.112279
H	-1.1518769652	 4.4258935815	-0.664657163	 0.1117
H	 1.6965662688	 4.965628084	 0.7272577884	 0.109523
H	 0.2580728455	 4.20203611	 1.4412106978	 0.093898
H	 2.9669908929	 2.819859815	 0.9424842386	 0.120529
H	 1.6912246061	 2.2470818781	 2.0415340404	 0.120335
H	 1.7812009843	 1.5849774959	-0.8733622552	 0.099843
79.3931	166.5466	224.3409	349.3842	438.3213	522.8633	598.0998	656.7872	690.5286	719.2957	793.1812	825.0098	907.7366	944.1623	953.8253	985.59	996.1663	1019.4362	1064.8642	1122.1149	1152.146	1182.0402	1190.7981	1206.2616	1226.0551	1249.5418	1259.9569	1283.5056	1304.2131	1325.8683	1354.2899	1448.6096	1489.5239	1499.7702	1523.206	1845.0605	3001.6257	3034.523	3044.7217	3045.3441	3071.4362	3086.1948	3095.3623	3113.6627	3140.6094
O=C1CCN2CCC12	O=C1CCN2CC[C@@H]12	
InChI=1S/C6H9NO/c8-6-2-4-7-3-1-5(6)7/h5H,1-4H2	InChI=1S/C6H9NO/c8-6-2-4-7-3-1-5(6)7/h5H,1-4H2/t5-/m0/s1
