22
gdb 109510	1.85417	1.44802	1.04379	0.998	90.31	-0.2195	0.036	0.2555	1306.7818	0.190317	-367.162448	-367.151688	-367.150744	-367.197739	39.977	
C	-0.1058083653	 1.5594283497	 0.1471775781	-0.374943
C	 0.1952035918	 0.0941338441	-0.159624262	-0.118621
N	 0.7196196264	-0.5665582514	 1.0346047729	-0.132231
C	-0.2133372083	-1.255081673	 1.9542636048	-0.267833
C	-1.6202485127	-1.3407368166	 1.6785400575	 0.355544
C	-2.8060925247	-1.3886737698	 1.4754087503	-0.464038
C	 0.7987947697	-2.0214278907	 1.1300256257	 0.305141
C	 0.3283894956	-2.9149776153	-0.0023068095	-0.460361
C	 2.046800657	-2.5201133776	 1.8347608086	-0.436785
H	 0.7840093533	 2.0637298689	 0.5341235784	 0.122275
H	-0.440533339	 2.0801309284	-0.7555351103	 0.108099
H	-0.8981373874	 1.6403164626	 0.8977374425	 0.125767
H	-0.7080038027	-0.3851399819	-0.5619024392	 0.09977
H	 0.9723806489	 0.0230522696	-0.9297654941	 0.099659
H	 0.0174611891	-1.0880566494	 3.0053095918	 0.105925
H	-3.8522885284	-1.4395326774	 1.3006588725	 0.19745
H	-0.6460665677	-2.6229577596	-0.3944067696	 0.135416
H	 1.0542788313	-2.9036839914	-0.8233175271	 0.119088
H	 0.2471801548	-3.9482348402	 0.3505372588	 0.122206
H	 1.8759835313	-3.5031222625	 2.2871880957	 0.115404
H	 2.8743797247	-2.6172346502	 1.1225340346	 0.117293
H	 2.3554013923	-1.8201153262	 2.6145790996	 0.125775
64.6372	135.1353	140.9546	164.2897	184.8896	193.2954	224.2362	266.0813	316.2071	349.0352	372.4883	403.7677	497.3207	544.5261	589.3541	612.0641	656.4263	694.4372	747.4157	811.942	850.7028	951.529	955.7728	986.8101	1016.7927	1047.4845	1084.1896	1110.5791	1139.3368	1171.0674	1179.9365	1272.4899	1308.4503	1335.3996	1378.6588	1396.3396	1403.6923	1412.904	1422.1722	1478.797	1483.5484	1488.1156	1491.9915	1501.1867	1506.5739	1508.7141	2224.3606	3003.2457	3028.62	3038.7846	3040.1232	3053.1678	3090.0757	3095.9191	3110.4659	3111.2622	3120.2019	3124.5123	3145.2623	3501.8197
CCN1C(C#C)C1(C)C	CCN1[C@@H](C#C)C1(C)C	
InChI=1S/C8H13N/c1-5-7-8(3,4)9(7)6-2/h1,7H,6H2,2-4H3	InChI=1S/C8H13N/c1-5-7-8(3,4)9(7)6-2/h1,7H,6H2,2-4H3/t7-,9?/m0/s1
