16
gdb 28943	2.95362	1.28685	1.02284	2.8015	76.01	-0.1999	0.0148	0.2147	1155.9807	0.125952	-396.965214	-396.956785	-396.95584	-396.999492	30.836	
N	 0.1304135523	 1.4020038529	-0.0649582625	-0.618368
C	-0.027553195	 0.0033628412	-0.0040175276	 0.275346
C	-1.1251604364	-0.826065938	-0.0205553702	-0.21992
C	-0.6468992923	-2.1685900497	-0.0160775709	-0.152179
C	 0.7226869385	-2.1231734734	 0.0127701649	-0.112961
N	 1.1019651891	-0.7948749476	-0.0002356307	-0.000903
C	 2.4538337923	-0.291802893	-0.0179542008	-0.303187
C	 2.968149015	 0.0450799379	 1.3214085932	 0.265728
N	 3.3599987867	 0.3253382678	 2.3712598111	-0.30113
H	 0.3147768908	 1.8173107851	 0.8445097391	 0.256937
H	-0.6973754789	 1.8421267208	-0.4466880515	 0.252332
H	-2.1548186117	-0.5024590364	-0.0281614261	 0.090665
H	-1.2466675668	-3.0655457256	-0.0240020881	 0.099736
H	 1.4642822765	-2.9047706354	 0.0489279325	 0.121062
H	 3.1113533334	-1.0364382674	-0.4752783188	 0.164096
H	 2.4809503164	 0.6148201507	-0.6309058338	 0.182746
22.683	84.2179	211.36	225.8081	283.0119	284.9863	369.8854	434.5515	504.8784	616.6328	637.4866	686.4935	690.5641	760.1357	781.8832	818.3586	837.8858	899.7098	918.4685	962.3274	1046.8694	1095.3779	1148.8593	1200.6809	1249.934	1289.9132	1332.1841	1379.8013	1418.6139	1443.7654	1482.2945	1521.6621	1603.8765	1657.1479	2362.1114	3060.2563	3108.4984	3241.8311	3253.6476	3271.2782	3488.1028	3598.6638
NC1=CC=CN1CC#N	Nc1cccn1CC#N	
InChI=1S/C6H7N3/c7-3-5-9-4-1-2-6(9)8/h1-2,4H,5,8H2	InChI=1S/C6H7N3/c7-3-5-9-4-1-2-6(9)8/h1-2,4H,5,8H2
