16
gdb 43418	2.34127	1.91881	1.13625	6.3568	73.27	-0.2251	-0.0413	0.1838	1026.4869	0.126315	-437.882243	-437.874838	-437.873894	-437.914222	28.508	
O	 0.0017753496	-0.0505486753	 0.2349673427	-0.348525
C	-0.0169133754	 1.1621815638	 0.1048911337	 0.326137
C	-1.2579671828	 1.8959323058	-0.1192625929	-0.199749
C	-1.4865491072	 3.2345801599	-0.1791329786	 0.013151
N	-0.6618650108	 4.2611566622	 0.1646059769	-0.279293
C	 0.4646410411	 4.0552383634	 1.0629475218	-0.225259
C	 1.5806089208	 3.2586166326	 0.4188892211	 0.054464
O	 2.0567528917	 2.1535034739	 1.1904884437	-0.242887
C	 1.3248670328	 1.8805547401	-0.0098024084	-0.048428
H	-2.1054819921	 1.2512306212	-0.3258631715	 0.104681
H	-2.4632951484	 3.567348522	-0.5226023773	 0.120801
H	-1.0767107345	 5.1774207961	 0.1686034715	 0.255894
H	 0.8237775202	 5.0336209003	 1.3912700122	 0.118272
H	 0.1372830341	 3.4909526904	 1.948390501	 0.137259
H	 2.3556450603	 3.8272139131	-0.0942315666	 0.097515
H	 1.9373971307	 1.4601425404	-0.8087699893	 0.115968
78.5216	209.65	231.7452	311.066	350.9248	381.5545	434.2653	477.0043	529.1774	626.3441	666.2875	769.677	812.4026	833.2171	873.211	926.407	933.0716	986.9142	1025.559	1042.4087	1109.167	1125.4571	1156.0744	1258.5933	1280.7806	1291.4663	1323.4988	1361.9327	1388.0825	1441.6499	1469.0766	1474.4389	1532.7721	1669.6355	1735.1103	3006.596	3097.0427	3102.2616	3120.2757	3158.0629	3192.0766	3652.4371
O=C1C=CNCC2OC12	O=C1C=CNC[C@H]2O[C@@H]12	
InChI=1S/C6H7NO2/c8-4-1-2-7-3-5-6(4)9-5/h1-2,5-7H,3H2	InChI=1S/C6H7NO2/c8-4-1-2-7-3-5-6(4)9-5/h1-2,5-7H,3H2/t5-,6+/m1/s1
