19
gdb 33506	2.66989	1.18841	0.92176	2.6847	80.24	-0.2672	0.0173	0.2845	1303.4986	0.159741	-382.044478	-382.035604	-382.03466	-382.078696	32.918	
N	-0.4168149907	-1.0876722979	 0.5564904336	-0.349277
C	-0.2905539409	 0.0436296733	 0.3488895508	 0.259853
C	-0.125088658	 1.4580762051	 0.08702957	 0.177931
C	-1.2738662981	 2.1436095112	-0.6394222806	-0.294342
C	-1.4705820091	 1.6323479288	-2.0502575449	 0.031928
C	-2.3417556281	 0.4300312906	-2.3218284372	-0.248896
C	-2.7987182001	 1.8045601055	-2.7415347734	-0.281949
C	 0.7390944289	 2.2018362605	 1.0569262556	-0.27252
N	 1.2311741655	 1.9163967907	-0.2927185427	-0.334548
H	-2.1943876851	 2.0139022725	-0.0573841183	 0.10931
H	-1.0489036575	 3.2159839532	-0.6559813303	 0.115039
H	-0.5875850426	 1.7361327795	-2.674441766	 0.096897
H	-2.0271760659	-0.2679868965	-3.0890898121	 0.117498
H	-2.8409428463	-0.037245021	-1.4797999142	 0.123486
H	-3.6070207876	 2.2628973239	-2.1804705193	 0.110736
H	-2.7989028982	 2.0512136631	-3.7973233321	 0.114215
H	 0.5086222353	 3.2453555512	 1.2515520635	 0.134028
H	 1.1515851771	 1.6532487646	 1.8981865598	 0.137983
H	 1.8877588515	 1.1399025116	-0.2744280324	 0.252629
58.7282	83.1553	135.1173	184.0611	240.1131	278.5991	336.4919	391.6753	425.4654	582.1592	592.9139	704.0342	771.3923	806.8149	826.6826	844.1381	900.6449	913.8081	935.4975	963.9617	987.4527	1017.3514	1061.7101	1083.5215	1088.2127	1134.0797	1143.8009	1158.4958	1197.9139	1225.6401	1242.526	1265.7248	1310.4749	1335.921	1369.6092	1416.894	1466.323	1475.0662	1505.282	1509.344	2346.4481	3030.8709	3075.3527	3116.6189	3130.5977	3140.2462	3150.7928	3208.9236	3210.0707	3227.0927	3510.3068
N#CC1(CC2CC2)CN1	N#C[C@@]1(CC2CC2)CN1	
InChI=1S/C7H10N2/c8-4-7(5-9-7)3-6-1-2-6/h6,9H,1-3,5H2	InChI=1S/C7H10N2/c8-4-7(5-9-7)3-6-1-2-6/h6,9H,1-3,5H2/t7-/m0/s1
