20
gdb 112273	2.25485	1.23387	0.93519	4.0175	77.01	-0.2445	-0.0276	0.217	1326.2967	0.169164	-440.274634	-440.265064	-440.26412	-440.309467	34.829	
C	-0.0962215179	 1.4822517601	-0.1654951515	-0.383966
C	-0.0423497203	-0.0202574887	 0.098336988	-0.129653
N	-1.3678684147	-0.6212373785	 0.083881799	-0.101452
C	-2.2712150395	-0.3478690555	 1.231261281	-0.297607
C	-2.6003852887	-1.8472186065	 1.2564345994	 0.404065
O	-3.3920668131	-2.5349198981	 1.8233129027	-0.285084
C	-1.469269302	-2.099548721	 0.2417249198	-0.120366
C	-1.8120306871	-2.8239135379	-1.0574619754	-0.070204
O	-2.8294320985	-2.1426020918	-1.7540963714	-0.420703
H	 0.9116083168	 1.9076403115	-0.1699998553	 0.120721
H	-0.5662375647	 1.6869416781	-1.1316981265	 0.126688
H	-0.6728720874	 2.0002693174	 0.6079991771	 0.123278
H	 0.5528401523	-0.5108266499	-0.6805712688	 0.111097
H	 0.4705129385	-0.2132721817	 1.0604919919	 0.082816
H	-1.7488737735	-0.0359996562	 2.1506329608	 0.120543
H	-3.0929912164	 0.3471916014	 1.0338830646	 0.13733
H	-0.5962355905	-2.5584883737	 0.7348368057	 0.090802
H	-0.89971964	-2.9305513484	-1.6691739214	 0.08782
H	-2.1753542679	-3.8307796832	-0.8248391741	 0.125595
H	-2.5934940855	-1.2060831772	-1.6788187556	 0.27828
80.7158	91.9483	109.688	151.8105	207.5443	214.7928	255.5644	368.4296	376.8461	446.1052	539.8449	541.2808	631.1854	662.873	745.5952	807.1018	810.771	943.9724	962.3129	986.697	1014.6199	1038.0253	1080.1311	1107.4277	1123.2854	1130.7608	1179.3114	1195.7293	1223.5287	1261.3084	1278.9366	1306.7534	1330.6051	1382.7117	1395.394	1416.4054	1442.4015	1469.3687	1489.2568	1493.9059	1501.4639	1512.7588	1923.2746	2918.9068	2954.5396	2975.5036	2982.4865	3040.0239	3052.4837	3073.8661	3078.964	3109.3178	3120.181	3715.8523
CCN1CC(=O)C1CO	CCN1CC(=O)[C@H]1CO	
InChI=1S/C6H11NO2/c1-2-7-3-6(9)5(7)4-8/h5,8H,2-4H2,1H3	InChI=1S/C6H11NO2/c1-2-7-3-6(9)5(7)4-8/h5,8H,2-4H2,1H3/t5-/m1/s1
