17
gdb 7809	3.34632	1.71934	1.19073	2.7646	64.85	-0.2384	0.0294	0.2677	977.3098	0.144301	-401.04659	-401.03902	-401.038076	-401.078472	28.652	
O	-0.0671232373	 1.447970968	 0.0095650347	-0.439587
C	 0.006844621	 0.0302502788	 0.0198764061	 0.122474
C	-1.4182781674	-0.5055472148	 0.0550507948	-0.197209
C	-1.4031507946	-2.0303885657	 0.1449915889	-0.168468
N	-0.5164875977	-2.6100103525	-0.8568693342	-0.30248
C	 0.5826253571	-2.0241031364	-1.4254354605	 0.381028
O	 1.3709388681	-2.6581408039	-2.1013817103	-0.373133
C	 0.7216909275	-0.5170098702	-1.2187867269	-0.333547
H	 0.828078306	 1.7949113295	-0.0626593983	 0.28375
H	 0.5346781455	-0.3153581036	 0.9256636171	 0.070873
H	-1.9561173221	-0.0903312633	 0.9118219021	 0.113919
H	-1.9386969632	-0.1808636614	-0.8532493148	 0.11509
H	-1.0919600815	-2.3361573224	 1.1557830219	 0.109812
H	-2.4127079349	-2.4257147637	-0.0091967334	 0.116681
H	-0.5535724855	-3.6093795794	-0.9997335555	 0.245513
H	 0.2979081624	-0.0256105269	-2.1038835877	 0.136427
H	 1.7924744166	-0.292978312	-1.2107929739	 0.118854
102.773	132.9285	231.3372	284.3716	318.266	408.1395	427.7216	481.2138	507.4355	553.7322	665.2498	674.5864	817.9215	856.646	915.9017	960.5743	978.0292	1073.5716	1094.9359	1103.6154	1125.109	1169.7437	1229.0784	1254.2648	1290.0273	1305.4336	1328.4374	1355.0348	1389.1073	1396.5441	1443.2759	1465.6729	1485.1201	1495.7904	1529.9637	1790.6971	2949.7748	2983.7231	3039.1294	3046.5104	3062.957	3095.1708	3102.8667	3603.9992	3814.2936
OC1CCNC(=O)C1	O[C@H]1CCNC(=O)C1	
InChI=1S/C5H9NO2/c7-4-1-2-6-5(8)3-4/h4,7H,1-3H2,(H,6,8)	InChI=1S/C5H9NO2/c7-4-1-2-6-5(8)3-4/h4,7H,1-3H2,(H,6,8)/t4-/m0/s1
