25
gdb 80905	2.30812	1.37434	1.29603	0.2085	93.7	-0.2731	0.0847	0.3578	1223.3527	0.227315	-352.315332	-352.304964	-352.30402	-352.350187	39.875	
C	-0.3669126287	 1.4688965401	 0.8944909334	-0.451504
C	-0.0762168959	 0.0272911226	 0.4918626526	 0.021132
C	 1.2211831492	-0.3784237656	-0.2812935225	-0.102582
C	 1.9882529123	-0.1693891416	 1.0560774704	-0.292608
C	 0.6975033285	-0.9642222679	 1.4368856617	 0.302342
C	 0.2791643859	-1.4298964103	 2.8082368097	-0.523854
C	 0.9616085589	-1.8692895015	 0.1593366322	 0.334334
C	-0.2080907854	-2.6478285463	-0.4630140647	-0.474913
C	 2.1481775518	-2.8446645893	 0.1874834357	-0.472541
H	 0.4827381265	 2.0026941979	 1.3255124906	 0.116281
H	-0.7036516881	 2.0408428593	 0.0222277359	 0.114669
H	-1.1797175616	 1.4979575157	 1.629599831	 0.113908
H	-0.9953822466	-0.3827458469	 0.0737562031	 0.054772
H	 1.5268612076	-0.0354065438	-1.2728728427	 0.05594
H	 2.9500235328	-0.6622232024	 1.1824522084	 0.087193
H	 2.0564160261	 0.8530300607	 1.4257666926	 0.086834
H	 0.1574644884	-0.5837630685	 3.4940816791	 0.117992
H	-0.6754469823	-1.9672058572	 2.7705551732	 0.115984
H	 1.0251823123	-2.1043369778	 3.2436079636	 0.117405
H	-1.1411992235	-2.0937759749	-0.5608778288	 0.116281
H	 0.0683307585	-2.9960545201	-1.4650069399	 0.11295
H	-0.4221344731	-3.5422397983	 0.1339038434	 0.112245
H	 1.8917059505	-3.7315011167	 0.7790560345	 0.111801
H	 2.3677604431	-3.1950229586	-0.8276923333	 0.11231
H	 3.0728926429	-2.4385615187	 0.5958784906	 0.113629
47.2786	159.6406	165.9919	169.9351	186.8196	198.3238	228.4816	272.5146	336.9565	423.4507	456.6663	468.0376	523.4126	566.3818	626.3724	681.2149	716.1161	788.3906	801.641	888.5923	923.5747	948.0601	953.569	1001.1255	1005.4209	1015.8928	1028.8771	1075.1315	1100.415	1105.306	1143.4316	1158.1903	1183.4717	1189.4677	1214.1846	1219.5169	1244.0639	1277.8114	1320.9048	1396.0249	1404.2358	1412.5737	1420.7961	1435.5703	1482.6631	1489.2857	1489.4702	1492.3533	1498.1168	1498.4172	1510.774	1515.0093	1557.3169	3021.6969	3026.9854	3030.115	3034.335	3075.4623	3076.7824	3082.0851	3082.7555	3087.6027	3088.6252	3091.9839	3105.4198	3119.8971	3138.6607	3142.0449	3158.2102
CC1C2CC1(C)C2(C)C	C[C@H]1[C@H]2C[C@]1(C)C2(C)C	
InChI=1S/C9H16/c1-6-7-5-9(6,4)8(7,2)3/h6-7H,5H2,1-4H3	InChI=1S/C9H16/c1-6-7-5-9(6,4)8(7,2)3/h6-7H,5H2,1-4H3/t6-,7+,9-/m0/s1
