13
gdb 25439	3.12796	1.47449	1.00211	6.1247	68.76	-0.2379	-0.069	0.1689	1072.3459	0.089653	-456.609846	-456.602595	-456.60165	-456.642112	26.321	
O	-0.2270914462	 0.0393551065	 0.0028940649	-0.240278
C	-0.0278284617	 1.2259643421	 0.0090533233	 0.101945
C	 1.294564457	 1.8944400987	-0.000386697	-0.046374
C	 1.2776801114	 3.2473198021	 0.0103116764	 0.044684
O	 2.3611106376	 4.0353241678	 0.0047279074	-0.186998
C	 3.5828162839	 3.4295384157	-0.0131206605	 0.060817
C	 3.7426752103	 2.101387602	-0.0252498171	-0.235911
C	 2.5949826894	 1.1760643101	-0.0202725005	 0.31376
O	 2.7241120419	-0.0319264132	-0.0314700822	-0.326949
H	-0.8774910008	 1.9511632759	 0.0232993505	 0.065192
H	 0.3640273564	 3.8332009184	 0.0247583364	 0.155613
H	 4.3760177842	 4.1655776991	-0.0158656358	 0.156436
H	 4.7379950866	 1.6746688347	-0.0392926157	 0.138063
71.4807	147.9077	199.6186	276.8828	403.3268	416.3061	457.6799	482.0099	554.1819	676.2105	718.6128	767.0455	865.8844	899.4263	933.837	973.0954	974.7642	1029.1601	1124.9007	1166.8584	1248.975	1344.1759	1394.1264	1413.1974	1456.638	1610.3396	1686.1182	1759.8824	1829.5441	2829.3987	3190.6097	3214.729	3236.35
O=CC1=COC=CC1=O	O=Cc1coccc1=O	
InChI=1S/C6H4O3/c7-3-5-4-9-2-1-6(5)8/h1-4H	InChI=1S/C6H4O3/c7-3-5-4-9-2-1-6(5)8/h1-4H
