22
gdb 12634	3.26684	1.73723	1.30647	0.2157	82.93	-0.2318	0.0272	0.259	1038.5739	0.200665	-313.090451	-313.081917	-313.080972	-313.122727	33.689	
C	-0.2683449904	 1.5697416755	-0.0400087573	-0.410484
C	 0.0492801034	 0.0712138854	-0.0057919465	-0.010216
C	 0.8787399111	-0.4299097438	-1.1709335973	-0.074722
C	 1.696659046	-1.413787819	-0.8057432917	-0.074719
C	 1.5564882569	-1.7418120785	 0.6671572452	-0.010216
C	 2.85278783	-2.1846807894	 1.3535370767	-0.410484
C	 0.8539198317	-0.4600986613	 1.2272232882	-0.013649
C	 1.8451972184	 0.5706736708	 1.7841027955	-0.391973
H	 0.6381878758	 2.1800229854	-0.087528025	 0.118803
H	-0.8729615456	 1.8085422783	-0.9216357483	 0.109166
H	-0.8386022404	 1.8786340995	 0.8426309774	 0.111083
H	-0.9161836194	-0.4609361218	-0.0262126795	 0.075859
H	 0.7601975482	-0.0452294805	-2.1789401921	 0.084309
H	 2.3575645493	-1.9667088683	-1.4657363671	 0.084309
H	 0.843794673	-2.5780201525	 0.7595947801	 0.075859
H	 3.6450447919	-1.4369367212	 1.2549934998	 0.118803
H	 2.6964914097	-2.3737416107	 2.4210052054	 0.111083
H	 3.2197096201	-3.1145492236	 0.9056909247	 0.109166
H	 0.1647135944	-0.7334056518	 2.0345114379	 0.059155
H	 2.5679682157	 0.8900481192	 1.0257531863	 0.118047
H	 1.3241413689	 1.4619669536	 2.1447613185	 0.110411
H	 2.4065206014	 0.1599709247	 2.6280320992	 0.110411
82.7701	233.2902	240.5223	264.5663	276.5321	279.9305	305.227	339.5151	414.8703	441.072	578.5536	640.8333	726.4136	753.3196	781.0682	810.4419	881.4898	933.1246	967.0625	974.5961	1024.3911	1025.1986	1052.488	1084.9223	1103.0859	1113.9616	1144.1343	1156.5111	1197.0399	1248.156	1297.2746	1302.5345	1332.7634	1356.1626	1370.2569	1383.2126	1404.2818	1410.1479	1412.6898	1490.4584	1494.552	1499.1154	1501.3996	1513.538	1517.1857	1682.071	2955.1487	2958.9199	3031.4427	3032.0816	3035.8586	3038.9888	3093.0549	3093.7418	3106.1062	3107.1616	3110.6331	3111.6943	3168.8936	3195.3063
CC1C=CC(C)C1C	C[C@H]1C=C[C@@H](C)[C@H]1C	
InChI=1S/C8H14/c1-6-4-5-7(2)8(6)3/h4-8H,1-3H3	InChI=1S/C8H14/c1-6-4-5-7(2)8(6)3/h4-8H,1-3H3/t6-,7+,8-
