18
gdb 54796	3.58475	1.3235	1.17907	10.0611	71.56	-0.1965	0.0344	0.2309	1073.5987	0.150774	-439.058326	-439.051078	-439.050134	-439.090433	28.305	
O	-0.0297884005	 0.2625593208	 0.9097242858	-0.500444
C	 0.0729593112	 1.208771703	 0.0904259279	 0.36362
O	 0.99445506	 1.6547501263	-0.587908494	-0.443537
C	-1.2831891449	 1.9925036783	-0.0759706515	-0.109911
C	-2.1427224693	 1.863351317	-1.3597909888	-0.020683
C	-2.4571575784	 0.4400893134	-0.8427659542	-0.195399
N	-2.4081446542	 1.1231375644	 0.5168365691	-0.045216
H	-2.0579297701	 0.5718550317	 1.3132645867	 0.286041
C	-3.6066205197	 2.0163214976	 0.5023883671	-0.195043
C	-3.4357023631	 2.6099532304	-0.9416818932	-0.234576
H	-1.237621266	 2.9799223256	 0.391245662	 0.109848
H	-1.727807868	 2.0461492101	-2.3453232351	 0.117525
H	-3.4247601107	-0.0152353229	-1.0649568093	 0.123282
H	-1.6372689	-0.2702418038	-0.8982833244	 0.195864
H	-4.5187139504	 1.4335048258	 0.6411530137	 0.142396
H	-3.519113425	 2.7540228508	 1.3002449333	 0.152115
H	-3.3018431501	 3.6931339528	-0.9193205482	 0.132245
H	-4.2909466606	 2.3788562087	-1.5816448168	 0.121873
72.6959	139.5249	212.4758	320.0997	329.5985	472.3786	496.6562	639.2112	664.6477	752.6633	813.0674	836.3551	843.5973	869.9231	875.4837	911.2495	930.3105	937.7756	965.5019	1022.2233	1058.6093	1065.4211	1083.3322	1157.8768	1168.907	1203.0967	1234.2486	1249.7412	1262.5481	1271.7719	1291.7144	1305.2844	1332.0491	1340.9069	1365.7593	1501.7515	1505.2228	1527.2605	1801.5169	3071.8409	3082.9758	3086.2092	3091.8006	3122.1591	3151.7784	3188.8411	3199.3909	3354.6261
[O-]C(=O)C1C2C[NH+]1CC2	[O]C(=O)[C@H]1[C@H]2C[N@@H]1CC2	
InChI=1S/C6H9NO2/c8-6(9)5-4-1-2-7(5)3-4/h4-5H,1-3H2,(H,8,9)	InChI=1S/C6H9NO2/c8-6(9)5-4-1-2-7(5)3-4/h4-5,7H,1-3H2/t4-,5-/m1/s1
