17
gdb 99569	2.26886	1.22169	0.83928	5.7829	73.38	-0.2583	0.0044	0.2627	1331.9103	0.136338	-414.194326	-414.184284	-414.18334	-414.229808	35.071	
N	-0.0244120994	 1.5110022268	 0.0110039794	-0.51852
C	 0.0210425992	 0.0549085735	-0.0067758837	-0.165586
C	-1.4175052928	-0.5129549791	 0.0211602118	-0.115396
C	-2.136145622	-0.0971173697	-1.1862003554	 0.283798
N	-2.6524416448	 0.2503483565	-2.159989686	-0.322323
C	-1.4237673332	-2.0624300624	 0.1606634474	-0.143186
N	-0.7183102166	-2.4513946142	 1.3811141053	-0.499776
C	-2.8018808421	-2.5945028185	 0.1049342029	 0.268549
N	-3.8666704398	-3.0435151637	 0.1326479239	-0.310242
H	 0.9033810975	 1.8863620524	 0.1735360819	 0.238246
H	-0.3334425639	 1.8699157138	-0.8876522252	 0.246292
H	 0.5484285668	-0.3841645693	-0.8708527216	 0.0975
H	 0.5248280729	-0.2986624696	 0.894593751	 0.139182
H	-1.9342134005	-0.076971465	 0.8843982366	 0.146963
H	-0.8738125435	-2.4787653596	-0.6908881062	 0.149796
H	-1.2807376981	-2.2223551116	 2.1964374313	 0.250131
H	-0.5823763697	-3.4572226203	 1.3965116068	 0.254571
52.4846	93.2959	115.0535	155.13	209.4312	231.885	248.8022	271.5601	304.9949	357.6162	416.1962	495.6533	544.3651	597.3114	623.4699	826.3852	844.9603	854.8869	932.1582	1003.432	1011.0706	1068.1133	1111.7768	1129.373	1177.4653	1187.6019	1262.0275	1322.0719	1335.2954	1359.3575	1394.6866	1413.8717	1511.3413	1662.3333	1663.5944	2350.0241	2358.4238	2954.7519	3048.5942	3063.5821	3116.6658	3497.5011	3503.1426	3578.7368	3584.8838
NCC(C#N)C(N)C#N	NC[C@@H](C#N)[C@@H](N)C#N	
InChI=1S/C5H8N4/c6-1-4(2-7)5(9)3-8/h4-5H,1,6,9H2	InChI=1S/C5H8N4/c6-1-4(2-7)5(9)3-8/h4-5H,1,6,9H2/t4-,5-/m0/s1
