15
gdb 18657	3.07254	2.68617	1.61834	3.5255	66.8	-0.2376	-0.003	0.2347	779.7952	0.120811	-362.6739	-362.667537	-362.666592	-362.704338	24.727	
O	-0.1373659533	 0.2349656361	 0.8045130232	-0.329344
C	-0.115008535	 1.2558446017	 0.1616761792	 0.362079
C	-1.3520084954	 1.9311278969	-0.4213770896	-0.350729
C	-1.3718843092	 3.3757645677	 0.0414776399	-0.076622
C	-0.2414385188	 4.0595072965	 0.2260991996	-0.06906
C	 1.064540033	 3.4143871095	-0.0549409584	-0.065488
C	 1.8050355849	 2.5988868313	 0.9752037545	-0.23797
N	 1.0694371039	 1.9603789846	-0.1042283333	-0.090989
H	-1.3336440506	 1.8780616518	-1.5182348886	 0.138743
H	-2.2302162252	 1.3801862216	-0.0803409074	 0.135124
H	-2.3380543619	 3.8324645142	 0.234852047	 0.106795
H	-0.2475895217	 5.0985102666	 0.5413209913	 0.103354
H	 1.6753922973	 3.8932463164	-0.8214807035	 0.108801
H	 2.8879185898	 2.5254646074	 0.9249305329	 0.127771
H	 1.3776996223	 2.5253704477	 1.9714002733	 0.137536
115.2754	213.8122	275.0919	414.8878	485.6234	490.4396	553.6799	658.5678	697.4529	727.2022	801.783	901.1814	932.1421	956.6917	962.2041	994.1103	1010.8497	1065.8996	1092.0357	1124.1576	1141.6871	1165.8609	1192.7176	1209.2808	1306.5516	1350.8631	1373.7193	1423.2596	1462.6719	1506.5105	1700.9166	1817.3794	3024.2549	3094.3596	3112.429	3117.9463	3164.9666	3186.4517	3205.1896
O=C1CC=CC2CN12	O=C1CC=C[C@H]2CN12	
InChI=1S/C6H7NO/c8-6-3-1-2-5-4-7(5)6/h1-2,5H,3-4H2	InChI=1S/C6H7NO/c8-6-3-1-2-5-4-7(5)6/h1-2,5H,3-4H2/t5-,7?/m0/s1
