21
gdb 119098	2.21479	1.11019	0.8762	1.7065	74.17	-0.2478	0.0681	0.3159	1395.6169	0.181515	-461.333908	-461.323952	-461.323008	-461.369507	36.11	
O	-3.1068563714	 0.8953818521	 2.0048258824	-0.416515
C	-2.6279961582	-0.4216084554	 1.7821577991	-0.068247
C	-1.7906293869	-0.523249183	 0.5032478576	-0.2639
C	-1.3964834228	-1.9419848516	 0.107045154	 0.389253
C	-0.4117375	-2.6023242537	 1.0755280383	-0.097383
O	 0.8156494462	-1.9023780357	 1.0839187266	-0.422678
C	-2.5133427945	-2.8780018857	-0.4175572705	-0.341715
C	-1.6932964932	-2.9068624909	-1.7209318081	-0.072329
O	-0.7545204919	-1.9326238546	-1.2107965715	-0.336078
H	-2.3416598766	 1.4684909043	 2.1180745781	 0.283134
H	-2.0571500445	-0.7845283015	 2.6502118521	 0.095806
H	-3.5242976909	-1.0476857645	 1.7031654911	 0.110293
H	-2.3577820974	-0.0757089123	-0.3196217017	 0.106331
H	-0.8687597289	 0.0595079228	 0.6220640763	 0.106857
H	-0.7956633688	-2.598781916	 2.1012749464	 0.11
H	-0.2719056864	-3.6541006565	 0.7773896175	 0.080821
H	 1.0723797791	-1.8308421725	 0.1549156561	 0.292386
H	-2.6234642383	-3.8292431055	 0.1070639246	 0.111029
H	-3.4909562629	-2.4016713468	-0.508446258	 0.116576
H	-1.208147088	-3.8641925837	-1.9471983851	 0.10557
H	-2.1989057936	-2.5457706892	-2.6229754954	 0.110787
69.9978	73.0068	91.1789	139.3036	179.3662	233.5759	301.8949	333.9543	347.3378	373.7595	437.6001	509.927	552.4816	731.3941	778.7878	789.8439	862.1601	904.9096	946.937	986.1749	1001.3311	1012.9221	1029.277	1064.4074	1074.461	1084.7592	1146.7288	1161.9259	1200.2115	1213.9468	1236.2993	1268.2552	1292.5547	1301.4008	1332.4809	1353.5108	1388.4973	1402.1273	1425.6769	1433.4694	1479.2409	1491.3365	1503.0476	1513.0247	1529.6362	2971.9718	2989.3959	3022.0485	3034.2064	3058.8533	3066.4558	3073.7147	3075.6158	3088.7101	3130.1469	3766.3588	3814.2144
OCCC1(CO)CCO1	OCC[C@@]1(CO)CCO1	
InChI=1S/C6H12O3/c7-3-1-6(5-8)2-4-9-6/h7-8H,1-5H2	InChI=1S/C6H12O3/c7-3-1-6(5-8)2-4-9-6/h7-8H,1-5H2/t6-/m0/s1
