22
gdb 58039	2.02173	1.21177	1.08353	2.9408	82.67	-0.231	0.0267	0.2577	1317.5421	0.192731	-400.518233	-400.507067	-400.506123	-400.555129	39.801	
C	-0.5594585035	 1.7359810372	-0.8313702968	-0.40972
C	-0.0629548744	 0.5296194853	-0.020200445	-0.000809
N	-1.1614105487	-0.2130273403	 0.622829302	-0.514964
C	 0.7853415101	-0.5177837521	-0.8053366687	-0.084717
C	 0.2217004704	-0.7647356055	-2.1591520403	 0.269189
N	-0.1764731699	-0.9497654388	-3.2295173308	-0.3476
N	 2.2243733751	-0.2640897801	-0.8274448248	-0.05737
C	 2.9774787822	-1.4622832627	-1.1883197033	-0.333443
C	 2.6558626267	 0.8914405079	-1.6065489544	-0.336779
H	 0.2481159134	 2.3204415387	-1.278758413	 0.122935
H	-1.2227554393	 1.412433386	-1.6401568077	 0.137908
H	-1.1270174791	 2.4043975774	-0.1757601049	 0.111417
H	 0.6028005313	 0.8710713577	 0.7798533553	 0.102842
H	-1.6810909072	 0.4193307218	 1.2257135768	 0.230109
H	-1.8258266258	-0.5110457436	-0.0899568434	 0.233033
H	 0.648264006	-1.4463310515	-0.2423977177	 0.139524
H	 2.8166398219	-1.7857478369	-2.2314655702	 0.118513
H	 4.0451465879	-1.266764751	-1.0541409968	 0.124349
H	 2.6975300676	-2.2878326596	-0.5269135859	 0.124712
H	 2.2472008435	 1.8125862441	-1.187638858	 0.127087
H	 3.7454401856	 0.9612896423	-1.5475067019	 0.12461
H	 2.3749927663	 0.8334149737	-2.6723886106	 0.119175
25.2274	67.9815	127.1694	172.8088	186.1571	222.4255	235.2699	245.1049	263.0786	316.4707	349.3248	369.5444	408.3211	442.8907	497.4634	614.8136	633.7188	826.6699	858.0202	882.6778	925.3933	968.1335	1029.8625	1055.1228	1071.501	1096.508	1122.1139	1162.8193	1187.6632	1198.4842	1249.1662	1294.7419	1298.1752	1361.5946	1381.899	1403.1164	1416.9174	1444.6128	1476.5604	1481.8922	1491.1994	1496.3817	1500.9205	1506.264	1517.4199	1660.4812	2333.8601	2957.6735	2965.0516	3040.151	3055.1643	3064.1441	3069.0409	3085.3352	3107.2136	3111.6054	3119.6448	3133.6242	3465.8756	3546.6746
CC(N)C(C#N)N(C)C	C[C@@H](N)[C@@H](C#N)N(C)C	
InChI=1S/C6H13N3/c1-5(8)6(4-7)9(2)3/h5-6H,8H2,1-3H3	InChI=1S/C6H13N3/c1-5(8)6(4-7)9(2)3/h5-6H,8H2,1-3H3/t5-,6-/m1/s1
