16
gdb 79219	2.61375	1.66597	1.31408	4.3569	73.25	-0.2547	-0.0056	0.2492	987.1739	0.126385	-396.876945	-396.869585	-396.868641	-396.908594	28.882	
N	-0.0700485225	 1.5431527184	 0.0514312141	-0.529619
C	-0.0598346889	 0.1172586295	-0.0823434046	 0.003145
C	-1.3692675426	-0.6371723871	-0.1728781749	-0.053675
C	-1.7575115492	-0.781223304	-1.6085262018	-0.047599
C	-0.7029618938	-0.1290366714	-2.4843612624	-0.290074
C	 0.2776295311	-0.6584772341	-1.4182462208	 0.197526
C	 1.6319640016	-1.016400835	-1.7395141629	 0.163689
N	 2.7349986723	-1.269144427	-1.9802652659	-0.334422
N	-0.7719725507	-1.7459681398	-1.0019966492	-0.174419
H	 0.8663004215	 1.9286504613	 0.1018465216	 0.243884
H	-0.5678509326	 2.0018171305	-0.7027165149	 0.236392
H	 0.5532518635	-0.3145190182	 0.713384394	 0.118205
H	-2.0571420971	-0.855469421	 0.6349948313	 0.111659
H	-2.7448551767	-1.1141727616	-1.9041949806	 0.114029
H	-0.5851097211	-0.6697949304	-3.4251686226	 0.138919
H	-0.7262556349	 0.9486342199	-2.6754506905	 0.102358
127.8136	161.8109	220.8548	296.0955	330.8187	431.9884	493.5413	541.1976	573.6751	613.1417	705.3455	765.476	783.4993	815.0952	835.6865	849.1242	953.2136	990.9952	1001.5452	1030.1421	1040.5182	1079.4503	1097.3552	1153.0395	1166.8777	1224.0612	1229.8469	1243.1283	1299.1175	1332.9171	1370.0809	1441.1016	1499.0819	1657.3159	2347.0201	3050.3297	3084.5287	3123.7467	3190.9632	3201.9983	3517.5797	3605.5264
NC1C2C3CC1(C#N)N23	N[C@H]1[C@H]2[C@H]3C[C@]1(C#N)N23	
InChI=1S/C6H7N3/c7-2-6-1-3-4(5(6)8)9(3)6/h3-5H,1,8H2	InChI=1S/C6H7N3/c7-2-6-1-3-4(5(6)8)9(3)6/h3-5H,1,8H2/t3-,4-,5+,6-,9?/m1/s1
