18
gdb 22615	2.28959	1.57092	1.03381	1.7072	76.24	-0.2469	0.0021	0.249	1173.0001	0.144832	-439.010832	-439.001633	-439.000688	-439.044454	34.214	
C	 0.0084588276	 1.6349433966	-0.0573402716	-0.407579
C	 0.0254667098	 0.1123423802	 0.0013292426	-0.117817
C	 0.719175687	-0.6525093102	-1.1543006731	-0.058746
O	 2.0906404901	-0.2567650483	-1.1533341898	-0.279382
C	 1.6854748111	-1.3102161747	-0.238926687	 0.325171
C	 2.4184792576	-2.6083461885	-0.26804484	-0.512163
C	 1.0419049076	-0.5946588536	 0.914797906	 0.390539
N	 1.2368762148	-0.7287410186	 2.1575497508	-0.266441
O	 0.3572106085	 0.0806172797	 2.9017287217	-0.389751
H	 0.9999111611	 2.0131210413	-0.3181115461	 0.135745
H	-0.7067736021	 1.9871286871	-0.8081645142	 0.113319
H	-0.2778075579	 2.0497234967	 0.9122609035	 0.13761
H	-0.974608355	-0.2894588888	 0.205065935	 0.099971
H	 0.2962373042	-1.0090617639	-2.0868338911	 0.107727
H	 2.5950612961	-2.9195470152	-1.3006238635	 0.134915
H	 3.3859115587	-2.5148528876	 0.2355522269	 0.143714
H	 1.8447352438	-3.3836202565	 0.2480882952	 0.135014
H	 0.6183300268	-0.1155459459	 3.8079442846	 0.308156
100.4942	154.8573	176.0312	193.3071	210.8991	221.6487	286.1158	330.8643	375.3453	443.6736	511.4266	563.8536	636.2281	665.967	743.2221	769.2264	824.2904	890.4486	960.9761	973.2231	986.3942	1045.4125	1067.7926	1085.4557	1102.2111	1145.0566	1207.7159	1248.3434	1271.797	1341.9432	1387.5823	1401.9615	1407.644	1466.0288	1480.5957	1490.9379	1492.8543	1504.9277	1789.3142	3041.6205	3044.0484	3045.0563	3110.0046	3113.6605	3128.8785	3133.2399	3184.4935	3816.9393
CC1C2OC2(C)C1=NO	C[C@H]1[C@H]2O[C@@]2(C)C1=NO	
InChI=1S/C6H9NO2/c1-3-4(7-8)6(2)5(3)9-6/h3,5,8H,1-2H3	InChI=1S/C6H9NO2/c1-3-4(7-8)6(2)5(3)9-6/h3,5,8H,1-2H3/t3-,5-,6+/m1/s1
