15
gdb 78446	3.2584	1.44631	1.25504	2.609	64.14	-0.25	-0.0121	0.2379	989.655	0.112458	-457.707527	-457.700539	-457.699595	-457.738778	27.759	
O	-0.0631147505	 1.356400896	-0.054440592	-0.430594
C	 0.0284012209	-0.0331554643	-0.023088034	 0.057092
C	-0.3996402258	-0.7368561302	 1.2525512554	-0.114367
C	-1.2980244347	-0.7345392082	 0.0106225443	-0.068807
C	-1.3149768908	-2.2385455418	-0.2803126638	-0.057742
O	-1.4529536519	-2.8392990754	 1.0594044784	-0.287984
C	-0.1371161234	-2.2411025754	 1.3586069934	-0.055133
C	 0.1591859751	-2.6787134895	-0.0983910519	 0.430982
O	 0.9824979246	-3.3006997583	-0.6906503606	-0.325387
H	 0.7230698804	 1.7187311522	 0.3681529983	 0.293604
H	 0.8413311273	-0.4535577918	-0.6162879071	 0.114629
H	-0.6322179479	-0.1473055919	 2.1304195884	 0.111549
H	-2.2035816382	-0.1447125606	-0.0487611266	 0.118727
H	-1.9969076896	-2.6481221968	-1.0215127429	 0.107603
H	 0.3470575646	-2.6563863339	 2.2392520305	 0.105828
138.4202	249.7707	264.6203	295.4613	333.9465	448.6068	453.9473	525.488	633.3663	695.7183	778.6222	837.6787	840.6064	855.2855	873.0526	896.3872	959.2362	980.3215	1014.5478	1046.2621	1058.7348	1094.9919	1149.6122	1155.8232	1158.6252	1224.3354	1229.9751	1268.4539	1274.9966	1302.6353	1322.6344	1459.4806	1918.2994	3091.6732	3161.0473	3164.2599	3194.8316	3204.6817	3806.9309
OC1C2C1C1OC2C1=O	O[C@H]1[C@H]2[C@@H]1[C@@H]1O[C@H]2C1=O	
InChI=1S/C6H6O3/c7-3-1-2(3)6-4(8)5(1)9-6/h1-3,5-7H	InChI=1S/C6H6O3/c7-3-1-2(3)6-4(8)5(1)9-6/h1-3,5-7H/t1-,2+,3+,5-,6+
