17
gdb 103115	2.82594	1.12193	1.01006	4.6285	70.08	-0.2516	0.0232	0.2748	1213.9784	0.135391	-455.12814	-455.118858	-455.117914	-455.162075	34.355	
N	-0.0951198889	 1.4330981782	 0.1006677837	-0.569835
C	-0.0128658231	-0.0017089333	-0.0232738015	 0.200795
C	 1.0766279032	-0.5461129159	-0.9251814358	-0.138695
O	 2.3369977631	 0.0236841215	-0.6047358219	-0.408754
C	-0.3890558233	-0.7118329644	 1.2559978048	 0.112106
O	-0.6984699294	 0.0436966924	 2.3578217161	-0.412571
C	-1.3411895031	-0.7599504382	 0.0415453723	-0.311875
C	-2.5682778151	-0.0240200797	 0.0575493899	 0.308074
N	-3.5529266381	 0.5842231409	 0.0536770523	-0.34198
H	 0.8382252896	 1.8201303804	-0.0060445512	 0.251897
H	-0.7004483064	 1.84509657	-0.6023990475	 0.255789
H	 1.1003346944	-1.6453468459	-0.8764449926	 0.096473
H	 0.879763027	-0.2633967159	-1.9655113593	 0.12227
H	 2.5986397993	-0.3016474642	 0.2639116937	 0.292984
H	 0.084997251	-1.6566617938	 1.5068335098	 0.113731
H	-0.6722282858	 0.9677867808	 2.0459180254	 0.298392
H	-1.3843635844	-1.6965568329	-0.5058864482	 0.131197
88.2388	122.8607	135.2433	190.9883	242.1934	287.8066	326.7237	347.3835	385.5357	403.661	439.739	578.9792	612.6735	655.975	663.9714	725.2809	831.4778	838.0832	901.3882	973.1525	984.3774	1031.4975	1065.8627	1101.3898	1130.1191	1205.1932	1219.6493	1261.133	1326.5531	1343.7658	1373.4434	1400.9517	1414.8303	1466.8875	1495.364	1647.8178	2350.246	2991.8498	3069.0687	3150.7781	3160.9596	3496.1289	3580.4025	3606.0868	3803.9687
NC1(CO)C(O)C1C#N	N[C@@]1(CO)[C@@H](O)[C@H]1C#N	
InChI=1S/C5H8N2O2/c6-1-3-4(9)5(3,7)2-8/h3-4,8-9H,2,7H2	InChI=1S/C5H8N2O2/c6-1-3-4(9)5(3,7)2-8/h3-4,8-9H,2,7H2/t3-,4+,5-/m1/s1
