17
gdb 99493	1.87505	1.32653	0.9763	5.4533	70.89	-0.26	-0.0093	0.2506	1287.4034	0.133977	-455.168111	-455.157808	-455.156864	-455.204537	34.499	
C	 0.2412953701	 1.3089405002	 1.0983535989	-0.335657
N	 0.2198980566	-0.1306601047	 1.2759104388	-0.298356
C	 0.7652281597	-0.9853904724	 0.382254357	 0.367043
O	 1.3568917517	-0.6852589905	-0.6336821583	-0.36067
C	 0.5544602979	-2.4837767018	 0.7648121665	-0.121555
O	 0.3488066325	-2.6968734745	 2.1462290404	-0.2414
C	 1.5608007831	-2.7385374126	 2.8891234282	-0.252102
C	-0.6209015039	-2.9979642445	 0.0487605111	 0.291194
N	-1.548580459	-3.387062195	-0.5179905367	-0.308533
H	 0.8150376378	 1.5207223203	 0.1953696996	 0.174443
H	-0.7719451825	 1.7068617214	 0.9788976909	 0.139375
H	 0.7160434	 1.8035673351	 1.9518398557	 0.131746
H	-0.2548681401	-0.5395391108	 2.0663476889	 0.265402
H	 1.4425710978	-3.0157730739	 0.3977660869	 0.144861
H	 1.2813864412	-2.916938698	 3.9287502511	 0.145753
H	 2.206689073	-3.5565063966	 2.5434340298	 0.13136
H	 2.1137696742	-1.7924062519	 2.8196935413	 0.127096
45.8165	88.7951	91.6538	115.2775	165.1714	171.6214	196.0874	244.605	328.9962	371.8268	431.6865	472.8677	559.4706	597.3492	675.0758	776.4034	868.8244	984.7972	1002.0486	1094.2609	1131.6232	1153.0961	1178.0743	1180.3098	1217.9047	1243.6037	1282.376	1344.2469	1443.7512	1477.2639	1488.8114	1493.5973	1498.752	1504.9629	1569.0416	1807.908	2367.7812	3003.0269	3028.8359	3036.1024	3063.357	3092.5073	3138.2365	3155.1866	3626.0076
CNC(=O)C(OC)C#N	CNC(=O)[C@@H](OC)C#N	
InChI=1S/C5H8N2O2/c1-7-5(8)4(3-6)9-2/h4H,1-2H3,(H,7,8)	InChI=1S/C5H8N2O2/c1-7-5(8)4(3-6)9-2/h4H,1-2H3,(H,7,8)/t4-/m0/s1
