15
gdb 6361	4.78884	1.0783	0.93586	2.6933	59.47	-0.2478	-0.0311	0.2167	1185.2294	0.116778	-436.978299	-436.969495	-436.968551	-437.012638	30.7	
N	 0.3326727945	 0.6033292854	-0.3163225702	-0.507977
C	-0.6605503376	 0.3850075633	 0.5853642005	 0.385402
O	-0.7723329486	 0.971954292	 1.6420848401	-0.353115
C	-1.7172175978	-0.6408559988	 0.1328142589	-0.413865
C	-1.1703215651	-1.9401480597	-0.4461302627	 0.37723
O	-0.2897188577	-1.9706295027	-1.274972251	-0.298644
C	-1.8222342767	-3.2025816478	 0.0926888515	-0.167539
O	-1.3048300377	-4.3276645639	-0.558636594	-0.393258
H	 1.0997115579	 1.1857262025	-0.0196207164	 0.25872
H	 0.4803052359	-0.0783333534	-1.0490062682	 0.277636
H	-2.3779241748	-0.8196930822	 0.9825092988	 0.135271
H	-2.3138722557	-0.1716218739	-0.6605781362	 0.161889
H	-1.6413817518	-3.2098420315	 1.1830266036	 0.124163
H	-2.9140584304	-3.0901712419	-0.0345920444	 0.116577
H	-1.7170447943	-5.1101544074	-0.1811634904	 0.297509
41.9623	72.4563	125.0732	193.6959	227.1141	285.7591	362.2611	388.3763	470.8146	489.6982	550.494	577.2661	673.5734	729.923	820.731	850.7884	926.2081	1017.4353	1056.9829	1137.6783	1153.2557	1184.9386	1234.0604	1259.8649	1309.7957	1354.5602	1441.0799	1449.5665	1489.1974	1618.6279	1809.5639	1812.9729	2945.7203	2966.4144	3040.2094	3126.9263	3536.9552	3689.868	3837.529
NC(=O)CC(=O)CO	NC(=O)CC(=O)CO	
InChI=1S/C4H7NO3/c5-4(8)1-3(7)2-6/h6H,1-2H2,(H2,5,8)	InChI=1S/C4H7NO3/c5-4(8)1-3(7)2-6/h6H,1-2H2,(H2,5,8)
