17
gdb 47682	2.17388	1.69292	0.99861	1.4428	72.39	-0.2517	-0.0255	0.2262	1144.3924	0.138224	-455.178946	-455.170977	-455.170033	-455.212117	29.778	
N	-0.0904095872	 1.1681359282	-0.8223325353	-0.486965
C	-0.0557096258	 0.0815403715	-0.1568272367	 0.359638
C	-1.3563164095	-0.6290217771	 0.1251018605	-0.238225
C	-1.5770820265	-1.1232825833	 1.5531545776	-0.101812
O	-0.7603752417	-2.2377190432	 1.8568112685	-0.229187
C	 0.5412829207	-1.9261350802	 2.2703044541	-0.187429
C	 1.5418282789	-1.397112154	 1.239345997	 0.365278
O	 2.7190894651	-1.6657645558	 1.3629854498	-0.33798
N	 1.1533698814	-0.5280685343	 0.2277539026	-0.372132
H	 0.8458607756	 1.5457628429	-0.9869489962	 0.209628
H	-2.1495518843	 0.0640582938	-0.1618705431	 0.137336
H	-1.4175350271	-1.5040858312	-0.5342480264	 0.135381
H	-1.4211104481	-0.3156759739	 2.2855234508	 0.101746
H	-2.6102315071	-1.4689320164	 1.6517636242	 0.121607
H	 0.5300076681	-1.1868359228	 3.0911595357	 0.120982
H	 0.9869083772	-2.8434491073	 2.658465179	 0.150194
H	 1.9755563103	-0.160789797	-0.237994662	 0.251942
59.4378	107.8781	155.6496	283.8477	344.325	364.8564	441.0057	476.0108	527.3775	551.9377	610.4069	650.9725	713.1039	818.6877	881.3324	890.9585	904.1625	993.9422	1015.8434	1044.8391	1096.3319	1151.1937	1176.1419	1231.3224	1279.0796	1321.1325	1346.3662	1366.6025	1380.028	1395.9002	1418.052	1443.3913	1457.1879	1464.1283	1500.9649	1714.3808	1781.2478	2956.0502	2988.0629	3039.5292	3086.3356	3121.8335	3125.1465	3438.4013	3557.8556
N=C1CCOCC(=O)N1	[NH][C]1CCOCC(=O)N1	
InChI=1S/C5H8N2O2/c6-4-1-2-9-3-5(8)7-4/h1-3H2,(H2,6,7,8)	InChI=1S/C5H8N2O2/c6-4-1-2-9-3-5(8)7-4/h1-3H2,(H2,6,7,8)
