16
gdb 123344	7.21339	0.73514	0.68403	2.4975	76.4	-0.2601	0.0063	0.2664	1563.1765	0.125613	-396.926295	-396.917919	-396.916975	-396.960774	29.916	
C	 0.0100353898	-1.2274816156	-0.0196656285	-0.434714
C	-0.0333694626	-0.0264103358	-0.013069062	 0.291652
C	-0.0500294308	 1.4300190356	-0.0005245318	-0.34523
C	 1.3734115612	 2.0315513643	 0.0396878461	-0.323141
C	 1.3442933621	 3.5253099024	-0.0045974866	 0.392899
N	 0.5803221464	 4.2772338726	-0.7808781704	-0.312994
C	 0.9503679867	 5.5446244152	-0.4471155373	 0.025007
N	 1.8876463396	 5.6339429784	 0.4805063621	-0.213335
N	 2.1249561495	 4.3268119842	 0.7529213297	-0.251606
H	 0.0295485693	-2.2890240544	-0.030546935	 0.197083
H	-0.5642804703	 1.8164536885	-0.8866061766	 0.165362
H	-0.6213235801	 1.7900577728	 0.8634662792	 0.138693
H	 1.8976552911	 1.6920150143	 0.9389437336	 0.11802
H	 1.941111838	 1.6506580217	-0.8169975319	 0.146779
H	 0.5158719164	 6.4237372832	-0.8990263269	 0.127267
H	 2.8137817338	 4.0773294227	 1.4439227363	 0.278257
36.3141	62.4614	102.0107	195.7661	299.3008	354.9752	374.5498	486.1107	562.3749	621.7211	650.29	698.5791	704.3013	766.5552	785.6387	912.8875	965.3943	981.5529	1026.2021	1028.298	1052.0675	1130.3436	1175.4882	1213.8897	1252.0859	1297.7011	1309.24	1323.5637	1382.246	1420.104	1472.1532	1482.8729	1504.3896	1586.1145	2241.0058	3036.4175	3046.9611	3073.5103	3093.875	3261.9317	3506.6823	3659.7032
C#CCCC1=NC=NN1	C#CCCc1ncn[nH]1	
InChI=1S/C6H7N3/c1-2-3-4-6-7-5-8-9-6/h1,5H,3-4H2,(H,7,8,9)	InChI=1S/C6H7N3/c1-2-3-4-6-7-5-8-9-6/h1,5H,3-4H2,(H,7,8,9)
