18
gdb 35427	3.4108	1.39221	1.31899	0.265	76.95	-0.2152	0.0331	0.2483	1027.6148	0.148812	-401.863811	-401.856307	-401.855363	-401.895707	30.049	
C	 0.6203915279	-0.9350545258	 0.6742154971	-0.48171
C	 0.2586832092	 0.1437483103	 0.284843884	 0.359902
C	-0.2133562339	 1.4484012427	-0.1861828615	-0.084852
C	-1.0807515483	 2.1895024381	 0.9050182818	-0.207457
N	-0.3640477765	 3.2798426858	 1.5758990676	-0.117509
C	 0.1220860248	 4.2304107723	 0.5049126847	-0.181884
C	 1.2984202737	 3.2674189212	 0.2607961919	 0.116148
C	 1.0804892793	 2.8554378994	 1.7330701121	-0.215589
O	 0.8950022095	 2.2438856805	-0.6409316717	-0.271675
H	 0.9472804401	-1.8880103678	 1.0105943646	 0.200791
H	-0.833515251	 1.2788271979	-1.0736289709	 0.116139
H	-1.9748585553	 2.6126270282	 0.4373607655	 0.112819
H	-1.406245217	 1.4586997948	 1.6502846323	 0.124384
H	-0.568427344	 4.399905741	-0.3257309041	 0.104737
H	 0.4092489311	 5.1836065437	 0.9584998091	 0.106845
H	 2.2671741614	 3.625873777	-0.0954219179	 0.079944
H	 1.5853710194	 3.5204588551	 2.4388229363	 0.110308
H	 1.2441865995	 1.8147455757	 2.0176597293	 0.128658
82.8711	152.1556	240.3635	328.7305	394.1276	447.1212	461.3354	507.1991	565.9222	615.3253	662.8681	708.5695	778.2011	801.8795	828.0301	872.9842	908.3742	935.3786	968.0027	973.7014	1002.81	1026.1006	1065.4833	1110.3402	1132.5271	1170.3773	1241.8365	1255.4118	1260.3225	1288.4562	1290.5171	1304.1125	1350.0541	1355.4644	1384.7464	1483.6834	1492.0506	1514.1691	2227.6004	3035.641	3047.0218	3053.3809	3064.0856	3084.3834	3101.0377	3111.368	3133.0932	3501.6995
C#CC1CN2CC(C2)O1	C#C[C@H]1CN2C[C@@H](C2)O1	
InChI=1S/C7H9NO/c1-2-6-3-8-4-7(5-8)9-6/h1,6-7H,3-5H2	InChI=1S/C7H9NO/c1-2-6-3-8-4-7(5-8)9-6/h1,6-7H,3-5H2/t6-/m0/s1
