17
gdb 73173	2.47636	1.49328	1.35047	5.7207	72.49	-0.2419	0.0019	0.2438	1039.419	0.135857	-417.969699	-417.96149	-417.960546	-418.002513	30.79	
C	-0.1981473967	 1.3785260381	-0.0816868269	-0.517191
C	 0.0382346533	-0.1014606811	 0.0672967108	 0.275603
N	-1.1303038527	-0.9717489136	 0.3201961404	-0.336797
C	-0.5040757113	-1.550294267	 1.5433099591	-0.186721
C	 0.8187139939	-0.8487497514	 1.1852218238	 0.061255
O	 1.6096977658	-1.5621155511	 0.2088937052	-0.301824
C	 1.0481325987	-0.8098122725	-0.8904151353	-0.03724
C	 0.5030058325	-1.6392602293	-1.9626619142	 0.298935
N	 0.0889620548	-2.2645584546	-2.8414843172	-0.325026
H	 0.7420121094	 1.9249463047	-0.2032845046	 0.133113
H	-0.8205291077	 1.5777624194	-0.9620586223	 0.144137
H	-0.7156543997	 1.7811341051	 0.7952305165	 0.127875
H	-1.9961891294	-0.4707770034	 0.4755188827	 0.22577
H	-0.928686093	-1.1845698262	 2.4868907122	 0.102355
H	-0.4733156967	-2.6435000447	 1.5578863165	 0.126023
H	 1.430709004	-0.4023777595	 1.9707851717	 0.092525
H	 1.7990266848	-0.1295099129	-1.3143415184	 0.117208
81.1299	136.4128	195.971	218.8289	267.2601	336.1737	361.9072	392.7203	523.5976	535.6252	643.9485	660.0274	736.6506	838.3478	843.9363	905.2435	948.8023	972.0882	1002.902	1033.4114	1040.7394	1079.8486	1143.1952	1145.5675	1176.3965	1213.335	1228.5448	1272.9079	1316.0464	1341.744	1354.3337	1407.2943	1419.7644	1488.5962	1491.865	1497.7749	2360.508	3017.1815	3020.1379	3030.1592	3090.1051	3096.4605	3099.1017	3109.7915	3557.778
CC12NCC1OC2C#N	C[C@]12NC[C@H]1O[C@H]2C#N	
InChI=1S/C6H8N2O/c1-6-4(2-7)9-5(6)3-8-6/h4-5,8H,3H2,1H3	InChI=1S/C6H8N2O/c1-6-4(2-7)9-5(6)3-8-6/h4-5,8H,3H2,1H3/t4-,5+,6+/m0/s1
