15
gdb 133130	2.4894	1.56731	0.96753	3.6086	71.18	-0.2495	-0.0383	0.2112	1127.4022	0.113294	-461.965868	-461.958314	-461.95737	-461.998462	28.201	
O	 0.2798895318	 0.97951804	 0.9665626675	-0.429027
C	-0.011936401	 0.2389313245	-0.184700301	-0.120393
C	-1.4081146763	-0.3494468682	-0.1382309251	 0.171408
N	-2.1358513618	-0.0913724982	 0.9463054389	-0.339619
C	-3.3747733395	-0.5871167903	 1.0361146759	-0.004658
C	-3.9480199027	-1.3685077861	 0.041669878	-0.129636
C	-3.199991571	-1.6489738679	-1.1015419708	-0.192052
C	-1.9233448593	-1.1275202049	-1.174567314	 0.232186
F	-1.156049881	-1.3604897721	-2.2445568396	-0.071635
H	-0.5174003582	 0.9240188808	 1.5182189724	 0.291681
H	 0.0763044192	 0.867474496	-1.0856345831	 0.113726
H	 0.7129951421	-0.5807710483	-0.3149951255	 0.113794
H	-3.9241413611	-0.3464571259	 1.9414516105	 0.120441
H	-4.9555647484	-1.7515427436	 0.1534384483	 0.11555
H	-3.5865221828	-2.2520172558	-1.9149717525	 0.128234
61.7106	163.8736	198.2953	278.1266	331.1231	391.5898	478.5433	524.4125	542.5695	562.4287	612.1008	740.6057	789.9449	828.5959	868.4924	951.7095	979.4135	1033.6149	1077.7229	1103.2457	1133.7004	1191.3024	1248.6039	1271.2045	1295.2801	1299.276	1353.86	1465.0973	1482.271	1489.6142	1514.2912	1618.0471	1642.347	2974.4873	2985.4779	3172.7162	3199.2068	3212.8321	3662.4028
OCC1=NC=CC=C1F	OCc1ncccc1F	
InChI=1S/C6H6FNO/c7-5-2-1-3-8-6(5)4-9/h1-3,9H,4H2	InChI=1S/C6H6FNO/c7-5-2-1-3-8-6(5)4-9/h1-3,9H,4H2
