22
gdb 22129	3.7056	0.84377	0.81747	1.0835	86.82	-0.2393	0.0096	0.249	1527.2852	0.191625	-404.308705	-404.298533	-404.297589	-404.344189	38.209	
C	 0.1825847291	 1.361986797	 0.3554133641	-0.391229
C	 0.0430161265	-0.1003734375	-0.0811657097	-0.235317
C	 0.647430692	-0.4314397214	-1.450395228	 0.359506
C	-0.0053013694	 0.3455484798	-2.5935976252	-0.451022
C	 2.2232351749	-0.3752532303	-1.5051982331	-0.367877
C	 2.2070133814	-1.8230812201	-1.9396111196	 0.431643
C	 0.7147823914	-1.9742013562	-1.7501820253	-0.378874
N	 3.1504570031	-2.5573128927	-2.3567096174	-0.23569
O	 2.6755725143	-3.8442200464	-2.6839304312	-0.395732
H	 1.2305664903	 1.6818402577	 0.3528002818	 0.118353
H	-0.3729892945	 2.0388740886	-0.3003780778	 0.119678
H	-0.2013315955	 1.5007576151	 1.3707004664	 0.115088
H	 0.5181717766	-0.7440215665	 0.6708766945	 0.092935
H	-1.0194484852	-0.3800353951	-0.0898882777	 0.095131
H	 0.1449399764	 1.4247208966	-2.4891241958	 0.117788
H	 0.417193246	 0.0473245245	-3.5592774736	 0.117031
H	-1.0845038103	 0.1563664069	-2.6298272593	 0.113328
H	 2.6588117176	 0.3333912522	-2.215416359	 0.116499
H	 2.6941152382	-0.2173058024	-0.5288717921	 0.115573
H	 0.4447374351	-2.6122241962	-0.9015255975	 0.118083
H	 0.1648975581	-2.3261723796	-2.6281133747	 0.12042
H	 3.4769884539	-4.2818126239	-2.9899472597	 0.304685
27.0938	100.5659	167.6793	202.4043	234.2618	256.9957	265.6939	326.1088	330.6207	353.1871	403.4022	452.2563	469.9689	525.966	650.6054	749.2467	787.3951	823.4587	880.9252	892.9272	904.5425	948.3788	974.8961	1014.0113	1035.166	1044.6148	1088.4523	1131.2915	1152.7311	1194.6115	1205.6777	1231.3316	1263.8748	1294.7649	1338.0473	1371.296	1400.8796	1409.341	1414.7155	1449.957	1466.9749	1481.699	1494.0586	1497.0458	1504.6074	1510.7025	1783.2072	3009.2793	3025.2661	3034.8633	3041.4838	3042.3547	3046.9824	3089.2671	3092.9222	3094.8119	3098.5835	3100.3942	3110.0798	3819.7562
CCC1(C)CC(C1)=NO	CC[C@@]1(C)CC(=NO)C1	
InChI=1S/C7H13NO/c1-3-7(2)4-6(5-7)8-9/h9H,3-5H2,1-2H3	InChI=1S/C7H13NO/c1-3-7(2)4-6(5-7)8-9/h9H,3-5H2,1-2H3/t7-
