23
gdb 65916	2.8256	1.26841	1.10409	1.5469	84.97	-0.2411	0.0826	0.3237	1236.7841	0.206016	-388.26756	-388.258421	-388.257477	-388.301528	34.929	
C	 0.0058545306	 1.6001938019	 0.1641766947	-0.456801
C	-0.0162792241	 0.0803085963	-0.0040722524	 0.331149
C	 0.9090807993	-0.4208158764	-1.1589795122	-0.25911
C	 1.9986846766	-0.7644437841	-0.1084391957	-0.213196
C	 0.9229936565	-0.6586580013	 1.004499406	-0.262789
C	-1.4509908795	-0.4170468864	-0.0166206267	 0.09204
C	-2.3337741279	-0.1598582106	-1.2620608459	-0.294747
C	-2.5363384269	-1.6857551278	-1.2520368309	-0.065111
O	-1.5608071206	-1.8523592982	-0.2019439513	-0.297836
H	 1.0325790122	 1.978546697	 0.1964003432	 0.116717
H	-0.5043910516	 2.1018428766	-0.6665054952	 0.11335
H	-0.4877754981	 1.90328513	 1.0951410892	 0.112486
H	 0.5036907287	-1.3213704241	-1.6261531526	 0.108491
H	 1.1679384276	 0.3034739226	-1.9364374842	 0.085112
H	 2.502796028	-1.7270665996	-0.217936301	 0.097556
H	 2.762307691	 0.0138729655	-0.0283037713	 0.098125
H	 1.1877919356	-0.1164986219	 1.9166740879	 0.087494
H	 0.5193126731	-1.6369993973	 1.2753308153	 0.119546
H	-1.9430920761	-0.1227178854	 0.9240550048	 0.0657
H	-3.2219418572	 0.4560953392	-1.1159950762	 0.107411
H	-1.7748160557	 0.209104593	-2.1248108318	 0.111688
H	-3.5344163783	-2.0144553723	-0.9333393877	 0.099082
H	-2.2571752332	-2.2307423668	-2.1609340661	 0.103645
84.6693	96.3412	121.8238	189.1596	244.4088	252.9218	301.795	334.6531	426.9	483.1024	620.6159	698.6839	763.6361	792.5932	833.0438	870.6932	891.757	911.4385	928.4925	945.8113	961.7725	975.4196	995.1977	1027.5461	1029.2309	1070.8633	1107.6728	1163.5648	1177.1565	1191.487	1209.8944	1218.1333	1244.2991	1254.2692	1266.014	1273.0493	1278.4336	1292.9959	1322.298	1358.9824	1386.2343	1411.0441	1467.6286	1479.1135	1489.1066	1495.898	1497.786	1504.5437	1529.816	2971.6381	3010.404	3021.119	3052.7869	3054.836	3056.4174	3064.3882	3076.3727	3084.4628	3095.7732	3099.2779	3113.7731	3124.6816	3132.7444
CC1(CCC1)C1CCO1	CC1(CCC1)[C@H]1CCO1	
InChI=1S/C8H14O/c1-8(4-2-5-8)7-3-6-9-7/h7H,2-6H2,1H3	InChI=1S/C8H14O/c1-8(4-2-5-8)7-3-6-9-7/h7H,2-6H2,1H3/t7-/m1/s1
