22
gdb 11353	4.64674	1.15362	1.00461	0.2689	85.43	-0.2244	0.033	0.2573	1270.9779	0.200729	-313.100019	-313.091115	-313.090171	-313.133534	33.355	
C	 0.1981379678	 1.5410399147	-0.1994522278	-0.372267
C	-0.0959306121	 0.0537658766	 0.0662263098	-0.288273
C	 0.6280283044	-0.4969546329	 1.2595454183	 0.337309
C	 0.0845781788	-0.9761346615	 2.380788123	-0.178955
C	 1.1089688629	-1.4215928148	 3.4012006682	 0.006107
C	 0.7887298312	-2.7529941864	 4.0894673162	-0.394509
C	 2.4137619063	-1.4470245391	 2.5597684085	-0.217716
C	 2.1442614378	-0.5318225795	 1.3427650406	-0.302971
H	 1.2634781008	 1.7111173507	-0.3844047233	 0.119222
H	-0.3524790552	 1.8958494281	-1.0761257376	 0.111688
H	-0.0944005709	 2.1563088933	 0.6574252142	 0.11867
H	-1.1746790271	-0.0878133755	 0.1977550785	 0.098558
H	 0.1875310691	-0.5218887995	-0.8268878786	 0.099614
H	-0.9832033427	-1.0236250462	 2.575582731	 0.076113
H	 1.1902606398	-0.652319623	 4.1861336059	 0.071758
H	 0.6818761707	-3.556667771	 3.3522447903	 0.112209
H	 1.5846091291	-3.0382437756	 4.7861656174	 0.109691
H	-0.1453226169	-2.69364667	 4.6587148761	 0.108759
H	 3.2957787818	-1.1502789632	 3.1342510971	 0.090824
H	 2.58641936	-2.4720297574	 2.2109568815	 0.097269
H	 2.6099615999	-0.902706849	 0.4211441349	 0.094555
H	 2.5457395144	 0.4795296614	 1.4995846057	 0.102344
68.0202	113.6877	129.9113	210.1998	233.0468	253.774	298.324	377.3791	482.7747	489.5041	599.5201	609.4617	786.8842	813.3941	848.0089	872.9062	892.7398	930.8554	958.6933	969.1437	999.9339	1044.7735	1064.9913	1083.0747	1118.4767	1126.9265	1182.0762	1203.9655	1247.2189	1263.2487	1300.0737	1310.8298	1322.4723	1346.0738	1352.1246	1378.1632	1406.757	1408.8007	1479.2811	1483.4641	1496.4801	1497.8868	1499.0616	1501.9763	1508.1981	1716.3809	2965.2396	3001.517	3004.2468	3024.1214	3031.486	3036.0481	3046.4928	3057.4708	3088.8563	3093.5093	3095.7084	3106.851	3108.3112	3169.1477
CCC1=CC(C)CC1	CCC1=C[C@@H](C)CC1	
InChI=1S/C8H14/c1-3-8-5-4-7(2)6-8/h6-7H,3-5H2,1-2H3	InChI=1S/C8H14/c1-3-8-5-4-7(2)6-8/h6-7H,3-5H2,1-2H3/t7-/m0/s1
