23
gdb 109251	3.32291	1.10033	0.94358	0.265	91.78	-0.2258	0.0331	0.2589	1365.1768	0.207615	-351.170463	-351.161665	-351.160721	-351.204018	34.54	
C	-0.3637403649	 1.1810316654	 0.3545001854	-0.372028
C	-0.054497601	-0.2424660809	-0.1419979591	-0.273172
C	 0.8186767045	-0.2853467552	-1.3736072024	 0.328444
C	 2.0407559738	-0.8241710193	-1.3460513974	-0.16714
C	 2.987096473	-0.8910635064	-2.5142225719	-0.269444
C	 2.3092727243	-0.7102443423	-3.8608971404	-0.01993
C	 1.1184282005	-1.5658565	-4.2213405091	-0.288822
C	 0.9306415585	-0.0996371609	-3.9157509415	-0.018313
C	 0.247199116	 0.3338444463	-2.6304890234	-0.313224
H	 0.5594464668	 1.7198605387	 0.5915661376	 0.117651
H	-0.907039963	 1.762682862	-0.3966531966	 0.118237
H	-0.9805348488	 1.1509957015	 1.2581892561	 0.111181
H	 0.4290959032	-0.80744852	 0.6626323257	 0.096296
H	-1.0057455801	-0.7519891665	-0.3543555391	 0.097165
H	 2.4082117699	-1.2400941748	-0.4095253546	 0.072024
H	 3.7608935656	-0.1171404491	-2.3942711109	 0.106211
H	 3.5309199931	-1.8460719343	-2.4920853452	 0.100982
H	 2.9848863771	-0.4636835924	-4.6747767726	 0.075923
H	 1.0117497264	-1.895571374	-5.2490583303	 0.103298
H	 0.7739440442	-2.2818261234	-3.4816844083	 0.111832
H	 0.7151427056	 0.5385162576	-4.7679966008	 0.075842
H	-0.8294325469	 0.1137911102	-2.6867191559	 0.097398
H	 0.3121227622	 1.4287466977	-2.5487489352	 0.109591
70.0437	91.6534	184.1359	222.9942	269.6732	322.4608	346.2821	377.7221	462.9524	517.133	568.4946	678.4627	757.7059	785.3719	800.2766	824.8697	852.6696	857.0075	930.3323	955.9499	967.4639	994.9838	1042.9451	1051.4606	1060.7154	1077.2303	1099.9243	1123.5131	1127.9549	1136.5526	1180.5548	1228.0079	1240.346	1249.203	1282.7606	1323.3354	1351.3963	1361.9773	1377.6249	1400.9125	1406.8285	1419.4884	1476.8926	1480.1749	1482.6077	1495.118	1499.5581	1508.4843	1736.8708	2987.4179	2990.2286	3001.151	3010.8603	3013.578	3035.0182	3058.8233	3104.7144	3107.6877	3127.7477	3136.413	3136.893	3147.5608	3213.1916
CCC1=CCC2CC2C1	CCC1=CC[C@H]2C[C@H]2C1	
InChI=1S/C9H14/c1-2-7-3-4-8-6-9(8)5-7/h3,8-9H,2,4-6H2,1H3	InChI=1S/C9H14/c1-2-7-3-4-8-6-9(8)5-7/h3,8-9H,2,4-6H2,1H3/t8-,9+/m0/s1
