19
gdb 51616	5.7442	0.70788	0.68134	1.6738	77.25	-0.2513	-0.0252	0.2261	1625.1508	0.157272	-423.00138	-422.99246	-422.991516	-423.036308	32.413	
O	-0.2079450681	 0.0145996118	-0.1323054241	-0.237368
C	-0.0004938288	 1.197514628	-0.0449735819	 0.160903
C	 1.3531156951	 1.8531492155	-0.2069538434	-0.298048
C	 1.3595741954	 2.8836483681	-1.3387743	 0.024847
C	 0.5316123506	 4.1996937493	-1.1677922868	-0.337079
C	 1.7284011433	 4.9477251787	-1.7575447322	 0.469265
C	 1.7525913137	 5.9255422991	-2.8459290777	-0.265538
O	 2.0614455468	 6.2928397533	-1.4912357459	-0.269037
C	 2.6468076269	 3.7459748433	-1.5270407643	-0.340966
H	-0.835552279	 1.9081134154	 0.1590128714	 0.075796
H	 1.5984251354	 2.3603697758	 0.7376761935	 0.115325
H	 2.0981225496	 1.0702166208	-0.3793235304	 0.123224
H	 1.0960650862	 2.393967261	-2.2813595872	 0.090986
H	-0.4279404981	 4.2759048985	-1.6840535022	 0.111951
H	 0.3897624156	 4.4605251015	-0.1133596393	 0.114211
H	 2.5942281726	 5.9485911867	-3.5373377623	 0.117442
H	 0.8182991339	 6.328414349	-3.2353926776	 0.117302
H	 3.2057265476	 3.8512096841	-0.5912499569	 0.115538
H	 3.3378309912	 3.46386546	-2.3244931129	 0.111245
45.1203	67.018	84.0569	176.4682	288.7782	311.6954	327.9663	399.258	432.9908	491.9928	551.641	720.3577	823.8853	831.3585	844.9	880.8872	887.6181	945.205	970.6337	978.8071	1038.7135	1070.7076	1099.8876	1126.4192	1140.3053	1163.2666	1193.0861	1195.5107	1222.8795	1249.08	1259.2832	1279.5792	1311.4869	1369.649	1430.9441	1437.3021	1461.8393	1467.9857	1493.6269	1538.1831	1834.7338	2857.3317	3009.4405	3048.1539	3052.4772	3059.6006	3078.831	3092.8225	3110.5679	3113.9106	3166.2188
O=CCC1CC2(CO2)C1	O=CC[C@H]1C[C@]2(CO2)C1	
InChI=1S/C7H10O2/c8-2-1-6-3-7(4-6)5-9-7/h2,6H,1,3-5H2	InChI=1S/C7H10O2/c8-2-1-6-3-7(4-6)5-9-7/h2,6H,1,3-5H2/t6-,7+
