16
gdb 62304	3.52359	1.49269	1.20558	4.3863	73.78	-0.2505	0.0219	0.2724	1013.33	0.125503	-396.827767	-396.82042	-396.819476	-396.859362	28.721	
N	-0.0006739516	 1.5024987806	-0.05863783	-0.568877
C	 0.0235688497	 0.0513058819	-0.0378282039	 0.143561
C	 0.9682226315	-0.5466949225	-0.9936431215	 0.237257
N	 1.7339766878	-0.9285326094	-1.7717021998	-0.336131
C	-0.0281700186	-0.5986251816	 1.358798222	-0.031063
C	-1.5305730086	-0.2564632551	 1.5754607972	-0.072265
C	-1.7890222263	-1.7279683507	 1.8886173769	-0.190169
N	-0.7276446933	-1.8630282073	 0.7977434994	-0.151159
C	-1.3495996631	-0.6390777292	 0.0781016028	-0.03106
H	 0.9259719889	 1.8692284514	 0.1419387343	 0.245588
H	-0.2409979299	 1.8335182459	-0.9892635751	 0.245589
H	 0.7690283985	-0.6806730244	 2.0986073985	 0.098339
H	-1.9587435031	 0.6580136654	 1.9883611289	 0.090695
H	-1.4643832217	-2.1162979841	 2.8589243687	 0.110677
H	-2.7561300746	-2.1558465558	 1.6070000591	 0.110677
H	-2.1106557556	-0.7688294251	-0.6923086377	 0.09834
140.4691	156.8003	233.9413	252.545	323.8351	423.0694	485.9719	512.4766	580.865	652.7997	756.1825	811.5955	849.6855	851.8764	876.4389	890.6755	934.2834	942.5151	1016.2763	1032.875	1068.3004	1074.8192	1111.8178	1131.3607	1167.9561	1182.7332	1192.1382	1206.9593	1273.3495	1279.2325	1293.6485	1325.3947	1520.9922	1662.6056	2342.7712	3044.8901	3097.641	3105.2218	3112.4442	3118.961	3488.5773	3562.674
NC1(C#N)C2C3CN2C13	N[C@@]1(C#N)[C@H]2[C@@H]3CN2[C@H]13	
InChI=1S/C6H7N3/c7-2-6(8)4-3-1-9(4)5(3)6/h3-5H,1,8H2	InChI=1S/C6H7N3/c7-2-6(8)4-3-1-9(4)5(3)6/h3-5H,1,8H2/t3-,4+,5-,6-
