17
gdb 53003	4.40393	0.93859	0.86746	2.849	83.82	-0.2208	0.0218	0.2426	1381.0996	0.13601	-380.840144	-380.831506	-380.830562	-380.875294	31.588	
C	 0.0036471254	 1.4554190284	-0.0085497552	-0.506306
C	 0.0005340241	 0.0002236899	-0.000061386	 0.219387
C	 0.0095746047	-1.2045204138	 0.0113410513	-0.112298
C	 0.0046451722	-2.6370126358	 0.0212395758	 0.1533
C	-0.4592940859	-3.4087901741	-1.209505019	-0.312959
C	-1.2826199313	-3.5234590082	 0.0338877001	-0.071993
N	-0.9222201833	-4.610599256	 0.904774839	-0.287242
C	 0.3718158898	-4.3625084544	 1.3380991136	 0.029247
N	 0.9547450348	-3.317161055	 0.8778666196	-0.286011
H	 0.9062076822	 1.8457032476	 0.4748088646	 0.152534
H	-0.0205819834	 1.8518021805	-1.0299317719	 0.145317
H	-0.8602217976	 1.8644702296	 0.5278336444	 0.143867
H	-0.872588575	-2.8080551006	-2.010949269	 0.124826
H	 0.1363631625	-4.2615632946	-1.5192266421	 0.121715
H	-2.2941224663	-3.1422721944	 0.0896632356	 0.110951
H	-1.6025311249	-4.9799663206	 1.5518921362	 0.249129
H	 0.8526737521	-5.0685133185	 2.0074320028	 0.126535
12.557	93.6917	100.443	258.1925	301.8104	320.0433	406.3265	430.2095	461.5368	512.77	539.1233	635.1791	710.3814	774.9867	835.982	899.6287	926.5131	939.584	980.424	1022.4856	1051.1672	1055.255	1063.8532	1077.9244	1084.4906	1132.263	1206.8774	1302.8784	1339.4813	1384.0184	1414.5395	1432.1686	1469.8095	1476.4693	1479.687	1644.2443	2369.2733	3023.7523	3081.3985	3086.778	3130.4486	3194.7974	3196.7791	3230.2705	3610.9913
CC#CC12CC1NC=N2	CC#C[C@]12C[C@H]1NC=N2	
InChI=1S/C7H8N2/c1-2-3-7-4-6(7)8-5-9-7/h5-6H,4H2,1H3,(H,8,9)	InChI=1S/C7H8N2/c1-2-3-7-4-6(7)8-5-9-7/h5-6H,4H2,1H3,(H,8,9)/t6-,7+/m1/s1
