22
gdb 22245	2.88064	0.81908	0.68857	0.4373	82.84	-0.2409	0.0158	0.2567	1700.6149	0.190291	-441.441645	-441.430228	-441.429284	-441.478847	39.966	
C	-0.1234924913	 1.4119755274	 0.6407078014	-0.226403
O	-0.160269325	 0.1191473133	 0.0897730975	-0.240324
C	-1.3726816877	-0.5578278501	 0.3606308097	-0.06101
C	-1.2774276477	-1.9498177494	-0.2653546347	-0.080176
C	-0.1320503152	-2.7656099544	 0.3676683808	-0.395341
C	-2.581856171	-2.7131093841	-0.2047080493	 0.351678
C	-2.7406388647	-3.9643899985	-1.0286680487	-0.470498
N	-3.4957409427	-2.2541112945	 0.5616999963	-0.169064
O	-4.6458620006	-3.0631622854	 0.5440863219	-0.407572
H	 0.8406524411	 1.8546549775	 0.3776906858	 0.123397
H	-0.9279589737	 2.0502588781	 0.241256927	 0.10234
H	-0.21839783	 1.3932285512	 1.7383138973	 0.102644
H	-1.5418064261	-0.6333702971	 1.4460305189	 0.09625
H	-2.2263746925	-0.0055375721	-0.0600360194	 0.093881
H	-1.0345997933	-1.8055354124	-1.3281092885	 0.092395
H	-0.0028133029	-3.7328903403	-0.1263252878	 0.112448
H	 0.8028547566	-2.2074347228	 0.2885001341	 0.138252
H	-0.3367665867	-2.9512644177	 1.4276449635	 0.118965
H	-1.8866933274	-4.1182285694	-1.6908050826	 0.119882
H	-2.8494196068	-4.842509514	-0.3833090412	 0.146491
H	-3.6546594618	-3.9050703956	-1.6270963325	 0.148019
H	-5.2342855704	-2.5887259897	 1.1404300905	 0.303747
55.3366	83.9729	97.4948	102.7592	131.6951	198.7734	226.7787	241.8987	269.7832	310.4257	339.1584	360.8987	381.2906	440.5751	523.8288	569.6774	660.6429	803.6818	897.8065	934.1692	969.2686	990.5417	1018.8258	1028.1663	1086.7069	1125.9099	1147.1263	1168.2772	1188.1237	1215.2328	1236.5522	1268.2861	1332.6949	1343.0361	1389.282	1401.5232	1405.5181	1423.2067	1474.1814	1480.6455	1483.0143	1484.5176	1495.7478	1503.1878	1508.4472	1521.8805	1727.1737	2964.8067	2983.0368	3002.4542	3009.5858	3020.0585	3041.0741	3044.5426	3102.3648	3108.2647	3109.6486	3135.511	3136.4296	3822.6856
COCC(C)C(C)=NO	COC[C@@H](C)C(=NO)C	
InChI=1S/C6H13NO2/c1-5(4-9-3)6(2)7-8/h5,8H,4H2,1-3H3	InChI=1S/C6H13NO2/c1-5(4-9-3)6(2)7-8/h5,8H,4H2,1-3H3/t5-/m1/s1
