16
gdb 17540	4.11261	1.85054	1.65288	1.6681	64.33	-0.2267	0.0632	0.2899	824.4525	0.129847	-383.667372	-383.660476	-383.659532	-383.698178	27.391	
O	-0.027450681	 1.4035096893	 0.0208157722	-0.434417
C	-0.0695845606	 0.0156153781	 0.0035478096	 0.126051
C	-0.5177242202	-0.7733701595	 1.1854130157	 0.016317
O	-1.5167651335	-0.0166235722	 1.8948921023	-0.331805
C	-2.4018381054	-0.1244583039	 0.7565690873	 0.463189
C	-3.8390764468	-0.4722187049	 0.9360132349	-0.3462
C	-3.4245481134	 0.9138931608	 0.4507476095	-0.330019
C	-1.3561487627	-0.7962349657	-0.0925623377	-0.277543
H	-0.4815127233	 1.6734205949	 0.8307755462	 0.296545
H	 0.7579992271	-0.4087911239	-0.5580416198	 0.110215
H	 0.0246479632	-1.5287717258	 1.7423432876	 0.106379
H	-4.2957352366	-1.1581289412	 0.2298328912	 0.118876
H	-4.2026254729	-0.5553525611	 1.9542985797	 0.128536
H	-3.5268857416	 1.731738101	 1.1563542583	 0.124849
H	-3.5965895264	 1.183782462	-0.5854747647	 0.12599
H	-1.5318636859	-1.5803919977	-0.8172145422	 0.103035
117.1724	200.3866	286.0342	288.6792	404.9792	418.9373	542.9767	604.1337	681.7423	729.9078	748.9909	805.8872	858.7935	886.5783	913.7211	925.4648	977.4703	993.4576	1027.044	1045.7646	1049.9355	1064.5546	1070.0875	1081.6696	1165.7488	1184.7192	1191.2376	1261.7993	1304.6771	1359.6405	1400.9756	1446.9238	1454.3205	1505.3681	3130.2658	3133.0302	3158.3272	3177.1652	3200.0205	3213.666	3227.4838	3756.6638
OC1C2OC3(CC3)C12	O[C@H]1[C@H]2OC3(CC3)[C@@H]12	
InChI=1S/C6H8O2/c7-4-3-5(4)8-6(3)1-2-6/h3-5,7H,1-2H2	InChI=1S/C6H8O2/c7-4-3-5(4)8-6(3)1-2-6/h3-5,7H,1-2H2/t3-,4+,5-/m0/s1
