14
gdb 124178	3.69179	0.98255	0.78029	5.4756	76.92	-0.2408	-0.046	0.1948	1395.9367	0.100293	-432.808769	-432.800125	-432.799181	-432.843527	30.339	
C	-0.0220666006	 1.4487951616	 0.0125119857	-0.510139
C	-0.0000624069	-0.0041586572	 0.0143536747	 0.227506
C	 0.04141506	-1.2096313745	 0.0113729396	-0.073968
C	 0.023195958	-2.61982836	 0.0083486783	 0.21144
N	 1.0871805633	-3.387486809	 0.0728967869	-0.174635
O	 0.6343578702	-4.6623996728	 0.0505395637	-0.164217
N	-0.7481420563	-4.7186628465	-0.0226029797	-0.158022
C	-1.136773341	-3.4713302175	-0.0560111411	 0.229418
N	-2.4386165708	-3.0635259695	-0.1929928374	-0.605767
H	 0.9737608435	 1.8512236806	-0.2006860097	 0.166258
H	-0.7095691204	 1.8332393339	-0.7485734551	 0.15909
H	-0.3412557362	 1.8425968589	 0.9837383256	 0.158615
H	-3.1311179143	-3.7568835145	 0.0484190587	 0.269895
H	-2.6345435383	-2.1457588636	 0.17787675	 0.264527
27.3628	81.3059	109.5398	255.5235	268.9086	316.126	363.4126	392.7111	474.9125	510.5978	556.3829	577.5653	614.8767	740.0946	793.9254	903.934	950.8642	997.48	1048.7605	1051.4631	1059.9812	1148.7204	1314.2838	1411.4869	1435.134	1472.3304	1473.3201	1551.4103	1616.7321	1661.8823	2363.4557	3031.1854	3093.0015	3099.4028	3574.6057	3681.0732
CC#CC1=NON=C1N	CC#Cc1nonc1N	
InChI=1S/C5H5N3O/c1-2-3-4-5(6)8-9-7-4/h1H3,(H2,6,8)	InChI=1S/C5H5N3O/c1-2-3-4-5(6)8-9-7-4/h1H3,(H2,6,8)
