13
gdb 124285	4.41688	1.1012	0.88624	3.5028	62.12	-0.2738	-0.0905	0.1832	1206.6102	0.088212	-489.926043	-489.91801	-489.917066	-489.959654	28.061	
C	-0.0161550721	 1.5011022433	 0.033133087	-0.485744
C	-0.0233442062	-0.0035892514	 0.0214848997	 0.330639
O	-0.0473474304	-0.7034944035	 1.0105510703	-0.305512
C	-0.000672752	-0.6803032746	-1.3066753925	 0.330178
N	 0.0251539186	-0.0833172769	-2.4554352165	-0.161909
O	 0.0387680505	-1.1121163106	-3.4055059895	-0.226492
C	 0.0196323049	-2.3519316293	-2.7783614131	 0.522248
O	 0.0256179589	-3.4044631824	-3.3398116494	-0.374682
N	-0.0051889545	-2.0395126948	-1.4309365864	-0.420686
H	 0.8743758142	 1.8772880128	-0.4803114354	 0.167597
H	-0.8802522669	 1.8861680575	-0.5175232124	 0.167643
H	-0.0361667171	 1.8529895477	 1.0644011902	 0.153451
H	-0.023535108	-2.6969665778	-0.669045902	 0.30327
53.1223	103.2927	136.7138	158.826	297.5645	337.1156	453.0588	542.4491	556.3142	562.1727	619.1715	705.3027	747.5404	770.041	911.4248	948.7261	956.8789	1021.8887	1047.2332	1125.8511	1215.7384	1287.0012	1388.5542	1456.1198	1463.5218	1507.0913	1622.819	1791.1049	1924.017	3051.0639	3114.1597	3166.4332	3678.3318
CC(=O)C1=NOC(=O)N1	CC(=O)c1noc(=O)[nH]1	
InChI=1S/C4H4N2O3/c1-2(7)3-5-4(8)9-6-3/h1H3,(H,5,6,8)	InChI=1S/C4H4N2O3/c1-2(7)3-5-4(8)9-6-3/h1H3,(H,5,6,8)
