17
gdb 17560	3.23203	2.13077	1.63081	1.4944	68.2	-0.2407	0.0683	0.3091	842.1269	0.14156	-363.797154	-363.789774	-363.788829	-363.82843	28.507	
C	-0.1147201835	 1.5318519033	 0.0341031257	-0.521274
C	 0.1222650421	 0.0583012242	-0.0066587301	 0.337697
O	-0.7666117717	-0.806789794	 0.7261342736	-0.285822
C	 0.6433250126	-0.9133854899	 0.9749009456	-0.043018
C	 1.2294702185	-1.8148231602	-0.1249981405	-0.328292
C	 0.6684835185	-0.7988238333	-1.1490576629	 0.310982
C	 0.1296019597	-0.9589354225	-2.5119595106	-0.302756
N	 1.4511680698	-0.3257837516	-2.2857340242	-0.369334
H	 0.7705362282	 2.0831032569	-0.3003509971	 0.126943
H	-0.9552683639	 1.8133631095	-0.6109120606	 0.132117
H	-0.3533285598	 1.846318353	 1.0532058199	 0.142042
H	 0.9801872379	-0.7701542647	 1.9954409286	 0.103502
H	 2.3219519795	-1.8338289483	-0.1434023868	 0.118672
H	 0.8316577505	-2.8317836142	-0.1536575141	 0.112462
H	 0.1709068601	-1.927279263	-3.0028512455	 0.12317
H	-0.7076449006	-0.3336355623	-2.8126655961	 0.112927
H	 1.3709994622	 0.6849566872	-2.377835905	 0.229983
133.0642	180.8806	214.8318	221.3415	335.0488	396.395	451.2041	496.0122	596.6323	646.8504	760.9126	829.4809	859.5319	880.0098	909.3476	927.6923	959.5884	975.0898	1030.725	1045.5323	1062.6924	1098.6031	1114.5533	1153.5331	1186.1016	1225.9855	1255.9026	1265.5522	1286.992	1398.9969	1414.4456	1453.721	1474.5697	1487.8401	1492.2335	1515.3471	3031.3444	3066.6101	3091.5956	3105.2763	3122.2458	3126.9864	3182.4925	3190.3333	3483.4283
CC12OC1CC21CN1	C[C@]12O[C@H]1C[C@]12CN1	
InChI=1S/C6H9NO/c1-5-4(8-5)2-6(5)3-7-6/h4,7H,2-3H2,1H3	InChI=1S/C6H9NO/c1-5-4(8-5)2-6(5)3-7-6/h4,7H,2-3H2,1H3/t4-,5-,6+/m0/s1
