19
gdb 78647	2.93838	1.49497	1.15141	3.4114	79.96	-0.2309	0.0134	0.2443	1118.4984	0.15845	-385.872339	-385.863982	-385.863038	-385.904913	32.225	
C	-0.1766999128	 1.4428836381	 0.03075446	-0.407546
C	 0.0518560658	-0.0626245056	 0.0642490072	-0.001076
C	 0.8686290728	-0.5930309445	-1.1244639738	-0.110803
C	 2.1550819043	-0.5037097044	-0.3678722839	-0.117565
C	 1.263778971	-0.5125180937	 0.9397476498	-0.198713
C	 1.2885309215	-2.0416691097	 0.7662526413	 0.389934
O	 1.3411644102	-2.9696746993	 1.5265344604	-0.349042
C	 1.5585599494	-1.8999311162	-0.7007713546	 0.188199
C	 2.042326192	-2.9452030771	-1.658568823	-0.510706
H	 0.7585149271	 1.9802756345	-0.1593658943	 0.118717
H	-0.8872833035	 1.7131097626	-0.7583236915	 0.116126
H	-0.5844493217	 1.7971457225	 0.9831464318	 0.119249
H	-0.8885341836	-0.5870462392	 0.2776746424	 0.075909
H	 0.7012516773	-0.4083318494	-2.1800232176	 0.092653
H	 3.1501456182	-0.1474775142	-0.5856795618	 0.110608
H	 1.4907787224	-0.0487006506	 1.8962755135	 0.088225
H	 1.2222264757	-3.5986985631	-1.9743887811	 0.13444
H	 2.472618567	-2.4931174612	-2.5579423829	 0.121801
H	 2.8070709369	-3.5730018996	-1.1911123419	 0.13959
135.4772	157.1415	188.583	207.7216	244.5636	254.5594	310.4352	453.3704	461.8368	612.6128	680.4024	746.7749	762.005	798.2688	835.246	842.4844	872.4298	900.4842	918.8738	947.4397	1017.9484	1049.8566	1058.4638	1091.919	1094.2106	1109.9915	1138.4235	1164.7349	1174.2272	1236.0761	1276.5071	1294.7813	1374.0678	1403.3422	1409.5069	1427.4362	1483.1745	1494.8543	1495.9092	1497.1088	1868.357	3022.1118	3028.5185	3034.3605	3095.0399	3097.8222	3102.6737	3107.7127	3158.0292	3174.2975	3239.2413
CC1C2C3C1C(=O)C23C	C[C@H]1[C@H]2[C@H]3[C@@H]1C(=O)[C@@]23C	
InChI=1S/C8H10O/c1-3-4-6-5(3)8(6,2)7(4)9/h3-6H,1-2H3	InChI=1S/C8H10O/c1-3-4-6-5(3)8(6,2)7(4)9/h3-6H,1-2H3/t3-,4-,5+,6-,8+/m1/s1
