12
gdb 21602	3.76369	2.02246	1.3174	2.7945	59.5	-0.2268	-0.0716	0.1552	835.1396	0.084613	-414.655978	-414.64931	-414.648366	-414.686734	24.693	
N	 0.2010697897	 1.3299221367	-0.3029915792	-0.614544
C	 0.0412606602	-0.0191020638	-0.0663847305	 0.084062
C	-1.0721463121	-0.806862684	-0.0074479139	-0.000112
O	-0.7223899521	-2.0748458117	 0.3372982561	-0.152069
N	 0.6219984287	-2.1521846005	 0.5150510963	-0.183247
C	 1.0884115819	-0.9384853543	 0.2729837833	 0.263244
C	 2.5231533106	-0.6630660452	 0.3313048177	 0.092012
O	 2.9949937526	 0.4247275986	 0.065686464	-0.284912
H	 1.1591231203	 1.5860055302	-0.5006218671	 0.276201
H	-0.4736929244	 1.7589108398	-0.9171732792	 0.254357
H	-2.1233308213	-0.6370731684	-0.1698010114	 0.150346
H	 3.1561723958	-1.5220090274	 0.6249936939	 0.114661
150.0029	200.6775	269.0402	320.4222	375.4505	397.5677	490.1568	596.1825	630.6275	707.6551	725.9954	764.491	781.1325	933.6489	1013.8973	1038.331	1113.2408	1127.8562	1286.6215	1318.9423	1390.1776	1464.1707	1501.7427	1628.2453	1671.4293	1776.0584	2958.8613	3282.8382	3555.4273	3669.9286
NC1=CON=C1C=O	Nc1conc1C=O	
InChI=1S/C4H4N2O2/c5-3-2-8-6-4(3)1-7/h1-2H,5H2	InChI=1S/C4H4N2O2/c5-3-2-8-6-4(3)1-7/h1-2H,5H2
