20
gdb 114806	2.62929	1.31515	1.17409	3.297	74.57	-0.2351	0.0643	0.2994	1158.2457	0.170988	-440.235602	-440.22679	-440.225845	-440.269169	33.495	
C	 0.0500306421	 1.6422321612	 0.1720189827	-0.480354
C	 0.0744035993	 0.1411209087	 0.0709467354	 0.420205
O	-1.2325037834	-0.4541660003	 0.2735766473	-0.327913
C	-0.7240250842	-1.3628764974	 1.2846321713	-0.072823
C	 0.7144684947	-0.8863189195	 1.0448899147	-0.105783
N	 1.3576163105	-1.5988446092	-0.0908765533	-0.350683
C	 0.8888105898	-0.5527130752	-1.0631825641	-0.03842
C	 0.1525236372	-1.1715236661	-2.2460171138	-0.067868
O	 0.9483987965	-2.1872791111	-2.8338278805	-0.427388
H	 1.0597064587	 2.0578294626	 0.0963654448	 0.119124
H	-0.5538635208	 2.0641747222	-0.6395129668	 0.134674
H	-0.392045107	 1.9606943292	 1.1204898822	 0.126059
H	-1.1383444026	-1.121413874	 2.2717625035	 0.100283
H	-0.9147452946	-2.4131346554	 1.0417509887	 0.108879
H	 1.3488913391	-0.6484012124	 1.8996151967	 0.079768
H	 2.3668881164	-1.6254710631	-0.0074863617	 0.226494
H	 1.709344715	 0.0834371574	-1.4179207568	 0.069328
H	-0.816291669	-1.5594444367	-1.9045784397	 0.102839
H	-0.0355702635	-0.4221686895	-3.0221652097	 0.10204
H	 1.1531417059	-2.7902296214	-2.1068750611	 0.281538
80.4665	104.3522	173.6762	201.2044	222.2149	301.1156	321.6364	405.5974	483.8499	507.6983	519.9545	614.9587	714.607	787.7559	833.7664	853.297	875.6908	920.8594	939.5238	997.1846	1026.2056	1044.283	1062.3721	1071.707	1102.3791	1142.493	1155.407	1170.2935	1191.3042	1202.2707	1220.2269	1287.6629	1329.5584	1337.9744	1367.8496	1388.8709	1392.56	1408.9493	1434.6907	1480.3693	1488.0596	1506.0409	1510.0639	3016.0372	3016.9137	3024.3514	3033.5572	3079.0311	3081.537	3100.9189	3102.2864	3115.0206	3544.4148	3759.8227
CC12OCC1NC2CO	C[C@]12OC[C@H]1N[C@H]2CO	
InChI=1S/C6H11NO2/c1-6-4(2-8)7-5(6)3-9-6/h4-5,7-8H,2-3H2,1H3	InChI=1S/C6H11NO2/c1-6-4(2-8)7-5(6)3-9-6/h4-5,7-8H,2-3H2,1H3/t4-,5+,6+/m0/s1
