17
gdb 11547	6.38517	1.04737	0.97114	2.3575	66.6	-0.2481	0.0643	0.3124	1232.361	0.141126	-401.024321	-401.015395	-401.014451	-401.05932	30.592	
C	-0.1527583634	 1.3177034507	-0.0512572433	-0.329265
N	 0.2738215835	-0.0632084141	 0.0045177806	-0.358414
C	 0.6935747972	-0.6484147611	 1.1570514435	 0.518091
O	 0.7276610728	-0.1299121168	 2.2499622446	-0.410306
O	 1.0882044092	-1.9288535718	 0.8924395166	-0.282515
C	 1.4926011301	-2.677415385	 2.0198982765	 0.165566
C	 0.5293299176	-3.6748312488	 2.5884543139	-0.278946
C	 1.7212522902	-4.130183191	 1.7658739837	-0.301021
H	 0.5135692251	 1.9231452536	-0.6770692379	 0.124805
H	-1.1728690657	 1.4045143888	-0.4417859214	 0.125172
H	-0.1297259297	 1.7084761934	 0.9666716365	 0.170472
H	 0.3268348005	-0.6126037404	-0.8364034301	 0.252135
H	 2.1410897152	-2.1267423186	 2.6896766519	 0.119916
H	 0.5318109294	-3.8375269639	 3.6601999488	 0.12111
H	-0.4455757878	-3.7375916437	 2.1188087692	 0.121176
H	 1.5209965237	-4.489383472	 0.7628824415	 0.122954
H	 2.5537852419	-4.6141896693	 2.2636029553	 0.119069
44.6065	51.2929	86.3191	132.8534	157.1674	305.5355	348.2503	411.8803	464.9396	490.4796	710.3778	756.2745	775.793	819.043	844.7984	924.7226	979.9429	1005.538	1057.1079	1073.7624	1114.5285	1146.4516	1159.3886	1173.3722	1192.1875	1200.603	1242.1571	1251.8652	1391.7052	1445.9826	1455.6198	1493.8198	1498.5795	1503.8308	1567.7765	1823.9439	3023.724	3073.6355	3139.7765	3142.9257	3152.6522	3192.3185	3222.669	3237.0492	3659.9936
CNC(=O)OC1CC1	CNC(=O)OC1CC1	
InChI=1S/C5H9NO2/c1-6-5(7)8-4-2-3-4/h4H,2-3H2,1H3,(H,6,7)	InChI=1S/C5H9NO2/c1-6-5(7)8-4-2-3-4/h4H,2-3H2,1H3,(H,6,7)
