20
gdb 47484	2.61549	1.53299	1.11316	3.0425	80.64	-0.2446	0.0242	0.2688	1141.9306	0.172551	-403.161568	-403.15353	-403.152586	-403.194222	31.925	
N	-0.0095372345	 1.2914270399	-0.2121360646	-0.500679
C	-0.0059357848	 0.0512934283	 0.0398467383	 0.364827
C	-1.289250628	-0.7423989559	 0.1264743187	-0.257649
C	-1.2316605854	-1.8826659039	 1.1504917763	-0.223245
C	 0.0428673236	-2.7002123904	 0.9163051482	-0.270364
C	 1.2390833268	-1.7831398324	 0.9906723179	 0.455079
C	 1.9485400724	-1.5384861456	 2.298400273	-0.317186
C	 2.6299127984	-2.2926871488	 1.1692951038	-0.332511
O	 1.1686084732	-0.6543314808	 0.1253429694	-0.294051
H	 0.9521115098	 1.6341500812	-0.2733639187	 0.215225
H	-2.1028790794	-0.0424548753	 0.3216057512	 0.131064
H	-1.4652402936	-1.1712606079	-0.8699792427	 0.124953
H	-1.2212774017	-1.4738004048	 2.1680600279	 0.110035
H	-2.1237078073	-2.5102928713	 1.0640854925	 0.101055
H	 0.1494553955	-3.4975790726	 1.6579460066	 0.10225
H	 0.0055337326	-3.1764195498	-0.0724850506	 0.105574
H	 2.2878764144	-0.5279105136	 2.492818202	 0.125556
H	 1.6271364689	-2.0909792426	 3.1750509015	 0.114945
H	 2.7744938732	-3.3630859117	 1.2679797853	 0.116686
H	 3.4120992262	-1.7737856821	 0.6273802441	 0.128436
83.2944	101.5444	229.1894	267.8793	357.3098	382.2292	437.4758	452.8364	507.8863	532.0454	623.2588	717.6951	769.3295	809.37	859.2818	889.4037	908.2113	920.1153	935.1412	952.5887	978.9031	1008.2131	1049.8441	1055.7262	1079.8647	1100.2982	1125.6111	1157.5646	1186.9882	1204.1496	1261.5278	1273.9558	1334.1516	1343.1066	1363.6085	1379.5	1396.6732	1451.7613	1468.9073	1482.2479	1495.2651	1501.0681	1749.2463	3019.0292	3022.2593	3037.4542	3083.4249	3087.2325	3123.8227	3134.5908	3138.3187	3220.6976	3234.0276	3455.853
N=C1CCCC2(CC2)O1	[NH][C]1CCCC2(CC2)O1	
InChI=1S/C7H11NO/c8-6-2-1-3-7(9-6)4-5-7/h8H,1-5H2	InChI=1S/C7H11NO/c8-6-2-1-3-7(9-6)4-5-7/h8H,1-5H2
