20
gdb 113251	3.91312	0.85208	0.82883	4.1835	80.21	-0.2536	0.0321	0.2857	1456.3422	0.168658	-403.14292	-403.13283	-403.131885	-403.17825	36.159	
C	 0.2215397296	 1.1270946987	-0.1105518689	-0.240249
O	-0.3708834317	-0.0192504079	 0.472328266	-0.230741
C	 0.4868507339	-0.7005057438	 1.3257853391	 0.074553
C	 0.1251153373	-2.1143720813	 1.6556024511	-0.353277
C	 1.3493443921	-1.8368427971	 0.799631232	 0.298663
C	 1.2895723316	-2.19497858	-0.6707137445	-0.469408
C	 2.7155505158	-2.0117383121	 1.4580050377	-0.414548
C	 3.1456663556	-3.411807359	 1.5069265338	 0.274543
N	 3.4686874754	-4.5210683202	 1.5337164413	-0.313278
H	 1.0894903315	 0.8676535142	-0.7322903451	 0.111645
H	-0.5393762766	 1.5976383783	-0.7367853884	 0.13362
H	 0.5447051027	 1.8452350213	 0.6578969585	 0.110738
H	 0.9092129141	-0.0790293913	 2.1192809041	 0.081012
H	 0.2558454564	-2.4624314698	 2.6745955094	 0.120644
H	-0.7433623738	-2.5187228835	 1.1476606034	 0.131772
H	 0.3128932876	-1.9398213515	-1.0866879386	 0.136759
H	 2.0527464739	-1.6539152347	-1.242908146	 0.11317
H	 1.4604126811	-3.2663215365	-0.8191861171	 0.140619
H	 3.4773010649	-1.4379037249	 0.9150550247	 0.147792
H	 2.7011500887	-1.625109649	 2.4834758977	 0.145971
56.6737	98.2674	113.4699	161.4494	178.2243	217.0987	249.9917	323.0602	354.4335	375.6366	395.6023	454.9081	471.1443	619.8386	730.8684	813.1445	869.03	905.0953	937.2857	967.8154	981.398	1029.1574	1070.7371	1080.2326	1121.079	1129.8311	1178.4491	1183.5721	1219.3941	1247.4553	1269.7723	1327.0444	1356.8753	1407.0984	1418.824	1458.0019	1473.3197	1486.0475	1493.3273	1498.2599	1505.0804	1508.227	2359.5931	2987.2096	3028.8014	3030.822	3041.618	3067.1972	3072.5406	3089.7743	3124.857	3131.5996	3136.6651	3225.2792
COC1CC1(C)CC#N	CO[C@H]1C[C@]1(C)CC#N	
InChI=1S/C7H11NO/c1-7(3-4-8)5-6(7)9-2/h6H,3,5H2,1-2H3	InChI=1S/C7H11NO/c1-7(3-4-8)5-6(7)9-2/h6H,3,5H2,1-2H3/t6-,7-/m0/s1
