17
gdb 98018	4.38621	0.58809	0.54976	3.3876	77.94	-0.2722	-0.0664	0.2059	1978.908	0.132147	-458.941492	-458.931038	-458.930094	-458.978756	35.851	
C	 0.4052350107	 1.4966331518	-0.368474102	-0.392859
C	-0.1078621238	 0.1404920111	 0.1416283465	-0.029449
O	-0.1958552322	-0.8257704625	-0.8953963602	-0.404548
C	 0.7077293953	-0.3391116986	 1.263189386	 0.199554
C	 1.4249445468	-0.7510623324	 2.1440014796	-0.063913
C	 2.2509325475	-1.2196911666	 3.224879345	 0.196755
O	 3.1171804402	-2.0635801212	 3.0874258633	-0.314468
C	 2.0024117813	-0.6072958338	 4.5975226881	-0.135471
O	 2.8733095423	-1.1396217207	 5.5464693373	-0.419535
H	 1.4397434047	 1.4103645443	-0.7152115279	 0.127268
H	-0.2213931387	 1.8208544627	-1.2027277878	 0.137172
H	 0.3708085137	 2.251941637	 0.4216344668	 0.132886
H	-1.13955437	 0.2639095166	 0.492608171	 0.132829
H	 0.7009120645	-1.0458686472	-1.1731205729	 0.290606
H	 2.1154703817	 0.4858237543	 4.5091703996	 0.122402
H	 0.9476631079	-0.7881651079	 4.8635028035	 0.124664
H	 3.4133441282	-1.7855417369	 5.062468744	 0.296107
25.0556	64.7621	71.5861	128.4023	174.8391	241.5472	254.5548	302.3551	318.1242	356.0263	407.6358	455.2166	525.0994	545.621	581.9489	628.1105	782.2335	869.652	938.9554	1010.7699	1036.2614	1079.0953	1112.2904	1138.1367	1204.2024	1237.4772	1287.1515	1310.5539	1326.1183	1399.53	1417.0338	1448.3017	1487.7738	1488.3576	1492.0245	1747.5499	2322.3765	2975.0008	2992.3691	3041.7377	3045.5941	3120.1155	3134.2253	3680.0266	3799.9696
CC(O)C#CC(=O)CO	C[C@@H](O)C#CC(=O)CO	
InChI=1S/C6H8O3/c1-5(8)2-3-6(9)4-7/h5,7-8H,4H2,1H3	InChI=1S/C6H8O3/c1-5(8)2-3-6(9)4-7/h5,7-8H,4H2,1H3/t5-/m1/s1
