17
gdb 85508	2.61499	1.31232	1.00477	2.6682	68.82	-0.2651	-0.0436	0.2215	1176.4243	0.134763	-459.022221	-459.013575	-459.012631	-459.056381	31.045	
C	-0.136258149	 1.512880126	-0.0397707763	-0.410293
C	 0.0230983459	 0.0075911809	 0.078149635	 0.112295
O	 0.7500225465	-0.4887648187	-1.0648710723	-0.226478
C	 1.503726413	-1.5759927711	-0.7432154959	 0.431248
O	 2.1300578404	-2.1899365645	-1.5542208343	-0.327683
C	 1.3931733578	-1.829427331	 0.7589226064	-0.391229
C	 0.7988668969	-0.5275387526	 1.3179539451	-0.125829
C	 1.8955899526	 0.4203708329	 1.7685607376	 0.165214
O	 1.8690603926	 1.0399046588	 2.7994282029	-0.249721
H	 0.8331924565	 2.0145667728	-0.1010393473	 0.138458
H	-0.7070907252	 1.7619035358	-0.9374933732	 0.139827
H	-0.6712561813	 1.9008337168	 0.8321068924	 0.13885
H	-0.9667981861	-0.4673394879	 0.0673587975	 0.103066
H	 0.720100075	-2.6780551728	 0.9183888461	 0.151371
H	 2.3682136852	-2.1062537604	 1.1654281055	 0.149474
H	 0.1220690695	-0.6714411055	 2.1620270808	 0.108228
H	 2.7597797996	 0.5050820004	 1.06965338	 0.093201
58.3316	77.2564	122.8886	224.9309	233.5026	310.8806	314.6669	425.1753	490.2595	513.965	553.9579	656.904	704.2656	814.289	870.8169	895.9964	958.999	990.536	999.1464	1064.937	1092.2285	1119.7847	1146.2603	1182.5671	1209.6923	1248.6494	1301.6635	1308.3276	1370.0119	1388.9114	1418.8463	1435.0612	1462.9187	1481.1125	1501.7115	1834.5807	1889.5267	2866.0766	3016.7046	3050.4278	3066.4012	3104.2424	3119.7486	3125.8061	3131.1886
CC1OC(=O)CC1C=O	C[C@H]1OC(=O)C[C@H]1C=O	
InChI=1S/C6H8O3/c1-4-5(3-7)2-6(8)9-4/h3-5H,2H2,1H3	InChI=1S/C6H8O3/c1-4-5(3-7)2-6(8)9-4/h3-5H,2H2,1H3/t4-,5+/m1/s1
