19
gdb 49667	2.53491	1.31204	1.27784	3.5746	81.23	-0.2362	-0.017	0.2193	1115.3887	0.160744	-385.903256	-385.895317	-385.894373	-385.935922	30.562	
O	-0.2856394283	 0.0981422416	-0.1844920611	-0.278622
C	-0.1347223964	 1.2567957747	 0.1302031355	 0.146593
C	 1.1727638721	 1.9471839464	 0.0709856403	-0.121719
C	 1.3092613681	 3.4251005456	-0.3110530934	-0.059342
C	 0.1037538103	 4.2981340623	-0.6275174337	-0.281779
C	-0.7879726009	 4.5885237966	 0.5484218998	-0.050783
C	-0.5342744541	 4.214939525	 1.8008691728	-0.050779
C	 0.6832513058	 3.4448412383	 2.2332151196	-0.281757
C	 1.5944018154	 3.0053165019	 1.0964771496	-0.059342
H	-0.99197459	 1.8654446867	 0.4844503556	 0.08249
H	 1.9621751868	 1.292323727	-0.2841737539	 0.102226
H	 2.1696371275	 3.618970304	-0.9440326732	 0.098091
H	 0.4701575253	 5.2543040257	-1.0273461437	 0.118332
H	-0.4866062019	 3.8594463439	-1.4439415767	 0.119173
H	-1.6886635151	 5.1576070526	 0.3314222038	 0.090809
H	-1.2309015258	 4.4835168161	 2.5912889108	 0.09081
H	 1.2686211624	 4.0785508255	 2.9144869372	 0.118328
H	 0.381583013	 2.5810723001	 2.8418339131	 0.119176
H	 2.6399606858	 2.9264596961	 1.3776806876	 0.098093
89.8837	125.0641	176.4979	192.519	383.1796	384.0363	392.8877	504.9696	539.0538	557.8261	684.395	717.6587	802.3561	863.6911	877.1267	930.611	935.0217	953.5214	972.6706	1014.3089	1034.1667	1045.1839	1065.3968	1109.288	1145.0342	1147.6472	1202.0863	1234.0522	1241.403	1246.1553	1342.7302	1354.5229	1362.0735	1373.7527	1424.1271	1427.4596	1455.9971	1476.5838	1478.5968	1734.1332	1800.7987	2921.7825	3004.8854	3004.9619	3023.7073	3023.871	3145.2975	3145.8961	3152.2997	3168.1129	3169.3622
O=CC1C2CC=CCC12	O=C[C@H]1[C@H]2CC=CC[C@@H]12	
InChI=1S/C8H10O/c9-5-8-6-3-1-2-4-7(6)8/h1-2,5-8H,3-4H2	InChI=1S/C8H10O/c9-5-8-6-3-1-2-4-7(6)8/h1-2,5-8H,3-4H2/t6-,7+,8-
