19
gdb 52788	2.18206	1.20567	0.89084	2.5498	80.63	-0.2484	0.0272	0.2756	1367.2981	0.156354	-422.985421	-422.975308	-422.974364	-423.021299	36.694	
C	 0.0643219824	 1.5150193171	-0.0770033003	-0.500035
C	 0.0544790165	 0.0594121521	-0.0343911756	 0.009987
C	 0.0453068949	-1.1469921378	-0.0139496869	 0.042335
C	 0.0693127307	-2.6090099877	 0.0246892588	 0.243502
O	 0.9599770318	-3.1463747114	-0.9332959738	-0.462597
C	 0.1658765504	-3.1618787966	 1.4922615597	-0.303652
C	-1.3825324117	-3.3079615201	 1.4972179666	 0.141205
O	-2.0769680822	-2.2455789979	 2.1150943465	-0.435724
C	-1.3472050104	-3.251616827	-0.0562522625	-0.283159
H	 0.730883623	 1.8774991728	-0.867120551	 0.15538
H	-0.9355035878	 1.9134558911	-0.2804812124	 0.155151
H	 0.4089827503	 1.9421086458	 0.8709323589	 0.152746
H	 1.7691858306	-2.6239410763	-0.9147895589	 0.279907
H	 0.6709084154	-4.1312212719	 1.4761547221	 0.110213
H	 0.6047541687	-2.5193950838	 2.2584212278	 0.101994
H	-1.7831561668	-4.2210725715	 1.9405950491	 0.087717
H	-1.7459612938	-1.419105514	 1.742938339	 0.28006
H	-2.1363304551	-2.6867567285	-0.5554280049	 0.108338
H	-1.258792577	-4.2456789044	-0.5019197021	 0.11663
33.4605	71.8116	109.5591	142.197	252.6303	261.3047	304.0682	335.3972	339.2783	383.3528	418.3744	432.163	523.6376	546.2456	596.8667	771.6814	812.3254	844.6714	920.6981	946.3718	979.2103	1005.6623	1051.0143	1054.3671	1063.8547	1067.7298	1122.6171	1161.8068	1196.0016	1253.0837	1259.6151	1279.1946	1329.7562	1369.7987	1414.043	1444.768	1450.2714	1475.8089	1478.2799	1478.5338	2351.6316	3029.9748	3062.3778	3070.1153	3092.3128	3093.0419	3098.1843	3130.4952	3135.8864	3777.7705	3808.2346
CC#CC1(O)CC(O)C1	CC#C[C@@]1(O)C[C@@H](O)C1	
InChI=1S/C7H10O2/c1-2-3-7(9)4-6(8)5-7/h6,8-9H,4-5H2,1H3	InChI=1S/C7H10O2/c1-2-3-7(9)4-6(8)5-7/h6,8-9H,4-5H2,1H3/t6-,7-
