19
gdb 102974	3.05899	0.72148	0.6162	4.3317	73.42	-0.2467	-0.0308	0.2159	1751.6196	0.155221	-460.173181	-460.162478	-460.161534	-460.210743	35.845	
O	 0.0048011009	 1.4273207155	-0.3105661383	-0.420838
C	 0.0413219493	 0.0263550089	-0.0936845817	-0.102153
C	-1.4104137378	-0.4717063648	 0.0223789381	-0.079862
C	-1.4908069809	-2.0018235992	 0.075384935	-0.216003
C	-2.9084079876	-2.547221372	-0.1770657185	-0.283799
C	-2.9605380589	-4.0496950288	-0.0302061711	 0.157861
O	-3.360109712	-4.8149521743	-0.8695397434	-0.239371
C	-2.0736617263	 0.1961646453	 1.2177959722	 0.155754
O	-2.609861574	-0.3986664489	 2.1209000957	-0.252654
H	 0.9047976468	 1.7651674652	-0.2874793652	 0.295083
H	 0.5290535421	-0.4973575948	-0.9297590221	 0.10201
H	 0.5966090069	-0.2269164826	 0.8233874758	 0.102178
H	-1.9267764432	-0.0906577029	-0.8719079888	 0.110942
H	-0.8055252943	-2.4211373569	-0.6708722367	 0.106959
H	-1.1436326848	-2.3412730932	 1.0582181352	 0.119302
H	-3.5851654044	-2.1195492995	 0.5728502651	 0.145661
H	-3.271611426	-2.2813815819	-1.1744139198	 0.116028
H	-2.5853504563	-4.423652432	 0.9520748125	 0.073506
H	-2.0141590197	 1.3030011671	 1.2139967758	 0.109395
50.8902	59.427	75.6234	99.2642	120.7367	152.7585	222.156	254.3024	286.9148	307.8448	386.452	476.3167	525.6378	644.9476	771.0045	823.0704	856.0723	915.1377	1003.2057	1008.5478	1021.7377	1071.0108	1104.7792	1131.4217	1147.6447	1199.9215	1221.1084	1249.9275	1283.5093	1305.1109	1315.8531	1370.6074	1383.4878	1422.1799	1429.3612	1451.5581	1464.5921	1482.9656	1527.0441	1816.5082	1836.0863	2851.3698	2939.5363	2971.9392	2998.4493	3013.2281	3029.328	3043.1349	3071.7983	3105.2575	3833.2247
OCC(CCC=O)C=O	OC[C@@H](CCC=O)C=O	
InChI=1S/C6H10O3/c7-3-1-2-6(4-8)5-9/h3-4,6,9H,1-2,5H2	InChI=1S/C6H10O3/c7-3-1-2-6(4-8)5-9/h3-4,6,9H,1-2,5H2/t6-/m0/s1
