21
gdb 90801	3.05151	1.71077	1.37963	0.1254	83.97	-0.2024	0.0847	0.2872	1017.5505	0.18539	-349.906767	-349.899535	-349.898591	-349.938548	30.322	
C	 0.1329253401	 1.5911951777	 0.0101910682	-0.395475
C	-0.0451473068	 0.0676170729	-0.0094149836	 0.01216
C	 0.4272437027	-0.543805762	-1.3526055863	-0.258121
C	 1.3291207323	-1.7488497637	-1.1805241413	-0.030469
C	 2.4471412252	-1.8039725569	-0.1735562869	-0.085801
C	 1.2513100489	-2.7337321642	-0.0383712251	-0.090297
C	 0.8805303757	-2.0611884493	 1.3110464337	-0.109102
C	 2.0663620649	-1.1191975285	 1.1682433481	-0.090058
C	 0.6547454914	-0.5791172796	 1.1731139924	-0.020981
H	 1.1931494339	 1.8576638307	-0.0678369483	 0.116895
H	-0.3935179264	 2.0597756708	-0.8284318711	 0.108469
H	-0.2555851251	 2.028406605	 0.9368428654	 0.10532
H	-1.116100614	-0.1434459535	 0.1093306525	 0.070533
H	-0.4390924912	-0.8195775609	-1.9645147049	 0.09599
H	 0.9763304545	 0.2117941903	-1.9293819634	 0.093784
H	 1.5978968173	-2.231712221	-2.1181692432	 0.079789
H	 3.4668127875	-2.0498927161	-0.4414727106	 0.080097
H	 1.2077992559	-3.8037279674	-0.1969000405	 0.080446
H	 0.564875568	-2.6209917267	 2.1823100423	 0.080185
H	 2.797368634	-0.8404929799	 1.9164305274	 0.080129
H	 0.4025351011	-0.1153023078	 2.1258925753	 0.07651
48.4083	234.1363	274.5485	343.8363	400.9275	469.35	533.1246	575.1963	689.6643	712.8437	720.3414	730.1456	779.6845	854.8078	875.58	884.6401	909.567	924.8507	961.5258	975.7957	992.6637	1008.5539	1040.3788	1054.1816	1061.235	1076.6749	1099.076	1111.7519	1136.4592	1142.018	1207.2789	1247.7482	1269.2834	1292.8887	1310.0468	1313.8998	1338.6388	1351.0508	1369.062	1403.3384	1433.1837	1454.0426	1496.1437	1497.4104	1500.6771	3002.9837	3015.6404	3022.8757	3054.024	3091.2475	3094.7262	3114.9493	3124.9782	3176.5575	3186.3014	3187.6544	3198.0677
CC1CC2C3C2C2C3C12	C[C@H]1C[C@H]2[C@@H]3[C@H]2[C@H]2[C@@H]3[C@@H]12	
InChI=1S/C9H12/c1-3-2-4-6-7(4)9-5(3)8(6)9/h3-9H,2H2,1H3	InChI=1S/C9H12/c1-3-2-4-6-7(4)9-5(3)8(6)9/h3-9H,2H2,1H3/t3-,4-,5+,6+,7-,8+,9-/m0/s1
