22
gdb 121990	5.52573	0.51576	0.49513	3.3059	81.08	-0.2266	-0.0248	0.2018	2184.0495	0.190708	-441.466456	-441.455164	-441.45422	-441.504424	38.628	
C	-0.1160526924	 1.5105996022	 0.0246199573	-0.333175
N	 0.0010093765	 0.0565098073	 0.0369909251	-0.074715
C	 0.7296821514	-0.4488151469	 1.2000489076	-0.13234
C	 2.2065541894	-0.0476249447	 1.2108596341	-0.187653
C	 2.987512044	-0.7728085806	 2.3002138557	-0.072316
O	 4.318296183	-0.2814204553	 2.2774837481	-0.419882
C	-1.2998355664	-0.5693590892	-0.1200292671	-0.229155
C	-1.8216377324	-0.4161032631	-1.541246186	 0.150142
O	-2.9856302646	-0.3788766203	-1.8410434437	-0.238846
H	 0.8713132233	 1.975319044	-0.0087340404	 0.131414
H	-0.661019683	 1.8316720728	-0.8686167842	 0.127739
H	-0.6563293072	 1.9033117534	 0.9069598854	 0.098582
H	 0.2524680526	-0.12954925	 2.1482978089	 0.079653
H	 0.6628668701	-1.5433679577	 1.1723882896	 0.097578
H	 2.6506136824	-0.2733183974	 0.2354334042	 0.1161
H	 2.3237727539	 1.0280877453	 1.377975855	 0.112222
H	 2.5140898638	-0.5957573032	 3.2804013311	 0.085762
H	 2.9601312792	-1.8600116747	 2.1189236241	 0.085839
H	 4.8202065332	-0.7388954561	 2.9582046338	 0.286472
H	-1.1934336414	-1.6511572618	 0.0446086791	 0.125378
H	-2.0727277012	-0.2118495053	 0.5842104798	 0.104998
H	-1.0102131443	-0.3697816488	-2.3033194973	 0.086202
41.8236	61.9349	74.8036	101.7625	127.8271	154.0262	228.5821	247.9294	267.6701	290.973	336.3304	370.245	440.6113	502.8758	575.7283	756.2748	778.3164	876.104	894.6349	1024.1558	1030.8352	1055.0155	1074.7965	1076.1033	1090.3677	1127.6791	1161.7626	1187.913	1215.2081	1236.8214	1272.4865	1283.206	1309.2439	1324.2055	1341.5739	1350.1412	1398.7053	1424.0244	1453.3346	1464.7341	1470.9824	1488.4055	1497.54	1504.3344	1508.9641	1530.2486	1840.0951	2877.7921	2903.0076	2930.7832	2947.8169	2957.0467	2981.8387	3029.5933	3039.1812	3049.5199	3071.995	3095.7777	3125.0707	3830.4782
CN(CCCO)CC=O	CN(CCCO)CC=O	
InChI=1S/C6H13NO2/c1-7(4-6-9)3-2-5-8/h6,8H,2-5H2,1H3	InChI=1S/C6H13NO2/c1-7(4-6-9)3-2-5-8/h6,8H,2-5H2,1H3
