17
gdb 88322	3.77367	0.95678	0.8515	2.2997	73.75	-0.2664	-0.0067	0.2596	1377.6508	0.134689	-455.1572	-455.148019	-455.147075	-455.191953	32.136	
C	 0.6026055791	 1.4045185943	 0.0584531866	-0.405561
C	 0.1496534129	-0.0221741758	-0.1351309772	 0.011332
C	 0.8557947615	-0.9368073608	-1.0990101402	-0.247062
N	 0.9668032067	-1.1270974291	 0.3332616874	-0.134391
C	 2.1015929215	-1.0058079118	 1.0917936405	 0.505494
O	 2.1996609281	-0.3960367049	 2.126322719	-0.38812
O	 3.1077654407	-1.7621456551	 0.5296379169	-0.211583
C	 4.2763076263	-1.8748313092	 1.2364879281	 0.125634
N	 5.2238864627	-2.5144018203	 0.711227364	-0.427612
H	 1.6584302644	 1.5268678884	-0.1999631685	 0.127653
H	 0.0133687619	 2.0706019861	-0.5792572047	 0.126927
H	 0.4744554144	 1.7149732148	 1.0988075542	 0.152376
H	-0.9150667941	-0.1912461568	 0.015130465	 0.110002
H	 0.3066177053	-1.70658649	-1.6332938479	 0.133623
H	 1.7251276845	-0.5441919026	-1.6198756505	 0.140188
H	 4.2330311076	-1.375571649	 2.2048615242	 0.143387
H	 6.0216657165	-2.5250078782	 1.3450072631	 0.237713
58.346	109.6303	124.7332	134.4588	177.7861	207.9713	285.376	378.2721	401.076	487.3105	518.4693	650.429	777.4653	824.4044	851.0949	860.607	908.4837	947.5181	1039.326	1054.7628	1071.4033	1074.7955	1126.7515	1151.1075	1161.7308	1197.0809	1203.6595	1272.9453	1380.9295	1391.6864	1413.5414	1438.8499	1484.8964	1493.4367	1516.0487	1748.1372	1821.0238	3044.5675	3111.1416	3114.7568	3121.7654	3133.6912	3137.162	3204.7641	3508.1802
CC1CN1C(=O)OC=N	C[C@H]1CN1C(=O)O[CH][NH]	
InChI=1S/C5H8N2O2/c1-4-2-7(4)5(8)9-3-6/h3-4,6H,2H2,1H3	InChI=1S/C5H8N2O2/c1-4-2-7(4)5(8)9-3-6/h3-4,6H,2H2,1H3/t4-,7?/m0/s1
