19
gdb 117093	2.28482	0.96402	0.76342	0.9121	77.81	-0.244	-0.0195	0.2245	1528.4359	0.154927	-423.005775	-422.994935	-422.993991	-423.043327	37.803	
C	-1.1806992724	 1.1224941593	-1.1860633372	-0.391966
C	-0.1122909682	 0.5337090088	-0.2292239271	-0.255362
C	-0.6099658726	-0.6402068169	 0.477028508	 0.323528
C	-1.0374228587	-1.6024840201	 1.0574372595	-0.465602
C	 1.1817539788	 0.2924370674	-1.0436144249	 0.377601
O	 1.901492394	 1.233036342	-1.2889949472	-0.311676
C	 1.4670820288	-1.1050168208	-1.5446760174	-0.289709
C	 2.6611692563	-1.1691040522	-2.4845870249	-0.078117
O	 2.81775605	-2.5272397658	-2.8680233624	-0.425161
H	-0.7848248833	 2.0195078863	-1.6678461781	 0.14036
H	-1.458035344	 0.3970751164	-1.9562990863	 0.130798
H	-2.0817665706	 1.3838415635	-0.6266762296	 0.134931
H	 0.1507839815	 1.3114246026	 0.4970579979	 0.133058
H	-1.405570012	-2.4540486755	 1.574412546	 0.201535
H	 1.6284646087	-1.7583241748	-0.6781674379	 0.149498
H	 0.5694651756	-1.5069863911	-2.0320846302	 0.13592
H	 2.4841294322	-0.5184792753	-3.3535813503	 0.098202
H	 3.5531840466	-0.7828501218	-1.972122202	 0.104476
H	 3.5802422892	-2.585787572	-3.4507980258	 0.287685
17.7841	79.3728	95.1067	105.8593	176.3073	215.0399	227.7155	252.1808	268.0151	332.8723	398.537	480.3069	525.2019	575.2533	613.1029	636.0521	652.9769	797.9691	812.0865	890.4582	967.5027	1017.6756	1038.0829	1072.3686	1093.5436	1112.2984	1157.0364	1208.1267	1256.8585	1275.4529	1299.7982	1320.9367	1353.9335	1399.6394	1440.8578	1468.1788	1494.3451	1497.2201	1523.401	1800.3216	2234.1291	2993.8181	3024.4753	3039.6147	3045.0094	3049.2714	3071.9048	3125.3777	3137.541	3502.284	3831.9587
CC(C#C)C(=O)CCO	C[C@@H](C#C)C(=O)CCO	
InChI=1S/C7H10O2/c1-3-6(2)7(9)4-5-8/h1,6,8H,4-5H2,2H3	InChI=1S/C7H10O2/c1-3-6(2)7(9)4-5-8/h1,6,8H,4-5H2,2H3/t6-/m0/s1
