21
gdb 33165	3.09229	1.04967	0.842	3.9162	85.17	-0.2093	0.0365	0.2458	1434.7555	0.1833	-383.324262	-383.314712	-383.313768	-383.35943	34.559	
C	 0.0375836848	 1.5653385468	-0.061735193	-0.380568
C	 0.0322671353	 0.0351640314	-0.0819537341	-0.171743
C	-1.3813622121	-0.5411064797	 0.0739815133	-0.167538
N	-1.4182613426	-1.9943134376	 0.0450309556	-0.016142
C	-1.4570594261	-2.7761407118	-1.0935747224	-0.138327
C	-1.4150159058	-4.0705379449	-0.6561713527	-0.102918
N	-1.3478572839	-4.1119512044	 0.7163120184	-0.308537
C	-1.3477730493	-2.8546024272	 1.111888132	 0.333225
C	-1.2921424284	-2.4076620703	 2.5353981865	-0.505754
H	 1.0522693431	 1.9565724562	-0.1767580564	 0.123039
H	-0.5714473897	 1.9768504181	-0.8742812548	 0.119112
H	-0.3633234657	 1.9533842954	 0.8812340459	 0.119199
H	 0.4616866285	-0.3336241438	-1.0206603229	 0.112253
H	 0.6668662757	-0.3560645996	 0.7218223136	 0.112304
H	-1.8221755636	-0.205012581	 1.0176953408	 0.121258
H	-2.0287700425	-0.168305396	-0.7273654607	 0.11947
H	-1.5185388382	-2.3357616604	-2.0755864813	 0.11697
H	-1.4358183647	-4.9737021947	-1.247133884	 0.101647
H	-0.4069533199	-1.7972366197	 2.7493156059	 0.128026
H	-2.1731514521	-1.8207666508	 2.8220152178	 0.129352
H	-1.2548847127	-3.2968406858	 3.1658380227	 0.155671
54.0436	85.9192	97.4133	133.3392	229.0906	243.5582	273.0299	300.4247	371.596	430.1583	641.5938	673.0399	692.0329	730.1671	748.1578	765.5124	844.5887	880.5895	899.8429	932.302	996.2271	1042.1758	1062.0301	1087.6745	1116.6198	1122.6525	1178.0375	1212.6746	1265.954	1305.2756	1323.2332	1331.7051	1399.0766	1405.3172	1409.4257	1415.1792	1454.9808	1481.0515	1482.6615	1490.837	1495.5554	1499.6249	1510.9395	1533.2866	1569.8742	3024.5584	3031.5854	3034.9153	3047.5224	3065.2085	3071.4347	3089.9634	3104.0547	3111.0269	3146.8902	3243.3799	3270.3978
CCCN1C=CN=C1C	CCCn1ccnc1C	
InChI=1S/C7H12N2/c1-3-5-9-6-4-8-7(9)2/h4,6H,3,5H2,1-2H3	InChI=1S/C7H12N2/c1-3-5-9-6-4-8-7(9)2/h4,6H,3,5H2,1-2H3
