18
gdb 69306	2.45703	1.50997	1.28027	3.0886	72.86	-0.2263	-0.0214	0.2048	1080.4024	0.144363	-439.056601	-439.046975	-439.046031	-439.090783	35.041	
C	-0.0585028462	 1.5726835257	 0.062381421	-0.51354
C	 0.1184781605	 0.0892278055	-0.0101529122	 0.198197
N	-0.8040677709	-0.8744509008	 0.6906343653	-0.356121
C	 0.6327131048	-0.9388555147	 0.9745043193	-0.148221
C	 1.2697850785	-1.7966093613	-0.1275802917	 0.29511
C	 2.7989399976	-1.7429191351	-0.1345769522	-0.446621
O	 0.7892571381	-3.1169535789	-0.1830635071	-0.46665
C	 0.6860177581	-0.7432591171	-1.1386505108	 0.348964
O	 0.8158514599	-0.5917236671	-2.3199018217	-0.326162
H	 0.8302866714	 2.0912307291	-0.3103523288	 0.138727
H	-0.9104568794	 1.8934329446	-0.5463260074	 0.14666
H	-0.2368413876	 1.8980365399	 1.0929645014	 0.123046
H	-1.2400347939	-0.3339898757	 1.4398522487	 0.233839
H	 1.0347072282	-0.7575713655	 1.9640047932	 0.104432
H	 3.1901095478	-2.3709016974	 0.6712894836	 0.129335
H	 3.1818655002	-2.1190958335	-1.0884612302	 0.129636
H	 3.1739522318	-0.7229680425	-0.0016161111	 0.119406
H	 0.9280569411	-3.4423250552	-1.0796314793	 0.289963
80.3021	112.5689	168.5644	186.099	204.0361	228.0777	262.4452	286.6586	330.4031	349.9813	505.2662	561.152	581.2492	662.116	768.4521	788.2824	798.8803	875.8317	917.4484	956.5392	974.7785	1033.2185	1041.553	1077.5648	1105.4315	1110.0138	1184.1551	1222.1492	1272.671	1329.529	1384.413	1397.8367	1402.8779	1431.474	1478.0177	1485.8523	1490.3945	1495.1527	1885.6113	3031.6469	3034.6734	3098.6948	3104.9675	3107.9717	3116.0742	3193.7212	3450.3264	3802.8687
CC12NC1C(C)(O)C2=O	C[C@]12N[C@H]1[C@@](C)(O)C2=O	
InChI=1S/C6H9NO2/c1-5-3(7-5)6(2,9)4(5)8/h3,7,9H,1-2H3	InChI=1S/C6H9NO2/c1-5-3(7-5)6(2,9)4(5)8/h3,7,9H,1-2H3/t3-,5+,6-/m1/s1
