22
gdb 82457	2.32048	1.77497	1.36523	0.8357	86.48	-0.1985	0.0883	0.2868	1082.0781	0.193177	-367.155383	-367.146353	-367.145409	-367.188257	35.443	
C	-0.0143843582	 1.5713129799	-0.0557100194	-0.337131
N	 0.0948073899	 0.1218618123	 0.0356498384	-0.11053
C	 1.0964165491	-0.5933994782	-0.8009033111	-0.024594
C	 2.4946930811	 0.0028199246	-0.4650473689	-0.302323
C	 2.2828147862	-0.5715801858	 0.9379880287	 0.280616
C	 3.3218085058	-0.7220532013	 2.0095447044	-0.506978
C	 1.3031872577	-1.6048321214	 0.3879433504	-0.207981
C	 0.7416621251	-0.4812881512	 1.20355833	 0.326497
C	 0.1067580825	-0.4646037814	 2.5594146759	-0.511968
H	 0.9135355481	 2.1235359331	 0.1632594075	 0.097956
H	-0.3439160289	 1.8418594779	-1.0647362063	 0.116368
H	-0.7818673436	 1.9162624038	 0.6454120283	 0.118081
H	 0.8049463387	-0.8214331106	-1.8256533669	 0.06976
H	 3.2808419733	-0.5493063054	-0.9894933094	 0.095647
H	 2.6574239679	 1.078212983	-0.5996266602	 0.08492
H	 3.6503122727	 0.2548975738	 2.3842978354	 0.118508
H	 2.9459236369	-1.2920092873	 2.8653941417	 0.117082
H	 4.2086077355	-1.2461634376	 1.6332664963	 0.116733
H	 1.2277295777	-2.6794943336	 0.4765721565	 0.088325
H	 0.1054301555	 0.543488411	 2.9906113072	 0.119907
H	-0.9310967339	-0.8080532872	 2.4973706074	 0.128434
H	 0.6391855408	-1.1189737486	 3.2552641541	 0.12267
152.0349	170.161	185.0743	189.4951	214.882	247.9733	307.9401	332.8403	392.4461	484.8363	562.8036	613.5194	624.1664	691.6675	762.3571	796.9783	840.7401	897.1782	907.2656	919.99	945.9709	969.9017	1017.1394	1068.3057	1085.3353	1111.6377	1128.764	1151.7674	1155.1582	1173.8491	1184.394	1221.6098	1237.4642	1253.5309	1290.126	1355.3578	1401.9686	1417.9198	1433.7351	1442.313	1477.1151	1481.2846	1489.647	1494.7634	1495.2143	1508.4635	1515.7988	2972.9911	3018.4837	3028.6097	3033.4007	3059.6464	3073.4222	3086.2925	3087.9405	3092.8697	3095.2464	3112.9706	3117.5795	3212.5342
CN1C2CC3(C)C2C13C	CN1[C@H]2C[C@]3(C)[C@H]2[C@]13C	
InChI=1S/C8H13N/c1-7-4-5-6(7)8(7,2)9(5)3/h5-6H,4H2,1-3H3	InChI=1S/C8H13N/c1-7-4-5-6(7)8(7,2)9(5)3/h5-6H,4H2,1-3H3/t5-,6-,7+,8-/m0/s1
