19
gdb 72621	2.52418	1.46297	1.20849	0.9329	83.5	-0.2261	0.0377	0.2638	1116.5843	0.156766	-385.833948	-385.824729	-385.823785	-385.867206	35.538	
C	 0.0792900655	 1.6084786187	-0.0112451056	-0.497677
C	 0.1191147389	 0.1101542919	 0.0134637497	 0.248031
C	 0.5990672067	-0.7875586368	-1.1381701938	-0.286335
C	 1.2151257238	-1.7893966534	-0.1027148669	-0.29079
C	 0.6764369401	-0.9075570252	 1.0114049664	 0.396725
O	 1.3260914632	-0.7795049873	 2.2152463313	-0.460314
C	-0.8349503006	-0.7496576634	 0.8680999038	-0.345731
C	-1.4710852629	-0.1374847627	 1.9947680295	 0.264838
C	-1.9408770755	 0.3504896885	 2.9922076988	-0.409178
H	 1.0480953039	 2.0164633577	-0.3199354881	 0.119797
H	-0.677171298	 1.9743104225	-0.7162490321	 0.121222
H	-0.1625121661	 2.0152882024	 0.9743290733	 0.131457
H	-0.1826514885	-1.1869923282	-1.792680268	 0.097414
H	 1.3595951948	-0.3038285087	-1.7555267466	 0.107261
H	 0.8635849072	-2.8259544745	-0.1225062365	 0.099078
H	 2.3070895689	-1.7845391175	-0.1290980926	 0.117175
H	 0.6838390253	-0.4871614957	 2.877003835	 0.289051
H	-1.4170630815	-1.5331285726	 0.3821354034	 0.100184
H	-2.398275035	 0.7944252243	 3.8416592891	 0.197791
124.4674	131.0592	174.0467	184.8417	226.7501	307.9633	323.4225	344.6566	395.4042	474.8013	511.6081	553.5467	582.9231	663.4798	672.0519	687.5651	716.856	787.6213	854.7461	928.9897	944.9718	989.1039	1014.7255	1057.942	1094.3106	1123.7273	1133.5051	1197.1214	1210.0179	1231.8256	1237.3728	1306.2356	1328.5216	1410.0786	1411.2696	1425.7024	1479.5941	1487.2894	1494.5201	1509.7982	2217.6052	3024.1588	3044.2322	3052.6381	3081.4873	3091.0021	3098.4049	3113.746	3117.2649	3501.2368	3736.1603
CC12CCC1(O)C2C#C	C[C@@]12CC[C@]1(O)[C@H]2C#C	
InChI=1S/C8H10O/c1-3-6-7(2)4-5-8(6,7)9/h1,6,9H,4-5H2,2H3	InChI=1S/C8H10O/c1-3-6-7(2)4-5-8(6,7)9/h1,6,9H,4-5H2,2H3/t6-,7-,8-/m0/s1
