20
gdb 110031	2.08823	1.68661	1.0683	4.9023	75.3	-0.2412	0.0576	0.2988	1182.1693	0.171269	-440.346412	-440.336996	-440.336051	-440.381586	33.703	
C	 0.0738945268	 1.491586518	 0.202418457	-0.382
C	-0.0026386594	-0.0170459263	-0.0531793474	-0.152151
N	 0.6546846983	-0.4492108893	-1.2765415067	-0.126201
C	 0.0010354581	-0.7085953445	-2.5473405763	 0.002182
C	-0.5809538985	 0.5390712689	-3.2203841794	-0.399347
C	 1.1818012969	-1.336924056	-3.3310967112	-0.10311
O	 2.3629256668	-1.0129277909	-2.5928104552	-0.249031
C	 2.0155256841	-0.5790075964	-1.3412785094	 0.489935
O	 2.8154287821	-0.3577438535	-0.4700427654	-0.414124
H	 1.1192668421	 1.8042539381	 0.2610236633	 0.15218
H	-0.4182304144	 2.0636605969	-0.589417608	 0.115372
H	-0.4121184492	 1.7365398269	 1.1523608782	 0.116125
H	 0.4747093067	-0.5462747094	 0.7776311582	 0.13586
H	-1.0442774995	-0.3526344265	-0.1012328509	 0.103928
H	-0.8007073969	-1.4465572225	-2.4148275678	 0.089026
H	 0.198856487	 1.2888268822	-3.3878154835	 0.132932
H	-1.0222412109	 0.2741996627	-4.1872828113	 0.121064
H	-1.3673820185	 0.9896399554	-2.6078887978	 0.126463
H	 1.0934568115	-2.426773938	-3.3976201963	 0.118663
H	 1.2785667067	-0.9272153456	-4.3396726301	 0.122234
43.6049	71.717	95.128	172.7094	212.6694	267.6193	290.8487	334.4338	359.8191	441.6751	539.2769	641.4748	719.7517	745.6698	769.3081	779.2405	878.8135	947.2137	956.1562	984.3573	1057.3651	1083.0294	1105.2069	1124.8066	1145.9987	1159.4432	1244.7644	1259.7589	1267.0904	1354.0133	1384.021	1391.9259	1398.361	1407.0828	1412.6867	1445.0434	1478.8321	1488.306	1491.3582	1500.1481	1508.1508	1523.4259	1862.4397	3011.3767	3034.2896	3042.4076	3043.6916	3044.3157	3086.5148	3098.4447	3106.7941	3114.1267	3117.2602	3134.2524
CCN1C(C)COC1=O	CCN1[C@@H](C)COC1=O	
InChI=1S/C6H11NO2/c1-3-7-5(2)4-9-6(7)8/h5H,3-4H2,1-2H3	InChI=1S/C6H11NO2/c1-3-7-5(2)4-9-6(7)8/h5H,3-4H2,1-2H3/t5-/m0/s1
