18
gdb 16511	3.72419	2.38455	1.75794	1.045	78.29	-0.2054	-0.0274	0.178	797.3248	0.15427	-310.57136	-310.564726	-310.563781	-310.601455	27.501	
C	 0.1274873277	 1.462463392	 0.0629005235	-0.486866
C	-0.0486612449	-0.0304579655	-0.0993374682	 0.338174
C	 0.8116820931	-0.7670578745	-1.1505399016	-0.306481
C	 0.2429819275	-2.1715678578	-1.0153802183	-0.105427
C	-0.9154682003	-2.1220685595	-0.326963597	 0.047059
C	-0.8042276137	-2.3422118489	 1.1884313558	-0.267003
C	-0.663085251	-0.7737168147	 1.1722221686	-0.104187
C	-1.3911993404	-0.6695972759	-0.1407197392	-0.140081
H	 1.1153120604	 1.704977175	 0.4712787363	 0.119252
H	 0.0387281757	 1.9674808848	-0.90637504	 0.117498
H	-0.6248982561	 1.8926099023	 0.730667221	 0.117727
H	 0.719226287	-0.263656887	-2.1253363866	 0.10261
H	 1.8838002958	-0.7988678029	-0.9159936611	 0.10488
H	 0.9141676444	-3.0238148319	-0.9487734401	 0.09272
H	-1.7253562992	-2.6051922124	 1.7225011311	 0.102475
H	 0.0251636659	-2.9636048183	 1.5387662598	 0.098515
H	-0.8475796393	-0.1609202496	 2.0519735425	 0.085634
H	-2.3588679227	-0.2430873152	-0.3736017865	 0.083501
213.5827	243.0274	290.4887	314.2743	402.7743	433.8234	552.8131	609.6348	671.7186	753.8389	797.7036	824.3255	843.6568	865.647	904.2834	923.2969	945.8887	987.6033	1013.9948	1036.2061	1051.8708	1079.5815	1086.7166	1094.2417	1148.5024	1178.7073	1213.4907	1233.6047	1248.3143	1282.9637	1306.7225	1374.0413	1416.0055	1472.1066	1491.1877	1499.2262	1503.7264	1593.7093	2983.418	3021.844	3024.186	3037.9793	3080.8383	3088.0296	3102.0515	3130.3458	3157.949	3186.6265
CC12CC=C3CC1C23	C[C@@]12C[CH][C]3C[C@@H]1[C@@H]23	
InChI=1S/C8H10/c1-8-3-2-5-4-6(8)7(5)8/h2,6-7H,3-4H2,1H3	InChI=1S/C8H10/c1-8-3-2-5-4-6(8)7(5)8/h2,6-7H,3-4H2,1H3/t6-,7+,8-/m1/s1
