15
gdb 43490	2.44539	1.99398	1.1995	3.226	66.75	-0.2692	-0.0083	0.2609	982.8507	0.115053	-453.98104	-453.974074	-453.97313	-454.012829	26.331	
N	-0.0534256964	 1.3215221454	-0.1593384031	-0.527468
C	-0.0248562391	 0.0692926839	-0.0755983651	 0.405576
O	 1.1097024751	-0.719057801	-0.1403699116	-0.229351
C	 0.7898269	-2.059585661	 0.1121508347	 0.443732
O	 1.6198059378	-2.879022305	 0.359235907	-0.349242
N	-0.5869005465	-2.2021982822	 0.0428266435	-0.153985
C	-1.3174619005	-2.6392435896	 1.2745464399	-0.183047
C	-1.8092435464	-1.1763779956	 1.4837739671	-0.252896
C	-1.2011438299	-0.8601331398	 0.0825292592	-0.068334
H	 0.8834299978	 1.7105571071	-0.2747378034	 0.240999
H	-2.1074205638	-3.3536043825	 1.0349545726	 0.133152
H	-0.6586221191	-3.0657763964	 2.0332194805	 0.146465
H	-2.8857613617	-1.0307132461	 1.5710213489	 0.129551
H	-1.3060847452	-0.6545803928	 2.29956302	 0.136081
H	-1.9437850523	-0.6860981043	-0.6994788904	 0.128767
92.7596	149.7009	228.7374	245.1872	375.3309	506.7514	616.3446	654.9907	671.654	726.0265	763.2025	792.0481	821.5269	903.2685	911.6067	934.2864	969.471	1045.0114	1050.9563	1096.8251	1109.723	1153.3863	1201.8125	1233.7422	1254.7319	1260.1693	1312.4221	1337.0484	1346.069	1487.2312	1516.1421	1798.1862	1913.5215	3076.9523	3086.7606	3089.1707	3130.5582	3153.2473	3485.8949
N=C1OC(=O)N2CCC12	[NH][C]1OC(=O)N2CC[C@@H]12	
InChI=1S/C5H6N2O2/c6-4-3-1-2-7(3)5(8)9-4/h3,6H,1-2H2	InChI=1S/C5H6N2O2/c6-4-3-1-2-7(3)5(8)9-4/h3,6H,1-2H2/t3-/m0/s1
