17
gdb 18066	4.65605	1.37637	1.31241	3.4717	70.03	-0.2539	0.0222	0.2761	988.9488	0.142833	-363.824025	-363.816571	-363.815627	-363.856499	27.404	
N	-0.220196431	 1.1627596263	 0.0110685444	-0.441571
C	-0.3611028968	-0.0657491152	 0.2630019168	 0.130126
O	-1.0249613916	-0.8592330819	-0.6051133312	-0.190165
C	-1.0541405428	-2.2337665631	-0.2862317056	 0.113445
C	-1.8852455745	-2.7931107959	 0.828969646	-0.108335
C	-3.1760289255	-1.9829520445	 1.0055029211	-0.229076
C	-3.5281330185	-2.2235857897	-0.4964162329	-0.22084
C	-2.2418328282	-3.0428470369	-0.6610945979	-0.103006
H	 0.2913938009	 1.613293133	 0.7671672417	 0.228024
H	 0.0026516598	-0.601908994	 1.1495923107	 0.088844
H	-0.095053248	-2.7244446142	-0.4393856895	 0.104139
H	-1.460055488	-3.4693812339	 1.5619628287	 0.089016
H	-3.882431306	-2.4733055879	 1.6777799627	 0.107793
H	-3.0526030798	-0.9441131389	 1.3243788341	 0.110827
H	-4.4277061198	-2.8293744531	-0.617543236	 0.105838
H	-3.6032508046	-1.3375999908	-1.1306311991	 0.122317
H	-2.1401597956	-3.9428511093	-1.2559005139	 0.092623
59.7117	96.8357	156.295	239.7859	277.5836	483.1103	490.2013	675.8935	732.2748	760.736	794.5996	817.1095	828.8312	929.3856	961.2725	967.6419	990.1433	1018.4549	1033.9304	1050.5216	1081.3676	1085.9365	1135.6327	1153.0588	1213.1346	1230.3419	1250.3766	1267.4768	1287.6715	1303.4155	1348.7743	1409.5713	1433.5514	1477.5931	1500.3483	1745.4219	3032.4995	3060.208	3074.23	3110.4475	3129.1802	3130.8358	3171.197	3184.473	3515.3746
N=COC1C2CCC12	[NH][CH]O[C@H]1[C@H]2CC[C@@H]12	
InChI=1S/C6H9NO/c7-3-8-6-4-1-2-5(4)6/h3-7H,1-2H2	InChI=1S/C6H9NO/c7-3-8-6-4-1-2-5(4)6/h3-7H,1-2H2/t4-,5+,6-
