25
gdb 59526	3.82621	0.86125	0.77478	0.1557	94.15	-0.2593	0.085	0.3443	1611.3169	0.228065	-352.342929	-352.33297	-352.332026	-352.377764	38.535	
C	-0.219560389	 1.4621139625	 0.0332414348	-0.389237
C	 0.0167376068	-0.051987524	-0.0529905117	 0.019365
C	 0.7716587606	-0.4196784201	-1.3377760785	-0.389235
C	 0.7490248099	-0.5678930092	 1.1845357597	 0.082771
C	 0.0325773897	-0.4837309525	 2.5687804538	-0.329082
C	 0.5325779642	-1.9036694012	 2.8613442804	 0.385262
C	 1.3949976994	-2.2976058971	 4.0255453943	-0.315545
C	 0.0158973105	-2.8987568347	 3.8534982874	-0.331754
C	 0.8891175232	-2.1096652394	 1.3840957944	-0.329082
H	 0.7332957246	 2.0046687413	 0.0596829133	 0.109533
H	-0.7828332239	 1.825149814	-0.8329257925	 0.107552
H	-0.7805977263	 1.7312985515	 0.9339149987	 0.114632
H	-0.9657555289	-0.5473951875	-0.0833431662	 0.063889
H	 1.7594205618	 0.0566088895	-1.3596090562	 0.109532
H	 0.9219075568	-1.5008565992	-1.4209353053	 0.114632
H	 0.2250930979	-0.0883504292	-2.2270480848	 0.107552
H	 1.7356675838	-0.0923095375	 1.2451675736	 0.063583
H	 0.3478404702	 0.3099384792	 3.2520736581	 0.094385
H	-1.0578287342	-0.4378748803	 2.4606737525	 0.093356
H	 2.2553306261	-2.9324926613	 3.8363040594	 0.107646
H	 1.541051798	-1.5766053645	 4.8242272233	 0.107646
H	-0.7672064761	-2.5834613399	 4.5363642045	 0.107428
H	-0.0532840266	-3.9386717091	 3.5489335897	 0.107428
H	 0.1142032079	-2.6626929724	 0.8396284291	 0.093356
H	 1.8600814135	-2.5606851287	 1.1604853081	 0.094385
54.5925	87.3978	142.7108	226.2421	238.3168	274.9933	277.2966	306.1933	318.1089	378.4068	443.6539	450.2207	556.2793	704.194	774.5063	821.2978	843.2814	877.9697	904.7435	907.308	921.6003	929.2256	960.0997	981.7826	1005.4405	1008.2778	1049.972	1060.4075	1074.1927	1082.5663	1144.7702	1171.4288	1187.023	1195.6849	1231.6269	1233.1887	1247.0043	1256.6321	1284.7226	1317.7571	1350.9974	1375.4949	1398.2454	1398.3923	1419.8344	1463.7104	1474.5478	1487.3242	1491.911	1496.2976	1503.4067	1505.4927	1510.2562	2984.9907	3021.7056	3023.3215	3025.4068	3028.7634	3032.7888	3084.562	3085.8648	3087.0989	3092.0134	3098.3063	3100.2355	3115.7354	3120.137	3192.8231	3208.0726
CC(C)C1CC2(CC2)C1	CC(C)C1CC2(CC2)C1	
InChI=1S/C9H16/c1-7(2)8-5-9(6-8)3-4-9/h7-8H,3-6H2,1-2H3	InChI=1S/C9H16/c1-7(2)8-5-9(6-8)3-4-9/h7-8H,3-6H2,1-2H3
