24
gdb 120490	3.14011	0.90777	0.78147	1.3562	88.3	-0.2067	0.0865	0.2932	1605.4984	0.215043	-405.523726	-405.512979	-405.512035	-405.559871	38.773	
C	 0.0023571835	 1.4988823319	 0.0747435513	-0.385236
C	-0.0234318444	-0.0088247983	 0.260844627	-0.035326
O	-1.2380071937	-0.5038462074	-0.2696863954	-0.252573
C	-1.3696243723	-1.8980227663	-0.1850370305	 0.11769
C	-1.8689189816	-2.4425718608	 1.1819024224	-0.202418
N	-3.2371866103	-2.4769521675	 0.6387579757	-0.068324
C	-4.094385315	-3.5831015963	 0.9928007404	-0.323826
C	-2.7331850407	-2.3794400805	-0.7494293851	 0.037951
C	-3.5171648576	-1.4743572268	-1.6826748972	-0.394278
H	 0.9336036971	 1.9164960444	 0.4690354986	 0.113415
H	-0.0730484384	 1.7550662625	-0.985846452	 0.126277
H	-0.8371386391	 1.9637614782	 0.5993141256	 0.12852
H	 0.8310619871	-0.4793385514	-0.2552108858	 0.084391
H	 0.0655034257	-0.265732191	 1.3287254744	 0.089112
H	-0.4781100428	-2.3912581192	-0.5952875924	 0.061481
H	-1.454354887	-3.4406921671	 1.4035369937	 0.077447
H	-1.7370470046	-1.798618278	 2.0588370799	 0.100409
H	-4.3325213213	-3.5451139746	 2.0614462536	 0.118318
H	-5.0379253508	-3.5172512388	 0.4404853244	 0.119465
H	-3.6419320249	-4.5722930213	 0.7795199122	 0.084133
H	-2.6046589822	-3.377939549	-1.2055953151	 0.04912
H	-3.5755798303	-0.4652692953	-1.2718638935	 0.135369
H	-3.0405126736	-1.4252565842	-2.6673963366	 0.109941
H	-4.5334881532	-1.858970993	-1.8202248856	 0.10894
57.3958	86.9644	103.8582	140.2715	190.969	211.0573	231.0949	250.0304	274.0237	307.5838	342.084	423.1212	479.2583	542.4154	705.4271	783.4954	820.9839	847.9012	908.7268	917.0084	976.2634	1007.7095	1024.3394	1071.8334	1089.0666	1122.3847	1136.7389	1156.5654	1181.6819	1188.5665	1202.7598	1212.7124	1242.2847	1273.5267	1296.0473	1301.0357	1336.6218	1374.0416	1384.0874	1402.9032	1406.2578	1441.9799	1451.0069	1483.3514	1484.4744	1485.3495	1492.6554	1497.1481	1499.7826	1506.602	1529.1524	2905.9212	2929.1401	2955.9915	2957.7673	2986.5296	3010.2602	3037.8279	3044.9788	3051.5884	3053.1344	3094.2318	3099.206	3119.4301	3121.961	3142.192
CCOC1CN(C)C1C	CCO[C@H]1CN(C)[C@H]1C	
InChI=1S/C7H15NO/c1-4-9-7-5-8(3)6(7)2/h6-7H,4-5H2,1-3H3	InChI=1S/C7H15NO/c1-4-9-7-5-8(3)6(7)2/h6-7H,4-5H2,1-3H3/t6-,7-/m0/s1
