17
gdb 9475	2.87766	1.67547	1.52037	4.8579	68.47	-0.2755	0.0307	0.3062	928.1148	0.141737	-363.870275	-363.862035	-363.861091	-363.902528	30.784	
C	 0.3254281893	 1.4246343973	-0.0460397276	-0.456764
C	-0.0187600197	-0.0705406719	-0.0346185447	 0.11503
C	 0.8734006178	-0.9220954946	-1.0021223776	-0.256125
C	 1.8097273616	-1.264927803	 0.1865107949	-0.278342
C	 0.6743205759	-0.8546481112	 1.1559116234	 0.133775
O	 0.9577445198	-0.1888339778	 2.3484403218	-0.415277
C	-1.4563784512	-0.2692846138	-0.1550203966	 0.228916
N	-2.595418637	-0.4499981807	-0.245885505	-0.345836
H	 1.4100106002	 1.5728882284	-0.0197053135	 0.113309
H	-0.0516642546	 1.8995304572	-0.9555052685	 0.142794
H	-0.1160188364	 1.9308656794	 0.8163972916	 0.147363
H	 0.3412854327	-1.7959119492	-1.3813017763	 0.130304
H	 1.3042760098	-0.3767986628	-1.843545597	 0.116593
H	 2.1869745284	-2.2856864413	 0.264192491	 0.117988
H	 2.6591766076	-0.5770625787	 0.2503877144	 0.103384
H	 0.0588095234	-1.7149990959	 1.4290768889	 0.116932
H	 1.6069812625	 0.5002207589	 2.1728713206	 0.285957
114.8103	152.351	196.612	226.3136	252.7472	312.343	334.014	387.7287	496.264	536.3617	576.0422	604.7205	707.1824	796.7393	885.2534	912.3082	931.3673	964.9401	977.6516	1071.1928	1126.6129	1150.7565	1173.3115	1212.8963	1228.1389	1245.9477	1261.4084	1309.6364	1330.3895	1405.7928	1438.6199	1478.337	1494.3785	1497.2205	1498.7962	2345.6869	3039.8117	3055.233	3080.4074	3090.2122	3110.9294	3121.2444	3127.5004	3139.7918	3815.5602
CC1(CCC1O)C#N	C[C@]1(CC[C@H]1O)C#N	
InChI=1S/C6H9NO/c1-6(4-7)3-2-5(6)8/h5,8H,2-3H2,1H3	InChI=1S/C6H9NO/c1-6(4-7)3-2-5(6)8/h5,8H,2-3H2,1H3/t5-,6+/m1/s1
