17
gdb 93056	2.56556	1.6156	1.03741	3.626	79.52	-0.2455	-0.0827	0.1628	1111.2414	0.137275	-421.860295	-421.85255	-421.851606	-421.892634	30.004	
O	 0.1759429105	 1.3919497657	 0.2610756396	-0.440108
C	 0.0523815853	 0.0074016745	 0.0875261139	 0.036683
C	-1.4258977686	-0.3969876307	 0.1832234715	-0.287106
C	-1.6484608717	-1.8566586887	 0.4513398974	-0.073917
C	-1.0223744771	-2.8800657563	-0.1526200307	-0.074658
C	-0.0643733921	-2.8123700142	-1.2447552213	-0.060344
C	 0.6344211687	-1.7701251562	-1.7435787635	-0.154343
C	 0.701015822	-0.3938723277	-1.2437258531	 0.330474
O	 1.3181142538	 0.4627529227	-1.8601189168	-0.356972
H	 0.7403814888	 1.6835145065	-0.4756417644	 0.292345
H	 0.6034553904	-0.5336894879	 0.8792257835	 0.092441
H	-1.8618500929	 0.1990715414	 0.9892239373	 0.131317
H	-1.9514579117	-0.096052968	-0.7364064289	 0.127154
H	-2.4040129434	-2.1012136443	 1.1936045204	 0.110076
H	-1.3057874694	-3.887783252	 0.1388980478	 0.100006
H	 0.085075471	-3.7624636005	-1.7548769722	 0.112732
H	 1.2567626866	-1.9290885144	-2.6191554304	 0.114222
81.7607	138.7276	243.8547	325.0041	342.4966	379.0012	404.7018	460.6662	529.0653	547.0398	629.6296	698.8763	710.4132	787.722	850.7011	864.8746	913.7438	965.8572	1003.5347	1026.3146	1038.9893	1087.875	1129.0927	1177.379	1202.1774	1259.2942	1271.7972	1298.8729	1326.5575	1377.9338	1420.8009	1449.0825	1460.3593	1467.4686	1639.5044	1693.2021	1734.1896	2930.9038	2998.2823	3092.8936	3139.7721	3154.3716	3174.2123	3182.3992	3645.406
OC1CC=CC=CC1=O	O[C@H]1CC=CC=CC1=O	
InChI=1S/C7H8O2/c8-6-4-2-1-3-5-7(6)9/h1-4,7,9H,5H2	InChI=1S/C7H8O2/c8-6-4-2-1-3-5-7(6)9/h1-4,7,9H,5H2/t7-/m0/s1
