19
gdb 103310	2.44041	1.55496	1.13845	2.4155	75.56	-0.2439	0.0081	0.252	1110.9288	0.158298	-422.983215	-422.974496	-422.973551	-423.016376	33.448	
C	-0.1154918926	 1.5827340702	 0.0469404418	-0.482871
C	-0.0223639388	 0.0571522858	 0.0363348336	 0.319837
C	-1.4301058053	-0.5297046821	-0.141055803	-0.14855
O	-2.0302883275	-0.1479641304	-1.3717469548	-0.414522
C	 1.1279088303	-0.6242498318	-0.8204328466	-0.217083
C	 2.1328799114	-0.1684999463	 0.2949786356	-0.255737
C	 0.8889276355	-0.6650534834	 1.111263466	-0.216868
C	 0.9346893604	-1.8327098792	 0.1108701066	 0.440866
O	 0.9087541664	-3.0241296414	 0.0802574963	-0.334802
H	 0.8439587707	 2.098974094	 0.0059089498	 0.117235
H	-0.7093570855	 1.9019047206	-0.8133996189	 0.142908
H	-0.6374182207	 1.9194130367	 0.9496560461	 0.121321
H	-1.4162430662	-1.6232625644	-0.0343782921	 0.115156
H	-2.0879514147	-0.1356870927	 0.6420644139	 0.11109
H	-1.5787060815	-0.6211337713	-2.0779912643	 0.288036
H	 1.2762201451	-0.5915749269	-1.8988002366	 0.087213
H	 3.0518882868	-0.7483835213	 0.3961337997	 0.118566
H	 2.335715424	 0.89846344	 0.3447451781	 0.117152
H	 0.762879302	-0.680333136	 2.1923550089	 0.091052
90.017	151.9917	167.9063	179.4138	270.524	294.101	371.1748	394.1602	445.8373	474.2962	515.4013	648.7004	700.4018	766.0041	767.412	823.8776	882.0911	932.6231	942.602	949.8624	1020.9663	1043.6283	1053.4548	1063.3776	1098.5909	1102.7568	1135.8247	1155.4258	1192.5169	1204.8701	1226.5204	1241.2231	1303.0123	1396.6711	1407.3887	1422.9486	1485.9535	1497.7706	1505.3876	1532.2027	1911.894	3009.8586	3043.9636	3066.9152	3088.2693	3110.1513	3131.1128	3137.0994	3139.5101	3169.0553	3817.9165
CC1(CO)C2CC1C2=O	C[C@@]1(CO)[C@H]2C[C@@H]1C2=O	
InChI=1S/C7H10O2/c1-7(3-8)4-2-5(7)6(4)9/h4-5,8H,2-3H2,1H3	InChI=1S/C7H10O2/c1-7(3-8)4-2-5(7)6(4)9/h4-5,8H,2-3H2,1H3/t4-,5+,7+
