22
gdb 90090	3.86536	1.21954	1.14826	1.187	89.32	-0.212	0.071	0.283	1195.3357	0.193765	-367.059337	-367.050895	-367.049951	-367.091679	34.204	
C	-0.1942540853	 1.6253583983	-0.1652372318	-0.410066
C	-0.0342441448	 0.1175846994	-0.0060726144	-0.015355
C	 0.9448203386	-0.6483998081	-1.0166878972	-0.361488
C	 1.8658578919	-0.8383282083	 0.2012046176	 0.310855
C	 2.642826971	 0.3703940737	 0.8237682097	-0.276003
C	 2.0795113371	-0.4716454238	 1.9700720643	-0.05479
C	 0.7340595682	-0.6138374766	 1.1901261932	-0.032482
N	 2.4910711624	-1.7947727823	 1.217700313	-0.170638
C	 3.9081322782	-2.1439267222	 1.1468244316	-0.335468
H	 0.7499349304	 2.154367895	-0.3124573545	 0.121951
H	-0.820551522	 1.8405165143	-1.038627055	 0.115003
H	-0.6895868165	 2.0571110471	 0.7107870337	 0.121847
H	-1.035453699	-0.319851378	-0.0383919356	 0.087938
H	 0.4942108734	-1.5754435943	-1.3798771433	 0.113897
H	 1.3474394025	-0.0820668318	-1.8622262661	 0.099467
H	 3.723801176	 0.381316207	 0.6853558233	 0.096081
H	 2.237572962	 1.3725785203	 0.6984096021	 0.099318
H	 2.2688020433	-0.3954879169	 3.0459154084	 0.072702
H	 0.2036887628	-1.5281846244	 1.4603085129	 0.080379
H	 4.2041699486	-2.5785921146	 2.1076393855	 0.119355
H	 4.0286568982	-2.9205457026	 0.3843089993	 0.122252
H	 4.6123159628	-1.3309274711	 0.9123250832	 0.095247
144.5908	164.471	182.1115	237.5791	272.6381	302.5575	381.2692	425.7112	477.2218	553.9135	562.4191	656.1107	684.5988	755.835	799.4493	822.6264	831.8046	892.7557	914.0044	950.2865	980.5665	1028.2454	1039.2738	1068.554	1094.0277	1108.9972	1119.5462	1146.1767	1154.1111	1162.5045	1181.1966	1196.3227	1204.8515	1218.9611	1233.3535	1257.9316	1282.0369	1344.6662	1376.4506	1415.6827	1436.2787	1472.9772	1479.4183	1492.6895	1496.9798	1503.3982	1532.9707	2980.1407	3033.274	3048.1828	3051.4779	3060.009	3061.5471	3092.1077	3095.7543	3097.0902	3101.4973	3112.5285	3119.9817	3159.115
CC1CC23CC(C12)N3C	C[C@H]1C[C@@]23C[C@@H]([C@@H]12)N3C	
InChI=1S/C8H13N/c1-5-3-8-4-6(7(5)8)9(8)2/h5-7H,3-4H2,1-2H3	InChI=1S/C8H13N/c1-5-3-8-4-6(7(5)8)9(8)2/h5-7H,3-4H2,1-2H3/t5-,6-,7+,8+/m0/s1
