12
gdb 20472	6.45738	1.42455	1.25847	2.7188	56.18	-0.2705	-0.0462	0.2243	896.8345	0.083745	-414.604787	-414.598453	-414.597509	-414.636006	22.513	
C	 0.9056146265	 1.1049507487	-0.0125764781	-0.165462
O	 0.2116593645	 0.1475310472	-0.8129978776	-0.226451
C	-0.4194139336	 0.5945687993	 0.3861547836	-0.03491
C	-0.5754080238	-0.4315366812	 1.433385599	 0.249635
C	-0.1110973752	-1.7077758169	 1.4993689822	-0.040371
O	-0.5181286986	-2.2548956077	 2.6407880067	-0.15852
N	-1.2857924721	-1.25381737	 3.3142027481	 0.001054
N	-1.2972612301	-0.2267535021	 2.5897168646	-0.185695
H	 1.7909911449	 0.7339736933	 0.5001184906	 0.124548
H	 0.9871842696	 2.1021024365	-0.4415870229	 0.130212
H	-1.2819006954	 1.2452202222	 0.2488299314	 0.121958
H	 0.4751098133	-2.3132342793	 0.8291111523	 0.184003
66.1447	168.387	178.8851	406.385	459.0299	626.2786	646.4681	668.7007	727.5462	862.3913	870.5938	899.3649	979.3379	1007.8131	1059.7496	1093.3442	1144.0991	1152.6663	1167.3216	1240.3276	1271.2582	1325.0608	1416.9145	1473.7097	1522.827	1625.4073	3090.8702	3126.9498	3185.58	3296.4543
C1OC1C1=CON=N1	C1O[C@H]1c1conn1	
InChI=1S/C4H4N2O2/c1-3(4-2-7-4)5-6-8-1/h1,4H,2H2	InChI=1S/C4H4N2O2/c1-3(4-2-7-4)5-6-8-1/h1,4H,2H2/t4-/m1/s1
