16
gdb 125696	4.4892	1.05264	0.85774	1.2281	76.14	-0.2399	-0.0383	0.2016	1309.0124	0.124681	-434.081501	-434.07294	-434.071996	-434.114983	31.516	
C	 0.0127288163	 1.4813770836	-0.0720881174	-0.494056
C	 0.0331741828	-0.0097207503	 0.0324087861	 0.392751
N	-0.005441543	-0.7457478388	-1.0578540852	-0.201245
O	 0.0282555482	-2.0680624975	-0.6237461893	-0.242384
C	 0.085327137	-2.0892609838	 0.7228859031	 0.491207
C	 0.0913701676	-0.8180804569	 1.2025667219	-0.411942
C	 0.1172056912	-3.4041774684	 1.3902795513	 0.227743
N	 0.1936403596	-4.4760769727	 0.5295265748	-0.554351
N	 0.1102408159	-3.4169681605	 2.6708519584	-0.514489
H	 0.9109292078	 1.9156677363	 0.378364427	 0.141854
H	-0.0356105864	 1.7840253995	-1.1196485989	 0.150597
H	-0.8523594974	 1.8969194164	 0.4544638693	 0.14147
H	 0.1309536958	-0.5171924228	 2.2351045755	 0.139959
H	-0.035583988	-4.3241146852	-0.4398079279	 0.272995
H	-0.0241319204	-5.3874329765	 0.8978334329	 0.253491
H	 0.1388146831	-4.3714929923	 3.0332754285	 0.206399
66.8283	124.988	144.6366	173.1825	315.5052	327.7349	378.1357	400.8557	436.8803	515.7157	593.6955	618.7381	664.5521	718.3753	763.3597	847.4328	861.9345	950.8194	981.3239	1008.8928	1047.2007	1067.3764	1094.8394	1114.2466	1150.3454	1272.6579	1398.2278	1405.1145	1448.3897	1480.4016	1481.9669	1530.0631	1629.6533	1659.7927	1708.3948	3044.9002	3102.3255	3141.1742	3293.6949	3461.1689	3592.0649	3711.2224
CC1=NOC(=C1)C(N)=N	Cc1noc(c1)C(=N)N	
InChI=1S/C5H7N3O/c1-3-2-4(5(6)7)9-8-3/h2H,1H3,(H3,6,7)	InChI=1S/C5H7N3O/c1-3-2-4(5(6)7)9-8-3/h2H,1H3,(H3,6,7)
