19
gdb 90151	3.19531	1.49886	1.39185	1.2457	73.71	-0.2247	0.0722	0.2969	1019.1793	0.159347	-422.969564	-422.961825	-422.960881	-423.001425	30.779	
C	-0.2146634607	 1.4536002288	 0.0079633679	-0.405505
C	 0.0859016671	-0.0344734711	 0.1105554387	-0.037275
C	 1.1470085949	-0.6837960125	-0.8632817323	-0.318775
C	 1.9141954028	-1.1965693271	 0.3680925353	 0.302048
C	 2.3773845455	-0.1199763236	 1.3130213147	-0.377322
C	 0.9300305847	-0.5492964128	 1.2987757829	 0.286417
O	 0.5378198284	-1.5305228519	 2.2191728452	-0.290204
C	 0.904261268	-2.7717053032	 1.6094540058	-0.000965
O	 2.041614962	-2.5302988247	 0.7745664332	-0.289997
H	 0.7006862583	 2.0528344092	 0.0600057284	 0.116315
H	-0.7102382158	 1.6883800265	-0.940297832	 0.115292
H	-0.8715313833	 1.7779044796	 0.8217868559	 0.12401
H	-0.8448888999	-0.607942789	 0.0699704181	 0.088713
H	 0.7318305965	-1.4907926007	-1.4695637739	 0.115461
H	 1.7025089295	-0.0014479459	-1.5145109329	 0.103255
H	 2.9365967438	-0.4785010745	 2.1678885836	 0.133058
H	 2.6744764577	 0.8542593205	 0.9338494142	 0.114937
H	 1.1792390015	-3.4857246477	 2.3900463396	 0.124847
H	 0.0675475789	-3.1618332099	 1.0072223675	 0.095688
129.5838	173.9706	215.569	240.9472	315.6958	366.6102	424.3868	456.8195	550.0531	621.9214	690.7847	774.8339	797.2974	814.4286	846.0219	897.9285	902.2926	933.8957	950.0317	993.6501	1034.1113	1063.7663	1069.856	1092.9691	1143.4714	1162.0932	1177.7133	1200.0696	1213.2355	1240.8212	1270.5088	1282.0837	1342.621	1377.5452	1410.9645	1414.8743	1458.7716	1479.9631	1492.7972	1494.7858	1536.0657	2969.0564	3029.8209	3050.7888	3060.7386	3097.2465	3101.2501	3101.5957	3120.834	3122.0036	3236.1398
CC1CC23CC12OCO3	C[C@H]1C[C@@]23C[C@@]12OCO3	
InChI=1S/C7H10O2/c1-5-2-6-3-7(5,6)9-4-8-6/h5H,2-4H2,1H3	InChI=1S/C7H10O2/c1-5-2-6-3-7(5,6)9-4-8-6/h5H,2-4H2,1H3/t5-,6+,7+/m0/s1
