24
gdb 104778	2.2115	1.43806	1.06487	1.5503	88.57	-0.2242	0.0806	0.3048	1270.4453	0.217263	-368.375554	-368.365875	-368.364931	-368.409725	37.497	
C	 0.8380999734	-0.1992147499	-1.2906783044	-0.392881
C	-0.0263540351	-0.0898060981	-0.0294089345	-0.23684
C	 0.6270246308	-0.6415040083	 1.2428073654	 0.364024
C	 1.9580389217	 0.030003326	 1.614152282	-0.239496
C	 1.8743740392	 1.5395826805	 1.8649749256	-0.394183
C	-0.3331177978	-0.7590685335	 2.497256263	-0.291409
C	-0.0961048027	-2.2702383435	 2.4972991395	-0.036431
N	-0.5790872375	-2.770318428	 1.1858475208	-0.343139
C	 0.7774157227	-2.1821149544	 1.2990241397	-0.096561
H	 1.1551585604	-1.2337870893	-1.4639624726	 0.115038
H	 0.2771831286	 0.1231891355	-2.1734846428	 0.110643
H	 1.7398717337	 0.4192193665	-1.2332338467	 0.112318
H	-0.3117733346	 0.957105301	 0.1340479136	 0.088538
H	-0.9570354222	-0.6438380361	-0.1842340713	 0.117742
H	 2.3526960463	-0.4641714821	 2.5119209132	 0.089347
H	 2.6924905625	-0.1653866162	 0.8223327818	 0.094084
H	 1.1382745481	 1.7779990431	 2.640295803	 0.116858
H	 2.8413610815	 1.9305675253	 2.1964550393	 0.111102
H	 1.590451641	 2.0874368536	 0.9613370188	 0.121134
H	 0.0682904441	-0.2551330574	 3.3795841021	 0.097151
H	-1.3720117531	-0.45509309	 2.3441954627	 0.100172
H	-0.0414245271	-2.9348117789	 3.3510298771	 0.087469
H	-0.4633343694	-3.783582067	 1.1909678499	 0.224889
H	 1.6555938054	-2.7602194088	 1.032631535	 0.080433
75.498	125.6074	167.8403	182.582	203.9368	221.9727	298.8721	326.9377	369.5988	414.2972	448.1074	542.5771	644.4217	756.1431	767.9877	798.1122	813.6808	841.2659	872.1114	924.8946	937.0352	956.0735	977.765	993.5334	1024.4056	1042.8632	1046.7702	1081.0931	1090.5421	1111.0797	1150.4325	1163.5151	1194.8101	1226.7066	1254.757	1291.7152	1301.502	1326.6581	1332.7922	1366.4681	1383.8737	1389.0913	1407.5115	1411.3834	1473.3393	1485.0749	1491.3036	1500.3355	1502.1503	1503.6699	1513.7306	3014.1921	3029.0501	3030.8246	3037.1502	3044.6102	3058.8876	3077.1797	3097.606	3100.305	3102.1569	3108.629	3115.5727	3167.0674	3186.9782	3468.6408
CCC1(CC)CC2NC12	CCC1(CC)C[C@H]2N[C@@H]12	
InChI=1S/C8H15N/c1-3-8(4-2)5-6-7(8)9-6/h6-7,9H,3-5H2,1-2H3	InChI=1S/C8H15N/c1-3-8(4-2)5-6-7(8)9-6/h6-7,9H,3-5H2,1-2H3/t6-,7-/m1/s1
