20
gdb 120343	3.96388	0.99253	0.88086	1.888	81.36	-0.2281	0.0059	0.234	1387.1848	0.171201	-403.112561	-403.103897	-403.102953	-403.146652	32.448	
C	-0.0469894909	 1.5202711866	-0.0707511633	-0.383608
C	-0.0380817361	 0.0162366449	 0.1464487821	-0.032452
O	-1.3368027593	-0.4763770484	-0.1174769573	-0.252648
C	-1.4563322284	-1.8834828305	-0.0341814606	 0.131379
C	-1.5318857304	-2.4449426644	 1.3846718492	-0.119193
C	-2.6140359218	-3.2009446716	 1.5691369427	-0.046423
C	-3.4663358192	-3.2096293542	 0.339124497	-0.091483
N	-3.9808573614	-1.8446382636	 0.0313148022	-0.315356
C	-2.770613545	-2.3531016575	-0.651215211	-0.091905
H	 0.9452283197	 1.9400252763	 0.1208348124	 0.111026
H	-0.3338774908	 1.7567583242	-1.0992998628	 0.124768
H	-0.7640848883	 1.9985093012	 0.6021484285	 0.130959
H	 0.6946572352	-0.4680233805	-0.5225473981	 0.081073
H	 0.2694058786	-0.2154735583	 1.1790519288	 0.086471
H	-0.6124324736	-2.3456234032	-0.5785722524	 0.063905
H	-0.7877823059	-2.2152756707	 2.1381639377	 0.099169
H	-2.8895955406	-3.7050534556	 2.4881840396	 0.100194
H	-4.0537605578	-4.0759461664	 0.0558460731	 0.089428
H	-4.7588248015	-1.9295829131	-0.6219959911	 0.227122
H	-2.8138338226	-2.5440509652	-1.7172963469	 0.087573
57.153	81.2763	114.325	213.5526	247.8267	292.5662	354.2416	429.6527	480.8124	599.3422	703.8316	751.1153	803.8486	816.6847	823.8092	868.3713	902.8686	919.2471	936.9363	948.7993	976.8676	1020.8624	1052.4132	1077.6112	1113.3982	1139.2849	1148.3637	1165.5173	1169.9472	1187.3121	1250.284	1296.7707	1310.1131	1338.2575	1351.9343	1393.5203	1401.2016	1414.9178	1438.7382	1481.9582	1500.0094	1528.5352	1671.1983	2929.4661	2952.0374	2982.5763	3044.6954	3118.4182	3122.9707	3169.3558	3178.9522	3190.1609	3214.563	3470.1345
CCOC1C=CC2NC12	CCO[C@H]1C=C[C@H]2N[C@@H]12	
InChI=1S/C7H11NO/c1-2-9-6-4-3-5-7(6)8-5/h3-8H,2H2,1H3	InChI=1S/C7H11NO/c1-2-9-6-4-3-5-7(6)8-5/h3-8H,2H2,1H3/t5-,6+,7-/m1/s1
