19
gdb 36644	5.60061	0.75205	0.74561	4.7098	81.06	-0.2424	0.0385	0.2808	1537.4339	0.161012	-382.003603	-381.99546	-381.994516	-382.037406	30.472	
N	-0.048854285	-1.2025190144	-0.6378906912	-0.306703
C	 0.0178265944	-0.0488929895	-0.6565627345	 0.254922
C	 0.1259275069	 1.4070971066	-0.6678172928	-0.327844
C	 1.4340606486	 1.9093277505	-0.017156029	-0.263386
C	 1.4851694029	 3.4276745047	-0.0472334591	 0.087524
C	 2.7927526926	 4.2602766123	-0.0177656003	-0.089452
C	 2.9743951479	 3.8160624144	-1.4847817353	-0.176487
N	 1.4644730152	 4.1287577497	-1.4316149201	-0.158446
C	 1.9114664342	 5.3690234799	-0.6327918683	-0.164438
H	 0.0707047671	 1.7659757031	-1.7008840779	 0.175171
H	-0.7428047873	 1.8255054155	-0.1461431663	 0.150764
H	 1.4740636801	 1.5771344848	 1.0261483075	 0.12516
H	 2.2846423798	 1.4469731552	-0.5229128207	 0.125413
H	 0.6807179846	 3.8219618282	 0.5865591312	 0.074708
H	 3.539850021	 4.3363431093	 0.7798196413	 0.070426
H	 3.5240184101	 4.4849775818	-2.1517670119	 0.106942
H	 3.2151618834	 2.7763513547	-1.7073200455	 0.106341
H	 1.1178733473	 5.8025273485	-0.0179193568	 0.103476
H	 2.3975937062	 6.1266314048	-1.2520426605	 0.105908
56.5602	78.8884	105.1674	206.8633	348.7157	373.5954	404.7676	504.5906	602.7082	631.9747	732.8731	769.6265	785.0556	822.5569	872.8436	904.8273	922.6922	963.5756	1007.4718	1033.1658	1041.6255	1055.5923	1091.991	1118.8356	1151.761	1165.264	1179.0951	1199.6583	1208.7479	1230.9065	1251.3158	1270.6109	1299.9529	1314.2659	1371.4824	1440.0479	1469.4533	1491.6849	1522.0006	1560.1124	2361.963	3022.4703	3040.8331	3045.6813	3055.1876	3056.7598	3073.2859	3087.0821	3109.3836	3123.0532	3137.4531
N#CCCC1C2CN1C2	N#CCC[C@H]1[C@H]2CN1C2	
InChI=1S/C7H10N2/c8-3-1-2-7-6-4-9(7)5-6/h6-7H,1-2,4-5H2	InChI=1S/C7H10N2/c8-3-1-2-7-6-4-9(7)5-6/h6-7H,1-2,4-5H2/t7-/m0/s1
