17
gdb 73120	2.70722	1.4942	1.26787	2.9014	67.58	-0.2446	-0.0225	0.2221	1028.7872	0.135238	-458.971726	-458.96381	-458.962866	-459.004389	30.335	
O	-0.0088627112	 1.4090809362	-0.2552026385	-0.477393
C	 0.0428145667	 0.0293605428	 0.0017008505	 0.324121
C	 0.2840986361	-0.9140793566	-1.2002226069	-0.119223
O	-0.925850057	-1.6455900902	-0.9073049477	-0.29507
C	-1.3521464284	-0.6620165286	 0.06580648	 0.094906
C	-1.5407467956	-1.2799924108	 1.4374292428	-0.342463
C	-0.1135913447	-1.4229127787	 1.982037444	 0.398344
O	 0.2601441208	-2.2103858415	 2.8073698604	-0.296265
C	 0.767884202	-0.3624220711	 1.2955546043	-0.407316
H	 0.889107108	 1.757641349	-0.2512700244	 0.283782
H	 0.2275705073	-0.388784459	-2.1620136506	 0.10466
H	 1.1694260536	-1.5601350257	-1.1773929899	 0.104665
H	-2.1884249559	-0.0570136127	-0.2975095833	 0.088761
H	-2.0986152858	-0.6052082968	 2.1006089718	 0.131357
H	-2.0587991412	-2.2407928572	 1.4146192327	 0.143852
H	 1.7885788301	-0.7305469068	 1.1661692225	 0.127886
H	 0.8021006851	 0.5083610875	 1.9629041822	 0.135396
75.9526	102.1833	247.3142	267.8254	345.8206	360.7819	412.7364	444.6789	490.458	574.7125	629.9411	689.8454	780.5954	798.1529	850.8825	891.7956	940.768	956.7135	1014.8787	1026.8493	1043.4403	1114.2545	1129.0375	1151.9321	1178.1146	1191.1895	1236.9665	1250.9946	1284.6209	1291.5897	1331.7695	1355.788	1390.414	1431.7113	1447.6789	1514.5486	1857.47	3013.7734	3033.3747	3038.0291	3067.0177	3068.9429	3108.4841	3122.3837	3806.4002
OC12COC1CC(=O)C2	O[C@]12CO[C@H]1CC(=O)C2	
InChI=1S/C6H8O3/c7-4-1-5-6(8,2-4)3-9-5/h5,8H,1-3H2	InChI=1S/C6H8O3/c7-4-1-5-6(8,2-4)3-9-5/h5,8H,1-3H2/t5-,6+/m0/s1
