17
gdb 55990	3.39848	0.95051	0.83163	2.9964	71.44	-0.2435	-0.0242	0.2194	1386.0965	0.135681	-455.19208	-455.183046	-455.182102	-455.226935	32.88	
N	 0.3640359487	 1.2899569082	-0.0289028362	-0.567427
C	 0.150670908	-0.0514965199	 0.2387792421	 0.458817
O	 0.9503904823	-0.7448568559	 0.8374311646	-0.38349
N	-1.0511001403	-0.5352272849	-0.255937628	-0.366161
C	-1.2992907234	-1.9451270087	-0.2634065418	-0.02227
C	-2.4886813741	-2.5958749136	 0.5285497583	-0.258724
C	-2.7752869981	-3.5284333008	-0.6880650279	-0.334214
C	-1.9437806982	-2.5419805951	-1.5227899037	 0.36253
O	-1.9768693724	-2.1708123515	-2.661433833	-0.303469
H	 1.1195564604	 1.6844089881	 0.509734293	 0.263921
H	-0.4399734332	 1.8910994814	-0.1253843948	 0.251049
H	-1.4800921219	-0.0170228366	-1.009560675	 0.248525
H	-0.3673167162	-2.4620382468	-0.0111138485	 0.146486
H	-2.2256664724	-3.0736075854	 1.4720700463	 0.121122
H	-3.2973123272	-1.8800582739	 0.6909849153	 0.115348
H	-2.2872937505	-4.5038450518	-0.6016650738	 0.136449
H	-3.8088962115	-3.6728095728	-1.0069328169	 0.131509
37.9094	83.3213	115.2562	159.053	231.6247	357.2862	379.3159	396.4089	453.9084	499.6188	537.357	576.4768	634.9373	708.6284	754.578	772.1828	826.5663	898.3384	931.8499	974.2389	1020.3841	1057.9937	1088.0683	1106.0981	1181.8531	1208.6313	1225.9049	1229.9394	1267.5246	1315.7799	1375.8159	1446.8817	1491.2531	1525.351	1627.4558	1806.4062	1880.2058	3065.8926	3071.0162	3082.2642	3129.6844	3148.7009	3580.5523	3597.5158	3696.9305
NC(=O)NC1CCC1=O	NC(=O)N[C@H]1CCC1=O	
InChI=1S/C5H8N2O2/c6-5(9)7-3-1-2-4(3)8/h3H,1-2H2,(H3,6,7,9)	InChI=1S/C5H8N2O2/c6-5(9)7-3-1-2-4(3)8/h3H,1-2H2,(H3,6,7,9)/t3-/m0/s1
