18
gdb 12199	3.38544	1.46877	1.18881	4.4996	73.72	-0.2386	0.0181	0.2567	1059.1248	0.153257	-343.981746	-343.973254	-343.97231	-344.014661	30.864	
C	 0.140100593	 1.5578480469	 0.0413441849	-0.404528
C	 0.0461684629	 0.0472671695	-0.0633984852	 0.081214
C	 0.6952950642	-0.6796450578	-1.2690944585	-0.27312
C	 1.1946234191	-1.7147438742	-0.2223261206	-0.106339
C	 2.567381619	-2.2119503072	-0.3154329484	 0.290715
N	 3.6504293997	-2.6068532111	-0.3984898077	-0.326041
N	 0.9479366071	-0.716916544	 0.831548049	-0.070941
C	 0.4649210897	-1.1770649153	 2.115708212	-0.339328
H	 1.1758186047	 1.8868987391	-0.0823216749	 0.128138
H	-0.4770201206	 2.0375040244	-0.7260565074	 0.119518
H	-0.2140589394	 1.9059795936	 1.0176307739	 0.121652
H	-1.003131538	-0.2770247216	 0.0534437991	 0.062553
H	 0.0392247664	-1.0588760097	-2.0513500796	 0.119853
H	 1.5162393651	-0.1120145276	-1.7095261001	 0.131099
H	 0.5151168612	-2.5821997284	-0.1679259884	 0.101829
H	 1.2369734729	-1.7773211518	 2.6074406866	 0.137978
H	 0.2528193706	-0.3161033468	 2.7570255257	 0.13001
H	-0.4546749477	-1.7871943479	 2.0400164796	 0.095739
78.4013	138.0712	204.3951	208.0044	216.0901	269.2528	304.7933	369.3032	458.3901	522.7004	556.0583	621.1635	787.688	806.5259	909.8166	926.6709	980.6988	1034.0755	1074.312	1092.2995	1139.3164	1150.1449	1172.9237	1222.9532	1237.0298	1244.1312	1277.3359	1316.932	1361.2114	1396.4469	1416.166	1451.645	1485.2548	1487.0261	1491.9891	1497.0633	1497.4018	2356.561	2932.4388	2942.662	2957.4194	3033.6195	3067.5955	3093.5027	3099.6943	3109.438	3117.3768	3157.9342
CC1CC(C#N)N1C	C[C@H]1C[C@@H](C#N)N1C	
InChI=1S/C6H10N2/c1-5-3-6(4-7)8(5)2/h5-6H,3H2,1-2H3	InChI=1S/C6H10N2/c1-5-3-6(4-7)8(5)2/h5-6H,3H2,1-2H3/t5-,6-/m0/s1
