21
gdb 101108	3.44119	1.04674	0.94634	2.4721	78.73	-0.2537	0.0607	0.3143	1310.3844	0.183105	-424.169024	-424.160296	-424.159351	-424.202677	33.954	
O	 0.0637744217	 1.4141086057	-0.0803127068	-0.425439
C	 0.0923347623	 0.0137853289	 0.088752292	-0.06435
C	-1.3263548517	-0.5645315497	 0.0559733747	-0.072666
O	-1.9937077923	-0.086229305	-1.1210812531	-0.441111
C	-1.3711138834	-2.0685079098	 0.1422207537	 0.363694
C	-0.7941163076	-2.9810680218	 1.2708116467	-0.264718
C	-1.4437100042	-3.9475048333	 0.2400310419	-0.046464
C	-2.6465808553	-2.9646673492	 0.1777506769	-0.255521
C	-0.7759564644	-3.0998096453	-0.8785368844	-0.270828
H	-0.6101244492	 1.5710299279	-0.7553563604	 0.28418
H	 0.6995410294	-0.4749260799	-0.6950276897	 0.073468
H	 0.5696429139	-0.1961609998	 1.0519806307	 0.109413
H	-1.8950178914	-0.1317414132	 0.8881583637	 0.095638
H	-1.6487404508	-0.5875712926	-1.8698548643	 0.283347
H	 0.2948492436	-3.0210956426	 1.3643741494	 0.093961
H	-1.2774000628	-2.9076231252	 2.2491439903	 0.094159
H	-1.4841023659	-5.0352937771	 0.2955915352	 0.076058
H	-3.2680292921	-2.8887557337	 1.0744789597	 0.091932
H	-3.2551203065	-2.9831620138	-0.7300211414	 0.093227
H	-1.2454449906	-3.1460578227	-1.8665629399	 0.086675
H	 0.3139539674	-3.1521409978	-0.9513373248	 0.095344
62.9898	114.769	136.4854	216.9537	295.4352	337.1405	351.3055	417.2127	502.1457	528.1096	551.4124	557.74	731.0821	804.2151	811.6507	869.3081	889.5988	943.0174	955.6547	960.9466	983.9672	999.1762	1058.903	1065.0551	1094.3786	1099.8573	1106.0478	1135.7607	1146.5778	1154.1789	1168.3999	1203.9333	1229.2696	1237.209	1239.9339	1287.419	1298.2137	1332.9319	1384.4772	1422.3011	1445.1663	1497.9976	1498.952	1507.3935	1556.1998	2938.6886	3038.3337	3043.5921	3046.1777	3053.4967	3070.9699	3104.4965	3112.0901	3113.2596	3117.3705	3757.6327	3786.9566
OCC(O)C12CC(C1)C2	OC[C@@H](O)[C@@]12C[C@@H](C1)C2	
InChI=1S/C7H12O2/c8-4-6(9)7-1-5(2-7)3-7/h5-6,8-9H,1-4H2	InChI=1S/C7H12O2/c8-4-6(9)7-1-5(2-7)3-7/h5-6,8-9H,1-4H2/t5-,6-,7-/m1/s1
