23
gdb 39494	2.28048	1.67518	1.1611	1.1864	85.17	-0.2422	0.0811	0.3233	1154.9886	0.208981	-388.280489	-388.272305	-388.271361	-388.312909	33.238	
C	-0.0226593883	 1.5101830684	 0.0794818944	-0.310915
C	 1.3164658587	 0.8154519351	 0.0141434784	 0.004637
C	 2.2616355414	 0.8974122296	 1.1995805392	-0.206198
C	 3.1524799138	-0.3407085874	 1.407403023	-0.192651
C	 2.3951532612	-1.6739472355	 1.4938903458	-0.201824
C	 1.2721040764	-1.7237062939	 2.5350218543	-0.065461
O	 0.2194225936	-0.7872129669	 2.3491622034	-0.23794
C	-0.4700450955	-0.9024854734	 1.1179800932	-0.114301
C	 0.0318729618	 0.0047139761	-0.0023906527	-0.004097
H	-0.2893575647	 1.9422195299	 1.0398811865	 0.115301
H	-0.3848873304	 2.0687821088	-0.7770478848	 0.103319
H	 1.8221846177	 0.8565548231	-0.9490106386	 0.075467
H	 2.9086316932	 1.7732869111	 1.0583972234	 0.084686
H	 1.6833303928	 1.0797858218	 2.1071463089	 0.115879
H	 3.882505883	-0.4114140975	 0.5903325133	 0.088863
H	 3.7387001139	-0.1953796383	 2.3245306269	 0.089843
H	 1.986859115	-1.9343719829	 0.5107563782	 0.104208
H	 3.1018621217	-2.4759022001	 1.744178786	 0.091951
H	 0.8534805481	-2.7438891645	 2.5611930824	 0.086515
H	 1.6708393337	-1.5069463223	 3.532903127	 0.102311
H	-0.4460221122	-1.9477120697	 0.7724230902	 0.086681
H	-1.5198297467	-0.6637872291	 1.3317922546	 0.105294
H	-0.2241739782	-0.3999528125	-0.9798294131	 0.078433
87.4794	202.1032	248.7098	261.9805	273.8419	304.9629	403.2188	407.3231	482.7809	527.5059	650.6171	737.3112	760.5975	802.1209	811.1959	854.2199	872.7909	905.2445	941.2588	967.0248	1012.0223	1026.6511	1050.9495	1066.3125	1079.0212	1105.2276	1133.5295	1145.1191	1157.7119	1172.7807	1234.3536	1235.9186	1254.5465	1298.4087	1309.0416	1334.1219	1352.9997	1382.8702	1389.9555	1402.1109	1406.6296	1418.0135	1436.7079	1476.2093	1480.1019	1489.8391	1494.8902	1498.1118	1503.6137	2962.6812	2979.7369	3007.9306	3022.7468	3030.553	3036.1641	3041.4087	3054.2782	3075.1316	3102.79	3115.286	3121.2896	3125.9277	3206.0754
C1C2CCCCOCC12	C1[C@H]2CCCCOC[C@@H]12	
InChI=1S/C8H14O/c1-2-4-9-6-8-5-7(8)3-1/h7-8H,1-6H2	InChI=1S/C8H14O/c1-2-4-9-6-8-5-7(8)3-1/h7-8H,1-6H2/t7-,8-/m1/s1
