14
gdb 133726	4.25496	0.61704	0.61419	2.4611	59.68	-0.2606	0.0212	0.2818	1747.5219	0.095255	-568.157316	-568.147792	-568.146848	-568.194256	32.002	
O	 0.0757835463	 1.1343966148	-0.7919735743	-0.407631
C	-0.0205931818	 0.1423572315	 0.2212273966	-0.214433
C	-1.3648032143	-0.4205168995	 0.2281173569	 0.13303
C	-2.4670852741	-0.8993146226	 0.2493374201	 0.049392
C	-3.8033416331	-1.4720693709	 0.2688804764	-0.483481
C	-3.8456003261	-2.9156546709	-0.2239706868	 0.285245
F	-3.0889176219	-3.7193212867	 0.5322260631	-0.073335
F	-5.1058955107	-3.376627646	-0.1743744766	-0.076106
F	-3.4218375161	-3.0233481086	-1.4870025111	-0.069907
H	 0.9775964152	 1.4710104045	-0.7792990406	 0.292093
H	 0.7027042844	-0.6727172017	 0.0564482217	 0.123492
H	 0.1960897899	 0.5634463238	 1.2166148583	 0.119623
H	-4.2237869331	-1.466457856	 1.2806059319	 0.158461
H	-4.4837547347	-0.8953441918	-0.3672239956	 0.163557
19.0448	52.2199	80.2041	139.8807	214.7113	247.9678	308.6093	345.1249	367.3442	434.2646	524.1955	535.1502	569.5063	665.3149	801.2711	846.0912	926.5923	1026.4397	1053.4852	1141.5295	1157.1703	1180.3456	1247.3636	1257.4956	1273.4718	1312.696	1378.2961	1453.3817	1461.6177	1501.6856	2385.2532	2965.01	2984.3855	3047.1484	3088.7708	3819.0375
OCC#CCC(F)(F)F	OCC#CCC(F)(F)F	
InChI=1S/C5H5F3O/c6-5(7,8)3-1-2-4-9/h9H,3-4H2	InChI=1S/C5H5F3O/c6-5(7,8)3-1-2-4-9/h9H,3-4H2
