19
gdb 10707	2.4742	2.02785	1.34349	3.386	71.7	-0.2431	0.0317	0.2748	984.151	0.164935	-365.094746	-365.085834	-365.08489	-365.128074	33.324	
C	 0.5146112426	 0.0207641994	 1.3120965225	-0.38115
C	-0.0715128508	-0.082138613	-0.1036935411	-0.298359
C	-1.4545478164	-0.7152192104	-0.1658822739	 0.259791
C	-1.799680662	-1.5772548721	-1.3764624459	-0.296039
C	-1.54233993	-2.2273687582	-0.0555317553	-0.278651
C	-2.6545978693	 0.0118634803	 0.3924071384	 0.351486
N	-2.4661338309	 1.3182536146	 0.7575125137	-0.541047
O	-3.741102187	-0.5280692808	 0.5152989348	-0.376755
H	 1.5169166127	 0.4597388087	 1.2888275537	 0.1122
H	-0.109922476	 0.6360845195	 1.9659688681	 0.123942
H	 0.5915699675	-0.9702975467	 1.7701806	 0.124922
H	-0.0818769026	 0.907429612	-0.5834248852	 0.089218
H	 0.6027816009	-0.6860112288	-0.7220118938	 0.101537
H	-2.8266357021	-1.5394001812	-1.7190673248	 0.135593
H	-1.0484709944	-1.6537067285	-2.1553085099	 0.109135
H	-0.6083221547	-2.760172712	 0.0869805894	 0.107749
H	-2.3974833511	-2.6189944511	 0.4808087198	 0.141367
H	-1.6479749398	 1.8348915109	 0.4884575063	 0.256659
H	-3.2940624167	 1.8381723573	 1.0006141432	 0.258405
53.1934	129.3669	194.5225	211.263	271.0634	278.7115	286.3956	347.7586	431.6273	449.0369	552.1726	574.2295	679.3708	769.6716	781.5577	796.409	876.0996	893.6558	949.5084	965.3933	1016.5187	1062.4077	1082.4055	1094.0254	1096.9617	1115.0583	1204.1563	1236.1167	1292.9347	1311.361	1364.6121	1398.9706	1412.0038	1450.2121	1481.2328	1492.8756	1496.8188	1512.4373	1614.3425	1772.7519	2999.8661	3040.2648	3050.0464	3107.4104	3115.9744	3136.0268	3140.0111	3228.3737	3242.8148	3601.9341	3736.1853
CCC1(CC1)C(N)=O	CCC1(CC1)C(=O)N	
InChI=1S/C6H11NO/c1-2-6(3-4-6)5(7)8/h2-4H2,1H3,(H2,7,8)	InChI=1S/C6H11NO/c1-2-6(3-4-6)5(7)8/h2-4H2,1H3,(H2,7,8)
