20
gdb 126564	3.04214	1.009	0.81056	0.6308	81.23	-0.2452	0.006	0.2512	1464.564	0.171808	-399.356185	-399.346625	-399.345681	-399.391745	33.92	
C	-0.0133824309	 1.5838244679	 0.073010666	-0.38008
C	-0.0308872882	 0.0548712037	 0.0165666398	-0.159982
C	 0.7346230251	-0.5032775093	-1.1991950867	-0.299848
C	 0.7221131073	-1.9979503545	-1.2718862889	 0.244818
N	 1.6912865089	-2.7409898227	-0.7303710069	-0.267196
N	 1.3022402583	-3.9837935824	-0.9804413739	-0.087156
N	 0.163132471	-4.1261460327	-1.6455222304	-0.259665
C	-0.2366784417	-2.8677604156	-1.8454300902	 0.245589
C	-1.5008617499	-2.5486545724	-2.5753910551	-0.50823
H	 1.0114996414	 1.9657074531	 0.1379642077	 0.117245
H	-0.4715237247	 2.0197243442	-0.8220841567	 0.113151
H	-0.5631527121	 1.9559589604	 0.9429590547	 0.113559
H	 0.4113557079	-0.360331343	 0.9295853652	 0.111106
H	-1.0674976609	-0.3038566056	-0.0116087891	 0.098413
H	 0.2998460529	-0.0903146845	-2.118174971	 0.101133
H	 1.7745274194	-0.1616918322	-1.1592212641	 0.117848
H	 1.852158336	-4.7779533963	-0.697718849	 0.288105
H	-2.2293597562	-2.0521346055	-1.9249872361	 0.13412
H	-1.3151173404	-1.8797442707	-3.4229058462	 0.132237
H	-1.9535854433	-3.466562132	-2.9554940191	 0.144834
40.5033	83.0568	93.9621	121.9369	234.6253	248.3061	266.4883	314.1553	393.3731	423.9672	485.9011	666.8049	718.6406	724.2527	745.7266	795.3343	874.5098	901.2211	981.3725	1023.412	1043.7434	1067.8223	1084.9142	1111.423	1190.1698	1194.1904	1251.8505	1260.0581	1312.1633	1322.9069	1375.9144	1383.6851	1412.458	1413.579	1454.2839	1476.5226	1483.9022	1488.635	1491.7433	1499.2325	1508.986	1526.3416	1566.2085	3023.8544	3028.4498	3032.4096	3035.697	3058.0878	3080.9557	3085.8857	3098.6754	3103.5674	3133.9406	3675.0411
CCCC1=NNN=C1C	CCCc1n[nH]nc1C	
InChI=1S/C6H11N3/c1-3-4-6-5(2)7-9-8-6/h3-4H2,1-2H3,(H,7,8,9)	InChI=1S/C6H11N3/c1-3-4-6-5(2)7-9-8-6/h3-4H2,1-2H3,(H,7,8,9)
