20
gdb 111129	3.33963	1.27348	1.1706	1.8182	78.24	-0.2226	0.0797	0.3023	1128.3727	0.173518	-403.07921	-403.071651	-403.070707	-403.111316	30.697	
O	 0.325907832	 0.491971667	 1.0564378566	-0.422095
C	-0.1161094104	 0.3572726619	-0.2904871087	-0.143633
C	-1.4783455072	-0.308823086	-0.2466348919	 0.074429
C	-2.0434788985	-0.8604686142	-1.5914260395	-0.079806
C	-1.1517310246	-2.1295029437	-1.3419672885	-0.232356
C	-1.5214128952	-1.8160665292	 0.1514671748	-0.047927
C	-3.0330455094	-2.1330649105	 0.0914612993	-0.03864
N	-3.9417898908	-0.960026418	 0.1321083451	-0.338894
C	-3.4099743097	-1.4449174304	-1.1646415842	-0.03743
H	 1.1692630217	 0.95384091	 1.0492851743	 0.284607
H	-0.224282431	 1.343729242	-0.771409102	 0.083221
H	 0.6152602195	-0.2102612388	-0.8832140769	 0.081171
H	-2.1535699476	 0.3328036697	 0.3174052314	 0.10866
H	-2.0019811618	-0.2868833683	-2.5186101615	 0.055796
H	-1.5081438463	-3.0776977504	-1.7563844158	 0.084064
H	-0.0969558511	-1.9961414384	-1.584182079	 0.097261
H	-0.9463769063	-2.199251051	 0.9929819648	 0.070218
H	-3.4040800885	-3.1109520439	 0.3763683342	 0.087646
H	-4.8957084251	-1.3024819306	 0.2308855481	 0.2261
H	-4.0843350695	-1.862557017	-1.9034611506	 0.087609
77.9765	159.3424	239.6091	289.5461	365.9241	397.0472	462.4965	522.9443	604.0531	666.9483	774.5157	794.4707	837.6676	852.2711	864.2426	899.6513	909.029	924.2618	952.0579	995.0654	1031.5223	1054.4286	1066.3599	1074.9858	1088.9331	1102.273	1108.1031	1122.6778	1150.3612	1195.1747	1216.9936	1227.8943	1248.0125	1260.0016	1263.284	1280.5655	1303.441	1335.3615	1375.2765	1403.3421	1461.1739	1503.218	1531.0293	2962.4516	3004.2834	3055.6525	3100.0005	3123.8442	3126.9312	3132.2252	3169.5706	3180.24	3488.3539	3828.7065
OCC1C2CC1C1NC21	OC[C@H]1[C@H]2C[C@@H]1[C@H]1N[C@@H]21	
InChI=1S/C7H11NO/c9-2-5-3-1-4(5)7-6(3)8-7/h3-9H,1-2H2	InChI=1S/C7H11NO/c9-2-5-3-1-4(5)7-6(3)8-7/h3-9H,1-2H2/t3-,4+,5+,6+,7-
