20
gdb 8425	3.72008	1.70826	1.68751	1.3672	73.85	-0.2309	0.0823	0.3132	909.4975	0.176786	-349.00513	-348.997275	-348.99633	-349.036792	31.24	
C	 0.1468609992	 1.503990712	 0.051009849	-0.425515
C	 0.0038033769	-0.0115184826	-0.0376325128	 0.398448
C	-1.4697619581	-0.4373053216	-0.0142896333	-0.412025
C	 0.7519194733	-0.6368185221	-1.2497726983	-0.28621
C	 1.3299324972	-1.9341632991	-0.691719128	-0.059198
C	 2.565395429	-1.8244426338	 0.1831279516	-0.305768
C	 1.1943984771	-1.8246216913	 0.8012618387	 0.095951
O	 0.6647943566	-0.5683138575	 1.1261344212	-0.296642
H	 1.2027150174	 1.7864705976	 0.0874177987	 0.116116
H	-0.3138615684	 1.9867844455	-0.8167545192	 0.112116
H	-0.3407434802	 1.8850912999	 0.9532033022	 0.121458
H	-2.021381803	 0.0025537146	-0.8519512923	 0.108607
H	-1.5570646443	-1.5262935145	-0.0831991221	 0.11496
H	-1.940216659	-0.1150938197	 0.9190430851	 0.119634
H	 0.0700398566	-0.8235470811	-2.0838664391	 0.101153
H	 1.5361838631	 0.0365246192	-1.612255262	 0.098359
H	 1.1426368779	-2.8656530501	-1.2120720084	 0.087998
H	 3.1780473364	-2.7130150275	 0.29731643	 0.107375
H	 3.1096544435	-0.8854675898	 0.1892210428	 0.113296
H	 0.8637751088	-2.6399521182	 1.4375348862	 0.089885
85.06	215.5363	244.7301	264.2185	316.274	326.9937	403.0875	416.272	477.372	603.6873	696.0584	758.3719	796.0097	813.0232	877.391	894.3623	925.2624	934.2057	968.9214	983.5239	1014.6963	1026.5966	1055.9339	1072.8192	1100.5913	1146.9647	1172.9333	1190.6347	1206.0423	1249.7956	1273.6231	1317.9286	1335.7947	1378.4452	1396.3199	1415.5596	1469.8031	1475.4354	1483.6486	1494.3925	1498.2223	1506.1766	3032.4125	3037.9763	3043.6382	3090.8714	3103.1201	3110.593	3115.8203	3117.2218	3122.9895	3149.3432	3178.219	3215.2121
CC1(C)CC2CC2O1	CC1(C)C[C@H]2C[C@H]2O1	
InChI=1S/C7H12O/c1-7(2)4-5-3-6(5)8-7/h5-6H,3-4H2,1-2H3	InChI=1S/C7H12O/c1-7(2)4-5-3-6(5)8-7/h5-6H,3-4H2,1-2H3/t5-,6-/m1/s1
