19
gdb 82627	2.344	2.02489	1.53668	1.9147	73.2	-0.2329	0.0676	0.3005	938.614	0.161527	-423.029952	-423.022581	-423.021636	-423.061103	30.78	
O	-0.0695317126	 1.4348356784	-0.0357741472	-0.456897
C	 0.0251967744	 0.0185536095	 0.0209686263	 0.054915
C	 0.4796127178	-0.5815536768	 1.3778214069	-0.103843
C	-0.6565462756	-0.1231071785	 2.324396641	-0.214788
C	-1.8146663718	-0.6416798429	 1.479092326	-0.133959
C	-1.3095050218	-1.8807580832	 0.7380569006	-0.116335
C	 0.1473962677	-2.078266509	 1.1554299877	-0.227988
C	-1.379816589	-0.5605779051	 0.0237339826	 0.4366
O	-2.2427387933	-0.3516509333	-1.0384022402	-0.490872
H	 0.8178723117	 1.7959386728	-0.121338873	 0.28475
H	 0.6245913496	-0.3634853564	-0.8185163182	 0.06399
H	 1.4994521543	-0.3495345853	 1.6876840309	 0.055472
H	-0.591830357	-0.59416302	 3.311007733	 0.088982
H	-0.6754930688	 0.9627651802	 2.4463519893	 0.104201
H	-2.8571406429	-0.5414109913	 1.7495089003	 0.083692
H	-1.9757643057	-2.6918206763	 0.476237704	 0.090439
H	 0.7587211267	-2.5342854037	 0.3691664412	 0.09594
H	 0.2578966565	-2.6741712903	 2.0673579796	 0.097124
H	-2.3468233203	 0.6036073512	-1.124993181	 0.288576
201.9304	210.9042	273.7124	302.3646	356.4016	395.8056	421.0278	471.8536	545.8913	609.6853	656.5913	748.8901	799.897	852.8015	899.6764	905.6231	911.5378	923.0856	940.7759	959.5283	998.7817	1008.0917	1052.9652	1065.7966	1104.4655	1138.6605	1154.021	1168.9462	1201.268	1213.6236	1232.2875	1278.3425	1288.9112	1301.0777	1323.1067	1334.6167	1350.8767	1428.1734	1470.9947	1485.0531	1506.3274	2996.4893	3040.5128	3047.633	3083.2294	3103.1746	3107.585	3204.0271	3212.8263	3786.0521	3826.2127
OC1C2CC3C(C2)C13O	O[C@H]1[C@H]2C[C@@H]3[C@H](C2)[C@]13O	
InChI=1S/C7H10O2/c8-6-3-1-4-5(2-3)7(4,6)9/h3-6,8-9H,1-2H2	InChI=1S/C7H10O2/c8-6-3-1-4-5(2-3)7(4,6)9/h3-6,8-9H,1-2H2/t3-,4+,5-,6-,7-/m0/s1
