18
gdb 53793	2.5369	1.33905	1.07627	2.6196	68.97	-0.2392	-0.0732	0.166	1176.4909	0.144749	-476.279668	-476.269622	-476.268678	-476.314419	37.025	
C	-0.0599535463	 1.491461083	-0.0243591963	-0.440122
C	 0.016699677	-0.0450862143	 0.0749070309	 0.255961
C	 0.7922917013	-0.486025925	 1.3131271127	-0.397104
O	-1.2791296237	-0.6231905367	 0.1692828131	-0.467501
C	 0.6920133372	-0.5874172372	-1.1946018014	 0.281861
O	 1.8276836412	-0.9985945813	-1.2475253559	-0.319729
C	-0.164284498	-0.5855344383	-2.4967585699	 0.352016
N	 0.5120099793	-1.090727493	-3.5430750489	-0.508683
O	-1.3069389309	-0.1499088177	-2.5398112072	-0.379151
H	 0.9378874593	 1.9399672733	-0.068120915	 0.121348
H	-0.6223977098	 1.7969181854	-0.9101302618	 0.137573
H	-0.5755561124	 1.8711027109	 0.8625326048	 0.132003
H	 0.297642423	-0.0901304659	 2.2035125293	 0.1218
H	 0.8090923281	-1.5762806011	 1.3811437778	 0.127397
H	 1.8217841208	-0.1246323041	 1.2812427173	 0.125744
H	-1.7510315831	-0.3715052382	-0.6401510828	 0.298057
H	 1.4579032366	-1.4072546079	-3.3982790849	 0.284633
H	 0.0761493803	-1.1432819319	-4.4483123017	 0.273897
62.922	78.9462	184.9784	197.4955	212.7968	259.5771	301.345	324.2566	360.4954	372.5843	399.3609	438.914	501.0764	551.8654	609.3799	623.1299	661.1959	680.6012	811.3394	859.918	937.1653	976.5673	1002.8622	1058.5893	1099.2613	1157.3042	1214.0265	1238.9117	1374.7585	1387.8142	1406.2518	1432.7689	1474.0743	1485.5606	1494.6345	1510.6379	1585.8865	1773.0231	1805.3913	3039.0835	3057.2409	3113.9781	3129.3181	3132.6315	3143.4616	3590.1741	3691.9099	3731.871
CC(C)(O)C(=O)C(N)=O	CC(C)(O)C(=O)C(=O)N	
InChI=1S/C5H9NO3/c1-5(2,9)3(7)4(6)8/h9H,1-2H3,(H2,6,8)	InChI=1S/C5H9NO3/c1-5(2,9)3(7)4(6)8/h9H,1-2H3,(H2,6,8)
