16
gdb 69038	2.90944	1.3983	1.16272	0.6563	72.88	-0.2656	-0.052	0.2137	1074.415	0.122204	-437.872544	-437.864058	-437.863113	-437.905738	31.058	
C	-0.0198075479	 1.4849814127	 0.2378064922	-0.490758
C	-0.005872272	 0.0025164288	 0.0240819517	 0.136297
C	-0.9371172151	-0.9722490368	 0.7189575942	-0.364306
C	 0.5343028866	-1.148478773	 0.9091146624	 0.29754
O	 1.0981152504	-1.8119331686	-0.247347232	-0.302808
C	 0.7112694713	-0.7425227188	-1.0622366329	 0.397021
N	 0.9679382583	-0.5010626102	-2.2619347024	-0.54645
C	 1.3032757798	-1.0331839794	 2.1537225237	 0.074505
O	 0.8691832193	-0.4972670606	 3.147210718	-0.268971
H	 0.9328201367	 1.933356281	-0.0562571054	 0.142022
H	-0.8113831641	 1.9516339926	-0.3571851541	 0.14552
H	-0.2034151307	 1.714720753	 1.2913931993	 0.147671
H	-1.4604741858	-0.5533843629	 1.5725922149	 0.155775
H	-1.4683526292	-1.7344713212	 0.1580220681	 0.139369
H	 1.5320718749	-1.2399021997	-2.684538726	 0.237738
H	 2.3295923475	-1.451995047	 2.0986678081	 0.099835
93.3941	122.8714	167.5126	184.4192	220.0419	283.1011	352.1776	418.4317	461.808	549.5306	653.6735	669.2013	718.7537	761.1234	818.9312	869.8433	911.8746	962.4036	971.0633	989.5998	1040.717	1076.4363	1098.4722	1126.6631	1202.753	1222.8705	1346.6786	1381.8161	1416.8099	1424.1867	1475.3701	1483.3945	1496.5729	1792.8401	1835.4867	2921.8006	3042.724	3110.0143	3124.1529	3128.9343	3227.8602	3484.8958
CC12CC1(OC2=N)C=O	C[C@]12C[C@]1(O[C]2[NH])C=O	
InChI=1S/C6H7NO2/c1-5-2-6(5,3-8)9-4(5)7/h3,7H,2H2,1H3	InChI=1S/C6H7NO2/c1-5-2-6(5,3-8)9-4(5)7/h3,7H,2H2,1H3/t5-,6+/m1/s1
