17
gdb 90952	2.95126	1.82296	1.64258	2.255	65.03	-0.2316	0.0787	0.3104	877.2911	0.138835	-458.950157	-458.943633	-458.942689	-458.980961	27.049	
O	 0.3235501976	 1.3052945527	 0.3252954729	-0.440647
C	 0.0206573796	-0.0484562648	 0.0430407722	 0.128699
C	-1.5083636974	-0.3266865236	-0.0576770522	-0.267026
C	-1.9132771024	-0.7116990553	-1.472009095	-0.12999
C	-0.9718144305	-1.6233678571	-2.2338058993	 0.046779
O	 0.3102425597	-1.7598710329	-1.6543034644	-0.25821
C	 0.6730271191	-0.4428973046	-1.2885002794	 0.127754
O	 0.1354676618	 0.4248879939	-2.2921838912	-0.279884
C	-1.0927170207	-0.185354637	-2.6377093237	 0.037837
H	 0.1578828456	 1.7901951858	-0.4942026089	 0.284706
H	 0.4648103695	-0.6337878287	 0.8525411162	 0.093813
H	-1.7952238736	-1.1289602131	 0.6300991875	 0.113064
H	-2.033341106	 0.5765929384	 0.2677712862	 0.116472
H	-2.9737527688	-0.8490192124	-1.661549198	 0.094622
H	-1.2748466931	-2.4876514335	-2.8086300548	 0.113267
H	 1.7599598768	-0.3425635652	-1.2785802528	 0.104192
H	-1.5123434173	 0.1936128074	-3.5596507552	 0.114552
105.2739	262.2984	361.6246	431.7726	459.9289	475.6269	508.861	631.8991	713.7014	724.5292	761.8636	784.3491	814.4767	863.0107	916.3013	940.4073	950.4859	1002.0956	1033.9555	1068.638	1075.287	1096.5373	1100.0105	1112.5563	1123.4998	1171.7764	1210.2744	1262.6513	1277.8558	1298.3027	1313.246	1352.577	1357.394	1377.7257	1416.2167	1439.3048	1486.7492	3044.0802	3075.9835	3091.2741	3109.0382	3153.0821	3206.2818	3215.7222	3763.1796
OC1CC2C3OC1OC23	O[C@H]1C[C@@H]2[C@@H]3O[C@H]1O[C@H]23	
InChI=1S/C6H8O3/c7-3-1-2-4-5(2)9-6(3)8-4/h2-7H,1H2	InChI=1S/C6H8O3/c7-3-1-2-4-5(2)9-6(3)8-4/h2-7H,1H2/t2-,3-,4+,5-,6+/m0/s1
