18
gdb 6443	3.6357	1.42757	1.23346	1.1517	74.18	-0.2543	0.0331	0.2874	1048.5919	0.151421	-347.762193	-347.753514	-347.75257	-347.794927	33.009	
C	 0.0848440553	 1.6256820151	 0.0219543118	-0.407575
C	 0.0766252588	 0.1055995082	 0.0111195391	 0.05874
C	 1.1054115991	-0.6401023398	-0.8831341605	-0.27333
C	 1.2982672437	-1.6896766233	 0.247016811	 0.251618
O	 2.6605728232	-2.0184715571	 0.4479681804	-0.463199
C	 0.6568055318	-0.6555983097	 1.2352353146	-0.291426
C	 0.4809842407	-2.8884560239	 0.0816902973	 0.30033
C	-0.1751549608	-3.8916512543	-0.0193477285	-0.50745
H	 1.0878050655	 2.0119660797	 0.2364946174	 0.113115
H	-0.2287191558	 2.0318999667	-0.9462633522	 0.11585
H	-0.5954407653	 2.02203093	 0.7840350876	 0.115221
H	-0.932110888	-0.2613714162	-0.2047066274	 0.080613
H	 0.7893376984	-1.0059898808	-1.8611838841	 0.107203
H	 2.034397046	-0.0715795333	-0.9860159654	 0.112464
H	 2.7014116936	-2.7731421572	 1.0454934758	 0.281164
H	 1.4611284159	-0.0905004699	 1.7158776583	 0.105757
H	-0.0333084778	-1.0344979032	 1.9915884703	 0.100916
H	-0.7557045646	-4.7750490609	-0.1225136755	 0.199988
78.1808	163.3167	177.8284	226.9143	261.5617	297.0386	362.5639	370.5039	432.5522	489.7916	563.2652	614.2432	628.5651	667.6803	715.8466	832.1047	848.0144	893.9596	949.4001	955.6711	1009.1462	1041.2509	1063.5583	1138.1266	1151.9385	1207.1333	1222.0612	1259.101	1278.4073	1291.159	1364.7928	1380.1927	1413.0086	1464.152	1490.147	1497.2912	1497.5996	2226.5655	3023.769	3049.0026	3056.4728	3065.6667	3091.1528	3093.4689	3123.1821	3130.0926	3500.6292	3807.9703
CC1CC(O)(C1)C#C	C[C@H]1C[C@@](O)(C1)C#C	
InChI=1S/C7H10O/c1-3-7(8)4-6(2)5-7/h1,6,8H,4-5H2,2H3	InChI=1S/C7H10O/c1-3-7(8)4-6(2)5-7/h1,6,8H,4-5H2,2H3/t6-,7+
