18
gdb 76531	2.5761	1.2482	1.19984	2.7936	74.56	-0.2268	-0.0212	0.2056	1150.7348	0.145799	-439.057706	-439.048437	-439.047493	-439.09187	33.616	
C	-0.0806324376	 1.4903690408	-0.1488181221	-0.413066
C	 0.0677336592	-0.0126706819	-0.0893451784	-0.128129
C	 1.4272512883	-0.6685393249	-0.0646139479	 0.002622
O	 2.5846666381	 0.1042731539	 0.0496317667	-0.418827
C	 0.5697928313	-0.6598713096	 1.1836375946	 0.223042
N	 0.9266453912	 0.0381449702	 2.4273793996	-0.380817
C	 0.5946166477	-1.1765036728	 3.2396280216	-0.283214
C	 0.0733199171	-1.8469121408	 1.9515170808	 0.316078
O	-0.4891214447	-2.8671227891	 1.676527635	-0.311842
H	 0.7041492199	 1.985914725	 0.4262172105	 0.134856
H	-0.0346213383	 1.8492638968	-1.1832462563	 0.114258
H	-1.0426283803	 1.7989480323	 0.2702191446	 0.132809
H	-0.6992319103	-0.5876569865	-0.6037557213	 0.107213
H	 1.5533850615	-1.6206101854	-0.5798048917	 0.106993
H	 2.7007802013	 0.6083838131	-0.7627995564	 0.298465
H	 1.9149789244	 0.2718563907	 2.4484507051	 0.235798
H	 1.4532537462	-1.7005907916	 3.6757753357	 0.129637
H	-0.1507964451	-0.9975587603	 4.02074369	 0.134124
99.1743	110.7965	125.6432	156.068	205.3263	219.271	237.9303	308.532	469.3941	539.0101	561.9307	584.0717	620.6258	728.4415	763.0045	823.0957	855.3744	947.9265	984.9429	1005.1711	1026.1099	1053.0138	1059.8686	1112.2379	1136.7126	1149.5491	1169.0135	1204.5332	1264.9783	1271.1979	1309.4371	1351.2216	1370.1005	1415.2942	1438.3665	1472.2269	1491.2368	1500.8994	1897.5862	3035.5033	3037.6363	3089.2067	3101.1962	3103.4771	3127.4146	3142.2372	3516.6842	3805.8082
CC1C(O)C11NCC1=O	C[C@H]1[C@@H](O)[C@]21NCC2=O	
InChI=1S/C6H9NO2/c1-3-5(9)6(3)4(8)2-7-6/h3,5,7,9H,2H2,1H3	InChI=1S/C6H9NO2/c1-3-5(9)6(3)4(8)2-7-6/h3,5,7,9H,2H2,1H3/t3-,5+,6+/m0/s1
