18
gdb 17059	3.86309	1.44811	1.25552	1.7124	68.17	-0.2382	0.0633	0.3014	1028.0581	0.152836	-384.86683	-384.858937	-384.857992	-384.899069	29.867	
C	-0.1827827882	 1.5348364101	 0.0139882847	-0.377992
C	 0.1520363211	 0.0422037199	-0.0909521219	-0.220514
C	 0.8198625609	-0.4958471919	 1.1630697826	 0.039009
C	-0.0534800402	-0.8428791239	 2.4036954819	-0.013736
O	-0.5987820323	-2.0150298383	 1.6859534874	-0.312589
C	 0.8567070126	-2.0321648669	 1.4055866757	-0.003998
C	 1.0752030387	-1.7964276245	 2.9152633548	 0.123343
O	 2.3259526596	-1.3128517397	 3.3136985432	-0.426727
H	 0.7156805718	 2.133801928	 0.2007142146	 0.112705
H	-0.6418800142	 1.9026252376	-0.9087310775	 0.113383
H	-0.8846316875	 1.7280174666	 0.8326502316	 0.114385
H	-0.7556226171	-0.5364942466	-0.285850678	 0.115452
H	 0.8232912997	-0.1198956297	-0.9444148851	 0.093408
H	 1.7534561492	 0.0204075438	 1.4019221246	 0.088163
H	-0.7597404096	-0.2268012141	 2.9627293415	 0.086342
H	 1.236519348	-2.8317326759	 0.7681758963	 0.091435
H	 0.696187091	-2.6113290093	 3.5408563981	 0.086089
H	 2.2950833168	-1.1343330851	 4.2585297856	 0.29184
88.0431	151.8777	186.1471	255.7469	261.7017	337.1603	364.8077	417.6371	598.3225	635.4667	743.2205	774.2511	831.4361	858.0081	893.5807	899.6583	905.0782	968.7808	1057.4466	1071.2434	1088.638	1115.3013	1141.1092	1148.5615	1162.7354	1197.2754	1204.7018	1246.636	1264.0878	1293.0314	1297.8251	1349.5278	1406.7833	1414.7736	1429.5273	1490.5821	1499.9199	1506.8075	3024.6415	3029.8378	3061.3163	3076.5205	3085.3455	3101.8869	3104.6561	3104.9286	3114.5575	3826.3013
CCC1C2OC1C2O	CC[C@H]1[C@H]2O[C@@H]1[C@H]2O	
InChI=1S/C6H10O2/c1-2-3-5-4(7)6(3)8-5/h3-7H,2H2,1H3	InChI=1S/C6H10O2/c1-2-3-5-4(7)6(3)8-5/h3-7H,2H2,1H3/t3-,4-,5+,6-
