15
gdb 131633	2.21487	1.49326	0.91144	2.8169	78.12	-0.2291	-0.0203	0.2088	1208.0307	0.112928	-416.78867	-416.780117	-416.779173	-416.822799	30.918	
O	 0.0259377776	 1.3340877417	 0.5537069085	-0.416133
C	 0.0184095938	 0.0986090523	-0.1507402348	-0.223335
C	-1.3580341286	-0.4753833028	-0.0737300901	 0.102567
C	-1.7160595247	-1.8160238963	 0.0257113384	 0.176548
N	-3.0832926965	-1.8342316791	 0.0374617725	-0.289671
N	-3.6290041767	-0.6143590643	-0.0354629343	-0.209039
C	-2.5875071764	 0.2131239439	-0.106053884	-0.06756
C	-0.9368760077	-2.9870491994	 0.1069262175	 0.28607
C	-0.2729622323	-3.9898996168	 0.1781992831	-0.460943
H	 0.8713086661	 1.7622032301	 0.3885899448	 0.289724
H	 0.3027576766	 0.2535668536	-1.2048412762	 0.102757
H	 0.7395432423	-0.6178206954	 0.2716297219	 0.104129
H	-3.6750079015	-2.6455490175	 0.1047779727	 0.278079
H	-2.7434330667	 1.2792559612	-0.1615932281	 0.127429
H	 0.3152424545	-4.8717563012	 0.2424388883	 0.199378
32.6371	120.3196	165.8575	189.6199	250.8299	297.7491	393.5642	459.6397	510.5265	551.2569	559.2073	602.5193	683.6629	686.879	705.5138	745.2932	893.3072	960.5648	1027.5707	1063.9554	1143.9396	1168.5953	1216.0637	1247.7941	1267.646	1276.7772	1387.9663	1425.4536	1465.8936	1501.6251	1517.6183	1604.608	2230.3393	2958.4716	2994.8936	3263.6623	3500.4334	3669.4325	3828.037
OCC1=C(NN=C1)C#C	OCc1c([nH]nc1)C#C	
InChI=1S/C6H6N2O/c1-2-6-5(4-9)3-7-8-6/h1,3,9H,4H2,(H,7,8)	InChI=1S/C6H6N2O/c1-2-6-5(4-9)3-7-8-6/h1,3,9H,4H2,(H,7,8)
