18
gdb 44961	2.54849	1.81714	1.56367	2.3172	70.3	-0.2084	-0.0336	0.1748	929.8232	0.150525	-439.086529	-439.079599	-439.078655	-439.117699	28.143	
O	-0.0158416236	 0.0017089512	-0.0231462582	-0.310045
C	-0.031118045	 1.2018702197	-0.0101401443	 0.387538
C	-1.2662215358	 2.1261960138	-0.0575062278	-0.294781
N	-0.74651538	 3.4982365084	 0.0788764583	-0.090265
C	 0.5743975881	 3.4107178138	-0.5984616844	-0.205564
C	 1.1870895243	 2.1650149047	 0.0420706994	 0.01328
O	 1.5390475404	 2.458724928	 1.3971097393	-0.267977
C	 0.4259434718	 2.8381327722	 2.2065297569	-0.089365
C	-0.4984751391	 3.8433741004	 1.4931610197	-0.184117
H	-1.7621074595	 2.008124549	-1.0298264025	 0.135306
H	-1.9925847397	 1.8702828552	 0.7181941941	 0.134183
H	 0.4238080001	 3.2882053936	-1.6778290331	 0.10835
H	 1.1659570594	 4.3110177654	-0.4207853988	 0.117829
H	 2.074515777	 1.7425912015	-0.4298467366	 0.101032
H	-0.1399467336	 1.9413509653	 2.5048914138	 0.105297
H	 0.8467358817	 3.273833864	 3.117065463	 0.117034
H	-0.0503398059	 4.8423439421	 1.5070860186	 0.113557
H	-1.4556952702	 3.9038295117	 2.0230193525	 0.108708
111.6496	240.2204	272.1303	378.9203	417.3131	447.7446	464.4625	540.1875	603.1358	645.2136	739.6657	787.6495	834.2734	848.0511	894.1183	909.0696	944.4985	994.6083	1026.1103	1057.9486	1075.4492	1102.0658	1125.4041	1156.7199	1199.1868	1241.288	1271.6314	1278.0512	1301.7377	1322.4503	1331.8137	1347.7111	1376.2851	1401.9718	1454.2938	1475.9654	1490.0303	1507.0837	1863.6715	2979.4673	3026.9057	3035.0295	3039.2855	3081.401	3091.7453	3103.7281	3115.8238	3119.8141
O=C1CN2CC1OCC2	O=C1CN2C[C@H]1OCC2	
InChI=1S/C6H9NO2/c8-5-3-7-1-2-9-6(5)4-7/h6H,1-4H2	InChI=1S/C6H9NO2/c8-5-3-7-1-2-9-6(5)4-7/h6H,1-4H2/t6-/m1/s1
