15
gdb 130408	2.45157	1.58217	0.9823	4.9734	63.83	-0.2182	0.0268	0.2451	1125.472	0.114209	-491.07904	-491.07116	-491.070216	-491.111475	29.729	
N	 0.3571437258	 0.8411439815	 0.4892523391	-0.529629
H	 0.4245306544	-0.1425816152	 0.727950892	 0.247385
H	 1.4686850033	 2.2457933891	 1.1213430472	 0.310509
H	 0.4754101629	 0.9095807081	-0.517877751	 0.250731
C	-0.9718869673	 1.3789783718	 0.8760901275	-0.302421
C	-0.8910513602	 2.8728691668	 0.9060136221	-0.081373
C	 0.2490533598	 3.6074556846	 1.104986274	 0.485114
O	 1.502410849	 3.2241430805	 1.2740045454	-0.403802
O	 0.0090454212	 4.9163492466	 1.1014998279	-0.214414
N	-1.3845615368	 5.1087577506	 0.8952484064	-0.281142
C	-1.8667228984	 3.8926786261	 0.7829154625	 0.381887
O	-3.1767593186	 3.6761478735	 0.5726370905	-0.422775
H	-1.7798499248	 1.047735123	 0.2095573147	 0.121903
H	-1.2025943366	 0.9726858464	 1.8695230514	 0.12807
H	-3.6078748337	 4.5402977766	 0.5235921003	 0.309956
104.5571	174.7694	208.5171	252.1482	317.546	338.0648	402.4562	437.3735	463.8991	562.8968	618.6155	671.1853	726.8405	756.8559	793.3456	838.2281	927.8307	950.4436	997.0815	1027.4288	1132.7929	1173.5568	1206.9268	1235.922	1323.6346	1348.8615	1415.402	1490.087	1510.9413	1560.5456	1589.8586	1646.7093	1706.8854	3005.7286	3034.4332	3326.6865	3497.2211	3580.2464	3775.4369
[NH3+]CC1=C([O-])ON=C1O	NCc1c(O)onc1O	
InChI=1S/C4H6N2O3/c5-1-2-3(7)6-9-4(2)8/h8H,1,5H2,(H,6,7)	InChI=1S/C4H6N2O3/c5-1-2-3(7)6-9-4(2)8/h8H,1,5H2,(H,6,7)
