16
gdb 17898	3.95238	1.98641	1.76911	1.4043	59.38	-0.2425	0.0675	0.31	779.5469	0.132156	-420.839796	-420.833305	-420.832361	-420.870018	25.918	
O	-0.0600633057	 1.3745306448	-0.0642790805	-0.43895
C	 0.0153762176	-0.0317777085	-0.0180739652	 0.113123
C	 0.1507990728	-0.6391674626	 1.417604045	 0.06577
C	-1.3793957363	-0.4174607006	 1.5691112465	-0.295662
C	-1.4128442124	-0.6441982675	 0.031468125	 0.100736
O	-1.2971851322	-2.0291011972	-0.294924446	-0.276354
C	-0.6124521227	-2.7463078758	 0.7109843342	 0.024199
O	 0.4693809942	-2.0226162105	 1.2618295068	-0.27398
H	 0.8180305708	 1.7286434268	 0.1104230326	 0.288908
H	 0.686263317	-0.4571362441	-0.7738220393	 0.075401
H	 0.8554549958	-0.2128397203	 2.135281833	 0.07615
H	-1.9622765461	-1.0593841058	 2.2304992366	 0.108094
H	-1.5815162366	 0.6302350315	 1.7895868386	 0.128453
H	-2.2029020828	-0.2145305702	-0.5853832976	 0.090211
H	-1.3143809588	-3.0303236128	 1.5097489986	 0.092401
H	-0.2027176246	-3.6484710172	 0.2503541817	 0.121503
231.1856	279.3875	289.1108	312.8237	340.6653	459.4858	489.1732	494.6717	657.4511	824.8642	855.4398	913.3264	918.9033	936.6992	952.1908	995.4155	1004.7158	1083.9081	1101.7976	1119.844	1165.0615	1168.7749	1192.6205	1202.9893	1244.1816	1266.5022	1275.6219	1296.9153	1336.4963	1349.043	1409.107	1439.1004	1478.5611	1541.5854	2979.0942	3040.9048	3084.779	3096.5233	3098.8056	3113.2952	3156.6635	3812.2716
OC1C2CC1OCO2	O[C@H]1[C@H]2C[C@@H]1OCO2	
InChI=1S/C5H8O3/c6-5-3-1-4(5)8-2-7-3/h3-6H,1-2H2	InChI=1S/C5H8O3/c6-5-3-1-4(5)8-2-7-3/h3-6H,1-2H2/t3-,4+,5+
