25
gdb 123088	6.3281	0.43396	0.41332	2.5655	91.22	-0.2409	-0.0067	0.2343	2705.9448	0.225476	-389.531585	-389.519581	-389.518637	-389.571391	41.197	
C	 0.0782903758	 1.5843382833	 0.0065260541	-0.379203
C	 0.0282098566	 0.0560274329	-0.0706544697	-0.163485
C	-1.3928385582	-0.5074815127	 0.035813625	-0.158455
C	-1.4528578767	-2.0367373118	-0.040462166	-0.18722
C	-2.8767141599	-2.591622238	 0.0667368774	-0.170633
C	-2.9321485848	-4.1167699353	-0.0097627421	-0.302852
C	-4.3389109986	-4.6938223229	 0.0945804065	 0.376483
C	-4.4503878028	-6.2082084313	 0.024036968	-0.472265
O	-5.3138466797	-3.9895972321	 0.2261346025	-0.289883
H	 1.1046620541	 1.9564572462	-0.0722436455	 0.109646
H	-0.5041919644	 2.0406928474	-0.8016607612	 0.113416
H	-0.3352582121	 1.9464729538	 0.9544433516	 0.113416
H	 0.4801641071	-0.2784116479	-1.0140975635	 0.092389
H	 0.6478274765	-0.3719230716	 0.7288013397	 0.092389
H	-1.8462546727	-0.1732554839	 0.9794601442	 0.09289
H	-2.0139321851	-0.0797356308	-0.763584872	 0.09289
H	-0.9987491658	-2.3706688335	-0.9844076623	 0.08894
H	-0.8310260249	-2.4642153457	 0.7591289751	 0.08894
H	-3.3367346561	-2.2644434565	 1.0063116749	 0.108813
H	-3.50358796	-2.1713799214	-0.7281791649	 0.108814
H	-2.4876133381	-4.4804013413	-0.9479330015	 0.115711
H	-2.3211387572	-4.5732686335	 0.782877466	 0.115711
H	-3.8682219828	-6.6725615394	 0.8280137948	 0.136102
H	-5.4957392087	-6.507402218	 0.1085400738	 0.141345
H	-4.0364369416	-6.5787182058	-0.920573715	 0.136103
22.2986	46.5705	72.9099	77.8421	109.657	125.4729	154.2616	185.4563	246.6732	247.2945	332.0413	435.841	462.7228	477.6554	597.3728	721.4225	735.8503	778.9966	826.0909	861.5216	898.5828	937.0428	952.9117	1014.6597	1017.3263	1050.1115	1063.7927	1074.5781	1136.0945	1149.8289	1176.6093	1222.5848	1257.6482	1274.5141	1316.5839	1318.4976	1328.5797	1334.6849	1370.0344	1382.8384	1398.4019	1401.9552	1413.7957	1449.0012	1465.606	1477.5957	1481.7811	1483.8011	1492.3465	1499.83	1504.3953	1514.1445	1811.1181	2996.7499	3003.6171	3004.734	3014.6703	3019.8079	3028.3003	3028.9348	3033.1146	3035.9022	3040.6789	3055.0985	3080.876	3094.6258	3095.9062	3099.7385	3150.6806
CCCCCCC(C)=O	CCCCCCC(=O)C	
InChI=1S/C8H16O/c1-3-4-5-6-7-8(2)9/h3-7H2,1-2H3	InChI=1S/C8H16O/c1-3-4-5-6-7-8(2)9/h3-7H2,1-2H3
