16
gdb 131878	5.56945	0.80265	0.73415	2.3074	67.52	-0.258	-0.0067	0.2513	1487.6482	0.124302	-475.001499	-474.99323	-474.992286	-475.035583	29.682	
O	-0.0296792617	 1.4351623017	-0.0365561277	-0.417829
C	-0.0000295444	 0.0224881685	-0.0089678931	-0.069969
C	-1.3920838715	-0.5787060048	 0.0406316871	-0.080521
O	-2.045211428	-0.175026829	-1.179581167	-0.287668
C	-3.319482366	-0.5480508607	-1.3245424392	 0.490127
N	-3.9620316322	-1.2705942474	-0.4345398166	-0.235176
O	-5.2440958304	-1.4362384046	-0.9680583773	-0.182029
C	-5.3082449225	-0.806775895	-2.1495166245	 0.102997
C	-4.1281462844	-0.2161764793	-2.45179453	-0.370913
H	-0.582617163	 1.6843319729	-0.7852362753	 0.291107
H	 0.5416966374	-0.3896654421	-0.8749444761	 0.098215
H	 0.5444042046	-0.268518599	 0.8950701993	 0.118542
H	-1.3640142964	-1.6726075332	 0.0981732432	 0.12388
H	-1.9604839702	-0.1959358976	 0.8945493292	 0.134756
H	-6.2572858188	-0.8652523709	-2.6602787679	 0.155845
H	-3.8569959024	 0.3594527706	-3.3195791642	 0.128636
47.5072	76.0784	139.8698	178.7924	289.5884	343.1225	387.7052	462.0597	491.5176	595.2914	722.3618	740.1363	788.4608	874.4972	884.5163	900.8322	917.5535	945.8996	1035.4498	1040.5088	1083.3777	1102.7658	1127.3057	1169.03	1234.0476	1263.3628	1323.4327	1383.9178	1392.3086	1433.5431	1458.9738	1491.2856	1496.5009	1536.308	1626.5877	2986.2921	3042.539	3084.8532	3097.4286	3261.4232	3295.2009	3810.2127
OCCOC1=NOC=C1	OCCOc1nocc1	
InChI=1S/C5H7NO3/c7-2-4-8-5-1-3-9-6-5/h1,3,7H,2,4H2	InChI=1S/C5H7NO3/c7-2-4-8-5-1-3-9-6-5/h1,3,7H,2,4H2
