15
gdb 24001	3.51627	1.40266	1.01566	3.5366	83.7	-0.2111	-0.0047	0.2063	1112.8609	0.114064	-379.644952	-379.637466	-379.636522	-379.677303	28.008	
C	-0.0735918049	-1.270013265	-0.1164364512	-0.459175
C	-0.078517112	-0.0686937491	-0.0182711626	 0.289703
C	-0.0829022672	 1.3306829146	 0.0966008833	 0.069756
C	-1.0944289118	 2.2818254237	-0.0643246251	-0.181032
N	-0.6615217569	 3.5735573633	 0.1452535955	-0.361411
C	 0.6097541282	 3.4014247511	 0.4322322652	 0.376344
C	 1.9828357955	 3.936101763	 0.8020825041	-0.370358
C	 2.412113244	 2.4128274803	 0.777692605	-0.170051
N	 1.0086116522	 2.1194443011	 0.4205442327	-0.066335
H	-0.0756229596	-2.327948613	-0.2042551518	 0.191073
H	-2.1207585812	 2.0713703245	-0.3249938032	 0.121167
H	 2.4729053316	 4.5590569639	 0.0506994979	 0.139725
H	 2.0628728985	 4.4158062536	 1.7799860642	 0.139727
H	 3.1281582756	 2.1361604527	 0.0009332291	 0.140432
H	 2.7160521379	 1.9922328852	 1.7385994469	 0.140436
81.5662	134.423	139.646	257.7034	394.7378	466.7827	517.6979	567.6591	587.7134	653.3697	674.6164	681.7716	726.2324	810.5837	840.8065	845.0456	893.0245	1056.5882	1070.7263	1136.3819	1146.3842	1173.0581	1184.7865	1222.8633	1260.8214	1274.9015	1369.1842	1448.9979	1476.3159	1491.0101	1516.705	1575.4978	2228.3949	3071.9167	3076.8123	3121.9061	3135.4327	3252.7729	3503.4203
C#CC1=CN=C2CCN12	C#Cc1cnc2CCn12	
InChI=1S/C7H6N2/c1-2-6-5-8-7-3-4-9(6)7/h1,5H,3-4H2	InChI=1S/C7H6N2/c1-2-6-5-8-7-3-4-9(6)7/h1,5H,3-4H2
