18
gdb 29725	3.30835	1.30939	0.94925	2.0985	92.69	-0.1908	0.0045	0.1953	1225.2476	0.146671	-364.830174	-364.820858	-364.819914	-364.864291	34.195	
C	 0.028579834	 1.4073211075	 0.0203534077	-0.348643
N	 0.0162452143	-0.0412560325	 0.0019590875	-0.109234
C	 0.0130447098	-0.8221928684	-1.1268124074	 0.286125
C	 0.0238695971	-0.2337507236	-2.4982609321	-0.510572
C	-0.0008975015	-2.1463855414	-0.7272960692	-0.212988
C	-0.0065349412	-2.1739175936	 0.6831304222	-0.259884
C	 0.0041488166	-0.8601926092	 1.1264347172	 0.159792
C	 0.0040367326	-0.3472326027	 2.4368047001	 0.258576
C	 0.0038547772	 0.0923015023	 3.5608554552	-0.475245
H	 0.92291669	 1.8000861923	-0.4746621958	 0.136092
H	-0.85470918	 1.8152673113	-0.4821443788	 0.136105
H	 0.0271134618	 1.7416321792	 1.0579380675	 0.159879
H	 0.9128266336	 0.3832607743	-2.6809528661	 0.129827
H	 0.0189950922	-1.0349092604	-3.2404151923	 0.137089
H	-0.8516770777	 0.4001787839	-2.6876852885	 0.129804
H	-0.0062594123	-2.9961515028	-1.3930953592	 0.094807
H	-0.0169516419	-3.0410106766	 1.3244039974	 0.102106
H	 0.0035577053	 0.4665763506	 4.5540928747	 0.186365
62.0462	111.7173	150.9006	162.309	204.7865	256.5619	281.3023	394.8849	449.8552	487.3927	529.6872	566.9117	637.2786	666.6585	678.1159	694.2998	744.4699	772.5398	830.7983	964.1281	1008.6333	1051.0775	1059.6929	1152.5087	1158.3721	1207.8209	1239.0596	1346.6927	1393.0092	1418.5144	1434.9028	1471.7357	1477.8841	1493.5627	1503.974	1510.3919	1515.1769	1592.7635	2215.3143	3015.4975	3034.0358	3058.6287	3088.7844	3124.941	3151.4697	3243.243	3263.6548	3502.9447
CN1C(C)=CC=C1C#C	Cn1c(C)ccc1C#C	
InChI=1S/C8H9N/c1-4-8-6-5-7(2)9(8)3/h1,5-6H,2-3H3	InChI=1S/C8H9N/c1-4-8-6-5-7(2)9(8)3/h1,5-6H,2-3H3
