15
gdb 25884	4.2675	1.08334	0.86868	3.4963	69.54	-0.247	-0.0197	0.2273	1267.5735	0.112968	-454.027337	-454.018798	-454.017854	-454.061	30.355	
C	 0.001174245	 1.4526671597	-0.0128672891	-0.491052
C	-0.077166438	-0.0295922855	 0.0278155756	 0.380433
N	-1.1186659673	-0.7927407958	-0.0651768607	-0.369497
C	-0.6216972994	-2.0918330861	 0.0346989579	 0.170607
C	 0.7231176543	-2.0328552271	 0.1857023142	-0.092872
O	 1.0876951388	-0.7209239721	 0.1833935601	-0.169288
C	-1.4672004556	-3.3089891972	-0.0208356436	 0.310707
N	-2.7906640838	-3.0426532487	-0.1802727625	-0.539809
O	-0.99518897	-4.4293748113	 0.0702627268	-0.371948
H	 0.6317269635	 1.7896831158	-0.8418614333	 0.152144
H	-1.0026949503	 1.8578044806	-0.1404321513	 0.158377
H	 0.4325928476	 1.8482950226	 0.9121881975	 0.152141
H	 1.4999602375	-2.7675674565	 0.2986107317	 0.174528
H	-3.1125797282	-2.0916795972	-0.2486033707	 0.274097
H	-3.438811654	-3.8097419913	-0.2283614325	 0.261432
80.5702	98.8879	156.0889	159.1658	218.3593	300.6629	339.4035	387.1324	511.6655	586.9084	644.3049	653.7809	698.9943	722.8058	779.8894	840.1995	932.9573	996.5212	1042.112	1066.6026	1092.5893	1140.3381	1183.6248	1256.8302	1340.7774	1380.1623	1414.1017	1474.8275	1480.3641	1593.1331	1629.6609	1632.5335	1786.9024	3046.7497	3102.5197	3159.0192	3309.9456	3601.5099	3744.7466
CC1=NC(=CO1)C(N)=O	Cc1nc(co1)C(=O)N	
InChI=1S/C5H6N2O2/c1-3-7-4(2-9-3)5(6)8/h2H,1H3,(H2,6,8)	InChI=1S/C5H6N2O2/c1-3-7-4(2-9-3)5(6)8/h2H,1H3,(H2,6,8)
