17
gdb 48589	3.29048	1.49488	1.30235	2.6659	72.96	-0.2301	-0.0318	0.1983	992.3751	0.137476	-417.928623	-417.92156	-417.920615	-417.960467	28.007	
O	-0.7112801082	 0.8638921608	 0.5595709327	-0.251788
C	 0.2583899012	 0.8349470284	-0.1576609171	 0.019608
C	 1.4239249811	 1.7599151157	-0.0334878768	 0.253362
C	 1.8917432498	 2.4486248242	 1.2864789949	-0.264856
C	 3.2097453546	 2.4903661935	 0.4440910011	-0.038799
N	 2.8127701518	 1.187261061	-0.2091911414	-0.338475
C	 2.8092849301	 3.5112653511	-0.6428034894	-0.023753
N	 2.5881994506	 2.9278546377	-1.9833055074	-0.305951
C	 1.480316712	 2.9759260909	-1.01214299	-0.089555
H	 0.3487365162	 0.1056399687	-0.9940761676	 0.09391
H	 1.420080192	 3.3902235532	 1.5864423367	 0.099931
H	 1.9382243628	 1.7540763069	 2.1293655185	 0.105978
H	 4.2030058501	 2.5494478425	 0.8871823175	 0.080037
H	 2.9143960386	 0.4705968263	 0.5118972619	 0.219114
H	 3.0209152004	 4.5660746569	-0.5168503777	 0.100542
H	 2.4554289265	 3.6944182239	-2.64211539	 0.232911
H	 0.5937857504	 3.5739868581	-1.1824824859	 0.107784
61.2958	167.5631	246.9964	356.8763	394.9511	475.4075	523.9376	630.0621	676.3731	705.6141	777.7124	805.4133	858.9937	864.908	886.485	913.8245	930.4008	950.7019	1001.8174	1026.7596	1036.1597	1062.9241	1084.396	1105.3736	1140.6078	1172.5293	1202.597	1216.5377	1229.0882	1267.6114	1295.9807	1316.3096	1367.8504	1392.5429	1412.3185	1497.8648	1818.3406	2883.8118	3044.1201	3114.6869	3129.1518	3186.1739	3196.7492	3436.9745	3478.3629
O=CC12CC(N1)C1NC21	O=C[C@@]12C[C@@H](N1)[C@H]1N[C@@H]21	
InChI=1S/C6H8N2O/c9-2-6-1-3(8-6)4-5(6)7-4/h2-5,7-8H,1H2	InChI=1S/C6H8N2O/c9-2-6-1-3(8-6)4-5(6)7-4/h2-5,7-8H,1H2/t3-,4-,5-,6-/m1/s1
