17
gdb 48493	2.31503	1.44573	1.1612	2.8358	69.15	-0.2579	-0.0401	0.2178	1101.0389	0.134545	-458.977926	-458.969188	-458.968244	-459.012772	30.603	
O	-0.0730466448	-0.0371142375	 0.4354705963	-0.250622
C	-0.0057949319	 1.1178704382	 0.1055528787	 0.125604
C	 1.2939337044	 1.9094614698	-0.0218905059	 0.081939
C	 1.4669825964	 2.822999407	 1.232368196	-0.289249
C	 2.4795423301	 2.0342747916	 2.0731206139	-0.078804
O	 3.3623438902	 1.4727255911	 1.1208352903	-0.237618
C	 2.5695735509	 1.0113346274	 0.0391520101	-0.144844
C	 1.2764403764	 2.7409307328	-1.2892959091	 0.109162
O	 0.4218262822	 2.6900736209	-2.1354262953	-0.250829
H	-0.9175136242	 1.7150264312	-0.0965915833	 0.10925
H	 1.8928868741	 3.787408338	 0.934995745	 0.120653
H	 0.5210130726	 3.0163964397	 1.7460563209	 0.122969
H	 3.0632866104	 2.6583628649	 2.7539444011	 0.120294
H	 1.97069083	 1.2514918748	 2.6570969479	 0.110825
H	 2.2453897058	-0.0258824409	 0.1882528777	 0.140112
H	 3.1779498717	 1.0691705265	-0.8687760445	 0.117748
H	 2.1547946857	 3.4199375146	-1.3879281599	 0.093409
42.3611	65.6512	78.0155	217.638	251.0884	293.5897	329.232	352.4972	418.2191	603.8176	639.9701	679.706	784.8888	874.6982	919.3943	929.9744	959.8638	964.0523	1006.0508	1066.4045	1095.3953	1117.6966	1141.2745	1182.4252	1243.2475	1265.1131	1289.8073	1325.7117	1360.5877	1398.0067	1417.8837	1427.1368	1484.8456	1503.9157	1520.7853	1818.3348	1831.5884	2868.9017	2934.3043	2987.8561	3032.279	3045.5007	3084.3505	3098.2919	3105.9737
O=CC1(CCOC1)C=O	O=CC1(CCOC1)C=O	
InChI=1S/C6H8O3/c7-3-6(4-8)1-2-9-5-6/h3-4H,1-2,5H2	InChI=1S/C6H8O3/c7-3-6(4-8)1-2-9-5-6/h3-4H,1-2,5H2
