17
gdb 69981	2.5199	1.90858	1.39056	2.0637	67.25	-0.225	0.0499	0.2749	945.0544	0.135049	-458.889626	-458.881968	-458.881024	-458.921137	31.003	
O	 0.1177487705	 1.393312113	-0.1020792998	-0.456969
C	 0.0177675256	 0.028797704	-0.0051924299	 0.387252
C	-0.3337654205	-0.8023168197	-1.1802240535	-0.341057
C	-1.1962922205	-0.94313427	 0.060657963	-0.163676
C	-0.4462693919	-1.7575188209	 1.1272184983	 0.032979
O	 0.4408373054	-2.819257271	 0.6629950413	-0.295099
C	 1.6143101061	-1.9755723057	 0.7749218644	-0.162453
C	 0.7275842659	-0.7597046241	 1.1237765998	 0.273773
O	 1.0503266585	 0.1185063859	 2.1568445882	-0.488986
H	 0.1789923804	 1.7299416974	 0.8015018836	 0.29683
H	-0.8063866647	-0.2315236091	-1.9735376431	 0.124153
H	 0.2769378272	-1.6324020925	-1.5211921814	 0.128319
H	-2.2654163829	-0.7720233943	 0.0340774071	 0.09132
H	-1.0042727295	-2.0318695386	 2.0259187591	 0.078522
H	 2.2603482473	-2.2945424054	 1.6059869578	 0.090891
H	 2.2022133472	-1.9403920531	-0.1486731311	 0.11307
H	 1.2460088159	-0.3854620059	 2.9537274963	 0.29113
157.3552	239.5171	257.3382	278.4495	312.5108	382.0927	426.4814	449.4098	467.9373	525.8968	619.7908	657.4664	768.638	782.5264	862.1892	887.9873	905.4567	943.6411	972.4176	984.0286	1017.8689	1033.3799	1078.3287	1084.0357	1103.0867	1143.8781	1160.6063	1189.0835	1255.6929	1265.4062	1288.2649	1324.2289	1344.325	1398.5791	1435.7084	1506.9774	1513.3664	2994.1237	3067.6332	3081.8636	3125.7356	3187.1816	3211.4541	3772.8826	3814.8031
OC12CC1C1OCC21O	O[C@]12C[C@H]1[C@H]1OC[C@@]21O	
InChI=1S/C6H8O3/c7-5-1-3(5)4-6(5,8)2-9-4/h3-4,7-8H,1-2H2	InChI=1S/C6H8O3/c7-5-1-3(5)4-6(5,8)2-9-4/h3-4,7-8H,1-2H2/t3-,4+,5+,6-/m0/s1
