14
gdb 21312	7.40596	1.12505	0.98884	3.9847	59.9	-0.2667	-0.0369	0.2298	1121.1068	0.106199	-415.819195	-415.811615	-415.810671	-415.852298	25.697	
C	-0.0039644623	 1.3926795904	 0.0281653711	-0.227872
O	 0.0022267234	-0.0174607122	 0.0006263883	-0.237772
C	 0.6651249739	-0.5821720894	 1.1062285581	-0.161677
C	 0.6049215246	-2.065610691	 0.9618316505	 0.231494
C	 0.0510702788	-2.838058766	-0.0067435077	-0.027021
O	 0.2510959954	-4.1193075723	 0.3003807256	-0.161766
N	 0.9708228312	-4.1289035022	 1.5298047942	-0.005889
N	 1.1554150594	-2.9332146711	 1.8778856952	-0.184027
H	 1.0171933163	 1.8032296038	 0.0125289015	 0.113103
H	-0.5365442816	 1.7313943063	-0.8629057012	 0.134787
H	-0.5187413245	 1.7787089213	 0.9212133078	 0.113125
H	 1.7155034314	-0.2478808411	 1.154523832	 0.116875
H	 0.1929659642	-0.2738342009	 2.0545443852	 0.116957
H	-0.4831927202	-2.6130023556	-0.9132192405	 0.179684
47.9778	79.0542	137.4975	217.9236	277.1176	352.4884	412.5283	632.2105	648.496	701.7098	757.5156	852.2769	988.4252	998.9319	1050.5526	1052.6252	1138.386	1166.739	1184.7715	1226.142	1242.5648	1250.7707	1321.0653	1413.2432	1463.5413	1484.5017	1485.0875	1502.186	1523.5697	1633.545	2956.7419	2977.8516	2980.1355	3027.1534	3124.8275	3305.8986
COCC1=CON=N1	COCc1conn1	
InChI=1S/C4H6N2O2/c1-7-2-4-3-8-6-5-4/h3H,2H2,1H3	InChI=1S/C4H6N2O2/c1-7-2-4-3-8-6-5-4/h3H,2H2,1H3
