17
gdb 38313	3.01164	1.96236	1.94288	1.9882	64.97	-0.2404	0.0601	0.3004	812.889	0.139921	-458.919574	-458.913858	-458.912914	-458.949356	24.868	
C	-0.102459375	 1.555392005	 0.0915159014	-0.243732
C	 1.440447669	 1.4019196539	 0.0243660838	 0.051923
O	 1.3003506001	 0.1488384529	 0.7486902106	-0.266845
C	 0.0219689279	 0.0208955394	 0.063686353	 0.050306
C	 0.3560192704	-0.4467862892	-1.4161386201	 0.173552
O	-0.1184379206	 0.5008646494	-2.3800542273	-0.277332
C	 0.9515371496	 1.4540678177	-2.5276864413	-0.111383
C	 1.9290056065	 1.0085481954	-1.4265294612	 0.033115
O	 1.7540970569	-0.4107435483	-1.5402082256	-0.215761
H	-0.4079000372	 1.9088922502	 1.0775778716	 0.109703
H	-0.659628652	 2.0612557596	-0.6926580644	 0.122243
H	 2.096135791	 2.1175719962	 0.5240608387	 0.083877
H	-0.6818181235	-0.6287776462	 0.5868362616	 0.079838
H	-0.0214964196	-1.4381323024	-1.6695674227	 0.095488
H	 1.4031203831	 1.349492401	-3.5200772655	 0.114338
H	 0.5677879	 2.4716322511	-2.4089918469	 0.107879
H	 2.9754933434	 1.2520425242	-1.6076615655	 0.092791
255.7056	353.5597	390.2896	505.8178	519.0734	567.8987	635.7813	734.738	764.3759	799.6556	833.0278	886.6406	914.5585	919.5706	921.6406	945.5404	958.6774	991.735	1008.4792	1031.2117	1058.5632	1085.8897	1121.509	1149.5103	1185.6353	1208.2092	1246.9352	1269.9118	1283.4659	1299.466	1318.58	1321.4875	1337.3291	1358.3415	1376.3197	1501.8972	1522.4484	3041.2215	3087.8382	3088.6999	3096.3551	3102.3847	3118.6079	3128.9516	3170.566
C1C2OC1C1OCC2O1	C1[C@H]2O[C@@H]1[C@H]1OC[C@@H]2O1	
InChI=1S/C6H8O3/c1-3-5-2-7-6(9-5)4(1)8-3/h3-6H,1-2H2	InChI=1S/C6H8O3/c1-3-5-2-7-6(9-5)4(1)8-3/h3-6H,1-2H2/t3-,4+,5+,6+/m1/s1
