20
gdb 126923	3.33983	1.03975	0.80602	3.554	83.62	-0.1953	0.0428	0.2381	1444.8057	0.172049	-399.347506	-399.338	-399.337056	-399.382526	34.093	
C	 0.0312010293	 1.5512227839	-0.0160060856	-0.401614
C	-0.0145064183	 0.0278950512	-0.0618781677	-0.107653
N	 0.7303305996	-0.474524244	-1.2120305299	-0.413959
C	 0.795683499	-1.8542642954	-1.3732646528	 0.453628
C	 0.3612558789	-2.9048535054	-0.5796241019	-0.323428
C	 0.7945168984	-4.0577831854	-1.2681073676	-0.002815
N	 1.4355665077	-3.7691088296	-2.3921652685	-0.279885
N	 1.4401232405	-2.4072729724	-2.4367096271	-0.034075
C	 2.0722030743	-1.7143440701	-3.5324813738	-0.339704
H	 1.06389163	 1.9085735145	 0.0297658192	 0.131246
H	-0.4417744392	 1.9887338061	-0.9031393535	 0.115654
H	-0.5057555712	 1.9238404285	 0.8605301945	 0.124963
H	 0.4503367167	-0.3886698394	 0.838734808	 0.122161
H	-1.0609727073	-0.3197026562	-0.0669600451	 0.099021
H	 0.4852599596	 0.014155354	-2.0649285914	 0.231795
H	-0.1865286679	-2.8435520677	 0.3453350068	 0.094212
H	 0.6580337868	-5.0917038101	-0.984719421	 0.102845
H	 1.3402797382	-1.3313399052	-4.255747633	 0.125806
H	 2.6664102715	-0.8769594696	-3.1536559088	 0.140251
H	 2.7235188235	-2.4259471878	-4.0392019506	 0.161551
66.5794	77.9762	115.0383	135.917	182.8946	254.3223	286.5682	301.1751	346.8107	492.7743	585.6153	650.8569	670.4357	709.3555	747.9967	812.513	830.8173	880.2189	928.3735	947.9021	1017.7026	1065.416	1091.0305	1142.1089	1150.8227	1159.0359	1216.8104	1247.7153	1292.5275	1311.0134	1374.0617	1378.3863	1411.9626	1426.8886	1458.2038	1473.2082	1489.549	1493.9383	1500.0379	1511.8367	1525.9303	1558.2502	1602.0269	2965.072	3015.1778	3034.1507	3057.3053	3084.3061	3103.1455	3123.8626	3159.5588	3237.4127	3276.267	3541.9945
CCNC1=CC=NN1C	CCNc1ccnn1C	
InChI=1S/C6H11N3/c1-3-7-6-4-5-8-9(6)2/h4-5,7H,3H2,1-2H3	InChI=1S/C6H11N3/c1-3-7-6-4-5-8-9(6)2/h4-5,7H,3H2,1-2H3
