22
gdb 14522	3.83886	1.34264	1.3142	0.0441	82.05	-0.2561	0.0833	0.3394	1089.0763	0.200797	-313.051371	-313.042957	-313.042013	-313.084276	32.676	
C	 0.1462399833	 1.5491620576	 0.1976708092	-0.47763
C	 0.0421450183	 0.0416105547	 0.0557353299	 0.375145
C	 1.0495283156	-0.6373361044	-0.8471096777	-0.305562
C	 1.1606985197	-0.7860354253	 0.6513306156	-0.305619
C	-1.3457332078	-0.5641161944	 0.0984159653	-0.002781
C	-2.311361048	-0.2823587783	 1.289163732	-0.238372
C	-3.4915331523	-0.310584139	 0.2810949461	-0.208703
C	-2.4696052533	-0.0711915004	-0.8626361605	-0.238325
H	 1.1915688027	 1.8701330584	 0.1513809082	 0.110671
H	-0.390865379	 2.0709312068	-0.6020961829	 0.116287
H	-0.2594703385	 1.8965302502	 1.1542749102	 0.116306
H	 0.7240254698	-1.4975307317	-1.4230716202	 0.106045
H	 1.7815625407	-0.0174782401	-1.3543702433	 0.105373
H	 1.9679397026	-0.2667244394	 1.1573925572	 0.105373
H	 0.9104231981	-1.7468692644	 1.0892707312	 0.106046
H	-1.2470989445	-1.6504038418	-0.015490306	 0.060779
H	-2.3197000479	-0.9968482605	 2.1162308872	 0.091824
H	-2.1654961047	 0.7205923566	 1.7011409316	 0.099277
H	-3.944934049	-1.3041355213	 0.216929012	 0.099201
H	-4.2884204489	 0.4251637725	 0.4119208717	 0.093569
H	-2.3707485119	 0.9944373404	-1.0897288747	 0.09927
H	-2.607843035	-0.6123695559	-1.8021177621	 0.091826
53.8843	127.052	196.7043	209.5158	274.5096	316.5257	345.3221	443.6603	477.2709	573.9091	716.5764	783.3914	783.5558	822.7738	863.0795	896.5893	921.62	933.3594	953.8579	959.4474	963.1252	1028.0477	1045.7429	1050.2035	1073.4315	1078.5618	1120.681	1128.8804	1188.0244	1202.4495	1235.8362	1252.8669	1261.6788	1268.1732	1291.3675	1297.4159	1336.2253	1399.8268	1424.8251	1469.0439	1475.9925	1485.7784	1495.0605	1499.5453	1508.6601	1512.0026	3024.9098	3028.9201	3051.6587	3053.6156	3059.5003	3088.5433	3095.0272	3099.3952	3103.6777	3117.942	3124.2116	3128.9627	3201.3132	3215.8397
CC1(CC1)C1CCC1	CC1(CC1)C1CCC1	
InChI=1S/C8H14/c1-8(5-6-8)7-3-2-4-7/h7H,2-6H2,1H3	InChI=1S/C8H14/c1-8(5-6-8)7-3-2-4-7/h7H,2-6H2,1H3
