17
gdb 88914	3.3097	0.94259	0.91359	1.8872	77.25	-0.2717	-0.042	0.2297	1360.3818	0.132962	-421.802753	-421.793359	-421.792415	-421.838095	33.59	
C	-0.1663634931	 1.3957165863	 0.415368607	-0.411378
C	 0.1029741595	-0.0718564676	 0.1704869517	-0.015238
C	 1.4699709386	-0.5360958651	-0.3000760152	-0.337793
C	 1.0025122265	-0.8619145024	 1.0813989256	 0.131247
O	 1.6832687044	-0.1743689559	 2.121779455	-0.23391
C	 1.1613883027	-0.3187835411	 3.3572837404	 0.298188
O	 0.194793661	-0.9841514978	 3.6293138771	-0.351143
C	 1.9346028909	 0.4303844867	 4.3240657728	 0.222976
C	 2.5356303827	 1.0355706258	 5.1701532862	-0.360638
H	 0.7121520198	 1.8951530215	 0.8322252342	 0.127999
H	-0.4322995174	 1.902632123	-0.5178223168	 0.12096
H	-0.9941200859	 1.5306752519	 1.1196960719	 0.128178
H	-0.7464248098	-0.6322583179	-0.2111318603	 0.09637
H	 1.5484761659	-1.3413673603	-1.0216685044	 0.120178
H	 2.2419684017	 0.2220512197	-0.3797609406	 0.128238
H	 0.7312949046	-1.8739970522	 1.3547460381	 0.123075
H	 3.0679570178	 1.5703890153	 5.9186489874	 0.212691
33.1175	65.4947	123.183	184.5974	220.8072	232.2406	294.4851	327.5786	407.1482	484.0005	596.7566	608.1544	658.1446	698.4955	772.6475	779.912	815.8505	841.4333	896.9349	944.3281	987.3491	1052.3972	1093.2035	1102.1243	1137.512	1165.4916	1191.6266	1232.2212	1247.4118	1375.2101	1409.2953	1420.6526	1484.8923	1495.1378	1504.7106	1795.5946	2237.2098	3036.9148	3097.9958	3115.8946	3136.0799	3145.8168	3190.6262	3224.869	3498.0475
CC1CC1OC(=O)C#C	C[C@H]1C[C@H]1OC(=O)C#C	
InChI=1S/C7H8O2/c1-3-7(8)9-6-4-5(6)2/h1,5-6H,4H2,2H3	InChI=1S/C7H8O2/c1-3-7(8)9-6-4-5(6)2/h1,5-6H,4H2,2H3/t5-,6+/m0/s1
