18
gdb 22450	2.55202	1.04238	0.80524	1.2956	79.92	-0.2462	-0.0387	0.2075	1441.209	0.143642	-439.006743	-438.996291	-438.995347	-439.042711	37.587	
C	 0.0107731169	 1.5890691485	-0.0344417307	-0.392377
C	-0.0696039681	 0.0605791676	-0.0314742715	-0.182052
C	 0.7376263673	-0.557115003	-1.1770847564	 0.047353
O	 2.1141808137	-0.1838091082	-1.1336145039	-0.421831
C	 0.6321480031	-2.0763292385	-1.2697623945	 0.108783
N	 0.0844808963	-2.7037488313	-0.2903688324	-0.162552
O	 0.0841787842	-4.0784150563	-0.4644119227	-0.381084
C	 1.1853659559	-2.7048383859	-2.4221475849	 0.365678
C	 1.6461043036	-3.1906578751	-3.4222980984	-0.443952
H	 1.0502773366	 1.9234102398	 0.0155352377	 0.127769
H	-0.4279078534	 2.0069501299	-0.9475127559	 0.113923
H	-0.5297289614	 2.0104904964	 0.8181115818	 0.1102
H	 0.2992038984	-0.3407787355	 0.9199498188	 0.100713
H	-1.1099541357	-0.2711107798	-0.1130693112	 0.108412
H	 0.3822668334	-0.1464144503	-2.1303460094	 0.101804
H	 2.4898660626	-0.565359601	-0.3313917599	 0.282743
H	-0.3638831521	-4.3890041894	 0.330731356	 0.310765
H	 2.0574653185	-3.6292986077	-4.2979376324	 0.205704
32.3937	99.7552	122.1567	168.2695	186.5911	236.52	273.5719	287.687	334.5476	362.0826	402.5921	438.8515	471.7644	509.8763	630.8274	642.5528	666.6694	741.3971	778.6468	826.1625	905.8807	982.4478	1036.1381	1063.2592	1098.7152	1131.3124	1213.2927	1248.8514	1307.3019	1326.7114	1389.0143	1400.5316	1408.098	1419.7729	1478.3459	1497.8016	1510.2101	1679.5182	2221.9725	3033.7875	3037.5599	3044.4833	3079.4841	3104.1161	3123.5522	3499.3894	3791.4958	3805.5113
CCC(O)C(=NO)C#C	CC[C@@H](O)C(=NO)C#C	
InChI=1S/C6H9NO2/c1-3-5(7-9)6(8)4-2/h1,6,8-9H,4H2,2H3	InChI=1S/C6H9NO2/c1-3-5(7-9)6(8)4-2/h1,6,8-9H,4H2,2H3/t6-/m1/s1
