21
gdb 93011	2.69486	1.46078	1.06165	0.9256	86.39	-0.2201	0.0243	0.2443	1202.155	0.182723	-387.093646	-387.085202	-387.084258	-387.126324	33.72	
C	 0.0095773931	 1.4958315846	 0.1192335282	-0.406492
C	 0.0291070326	-0.0183546545	-0.0137948483	 0.125771
C	 0.7406642532	-0.5117920195	-1.2812230312	-0.261145
C	 1.0029430546	-1.9919565669	-1.1945738102	-0.112422
C	 0.9381033489	-2.637621889	-0.0307501815	-0.095122
C	 0.6571788831	-1.9264984778	 1.2344052087	 0.424933
C	-0.3245613969	-2.5235437653	 2.2345606882	-0.323807
C	 1.1514899782	-2.4635006685	 2.5481789275	-0.325814
O	 0.6927302299	-0.5286283548	 1.1455458839	-0.312543
H	 1.0309803261	 1.8848985295	 0.1772307465	 0.124004
H	-0.4874832922	 1.9511221191	-0.7428415893	 0.113058
H	-0.5224061971	 1.7948953606	 1.0264098879	 0.120111
H	-1.0044910161	-0.4014864146	-0.0261205584	 0.068962
H	 0.1209252509	-0.2848374378	-2.1584039166	 0.101541
H	 1.6810388	 0.0415047073	-1.4186401414	 0.109066
H	 1.2355746794	-2.5279018501	-2.1102444624	 0.087962
H	 1.086912659	-3.7119204545	 0.0320454138	 0.089056
H	-0.9702941817	-1.8171147975	 2.7435025893	 0.120534
H	-0.7746155087	-3.4848912856	 2.0124095663	 0.111735
H	 1.7274452671	-3.3823593234	 2.5426455684	 0.114304
H	 1.4804713468	-1.7202531812	 3.2652689306	 0.126307
103.2391	141.4266	217.1622	239.813	255.2992	356.1005	380.1205	441.951	468.3372	484.2937	550.9701	652.8642	729.3813	771.5528	825.3729	850.9433	891.8794	903.3123	934.2453	938.0071	956.3365	985.035	992.1723	1019.2007	1052.331	1075.8585	1087.0562	1129.1327	1152.0823	1187.7263	1193.0338	1237.063	1295.511	1306.9677	1327.0319	1384.1628	1392.3161	1408.7903	1432.3736	1450.1914	1469.1374	1482.7117	1488.67	1499.8082	1715.138	2966.3363	3004.6228	3040.7031	3044.0033	3114.2837	3119.5934	3133.782	3137.1663	3156.1706	3178.2885	3220.2861	3234.872
CC1CC=CC2(CC2)O1	C[C@H]1CC=CC2(CC2)O1	
InChI=1S/C8H12O/c1-7-3-2-4-8(9-7)5-6-8/h2,4,7H,3,5-6H2,1H3	InChI=1S/C8H12O/c1-7-3-2-4-8(9-7)5-6-8/h2,4,7H,3,5-6H2,1H3/t7-/m0/s1
