22
gdb 82204	2.36723	1.77867	1.33051	1.5239	84.26	-0.2237	0.0787	0.3024	1075.6822	0.195215	-367.180414	-367.172038	-367.171094	-367.21262	34.016	
C	 0.0734041476	 1.5983977619	 0.0009278258	-0.396615
C	 0.0765594213	 0.0654530505	 0.0253432263	-0.073822
C	 0.7583749451	-0.6047804315	-1.1743185103	-0.025109
C	 2.2077758476	-0.4290539822	-1.4480463278	-0.254724
N	 1.7370340182	-1.6141726485	-0.7168938817	-0.106331
C	 1.7636212947	-1.5475928189	 0.7455604747	-0.04786
C	 2.1989600691	-0.3082782722	 1.4972288296	-0.353753
C	 0.7284695234	-0.578058919	 1.2674964003	 0.356993
C	-0.1664289223	-0.8739029045	 2.4488562743	-0.483976
H	 1.0898129817	 2.0031713454	 0.0078974631	 0.114128
H	-0.428534304	 1.9748920641	-0.8963206892	 0.115229
H	-0.4536284785	 2.0037148749	 0.8711591664	 0.115057
H	-0.9694213462	-0.2673528005	 0.0164435877	 0.075163
H	 0.1121072082	-0.9080079096	-1.9953898503	 0.086325
H	 2.5886087948	-0.6419342986	-2.4438014698	 0.111996
H	 2.7667596707	 0.3375644995	-0.923274658	 0.110901
H	 1.9262986321	-2.5133535946	 1.2125188495	 0.090784
H	 2.5694109224	-0.4688199783	 2.5054687044	 0.106675
H	 2.6979765326	 0.5071970513	 0.9885256718	 0.109691
H	-0.5661998942	 0.0480666062	 2.8886667527	 0.117122
H	-1.0183258267	-1.4996201385	 2.1576472016	 0.116837
H	 0.3806579921	-1.399821207	 3.2376847887	 0.11529
146.2774	198.0828	214.1706	222.9009	241.3654	295.5813	379.5988	417.0818	495.1867	535.0886	600.8479	661.2491	681.0693	754.7356	805.0608	836.3192	851.1926	916.5048	927.0975	961.6721	999.5314	1026.0205	1038.9664	1046.6205	1068.3976	1085.7821	1101.1064	1109.1028	1118.4036	1138.8457	1153.9093	1166.7722	1238.6812	1283.428	1293.9796	1318.6577	1357.9069	1384.7741	1401.965	1413.1844	1419.1241	1481.8439	1489.1857	1495.7336	1498.0068	1500.4144	1523.0163	3016.042	3020.2591	3034.9589	3076.7138	3096.6529	3098.2843	3109.9971	3114.0348	3123.2027	3131.9738	3159.2298	3198.0004	3215.5919
CC1C2CN2C2CC12C	C[C@H]1[C@H]2CN2[C@H]2C[C@@]12C	
InChI=1S/C8H13N/c1-5-6-4-9(6)7-3-8(5,7)2/h5-7H,3-4H2,1-2H3	InChI=1S/C8H13N/c1-5-6-4-9(6)7-3-8(5,7)2/h5-7H,3-4H2,1-2H3/t5-,6+,7-,8-,9?/m0/s1
