13
gdb 20715	7.28669	1.27642	1.09353	2.6253	68.85	-0.2643	-0.0428	0.2215	1015.1372	0.097401	-357.688331	-357.681182	-357.680238	-357.720076	25.356	
C	-0.0027796182	 1.4903326381	-0.0709479738	-0.494931
C	 0.0017664708	-0.0004590589	 0.0513356796	 0.357974
N	-0.0622934474	-0.7743212488	-1.0367968102	-0.254654
N	-0.0381823162	-2.0310663327	-0.5819352207	-0.269468
C	 0.0407670556	-2.0965421278	 0.7782152937	 0.305196
C	 0.0680284701	-0.7856110453	 1.2230245722	-0.378919
C	 0.0793627396	-3.3257692224	 1.4763009046	 0.225632
N	 0.110059536	-4.3406875883	 2.0335246601	-0.335453
H	 0.9077148084	 1.9267327677	 0.3526443547	 0.137874
H	-0.0659692319	 1.7752345849	-1.1227554629	 0.147982
H	-0.8536731375	 1.9301082537	 0.4595286946	 0.137813
H	-0.0771016501	-2.800834193	-1.2298729948	 0.29137
H	 0.1275857109	-0.4584737672	 2.2479163728	 0.129585
80.0887	132.8136	152.0302	294.6714	339.978	487.4758	531.842	540.5788	568.2512	685.4923	701.6434	722.6682	840.4023	991.0907	1010.3115	1044.9637	1067.6168	1165.0141	1211.6562	1287.6458	1409.613	1413.0565	1443.6625	1483.9349	1490.8146	1496.8984	1591.7802	2347.4332	3042.0441	3096.4113	3139.1904	3276.7504	3666.2708
CC1=NNC(=C1)C#N	Cc1n[nH]c(c1)C#N	
InChI=1S/C5H5N3/c1-4-2-5(3-6)8-7-4/h2H,1H3,(H,7,8)	InChI=1S/C5H5N3/c1-4-2-5(3-6)8-7-4/h2H,1H3,(H,7,8)
