16
gdb 46123	4.22451	0.94297	0.87872	3.1346	68.92	-0.2623	-0.0422	0.2201	1291.8671	0.12383	-437.919392	-437.911079	-437.910135	-437.953351	29.871	
O	 0.0289324529	 0.1871214707	 0.5910633396	-0.287442
C	 0.0379294689	 1.330102165	 0.2256053219	 0.369348
C	-1.153491891	 2.2907586625	 0.2103632505	-0.185836
O	-0.6940334296	 3.4874604504	-0.389984785	-0.251794
C	 0.7276986464	 3.5745060182	-0.2675240166	 0.100537
C	 1.1345826023	 4.2972902026	 1.038076731	-0.361189
C	 0.5732713765	 5.6420260079	 1.1315446205	 0.271957
N	 0.1409091505	 6.7108446887	 1.2005683434	-0.29676
C	 1.2332799352	 2.1275477635	-0.3055297634	-0.361843
H	-1.9847316106	 1.886039837	-0.3751857766	 0.149524
H	-1.5102626916	 2.4462486019	 1.2403309477	 0.133529
H	 1.0713901498	 4.1673942573	-1.1181238011	 0.116149
H	 0.8118871379	 3.7160583894	 1.9102190726	 0.153938
H	 2.2272892991	 4.3661005828	 1.0892821596	 0.157671
H	 2.1325486821	 1.928921095	 0.2809944708	 0.140974
H	 1.4262202411	 1.807716597	-1.3352814949	 0.151238
52.3718	76.689	146.1548	155.293	316.8909	374.9724	396.8403	451.6292	465.8952	548.1671	626.6979	718.9582	759.1723	818.6498	840.9328	924.1977	968.4354	987.4394	1023.6697	1071.4631	1091.0133	1161.1012	1178.76	1220.1585	1237.9572	1263.5594	1298.4115	1319.8632	1368.702	1393.7655	1447.9762	1458.2786	1484.7778	1865.7752	2368.083	2993.9391	3040.5353	3059.7971	3076.9478	3084.0304	3095.2301	3122.0174
O=C1COC(CC#N)C1	O=C1CO[C@@H](CC#N)C1	
InChI=1S/C6H7NO2/c7-2-1-6-3-5(8)4-9-6/h6H,1,3-4H2	InChI=1S/C6H7NO2/c7-2-1-6-3-5(8)4-9-6/h6H,1,3-4H2/t6-/m0/s1
