22
gdb 100826	2.57337	0.94587	0.79197	2.4701	80.12	-0.2387	-0.0313	0.2074	1510.2268	0.191454	-441.468972	-441.458335	-441.457391	-441.505268	38.364	
C	 0.6355272183	 0.78243612	-1.0640349126	-0.410908
C	-0.0800540052	 0.3278549401	 0.2114490812	 0.035907
C	-1.3009055755	-0.5362867678	-0.1665333214	-0.051386
O	-0.8947132096	-1.7509752077	-0.7590503625	-0.420535
N	 0.7826287236	-0.4898848511	 1.1011485566	-0.096937
C	 2.2041562435	-0.1509435134	 1.1120810263	-0.337099
C	 0.2782275617	-0.5537520218	 2.4670504192	-0.234616
C	 0.7630647323	-1.8022283056	 3.1887039036	 0.151665
O	 0.967949336	-1.8697486229	 4.3711908922	-0.234116
H	 0.9720355678	-0.07776205	-1.6487259645	 0.136371
H	-0.0695496955	 1.3474503704	-1.6803404117	 0.120969
H	 1.4873481353	 1.4341353738	-0.8594748502	 0.118536
H	-0.4345841884	 1.2274690582	 0.7458260983	 0.063385
H	-1.9370450495	-0.7168660085	 0.7156533846	 0.081912
H	-1.9183863828	-0.0005264304	-0.8952144878	 0.105639
H	-0.1462778233	-2.043624472	-0.2183129845	 0.273352
H	 2.4022299811	 0.8776981297	 1.461725358	 0.106117
H	 2.7272716125	-0.832776126	 1.7903527264	 0.129993
H	 2.6434319425	-0.2745467498	 0.1221130001	 0.134472
H	 0.5328799104	 0.3307420803	 3.0752516942	 0.112002
H	-0.8162753994	-0.6253645959	 2.4504947504	 0.133543
H	 0.8914976943	-2.6810579896	 2.514862184	 0.081733
56.633	71.2099	84.1653	129.1384	201.4955	244.8711	252.0309	283.1293	308.8997	382.3949	398.0608	430.0167	446.7919	517.2816	560.8414	661.3497	752.866	787.6218	881.5634	938.3873	994.1669	1025.681	1047.0188	1063.8832	1087.0259	1113.8905	1147.1839	1154.0187	1196.6954	1220.0297	1261.6712	1287.2377	1331.1551	1344.3291	1375.4103	1385.2884	1403.154	1416.8002	1440.2355	1455.2123	1473.4487	1491.3145	1495.7915	1506.6347	1514.179	1523.3163	1840.7526	2867.7783	2936.4677	2953.895	2964.6314	2970.4501	3051.7799	3056.3927	3069.7781	3073.6443	3118.5017	3133.9764	3139.6354	3717.3674
CC(CO)N(C)CC=O	C[C@@H](CO)N(C)CC=O	
InChI=1S/C6H13NO2/c1-6(5-9)7(2)3-4-8/h4,6,9H,3,5H2,1-2H3	InChI=1S/C6H13NO2/c1-6(5-9)7(2)3-4-8/h4,6,9H,3,5H2,1-2H3/t6-/m0/s1
