18
gdb 115117	3.30766	1.1922	0.90546	1.6775	75.68	-0.252	0.0021	0.2541	1258.9229	0.148163	-439.076287	-439.067769	-439.066825	-439.110197	31.492	
O	-0.1142773251	 1.5076937908	 0.2870539865	-0.42487
C	 0.0469186099	 0.118827461	 0.123045618	-0.063065
C	-1.2940895631	-0.6021075062	-0.0261274277	 0.03295
O	-1.9173214549	 0.048260369	-1.1545026947	-0.253238
C	-3.1834179799	-0.2649865782	-1.5459251055	 0.124507
N	-3.8248383406	-1.3452723795	-1.5742486612	-0.253813
C	-3.3518166994	-2.6715898368	-1.2538006839	-0.204704
C	-1.9969523055	-2.9451249888	-0.6611537224	-0.068824
C	-1.1215921225	-2.0874478226	-0.1488002184	-0.077451
H	-0.680454257	 1.7974025188	-0.4380049175	 0.289443
H	 0.6736363028	-0.1251832601	-0.7504119593	 0.099454
H	 0.5555354574	-0.2556248485	 1.0172641177	 0.113244
H	-1.9100032299	-0.3646056937	 0.8536137577	 0.108439
H	-3.6634412376	 0.6371889232	-1.9287492728	 0.118006
H	-4.1041325392	-3.1381437526	-0.5979776542	 0.132214
H	-3.4338900925	-3.249354403	-2.1871574282	 0.134196
H	-1.74610917	-4.0052247046	-0.6430087901	 0.097185
H	-0.1944150728	-2.4755717583	 0.267929826	 0.096327
42.396	108.4351	143.8481	200.6122	304.5905	341.3656	402.8886	425.7722	439.6393	479.4783	526.0748	682.8881	776.5356	790.1073	824.6187	905.4714	946.1629	984.9045	994.067	1013.047	1016.9895	1093.8179	1104.2819	1105.854	1151.9195	1235.8786	1248.332	1286.102	1289.5692	1360.0439	1387.6368	1389.7923	1424.9988	1432.6549	1441.9304	1451.9448	1497.6277	1750.5806	1781.8456	2975.4524	2987.8161	3001.2753	3003.2013	3080.9938	3123.0314	3127.7897	3154.2401	3797.5923
OCC1OC=NCC=C1	OC[C@H]1OC=NCC=C1	
InChI=1S/C6H9NO2/c8-4-6-2-1-3-7-5-9-6/h1-2,5-6,8H,3-4H2	InChI=1S/C6H9NO2/c8-4-6-2-1-3-7-5-9-6/h1-2,5-6,8H,3-4H2/t6-/m0/s1
