18
gdb 119551	3.34756	1.06354	0.88201	1.6017	74.43	-0.2454	-0.0215	0.2238	1335.3394	0.146057	-439.041132	-439.032221	-439.031276	-439.075717	31.892	
C	-0.2360780709	 1.4642305681	 0.6696948488	-0.227067
O	-0.332969559	 0.0633097662	 0.791859395	-0.237443
C	 0.7926066461	-0.607612131	 0.2778000388	-0.176066
C	 0.6675483472	-2.0848234247	 0.5081169627	 0.178269
C	-0.5228599244	-2.7533170512	 1.1142134073	-0.267631
N	 0.7228876093	-2.8051396983	 1.8694742954	-0.145532
C	 1.5038133835	-3.9307829962	 1.2411509884	-0.291837
C	 1.5648023299	-3.1334406712	-0.0775102574	 0.357362
O	 2.251059741	-3.1784410802	-1.0587883296	-0.311064
H	-0.1541346052	 1.7759830195	-0.3831437772	 0.10969
H	-1.1467855001	 1.8905209624	 1.09603677	 0.132044
H	 0.633914912	 1.8606271562	 1.2154048842	 0.111615
H	 0.8938965222	-0.4421400569	-0.8087301988	 0.113718
H	 1.7177828901	-0.2349003485	 0.748302546	 0.10722
H	-1.2572286063	-2.0694271618	 1.5251807683	 0.155727
H	-0.9218959997	-3.666799626	 0.6768787204	 0.118145
H	 2.4948033871	-4.0285359157	 1.6922548691	 0.143363
H	 0.9934276673	-4.8980555108	 1.2543644588	 0.129487
48.0794	83.0913	125.4472	162.9248	228.2855	288.2052	304.8806	359.8693	475.9325	543.8052	555.3457	648.6719	706.5034	771.2491	871.8856	883.5288	976.4849	1001.5812	1025.0342	1045.207	1058.6001	1102.1514	1130.4262	1161.8253	1185.0583	1196.6115	1222.5709	1240.4912	1256.696	1277.0578	1352.5228	1430.8362	1461.5837	1479.2311	1485.8824	1497.5103	1501.7012	1520.5335	1880.7991	2956.306	2977.8915	2984.2583	3023.8779	3059.0954	3103.2954	3120.5018	3121.3195	3216.9388
COCC12CN1CC2=O	COC[C@]12CN1CC2=O	
InChI=1S/C6H9NO2/c1-9-4-6-3-7(6)2-5(6)8/h2-4H2,1H3	InChI=1S/C6H9NO2/c1-9-4-6-3-7(6)2-5(6)8/h2-4H2,1H3/t6-,7?/m0/s1
