19
gdb 11507	4.80862	1.09579	0.95272	1.1702	78.14	-0.2369	0.0587	0.2956	1237.3052	0.163682	-327.860857	-327.851908	-327.850963	-327.894522	32.916	
C	-0.1334263801	 1.5805266476	-0.0475281926	-0.388703
C	-0.0315625225	 0.0428449772	-0.0366760372	-0.15743
C	-1.4103507516	-0.6521860103	 0.0264749965	-0.137852
N	-2.1135222225	-0.3239572093	 1.2608629447	-0.065666
C	-3.1586256175	 0.6944256117	 1.1856845434	-0.219595
C	-3.5093639109	-0.7434686843	 1.3284054983	-0.22508
C	 0.7110071941	-0.4428504327	-1.1984961204	 0.323783
C	 1.2999296295	-0.8385687489	-2.1692904169	-0.473494
H	 0.8618728062	 2.029499002	-0.0963699229	 0.124865
H	-0.701315292	 1.9261588886	-0.9173557175	 0.118582
H	-0.6288872952	 1.9342294226	 0.8594194806	 0.129775
H	 0.5094052817	-0.2546846045	 0.8712051074	 0.11587
H	-1.9933472191	-0.3914838435	-0.8751632313	 0.088842
H	-1.2526920286	-1.735635381	 0.0066402218	 0.114347
H	-3.2268080511	 1.3676604936	 2.0355330321	 0.117768
H	-3.3496251422	 1.1588738338	 0.2195664169	 0.112596
H	-3.9350544219	-1.2387427846	 0.4568949959	 0.110767
H	-3.8370580839	-1.1428723773	 2.2839980571	 0.117826
H	 1.8327222876	-1.1904836809	-3.0175634159	 0.192799
69.1024	98.2284	123.6415	198.0267	236.4938	282.9724	308.5987	368.4331	451.6426	522.3688	538.4243	625.8626	639.5171	773.1823	821.6025	840.0219	897.987	930.7529	934.1751	1026.8907	1036.597	1081.1915	1111.7133	1119.398	1122.6024	1152.1593	1178.1272	1192.7495	1273.3111	1307.8796	1321.8149	1348.2599	1386.1229	1407.612	1484.7686	1492.8167	1497.4053	1498.8661	1521.6803	2233.9856	2944.0027	3024.2698	3044.2877	3068.9803	3092.5637	3098.0111	3115.7093	3131.8979	3175.7243	3190.3217	3505.5479
CC(CN1CC1)C#C	C[C@@H](CN1CC1)C#C	
InChI=1S/C7H11N/c1-3-7(2)6-8-4-5-8/h1,7H,4-6H2,2H3	InChI=1S/C7H11N/c1-3-7(2)6-8-4-5-8/h1,7H,4-6H2,2H3/t7-/m1/s1
