18
gdb 50666	2.07742	1.73418	1.11566	1.026	72.44	-0.2473	-0.0277	0.2196	1102.6152	0.147957	-439.062492	-439.054205	-439.053261	-439.09641	30.432	
O	-0.2141389131	 0.0491588749	 0.08227925	-0.267931
C	-0.0551202615	 1.2275291272	-0.1143935812	 0.165444
C	 1.2766206957	 1.9392452661	-0.0247895227	-0.182538
C	 1.4243617919	 2.9910367724	-1.1451391752	-0.116716
O	 0.823649708	 4.1674597508	-0.6319814194	-0.243941
C	 1.2313303701	 4.2701135274	 0.7240161493	-0.133697
C	 1.3197255468	 2.8293665904	 1.2387468817	 0.286376
C	 0.7789850032	 2.3774004356	 2.5473363589	-0.28771
N	 2.2281119877	 2.5664257717	 2.3529903623	-0.356069
H	-0.9100025237	 1.8957866692	-0.3648865411	 0.091167
H	 2.073253727	 1.1904996378	-0.0238478923	 0.095463
H	 2.4896423957	 3.1499790338	-1.3742114084	 0.104831
H	 0.9059511691	 2.7266344115	-2.0712329846	 0.120344
H	 2.2201018193	 4.7455298746	 0.8111760539	 0.108561
H	 0.4968959115	 4.8832930422	 1.2519256335	 0.11814
H	 0.3093089248	 3.0947628084	 3.215412281	 0.124232
H	 0.3899864876	 1.3648872965	 2.6183441707	 0.135952
H	 2.68835146	 1.6661853394	 2.2425169834	 0.238093
40.0687	73.8608	184.5541	225.4393	286.9041	334.5038	357.4638	436.2568	472.84	521.5231	694.9316	799.8897	854.726	899.5532	929.517	940.3522	961.5188	968.8254	986.9481	1042.5526	1064.072	1091.8684	1111.9472	1136.9574	1149.1099	1208.0293	1227.5665	1257.2561	1269.383	1290.7618	1297.6556	1336.3383	1379.9447	1406.0278	1422.7938	1502.9927	1513.2223	1517.756	1822.5192	2880.9457	2984.4314	2994.4385	3081.954	3088.9832	3097.2628	3105.5334	3193.4723	3500.0977
O=CC1COCC11CN1	O=C[C@H]1COC[C@]21CN2	
InChI=1S/C6H9NO2/c8-1-5-2-9-4-6(5)3-7-6/h1,5,7H,2-4H2	InChI=1S/C6H9NO2/c8-1-5-2-9-4-6(5)3-7-6/h1,5,7H,2-4H2/t5-,6-/m0/s1
