19
gdb 76606	2.59359	1.06426	1.05848	1.8957	78.88	-0.244	-0.0887	0.1553	1285.1814	0.156698	-423.042095	-423.032349	-423.031405	-423.076969	34.954	
C	 0.6940349706	 0.7507687161	 1.7613696163	-0.421287
C	 0.4117542877	-0.1940779321	 0.6149263136	-0.022407
C	 0.2381158122	 0.2439698975	-0.7983080238	-0.022411
C	 0.3239870338	 1.6844162819	-1.2506067201	-0.421288
C	 1.48914048	-0.5789109617	-0.4218780208	-0.168842
C	 2.8295462996	 0.0177228037	-0.4016650426	 0.288322
O	 3.1359825743	 1.1546812261	-0.0869575367	-0.323751
C	 3.9868705239	-0.9031698955	-0.8294639065	 0.099941
O	 3.8607593684	-2.0495416354	-1.1699543239	-0.221827
H	 1.3961762285	 1.5377431688	 1.4861391687	 0.156471
H	-0.2375693543	 1.2172176582	 2.1003509377	 0.119555
H	 1.1194465205	 0.2056861534	 2.6103021393	 0.120797
H	-0.1879859816	-1.054819521	 0.9013925777	 0.09983
H	-0.4677017252	-0.349074579	-1.375133273	 0.099835
H	 1.1220700417	 2.2297842673	-0.7469264473	 0.156481
H	 0.5122790186	 1.7364032647	-2.3279308965	 0.120795
H	-0.6252193079	 2.1954872816	-1.0551470038	 0.119553
H	 1.4973847118	-1.6133161911	-0.7435444167	 0.11567
H	 4.9664801874	-0.3808369236	-0.7876087917	 0.104563
54.3339	129.0321	159.0601	166.2338	182.7177	205.8766	223.5726	269.8405	361.4998	388.2803	505.833	537.8502	638.9428	639.109	706.7644	787.3733	809.265	924.2035	949.5568	990.3635	1023.6124	1038.3535	1087.6598	1104.2364	1130.6542	1160.7695	1161.0469	1195.445	1266.9994	1362.4535	1379.7779	1409.5395	1422.9312	1423.6629	1441.5608	1488.7122	1497.9645	1508.0971	1517.4496	1759.5136	1825.1201	2920.7758	3038.0285	3040.2885	3093.4659	3094.79	3123.9632	3134.8671	3152.5905	3159.2949	3189.1451
CC1C(C)C1C(=O)C=O	C[C@H]1[C@@H](C)[C@H]1C(=O)C=O	
InChI=1S/C7H10O2/c1-4-5(2)7(4)6(9)3-8/h3-5,7H,1-2H3	InChI=1S/C7H10O2/c1-4-5(2)7(4)6(9)3-8/h3-5,7H,1-2H3/t4-,5+,7-
