16
gdb 27360	2.02542	1.87126	0.97939	5.2352	78.38	-0.2077	-0.0153	0.1924	1161.3654	0.125272	-434.114538	-434.106209	-434.105265	-434.14738	31.352	
C	-0.0139030999	 1.4391779331	 0.116741626	-0.470991
C	 0.0092979402	-0.0454941038	-0.0537037135	 0.398524
N	-0.0484294402	-0.6276220374	-1.1781025437	-0.345061
C	-0.0252564559	-2.0494403892	-1.2423118625	 0.326681
N	-0.0878202564	-2.6732773274	-2.357982734	-0.541487
C	 0.0655074169	-2.7430610787	 0.0275694874	-0.251074
C	 0.1366606704	-2.0377251171	 1.1710588062	 0.413659
N	 0.3067580882	-2.5106764187	 2.4513864612	-0.575024
O	 0.1032780414	-0.6705015046	 1.1709343249	-0.252873
H	 0.8953561118	 1.7773980516	 0.6240870465	 0.149132
H	-0.0889536368	 1.9128523249	-0.8606591543	 0.158197
H	-0.8636655033	 1.7377240024	 0.7392387066	 0.145879
H	-0.1496595631	-1.9852280385	-3.1107735965	 0.211134
H	 0.0824973975	-3.8244478605	 0.0387493826	 0.104773
H	 0.0818064756	-3.4860754862	 2.5759850805	 0.26669
H	-0.0736791166	-1.9145943	 3.1725259425	 0.261841
120.1611	131.7186	170.6605	207.3223	283.6888	311.7557	354.949	493.0771	532.0073	557.8973	567.3504	580.1557	630.6734	681.6583	736.7814	839.2268	902.1639	903.5078	919.8551	981.3055	1063.3802	1069.7067	1117.7697	1140.9513	1220.5514	1272.549	1359.7711	1408.3347	1433.8575	1472.3544	1475.4742	1626.21	1680.4622	1709.3129	1761.7868	3048.4873	3105.6798	3173.3273	3224.4621	3463.6979	3572.0809	3682.1349
CC1=NC(=N)C=C(N)O1	CC1=NC(=C[C@@H](N)O1)[NH]	
InChI=1S/C5H7N3O/c1-3-8-4(6)2-5(7)9-3/h2,6H,7H2,1H3	InChI=1S/C5H8N3O/c1-3-8-4(6)2-5(7)9-3/h2,5-6H,7H2,1H3/t5-/m0/s1
