19
gdb 17447	3.31675	2.1883	1.68815	1.6089	75.13	-0.2213	0.089	0.3102	853.7295	0.165531	-327.868929	-327.861374	-327.86043	-327.900082	29.938	
C	 0.7905671508	 2.2336927002	-1.9615900335	-0.422007
C	 0.4204673894	 0.7996307458	-1.6588130316	 0.023913
C	 1.1862720035	-0.3939757088	-2.0847008441	-0.062862
C	 2.6763425164	-0.2097155344	-2.0027293996	-0.148519
C	 3.1869469723	-1.0713193351	-0.8660101663	-0.321915
C	 2.4736892403	 0.2094365097	-0.5461572995	 0.386071
C	 3.0527848828	 1.283638682	 0.3266983895	-0.497322
N	 1.0103638684	-0.0488250032	-0.5927566219	-0.189412
H	 1.865971488	 2.3778290273	-2.0740421405	 0.128716
H	 0.3129219087	 2.5391882945	-2.8990909307	 0.118993
H	 0.4299559209	 2.9055264412	-1.1750193314	 0.123348
H	-0.6568472422	 0.6354637589	-1.6650925676	 0.091128
H	 0.6969232957	-1.2681497213	-2.50627221	 0.092459
H	 3.3258618517	 0.180442624	-2.7787451998	 0.087841
H	 2.7118726831	-2.0249800181	-0.6508402667	 0.112426
H	 4.2624944835	-1.0535348206	-0.714331082	 0.10519
H	 4.135484556	 1.3550152135	 0.1843129682	 0.119444
H	 2.6178230182	 2.2663736681	 0.1263043738	 0.12103
H	 2.8695161325	 1.0468619662	 1.3810558137	 0.131476
171.0628	188.0688	195.4033	252.7178	312.4789	340.3299	413.8638	493.7111	607.815	641.7401	700.3378	761.5819	804.3597	833.9073	899.1332	910.6328	952.7199	988.3279	996.8602	1011.0308	1058.0421	1072.4151	1085.6931	1097.6439	1118.7261	1126.1106	1169.2946	1216.7846	1259.2452	1268.7704	1354.5418	1376.1481	1405.4734	1420.8269	1439.9022	1480.2654	1490.4061	1495.3608	1498.4999	1508.0058	3034.8365	3036.2752	3090.765	3097.1457	3110.0764	3111.0134	3115.8582	3138.4262	3145.8379	3162.6181	3198.513
CC1C2C3CC3(C)N12	C[C@H]1[C@H]2[C@@H]3C[C@]3(C)N12	
InChI=1S/C7H11N/c1-4-6-5-3-7(5,2)8(4)6/h4-6H,3H2,1-2H3	InChI=1S/C7H11N/c1-4-6-5-3-7(5,2)8(4)6/h4-6H,3H2,1-2H3/t4-,5-,6-,7-,8?/m0/s1
