15
gdb 125835	2.95724	1.24234	0.95731	2.1198	67.55	-0.2719	-0.0602	0.2118	1179.6792	0.11075	-453.923079	-453.914523	-453.913578	-453.957873	29.323	
C	 0.0120772498	 1.5161340323	-0.0765516401	-0.507367
C	-0.0390731163	 0.0267864602	 0.0005230485	 0.27011
N	-0.0891453353	-0.740177042	-1.055040912	-0.131676
O	-0.1306777728	-2.027098921	-0.589184573	-0.153083
N	-0.1051354405	-2.0611155556	 0.7737752154	-0.139404
C	-0.0521648819	-0.8149934142	 1.1609518119	 0.24509
C	 0.0296066977	-0.4184658622	 2.6027320391	-0.378074
C	 1.4599626666	-0.0021100809	 2.9408446216	 0.150168
O	 1.7945873047	 1.1308782398	 3.1623855561	-0.224426
H	 0.8405928109	 1.9091389463	 0.5198997217	 0.162825
H	 0.1312592453	 1.8358113079	-1.1127311562	 0.159517
H	-0.9097796082	 1.9568497424	 0.3186200634	 0.148501
H	-0.6334287454	 0.4234592313	 2.8178779491	 0.139967
H	-0.2495079873	-1.276394705	 3.2223366846	 0.152467
H	 2.1911788427	-0.8392671893	 2.9393511399	 0.105385
41.3545	54.4456	124.6708	163.7767	225.7686	267.2278	383.597	403.189	482.3171	642.9452	648.0362	699.6539	746.4853	868.2988	918.2442	937.4901	990.4284	1035.5207	1052.5485	1070.5431	1081.2749	1186.1669	1241.7026	1296.2755	1414.1639	1417.0474	1430.6133	1459.9148	1480.7556	1487.1662	1518.5862	1623.0381	1833.5265	2905.4779	3045.5317	3059.138	3104.8597	3122.5262	3149.3531
CC1=NON=C1CC=O	Cc1nonc1CC=O	
InChI=1S/C5H6N2O2/c1-4-5(2-3-8)7-9-6-4/h3H,2H2,1H3	InChI=1S/C5H6N2O2/c1-4-5(2-3-8)7-9-6-4/h3H,2H2,1H3
