17
gdb 110765	2.19719	1.33115	1.26312	3.9069	69.53	-0.2346	-0.0124	0.2222	1115.17	0.134012	-458.934401	-458.925445	-458.924501	-458.968377	32.911	
O	-0.0961611542	 1.2483786388	 0.5398896094	-0.423093
C	 0.0049136942	-0.0058781727	-0.1229773941	-0.114578
C	-1.3507225691	-0.6589154041	-0.0074396169	-0.07102
C	-1.6635253425	-2.1188557409	-0.0677878712	-0.149833
C	-0.5610814454	-2.9560583078	 0.5898373357	-0.360709
C	-0.8559543795	-2.1883104142	 1.911358847	 0.339302
O	-0.5489337209	-2.3857549189	 3.0518405495	-0.315461
C	-1.8909047485	-1.3105182575	 1.256788435	 0.284036
O	-3.0589929667	-0.8935602494	 1.8440215811	-0.449261
H	 0.7608918426	 1.6829072826	 0.4974510412	 0.291691
H	 0.2610831801	 0.1247520769	-1.1867272032	 0.092689
H	 0.7869858179	-0.6307041635	 0.3290182137	 0.099417
H	-2.1369515384	-0.0488494862	-0.4508439615	 0.108503
H	-2.4346875432	-2.5133780172	-0.7159063486	 0.112555
H	-0.8302741177	-4.0093886384	 0.711869902	 0.134514
H	 0.4477745986	-2.8931696129	 0.1750869972	 0.1185
H	-2.9745689272	 0.0415747452	 2.0610906937	 0.302748
59.1103	112.9008	134.1035	231.7349	264.4223	273.5754	277.1681	363.8853	447.7729	481.0476	511.4446	595.0568	665.604	687.3256	795.4322	847.4426	889.4989	960.7162	984.3847	1006.8321	1016.3009	1060.0456	1069.954	1116.1922	1137.8026	1206.4657	1220.3618	1253.5148	1265.1858	1276.7121	1314.3715	1362.3145	1437.5554	1473.2624	1490.2807	1522.0498	1878.8562	2972.9672	3021.933	3062.6765	3113.3494	3125.5465	3208.2968	3800.1313	3829.0878
OCC1C2CC(=O)C12O	OC[C@H]1[C@H]2CC(=O)[C@@]12O	
InChI=1S/C6H8O3/c7-2-4-3-1-5(8)6(3,4)9/h3-4,7,9H,1-2H2	InChI=1S/C6H8O3/c7-2-4-3-1-5(8)6(3,4)9/h3-4,7,9H,1-2H2/t3-,4+,6+/m1/s1
