20
gdb 90297	4.0488	1.08092	0.92891	1.8169	83.59	-0.2188	0.0074	0.2262	1297.0403	0.171349	-403.107366	-403.099	-403.098056	-403.140109	32.767	
C	-0.1028328853	 1.488270025	-0.07644314	-0.323705
N	-0.0320113627	 0.0472854229	 0.0682354884	-0.097781
C	-1.2432321986	-0.6432718316	 0.6299478815	-0.26363
C	-0.2769950371	-1.514975009	 1.3933125732	 0.277621
C	 0.1750650055	-2.7360659764	 1.6403859178	-0.299503
C	 1.7065635085	-2.6958328218	 1.7216564135	 0.127326
O	 2.3246843342	-3.8380655467	 1.1550133882	-0.430049
C	 2.0684249463	-1.3528472153	 0.9923563208	-0.284125
C	 0.8036768963	-0.5001501519	 1.185488746	 0.00814
H	 0.872975387	 1.8725888608	-0.3908657745	 0.123287
H	-0.8310821145	 1.7491925025	-0.8515993155	 0.120823
H	-0.3940146127	 2.0087486671	 0.8558251722	 0.090758
H	-1.8457159179	 0.0206205719	 1.2716540686	 0.097621
H	-1.8970785346	-1.1182828328	-0.1082427238	 0.116905
H	-0.3712202279	-3.6704130801	 1.6947056188	 0.101133
H	 2.0675093518	-2.6864166933	 2.7578722414	 0.095189
H	 2.0160589672	-3.9089976992	 0.2442252143	 0.274349
H	 2.9939589621	-0.9054304851	 1.3642501683	 0.096995
H	 2.1938597358	-1.5711386552	-0.0743269507	 0.103602
H	 0.9096022166	 0.2335624582	 2.0020942815	 0.065044
85.8943	159.8221	218.4808	245.8523	294.9174	321.6596	356.6012	394.3904	448.0981	504.3931	573.2616	652.8623	689.0431	812.5715	826.2206	856.8516	877.2982	952.3472	984.6733	995.4921	1027.8746	1057.0007	1061.7052	1108.9627	1131.0225	1144.1406	1174.1479	1187.097	1191.1223	1228.3949	1239.7652	1270.1404	1295.0656	1309.5438	1332.2776	1356.1048	1431.4333	1449.2764	1476.7203	1484.8749	1497.2038	1503.1033	1752.0088	2926.0768	2956.2926	2969.8445	3028.4068	3045.6053	3058.4008	3070.5536	3100.6193	3105.5306	3203.3387	3789.0558
CN1CC2=CC(O)CC12	CN1C[C]2[CH][C@@H](O)C[C@@H]12	
InChI=1S/C7H11NO/c1-8-4-5-2-6(9)3-7(5)8/h2,6-7,9H,3-4H2,1H3	InChI=1S/C7H11NO/c1-8-4-5-2-6(9)3-7(5)8/h2,6-7,9H,3-4H2,1H3/t6-,7-/m1/s1
