18
gdb 59291	2.59906	1.52671	1.01081	5.1758	75.02	-0.2386	-0.0163	0.2222	1154.5308	0.148641	-435.294383	-435.285831	-435.284887	-435.327576	32.414	
C	 0.02501207	 1.5574190335	-0.0248284685	-0.388331
C	 0.0031656243	 0.0393145731	 0.0727252035	 0.146066
O	 0.5826153529	-0.3332200816	 1.3026338575	-0.443557
C	-1.4407756615	-0.5247053264	-0.0127091854	-0.080628
N	-2.1379091359	-0.1592854981	-1.2556271112	-0.240081
C	-2.4902385519	-1.2549440254	-1.8013100521	 0.058517
N	-2.1525348044	-2.4146249763	-1.1056236094	-0.346561
C	-1.4403146044	-2.0520790476	 0.0301654928	 0.397027
N	-0.8596827855	-2.7667048853	 0.9114263014	-0.567249
H	 1.0563389995	 1.9129183747	 0.0486354647	 0.119362
H	-0.4064124577	 1.8897522684	-0.9711060951	 0.13148
H	-0.545824547	 1.997180181	 0.7992720095	 0.117505
H	 0.5695995416	-0.3841068843	-0.7760459928	 0.058441
H	 0.4073817121	-1.2811554562	 1.4335278323	 0.297592
H	-1.9920415074	-0.1234920767	 0.8463979452	 0.125936
H	-3.0282599592	-1.3346273891	-2.7404783779	 0.140335
H	-2.2808407048	-3.3564744	-1.4369023585	 0.260913
H	-0.9398992506	-3.7679274437	 0.7344186741	 0.213231
89.2906	106.7747	194.3254	216.3014	252.7354	318.5079	391.1155	412.0359	469.908	492.8078	565.0074	604.0675	651.6173	692.427	839.6995	872.098	885.6277	916.3318	939.6527	977.2707	1025.1073	1073.7988	1079.8507	1108.3425	1125.4286	1155.1348	1247.1994	1255.8773	1307.2114	1336.6565	1353.9944	1364.3972	1398.0588	1412.2313	1471.8264	1486.7962	1496.8638	1681.9507	1746.1335	2936.4543	3044.0929	3046.7879	3116.1424	3141.0016	3195.342	3471.0899	3625.0211	3655.297
CC(O)C1N=CNC1=N	C[C@@H](O)[C@H]1N=CN[C]1[NH]	
InChI=1S/C5H9N3O/c1-3(9)4-5(6)8-2-7-4/h2-4,9H,1H3,(H2,6,7,8)	InChI=1S/C5H9N3O/c1-3(9)4-5(6)8-2-7-4/h2-4,9H,1H3,(H2,6,7,8)/t3-,4-/m1/s1
