17
gdb 19882	3.26697	2.31116	2.03215	3.5316	66.24	-0.2193	0.0608	0.2801	752.6425	0.1452	-363.825146	-363.819014	-363.81807	-363.855075	25.647	
O	 0.0500467363	 1.4151767124	-0.1360699451	-0.431712
C	-0.0333672668	 0.0403464346	-0.0038710409	 0.125728
C	-0.410655549	-0.6791340991	 1.2681123936	-0.111185
C	-1.1542580123	 0.081552281	 2.3745274187	-0.243834
C	-2.530279035	 0.4363503353	 1.8119209488	-0.031654
N	-2.5026161433	 1.4021303466	 0.6921354846	-0.361009
C	-2.6195430401	-0.0599209068	 0.4134714785	-0.037084
C	-1.3311455599	-0.7513977432	 0.0373463086	-0.116519
H	-0.8260653388	 1.767545403	 0.1188953804	 0.303153
H	 0.7652722587	-0.4399895066	-0.564996897	 0.094654
H	 0.1901988763	-1.5315415552	 1.5694119863	 0.080626
H	-1.2777979016	-0.5640449754	 3.2494911046	 0.105301
H	-0.6125949384	 0.9774517964	 2.6987066677	 0.121177
H	-3.3888089185	 0.4669972244	 2.4751264562	 0.091949
H	-3.4070124784	 1.8534593231	 0.5906187416	 0.236989
H	-3.5497107517	-0.4145127717	-0.015894146	 0.092755
H	-1.4207664175	-1.6498973087	-0.5630968006	 0.080664
158.9884	267.4578	329.4141	425.4277	536.1183	640.4743	673.8417	697.8297	713.2153	724.656	752.4451	818.6705	859.3734	865.4288	905.4894	941.2252	967.4619	1020.161	1027.7906	1063.0074	1082.8589	1092.5227	1114.4979	1127.6209	1159.692	1215.4017	1233.013	1245.1734	1308.9211	1316.5379	1359.1501	1365.9894	1382.8369	1426.9366	1477.7711	1514.8521	3044.4426	3086.6213	3128.2591	3150.9838	3160.939	3165.1542	3181.3499	3492.6639	3512.9669
OC1C2CC3NC3C12	O[C@H]1[C@H]2C[C@H]3N[C@H]3[C@@H]12	
InChI=1S/C6H9NO/c8-6-2-1-3-5(7-3)4(2)6/h2-8H,1H2	InChI=1S/C6H9NO/c8-6-2-1-3-5(7-3)4(2)6/h2-8H,1H2/t2-,3+,4-,5+,6-/m0/s1
