20
gdb 105009	1.96489	1.42427	1.19841	3.4057	79.08	-0.2341	0.0341	0.2682	1183.9764	0.171051	-399.307212	-399.297287	-399.296343	-399.341959	36.607	
C	-0.0642526432	 0.0391063986	 1.0001613261	-0.339553
N	-0.2622416248	-0.6587081367	-0.269502342	-0.357902
C	 0.8097718269	-0.6023394724	-1.2333011103	 0.362582
C	 2.2356684036	-0.9549433506	-0.8663543072	-0.305237
C	 1.4137506317	-1.8891825952	-1.722125461	-0.319383
C	 0.59728611	 0.4807241011	-2.2978606198	-0.149742
N	-0.6890185061	 0.259509029	-2.952886789	-0.508524
C	 0.7285500792	 1.8376904289	-1.7110671201	 0.271285
N	 0.7999831468	 2.9121928878	-1.2882327209	-0.343544
H	 0.8001973242	-0.3205836833	 1.580676384	 0.100577
H	 0.0735723132	 1.1076953543	 0.8215516332	 0.160164
H	-0.9622811552	-0.0848725302	 1.61204729	 0.119862
H	-0.5559023344	-1.6133614244	-0.1147717324	 0.226849
H	 3.0443149101	-0.3997832886	-1.3300089796	 0.121519
H	 2.429649737	-1.2472461822	 0.1591237957	 0.121331
H	 1.0613703328	-2.8111703139	-1.2707895455	 0.114528
H	 1.6450436137	-1.9764866415	-2.7778133751	 0.12598
H	 1.3956268768	 0.3891613286	-3.0440807619	 0.118399
H	-1.3882611546	 0.180533777	-2.2174714384	 0.242377
H	-0.9376737577	 1.0554175436	-3.5318190258	 0.238432
64.9338	97.2927	133.0991	179.1515	219.4642	248.1465	257.0204	322.5842	345.8387	365.0585	406.0651	532.8856	539.4078	613.7834	670.4264	771.2168	793.8034	863.0433	914.0439	923.2289	957.7647	974.009	1001.1398	1055.0645	1083.2392	1094.881	1115.8658	1152.1708	1181.7821	1187.2053	1194.244	1279.755	1323.877	1355.9181	1386.6488	1461.8901	1466.744	1482.5116	1497.4296	1501.7287	1523.5009	1640.7344	2337.3566	2977.3175	3039.5024	3083.2627	3131.0844	3132.0667	3138.3735	3212.1012	3227.3828	3482.6532	3570.6145	3572.288
CNC1(CC1)C(N)C#N	CNC1(CC1)[C@@H](N)C#N	
InChI=1S/C6H11N3/c1-9-6(2-3-6)5(8)4-7/h5,9H,2-3,8H2,1H3	InChI=1S/C6H11N3/c1-9-6(2-3-6)5(8)4-7/h5,9H,2-3,8H2,1H3/t5-/m0/s1
