15
gdb 51448	3.24498	1.13577	0.96975	4.4138	67.68	-0.2573	-0.0289	0.2284	1193.5472	0.112638	-453.939771	-453.931761	-453.930817	-453.973493	28.689	
O	-0.06176569	 0.0968903449	-0.7458669398	-0.307307
C	-0.0828178809	 1.1831763676	-0.2139496953	 0.159577
N	 1.0221181865	 1.8464557882	 0.2463945176	-0.29532
C	 2.3306361889	 1.2631666922	 0.2057405378	-0.091708
C	 3.4959163256	 1.9090194539	-0.5499493896	-0.037132
C	 4.0187553438	 3.100376754	 0.1328888873	-0.256059
N	 4.424411203	 1.7604911155	 0.6617355112	-0.169989
C	 3.2689878607	 1.3314928264	 1.4384371834	 0.365225
O	 3.1744727165	 1.1003092849	 2.599878351	-0.283139
H	-1.0100828031	 1.7631596622	-0.0471023046	 0.089941
H	 0.8868746754	 2.7295739468	 0.7122008345	 0.256468
H	 2.2020597164	 0.2200540076	-0.0989830835	 0.166349
H	 3.8395731212	 1.5991349366	-1.5289571924	 0.125806
H	 4.8462526729	 3.6327520149	-0.3235379399	 0.150341
H	 3.3711175331	 3.7242349444	 0.7452466221	 0.126945
37.9841	122.0901	152.3248	191.7113	253.3956	312.3014	504.3508	515.7564	521.7579	663.6449	670.2176	740.9936	770.9473	845.9446	888.1103	973.4395	1015.1775	1022.3207	1033.2556	1063.1227	1109.5384	1113.9482	1141.8053	1201.5696	1217.3163	1244.6478	1346.8917	1362.3586	1427.7297	1509.2636	1522.3685	1810.6622	1926.2615	2959.2143	3089.9569	3111.8513	3199.1855	3211.2684	3637.5351
O=CNC1C2CN2C1=O	O=CN[C@H]1[C@H]2CN2C1=O	
InChI=1S/C5H6N2O2/c8-2-6-4-3-1-7(3)5(4)9/h2-4H,1H2,(H,6,8)	InChI=1S/C5H6N2O2/c8-2-6-4-3-1-7(3)5(4)9/h2-4H,1H2,(H,6,8)/t3-,4+,7?/m1/s1
