19
gdb 40373	3.54268	1.28198	1.15957	2.9299	79.44	-0.1947	0.0701	0.2648	1124.6716	0.159838	-381.938499	-381.930892	-381.929948	-381.970817	30.741	
C	-0.0168836737	 1.5076178853	-0.1572741053	-0.278311
C	 1.3043071668	 0.8026956006	 0.0056590937	-0.265803
C	 0.0172775195	 0.0081639208	 0.0324547712	-0.123427
C	-0.4506100417	-0.6282975871	 1.2844226731	 0.385868
N	-0.2717109835	-2.074905574	 1.5649835541	-0.35804
C	-1.631784248	-1.474712326	 1.5796945318	-0.137902
C	-1.834507106	-0.7358318892	 2.9400251804	-0.055408
N	-0.6093870718	-0.8957067964	 3.7600166703	-0.308244
C	-0.6492532403	 0.1036527664	 2.665095228	-0.128616
H	-0.3729726713	 2.122422402	 0.6619100859	 0.11505
H	-0.2848602073	 1.885438573	-1.1376700488	 0.11351
H	 1.9513294051	 0.704153177	-0.8587209357	 0.114269
H	 1.8316898643	 0.9255680981	 0.9455106763	 0.122887
H	-0.1957462605	-0.5823411422	-0.8558485587	 0.077705
H	-0.1704089575	-2.5286926574	 0.6555706166	 0.222275
H	-2.4209913215	-1.828168355	 0.9283426487	 0.091488
H	-2.7886373583	-0.4747806693	 3.3784267575	 0.093567
H	-0.7762654466	-0.3738592455	 4.6218133955	 0.226525
H	-0.4825695077	 1.1566267488	 2.8514390254	 0.092606
64.4974	142.8591	179.0559	335.8648	383.3221	418.2988	475.2021	550.4831	645.2395	740.0011	776.9714	794.9231	811.6245	821.686	835.9888	882.4677	888.2076	898.5747	913.9012	925.4313	964.2148	985.6797	1011.4134	1062.7825	1074.2243	1078.1754	1109.0915	1114.3203	1129.3825	1140.8857	1197.8177	1217.0917	1226.4139	1241.0327	1287.5124	1331.0683	1342.1722	1377.8241	1467.2116	1469.4894	1508.8378	3127.1987	3134.6401	3139.3897	3188.7585	3194.1696	3206.0502	3212.7436	3227.6439	3452.829	3455.9801
C1CC1C12NC1C1NC21	C1CC1[C@]12N[C@H]1[C@H]1N[C@@H]21	
InChI=1S/C7H10N2/c1-2-3(1)7-5-4(8-5)6(7)9-7/h3-6,8-9H,1-2H2	InChI=1S/C7H10N2/c1-2-3(1)7-5-4(8-5)6(7)9-7/h3-6,8-9H,1-2H2/t4-,5+,6-,7+/m0/s1
