18
gdb 43689	5.34048	0.68422	0.65738	2.3224	80.34	-0.263	0.0255	0.2885	1689.8937	0.146279	-401.919968	-401.910891	-401.909946	-401.95471	33.227	
N	 0.0619948502	 1.1267390652	 0.9049914365	-0.536874
C	-0.0109124822	 0.0710789433	 0.2346412234	 0.442281
C	-1.1295300879	-0.868736527	-0.1625650905	-0.388805
C	-0.0045528789	-1.6563441058	-0.8685445532	 0.126149
C	-0.041898143	-1.7618393622	-2.3787246503	-0.199604
C	 1.3017852843	-2.245946719	-2.9615506663	-0.355168
C	 1.2806843007	-2.3474531239	-4.4148149041	 0.289718
C	 1.234767569	-2.422924336	-5.6133888097	-0.43241
O	 0.9728619137	-0.6537360487	-0.4106593247	-0.266431
H	 1.0226518581	 1.4704846499	 0.9534160748	 0.228873
H	-1.6225701642	-1.3712471021	 0.6706784805	 0.139812
H	-1.8816744153	-0.4306017195	-0.821646648	 0.138506
H	 0.2325228885	-2.6201833149	-0.4054110778	 0.094409
H	-0.8412841936	-2.4561529008	-2.6631490849	 0.119384
H	-0.2951508173	-0.7857523472	-2.8067557343	 0.120744
H	 2.0917463301	-1.5540956979	-2.6464576255	 0.152884
H	 1.5581147354	-3.2222845692	-2.529099667	 0.130146
H	 1.2094909323	-2.4924917343	-6.6725272489	 0.196384
50.9099	91.8594	102.5222	136.2344	222.4093	339.0241	348.4258	410.911	488.5495	500.904	525.7566	620.0925	642.4702	713.0313	776.2402	836.3083	868.6799	904.1812	933.1835	960.9874	1010.8873	1018.4037	1044.313	1061.9281	1099.656	1142.2659	1210.6647	1230.4639	1246.4478	1266.7006	1311.2459	1338.9385	1372.0933	1408.9215	1465.7181	1471.4918	1485.527	1827.9062	2241.1835	3020.752	3041.3514	3052.2052	3061.4351	3086.616	3092.0243	3142.1607	3477.3392	3507.5453
N=C1CC(CCC#C)O1	[NH][C]1C[C@@H](CCC#C)O1	
InChI=1S/C7H9NO/c1-2-3-4-6-5-7(8)9-6/h1,6,8H,3-5H2	InChI=1S/C7H9NO/c1-2-3-4-6-5-7(8)9-6/h1,6,8H,3-5H2/t6-/m1/s1
