14
gdb 28539	3.2548	1.4378	0.99788	2.4867	68.97	-0.2024	-0.0172	0.1852	1092.8485	0.103075	-470.080497	-470.072867	-470.071923	-470.112213	29.764	
N	 0.0413293078	 1.3427812782	-0.1261266933	-0.558971
C	 0.010304996	-0.0295575542	-0.0663968652	 0.415135
N	-1.1858117718	-0.6144199758	 0.022112594	-0.321225
C	-1.1919506287	-1.9532262902	 0.0182232179	-0.061896
C	-0.0405700452	-2.7151015031	-0.0667802104	 0.243136
O	-0.0736527904	-4.0784299448	-0.0678586842	-0.451145
C	 1.1505010311	-1.9816962941	-0.1418508489	 0.318073
O	 2.3064074934	-2.6794735236	-0.2140343517	-0.436543
N	 1.1957559679	-0.6647869269	-0.1413599112	-0.39671
H	 0.9167289968	 1.7748661679	 0.1198016052	 0.256125
H	-0.7921865645	 1.8026758752	 0.2025916232	 0.260103
H	-2.1573709767	-2.4480333414	 0.0893726369	 0.121341
H	 0.8349227858	-4.3953116347	-0.1305268854	 0.308253
H	 3.0219172285	-2.0309655926	-0.2646275969	 0.304325
132.3115	237.2177	287.8363	322.9044	337.2128	377.5253	438.6242	446.1024	488.2579	495.6321	520.4805	562.7793	599.9203	728.6936	784.6799	802.2133	814.6754	967.9598	993.9658	1089.8861	1195.8704	1209.7235	1288.9177	1318.6702	1343.4473	1443.0089	1492.328	1510.6873	1626.885	1633.8227	1681.9445	3165.5386	3599.3357	3722.0516	3774.9293	3808.5258
NC1=NC=C(O)C(O)=N1	Nc1ncc(O)c(O)n1	
InChI=1S/C4H5N3O2/c5-4-6-1-2(8)3(9)7-4/h1,8H,(H3,5,6,7,9)	InChI=1S/C4H5N3O2/c5-4-6-1-2(8)3(9)7-4/h1,8H,(H3,5,6,7,9)
