14
gdb 21949	6.88827	1.03643	0.96049	2.5095	59.44	-0.2656	-0.0415	0.2241	1146.8196	0.106851	-415.829764	-415.822269	-415.821325	-415.862616	26.156	
O	 0.1026323212	 1.4306406052	 0.1238686539	-0.411648
C	 0.0556969824	 0.0185523292	 0.1866177199	-0.059622
C	-1.3605271054	-0.5281178827	-0.0772551316	-0.326149
C	-1.4244526172	-2.0159608303	 0.0037881837	 0.246446
C	-1.9457382932	-2.8583549212	 0.9346165361	-0.048033
O	-1.7273446272	-4.1179686193	 0.5652450209	-0.16001
N	-1.0218566521	-4.0487627065	-0.6766853766	-0.001025
N	-0.8675308059	-2.835772404	-0.9621266019	-0.168984
H	-0.0131374242	 1.6929424355	-0.7949300903	 0.286325
H	 0.765554691	-0.4495817147	-0.5103962804	 0.114026
H	 0.3689556112	-0.2510251602	 1.200579364	 0.117747
H	-2.0519778487	-0.0832938074	 0.6444687771	 0.122012
H	-1.6846272353	-0.2087615854	-1.0754909544	 0.118948
H	-2.4774170565	-2.7009783281	 1.8588237996	 0.169967
53.1734	97.6741	120.0077	301.9337	330.0229	358.0152	379.0809	627.3514	641.161	705.9098	768.4622	782.1747	853.1963	981.0527	1015.7924	1026.524	1052.2137	1080.6022	1140.3085	1167.3624	1253.7061	1288.6345	1320.423	1349.7385	1400.4889	1414.9087	1463.9146	1478.7441	1510.4345	1621.3005	3006.0517	3034.3798	3075.7509	3100.0503	3283.3317	3818.4391
OCCC1=CON=N1	OCCc1conn1	
InChI=1S/C4H6N2O2/c7-2-1-4-3-8-6-5-4/h3,7H,1-2H2	InChI=1S/C4H6N2O2/c7-2-1-4-3-8-6-5-4/h3,7H,1-2H2
