17
gdb 19253	3.10795	2.03036	1.52355	1.9125	67.27	-0.2428	-0.032	0.2108	868.4806	0.141311	-363.820545	-363.812843	-363.811899	-363.852721	28.387	
C	 0.1488324514	 1.7195196662	-0.1940309848	-0.408265
C	 0.1005673996	 0.2012308491	-0.0811077546	-0.010984
C	 0.7402564552	-0.6581758555	-1.1751532035	-0.02371
C	 2.2101101767	-0.5663440065	-1.162772621	-0.250832
N	 1.5635509369	-1.4753025806	-0.189528638	-0.150187
C	 1.0339583646	-0.5838606362	 0.9028929543	-0.072645
C	 2.0906372533	 0.1244835436	 1.7155606281	 0.140216
O	 1.9084602066	 1.1462117277	 2.3283815833	-0.248093
H	 1.1543593295	 2.085316506	-0.4187608238	 0.119427
H	-0.5185838732	 2.0580051641	-0.9939849257	 0.114343
H	-0.1667434324	 2.1886247994	 0.7412485884	 0.139842
H	-0.9313605003	-0.1165247522	 0.0895813492	 0.090902
H	 0.2001936219	-1.1384284562	-1.98469097	 0.100029
H	 2.7559418194	-1.1030280803	-1.9318710404	 0.128541
H	 2.7050097115	 0.3368967321	-0.8113220895	 0.120447
H	 0.4558507913	-1.1945205255	 1.6065594861	 0.117313
H	 3.0758873279	-0.3970816651	 1.7273617219	 0.093656
71.6449	160.2329	172.1028	208.5255	268.6894	319.9352	451.3918	524.8794	621.0015	690.0037	742.0727	778.4039	789.1569	891.4071	970.5238	988.97	1010.7254	1040.0371	1054.6684	1084.6989	1107.6536	1114.4069	1148.1235	1174.0582	1215.3752	1227.227	1275.0293	1330.8265	1363.5696	1376.0707	1406.8074	1416.888	1486.7266	1495.5796	1505.1011	1821.4934	2867.2398	3039.2868	3040.8883	3070.8128	3104.6727	3110.1781	3125.7344	3164.6394	3201.079
CC1C2CN2C1C=O	C[C@H]1[C@H]2CN2[C@H]1C=O	
InChI=1S/C6H9NO/c1-4-5-2-7(5)6(4)3-8/h3-6H,2H2,1H3	InChI=1S/C6H9NO/c1-4-5-2-7(5)6(4)3-8/h3-6H,2H2,1H3/t4-,5+,6-,7?/m0/s1
