18
gdb 7428	3.08681	1.56867	1.28725	3.3427	71.28	-0.2291	-0.0368	0.1923	1027.7539	0.151196	-381.133948	-381.124062	-381.123118	-381.169536	33.522	
C	 0.0222873472	 1.3188985033	-0.0181318559	-0.321748
N	-0.2738352472	-0.0803141905	-0.2890960941	-0.07638
C	-0.494138403	-0.8956057472	 0.8960136149	-0.344875
C	 0.3070976976	-0.6421069607	-1.4047617449	 0.299653
N	 1.0627573421	 0.0357984579	-2.1855761778	-0.530476
C	-0.0986253248	-2.0731786179	-1.7612398135	 0.274658
C	-1.578044202	-2.3156069714	-2.0009332479	-0.475736
O	 0.7408340127	-2.9201699746	-1.9585492856	-0.28955
H	 1.0272826614	 1.4550840737	 0.4062663	 0.124008
H	-0.0268243509	 1.8848056845	-0.9479193874	 0.156482
H	-0.7153229012	 1.7035488645	 0.6925603973	 0.11507
H	-0.6918343972	-1.9345481297	 0.6255774712	 0.141283
H	 0.3786306013	-0.888091068	 1.5664303234	 0.127995
H	-1.3562107102	-0.5167308072	 1.4550409513	 0.12922
H	 1.3457278273	-0.5352701873	-2.9808085275	 0.227072
H	-1.8785657532	-1.7552997547	-2.8949772742	 0.15459
H	-1.7557149684	-3.3791658278	-2.1666476138	 0.144047
H	-2.1935577716	-1.9421409868	-1.1792197154	 0.144686
29.6529	85.5058	109.0155	133.993	168.5036	200.1852	229.9934	304.0589	353.8041	373.1473	428.3887	558.1446	603.0694	710.3803	725.9581	830.3233	920.0236	977.6481	1039.3624	1077.5752	1088.8914	1125.554	1173.9525	1189.9005	1243.5615	1311.0177	1379.5639	1431.6619	1447.8301	1459.3026	1466.2251	1474.9842	1477.0726	1491.5505	1503.8276	1531.4589	1670.6592	1803.41	2992.1344	3007.1282	3040.2091	3067.5649	3083.0389	3110.8124	3129.6958	3155.6562	3156.5502	3495.2121
CN(C)C(=N)C(C)=O	CN(C)C(=N)C(=O)C	
InChI=1S/C5H10N2O/c1-4(8)5(6)7(2)3/h6H,1-3H3	InChI=1S/C5H10N2O/c1-4(8)5(6)7(2)3/h6H,1-3H3
