19
gdb 74601	3.2717	1.78799	1.3612	0.3987	84.99	-0.2074	0.0131	0.2204	984.2183	0.160377	-348.653623	-348.646745	-348.645801	-348.684469	28.889	
C	-0.1185718608	 1.4455557079	 0.0317766135	-0.508431
C	 0.0019831329	-0.0377609755	-0.0152022479	 0.176256
C	-0.0292209462	-0.8994613732	-1.0477109847	-0.19404
C	 0.1503501753	-2.3163086953	-0.4545279149	-0.142568
C	-0.6723598685	-2.2686805902	 0.867889223	-0.015954
C	 0.4208420717	-2.7439051638	 1.8706150866	-0.115322
C	 0.3833047361	-1.3799108579	 2.6422141969	-0.356961
C	 0.2010491466	-0.9991120936	 1.1532901244	 0.256519
C	 1.1991877893	-2.1104713119	 0.6792602171	-0.015962
H	 0.7740104516	 1.9059071929	 0.4746937397	 0.127091
H	-0.2562931207	 1.8663816655	-0.9683131779	 0.125279
H	-0.9677873101	 1.7587117678	 0.6526923646	 0.127066
H	-0.1548860084	-0.664054002	-2.096529962	 0.093707
H	 0.1538156705	-3.1692679962	-1.1355276461	 0.052167
H	-1.7568696544	-2.3168152699	 0.9965644839	 0.065443
H	 0.5477359434	-3.7403187907	 2.2939386596	 0.068831
H	-0.4714977723	-1.2146319414	 3.3060145047	 0.095718
H	 1.3130893623	-1.0637722185	 3.1261480619	 0.095718
H	 2.2803008918	-1.9755443639	 0.5896756774	 0.065441
175.2881	185.4903	235.3551	368.1584	447.4013	481.5708	551.2453	575.4036	703.4157	760.56	766.3695	809.0066	843.9263	860.953	873.864	879.2895	904.1466	929.2539	971.646	993.8292	1013.3529	1046.8681	1060.5818	1097.5749	1100.8509	1121.6116	1136.7668	1140.234	1178.7469	1195.8421	1199.4207	1212.9665	1250.2539	1272.8017	1305.0019	1318.8305	1413.7804	1476.6229	1486.756	1503.9485	1654.3496	3014.0537	3037.355	3057.5256	3077.5563	3078.6727	3096.7734	3096.9877	3105.9616	3112.7861	3216.4949
CC1=CC2C3C4CC13C24	CC1=C[C@@H]2[C@H]3[C@@H]4C[C@]13[C@H]24	
InChI=1S/C9H10/c1-4-2-5-7-6-3-9(4,7)8(5)6/h2,5-8H,3H2,1H3	InChI=1S/C9H10/c1-4-2-5-7-6-3-9(4,7)8(5)6/h2,5-8H,3H2,1H3/t5-,6+,7+,8-,9+
