15
gdb 51357	6.93151	0.8761	0.85998	3.1785	66.84	-0.2487	0.0022	0.2509	1292.1298	0.111407	-457.67847	-457.67125	-457.670306	-457.711419	26.601	
O	-0.0606605999	-0.0558967881	 0.0126373816	-0.274166
C	-0.0560335967	 1.1372143421	-0.0120439747	 0.170929
O	 1.0588850081	 1.866323054	 0.1858876931	-0.20695
C	 0.9666180258	 3.2878721033	 0.1374481801	 0.12978
C	 1.7240066014	 4.0185111762	 1.252563558	-0.145241
C	 3.0983180204	 3.8028333091	 0.5331612799	 0.105274
O	 3.4754699034	 5.2079030273	 0.574407942	-0.322603
C	 2.0454179347	 5.2151101694	 0.3016418131	 0.086733
C	 2.0871123428	 3.9773587068	-0.6500094211	-0.14515
H	-0.9509114534	 1.7632493373	-0.1967187302	 0.079589
H	-0.063434051	 3.599423375	-0.065871234	 0.093787
H	 1.5347336645	 4.0542048384	 2.3237374436	 0.100177
H	 3.8595467227	 3.0435858994	 0.6948493034	 0.119834
H	 1.5330821781	 6.1682080441	 0.1832645262	 0.107822
H	 2.3056727892	 3.9667452557	-1.7161387909	 0.100183
35.6176	120.2544	148.2069	331.2485	346.5394	419.7166	558.3933	716.0158	739.4687	792.3096	803.0469	835.8819	878.0429	904.2968	922.3803	973.1635	977.7846	1037.4028	1043.1143	1074.8915	1101.7233	1123.1421	1147.7776	1157.3832	1174.3082	1177.7858	1202.3268	1246.9369	1291.0335	1332.8443	1392.9185	1445.1569	1868.3033	2946.6988	3051.6983	3133.343	3143.4506	3145.6891	3161.629
O=COC1C2C3OC2C13	O=CO[C@H]1[C@H]2[C@@H]3O[C@H]2[C@H]13	
InChI=1S/C6H6O3/c7-1-8-4-2-5-3(4)6(2)9-5/h1-6H	InChI=1S/C6H6O3/c7-1-8-4-2-5-3(4)6(2)9-5/h1-6H/t2-,3+,4-,5-,6+
