21
gdb 104390	2.40314	1.41007	1.18453	3.6178	74.05	-0.2453	0.06	0.3053	1149.9587	0.181842	-461.365668	-461.356191	-461.355247	-461.399638	36.142	
C	-0.2890747807	 1.6784239592	 0.1449048842	-0.421556
C	-0.002194428	 0.180940339	 0.1059671226	 0.349128
C	-1.3078469347	-0.6306995601	-0.0267029413	-0.076533
O	-1.8992440743	-0.4361928293	-1.2916674694	-0.425178
O	 0.7617311083	-0.1129596678	-1.0943536436	-0.323011
C	 1.9871056906	-0.7580216976	-0.7597192953	-0.066055
C	 1.742516627	-1.4007824682	 0.6054030511	-0.255832
C	 0.850305521	-0.3467760301	 1.2827846253	 0.056259
O	 1.6158969117	 0.7246688489	 1.8175136419	-0.437631
H	 0.6374674868	 2.2503308157	 0.0918884122	 0.128785
H	-0.9287307122	 1.9386034454	-0.7015865691	 0.127236
H	-0.8064824599	 1.9480889033	 1.0704300065	 0.11242
H	-1.0955469893	-1.6983707695	 0.1532958252	 0.072016
H	-2.0334742327	-0.3045932787	 0.7265208179	 0.104291
H	-1.1711506605	-0.5215704204	-1.9221459065	 0.288399
H	 2.228106277	-1.4760204901	-1.5491812288	 0.105352
H	 2.7987513323	-0.0196052319	-0.6993409568	 0.104205
H	 1.2030982966	-2.3473814342	 0.4983352748	 0.110675
H	 2.6596410754	-1.5924200826	 1.1697676545	 0.09398
H	 0.2059301214	-0.7836052489	 2.0590994078	 0.068276
H	 2.1477846542	 0.3757113277	 2.5393564068	 0.284772
66.3702	132.3016	182.469	200.8707	232.3801	287.624	296.3755	345.628	364.2275	387.881	450.5104	514.0465	540.7403	637.7577	691.2528	792.2249	857.5308	888.8529	919.8949	929.0722	946.8284	994.2985	1034.4002	1078.9905	1079.9069	1111.1744	1139.7845	1178.1923	1198.3472	1213.9452	1237.6754	1258.0224	1269.7351	1316.5656	1342.445	1378.2182	1389.4936	1407.3875	1427.7082	1443.8356	1475.789	1484.3389	1491.8596	1506.1046	1519.5038	2956.4177	2998.3951	3007.2416	3052.8473	3053.7391	3067.4698	3080.85	3103.2235	3125.0049	3152.4887	3756.6052	3822.6024
CC1(CO)OCCC1O	C[C@@]1(CO)OCC[C@H]1O	
InChI=1S/C6H12O3/c1-6(4-7)5(8)2-3-9-6/h5,7-8H,2-4H2,1H3	InChI=1S/C6H12O3/c1-6(4-7)5(8)2-3-9-6/h5,7-8H,2-4H2,1H3/t5-,6+/m1/s1
