15
gdb 34576	4.50371	1.17357	1.06483	5.0923	71.96	-0.2699	-0.0582	0.2117	1111.4749	0.11443	-416.817425	-416.810269	-416.809324	-416.849598	26.708	
N	-0.0157831196	-1.1456988637	-0.1833500065	-0.311091
C	-0.0525398083	 0.0052258606	-0.094223872	 0.285821
C	-0.0926444613	 1.4371542393	 0.0188028384	 0.312386
N	-1.138512819	 2.1375562158	-0.1630561698	-0.298655
C	-0.7255410262	 3.5304446294	 0.049923389	-0.022394
C	-1.0625005609	 4.0858681677	 1.4629326908	-0.226342
C	 0.4293419316	 3.8898091586	 1.887799619	-0.246161
C	 0.7786841134	 3.4348467326	 0.4524088014	 0.0763
O	 1.0912139678	 2.0246705038	 0.3321134465	-0.259103
H	-1.0247865289	 4.1428270419	-0.8030099819	 0.098607
H	-1.3872112009	 5.128400413	 1.4518097236	 0.116477
H	-1.7982468633	 3.4934106219	 2.0090105292	 0.125667
H	 0.9438574393	 4.7969234501	 2.2111743466	 0.11827
H	 0.6013489509	 3.1094773959	 2.6318783124	 0.126593
H	 1.5425481252	 3.9914294633	-0.0898421168	 0.103626
79.8694	111.298	170.8085	317.2608	384.4612	482.5973	550.3418	574.7318	666.0506	717.4323	739.3044	779.401	852.3654	904.0955	912.2158	942.4705	951.4311	1005.7263	1053.6132	1105.4847	1131.2038	1193.6442	1223.7355	1235.3108	1259.294	1282.2834	1292.7534	1314.2813	1359.2686	1468.0552	1485.2262	1682.7404	2373.3903	3074.3047	3077.912	3089.7976	3117.2846	3125.7964	3141.7496
N#CC1=NC2CCC2O1	N#CC1=N[C@H]2CC[C@H]2O1	
InChI=1S/C6H6N2O/c7-3-6-8-4-1-2-5(4)9-6/h4-5H,1-2H2	InChI=1S/C6H6N2O/c7-3-6-8-4-1-2-5(4)9-6/h4-5H,1-2H2/t4-,5+/m0/s1
