12
gdb 129282	3.73267	1.22042	0.91972	1.0501	74.23	-0.2675	-0.1167	0.1509	1142.1237	0.078183	-431.655896	-431.648728	-431.647784	-431.687949	26.144	
N	-0.0492764692	 1.2658162609	 0.3520631185	-0.510189
C	-0.0453532882	 0.0635734072	-0.0504916872	 0.432003
O	 1.1359214082	-0.550669478	-0.4558209622	-0.284329
N	 1.201264481	-1.8646727242	-0.9061936278	-0.051276
C	 0.1062518755	-2.5311820365	-0.9436529249	-0.014752
C	-1.193615028	-2.0087176765	-0.5489323783	 0.158404
C	-1.2546085086	-0.7335483927	-0.112291033	-0.233111
C	-2.3406308204	-2.8528642348	-0.6369750686	 0.228078
N	-3.2543274029	-3.5583392026	-0.718157499	-0.30387
H	 0.8893710777	 1.6676541853	 0.3274985867	 0.241978
H	 0.2057125748	-3.5503524408	-1.3012245483	 0.166411
H	-2.1727925501	-0.2554898073	 0.202963554	 0.170652
115.9381	134.5279	149.294	317.4288	409.8913	432.2554	471.3026	560.8873	572.3015	664.2769	702.9363	703.9678	867.3466	869.7835	918.673	920.8921	957.2161	1016.9824	1085.3508	1173.6568	1279.2976	1347.6396	1360.9326	1611.6162	1676.4577	1724.6301	2349.2494	3202.8223	3235.1739	3485.5752
N=C1ON=CC(=C1)C#N	[NH]C1=C[C](C=NO1)C#N	
InChI=1S/C5H3N3O/c6-2-4-1-5(7)9-8-3-4/h1,3,7H	InChI=1S/C5H3N3O/c6-2-4-1-5(7)9-8-3-4/h1,3,7H
