22
gdb 117172	2.95668	0.85414	0.77217	1.5053	80.75	-0.2559	0.0323	0.2882	1621.5515	0.191642	-441.492669	-441.481638	-441.480694	-441.529431	38.718	
C	 0.0206841594	 1.1859227081	-0.8257948415	-0.389888
C	-0.1235551622	-0.0194519052	 0.0837389461	-0.032302
O	-1.3756756811	-0.6525228088	-0.2293775739	-0.250643
C	-1.6861294717	-1.7558451966	 0.4748550682	 0.377369
N	-0.9431790066	-2.2171195958	 1.3925299982	-0.534043
C	-3.0075771908	-2.3463497177	-0.0213020242	 0.041885
C	-2.7949244955	-3.1305434523	-1.3157249319	-0.400359
O	-3.5567920583	-3.2288143565	 0.934981858	-0.238928
C	-4.2159516695	-2.5769885401	 2.0049603925	-0.247845
H	 0.9649332015	 1.6978415698	-0.6176025686	 0.12101
H	 0.0165265359	 0.8855314301	-1.8775822603	 0.125854
H	-0.7973474451	 1.8947894918	-0.6682358457	 0.126233
H	 0.6860793544	-0.7430637516	-0.057727712	 0.11989
H	-0.1223632517	 0.2607927858	 1.1422509563	 0.120085
H	-1.3792142838	-3.0591388581	 1.7697493247	 0.230971
H	-3.6971599492	-1.5096503048	-0.2116275109	 0.082429
H	-3.7510434062	-3.5084349284	-1.6859388064	 0.124143
H	-2.3440322521	-2.4882257371	-2.0758393337	 0.13141
H	-2.1309721982	-3.9800665558	-1.1323556976	 0.13148
H	-4.6043846622	-3.3571296578	 2.6635955933	 0.130001
H	-3.5347798093	-1.9328890316	 2.5772509705	 0.120628
H	-5.0558426276	-1.9662338075	 1.6418360092	 0.110621
45.088	86.0748	114.6941	137.5811	148.3515	195.2037	225.1026	234.6897	270.0727	281.5948	330.7871	373.1704	463.2152	478.4485	666.6944	722.5707	806.0274	848.036	879.9108	915.3508	918.6128	1040.416	1041.2294	1096.9887	1123.2902	1133.1585	1139.1574	1157.3502	1183.226	1185.3701	1240.3991	1288.0207	1306.63	1356.4959	1378.6743	1397.5035	1410.6447	1441.2426	1479.3556	1485.3435	1487.6104	1489.021	1496.4855	1499.1231	1511.088	1520.6484	1726.985	2986.4305	2993.5284	3044.5409	3047.206	3047.6037	3050.2872	3083.2358	3119.1974	3120.6169	3122.624	3127.4254	3136.3906	3485.4625
CCOC(=N)C(C)OC	CCO[C]([NH])[C@@H](C)OC	
InChI=1S/C6H13NO2/c1-4-9-6(7)5(2)8-3/h5,7H,4H2,1-3H3	InChI=1S/C6H13NO2/c1-4-9-6(7)5(2)8-3/h5,7H,4H2,1-3H3/t5-/m1/s1
