23
gdb 117991	2.17104	0.94559	0.69276	1.7192	88.18	-0.2577	0.0564	0.3142	1668.9772	0.202334	-388.257586	-388.246103	-388.245159	-388.294816	41.436	
C	 0.0656062615	 1.5982991636	 0.0488013425	-0.41381
C	-0.0152682525	 0.0645474579	 0.0072266459	 0.028975
C	-1.4749735222	-0.4241477888	 0.0363324314	-0.17663
C	-2.1844284334	-0.2205357145	 1.3704511323	-0.084497
O	-3.4854241089	-0.7791503043	 1.24928277	-0.420618
C	 0.7264292882	-0.5110815679	-1.2382443268	-0.147614
C	 2.1767374812	-0.0018206027	-1.3833591852	-0.404665
C	 0.7293693	-1.9748822324	-1.2213459374	 0.323171
C	 0.7718912024	-3.176627712	-1.1955030751	-0.466438
H	 1.0922422056	 1.9556442478	 0.1598423272	 0.118337
H	-0.3472500221	 2.0361917933	-0.8683589574	 0.114596
H	-0.5066803799	 1.9996236493	 0.8895721399	 0.116145
H	 0.4995574726	-0.3346355743	 0.892780633	 0.077775
H	-2.0520553818	 0.0830543837	-0.7482217071	 0.096995
H	-1.5088806565	-1.494181097	-0.1897660425	 0.124247
H	-1.6112166938	-0.7174827002	 2.171043374	 0.084431
H	-2.2428224106	 0.8483597548	 1.6276809931	 0.082747
H	-3.9493277368	-0.6410903672	 2.0800730525	 0.283968
H	 0.1657984681	-0.1860754674	-2.1276420325	 0.102207
H	 2.2039159168	 1.074409302	-1.567871696	 0.118199
H	 2.7539542963	-0.2149787866	-0.4779005214	 0.123266
H	 2.6699391998	-0.5019773358	-2.2204639643	 0.12663
H	 0.793850186	-4.238103561	-1.1819690762	 0.192584
47.4219	61.3764	87.3086	141.7673	179.7797	203.905	215.931	263.2913	267.707	318.45	329.8916	374.5437	417.8718	473.7972	556.0154	561.7928	624.6609	634.9905	788.6711	809.8365	876.693	933.1567	969.8831	982.2105	1015.9955	1057.3493	1071.6509	1099.174	1141.6943	1154.736	1177.0342	1231.3362	1246.9757	1284.463	1315.8225	1331.448	1335.3955	1367.7806	1375.0675	1406.536	1414.9307	1461.3828	1489.234	1492.6568	1497.4319	1500.9954	1515.6046	1528.4572	2229.891	2959.1425	2989.9027	2991.2736	3008.2761	3028.644	3035.0001	3045.5604	3091.9698	3101.8885	3115.533	3117.9749	3130.4766	3504.6296	3830.0404
CC(CCO)C(C)C#C	C[C@@H](CCO)[C@@H](C)C#C	
InChI=1S/C8H14O/c1-4-7(2)8(3)5-6-9/h1,7-9H,5-6H2,2-3H3	InChI=1S/C8H14O/c1-4-7(2)8(3)5-6-9/h1,7-9H,5-6H2,2-3H3/t7-,8-/m0/s1
