25
gdb 103748	2.93885	1.04598	0.90761	1.0168	90.14	-0.2422	0.0814	0.3236	1455.6294	0.225413	-389.479085	-389.467649	-389.466705	-389.515264	42.08	
C	-0.3586108243	 1.5267276473	 0.3018279158	-0.378827
C	 0.1449053221	 0.1166087959	-0.0370702824	-0.24973
C	 0.8843108501	-0.5643557858	 1.1104703875	 0.286216
C	 2.1333921231	 0.1730192441	 1.566316341	-0.452906
C	 0.0567093798	-1.2631743137	 2.1814439947	-0.392316
C	 0.8872670492	-2.0794686328	 1.2125533497	 0.38249
C	 0.232065122	-2.9701033391	 0.1765061327	-0.455208
O	 2.0895377285	-2.6164854045	 1.7099382583	-0.278669
C	 1.9415067488	-3.7111234052	 2.5906393826	-0.244591
H	 0.4648115827	 2.2169956925	 0.5062494561	 0.119438
H	-0.9361817633	 1.9407828383	-0.5305948646	 0.108694
H	-1.0068976073	 1.5104889118	 1.1847540507	 0.115887
H	-0.7138239139	-0.4878475784	-0.3435052669	 0.091171
H	 0.8089537827	 0.1690682127	-0.9107555728	 0.095359
H	 1.8773412361	 1.1358260206	 2.0202167821	 0.110424
H	 2.6940306824	-0.4133246553	 2.2939493591	 0.127686
H	 2.7982205552	 0.3713918987	 0.7170149379	 0.109168
H	 0.4053492854	-1.1975830665	 3.2071336513	 0.108289
H	-1.0242340379	-1.2774040252	 2.0759052523	 0.102117
H	-0.6986158543	-2.5464856707	-0.2038759662	 0.119634
H	 0.9084140485	-3.1353951814	-0.6687705773	 0.123024
H	-0.0145522953	-3.9471734966	 0.6054531159	 0.115591
H	 1.5656234367	-4.6114256664	 2.084468212	 0.107176
H	 2.9348319443	-3.9304975865	 2.9904040023	 0.123981
H	 1.2647351286	-3.4757404336	 3.4242308981	 0.105903
64.8301	100.1716	120.0909	152.6336	171.0866	179.2861	219.5585	235.4578	278.8943	321.791	345.8039	381.6068	402.1918	413.6347	456.0862	603.8633	691.6717	709.7197	786.9065	870.4277	901.1627	926.9864	931.1369	975.1039	1019.6862	1043.3175	1046.6126	1064.7815	1093.7214	1121.6275	1136.7401	1181.0536	1199.6876	1210.7982	1228.9275	1291.5371	1310.1914	1358.373	1388.5045	1404.083	1411.2113	1420.9066	1469.9264	1474.1949	1480.0972	1483.5047	1490.2574	1495.912	1502.3165	1503.3704	1508.2684	1511.1605	1513.2052	2991.1731	3016.0623	3030.3434	3035.6051	3037.124	3043.4018	3073.5972	3086.5355	3095.2379	3101.009	3110.9659	3112.0541	3117.6333	3136.7125	3148.866	3204.5412
CCC1(C)CC1(C)OC	CC[C@@]1(C)C[C@]1(C)OC	
InChI=1S/C8H16O/c1-5-7(2)6-8(7,3)9-4/h5-6H2,1-4H3	InChI=1S/C8H16O/c1-5-7(2)6-8(7,3)9-4/h5-6H2,1-4H3/t7-,8-/m0/s1
