19
gdb 38241	3.09965	1.73217	1.3965	2.1408	80.12	-0.2286	0.0147	0.2433	970.4463	0.161486	-385.826624	-385.819819	-385.818875	-385.857424	28.758	
C	-0.0128721076	 1.649485351	 0.1901374611	-0.268092
C	 1.4385372196	 1.1737852341	 0.0595420174	-0.002223
O	 1.1069944367	 0.0139621196	 0.9445962392	-0.373734
C	 0.0069149444	 0.1076799508	-0.0478004505	 0.442185
C	-1.1455900032	-0.8117557717	-0.2857338365	-0.362822
C	-1.8104087023	-0.2977427184	-1.5988339299	-0.257834
C	-0.8796065294	 0.3058708961	-2.6380432673	-0.027307
C	 0.4084737284	 0.6248477961	-2.460126177	-0.141604
C	 1.0508158825	 0.2699264299	-1.1600405746	-0.028341
H	-0.3082422151	 1.9499491201	 1.1959457525	 0.101114
H	-0.4217005882	 2.2893432083	-0.5933786144	 0.103052
H	 2.3718570132	 1.6951178202	 0.2739928758	 0.090122
H	-0.770571933	-1.8321473224	-0.4218112564	 0.116662
H	-1.8737593947	-0.8272456808	 0.5309990294	 0.108135
H	-2.380566797	-1.1132445519	-2.0593414208	 0.114028
H	-2.5596300222	 0.4654466961	-1.3434377547	 0.12066
H	-1.3488720205	 0.5082571779	-3.5990127345	 0.09096
H	 0.9883309771	 1.0545162483	-3.2731836958	 0.087359
H	 1.7342047213	-0.5824881534	-1.2344296131	 0.087681
150.5545	238.1178	305.9646	367.005	430.3469	459.1069	564.7401	572.8501	655.5797	676.0306	717.7829	776.0315	831.3297	851.6244	901.6219	911.3095	930.8781	951.4759	989.6705	997.294	1009.4792	1029.6854	1057.7772	1103.6757	1105.624	1135.2997	1183.2762	1199.7894	1207.6065	1217.4257	1250.1664	1278.9447	1289.0558	1329.9862	1361.61	1396.9884	1413.9393	1470.7292	1488.4458	1496.6429	1686.3722	3008.181	3040.3745	3053.2031	3055.3139	3075.5537	3089.6004	3114.6397	3138.5219	3153.8486	3162.9494
C1C2OC11CCC=CC21	C1[C@H]2O[C@]31CCC=C[C@@H]23	
InChI=1S/C8H10O/c1-2-4-8-5-7(9-8)6(8)3-1/h1,3,6-7H,2,4-5H2	InChI=1S/C8H10O/c1-2-4-8-5-7(9-8)6(8)3-1/h1,3,6-7H,2,4-5H2/t6-,7+,8-/m0/s1
