18
gdb 20814	3.30256	1.83959	1.30391	2.5994	74.45	-0.2275	0.0274	0.2549	975.4845	0.155117	-344.015658	-344.007399	-344.006455	-344.049083	29.453	
C	-0.1938631492	 1.4964402993	 0.0247513807	-0.370699
C	 0.0587174979	-0.0227762897	 0.0266459536	-0.30077
C	 0.7895905803	-0.5133514392	-1.1854714148	 0.363822
C	 2.1381502438	-0.7478836183	-1.3901825726	-0.306526
C	 2.2371205062	-1.1624372853	-2.7312352453	-0.003551
N	 1.0491598055	-1.190006328	-3.3272577022	-0.271048
N	 0.1780656071	-0.790563176	-2.3722086464	-0.008647
C	-1.2304508064	-0.7142602933	-2.6960848242	-0.331503
H	 0.7505410092	 2.0444994367	-0.0386952804	 0.128818
H	-0.8104696581	 1.8001296587	-0.8269836496	 0.120964
H	-0.7096282656	 1.804538828	 0.9395595352	 0.115574
H	 0.6506030589	-0.2882013589	 0.9084297274	 0.118291
H	-0.8968829182	-0.551176681	 0.131471339	 0.106966
H	 2.9270332682	-0.6382628834	-0.6628440467	 0.095974
H	 3.1188022879	-1.4474301933	-3.2866915435	 0.106408
H	-1.8283860959	-1.2961056982	-1.9878435008	 0.136695
H	-1.5890745399	 0.3204514391	-2.6934416159	 0.13679
H	-1.3512919816	-1.1314618772	-3.6949783034	 0.162441
43.5972	91.7378	150.3451	201.2497	212.2708	296.4855	383.7793	431.2822	625.0538	667.3518	707.3163	728.9351	786.8524	796.5104	884.2775	944.2834	965.4038	1024.2304	1062.6224	1070.6212	1082.8545	1149.0697	1195.2962	1231.5105	1282.2572	1322.203	1347.9305	1371.3806	1408.7923	1424.9221	1456.5603	1481.0153	1489.0394	1497.5029	1500.1051	1505.8159	1517.1258	1580.5532	3030.9262	3037.0569	3039.0273	3075.2139	3094.8488	3108.871	3117.1427	3165.3057	3239.7729	3262.0468
CCC1=CC=NN1C	CCc1ccnn1C	
InChI=1S/C6H10N2/c1-3-6-4-5-7-8(6)2/h4-5H,3H2,1-2H3	InChI=1S/C6H10N2/c1-3-6-4-5-7-8(6)2/h4-5H,3H2,1-2H3
