16
gdb 126122	4.57579	0.95975	0.80115	3.1867	71.96	-0.2614	-0.0553	0.2061	1375.0597	0.123648	-437.903679	-437.895243	-437.894298	-437.937908	29.707	
C	 0.0320575556	 1.5516889963	 0.0106932081	-0.380631
C	-0.0421213383	 0.0269064369	 0.0039028608	-0.299018
C	-1.4690443856	-0.5054084983	 0.0126004155	 0.284949
O	-2.4358074685	 0.2293885556	 0.0238208612	-0.319701
C	-1.6502137897	-1.971060774	 0.0075623721	 0.067441
C	-0.7418976165	-2.9906415372	-0.0042875192	 0.000957
O	-1.3557043309	-4.1722998769	-0.0042424438	-0.164162
N	-2.7452523186	-3.965052629	 0.0080964113	-0.123488
C	-2.8970747558	-2.6699489431	 0.01408108	-0.024916
H	 1.0730865506	 1.8856028498	 0.003936879	 0.111849
H	-0.4729790229	 1.9702515122	-0.863180153	 0.135446
H	-0.4588122001	 1.9617398336	 0.8965951554	 0.135439
H	 0.4674228529	-0.3893775365	-0.8760709258	 0.124579
H	 0.4813226263	-0.3978549107	 0.8715789124	 0.12458
H	 0.3370345574	-3.021726045	-0.0130661166	 0.164977
H	-3.887948206	-2.2403356636	 0.0237952425	 0.161699
52.1162	73.6753	136.7253	168.8589	213.2645	278.1525	356.0129	499.5238	544.4446	617.6871	672.2827	709.6289	814.4805	855.7886	873.0847	927.581	934.47	941.4541	1008.3898	1040.4945	1090.6565	1110.3153	1168.3576	1199.6776	1278.311	1297.1291	1357.3159	1403.5297	1414.5582	1456.5753	1491.0754	1495.033	1498.3381	1622.1502	1774.9545	3016.8528	3046.0702	3054.1174	3125.9586	3131.0723	3261.5012	3263.3938
CCC(=O)C1=CON=C1	CCC(=O)c1conc1	
InChI=1S/C6H7NO2/c1-2-6(8)5-3-7-9-4-5/h3-4H,2H2,1H3	InChI=1S/C6H7NO2/c1-2-6(8)5-3-7-9-4-5/h3-4H,2H2,1H3
