20
gdb 114170	4.00962	0.93227	0.82564	2.8933	83.07	-0.2439	-0.0272	0.2167	1433.7878	0.170126	-403.122571	-403.11356	-403.112616	-403.156554	33.551	
C	 0.0731877512	 1.5125212201	-0.0249293755	-0.381429
C	 0.0092119645	-0.0058767454	 0.1663953736	-0.192352
C	-1.3989475242	-0.5653454069	-0.0057659367	 0.043177
C	-2.0546593542	-0.5593977647	-1.4388209834	-0.309978
C	-2.2381691352	-2.0699266286	-1.3291929422	 0.264193
N	-0.8874097834	-2.6599497366	-1.1234146126	-0.352804
C	-1.5677217591	-2.0952071727	 0.0339544224	-0.131066
C	-3.3821836662	-2.8944369513	-1.7160050452	 0.050143
O	-4.3552330825	-2.493964972	-2.3104644533	-0.268152
H	 1.0954732334	 1.8831461812	 0.0967115936	 0.11516
H	-0.2677974912	 1.8022546776	-1.0246652756	 0.121344
H	-0.5587734872	 2.0334626361	 0.7032300597	 0.112919
H	 0.6736130492	-0.5052380656	-0.5469263364	 0.118616
H	 0.3752313061	-0.2659741284	 1.1685928166	 0.092558
H	-2.0837775442	-0.1034364181	 0.7126916174	 0.080728
H	-3.0034267248	-0.0239984611	-1.4824620639	 0.127856
H	-1.4109651931	-0.2413987863	-2.2618766623	 0.112676
H	-0.9836732782	-3.675978017	-1.0880958439	 0.23652
H	-1.8167654768	-2.712410027	 0.8902635437	 0.104497
H	-3.2954511842	-3.9594582932	-1.3875032261	 0.055392
86.4738	104.6838	128.2963	173.0498	228.5464	263.8793	297.5386	384.9429	422.7616	483.6157	575.0887	668.457	746.5675	775.4265	799.8601	836.7937	905.7562	932.2469	947.9058	965.2024	1005.6643	1023.185	1062.6761	1086.1444	1105.2553	1125.1653	1133.6341	1190.0768	1227.8469	1237.4845	1275.443	1299.9431	1327.0781	1367.6809	1381.9083	1405.808	1415.0726	1437.3723	1476.2997	1491.1876	1500.4036	1507.0753	1799.8601	2827.3368	3021.114	3030.8603	3052.5922	3073.5532	3077.7286	3099.6943	3105.0264	3142.923	3176.7723	3459.8643
CCC1CC2(NC12)C=O	CC[C@H]1C[C@]2(N[C@@H]12)C=O	
InChI=1S/C7H11NO/c1-2-5-3-7(4-9)6(5)8-7/h4-6,8H,2-3H2,1H3	InChI=1S/C7H11NO/c1-2-5-3-7(4-9)6(5)8-7/h4-6,8H,2-3H2,1H3/t5-,6-,7-/m0/s1
