18
gdb 36267	4.52095	0.99169	0.92334	2.6819	81.32	-0.2123	0.0598	0.2721	1288.2101	0.146829	-364.676713	-364.668624	-364.66768	-364.710426	31.698	
C	 0.0763602921	-1.2388502906	 0.4714413003	-0.426169
C	-0.0270351693	-0.1018664016	 0.093112425	 0.262724
C	-0.12410029	 1.283023862	-0.3621891233	-0.366346
C	 1.2465906644	 1.9874479178	-0.3244355514	-0.024168
C	 1.8717568195	 2.9312576997	-1.3211819407	-0.090552
C	 0.9499393917	 4.0774935223	-1.822028712	-0.057527
N	-0.4087143227	 3.9090432394	-1.2417598178	-0.327622
C	 0.6883463981	 4.5121369146	-0.439368783	-0.057539
C	 1.598906825	 3.3846975062	 0.1212226852	-0.090494
H	 0.1540320378	-2.2440728857	 0.8033195969	 0.185496
H	-0.5345346128	 1.3109414594	-1.3747423475	 0.141779
H	-0.8439023468	 1.8254234809	 0.2559802353	 0.141856
H	 2.017363152	 1.3080772231	 0.0348733552	 0.108264
H	 2.8274828927	 2.7233668734	-1.7863262598	 0.090338
H	 1.1077533643	 4.6559779848	-2.7225360814	 0.09552
H	-0.9763984528	 4.6809078965	-1.591784664	 0.228576
H	 0.5964978187	 5.505385135	-0.0204604053	 0.095523
H	 2.3174529782	 3.5710409629	 0.9098651681	 0.090344
19.3474	135.2312	209.2936	230.3253	334.6247	399.4875	473.7282	482.843	599.8729	631.5715	664.267	708.0482	724.6848	731.1121	836.2803	842.6446	877.7202	893.3796	906.1369	955.5469	971.639	996.1291	997.5074	1007.115	1043.3034	1078.9802	1119.7528	1136.6662	1193.2636	1231.8756	1253.5992	1260.7359	1298.1887	1317.671	1348.6922	1376.581	1437.1612	1448.3639	2232.9191	3069.3511	3099.9809	3127.5016	3179.2157	3189.4764	3196.1523	3209.1991	3465.6781	3507.7295
C#CCC1C2C3NC3C12	C#CC[C@H]1[C@H]2[C@H]3N[C@H]3[C@@H]12	
InChI=1S/C8H9N/c1-2-3-4-5-6(4)8-7(5)9-8/h1,4-9H,3H2	InChI=1S/C8H9N/c1-2-3-4-5-6(4)8-7(5)9-8/h1,4-9H,3H2/t4-,5+,6-,7+,8-
