13
gdb 42506	6.25342	0.63284	0.57883	1.2971	65.55	-0.3334	-0.0856	0.2478	1728.3272	0.0878	-452.78524	-452.776194	-452.77525	-452.821052	29.591	
O	-0.0967321046	-0.1147462525	 0.0029322891	-0.31718
C	-0.0076013029	 1.0805212823	 0.0060899111	 0.364472
O	 1.1218593722	 1.7951514549	-0.0024821238	-0.22772
C	 2.3408184308	 1.0233706998	-0.0161737949	-0.073967
C	 3.4795929065	 2.0445896912	-0.0202212094	-0.347824
C	 4.7809040535	 1.3823580069	-0.0343356015	 0.252015
N	 5.8016738259	 0.8424620261	-0.0454527413	-0.284222
C	-1.1663953565	 1.9793903647	 0.0192397564	 0.257921
N	-2.1115437581	 2.6424612773	 0.0298969039	-0.296318
H	 2.3743461017	 0.3796736718	 0.8662662623	 0.161158
H	 2.3601033922	 0.3887079322	-0.9055784841	 0.161099
H	 3.3932401405	 2.6935369367	-0.8978999528	 0.175291
H	 3.4076366089	 2.6844178085	 0.8654148451	 0.175275
37.5338	53.1763	84.0023	159.0354	159.3838	271.7691	330.1485	338.1126	396.3016	487.2974	584.4504	618.4574	771.2903	789.1922	891.9888	974.3712	1014.3015	1076.9558	1083.8385	1231.2863	1259.963	1299.684	1309.8759	1414.5425	1471.0312	1509.7724	1825.858	2363.8192	2372.0395	3056.7943	3075.0719	3097.0426	3131.1565
O=C(OCCC#N)C#N	O=C(OCCC#N)C#N	
InChI=1S/C5H4N2O2/c6-2-1-3-9-5(8)4-7/h1,3H2	InChI=1S/C5H4N2O2/c6-2-1-3-9-5(8)4-7/h1,3H2
