19
gdb 88583	3.61032	1.04605	0.93057	1.1188	78.76	-0.2248	0.0117	0.2365	1296.0117	0.158773	-423.005942	-422.997084	-422.99614	-423.04058	32.227	
O	-0.7274236082	-0.3247129103	 2.1708004792	-0.417345
C	-0.1279936967	-0.2581633969	 0.9169694675	 0.116663
C	-0.4980791331	-1.2993172024	-0.0866573722	-0.306871
C	-0.9660842769	 0.1345915439	-0.3005236769	-0.169168
C	-2.3712584579	 0.5492390699	-0.1383749678	 0.309795
C	-3.3401948131	 0.0904980783	 0.6599859176	-0.258071
C	-4.6012697468	 0.8786063576	 0.4496299677	-0.100922
O	-4.2667388516	 1.8755768202	-0.5140209855	-0.265105
C	-2.924581837	 1.7043071732	-0.9418466877	-0.154122
H	-1.2911347382	 0.4517124003	 2.2760060832	 0.288142
H	 0.899956785	 0.1008231442	 0.9342582842	 0.095462
H	 0.2643685657	-1.687062851	-0.753116797	 0.117864
H	-1.251822798	-2.0156471327	 0.2207710536	 0.128844
H	-0.4258674769	 0.6898120682	-1.0618841557	 0.08833
H	-3.2716618474	-0.7416955395	 1.3473425002	 0.114845
H	-5.4277671712	 0.253230602	 0.0732147336	 0.103127
H	-4.9627573185	 1.3636609677	 1.3702572455	 0.102801
H	-2.3561130892	 2.6344455821	-0.7780080502	 0.102209
H	-2.8911872898	 1.4959070951	-2.0246266492	 0.103523
35.0119	106.6319	127.6071	158.1061	181.7981	271.0926	337.7365	435.632	445.202	563.2316	675.4475	772.0782	778.6503	835.0801	837.7737	886.8495	927.5322	951.3705	976.7553	1002.0184	1028.2708	1057.1516	1065.6001	1071.4933	1117.9232	1125.9687	1169.5912	1174.7693	1185.6483	1223.9181	1237.771	1285.1007	1339.4566	1353.2403	1395.1657	1399.4608	1427.6311	1477.0129	1517.8629	1531.3729	1706.3897	2956.4977	2965.5985	2975.1725	2981.7342	3110.1222	3135.6354	3146.3116	3227.1164	3229.5108	3769.3
OC1CC1C1=CCOC1	O[C@H]1C[C@H]1C1=CCOC1	
InChI=1S/C7H10O2/c8-7-3-6(7)5-1-2-9-4-5/h1,6-8H,2-4H2	InChI=1S/C7H10O2/c8-7-3-6(7)5-1-2-9-4-5/h1,6-8H,2-4H2/t6-,7-/m0/s1
