15
gdb 31921	3.81855	1.03556	0.82057	3.1901	80.18	-0.2092	-0.0044	0.2048	1325.1088	0.11279	-416.813242	-416.804684	-416.80374	-416.847032	31.011	
O	-0.173738189	 1.4252322158	 0.2334926528	-0.429451
C	-0.0291910005	 0.034327561	-0.0202978945	-0.196842
C	-1.3933898615	-0.5764733765	 0.03455978	 0.357828
N	-1.6730870258	-1.8637062735	 0.0978831919	-0.309982
C	-3.0385990556	-1.9373358367	 0.093629975	-0.190914
C	-3.6029966661	-0.6767103634	 0.031737369	 0.160576
N	-2.5146450322	 0.1823359883	-0.0115002414	-0.33541
C	-4.9365377202	-0.2318798159	 0.0165674779	 0.249445
C	-6.0788856536	 0.1524437588	 0.0024161191	-0.443798
H	 0.6610711879	 1.8585413745	 0.0373667563	 0.29982
H	 0.4163255605	-0.147038941	-1.0108208234	 0.120857
H	 0.6134975632	-0.460411903	 0.7213371814	 0.12857
H	-3.5601141867	-2.8808485267	 0.1388940354	 0.117632
H	-2.5305120937	 1.1890427132	-0.0292202833	 0.280911
H	-7.0876084666	 0.483082435	-0.0085076862	 0.190758
53.6245	121.0696	135.9072	212.6444	225.8824	269.0577	458.0452	464.7804	517.877	535.8638	571.0495	601.3358	676.0387	683.4915	693.5171	728.9475	863.4116	1009.2172	1035.7091	1038.622	1083.8377	1166.7912	1189.2127	1226.5317	1244.0164	1300.4217	1356.4816	1427.9689	1474.3932	1509.438	1530.0693	1596.0835	2228.1653	2981.3514	3021.5006	3257.5544	3503.4945	3666.8662	3848.6766
OCC1=NC=C(N1)C#C	OCc1ncc([nH]1)C#C	
InChI=1S/C6H6N2O/c1-2-5-3-7-6(4-9)8-5/h1,3,9H,4H2,(H,7,8)	InChI=1S/C6H6N2O/c1-2-5-3-7-6(4-9)8-5/h1,3,9H,4H2,(H,7,8)
