17
gdb 61006	3.86032	0.89534	0.81263	3.6417	71.22	-0.2423	-0.0529	0.1894	1381.9605	0.133309	-458.96243	-458.953342	-458.952398	-458.997121	32.495	
O	-0.3250848899	 1.3119546787	-0.0625557971	-0.423471
C	-0.0095081624	-0.0516337196	-0.1014369162	 0.013756
C	 0.9654330693	-0.3147395976	-1.2404631158	 0.145331
O	 1.3508125389	 0.5758920485	-1.9566476977	-0.254621
C	 0.5987945708	-0.5702865347	 1.2008070739	-0.037749
C	 1.3588258017	 0.3326321424	 2.1111807059	-0.297304
C	 0.0302223067	-0.2535120808	 2.5814850472	-0.120505
C	-1.1363860101	 0.6427513192	 2.7983190516	 0.14224
O	-1.9670384571	 0.4369976538	 3.6516507263	-0.27239
H	 0.1717485542	 1.7170500289	-0.792964359	 0.299922
H	-0.9140111874	-0.6474397752	-0.3241152597	 0.109141
H	 1.2997204409	-1.3627801707	-1.3761180591	 0.106247
H	 0.9519496101	-1.595310125	 1.1133462859	 0.102805
H	 2.2634186513	-0.0219462917	 2.590603178	 0.128118
H	 1.3482316548	 1.3875365369	 1.8597187972	 0.141467
H	 0.0717498859	-1.0656578689	 3.3002063834	 0.108853
H	-1.1908532275	 1.5252488058	 2.1327678851	 0.108161
50.5921	88.3532	108.9877	189.3164	231.5777	276.2838	327.4622	332.7087	400.1049	465.1074	526.7142	608.1438	716.3058	794.5357	847.0987	851.57	867.4953	932.6273	995.6881	1053.3774	1057.4953	1065.978	1087.4728	1138.5796	1176.4217	1187.9309	1221.8709	1265.9906	1335.1791	1347.7661	1372.6222	1408.8369	1433.8458	1449.2823	1483.2147	1806.3939	1817.6913	2933.365	2948.1625	2963.5973	3134.3659	3143.8197	3170.3015	3235.4102	3666.2837
OC(C=O)C1CC1C=O	O[C@@H](C=O)[C@H]1C[C@H]1C=O	
InChI=1S/C6H8O3/c7-2-4-1-5(4)6(9)3-8/h2-6,9H,1H2	InChI=1S/C6H8O3/c7-2-4-1-5(4)6(9)3-8/h2-6,9H,1H2/t4-,5-,6-/m0/s1
