16
gdb 104551	2.49488	1.30861	1.04332	4.0572	69.79	-0.2972	-0.0138	0.2833	1173.7154	0.12288	-437.929125	-437.920437	-437.919493	-437.962798	31.429	
C	-0.0461548018	 1.6341476815	 0.0650195425	-0.400556
C	 0.187607707	 0.1273765597	 0.1957519679	-0.235145
C	 0.6792059381	-0.523764865	-1.0949320209	 0.257538
C	 0.5824243364	-2.0694426682	-1.1868475896	-0.472145
C	-0.4627744288	-1.7788145508	-2.2613810585	 0.454724
O	-1.1898039297	-2.3842936537	-2.9735168228	-0.295672
O	-0.3253129183	-0.4088412484	-2.1693786383	-0.258498
C	 1.9603919354	 0.0283731834	-1.5450002481	 0.280182
N	 2.9851394137	 0.4528490219	-1.8677574873	-0.326497
H	 0.8819391234	 2.1609615773	-0.1756071772	 0.146785
H	-0.7733294784	 1.8446867926	-0.7237076271	 0.146828
H	-0.4316775077	 2.0403027931	 1.0036312051	 0.128041
H	 0.9223412338	-0.0862430601	 0.9809587011	 0.128081
H	-0.7420499855	-0.3804842827	 0.4762424068	 0.119169
H	 1.4700400883	-2.5860777346	-1.5524861378	 0.169673
H	 0.1997693342	-2.5652388659	-0.293694576	 0.157491
82.9422	103.8309	160.2006	185.3635	218.4107	260.3079	378.5027	404.136	478.5059	520.1785	526.184	601.5637	635.5898	773.1288	816.6122	873.4375	898.0523	953.1869	999.1205	1036.3698	1082.9478	1095.762	1160.8491	1179.8124	1232.9999	1242.2798	1320.6485	1368.3568	1416.9955	1454.134	1472.602	1498.4176	1507.5742	1958.5665	2361.1202	3037.8429	3050.1496	3079.3386	3098.6906	3123.246	3129.2635	3160.9568
CCC1(CC(=O)O1)C#N	CC[C@]1(CC(=O)O1)C#N	
InChI=1S/C6H7NO2/c1-2-6(4-7)3-5(8)9-6/h2-3H2,1H3	InChI=1S/C6H7NO2/c1-2-6(4-7)3-5(8)9-6/h2-3H2,1H3/t6-/m0/s1
