18
gdb 62483	2.21724	1.75244	1.25183	1.0352	72.9	-0.2573	-0.0392	0.2181	1054.1186	0.146223	-439.129904	-439.12078	-439.119836	-439.164644	33.248	
C	-0.067252806	 1.538941834	-0.0091902645	-0.413174
C	-0.0250159313	-0.0013027191	-0.0178892015	 0.011854
C	-1.4504585442	-0.5861943901	-0.0153603197	-0.413175
C	 0.7842410369	-0.5243492118	-1.1897098621	 0.403573
N	 0.498889609	-0.3360447634	-2.4022621299	-0.531502
O	 1.8794693061	-1.2368893254	-0.762874095	-0.247779
C	 1.9608665066	-1.2936630485	 0.6587437186	-0.208221
C	 0.7586094979	-0.5145476989	 1.1883972563	 0.382939
O	 0.49414803	-0.3468448215	 2.3486786602	-0.314122
H	 0.9381374475	 1.9708016433	-0.0115186045	 0.121728
H	-0.5894775955	 1.8915413821	-0.9014885724	 0.146522
H	-0.5899895677	 1.8872683298	 0.8855257303	 0.136009
H	-1.9820753435	-0.2475632194	-0.907520714	 0.146498
H	-1.4382958402	-1.6803183486	-0.0224196161	 0.121731
H	-1.9828290365	-0.2531259695	 0.8794842424	 0.135997
H	 1.1850446311	-0.7803639876	-3.0145539588	 0.225098
H	 1.9318206399	-2.3355169215	 0.9974195672	 0.148018
H	 2.89987389	-0.8444680338	 1.0015424535	 0.148006
18.951	136.3546	194.9349	205.7336	227.1497	236.4247	285.8474	295.8604	391.6461	553.3206	573.8497	579.3594	648.8708	699.2137	700.6543	831.3575	892.7402	941.7112	958.5984	972.5649	1003.2848	1042.3054	1091.5131	1122.1441	1157.9479	1208.4033	1210.7588	1239.7097	1306.0089	1369.0499	1388.2904	1416.5005	1478.9154	1483.5962	1483.8023	1497.4508	1507.8416	1778.5784	1863.3589	3038.6212	3043.1193	3044.9524	3081.3387	3115.7127	3118.0252	3134.7905	3138.0345	3475.4944
CC1(C)C(=N)OCC1=O	CC1(C)[C]([NH])OCC1=O	
InChI=1S/C6H9NO2/c1-6(2)4(8)3-9-5(6)7/h7H,3H2,1-2H3	InChI=1S/C6H9NO2/c1-6(2)4(8)3-9-5(6)7/h7H,3H2,1-2H3
