16
gdb 50679	2.12937	1.52957	1.05005	3.8417	69.52	-0.2691	-0.0443	0.2248	1130.8788	0.124448	-437.90295	-437.894544	-437.8936	-437.937247	29.388	
O	 0.6728012181	-0.2819796933	-0.1347029002	-0.24211
C	 0.3293876023	 0.8610587119	 0.0114243973	 0.137227
C	 1.2952303427	 2.0300350672	 0.0616617099	-0.113888
C	 1.0464776296	 3.0460592363	-1.0942253355	-0.097127
O	 1.0118069751	 4.3461424937	-0.5182641773	-0.236347
C	 1.6295710642	 4.2933776136	 0.7469894809	-0.085008
C	 1.19424799	 2.9290321418	 1.3319633289	-0.197079
C	-0.1580521994	 3.0068284068	 1.8892249484	 0.283298
N	-1.2208878252	 3.0765231464	 2.3379400506	-0.319644
H	-0.7421622137	 1.1436269393	 0.0948343397	 0.11466
H	 2.3057190532	 1.6209445162	 0.0074231191	 0.115392
H	 1.8478625524	 2.9662713572	-1.8391739938	 0.12147
H	 0.0887879408	 2.8820748044	-1.6005693892	 0.128549
H	 2.7284302215	 4.3168558868	 0.6731602752	 0.105827
H	 1.2911606475	 5.1498982084	 1.3330586023	 0.142447
H	 1.8703514809	 2.5767847434	 2.1152677536	 0.142333
47.3156	71.9222	140.6891	150.1445	263.6335	317.8212	353.8664	411.0539	476.503	564.0624	727.2671	774.5673	830.564	869.2635	937.0132	946.371	972.6388	1002.9449	1052.0835	1107.4935	1133.2612	1143.6159	1202.5265	1235.3984	1255.1056	1279.8317	1307.202	1345.3322	1366.1325	1401.0727	1427.5047	1507.9677	1521.9679	1832.8017	2356.4825	2910.4171	2981.9663	3023.8717	3067.7998	3086.784	3103.4634	3118.4368
O=CC1COCC1C#N	O=C[C@H]1COC[C@H]1C#N	
InChI=1S/C6H7NO2/c7-1-5-3-9-4-6(5)2-8/h2,5-6H,3-4H2	InChI=1S/C6H7NO2/c7-1-5-3-9-4-6(5)2-8/h2,5-6H,3-4H2/t5-,6+/m1/s1
