20
gdb 111077	3.44073	1.12466	1.10234	3.4492	79.74	-0.2162	-0.0072	0.209	1218.2039	0.17148	-403.132189	-403.124013	-403.123069	-403.165026	31.969	
C	 0.2220324253	 0.595857388	-1.4349467509	-0.380933
C	-0.0771140109	 0.2414242553	 0.0209425307	-0.127411
N	-1.3600619572	-0.4519442509	 0.1291089765	-0.115436
C	-1.3674556981	-1.9332267711	-0.1932583358	-0.00399
C	-0.8970862545	-2.2470422142	 1.2536763634	-0.252984
C	-1.7161689691	-0.9491830533	 1.5186061407	-0.113691
C	-3.1350001599	-1.4339612994	 1.1966596729	 0.464744
O	-4.1549485986	-1.2792201363	 1.8066367759	-0.332724
C	-2.883934017	-2.1909768837	-0.1297611529	-0.328216
H	 1.1489142389	 1.1733180084	-1.5054008672	 0.114831
H	 0.3449431862	-0.302389389	-2.0491425166	 0.115921
H	-0.5941773912	 1.1862946759	-1.8598345797	 0.129083
H	 0.775699387	-0.3176955003	 0.4442660151	 0.079905
H	-0.1660423906	 1.1628745866	 0.6087494334	 0.106509
H	-0.8254578782	-2.2690158682	-1.0765891956	 0.078645
H	-1.2210996789	-3.1821892736	 1.7214963413	 0.106278
H	 0.1721457796	-2.1068075767	 1.408251416	 0.118713
H	-1.5798274011	-0.28891827	 2.3729881716	 0.085653
H	-3.4297448197	-1.7298233943	-0.9556129649	 0.134194
H	-3.1640673819	-3.2454141331	-0.0534431838	 0.12091
78.8439	133.4016	174.7964	218.4189	300.018	377.9797	411.2421	466.8027	512.5257	602.5679	612.1034	753.4335	762.4467	807.0817	815.7723	829.7361	901.9074	939.6117	946.4724	972.9188	993.2145	1008.2929	1066.6338	1098.2647	1110.5662	1144.8182	1156.3397	1177.0732	1191.2667	1222.6995	1238.865	1270.88	1291.6152	1305.1813	1318.494	1390.3821	1410.4263	1446.3371	1489.2963	1492.3791	1501.8488	1519.7703	1885.1125	2946.8879	3039.4916	3046.2443	3056.6382	3069.6021	3105.7275	3121.8115	3123.9542	3126.272	3139.9443	3146.6352
CCN1C2CC1C(=O)C2	CCN1[C@H]2C[C@@H]1C(=O)C2	
InChI=1S/C7H11NO/c1-2-8-5-3-6(8)7(9)4-5/h5-6H,2-4H2,1H3	InChI=1S/C7H11NO/c1-2-8-5-3-6(8)7(9)4-5/h5-6H,2-4H2,1H3/t5-,6+/m0/s1
