16
gdb 16317	3.26176	1.96943	1.41522	1.7208	66.24	-0.2314	0.0192	0.2506	895.2766	0.130683	-379.876401	-379.868823	-379.867879	-379.908354	28.218	
C	-0.3697690453	 1.4034290233	-0.0159191455	-0.334653
N	 0.1126728522	 0.0215515561	 0.0874284596	-0.374878
C	 0.7827845301	-0.4500485278	-1.0592453374	 0.220111
C	 0.0070809067	-0.9117224559	-2.3021332479	-0.314681
C	 0.9493904612	-1.8459968034	-1.6373860086	 0.022876
O	 2.3031081437	-1.5396457071	-2.0697439389	-0.279031
C	 2.2245148459	-0.2852387968	-1.4588676178	 0.386048
N	 3.1095542164	 0.5778321611	-1.2547907141	-0.559787
H	 0.4259521871	 2.1375270322	-0.205596049	 0.131499
H	-1.0969997416	 1.4684082806	-0.8311712199	 0.126713
H	-0.8807922925	 1.6706003678	 0.9131595204	 0.119368
H	 0.7068470993	-0.0775975814	 0.9036331832	 0.231379
H	-1.0447497273	-1.0771626764	-2.0899086479	 0.133821
H	 0.2400068804	-0.5215263394	-3.2876490784	 0.130302
H	 0.7623274404	-2.8294197776	-1.2307046402	 0.13022
H	 4.0110053232	 0.2876088147	-1.6377614578	 0.230693
86.9082	145.9488	193.268	212.7815	287.7178	399.1967	465.8282	477.6032	633.2884	685.9771	742.9451	779.9503	858.3328	868.258	903.003	919.3405	949.6699	1000.0863	1019.9711	1043.294	1076.7557	1084.0714	1153.8637	1175.5431	1197.2831	1265.2878	1283.8464	1406.7131	1456.2271	1482.2266	1485.4646	1496.0947	1525.3408	1824.4858	3003.8742	3079.3837	3113.9002	3126.1363	3221.3033	3229.6674	3475.3775	3527.1122
CNC12CC1OC2=N	CN[C@]12C[C@H]1O[C]2[NH]	
InChI=1S/C5H8N2O/c1-7-5-2-3(5)8-4(5)6/h3,6-7H,2H2,1H3	InChI=1S/C5H8N2O/c1-7-5-2-3(5)8-4(5)6/h3,6-7H,2H2,1H3/t3-,5-/m1/s1
