15
gdb 132563	3.07753	1.39588	0.9669	3.187	73.06	-0.2192	-0.0414	0.1779	1131.8324	0.11309	-458.158195	-458.150399	-458.149455	-458.190354	29.783	
C	-0.0500705406	 1.5097021894	-0.0476124169	-0.501189
C	-0.008860119	 0.0088092778	-0.0142915122	 0.279379
N	 0.0113621623	-0.6521562464	-1.1700523743	-0.340233
C	 0.0313014223	-1.967115802	-1.1205041653	 0.278465
F	 0.0480562274	-2.6166215667	-2.2839098962	-0.075533
C	 0.035143051	-2.6800479917	 0.0679403294	-0.151511
N	 0.0268745681	-2.0386042345	 1.2362751374	-0.29735
C	 0.001420673	-0.7052777812	 1.2089240984	 0.319161
N	-0.0738503617	-0.0492870668	 2.4266496043	-0.568081
H	 0.8560476237	 1.9490829128	 0.3916390795	 0.127653
H	-0.1275727964	 1.8515545975	-1.0801671601	 0.151285
H	-0.9036686323	 1.8935257654	 0.5236589131	 0.141177
H	 0.0505768453	-3.7652664315	 0.0762493177	 0.126285
H	 0.1533365147	-0.6444172412	 3.2105343004	 0.257213
H	 0.3527798121	 0.8629523592	 2.4760180647	 0.253278
121.4746	164.667	221.2098	287.7308	341.6048	368.879	401.2215	479.8827	495.1804	527.8201	581.1632	587.7162	642.0717	721.9349	798.2882	812.1195	923.6294	984.6623	1037.7595	1054.4802	1078.4709	1217.9066	1277.2654	1311.7519	1364.2908	1401.811	1447.0667	1469.9569	1481.8309	1507.2869	1604.067	1621.1658	1642.6377	3014.3267	3067.7385	3147.5086	3181.375	3569.8505	3680.9298
CC1=NC(F)=CN=C1N	Cc1nc(F)cnc1N	
InChI=1S/C5H6FN3/c1-3-5(7)8-2-4(6)9-3/h2H,1H3,(H2,7,8)	InChI=1S/C5H6FN3/c1-3-5(7)8-2-4(6)9-3/h2H,1H3,(H2,7,8)
