12
gdb 129089	3.06805	1.50006	1.00748	3.8967	71.92	-0.2664	-0.0856	0.1808	1054.3713	0.078774	-431.648386	-431.641326	-431.640382	-431.680283	25.848	
N	-0.0754011291	 1.3105773915	-0.2014670315	-0.502695
C	-0.0231213713	 0.0439155401	-0.0326944031	 0.200223
C	 1.2034102048	-0.747603825	 0.1535400613	 0.010558
N	 1.3107126497	-2.0135649059	 0.3259834238	-0.05959
O	 0.1181302694	-2.7506254381	 0.3414979323	-0.231058
C	-1.0563657249	-2.1308831062	 0.1812018246	 0.05915
C	-1.2155277139	-0.8001276433	-0.0031984104	 0.036202
C	-2.5223018685	-0.2574333899	-0.1623847764	 0.24617
N	-3.5939975267	 0.1600160937	-0.2893312833	-0.320494
H	 0.8600145243	 1.7225974367	-0.1919403537	 0.227542
H	 2.1618063474	-0.2311653406	 0.1510306202	 0.155444
H	-1.8765539512	-2.8382962233	 0.2180323749	 0.178549
91.951	147.9707	201.0286	368.8344	399.9159	423.2375	453.4272	560.3384	568.8276	606.3294	742.3115	765.6273	824.3377	873.1401	888.1401	940.4512	967.3526	1099.043	1180.2881	1221.2066	1312.6528	1335.146	1437.8989	1632.3565	1649.8556	1701.1869	2351.9065	3159.89	3219.2006	3453.8719
N=C1C=NOC=C1C#N	[NH]C1=C([CH]ON=C1)C#N	
InChI=1S/C5H3N3O/c6-1-4-3-9-8-2-5(4)7/h2-3,7H	InChI=1S/C5H3N3O/c6-1-4-3-9-8-2-5(4)7/h2-3,7H
