15
gdb 28084	5.61434	0.91776	0.78882	3.9975	71.02	-0.1811	0.0203	0.2014	1342.9227	0.113461	-453.999615	-453.991228	-453.990284	-454.032723	31.042	
O	 0.0748690854	 1.3803953531	 0.1389504309	-0.435214
C	 0.0641956357	 0.032136002	-0.0083468112	 0.422005
C	 0.083727677	-0.7933551273	-1.1075389002	-0.439971
C	 0.0556420984	-2.1311807598	-0.5930570594	 0.366293
N	 0.0642102011	-3.2767355166	-1.4035143727	-0.400627
C	 0.0386664599	-4.5665004101	-0.9679502723	 0.138927
O	 0.004510907	-4.9168643856	 0.1935241246	-0.318097
C	 0.0204755382	-2.0746321215	 0.7783972675	-0.170574
N	 0.026558742	-0.7279654573	 1.1172552294	-0.301131
H	 0.1048697638	 1.7821302984	-0.7342192481	 0.308084
H	 0.113908297	-0.4901932586	-2.1428761042	 0.084143
H	 0.0918305426	-3.1294295026	-2.3999168703	 0.250043
H	 0.0529672313	-5.2785729347	-1.8163353717	 0.073147
H	-0.0072352531	-2.8559127256	 1.5128304268	 0.154403
H	 0.0061476337	-0.3547792538	 2.0497436409	 0.268572
65.3468	169.2048	186.7125	215.2601	275.0507	293.2755	365.1834	447.1619	456.959	539.9738	562.7499	630.1917	664.9086	685.0726	729.372	729.4425	870.799	982.6398	1004.7281	1014.3201	1113.5844	1144.6918	1172.2824	1214.4472	1286.5552	1318.8855	1412.0121	1431.6334	1529.3578	1566.5584	1594.1725	1645.8681	1794.8514	2938.7204	3241.4504	3331.1174	3635.2251	3692.1661	3851.5038
OC1=CC(NC=O)=CN1	Oc1cc(NC=O)c[nH]1	
InChI=1S/C5H6N2O2/c8-3-7-4-1-5(9)6-2-4/h1-3,6,9H,(H,7,8)	InChI=1S/C5H6N2O2/c8-3-7-4-1-5(9)6-2-4/h1-3,6,9H,(H,7,8)
