12
gdb 9988	2.93869	1.47978	1.02504	3.6796	63.82	-0.2902	-0.0287	0.2615	1066.0604	0.081119	-377.471135	-377.462821	-377.461876	-377.505054	27.934	
N	-0.0687573052	 1.2809579514	-0.1006521362	-0.421341
C	-0.0416526914	 0.0256612462	-0.0963000183	 0.144029
O	-1.2056962715	-0.6604073001	 0.083017965	-0.178101
C	-1.1102798485	-2.0807000649	 0.0135812661	-0.210944
C	-2.2528207066	-2.6711350095	 0.7007842008	 0.309893
C	-3.1745560463	-3.1820248926	 1.2720991102	-0.366851
C	-1.0421194148	-2.5347268334	-1.3957014371	 0.297529
N	-0.9516723796	-2.880897863	-2.4933476729	-0.305313
H	 0.8681143487	 1.6580501456	-0.2257137606	 0.242587
H	 0.8370630705	-0.6219503212	-0.2145042974	 0.105712
H	-0.184165787	-2.4165212641	 0.5052456541	 0.160744
H	-3.9982345883	-3.6271235243	 1.7753934064	 0.222058
49.6756	80.9967	126.9912	146.4636	238.7419	321.5476	346.0717	478.6338	520.9091	573.9347	659.3292	683.4652	703.1169	816.0075	906.0304	992.2697	1034.0103	1048.8665	1103.7345	1259.9613	1320.3028	1334.4901	1425.4817	1758.4128	2259.8602	2365.465	2991.8921	3034.0609	3498.9793	3527.2859
N=COC(C#C)C#N	[NH][CH]O[C@@H](C#C)C#N	
InChI=1S/C5H4N2O/c1-2-5(3-6)8-4-7/h1,4-5,7H	InChI=1S/C5H4N2O/c1-2-5(3-6)8-4-7/h1,4-5,7H/t5-/m0/s1
