18
gdb 72960	2.62166	1.50367	1.20665	3.6846	77.24	-0.2706	0.0149	0.2855	1082.783	0.146691	-401.934833	-401.926063	-401.925118	-401.967691	33.418	
C	-0.0546541529	 1.5740548968	 0.0476310467	-0.502729
C	-0.0014521797	 0.0732193977	 0.0728340408	 0.280615
C	-1.2328149937	-0.8412125384	-0.0637776878	-0.279537
C	-0.6080436406	-1.8343651768	 0.9643669931	-0.239397
C	 0.6161230348	-0.9224188412	 1.0750490043	-0.170171
C	 1.2186430079	-0.7322433602	-0.3094937666	 0.225965
O	 1.115842776	-1.696301248	-1.3169309402	-0.455187
C	 2.4776858122	-0.0129301167	-0.3230896801	 0.241182
N	 3.4989375553	 0.5304571777	-0.3393033385	-0.35067
H	 0.9152076971	 2.0203228043	 0.2832556741	 0.146532
H	-0.3560702847	 1.9332669926	-0.9432090727	 0.132945
H	-0.786154942	 1.9443858952	 0.7735890851	 0.122886
H	-2.1322760966	-0.355893839	 0.3212716488	 0.108898
H	-1.4308480738	-1.2270049054	-1.0652291732	 0.120336
H	-1.1724653693	-1.8828312029	 1.8971910977	 0.1123
H	-0.4183101271	-2.8505776753	 0.6103530043	 0.103637
H	 1.212109977	-0.7380996946	 1.9618484943	 0.106484
H	 1.7490721901	-2.3997353659	-1.13163651	 0.295909
131.523	149.239	189.7201	219.4892	247.7049	275.7015	312.212	334.6248	437.3812	461.1356	555.2267	558.4591	670.7804	672.4399	761.4908	788.6733	885.5728	937.8236	948.0322	965.0939	997.3818	1013.5087	1082.478	1114.2775	1156.569	1190.4522	1218.5231	1230.2521	1247.0727	1275.1923	1290.6271	1324.8094	1416.6058	1429.6234	1470.9373	1488.6271	1493.6491	1499.9586	2345.5355	3031.1331	3066.9062	3074.6322	3091.6775	3116.0038	3116.9942	3133.8666	3178.0191	3792.1246
CC12CCC1C2(O)C#N	C[C@]12CC[C@H]1[C@]2(O)C#N	
InChI=1S/C7H9NO/c1-6-3-2-5(6)7(6,9)4-8/h5,9H,2-3H2,1H3	InChI=1S/C7H9NO/c1-6-3-2-5(6)7(6,9)4-8/h5,9H,2-3H2,1H3/t5-,6+,7-/m1/s1
