21
gdb 111953	2.8523	1.16097	0.92641	2.3374	84.64	-0.2371	-0.0159	0.2212	1354.4923	0.181599	-387.132763	-387.123255	-387.122311	-387.167654	35.14	
C	 0.0013770551	 1.6907715067	 0.2445960571	-0.391798
C	 0.0401160044	 0.1708476064	 0.0697540828	-0.17074
C	-1.3530995464	-0.4695219171	-0.0797027831	-0.149913
C	-2.0791530533	-0.2235046111	-1.3791846965	-0.084557
C	-2.4821334244	-1.3488653398	-1.9720511075	-0.08274
C	-2.1156619758	-2.5892479572	-1.1969312969	-0.144937
C	-1.3513775845	-3.6729648837	-1.9708407064	-0.391592
C	-1.2888928485	-2.0089067331	-0.0334946591	 0.385645
O	-0.6566635171	-2.6558554433	 0.7617924313	-0.324569
H	 1.0107588036	 2.0955000705	 0.3669949461	 0.117122
H	-0.4497570694	 2.1890622816	-0.6200960218	 0.116069
H	-0.57982232	 1.971662312	 1.1300373243	 0.11638
H	 0.6474979698	-0.0887180106	-0.8060756718	 0.09807
H	 0.5238154349	-0.2967830374	 0.9341106641	 0.121832
H	-1.9637761754	-0.1404915411	 0.7769415715	 0.103993
H	-2.2522978165	 0.7738244651	-1.7677608313	 0.100602
H	-3.0247017966	-1.3959969504	-2.9102185635	 0.09799
H	-3.0134282578	-3.0532687158	-0.7590146842	 0.108354
H	-0.4683135279	-3.2530274918	-2.4625325749	 0.120464
H	-1.0197582029	-4.4552997672	-1.2832408483	 0.139549
H	-1.9843175614	-4.1267123426	-2.7392748419	 0.114776
38.5525	89.6192	165.8688	187.9568	212.5573	247.2242	250.0915	307.1897	346.7575	524.4348	548.3234	572.9855	653.0709	727.668	741.1534	783.5586	839.3589	895.9443	897.0247	971.1996	985.738	1016.4422	1040.1239	1064.389	1092.8841	1111.8548	1138.9529	1148.2617	1155.1978	1248.1284	1263.7697	1278.2805	1300.4915	1334.1326	1364.6467	1382.8624	1405.8154	1413.4273	1488.7335	1494.4421	1499.7237	1500.1516	1506.3121	1675.3425	1840.6916	2976.2901	2985.5931	3030.1981	3033.0519	3040.0806	3073.108	3100.8147	3103.5768	3109.7887	3124.8371	3179.9349	3203.9957
CCC1C=CC(C)C1=O	CC[C@H]1C=C[C@@H](C)C1=O	
InChI=1S/C8H12O/c1-3-7-5-4-6(2)8(7)9/h4-7H,3H2,1-2H3	InChI=1S/C8H12O/c1-3-7-5-4-6(2)8(7)9/h4-7H,3H2,1-2H3/t6-,7+/m1/s1
