15
gdb 77205	3.72167	1.07085	0.90349	3.4863	73.22	-0.2606	-0.0191	0.2415	1237.8498	0.111514	-416.75046	-416.741673	-416.740729	-416.78439	31.855	
N	 0.0554703188	 1.2349428542	 0.3686044334	-0.506475
C	 0.165745323	-0.1265311107	-0.0445348942	-0.051231
C	-1.1585337739	-0.8619644147	-0.4016345122	-0.029429
O	-0.5646941375	-1.398144747	-1.6227028604	-0.285746
C	 0.5978376259	-0.5665796471	-1.5022172291	-0.052139
C	 0.6149538921	 0.5384078981	-2.4634233929	 0.282947
N	 0.6162966062	 1.4560254688	-3.1671145655	-0.322985
C	-1.6494197547	-1.8788566919	 0.5028170404	 0.306245
C	-2.0449038149	-2.7144858538	 1.2705143582	-0.420875
H	 0.9420489532	 1.6093011376	 0.6855407613	 0.246026
H	-0.2880680269	 1.8345902308	-0.3756520774	 0.251756
H	 0.7396907738	-0.6891270938	 0.6926594747	 0.121416
H	-1.9565397889	-0.1491018212	-0.6490284788	 0.120296
H	 1.5241759492	-1.1438250289	-1.5866956845	 0.130357
H	-2.4012174956	-3.4539377105	 1.9450500172	 0.209837
50.5265	114.9607	148.5878	184.4655	249.07	289.6531	347.2392	407.4249	469.7862	476.8643	610.181	623.5289	628.3483	686.7915	741.7684	794.6021	836.5163	938.4453	950.7388	992.0048	1028.4481	1079.9113	1164.2783	1176.3694	1198.7974	1267.4301	1276.5371	1347.1934	1373.8622	1435.6897	1670.7633	2239.1581	2346.9814	3019.3786	3061.3926	3113.9727	3500.7914	3509.4728	3596.8937
NC1C(OC1C#N)C#C	N[C@H]1[C@@H](O[C@H]1C#N)C#C	
InChI=1S/C6H6N2O/c1-2-4-6(8)5(3-7)9-4/h1,4-6H,8H2	InChI=1S/C6H6N2O/c1-2-4-6(8)5(3-7)9-4/h1,4-6H,8H2/t4-,5-,6-/m0/s1
