16
gdb 71565	3.09114	1.68421	1.50392	4.0726	67.77	-0.2242	-0.0239	0.2002	919.3621	0.124751	-437.829721	-437.822742	-437.821798	-437.860832	27.931	
C	-0.0898909598	 1.527364104	 0.078620142	-0.523356
C	-0.0181873569	 0.0297124072	 0.0744861764	 0.308181
N	-1.2637726901	-0.7968040682	 0.142105761	-0.36939
C	-0.3249463853	-1.9242856583	 0.5306858001	-0.206214
C	 0.7695851078	-0.8954167128	 1.0308703318	 0.054541
O	 1.9097708637	-0.9739871461	 0.1501408511	-0.302613
C	 0.9428167318	-0.7365870773	-0.9279938274	-0.098028
C	 0.2548034439	-2.1130847867	-0.8848603011	 0.534912
O	 0.2050422785	-3.0144108918	-1.664988951	-0.325515
H	 0.9168762249	 1.9558160426	 0.0777813774	 0.142859
H	-0.6230052455	 1.8909292707	-0.8057518293	 0.14144
H	-0.6155331548	 1.8932781365	 0.9674103822	 0.123173
H	-1.7847975811	-0.506637159	 0.9699205549	 0.223729
H	-0.7114652843	-2.777953329	 1.0792391886	 0.097864
H	 0.9982062299	-0.7580717787	 2.0879938345	 0.096784
H	 1.3646746771	-0.336305683	-1.8462747012	 0.101634
149.5022	219.1608	244.6291	261.3897	431.1781	435.8977	504.669	548.279	659.4562	735.9173	760.8603	807.8236	812.2702	829.1298	853.9615	908.9689	915.1996	947.5809	958.3836	1009.2228	1104.5021	1111.1954	1130.944	1143.5077	1152.4085	1206.3976	1215.6016	1260.8716	1263.1428	1332.2933	1375.6864	1414.9393	1485.4635	1490.4867	1914.1906	3033.7	3100.8585	3115.0102	3118.7381	3165.2235	3174.9885	3455.8472
CC12NC3C1OC2C3=O	C[C@]12N[C@@H]3[C@H]1O[C@H]2C3=O	
InChI=1S/C6H7NO2/c1-6-4-2(7-6)3(8)5(6)9-4/h2,4-5,7H,1H3	InChI=1S/C6H7NO2/c1-6-4-2(7-6)3(8)5(6)9-4/h2,4-5,7H,1H3/t2-,4+,5-,6-/m0/s1
