14
gdb 130357	3.7205	1.04035	0.81353	10.9635	83.88	-0.1783	-0.054	0.1242	1305.9348	0.101609	-469.983461	-469.975401	-469.974457	-470.016451	29.395	
N	-0.1740254502	 1.4908372971	 0.1257365709	-0.515526
C	 0.0447000074	 0.1485481759	-0.0000137446	 0.116008
N	-0.9084318328	-0.7400831735	 0.0116928666	-0.305234
H	-1.8880294695	-0.4306597703	 0.0362235187	 0.276041
C	-0.9002847477	-2.1181230267	 0.0013201842	 0.052967
C	-2.1711676613	-2.759565696	-0.012164129	 0.42948
O	-3.2903624029	-2.2682246333	-0.0152129443	-0.453093
O	-1.8991227196	-4.1080159082	-0.0182010638	-0.24145
N	-0.4959473259	-4.3250548028	-0.0075855317	-0.150428
C	 0.0641288259	-3.1401926257	 0.0051504386	-0.050502
H	 0.5437466656	 2.0993198479	-0.2350952085	 0.2845
H	-1.1124824151	 1.8386573877	-0.0097148138	 0.278982
H	 1.0715843181	-0.1902452921	-0.0395936269	 0.167943
H	 1.1448105482	-3.0809525102	 0.0171634235	 0.110311
109.1764	111.7498	143.3063	261.1579	316.2955	334.9553	374.9383	396.5756	485.131	586.5791	595.1226	700.0369	757.3027	811.2171	816.6457	869.3083	874.4444	933.1431	967.0537	1057.9194	1141.5014	1235.4082	1242.1622	1310.5597	1379.229	1462.9874	1498.0532	1563.0095	1651.6889	1750.0395	1784.4932	3214.3743	3232.1608	3370.0115	3575.0555	3688.4199
NC=[NH+]C1=C([O-])ON=C1	[NH2]=CN[C]1C(=O)ON=C1	
InChI=1S/C4H5N3O2/c5-2-6-3-1-7-9-4(3)8/h1-2,8H,(H2,5,6)	InChI=1S/C4H5N3O2/c5-2-6-3-1-7-9-4(3)8/h1-2,6H,5H2
