20
gdb 91972	2.15551	1.77204	1.18242	4.1059	81.37	-0.2828	0.0333	0.3161	1106.6459	0.172678	-366.032911	-366.024595	-366.023651	-366.065793	32.321	
C	 0.0009994659	 1.5769097534	-0.0893980933	-0.419448
C	 0.1033263226	 0.0565328651	-0.0127803432	 0.040053
C	 0.7822389844	-0.6232668321	-1.2253863388	-0.24513
C	 1.2318110728	-1.9939696703	-0.7185314597	-0.025971
C	 2.5596754363	-2.0717996502	-0.0148438915	-0.288933
C	 1.2980054922	-1.9333285839	 0.7968892035	-0.044411
C	 0.8576637165	-0.5234052825	 1.2355995769	-0.194969
C	 1.9802397421	 0.3160312047	 1.6639429184	 0.292102
N	 2.8683363825	 0.982864449	 1.9867595602	-0.349655
H	 0.9911052123	 2.0393324064	-0.1474681091	 0.141697
H	-0.5659239179	 1.8765957591	-0.9765756601	 0.116695
H	-0.5093917506	 1.9906669173	 0.78647086	 0.119808
H	-0.9076582496	-0.3625412558	 0.0628144885	 0.085606
H	 0.0876303214	-0.7062405245	-2.0659518637	 0.105601
H	 1.6336575299	-0.0264565439	-1.5749047883	 0.11099
H	 0.8555215783	-2.8820734719	-1.2132219191	 0.088907
H	 3.0614850581	-3.0328000719	 0.0202551869	 0.115229
H	 3.2328514313	-1.221807134	-0.0741786295	 0.134676
H	 0.9839175859	-2.764324422	 1.4165734537	 0.095536
H	 0.1708004458	-0.588761272	 2.0854230683	 0.121617
71.9285	147.5976	168.0502	234.737	298.1635	321.4593	395.3547	416.2848	480.1981	603.0695	613.0127	673.9212	762.121	810.3689	814.2222	890.4906	901.6183	922.1066	940.3421	971.4709	1019.8593	1047.1579	1053.8905	1076.9147	1107.575	1117.6217	1146.1168	1159.1298	1198.3753	1217.3282	1255.3476	1296.1144	1316.6972	1332.6667	1362.3281	1368.1133	1385.1805	1416.0538	1485.2789	1495.9497	1497.206	1503.5247	2347.8263	3023.2417	3035.0033	3037.2079	3062.4183	3088.9919	3102.5616	3112.8046	3127.2465	3169.5619	3181.2509	3213.6507
CC1CC2CC2C1C#N	C[C@H]1C[C@H]2C[C@H]2[C@H]1C#N	
InChI=1S/C8H11N/c1-5-2-6-3-7(6)8(5)4-9/h5-8H,2-3H2,1H3	InChI=1S/C8H11N/c1-5-2-6-3-7(6)8(5)4-9/h5-8H,2-3H2,1H3/t5-,6-,7+,8-/m0/s1
