22
gdb 112876	2.38297	1.29901	1.03611	3.0549	83.42	-0.2519	0.0318	0.2837	1286.3496	0.194669	-404.38772	-404.378173	-404.377229	-404.422446	35.575	
C	-0.4267878088	 1.2022804065	 0.1909592742	-0.385406
C	-0.1217659629	-0.2578922345	-0.1514215038	-0.186804
C	 0.8430436643	-0.4273850199	-1.3480720641	-0.068439
C	 1.3270370283	-1.8750127932	-1.5706860759	-0.275599
C	 0.4619752152	-2.4010762593	-2.7365002854	 0.124627
C	-0.7071529813	-3.2897239016	-2.3289214517	-0.398997
O	-0.0349304287	-1.2196674442	-3.4026179546	-0.246162
C	 0.1806323155	-0.0887242943	-2.6724171858	 0.399672
N	-0.1420506083	 1.0720301028	-3.0589430704	-0.537511
H	 0.4861603086	 1.7300000063	 0.4891194041	 0.11051
H	-0.8447773687	 1.7263056388	-0.671323924	 0.156259
H	-1.1360427461	 1.2654088558	 1.0221854605	 0.104625
H	 0.3323418737	-0.7535143735	 0.7157450037	 0.094752
H	-1.0565298068	-0.7948844604	-0.3561064433	 0.101984
H	 1.6866831258	 0.2519976422	-1.1983196104	 0.10181
H	 2.3825759759	-1.8852389548	-1.8551944575	 0.111302
H	 1.2209040814	-2.4958248139	-0.6773749904	 0.106668
H	 1.0731675996	-2.9302294472	-3.475018176	 0.090381
H	-1.3316359426	-2.8049311929	-1.57241158	 0.128977
H	-1.3330736651	-3.5178206733	-3.1960154658	 0.130637
H	-0.3358361908	-4.2325683563	-1.9142143796	 0.119612
H	-0.5909390982	 1.0285316767	-3.9758115339	 0.217104
64.8864	85.3359	100.2362	196.871	232.378	243.3202	295.0692	331.5362	370.2014	420.4339	467.0001	659.8211	669.8973	731.2802	743.7582	798.3059	855.829	879.6906	893.9916	931.3511	961.1485	1015.1031	1036.7517	1047.5259	1072.8506	1102.0941	1128.0961	1135.2176	1165.961	1235.7807	1253.2091	1279.7141	1291.5556	1326.8803	1351.4532	1372.1564	1378.3481	1401.5474	1410.4619	1414.2495	1483.8794	1487.5546	1494.4875	1495.9962	1499.4339	1510.7907	1759.8708	3019.0428	3035.083	3039.8438	3045.2463	3050.978	3061.7899	3076.0533	3098.831	3105.4921	3113.054	3122.0225	3133.8169	3465.2242
CCC1CC(C)OC1=N	CC[C@H]1C[C@@H](C)O[C]1[NH]	
InChI=1S/C7H13NO/c1-3-6-4-5(2)9-7(6)8/h5-6,8H,3-4H2,1-2H3	InChI=1S/C7H13NO/c1-3-6-4-5(2)9-7(6)8/h5-6,8H,3-4H2,1-2H3/t5-,6+/m1/s1
