21
gdb 108001	3.5133	1.46069	1.31378	0.1558	84.71	-0.2344	0.0902	0.3246	1066.8736	0.183751	-349.888112	-349.880633	-349.879689	-349.919854	30.952	
C	 0.0872506141	 1.5367043219	 0.124916442	-0.386343
C	-0.074399023	 0.0227804088	-0.051959434	-0.300416
C	-1.5042809464	-0.4668417183	-0.0248388644	 0.365804
C	-2.6494439772	 0.1119819036	-0.9030785728	-0.295123
C	-3.5866236935	-0.5287842952	 0.1474252724	-0.057601
C	-3.2707691765	-2.0428416435	 0.1762408543	-0.074698
C	-2.3980417492	-1.9573987699	 1.4093758223	-0.104561
C	-1.7490075878	-1.9989920483	 0.0434796094	-0.121027
C	-2.4583237414	-0.4105118005	 1.2413825243	-0.102176
H	 1.1446934481	 1.8181943067	 0.137980529	 0.110283
H	-0.3930547973	 2.0897234645	-0.688501495	 0.117884
H	-0.3585786625	 1.876377304	 1.0660869751	 0.114514
H	 0.3875195619	-0.2850993286	-1.0011132649	 0.093635
H	 0.4859572352	-0.4987233528	 0.7360494276	 0.097256
H	-2.6853432625	 1.2054281388	-0.8565300559	 0.09349
H	-2.7259045512	-0.2176607216	-1.9447528654	 0.086196
H	-4.6139397588	-0.2010125154	 0.3013660188	 0.060433
H	-3.8666754748	-2.8721049012	-0.1819427619	 0.081225
H	-2.3047055614	-2.6147890276	 2.2633897072	 0.081754
H	-1.1723633982	-2.7919245098	-0.4164927165	 0.076591
H	-2.4199555274	 0.3557639841	 2.0122753784	 0.06288
92.6174	175.0399	198.4628	286.7922	354.0969	432.3781	545.8538	585.4224	731.5608	748.1694	763.8568	790.1994	792.9854	830.4581	851.3884	862.8759	890.4993	897.3095	938.3918	966.68	977.3845	998.8203	1007.3211	1036.1283	1040.439	1047.0573	1083.1611	1090.851	1144.2273	1162.8477	1176.9776	1194.9863	1212.7269	1238.3703	1242.2287	1277.0293	1306.7261	1313.169	1361.6328	1381.1121	1410.0139	1479.2858	1486.888	1498.5219	1506.9549	3002.3535	3033.3702	3033.8501	3036.8148	3092.2249	3100.945	3105.5824	3119.3334	3139.1623	3184.9144	3192.1297	3207.
CCC12CC3C4C(C14)C23	CC[C@@]12C[C@H]3[C@@H]4[C@@H]([C@H]14)[C@@H]23	
InChI=1S/C9H12/c1-2-9-3-4-5-6(7(4)9)8(5)9/h4-8H,2-3H2,1H3	InChI=1S/C9H12/c1-2-9-3-4-5-6(7(4)9)8(5)9/h4-8H,2-3H2,1H3/t4-,5+,6+,7-,8+,9-/m0/s1
