14
gdb 44670	3.0774	1.95704	1.74275	5.0325	64.07	-0.2592	-0.0363	0.223	809.3307	0.103658	-436.696413	-436.69055	-436.689605	-436.726616	23.857	
O	-0.0587352639	-0.0140581318	 0.0196510099	-0.331987
C	-0.0289808549	 1.1754184114	 0.0532077541	 0.456345
O	-1.1549254187	 1.9601922056	 0.0930171014	-0.234177
C	-0.7582030807	 3.2749182721	 0.5680031154	 0.000255
C	-0.6501484867	 3.1392269397	 2.0783434869	-0.081521
C	 0.5974526151	 2.7900969928	 2.4087089057	-0.07636
C	 1.4958513655	 2.8349166394	 1.2165206706	-0.069151
C	 0.70401805	 3.3815992491	 0.0950700296	-0.059037
N	 1.1450097468	 1.9971289604	-0.0140376468	-0.197324
H	-1.4654911134	 4.000890636	 0.1727859876	 0.106177
H	-1.5175173101	 3.122163192	 2.725702492	 0.126972
H	 0.9398063975	 2.4849490516	 3.3892500862	 0.122955
H	 2.5642437905	 2.9780171687	 1.3208689642	 0.120684
H	 1.0439309929	 4.1046367329	-0.6375111667	 0.116169
134.4058	269.9433	403.1223	495.2305	545.2492	646.7962	670.5372	694.4061	764.9695	792.798	829.2895	848.0569	862.791	907.2312	921.1577	954.3862	983.9223	993.6316	1012.7688	1042.8706	1075.5464	1111.5064	1130.1649	1252.9762	1281.048	1289.5233	1324.0976	1364.505	1380.7365	1648.9442	1902.9762	3145.2303	3177.6347	3196.8116	3211.5089	3233.7921
O=C1OC2C=CC3C2N13	O=C1O[C@H]2C=C[C@@H]3[C@H]2N13	
InChI=1S/C6H5NO2/c8-6-7-3-1-2-4(9-6)5(3)7/h1-5H	InChI=1S/C6H5NO2/c8-6-7-3-1-2-4(9-6)5(3)7/h1-5H/t3-,4+,5-,7?/m1/s1
