13
gdb 132640	3.27058	1.40286	0.98271	3.9897	64.4	-0.2192	-0.0309	0.1882	1074.3078	0.090835	-494.100913	-494.093709	-494.092765	-494.132471	27.708	
N	-0.0447021714	 1.4351144315	-0.1319670371	-0.600863
C	-0.0370042707	 0.0446631758	-0.0449803564	 0.18205
C	-1.1716454621	-0.7502365468	 0.0395410905	-0.051561
N	-1.1386321696	-2.093706594	 0.0562221202	-0.318992
C	 0.0575605282	-2.6227468111	-0.010838861	 0.331735
F	 0.1248963543	-3.943857915	 0.0010325025	-0.063843
N	 1.2269245316	-1.9995900394	-0.0854702377	-0.404048
C	 1.1704092066	-0.6804687758	-0.101933377	 0.406515
O	 2.3202434287	 0.0164082978	-0.1678010297	-0.420734
H	 0.821563583	 1.8644261731	 0.160802373	 0.263894
H	-0.8457009583	 1.8779292259	 0.2954678354	 0.252926
H	-2.156234659	-0.2910839594	 0.0957614732	 0.113817
H	 3.0391675087	-0.6309605627	-0.1879640859	 0.309105
132.7548	242.5059	276.6701	295.9868	367.4403	391.4402	453.7372	502.1506	548.2275	570.9603	599.7386	638.2579	728.1993	777.0472	805.8918	814.88	948.1629	1022.2469	1110.8711	1191.5956	1297.7854	1322.5889	1351.3683	1412.6046	1472.1618	1516.0457	1623.2019	1647.6784	1668.706	3154.1487	3559.47	3659.9691	3767.3971
NC1=CN=C(F)N=C1O	Nc1cnc(F)nc1O	
InChI=1S/C4H4FN3O/c5-4-7-1-2(6)3(9)8-4/h1H,6H2,(H,7,8,9)	InChI=1S/C4H4FN3O/c5-4-7-1-2(6)3(9)8-4/h1H,6H2,(H,7,8,9)
