15
gdb 14331	4.50081	1.80902	1.53328	3.74	61.05	-0.2439	0.0294	0.2733	821.8484	0.121165	-399.825813	-399.819382	-399.818438	-399.85671	24.474	
O	-0.0747283745	-0.0489298729	 0.161650598	-0.366115
C	-0.0969281988	 1.1507337008	 0.0173083045	 0.399389
C	-1.3129774147	 2.0276952993	-0.3152605374	-0.352303
C	-0.8145376754	 3.4576815879	-0.1800008902	 0.120222
O	-0.9516632453	 3.9893471333	 1.1579707295	-0.287976
C	 0.4752842964	 4.1566440586	 1.2982608425	-0.081669
C	 0.7314018364	 3.3953704379	-0.0212845199	-0.057417
N	 0.9947299647	 1.9858133452	 0.0971862234	-0.299051
H	-1.6568344001	 1.7916134704	-1.3273617238	 0.130597
H	-2.1312703388	 1.8186440711	 0.3771921044	 0.149736
H	-1.207657878	 4.1510957736	-0.9295365337	 0.085373
H	 0.7664964553	 5.2149205247	 1.2700247748	 0.102673
H	 0.8626351929	 3.6905218402	 2.2107232661	 0.110524
H	 1.3675159184	 3.8856143123	-0.7618280093	 0.093402
H	 1.8970378015	 1.6050873777	 0.336121401	 0.252614
89.9537	132.0483	357.3978	395.329	468.6016	482.6319	595.1902	654.9871	664.0233	811.0961	849.3608	863.492	894.3815	923.9665	1013.0011	1023.0887	1040.4107	1073.4754	1119.2226	1163.2583	1176.017	1218.5017	1245.0043	1274.6483	1294.3188	1345.3872	1358.4242	1380.9449	1428.7782	1445.8689	1514.3437	1836.7125	3012.7048	3054.973	3068.4536	3072.3174	3082.7975	3123.2811	3637.0083
O=C1CC2OCC2N1	O=C1C[C@H]2OC[C@H]2N1	
InChI=1S/C5H7NO2/c7-5-1-4-3(6-5)2-8-4/h3-4H,1-2H2,(H,6,7)	InChI=1S/C5H7NO2/c7-5-1-4-3(6-5)2-8-4/h3-4H,1-2H2,(H,6,7)/t3-,4-/m1/s1
