23
gdb 110898	2.70564	1.36441	1.12619	1.2704	84.77	-0.2605	0.0755	0.336	1192.9257	0.207854	-388.276999	-388.268392	-388.267448	-388.309768	34.532	
C	-0.1287872373	 1.5706028	-0.142726268	-0.419451
C	 0.069502954	 0.0566515469	-0.0493558335	 0.031261
C	 0.9568605437	-0.5485216051	-1.164556895	-0.009927
C	 1.1866673827	-1.9962485614	-0.6453059311	-0.238079
C	 1.985254545	-1.2538636469	 0.4639541813	-0.033427
C	 2.3998104268	-0.2576960452	-0.6591078941	-0.229408
C	 0.8583034197	-0.4992209495	 1.2047451213	 0.034911
C	 1.343231223	 0.5119396666	 2.2340863347	-0.107823
O	 0.2071859872	 0.9899765247	 2.9491232631	-0.421264
H	 0.8194162479	 2.110380676	-0.2365753467	 0.105417
H	-0.7301874012	 1.8188867294	-1.0239956477	 0.102958
H	-0.6414016089	 1.9503750991	 0.7443098618	 0.131258
H	-0.9211110618	-0.4106506295	-0.0800996687	 0.067563
H	 0.6574138628	-0.3455158214	-2.1943427843	 0.051969
H	 0.3112720318	-2.5812458144	-0.3447197457	 0.085117
H	 1.8291514229	-2.5873181509	-1.3025156132	 0.090985
H	 2.7249894654	-1.7675079796	 1.0811209492	 0.052068
H	 3.1630550293	-0.67534168	-1.3201055852	 0.093218
H	 2.6703551344	 0.7656792523	-0.3874482441	 0.086569
H	 0.2304465545	-1.210226213	 1.7535615031	 0.075314
H	 2.0503818483	 0.0136566762	 2.9175751307	 0.081414
H	 1.8844540638	 1.3418891415	 1.7573201762	 0.084792
H	 0.5042464461	 1.6634133742	 3.5680337059	 0.284567
118.1166	142.6243	217.6533	229.8879	268.8911	293.1552	318.9627	376.0726	479.4158	501.3433	549.95	661.0102	747.8262	808.3677	840.9749	853.5355	880.3571	902.7162	960.6278	986.7379	1005.685	1021.0858	1031.9394	1040.2099	1067.1796	1077.0018	1079.3426	1118.4637	1119.7105	1146.1315	1161.6537	1214.8458	1226.239	1240.9577	1251.6221	1260.1337	1276.2263	1293.4498	1321.6182	1331.0836	1375.9732	1379.4844	1410.8329	1460.1939	1489.0406	1498.2167	1506.6761	1523.3154	1527.2049	2964.0911	3004.8128	3028.6618	3034.7178	3043.4468	3047.7797	3060.5136	3091.931	3093.6901	3097.7686	3108.9104	3115.6655	3122.9941	3828.7128
CC1C2CC(C2)C1CO	C[C@H]1[C@@H]2C[C@@H](C2)[C@H]1CO	
InChI=1S/C8H14O/c1-5-6-2-7(3-6)8(5)4-9/h5-9H,2-4H2,1H3	InChI=1S/C8H14O/c1-5-6-2-7(3-6)8(5)4-9/h5-9H,2-4H2,1H3/t5-,6-,7+,8-/m0/s1
