19
gdb 52159	4.72767	0.72226	0.70216	3.3056	76.62	-0.2436	-0.0188	0.2248	1611.6896	0.15801	-422.984654	-422.975835	-422.974891	-423.019869	31.614	
O	-0.0755086361	 0.0432796588	 0.1670378462	-0.237905
C	-0.0245569473	 1.2219521934	-0.0734348496	 0.155935
C	 1.2350404999	 2.0554186657	-0.0814524298	-0.2671
C	 1.4418845546	 2.7640296478	-1.4346957068	-0.236596
C	 2.6379578689	 3.6913972604	-1.4075423387	-0.02738
C	 2.9091635121	 4.8037717321	-2.4076007198	-0.166463
C	 1.6200797948	 5.5498624695	-2.7334639782	-0.093642
O	 1.3065042748	 5.7116260256	-1.3227153465	-0.283705
C	 2.5617468123	 5.1223662837	-0.9669121134	 0.085732
H	-0.9494046298	 1.7945185025	-0.3242635645	 0.071959
H	 1.1331886897	 2.8204933114	 0.7014647428	 0.126576
H	 2.0823728133	 1.4124995125	 0.175099032	 0.117332
H	 1.568044104	 2.0146918323	-2.225479062	 0.111368
H	 0.542305322	 3.3395068173	-1.6754399832	 0.121306
H	 3.5676974128	 3.2181120806	-1.0938602598	 0.093539
H	 3.8429729036	 4.8960645191	-2.9454117512	 0.101612
H	 1.7948695151	 6.5273684552	-3.1960079132	 0.114582
H	 0.8330007515	 5.0189455253	-3.2815669258	 0.107717
H	 3.1180005136	 5.5764703368	-0.1545336586	 0.105133
47.9832	62.2747	73.8792	142.2252	230.8013	284.1209	334.0633	441.5959	525.0546	601.5543	738.4111	765.181	795.5402	807.3626	855.3864	918.8849	958.477	972.7409	998.9659	1014.5332	1022.6489	1054.4121	1075.5653	1084.9198	1092.214	1134.3647	1165.5441	1179.1789	1223.1367	1261.0312	1268.729	1310.7274	1323.5914	1346.9582	1378.0484	1429.4849	1449.2253	1462.7846	1484.5123	1518.52	1835.8712	2849.1595	3016.2284	3027.1664	3036.3023	3074.8339	3079.7588	3099.6955	3124.3878	3175.8022	3204.6031
O=CCCC1C2COC12	O=CCC[C@H]1[C@H]2CO[C@@H]12	
InChI=1S/C7H10O2/c8-3-1-2-5-6-4-9-7(5)6/h3,5-7H,1-2,4H2	InChI=1S/C7H10O2/c8-3-1-2-5-6-4-9-7(5)6/h3,5-7H,1-2,4H2/t5-,6+,7-/m0/s1
