14
gdb 13156	4.27759	1.47895	1.23182	2.7962	63.38	-0.2508	-0.0914	0.1594	952.3364	0.1075	-378.712561	-378.704992	-378.704048	-378.745201	26.289	
O	 0.0704959506	-0.1111348948	 0.1443571103	-0.275158
C	-0.0084694894	 1.0887190391	 0.0500569532	 0.278998
C	 1.2096502104	 1.9250997527	-0.0158343764	 0.230041
N	 2.1406500925	 2.6082239494	-0.0792170185	-0.293018
C	-1.3079222311	 1.8621573157	-0.0113982769	-0.074073
C	-1.6612178399	 2.3502469836	-1.4546659995	-0.246619
C	-2.6715198012	 1.1754326046	-1.4744610513	-0.153883
N	-2.5129968512	 1.0295408736	-0.0023159868	-0.308447
H	-1.2687856493	 2.6446516642	 0.7593170425	 0.115288
H	-2.1263961147	 3.3358638139	-1.4495754419	 0.133741
H	-0.8583956543	 2.3346025901	-2.1927753152	 0.127346
H	-3.6928913148	 1.4101393431	-1.7869806732	 0.116549
H	-2.310686051	 0.3173048386	-2.0539237429	 0.113468
H	-2.3400427865	 0.0809176663	 0.3173557966	 0.235765
62.2209	112.8086	134.8392	215.5806	283.0351	318.1483	467.3419	581.0775	687.6238	713.8696	751.8001	804.7204	901.4574	933.7729	988.611	1016.6548	1045.4878	1090.3965	1130.1375	1171.2547	1208.57	1217.8743	1264.6726	1320.9473	1330.9993	1416.6049	1486.4279	1523.2654	1786.6954	2334.6698	3010.6209	3030.0043	3083.9068	3091.5125	3149.4311	3519.828
O=C(C#N)C1CCN1	O=C(C#N)[C@H]1CCN1	
InChI=1S/C5H6N2O/c6-3-5(8)4-1-2-7-4/h4,7H,1-2H2	InChI=1S/C5H6N2O/c6-3-5(8)4-1-2-7-4/h4,7H,1-2H2/t4-/m1/s1
