21
gdb 72269	2.63545	1.81177	1.59503	1.3673	80.5	-0.2448	0.0799	0.3247	962.1522	0.185528	-387.076354	-387.069141	-387.068197	-387.107249	30.999	
O	-0.0302325516	 1.4073581914	-0.0061318646	-0.499128
C	 0.007667286	 0.0109911273	-0.0627755547	 0.448372
C	 0.4060177584	-0.7306014383	-1.3479165605	-0.310519
C	-0.5410585879	-1.8686005516	-0.853498139	-0.028964
C	 0.2444667095	-2.8613497325	 0.0134556689	-0.207937
C	 1.116979977	-2.054650909	 1.0080737191	-0.21494
C	 0.4157510062	-0.7203799745	 1.2881915618	-0.089705
C	-1.100382265	-0.9654058319	 1.5569868371	-0.244076
C	-1.3053812188	-0.804915645	 0.0419964265	-0.060946
H	 0.8629757073	 1.7278444563	 0.1618949181	 0.273111
H	-0.0065237834	-0.2031365113	-2.2130581264	 0.100209
H	 1.4554099875	-0.9782250092	-1.5423838083	 0.081794
H	-1.1445366706	-2.3679871626	-1.6131292596	 0.06407
H	-0.4494765956	-3.5159498298	 0.5518424165	 0.099327
H	 0.8643689952	-3.5116662993	-0.6133271396	 0.092169
H	 1.2686728185	-2.6119841907	 1.9391918562	 0.093056
H	 2.1125474125	-1.8732580799	 0.5873632601	 0.095091
H	 0.9605961624	-0.098243507	 2.0039419226	 0.052913
H	-1.3820439703	-1.9043163924	 2.0442431849	 0.086409
H	-1.5599681689	-0.1329617117	 2.0956407424	 0.105266
H	-2.2499966881	-0.4485322984	-0.3710366417	 0.064428
223.1469	238.3522	283.4157	316.8373	375.4906	418.8077	433.2924	482.62	567.5277	654.4645	670.5	778.3995	801.2341	838.5198	848.5494	893.6147	912.565	945.9673	955.5405	963.7386	1009.6827	1040.6249	1052.836	1060.1617	1085.1352	1103.6097	1139.5804	1156.1109	1170.4819	1194.138	1222.5144	1234.0279	1252.5913	1271.3626	1293.1046	1304.6601	1309.266	1318.9412	1352.2724	1366.0072	1381.6403	1481.1631	1484.4238	1496.198	1513.5039	3029.0101	3035.5822	3039.7877	3046.6962	3060.9393	3064.8256	3079.873	3086.3675	3095.8976	3101.7719	3106.5223	3793.6183
OC12CC3CCC1CC23	O[C@@]12C[C@H]3CC[C@@H]1C[C@@H]23	
InChI=1S/C8H12O/c9-8-4-5-1-2-6(8)3-7(5)8/h5-7,9H,1-4H2	InChI=1S/C8H12O/c9-8-4-5-1-2-6(8)3-7(5)8/h5-7,9H,1-4H2/t5-,6-,7-,8+/m1/s1
