20
gdb 46498	3.67149	1.21105	1.04231	3.2631	80.89	-0.2527	0.0237	0.2764	1195.4376	0.173042	-403.158904	-403.150847	-403.149903	-403.191569	31.698	
N	-0.0541912678	 1.2817541804	-0.3155577204	-0.501357
C	-0.0107051539	 0.0588861349	 0.0103862897	 0.380804
C	-1.2712985479	-0.7706504472	 0.1176784822	-0.264126
C	-1.2055330098	-1.8295342922	 1.2281451691	-0.304941
C	 0.0908318867	-2.5990704507	 1.0857140673	 0.364042
C	 0.25178109	-3.9693738528	 1.684649133	-0.333436
C	 0.141787905	-3.8096184033	 0.1860584646	-0.29992
C	 1.2744611822	-1.6663358735	 1.1218992821	-0.144299
O	 1.1832013903	-0.5929628762	 0.1685575523	-0.255591
H	 0.8962599821	 1.6552713427	-0.3736904104	 0.215535
H	-2.1127807916	-0.0871178917	 0.2387711498	 0.129039
H	-1.400470389	-1.281509092	-0.8457171369	 0.126991
H	-1.2424782278	-1.3444079852	 2.2129228553	 0.105781
H	-2.0711442443	-2.4970548738	 1.1682724721	 0.099806
H	 1.2169092533	-4.2419853657	 2.0999859709	 0.114549
H	-0.5936572569	-4.3887184527	 2.2200131327	 0.116164
H	-0.7782855706	-4.1273657267	-0.2937260182	 0.115457
H	 1.032002189	-3.9717708698	-0.4125192576	 0.118095
H	 1.3759931512	-1.2258174539	 2.124987003	 0.105702
H	 2.2069937698	-2.1853509705	 0.8849570793	 0.111705
73.249	144.9268	177.8843	264.1414	340.3982	366.4526	423.0091	431.6358	497.8838	561.5084	672.2589	744.5088	778.4905	782.4893	864.1391	905.8195	927.4185	929.126	962.7595	984.2131	1001.6572	1025.9117	1047.1249	1056.0267	1080.6805	1093.1173	1127.8758	1183.1063	1188.2234	1226.3441	1258.7997	1303.1991	1340.4472	1345.56	1359.9921	1396.5774	1433.2021	1468.5447	1469.1943	1492.6859	1502.515	1514.3203	1745.9754	2994.8026	3017.4906	3030.7365	3074.6845	3090.4975	3124.1851	3125.8334	3130.0045	3203.4511	3217.5461	3454.2145
N=C1CCC2(CC2)CO1	[NH][C]1CCC2(CC2)CO1	
InChI=1S/C7H11NO/c8-6-1-2-7(3-4-7)5-9-6/h8H,1-5H2	InChI=1S/C7H11NO/c8-6-1-2-7(3-4-7)5-9-6/h8H,1-5H2
