21
gdb 89308	2.68273	1.50476	1.19561	2.2224	78.15	-0.2467	0.0684	0.3151	1115.3508	0.182561	-424.224776	-424.216106	-424.215161	-424.257139	35.247	
C	 0.0013511826	 1.5257065662	 0.0018164587	-0.492842
C	 0.0285470598	 0.0158941164	 0.0370435956	 0.340698
C	 0.980835674	-0.8201677868	-0.8822346999	-0.313346
C	 0.6951193813	-1.9220166352	 0.1612896449	 0.436976
O	 1.5196382672	-3.0349251401	 0.2638873691	-0.501941
C	 0.646434073	-0.7790649762	 1.2265757245	-0.328307
C	-0.7952925169	-2.2026540914	-0.0760598989	 0.060678
O	-1.2699066007	-2.9707422509	 1.0240869532	-0.454322
C	-1.3123155635	-0.7354689323	-0.1570071156	-0.290005
H	 1.0031462187	 1.9454661423	 0.1408376344	 0.113761
H	-0.3854750131	 1.8936339798	-0.9559420613	 0.112354
H	-0.6418717994	 1.9271417487	 0.7936183783	 0.114362
H	 0.6830396459	-0.9982551293	-1.9208855873	 0.084969
H	 2.0155123335	-0.4727503004	-0.8368899602	 0.102205
H	 1.0445952957	-3.6751528996	 0.8086802102	 0.284222
H	 1.6499704027	-0.4341496384	 1.4856423236	 0.094434
H	 0.0397443815	-0.9304246669	 2.1223495887	 0.09705
H	-0.9432096228	-2.7568303113	-1.0129585612	 0.065797
H	-2.1644953428	-3.265460815	 0.8313432365	 0.286972
H	-2.0257256392	-0.526991597	 0.6470396522	 0.096101
H	-1.7891875573	-0.5020822826	-1.1148333656	 0.090183
155.0629	214.8736	230.531	250.5263	260.3592	273.3332	382.242	407.7693	421.7582	450.376	494.5624	544.2358	605.2242	611.9068	704.4995	811.2161	828.1387	878.7579	919.1747	944.8705	986.5006	997.8184	1009.693	1038.1696	1052.6388	1087.2507	1124.7893	1145.9246	1165.8618	1179.0875	1224.2325	1229.6421	1248.2399	1259.2557	1282.0858	1343.151	1348.0382	1397.9769	1415.2842	1429.0645	1479.6249	1485.2411	1493.7589	1494.2549	1529.6906	3005.6584	3020.8972	3038.7452	3045.9373	3065.5759	3082.279	3088.5478	3093.6485	3115.7775	3129.7117	3778.3117	3833.2917
CC12CC(O)(C1)C(O)C2	C[C@@]12C[C@@](O)(C1)[C@@H](O)C2	
InChI=1S/C7H12O2/c1-6-2-5(8)7(9,3-6)4-6/h5,8-9H,2-4H2,1H3	InChI=1S/C7H12O2/c1-6-2-5(8)7(9,3-6)4-6/h5,8-9H,2-4H2,1H3/t5-,6-,7-/m0/s1
