12
gdb 19352	4.59667	1.82514	1.54337	2.7901	55.41	-0.2637	-0.0512	0.2125	781.6903	0.081404	-418.379152	-418.372851	-418.371907	-418.409735	23.478	
O	-0.1587736777	 0.0314852942	 0.0711639252	-0.261919
C	-0.0136771866	 1.2305607658	 0.056154995	 0.056409
C	 1.3020871906	 1.8765122262	-0.0353640131	 0.309339
O	 1.4597549254	 3.2503739324	 0.3342891819	-0.236112
C	 1.7660804481	 2.912443311	-0.9972550215	-0.084988
C	 3.1831112711	 2.209869988	-1.0434649606	-0.007228
O	 3.6901426169	 2.1664589864	 0.2850939881	-0.204986
C	 2.7222089974	 1.1956580541	-0.097810377	-0.066663
H	-0.8651825852	 1.9423907618	 0.0947215038	 0.095843
H	 1.234633659	 3.4050157743	-1.8029147112	 0.133352
H	 3.871890017	 2.1690968177	-1.8769214474	 0.12729
H	 2.939792874	 0.1422380781	 0.0102702867	 0.139663
127.7899	165.6642	241.6111	414.4542	444.707	509.9479	633.41	703.1356	771.8003	792.4616	832.7476	854.0707	893.2331	926.7275	977.6319	994.0171	1033.4045	1041.5146	1163.7541	1195.2172	1230.4302	1271.6131	1353.4312	1377.2929	1435.4161	1798.994	2915.3867	3194.1346	3209.4855	3228.8186
O=CC12OC1C1OC21	O=C[C@]12O[C@H]1[C@H]1O[C@@H]21	
InChI=1S/C5H4O3/c6-1-5-3-2(7-3)4(5)8-5/h1-4H	InChI=1S/C5H4O3/c6-1-5-3-2(7-3)4(5)8-5/h1-4H/t2-,3+,4-,5+/m0/s1
