18
gdb 11834	3.36944	1.79261	1.43558	0.434	68.01	-0.2314	0.0644	0.2958	932.8057	0.15231	-384.907359	-384.899143	-384.898198	-384.940096	30.956	
C	-0.4616067635	 1.3869657724	-0.0163795628	-0.400598
C	 0.0678606921	-0.0322476347	 0.0009409323	 0.108163
O	 1.2912764223	-0.1857274851	-0.7742686168	-0.323121
C	 2.025652513	-0.5764624143	 0.3837425933	 0.418019
C	 3.1653432995	-1.5326076416	 0.3315389628	-0.339592
C	 3.403879486	-0.067741283	 0.6764600923	-0.343833
C	 0.7986530717	-0.5226820916	 1.289138172	-0.015006
O	 0.8410320325	 0.308203367	 2.4188060273	-0.422783
H	 0.2892299976	 2.1018093884	 0.3343070773	 0.106598
H	-0.7399296429	 1.6694901413	-1.0358760164	 0.129781
H	-1.3462108585	 1.473262218	 0.6224168806	 0.127363
H	-0.6960652914	-0.7311171572	-0.3614491024	 0.07987
H	 3.2589797744	-2.2743840371	 1.1183329565	 0.118717
H	 3.4793701068	-1.8671375683	-0.6514501635	 0.126101
H	 3.8740222384	 0.5528301216	-0.0788259252	 0.125079
H	 3.6509919588	 0.1862284166	 1.7028112227	 0.118849
H	 0.4502673562	-1.4948519586	 1.6449805319	 0.100295
H	 1.2935080971	 1.1226998161	 2.1738326779	 0.286098
43.9961	188.1202	201.4972	233.3844	250.0097	302.984	375.3796	400.0528	481.652	550.2725	629.4043	765.4899	796.4796	811.8076	869.5412	888.9682	922.655	968.5822	988.98	1040.5555	1047.5635	1069.2283	1077.3457	1132.9969	1159.6247	1191.153	1223.7313	1238.4284	1285.08	1320.5779	1356.1355	1392.196	1408.4043	1442.8141	1446.9611	1479.9914	1494.9691	1498.9066	3026.0337	3039.8604	3089.3674	3112.0887	3116.9347	3125.3181	3127.9983	3210.1006	3224.0458	3808.5689
CC1OC2(CC2)C1O	C[C@H]1OC2(CC2)[C@H]1O	
InChI=1S/C6H10O2/c1-4-5(7)6(8-4)2-3-6/h4-5,7H,2-3H2,1H3	InChI=1S/C6H10O2/c1-4-5(7)6(8-4)2-3-6/h4-5,7H,2-3H2,1H3/t4-,5+/m1/s1
