16
gdb 127701	5.85653	0.99445	0.91021	3.0997	73.27	-0.2436	-0.0263	0.2173	1275.5515	0.126537	-430.210278	-430.202343	-430.201399	-430.243668	28.025	
C	 0.2282642342	 1.4160854445	-0.0449933274	-0.318661
N	 0.0043420332	-0.013355851	 0.0345591076	 0.151071
N	-0.4104256194	-0.731612417	-0.998637814	-0.119622
N	-0.4964944864	-1.9654199618	-0.5716487592	-0.285708
C	-0.1237797936	-1.9473104899	 0.7338852172	 0.413753
N	 0.2029352466	-0.7236008953	 1.1412376042	-0.322847
C	-0.0734735347	-3.1487956101	 1.5807209092	-0.09157
C	-1.1365171963	-4.1853988896	 1.4301014614	-0.231587
N	 0.2215879333	-4.4501395139	 0.9518434987	-0.316545
H	 1.2716015581	 1.639766185	 0.1870181514	 0.163914
H	-0.0068274554	 1.7249367792	-1.0625864289	 0.173665
H	-0.4199468204	 1.9318399835	 0.6665059012	 0.163171
H	 0.3867741811	-2.991593621	 2.5506008532	 0.110786
H	-1.4415680987	-4.760009691	 2.3000443689	 0.124805
H	-1.916665049	-3.9881818156	 0.700652001	 0.134112
H	 0.2521743472	-4.318068956	-0.0579197445	 0.251262
57.5644	99.9924	148.1982	167.6064	244.088	322.7464	446.1392	464.9851	666.4794	695.5711	750.5512	791.7769	831.7723	893.983	975.5994	1003.9457	1043.0343	1046.3157	1091.0351	1117.4118	1139.5096	1151.9614	1180.9705	1252.2187	1273.8731	1306.4797	1309.2062	1369.3882	1412.7036	1430.7531	1450.3806	1476.0724	1500.5674	1507.3673	1559.3982	3066.185	3113.5172	3139.3212	3168.8	3178.7424	3206.5099	3490.4183
CN1N=NC(=N1)C1CN1	Cn1nnc(n1)[C@H]1CN1	
InChI=1S/C4H7N5/c1-9-7-4(6-8-9)3-2-5-3/h3,5H,2H2,1H3	InChI=1S/C4H7N5/c1-9-7-4(6-8-9)3-2-5-3/h3,5H,2H2,1H3/t3-/m1/s1
