19
gdb 38878	2.71681	2.14051	1.91437	0.9764	71.81	-0.2373	0.0881	0.3254	836.7853	0.164825	-423.027441	-423.021696	-423.020752	-423.057129	25.903	
C	-0.0322642867	 1.544596799	 0.0086432843	-0.193625
C	 1.5026718856	 1.7758804737	-0.0334905338	-0.078818
C	 1.8447660621	 1.7414144019	-1.5286802009	-0.093617
O	 1.1533126789	 0.6280603172	-2.1130602334	-0.275378
C	 1.0055170599	-0.4248370337	-1.1567701895	 0.082657
C	 2.3432612313	-0.5895518336	-0.406348863	-0.222068
C	 2.0311036069	 0.4528861331	 0.6814417458	 0.066125
O	 0.8453195247	-0.1553866926	 1.2166646531	-0.267303
C	 0.0407435664	 0.0145993735	 0.0369979342	 0.052911
H	-0.5021124196	 1.9014950443	 0.9265938057	 0.102617
H	-0.5410842365	 1.9699883925	-0.8576803903	 0.107271
H	 1.8492025979	 2.69102715	 0.4478510028	 0.07333
H	 1.4804861939	 2.6390642335	-2.0388327295	 0.106804
H	 2.9265217994	 1.6702451189	-1.7110958211	 0.091961
H	 0.6536732778	-1.2956557727	-1.7090386616	 0.082198
H	 2.4590645487	-1.5684869419	 0.0619304357	 0.107199
H	 3.1967912855	-0.3982593202	-1.0587811097	 0.105607
H	 2.7677753544	 0.6007413561	 1.4702728055	 0.076641
H	-0.8898884806	-0.5433339392	 0.1339601559	 0.075489
319.5299	356.7658	433.6378	482.7269	524.3523	576.91	611.7643	654.7774	756.6902	770.8456	849.3083	861.2928	894.5054	899.8517	926.2329	940.5789	959.9163	976.0485	985.1802	1004.4276	1042.4274	1066.9848	1076.2947	1082.6818	1137.9309	1159.8347	1182.5574	1230.0425	1242.0529	1257.0416	1280.9796	1289.8884	1313.6636	1314.6154	1321.5134	1337.8836	1355.0659	1397.2301	1483.5783	1486.9751	1531.7114	2998.314	3067.269	3079.03	3080.2085	3104.7019	3116.5168	3126.3945	3132.4147	3132.7844	3135.8146
C1C2COC3CC2OC13	C1[C@@H]2CO[C@H]3C[C@@H]2O[C@@H]13	
InChI=1S/C7H10O2/c1-4-3-8-6-2-5(4)9-7(1)6/h4-7H,1-3H2	InChI=1S/C7H10O2/c1-4-3-8-6-2-5(4)9-7(1)6/h4-7H,1-3H2/t4-,5+,6+,7+/m1/s1
