23
gdb 100790	3.06433	0.96549	0.82483	0.7219	82.43	-0.251	0.0859	0.3369	1490.2522	0.203139	-425.396117	-425.385443	-425.384499	-425.432355	38.588	
C	 0.0129752673	 1.3870221463	 0.0460353222	-0.238923
O	 0.0580535743	-0.0197063926	 0.0178111127	-0.247688
C	 0.7526691327	-0.6199021885	 1.1086479288	 0.157143
C	-0.1457966152	-0.6862831493	 2.3472650425	-0.42213
C	 1.2286588912	-2.0012102034	 0.6010211705	-0.02263
C	 2.1944199943	-1.8381979518	-0.578664874	-0.42328
C	 1.8047954566	-2.8226993357	 1.7418238793	 0.080108
C	 3.0081172112	-3.6597810785	 1.6490350459	-0.187411
O	 3.0536046974	-2.3878597171	 2.2989221076	-0.243338
H	 1.022550955	 1.8263035769	 0.0661843061	 0.105615
H	-0.4930771833	 1.7104780874	-0.8673631671	 0.125555
H	-0.5475398171	 1.7785790286	 0.907795625	 0.105417
H	 1.6454568755	-0.0178730375	 1.3444533138	 0.077108
H	-0.9876283072	-1.366466925	 2.1795827762	 0.117875
H	 0.4108672508	-1.0218959179	 3.2261907563	 0.130979
H	-0.5533304403	 0.3014494855	 2.579844217	 0.116032
H	 0.3276026954	-2.526843927	 0.2540364394	 0.082884
H	 2.3665764632	-2.7893595008	-1.0903370941	 0.108159
H	 1.7767909702	-1.1348795272	-1.3003163552	 0.131565
H	 3.1594310602	-1.4526369885	-0.233672627	 0.126842
H	 1.0794020104	-3.1152079828	 2.5017204858	 0.092635
H	 3.107704221	-4.5225842911	 2.3069934874	 0.111007
H	 3.5622941764	-3.7255019801	 0.716048061	 0.116478
51.2979	66.6027	87.2465	169.7729	199.8179	228.2465	247.4757	278.3137	296.7143	316.9088	376.1446	393.8233	478.8169	517.3482	609.1021	767.7928	833.6969	854.6702	893.7586	945.952	982.4028	988.8426	1048.8765	1065.9879	1106.6348	1113.9253	1138.0827	1152.8895	1166.785	1182.4181	1186.2188	1195.0031	1224.6473	1294.1262	1303.371	1352.4237	1374.7217	1378.155	1392.8956	1406.6581	1439.5802	1478.8003	1486.4711	1493.1123	1503.3529	1505.1887	1511.1595	1513.428	1532.6584	2970.2617	2979.0716	3013.8003	3023.7891	3040.9184	3044.0237	3088.4534	3102.6629	3108.123	3109.6883	3111.1312	3121.3897	3142.161	3179.9182
COC(C)C(C)C1CO1	CO[C@@H](C)[C@@H](C)[C@H]1CO1	
InChI=1S/C7H14O2/c1-5(6(2)8-3)7-4-9-7/h5-7H,4H2,1-3H3	InChI=1S/C7H14O2/c1-5(6(2)8-3)7-4-9-7/h5-7H,4H2,1-3H3/t5-,6+,7-/m1/s1
