17
gdb 31656	3.64714	1.14418	0.88062	1.7199	72.6	-0.1785	0.0534	0.2319	1291.8217	0.135658	-455.176298	-455.166952	-455.166008	-455.211146	32.825	
C	 0.0013046664	 1.416978102	-0.0684805166	-0.229769
O	 0.0070477513	-0.003526343	-0.0204577668	-0.27502
C	 0.59242426	-0.6297583792	-1.0611211318	 0.37617
C	 0.7065995407	-1.9837078016	-1.2133195036	-0.276247
N	 1.3803464152	-2.1473578978	-2.4341704802	-0.052476
C	 1.7512792013	-3.3992557865	-3.0579086656	-0.344165
C	 1.6084481485	-0.9035227987	-2.9009678153	 0.450698
O	 2.2477390568	-0.7241120919	-4.0730586323	-0.430773
N	 1.1569260869	 0.0486933114	-2.1176070804	-0.46884
H	 1.0192148295	 1.820511669	-0.093443362	 0.125401
H	-0.5376268114	 1.785329223	-0.94795441	 0.125402
H	-0.5055304573	 1.7434411351	 0.8414847459	 0.12181
H	 0.3957033629	-2.8188998152	-0.6125385997	 0.122443
H	 0.8643095356	-4.0067918836	-3.2654514532	 0.140054
H	 2.2609715692	-3.1854357706	-3.9974244625	 0.161937
H	 2.4248000027	-3.9704633987	-2.4106066216	 0.140049
H	 2.2988614417	 0.2301971662	-4.2056821942	 0.313325
50.164	72.8624	140.7279	169.6092	203.973	258.2716	282.8426	346.2461	378.5204	404.9146	556.5498	596.1117	636.7508	672.3794	684.2114	727.8219	847.3815	1000.7727	1067.3327	1085.4009	1154.7626	1173.1952	1179.3467	1206.7743	1213.034	1291.7879	1360.7021	1379.3703	1454.9184	1477.7285	1479.6974	1488.03	1503.6605	1511.3404	1588.8735	1610.298	1644.7283	3027.1412	3036.2425	3090.6985	3091.4001	3134.5223	3156.4479	3295.0409	3814.3402
COC1=CN(C)C(O)=N1	COc1cn(C)c(O)n1	
InChI=1S/C5H8N2O2/c1-7-3-4(9-2)6-5(7)8/h3H,1-2H3,(H,6,8)	InChI=1S/C5H8N2O2/c1-7-3-4(9-2)6-5(7)8/h3H,1-2H3,(H,6,8)
