20
gdb 55819	3.46567	1.048	1.00017	3.3666	79.66	-0.2355	0.0343	0.2698	1298.1132	0.170801	-403.152904	-403.143702	-403.142758	-403.188584	33.498	
C	-0.2072769945	 1.4256941067	-0.0280439749	-0.490423
C	-0.3312666678	-0.062137416	-0.328235325	 0.401303
O	 0.1768449141	-0.5794696128	-1.3041157471	-0.365168
N	-1.0467874285	-0.7788795073	 0.5956927811	-0.322378
C	-1.1450477713	-2.2073431544	 0.5380248257	 0.053139
C	-2.3269355806	-2.9365529298	 1.1045707419	-0.123366
C	-3.6266380111	-2.1497055627	 0.8833484135	-0.229316
C	-3.3431841911	-2.1315682999	-0.6528144063	-0.222859
C	-2.0569891101	-2.9264633101	-0.4124012584	-0.045594
H	-0.2083899821	 1.9732291067	-0.9716412265	 0.1517
H	-1.0068802035	 1.8041545358	 0.6149265566	 0.114887
H	 0.7515374979	 1.6153573224	 0.4659981728	 0.147651
H	-1.3490039033	-0.3164731696	 1.4379619209	 0.243904
H	-0.1979305429	-2.7244482332	 0.6800204884	 0.103887
H	-2.1957039568	-3.733429506	 1.8275407205	 0.087335
H	-4.5117271682	-2.7387791386	 1.1317561398	 0.10745
H	-3.7075100217	-1.1805314174	 1.3868889671	 0.084377
H	-4.0896656535	-2.6954283607	-1.2152317335	 0.10512
H	-3.2132140344	-1.1524633468	-1.1217477714	 0.106811
H	-1.6708919206	-3.7114570763	-1.0504698051	 0.09154
28.0325	50.7972	86.7208	134.6	242.8607	258.41	376.0942	410.7856	441.4139	558.8363	628.5516	658.4337	741.8937	763.3891	791.1131	808.7179	924.429	942.2535	958.5622	976.3525	985.3439	1021.6602	1032.2598	1047.0159	1051.0541	1085.5254	1121.2709	1148.2406	1221.7658	1226.998	1246.5782	1262.3955	1269.9777	1304.0741	1352.938	1390.5452	1437.383	1467.7876	1478.0377	1486.2339	1500.1655	1512.7319	1788.5494	3043.1376	3044.7321	3064.0924	3100.8349	3111.3746	3121.314	3123.0672	3146.9697	3172.7767	3193.2951	3630.7863
CC(=O)NC1C2CCC12	CC(=O)N[C@H]1[C@H]2CC[C@@H]12	
InChI=1S/C7H11NO/c1-4(9)8-7-5-2-3-6(5)7/h5-7H,2-3H2,1H3,(H,8,9)	InChI=1S/C7H11NO/c1-4(9)8-7-5-2-3-6(5)7/h5-7H,2-3H2,1H3,(H,8,9)/t5-,6+,7-
