17
gdb 24594	5.11404	1.09589	0.93351	3.4207	76.63	-0.1931	0.0219	0.2151	1226.5437	0.138309	-418.011984	-418.004446	-418.003501	-418.044909	27.757	
C	-0.1259086688	 1.5660603284	 0.0407979892	-0.233566
C	 1.3723775115	 1.5065593488	-0.3576790767	-0.171246
N	 1.4565271409	 0.1908789946	 0.3142053647	-0.172944
C	-0.0079213136	 0.0636849773	 0.4075370299	-0.169447
C	 2.253370314	-0.8367096251	-0.111409154	 0.395278
C	 2.1185585688	-2.1909225776	-0.1969929245	-0.221943
N	 3.3210016217	-2.7283857963	-0.6544946305	-0.247306
C	 4.090512027	-1.7123153463	-0.8260473081	 0.058885
O	 3.5149222	-0.5094641379	-0.5136921401	-0.188709
H	-0.3176745495	 2.2058861818	 0.903219644	 0.12143
H	-0.8270106663	 1.8142832077	-0.7554171329	 0.117482
H	 1.5370230476	 1.4465456595	-1.4412768525	 0.111103
H	 2.0375051953	 2.2659736865	 0.0615760792	 0.120687
H	-0.3709517123	-0.2481546881	 1.3914270135	 0.117967
H	-0.4262592184	-0.6068598784	-0.3567018629	 0.107718
H	 1.2688427243	-2.8068369147	 0.043690253	 0.111488
H	 5.1061944577	-1.6765069602	-1.1844072912	 0.143123
61.0978	97.8007	155.0416	185.9377	341.271	451.3011	489.2374	658.5575	702.7424	743.847	770.7441	776.2094	847.0669	876.5583	928.8959	942.8915	945.0487	986.0481	1075.1285	1089.8363	1118.5544	1124.2066	1140.1184	1151.4304	1207.9015	1223.1655	1257.6652	1269.8694	1299.1851	1318.4287	1349.7989	1390.9954	1489.4538	1508.9135	1531.8109	1570.6151	1647.979	3000.4833	3020.2173	3073.3349	3085.7581	3094.5216	3149.6674	3275.9891	3285.4937
C1CN(C1)C1=CN=CO1	C1CN(C1)c1cnco1	
InChI=1S/C6H8N2O/c1-2-8(3-1)6-4-7-5-9-6/h4-5H,1-3H2	InChI=1S/C6H8N2O/c1-2-8(3-1)6-4-7-5-9-6/h4-5H,1-3H2
