16
gdb 84339	3.05556	1.34656	1.03363	3.3821	77.84	-0.2182	-0.0091	0.2092	1151.1295	0.123132	-400.753369	-400.744644	-400.7437	-400.787044	31.779	
C	-0.0630271632	 1.4907452005	-0.003081041	-0.353238
N	-0.0060814076	 0.0458477272	-0.0389759325	-0.085381
C	 0.031950111	-0.7476604439	-1.1965880047	-0.018654
C	 0.1037898568	-2.0497609614	-0.9152918183	-0.160347
C	 0.1151127941	-2.2129766267	 0.592300788	-0.338225
C	 1.2536512569	-2.9499811585	 1.1203440254	 0.347835
C	 2.1989518264	-3.5618921044	 1.5381050996	-0.471393
C	 0.0637953088	-0.7380678046	 1.0980256348	 0.408451
O	 0.0623250998	-0.3419657807	 2.2383418257	-0.371113
H	 0.803263637	 1.9352933753	-0.5055687908	 0.134913
H	-0.9769975395	 1.8644363342	-0.477627646	 0.133422
H	-0.0579260814	 1.7865609669	 1.0472130161	 0.172218
H	-0.0028135204	-0.2601955919	-2.1611636166	 0.132594
H	 0.1588568163	-2.8645459093	-1.6189408909	 0.122211
H	-0.8137462256	-2.6875624873	 0.9420507129	 0.146399
H	 3.0325182807	-4.0981243554	 1.9188753984	 0.200309
70.2153	118.2869	122.5302	172.8925	225.7549	298.8954	388.866	406.8666	499.8584	546.8753	610.8416	629.9629	637.1964	690.4701	723.9907	747.7308	873.6694	911.0354	965.1058	990.2617	1048.611	1094.9998	1142.4125	1154.7782	1199.5027	1263.1547	1299.4989	1331.9558	1407.7334	1456.2455	1494.6869	1511.0736	1675.286	1827.9321	2243.039	3003.3173	3027.2232	3082.6406	3147.1747	3231.1433	3270.2264	3504.77
CN1C=CC(C#C)C1=O	CN1C=C[C@@H](C#C)C1=O	
InChI=1S/C7H7NO/c1-3-6-4-5-8(2)7(6)9/h1,4-6H,2H3	InChI=1S/C7H7NO/c1-3-6-4-5-8(2)7(6)9/h1,4-6H,2H3/t6-/m1/s1
