19
gdb 43626	4.26137	0.93386	0.92431	4.0221	75.86	-0.2383	-0.0127	0.2255	1325.5322	0.158676	-423.015348	-423.006951	-423.006006	-423.049282	31.118	
O	 0.1450599985	 0.0793866966	-0.1938986724	-0.291921
C	 0.0731013377	 1.2546199085	 0.0176021218	 0.400701
C	-1.0917441839	 2.2491209503	 0.1174040087	-0.35891
C	-0.1115074556	 3.2236432492	 0.8501710436	-0.017216
C	 1.0943507291	 2.3262849611	 0.4255689372	-0.358167
C	-0.1238941407	 4.662003429	 0.3786110976	 0.135068
C	 1.0791654679	 5.5771196026	 0.7058858867	-0.296339
C	 1.1502093855	 5.7831640394	-0.8189881084	-0.060723
O	 0.1317034384	 4.7823599871	-1.0437341508	-0.293538
H	-1.3681618469	 2.6260130603	-0.8735224527	 0.150359
H	-1.9896935406	 1.9093548702	 0.638214616	 0.124615
H	-0.2663529248	 3.2015859044	 1.9335984301	 0.083867
H	 1.8382336505	 2.0407734823	 1.1724434763	 0.12202
H	 1.5983548	 2.7276033176	-0.4605474522	 0.141154
H	-1.0923870467	 5.1200489132	 0.6295833669	 0.076563
H	 0.8694476874	 6.4592668654	 1.3118421726	 0.112455
H	 1.9346278557	 5.0439572304	 1.1257852835	 0.115584
H	 0.8256639371	 6.7724565054	-1.1656680037	 0.105583
H	 2.0933393514	 5.5250267771	-1.3128925507	 0.108848
65.461	91.2428	92.0486	179.6513	232.9643	359.56	423.8906	487.7193	568.1474	623.9869	675.8928	718.1913	777.1465	834.0644	892.062	916.201	941.6979	947.7205	988.4032	990.078	1026.8808	1071.6108	1085.8787	1126.7106	1139.7648	1170.6845	1192.5819	1197.5403	1216.1696	1235.2197	1246.7251	1262.3642	1283.1997	1344.2639	1378.2101	1382.2545	1421.1983	1445.3568	1490.321	1531.43	1895.4516	2987.2673	3018.8039	3052.6112	3057.2669	3061.9763	3064.218	3079.7598	3120.9017	3121.3081	3136.5465
O=C1CC(C1)C1CCO1	O=C1CC(C1)[C@H]1CCO1	
InChI=1S/C7H10O2/c8-6-3-5(4-6)7-1-2-9-7/h5,7H,1-4H2	InChI=1S/C7H10O2/c8-6-3-5(4-6)7-1-2-9-7/h5,7H,1-4H2/t7-/m1/s1
