19
gdb 116414	2.11064	1.65911	1.14673	2.9136	71.61	-0.2361	-0.0232	0.2128	1134.2067	0.158887	-460.175413	-460.16637	-460.165426	-460.209859	32.482	
C	 0.6821293058	 1.1140941938	 0.292316332	-0.244756
O	 0.6965524927	-0.2761260814	-0.0000624677	-0.24672
C	 0.4025604142	-0.5732279225	-1.3383370494	 0.101272
O	 1.4181029135	-0.2063257681	-2.2354465043	-0.269123
C	 2.6997982403	-0.8210688844	-2.0289039703	-0.062844
C	 2.6260558095	-2.1794501522	-1.3199910656	-0.249681
C	 1.3541949277	-2.928450726	-1.733444836	-0.307899
C	 0.1277811231	-2.0902827646	-1.4096460315	 0.395879
O	-0.9811528412	-2.5345098127	-1.2556494694	-0.307426
H	 1.4105896695	 1.6614548706	-0.3173453882	 0.125532
H	-0.3156589874	 1.541694308	 0.1207833598	 0.11802
H	 0.9394776947	 1.2185832808	 1.3480780242	 0.132053
H	-0.4915235948	-0.0327228349	-1.6766179886	 0.096289
H	 3.120047811	-0.936594067	-3.0339314546	 0.112263
H	 3.3493293036	-0.1336087438	-1.4729487897	 0.10396
H	 3.5208605778	-2.7602203533	-1.5634970171	 0.106277
H	 2.6169198297	-2.0320199258	-0.2366920432	 0.130569
H	 1.3481840862	-3.1107325705	-2.8172436967	 0.134847
H	 1.2550399041	-3.9022755058	-1.2470814936	 0.131488
54.9768	90.2447	131.6263	178.483	183.4468	250.2782	313.5846	391.2449	436.585	495.1622	536.1174	619.0314	697.6232	795.0111	856.6919	886.8559	913.8794	972.6728	992.7203	1047.2913	1090.307	1099.3957	1138.1739	1177.7793	1184.258	1202.0752	1226.4439	1254.8288	1287.8601	1338.7913	1348.2452	1372.4125	1383.6845	1416.5143	1451.1704	1473.0776	1485.0178	1492.1557	1509.0738	1517.0071	1840.4379	3003.4723	3021.8889	3024.024	3030.5385	3058.4542	3064.1247	3068.8556	3100.803	3108.1536	3130.7523
COC1OCCCC1=O	CO[C@H]1OCCCC1=O	
InChI=1S/C6H10O3/c1-8-6-5(7)3-2-4-9-6/h6H,2-4H2,1H3	InChI=1S/C6H10O3/c1-8-6-5(7)3-2-4-9-6/h6H,2-4H2,1H3/t6-/m0/s1
