19
gdb 51815	4.0878	0.9099	0.783	3.3664	77.98	-0.2417	-0.0191	0.2226	1435.1024	0.15865	-423.041799	-423.033079	-423.032134	-423.07618	31.842	
O	-0.4871291866	 0.624455204	 0.8470699612	-0.243835
C	 0.0797148909	 0.9605040612	-0.1617378823	 0.151269
C	 1.373760497	 1.7463514752	-0.1916304037	-0.297208
C	 1.3627095913	 2.8672692259	-1.232076457	 0.110215
C	 2.5878868801	 3.784511865	-1.1403197408	-0.258575
C	 2.6861985165	 4.6441950676	-2.3733619959	-0.069284
C	 1.9958787377	 4.3638620868	-3.4755377761	-0.064141
C	 1.1181137444	 3.1480408143	-3.5748969064	-0.119456
O	 1.3104335322	 2.2366277605	-2.50747488	-0.265287
H	-0.3230421758	 0.7038894216	-1.1650124353	 0.092917
H	 1.5743835116	 2.1341337029	 0.8109750122	 0.12015
H	 2.1826560302	 1.0527485098	-0.4612254688	 0.132539
H	 0.4579567126	 3.4863145039	-1.0987897857	 0.075911
H	 2.509977039	 4.4114507481	-0.2430737072	 0.110102
H	 3.4983457169	 3.1810027677	-1.0161429685	 0.11407
H	 3.3351188204	 5.5146773543	-2.3335034738	 0.09404
H	 2.0407303873	 5.0049989761	-4.3516570873	 0.094945
H	 0.056572765	 3.4509174865	-3.6375732367	 0.100905
H	 1.3394430592	 2.5879002286	-4.4911594078	 0.120725
53.1587	77.0138	117.4055	182.3125	224.4443	337.9729	380.5882	410.9955	472.7794	531.4278	550.2215	668.7138	770.8434	810.8954	873.2998	922.5436	937.0111	959.2694	996.3482	1029.2253	1036.543	1062.772	1113.7594	1115.233	1125.9016	1198.9959	1207.8629	1243.1069	1276.6125	1282.2859	1336.6848	1372.9877	1395.2591	1405.6154	1411.2238	1422.8871	1442.3178	1469.6886	1489.4036	1727.6986	1830.724	2908.1825	2937.099	2948.0529	3008.2618	3024.2416	3049.113	3051.7386	3104.9898	3155.4827	3178.1893
O=CCC1CC=CCO1	O=CC[C@H]1CC=CCO1	
InChI=1S/C7H10O2/c8-5-4-7-3-1-2-6-9-7/h1-2,5,7H,3-4,6H2	InChI=1S/C7H10O2/c8-5-4-7-3-1-2-6-9-7/h1-2,5,7H,3-4,6H2/t7-/m1/s1
