14
gdb 9202	6.24465	0.89297	0.84357	4.252	60.17	-0.2692	0.002	0.2712	1293.1131	0.105594	-415.882939	-415.873898	-415.872954	-415.918453	29.699	
O	 0.0260908291	 1.3546250979	 0.134230326	-0.386852
C	-0.0136778327	-0.0441208656	 0.0381905848	-0.185754
C	-1.4687450071	-0.5013799018	 0.1722049648	 0.421211
O	-2.3156246133	 0.1228330355	 0.7700753509	-0.337133
N	-1.7175845098	-1.7152361378	-0.4239111523	-0.328173
C	-2.9994889626	-2.3696755068	-0.2682068598	-0.28
C	-2.8848719706	-3.6774966319	 0.3901260566	 0.253694
N	-2.7778993216	-4.7162832171	 0.8839750165	-0.297443
H	 0.9342820757	 1.6192013235	 0.3049379413	 0.297638
H	 0.4033909744	-0.4104699896	-0.9152010785	 0.095932
H	 0.5469645974	-0.5388352495	 0.8483453419	 0.126034
H	-0.9819460293	-2.2007400581	-0.9111675521	 0.259961
H	-3.6150526951	-1.6974043438	 0.3381220901	 0.200358
H	-3.5032756243	-2.5064025451	-1.23264742	 0.160528
28.6009	54.7323	75.3124	165.84	219.9892	237.6888	323.4235	370.9245	399.7161	420.9051	587.4467	604.0172	709.415	879.168	931.002	1017.2277	1041.9069	1079.8653	1145.9102	1205.7503	1228.6305	1267.7875	1289.6748	1371.6547	1454.0351	1469.9492	1499.3269	1528.775	1812.5928	2364.1017	2956.2211	2988.8497	3037.5282	3096.8004	3643.6628	3842.0066
OCC(=O)NCC#N	OCC(=O)NCC#N	
InChI=1S/C4H6N2O2/c5-1-2-6-4(8)3-7/h7H,2-3H2,(H,6,8)	InChI=1S/C4H6N2O2/c5-1-2-6-4(8)3-7/h7H,2-3H2,(H,6,8)
