21
gdb 38691	2.43724	2.12078	2.0269	1.3833	79.33	-0.2355	0.0798	0.3153	875.1404	0.189239	-387.122455	-387.116521	-387.115577	-387.152231	27.201	
C	-0.0165786186	 1.5622019015	-0.0044960867	-0.219982
C	 1.4960350171	 1.8278246503	-0.0015188819	 0.125079
C	 1.9187564664	 0.9839581495	-1.2130302779	-0.219982
C	 1.3161811728	-0.3770085478	-0.794033662	-0.032483
C	 2.2776750278	-0.9358058924	 0.28028151	-0.219982
C	 1.8505136383	-0.0681659867	 1.4733037812	 0.125079
C	 0.3423455933	-0.3575540363	 1.4888228387	-0.219982
C	-0.0004668328	 0.0163856163	 0.0281595345	-0.032484
O	 2.0978209808	 1.3230700131	 1.2036676655	-0.301906
H	-0.5351047568	 1.9976431911	 0.8529440172	 0.09468
H	-0.4661575444	 1.9650845852	-0.9178811386	 0.089674
H	 1.7807913783	 2.8809911231	-0.049414539	 0.068929
H	 1.4686236334	 1.3870023783	-2.1260696678	 0.089674
H	 3.0011639098	 0.9410659965	-1.3552901386	 0.09468
H	 1.129002024	-1.0583070034	-1.6249083101	 0.060685
H	 2.1005411148	-1.9930059515	 0.5031226367	 0.089674
H	 3.3293939195	-0.8145660659	 0.0103354537	 0.09468
H	 2.3717516359	-0.2798360939	 2.4092773313	 0.068929
H	 0.1657674403	-1.4149185247	 1.7113224104	 0.089674
H	-0.2068593847	 0.2420262609	 2.218590462	 0.09468
H	-0.9113085353	-0.4487009029	-0.3508099386	 0.060685
297.222	383.64	414.7262	465.9667	511.7016	532.642	537.0129	714.374	792.0678	799.0826	830.3549	835.2062	857.7684	866.9095	900.6711	915.1038	923.4236	958.0937	973.9489	992.611	1000.9865	1029.7719	1036.9801	1048.5603	1113.2974	1137.7633	1142.8316	1172.7474	1198.081	1219.4633	1245.3494	1252.8843	1267.4486	1300.6501	1301.3481	1329.415	1330.2667	1348.4938	1351.6427	1355.5838	1399.4003	1473.9626	1497.0824	1498.0453	1520.4445	3044.4798	3045.3513	3052.7304	3053.8654	3090.2173	3092.4213	3094.4379	3095.5016	3101.8461	3105.0878	3106.042	3109.1202
C1C2CC3CC(CC13)O2	C1[C@@H]2C[C@H]3C[C@H](C[C@@H]13)O2	
InChI=1S/C8H12O/c1-5-2-8-4-6(5)3-7(1)9-8/h5-8H,1-4H2	InChI=1S/C8H12O/c1-5-2-8-4-6(5)3-7(1)9-8/h5-8H,1-4H2/t5-,6+,7-,8+
