21
gdb 88446	2.4995	1.175	1.11698	2.8966	78.54	-0.2468	0.0735	0.3203	1247.594	0.179748	-424.189205	-424.179252	-424.178308	-424.22417	37.166	
C	-1.8361124495	 0.2121737814	 1.7805799816	-0.421701
C	-0.8726570123	-0.6914563941	 1.0557226796	 0.081284
O	-0.0252766344	-0.094147769	 0.0694162941	-0.264224
C	 0.591607946	-0.6591309057	 1.2350490835	-0.017098
C	 1.3179994282	 0.2975197144	 2.1566071836	 0.273537
C	 1.5860229603	 1.6792751471	 1.588853946	-0.4495
C	 1.0827093545	 0.1657282201	 3.6569076578	-0.361699
C	 2.3769876764	-0.3039649104	 3.0458071581	 0.050675
O	 2.6160239028	-1.675297482	 2.9100958861	-0.417306
H	-1.3429509653	 1.1102254541	 2.1567435676	 0.132079
H	-2.6466161801	 0.5177463027	 1.1103886924	 0.126404
H	-2.2865122532	-0.3154303212	 2.6285952002	 0.116805
H	-1.3030498852	-1.6424006346	 0.7324453021	 0.083467
H	 1.1319990255	-1.5834763499	 1.0379228614	 0.10825
H	 0.655720713	 2.2066182551	 1.3621141509	 0.12803
H	 2.1573311522	 2.284255719	 2.2999454954	 0.104699
H	 2.1572279419	 1.6145694526	 0.6574772888	 0.129429
H	 1.0819651317	 1.0650256782	 4.2646764582	 0.109454
H	 0.394250016	-0.6075647354	 3.9828233355	 0.111401
H	 3.2713788535	 0.2946707202	 3.2203831459	 0.085823
H	 2.7425231579	-2.0467570625	 3.7889912012	 0.290194
34.2587	150.4305	177.062	186.7336	197.9782	232.7984	256.4493	285.9495	339.8896	392.4112	446.6339	458.6122	512.9694	579.1906	714.1796	786.7338	815.2913	856.0737	886.9294	934.6286	958.4639	985.9162	1032.5267	1042.3442	1054.0188	1086.892	1109.6278	1130.3602	1164.3114	1172.7942	1184.9489	1266.5815	1284.934	1303.2949	1333.0543	1393.2943	1417.2332	1418.7614	1422.149	1459.6703	1479.7567	1486.4373	1488.3576	1500.3447	1504.6678	3037.5091	3038.2951	3076.014	3094.2114	3096.7985	3106.3623	3112.832	3122.8085	3126.2221	3139.2516	3212.8941	3811.2533
CC1OC1C1(C)CC1O	C[C@H]1O[C@H]1[C@@]1(C)C[C@H]1O	
InChI=1S/C7H12O2/c1-4-6(9-4)7(2)3-5(7)8/h4-6,8H,3H2,1-2H3	InChI=1S/C7H12O2/c1-4-6(9-4)7(2)3-5(7)8/h4-6,8H,3H2,1-2H3/t4-,5-,6-,7+/m1/s1
