17
gdb 43020	2.67334	2.04454	1.33925	4.5847	72.	-0.2454	0.02	0.2655	942.7085	0.138944	-417.994445	-417.987644	-417.9867	-418.025461	27.358	
O	 0.0082792485	-0.0590719497	 0.369642348	-0.353804
C	-0.0106376353	 1.1353553559	 0.1984891907	 0.34482
N	-1.1813950887	 1.9044017874	 0.0580332985	-0.090407
C	-2.1525018716	 1.9485292696	 1.1390074427	-0.245837
C	-1.2611810661	 3.1223002883	 0.8629730736	-0.004966
C	-0.0201262988	 3.3843079064	 1.7113857415	-0.283645
C	 1.2030299631	 3.1563001493	 0.8278867726	-0.004966
C	 2.1338851247	 2.0076704912	 1.0779765801	-0.245837
N	 1.1339882151	 1.936348114	 0.0250665394	-0.090406
H	-3.1935239488	 1.9711530837	 0.8304630386	 0.129699
H	-1.9468076975	 1.3458579674	 2.0203922632	 0.134042
H	-1.6782416193	 3.9801219916	 0.3397364528	 0.104717
H	-0.0282038787	 4.3958050642	 2.1242538732	 0.118373
H	 0.0015274327	 2.6865605761	 2.5560439952	 0.119758
H	 1.5812059729	 4.0250941311	 0.2933270487	 0.104717
H	 3.1646820048	 2.058879273	 0.7399323801	 0.129699
H	 1.9700657281	 1.3999006505	 1.9646225213	 0.134042
137.4481	223.3973	248.4701	376.911	399.3453	461.5895	501.89	546.804	601.6076	737.2995	801.8113	813.4815	860.8485	895.0861	926.5008	950.7457	957.55	1004.8458	1041.7623	1085.6699	1117.1579	1127.0129	1142.8389	1144.1101	1157.1581	1161.7942	1179.7146	1243.797	1306.6575	1324.0097	1350.0897	1394.3332	1410.5051	1482.141	1508.8247	1515.562	1812.7665	3046.4993	3103.275	3110.8484	3111.6394	3128.6607	3135.7113	3200.2872	3200.7314
O=C1N2CC2CC2CN12	O=C1N2C[C@H]2C[C@H]2CN12	
InChI=1S/C6H8N2O/c9-6-7-2-4(7)1-5-3-8(5)6/h4-5H,1-3H2	InChI=1S/C6H8N2O/c9-6-7-2-4(7)1-5-3-8(5)6/h4-5H,1-3H2/t4-,5+,7?,8?
