17
gdb 79239	2.47855	1.6967	1.42153	2.3085	67.13	-0.235	0.0599	0.2949	977.3946	0.134457	-458.894952	-458.886868	-458.885924	-458.92704	31.832	
C	 0.0462493763	 1.5845006049	-0.005395649	-0.517889
C	-0.0839273896	 0.0991587508	 0.0962190123	 0.257275
O	 0.4992446407	-0.6415399087	-1.0289222506	-0.333064
C	-0.4347404641	-1.6899696013	-0.751764304	-0.020359
C	-0.5001881563	-1.8531075157	 0.7875066032	-0.232873
C	 0.4212655878	-0.7459731175	 1.3055479471	 0.165002
O	 1.7988100233	-0.9527639382	 1.4007024705	-0.449481
C	-1.365704445	-0.8484074532	 0.0535711528	 0.28149
O	-2.7158936571	-0.6542624528	 0.1363715622	-0.444508
H	 1.1025165299	 1.8707471101	 0.0384515072	 0.142317
H	-0.3728557682	 1.957188575	-0.9445721762	 0.126125
H	-0.4730116065	 2.0677097693	 0.8276324971	 0.132358
H	-0.565381521	-2.4918796484	-1.465268001	 0.11641
H	-0.7989131838	-2.7817139236	 1.2557937686	 0.099131
H	 0.0665335278	-0.3417266459	 2.2569709224	 0.096741
H	 2.0921132318	-1.127258025	 0.495646984	 0.284289
H	-3.022920336	-0.2704068497	-0.6935101467	 0.297036
166.5431	172.8692	180.6079	240.3196	303.6336	329.3273	367.6621	441.7894	503.8226	561.4063	602.1186	649.5584	705.0902	777.7469	779.5274	817.0707	872.6507	901.9463	928.6809	959.3226	1001.7384	1031.0828	1075.701	1098.9334	1124.7923	1143.2822	1181.673	1248.1807	1264.4064	1296.519	1314.2463	1343.6884	1413.008	1440.7207	1475.4437	1484.8663	1496.3074	3038.0949	3092.782	3108.4369	3117.2968	3208.918	3220.2449	3754.0765	3783.8019
CC12OC3C(C1O)C23O	C[C@@]12O[C@H]3[C@@H]([C@H]1O)[C@@]23O	
InChI=1S/C6H8O3/c1-5-3(7)2-4(9-5)6(2,5)8/h2-4,7-8H,1H3	InChI=1S/C6H8O3/c1-5-3(7)2-4(9-5)6(2,5)8/h2-4,7-8H,1H3/t2-,3-,4+,5-,6+/m1/s1
