16
gdb 94267	1.91551	1.77203	1.16965	2.3873	66.93	-0.2448	-0.0568	0.188	1069.1849	0.12179	-475.00259	-474.993492	-474.992548	-475.037445	31.887	
O	 0.1699854822	 1.2422059828	-0.445208708	-0.407327
C	 0.0077933164	-0.0902349433	-0.0771952065	 0.1031
C	 0.3556290555	-0.4909189314	 1.3781330421	-0.202506
N	-1.0835968137	-0.647953235	 1.7056959851	-0.357454
C	-1.4737931638	-0.587065886	 0.2924375051	 0.06365
C	-2.5801680525	 0.3972412246	-0.0338672031	 0.102381
O	-2.9853518228	 0.5953174609	-1.1498834616	-0.248465
C	-1.7527716941	-1.9266175554	-0.3610978742	 0.106225
O	-1.5720686232	-2.975660557	 0.2047001347	-0.257751
H	-0.1020863018	 1.8094579437	 0.2854248689	 0.295806
H	 0.482217826	-0.6802363372	-0.8627161081	 0.115796
H	 0.9433273269	-1.4132954889	 1.4378146726	 0.123784
H	 0.8627084595	 0.2895380476	 1.9575098433	 0.108419
H	-1.3072886585	-1.5478839931	 2.1218382526	 0.237251
H	-2.9787289283	 0.9281677748	 0.8587705385	 0.097447
H	-2.124739258	-1.8633703371	-1.4026461316	 0.119643
35.7971	93.2999	108.6557	180.1451	222.8144	272.6433	299.8149	356.6768	416.5611	440.914	478.5754	668.3505	716.3653	794.687	809.7346	844.7662	952.539	985.223	1003.5117	1056.0574	1097.0285	1100.8873	1155.1087	1169.367	1210.8268	1247.6585	1308.9766	1316.7878	1382.974	1391.3007	1409.4086	1441.6342	1507.6549	1796.9179	1825.148	2893.1247	2949.8957	3026.8231	3074.2368	3106.13	3512.7342	3798.0159
OC1CNC1(C=O)C=O	O[C@H]1CNC1(C=O)C=O	
InChI=1S/C5H7NO3/c7-2-5(3-8)4(9)1-6-5/h2-4,6,9H,1H2	InChI=1S/C5H7NO3/c7-2-5(3-8)4(9)1-6-5/h2-4,6,9H,1H2/t4-/m0/s1
