20
gdb 62123	4.36024	0.71971	0.66494	3.4133	77.46	-0.2483	0.034	0.2823	1693.6749	0.170529	-440.293946	-440.284253	-440.283308	-440.329725	35.113	
O	-0.4720870504	 1.2659498314	 0.0310753824	-0.435148
C	 0.0497853427	-0.0616252675	-0.0525233335	 0.072901
C	 1.0085580464	-0.1770268554	-1.2424093769	-0.16589
N	 0.3597258052	 0.2698855444	-2.4598227953	-0.277029
C	 0.4626013726	-0.3863405604	-3.6434736434	 0.152732
O	 1.14535203	-1.3699576953	-3.8419944724	-0.32681
C	 0.6930214256	-0.5343332405	 1.2398896775	 0.016334
C	 1.4584796708	 0.401331075	 2.144857157	-0.279385
C	 0.1191917816	-0.1458773662	 2.57433655	-0.272003
H	 0.2680385461	 1.8623979256	 0.1946376844	 0.283929
H	-0.8316491562	-0.6810251352	-0.2590604875	 0.102841
H	 1.9132313747	 0.4156219076	-1.0368495116	 0.103174
H	 1.3273701384	-1.2106734125	-1.3977911591	 0.145008
H	-0.2731752188	 1.0506275362	-2.3748983216	 0.251967
H	-0.1581471626	 0.0875875223	-4.4298885464	 0.072926
H	 1.0922148445	-1.5424373394	 1.1633600742	 0.094537
H	 2.3567111143	 0.0257048332	 2.6214952012	 0.119434
H	 1.5097815834	 1.4576198381	 1.8990041346	 0.098064
H	-0.7174664505	 0.5433663582	 2.5632505719	 0.127155
H	 0.0891135623	-0.8901404097	 3.3617868246	 0.115263
35.8814	78.4974	88.8322	148.2214	228.7743	248.8016	279.7891	338.9062	376.5053	407.5254	510.3441	586.5594	599.7649	758.2977	787.41	809.6532	831.8673	904.5124	917.3357	1006.1155	1017.4672	1032.7587	1047.981	1059.2479	1083.0985	1089.3499	1138.2689	1159.4544	1197.799	1212.1495	1226.3586	1232.0044	1304.1183	1314.409	1386.134	1409.3961	1425.6871	1428.6753	1464.1132	1501.5201	1505.244	1521.8381	1803.3037	2934.3925	2989.7027	3043.2168	3108.8674	3130.5422	3140.2659	3144.6135	3209.2904	3232.084	3626.7211	3789.8885
OC(CNC=O)C1CC1	O[C@@H](CNC=O)C1CC1	
InChI=1S/C6H11NO2/c8-4-7-3-6(9)5-1-2-5/h4-6,9H,1-3H2,(H,7,8)	InChI=1S/C6H11NO2/c8-4-7-3-6(9)5-1-2-5/h4-6,9H,1-3H2,(H,7,8)/t6-/m0/s1
