18
gdb 54215	3.01266	1.31835	1.19186	2.9394	72.75	-0.239	0.0162	0.2552	1098.3215	0.147427	-439.134202	-439.125352	-439.124407	-439.168263	33.698	
N	-0.2215511775	 1.3826994304	 0.6098017873	-0.528251
C	 0.1068027638	 0.1960157571	 0.0469269151	 0.370192
O	 1.2348694671	-0.1078458956	-0.2995792069	-0.389468
C	-1.0601911901	-0.7826254023	-0.1384200974	 0.287065
O	-2.2500156145	-0.1621715483	 0.3526004948	-0.498849
C	-1.2361166662	-1.1951789939	-1.6271636926	-0.292355
C	-1.6856642866	-2.6342152215	-1.5297726429	-0.081295
C	-1.4513674432	-3.1426436901	-0.319717805	-0.081285
C	-0.8057829413	-2.1292703601	 0.5960764582	-0.292369
H	 0.5022691191	 2.0655145458	 0.7566033518	 0.259298
H	-1.1733204407	 1.5705955653	 0.8731785769	 0.277119
H	-2.9733478651	-0.786300837	 0.2304474075	 0.285875
H	-1.9505087742	-0.529266009	-2.1230619737	 0.106364
H	-0.2810752811	-1.1161715538	-2.1595863155	 0.139745
H	-2.1012028803	-3.176728162	-2.3714443252	 0.096058
H	-1.6455023576	-4.1656637538	-0.0178055765	 0.096057
H	 0.2706724249	-2.3138054226	 0.6909712822	 0.139729
H	-1.2287727965	-2.0959378686	 1.6058681317	 0.10637
27.8913	102.7342	209.1525	274.193	288.7622	313.5152	377.7103	377.8066	385.9251	449.9837	526.3233	627.5928	631.5468	700.7043	759.2759	785.7848	795.2232	914.4409	929.2203	953.2198	973.4921	978.1591	1007.9153	1084.416	1097.7412	1108.0048	1129.0739	1181.742	1232.5634	1284.2371	1285.7881	1331.5254	1359.0508	1429.3399	1466.8068	1473.1206	1593.7461	1678.044	1791.4132	3038.0154	3039.6165	3079.7378	3079.9852	3185.4772	3210.3737	3605.1834	3747.3401	3810.1948
NC(=O)C1(O)CC=CC1	NC(=O)[C@@]1(O)CC=CC1	
InChI=1S/C6H9NO2/c7-5(8)6(9)3-1-2-4-6/h1-2,9H,3-4H2,(H2,7,8)	InChI=1S/C6H9NO2/c7-5(8)6(9)3-1-2-4-6/h1-2,9H,3-4H2,(H2,7,8)
