21
gdb 50555	3.83191	0.95312	0.86161	2.9059	83.87	-0.2459	-0.0172	0.2287	1391.827	0.183044	-387.104361	-387.095695	-387.094751	-387.13899	32.967	
O	-0.2509518542	 0.1034917421	-0.1194948444	-0.252785
C	-0.0517354939	 1.2804104414	 0.0341561024	 0.151108
C	 1.2925575099	 1.9623130248	-0.0172228236	-0.043344
C	 1.3667344092	 3.0077379369	-1.1597092965	-0.233078
C	 2.4371081543	 3.9961630286	-0.673894428	-0.287632
C	 2.1172292529	 4.140429889	 0.8082878825	 0.401058
C	 2.9054454715	 5.0423232809	 1.7149374471	-0.329964
C	 1.4946304149	 5.4168795479	 1.3236240599	-0.308275
C	 1.5877936881	 2.777897694	 1.2809700871	-0.326056
H	-0.8971940696	 1.985352864	 0.2318155349	 0.065868
H	 2.0513011497	 1.1897993505	-0.1680113665	 0.091343
H	 1.589825279	 2.5484807089	-2.1258888606	 0.108765
H	 0.4030325263	 3.5254925913	-1.252605845	 0.104304
H	 3.4352748333	 3.5594511712	-0.8112897509	 0.100853
H	 2.4192633897	 4.9494747435	-1.2103154199	 0.09764
H	 3.0804457694	 4.7155422876	 2.7351872717	 0.111512
H	 3.7240140844	 5.6120950545	 1.2864597264	 0.11137
H	 1.3582175766	 6.2403290575	 0.6295914	 0.110461
H	 0.7207045436	 5.3402392771	 2.0809032853	 0.109799
H	 0.6843938992	 2.8958168241	 1.8914942999	 0.102744
H	 2.3163061458	 2.2438663341	 1.8982874383	 0.114308
22.7523	74.5764	156.5713	253.979	320.6745	342.9774	349.0741	393.8742	403.4838	528.4528	618.2819	748.7025	781.8483	819.6702	872.3006	885.5467	908.5236	922.1072	959.0288	979.1299	985.2596	1002.6477	1043.289	1054.1341	1080.6049	1089.464	1096.2663	1187.1293	1189.2742	1198.5631	1224.1824	1272.706	1288.6528	1297.8794	1322.1491	1329.3787	1347.6962	1386.6339	1427.8856	1466.5459	1486.8058	1490.0631	1502.2866	1505.2904	1834.3246	2827.425	3018.3749	3027.4785	3031.5777	3067.7759	3083.6801	3083.9939	3102.4644	3119.206	3124.1885	3197.5498	3212.6793
O=CC1CCC2(CC2)C1	O=C[C@H]1CCC2(CC2)C1	
InChI=1S/C8H12O/c9-6-7-1-2-8(5-7)3-4-8/h6-7H,1-5H2	InChI=1S/C8H12O/c9-6-7-1-2-8(5-7)3-4-8/h6-7H,1-5H2/t7-/m0/s1
