15
gdb 74571	3.09754	1.28317	1.14443	4.4234	67.35	-0.2299	-0.0183	0.2116	1081.072	0.113214	-453.952489	-453.944796	-453.943852	-453.984991	28.875	
N	 0.0281984333	 1.3370673805	 0.1045747318	-0.57737
C	-0.0674274569	-0.0166330969	-0.0051944727	 0.458038
N	-1.1348494398	-0.7261365323	 0.0061539375	-0.335163
C	-0.6866255717	-2.0933949198	-0.007040933	-0.054569
C	 0.8100762482	-2.0421451789	-0.0490913191	 0.026805
O	 1.1380456863	-0.663777096	-0.0582779645	-0.23469
C	 0.1348470908	-2.606654029	 1.1978861849	-0.166962
C	 0.1401101295	-1.941364609	 2.5204125616	 0.159595
O	 0.277797457	-2.5451030877	 3.5589137876	-0.27401
H	 0.8605234759	 1.7547109	-0.2816088925	 0.270722
H	-0.8309503347	 1.8331988549	-0.072644664	 0.276679
H	-1.3029368457	-2.8105327992	-0.5352275655	 0.115573
H	 1.4953342316	-2.6437117494	-0.6311073672	 0.127058
H	 0.2079718842	-3.6878165772	 1.2645629378	 0.115244
H	-0.0023496282	-0.8425839499	 2.5164875572	 0.093051
95.4566	115.3357	174.0184	253.4771	360.7496	423.8986	431.1144	479.2668	518.5375	604.4011	719.6371	744.899	770.0312	791.1875	808.1233	926.639	968.0819	979.7013	1004.6451	1044.6449	1076.6069	1092.061	1125.6483	1188.8874	1196.752	1282.6158	1330.7133	1362.5897	1425.6837	1454.9759	1613.239	1733.4294	1802.0606	2933.0512	3168.2673	3186.7766	3206.7018	3592.7054	3708.5895
NC1=NC2C(O1)C2C=O	NC1=N[C@H]2[C@@H](O1)[C@H]2C=O	
InChI=1S/C5H6N2O2/c6-5-7-3-2(1-8)4(3)9-5/h1-4H,(H2,6,7)	InChI=1S/C5H6N2O2/c6-5-7-3-2(1-8)4(3)9-5/h1-4H,(H2,6,7)/t2-,3+,4-/m0/s1
