20
gdb 18261	4.1894	1.54779	1.29522	1.4136	74.61	-0.2469	0.0882	0.3352	1017.3814	0.178425	-349.005802	-348.998117	-348.997172	-349.037691	29.745	
C	 0.0490460958	 1.5329610384	 0.0713117903	-0.380281
C	-0.0124953613	 0.0042488195	 0.0068511689	-0.185067
C	 0.657435727	-0.5702265293	-1.2365201353	 0.135153
O	 2.0396829342	-0.1961511122	-1.2319995361	-0.270344
C	 2.7605976662	-1.1155530071	-2.0454158177	-0.091755
C	 2.0367717487	-2.4428451656	-1.8991187339	-0.055641
C	 1.6562521344	-2.8263479464	-0.4924452507	-0.288765
C	 0.6706265646	-2.087913296	-1.3645387756	-0.060768
H	 1.086525911	 1.8766473355	 0.0746486179	 0.13546
H	-0.4504181572	 1.9855063639	-0.7929125306	 0.109096
H	-0.4413427165	 1.9096130071	 0.974129027	 0.106917
H	 0.4633904207	-0.4308317501	 0.8930532937	 0.100157
H	-1.0574296373	-0.3308196785	 0.0123316487	 0.091847
H	 0.1643500261	-0.1519284354	-2.1336752491	 0.058624
H	 2.7594123409	-0.7991715066	-3.1017017593	 0.088751
H	 3.796607232	-1.1211177072	-1.689540402	 0.10524
H	 2.1797883504	-3.2067792111	-2.6541122249	 0.086557
H	 1.4572101041	-3.8741307747	-0.2975039525	 0.108727
H	 2.1238708943	-2.2928843213	 0.3291822618	 0.12116
H	-0.227226168	-2.5876371031	-1.7087136908	 0.084932
102.1484	143.9232	190.1297	240.4195	292.3657	359.8907	409.8274	500.9608	638.7465	715.1492	768.8742	785.4086	832.8313	872.2457	910.6334	931.657	959.4478	991.6534	1016.263	1047.5365	1079.2265	1080.6555	1085.5824	1104.2424	1127.0862	1133.8272	1167.3897	1197.0152	1240.283	1292.314	1322.6054	1332.3398	1348.9296	1359.8986	1404.1587	1409.6797	1414.6902	1476.2294	1481.3986	1497.9749	1509.1438	1515.9176	2927.5253	2967.7665	3029.4462	3035.7662	3063.2819	3068.7288	3100.1711	3123.9394	3131.4277	3176.5283	3185.1402	3219.0911
CCC1OCC2CC12	CC[C@H]1OC[C@H]2C[C@@H]12	
InChI=1S/C7H12O/c1-2-7-6-3-5(6)4-8-7/h5-7H,2-4H2,1H3	InChI=1S/C7H12O/c1-2-7-6-3-5(6)4-8-7/h5-7H,2-4H2,1H3/t5-,6-,7-/m1/s1
