20
gdb 9919	4.96878	0.90831	0.86528	1.9068	72.3	-0.2546	0.0697	0.3243	1400.881	0.174734	-386.11099	-386.101507	-386.100563	-386.145629	34.045	
C	 0.1050950266	 1.3484941772	 0.1738405984	-0.229058
O	-0.0846209932	-0.0302774784	-0.0274262037	-0.227475
C	 0.7158236821	-0.549951123	-1.0650939678	-0.058451
C	 0.4175449663	-2.0386330365	-1.2084826231	-0.256381
C	 1.232666881	-2.7055656944	-2.2986722492	 0.416958
O	 0.9567340507	-2.24973424	-3.6024905111	-0.471498
C	 2.6432274916	-3.1692199052	-2.0168719266	-0.32173
C	 1.522795307	-4.1721039395	-2.2222188114	-0.302808
H	 1.1464090675	 1.5837518149	 0.447591198	 0.101389
H	-0.151148596	 1.9330690266	-0.7245501399	 0.102215
H	-0.551671593	 1.6544874521	 0.9918899336	 0.127123
H	 0.4989984678	-0.0228938744	-2.0112730804	 0.076112
H	 1.7861660634	-0.3920084784	-0.842922401	 0.08335
H	 0.61556465	-2.5274108257	-0.2485579125	 0.103394
H	-0.6491947117	-2.1654541842	-1.4249615776	 0.114476
H	 1.3852788034	-1.3953253565	-3.7184006381	 0.282001
H	 3.3668224161	-3.0667367602	-2.8179739096	 0.112107
H	 3.0466666983	-3.0405480063	-1.0179674875	 0.111558
H	 1.160323258	-4.7283049742	-1.3648284487	 0.113469
H	 1.5091042541	-4.7130310439	-3.1610152816	 0.123249
62.3976	81.4085	126.2027	132.4378	235.1581	271.4501	281.4258	313.3475	348.0288	425.6801	450.6118	521.9008	738.4004	779.5768	804.6568	901.8685	924.1144	937.8082	976.7276	1002.668	1042.8366	1069.2308	1077.2116	1091.8064	1164.9941	1181.1589	1189.0715	1225.2479	1230.186	1280.0155	1287.5018	1312.9311	1335.7781	1382.5237	1427.9636	1452.8255	1479.8139	1481.1433	1485.6543	1498.4763	1504.6531	1535.9323	2937.7142	2964.3054	2966.9415	3007.694	3041.9227	3088.822	3112.8498	3129.8664	3140.2535	3216.1953	3233.9249	3806.1495
COCCC1(O)CC1	COCCC1(O)CC1	
InChI=1S/C6H12O2/c1-8-5-4-6(7)2-3-6/h7H,2-5H2,1H3	InChI=1S/C6H12O2/c1-8-5-4-6(7)2-3-6/h7H,2-5H2,1H3
