22
gdb 121803	3.29536	0.71349	0.6737	3.507	83.53	-0.2962	0.0198	0.316	1781.0746	0.191236	-404.37378	-404.362624	-404.36168	-404.410451	39.975	
C	 0.1135643784	 1.5689994161	-0.1044665711	-0.381695
C	 0.0386460553	 0.0410075665	-0.0482873887	-0.171564
C	-1.3979602341	-0.481583387	 0.0738609011	-0.180243
C	-1.4602502942	-2.0110271436	 0.1464484817	-0.212165
C	-2.8921773091	-2.5964931486	 0.066331	 0.185094
C	-3.8042813724	-2.128709649	 1.2065427506	-0.399453
O	-3.5467648914	-2.2132404802	-1.1390094162	-0.437094
C	-2.7826111442	-4.0779010847	 0.1088063829	 0.252738
N	-2.6759938291	-5.2288387361	 0.1140661059	-0.337398
H	 1.1480119201	 1.9139504706	-0.1954497703	 0.115095
H	-0.4457335885	 1.9613905783	-0.9609101073	 0.116546
H	-0.3094056947	 2.0200398183	 0.8000174742	 0.115737
H	 0.5029567665	-0.3833344354	-0.9482688586	 0.096825
H	 0.6328242152	-0.3253511491	 0.7992773781	 0.098677
H	-1.8608353072	-0.044388658	 0.9669385276	 0.101043
H	-1.9916753648	-0.1386498296	-0.7814224024	 0.110342
H	-0.8795649452	-2.4414324268	-0.6808257535	 0.102919
H	-0.9860603217	-2.3724833698	 1.0667201732	 0.116768
H	-3.94931394	-1.049197277	 1.1352787905	 0.13885
H	-4.7785018065	-2.6149296407	 1.1265941662	 0.144842
H	-3.365197264	-2.3707708157	 2.1771717798	 0.132522
H	-3.0296554684	-2.5410139684	-1.8839671237	 0.291613
57.2432	74.1412	98.4939	145.1894	181.5989	187.2676	236.4021	242.9282	282.3202	330.7365	359.967	367.7031	408.7936	472.938	591.2587	600.7323	738.2663	747.0152	792.2311	890.0498	906.8775	932.631	965.6412	1023.718	1036.492	1066.355	1103.6514	1140.3256	1179.823	1201.7032	1247.6959	1285.6666	1311.7267	1330.3697	1367.3093	1380.1413	1398.0372	1412.1808	1414.8865	1473.7979	1484.4609	1487.0132	1497.5895	1499.0819	1499.8342	1513.6551	2349.0814	3013.3717	3016.4834	3029.745	3034.1332	3041.6512	3057.9852	3061.3092	3081.7865	3098.1465	3104.7042	3142.0562	3146.3567	3800.0525
CCCCC(C)(O)C#N	CCCC[C@@](C)(O)C#N	
InChI=1S/C7H13NO/c1-3-4-5-7(2,9)6-8/h9H,3-5H2,1-2H3	InChI=1S/C7H13NO/c1-3-4-5-7(2,9)6-8/h9H,3-5H2,1-2H3/t7-/m1/s1
