19
gdb 72329	2.54696	2.02927	1.60528	1.7688	79.84	-0.2283	-0.0018	0.2265	926.3707	0.159678	-385.809152	-385.801953	-385.801009	-385.840065	30.406	
C	-0.1214486183	 1.5934983442	-0.1130768355	-0.486321
C	-0.0306105732	 0.0764286852	-0.0184374683	 0.333507
C	-1.4156661031	-0.5557314618	 0.2797246282	-0.354931
C	-1.3223163761	-0.8124460797	 1.7881027779	-0.045376
C	-0.0635910276	-0.830559081	 2.2538446615	-0.232697
C	 0.8123280535	-0.6268767614	 1.0712768825	 0.394707
C	 2.1342792318	-0.1552991684	 0.4305529154	-0.327682
C	 1.1646235374	-0.6840483253	-0.6900523705	-0.024839
O	 0.9009147178	-1.8439022474	 0.1547349949	-0.352992
H	 0.8474111642	 2.0845328812	-0.22355399	 0.116094
H	-0.7288464978	 1.8726275923	-0.9817100914	 0.120369
H	-0.6131705668	 2.0075172718	 0.7747462675	 0.123475
H	-2.2529540773	 0.0984615875	 0.017014241	 0.095899
H	-1.5583120578	-1.5088145535	-0.2377470844	 0.135709
H	-2.2024440227	-1.0167103809	 2.3897277725	 0.101486
H	 0.248920851	-1.0434526409	 3.267433916	 0.107851
H	 2.3941106963	 0.9028089937	 0.4835330639	 0.100128
H	 2.9921543294	-0.8061815111	 0.5991052004	 0.110738
H	 1.3921498192	-0.8659183545	-1.7427130618	 0.084875
200.5727	207.0557	273.7686	328.7506	373.4951	423.8383	496.0603	535.1665	600.5062	631.9828	655.5662	749.7832	763.0452	792.0436	809.3411	883.4827	907.6524	908.1669	941.5166	959.3285	985.4548	1019.5657	1029.7991	1081.7139	1112.9997	1127.5003	1139.119	1177.6295	1188.2256	1216.036	1222.7703	1257.0098	1282.031	1330.2786	1374.2775	1409.0097	1460.3126	1486.3246	1495.2259	1509.9836	1619.7533	3030.278	3052.279	3078.487	3085.6291	3093.2478	3095.8266	3123.4391	3156.9461	3183.461	3224.8139
CC12CC=CC11CC2O1	C[C@]12CC=C[C@@]31C[C@H]2O3	
InChI=1S/C8H10O/c1-7-3-2-4-8(7)5-6(7)9-8/h2,4,6H,3,5H2,1H3	InChI=1S/C8H10O/c1-7-3-2-4-8(7)5-6(7)9-8/h2,4,6H,3,5H2,1H3/t6-,7-,8+/m1/s1
