21
gdb 73021	3.0152	1.2947	1.12903	1.6825	82.76	-0.2378	0.0869	0.3247	1186.079	0.182416	-387.038382	-387.029714	-387.02877	-387.071867	33.245	
C	-0.1477377081	 1.5325253334	-0.1078369641	-0.495413
C	-0.0100493041	 0.0387847055	-0.0177379898	 0.323123
C	-0.7768454524	-0.9520135736	-0.9171013028	-0.284531
C	-1.0191710903	-1.8767295262	 0.3164099743	-0.212679
C	-0.1978187638	-0.9115506573	 1.1835137956	-0.141526
C	 1.1758206079	-0.631566025	 0.6257547342	-0.071781
C	 2.1324952785	-1.5910092894	-0.0173964384	 0.045843
C	 2.5519305204	-2.844183734	 0.6289034523	-0.174408
O	 1.6725236773	-2.8569181082	-0.4967563452	-0.226265
H	 0.3415199429	 1.9256545666	-1.0080922184	 0.118007
H	-1.201170676	 1.8334827441	-0.1501790451	 0.115232
H	 0.3070655978	 2.0282621551	 0.756607124	 0.113758
H	-1.7036367408	-0.5226381815	-1.3062860833	 0.095035
H	-0.2153365412	-1.3827070849	-1.7499277389	 0.108049
H	-2.0708122655	-1.8783790475	 0.6139218311	 0.092438
H	-0.6641244915	-2.9039269587	 0.2421392735	 0.115992
H	-0.4285265089	-0.6580056501	 2.213246735	 0.076906
H	 1.723747912	 0.0710316018	 1.2557996596	 0.085172
H	 2.8552104047	-1.1185285313	-0.687328024	 0.089866
H	 3.547754436	-3.2457033244	 0.447103781	 0.111549
H	 2.0960103552	-3.1286035043	 1.5759500997	 0.115633
53.6819	147.5369	174.3582	206.052	240.8634	291.2745	323.4775	336.2853	484.055	604.3542	637.7387	751.545	768.6769	794.8209	828.1893	871.1887	906.1512	939.9661	949.2586	966.203	981.0778	1008.2807	1026.064	1064.6809	1098.3254	1121.7503	1142.3794	1149.6117	1169.5231	1174.6392	1219.581	1238.1461	1253.233	1259.4918	1291.0743	1316.2042	1341.967	1413.3938	1422.4642	1473.1783	1477.519	1485.4553	1497.6587	1507.0421	1524.219	3014.9104	3057.976	3070.4059	3071.4907	3073.6172	3084.8361	3089.4981	3098.605	3106.7218	3138.8919	3158.4634	3173.5249
CC12CCC1C2C1CO1	C[C@]12CC[C@H]1[C@H]2[C@H]1CO1	
InChI=1S/C8H12O/c1-8-3-2-5(8)7(8)6-4-9-6/h5-7H,2-4H2,1H3	InChI=1S/C8H12O/c1-8-3-2-5(8)7(8)6-4-9-6/h5-7H,2-4H2,1H3/t5-,6+,7-,8-/m0/s1
