17
gdb 16813	3.67028	1.86322	1.40509	3.4127	68.05	-0.2312	-0.0154	0.2159	899.6034	0.143343	-363.871768	-363.864597	-363.863652	-363.903045	27.736	
C	 0.0812956598	 1.5785584637	 0.0288913061	-0.401697
C	 0.00871711	 0.0515787993	 0.0256800026	 0.025484
C	 0.6737932084	-0.6210380971	-1.2018228994	-0.350671
C	 1.2082861412	-1.9666122641	-0.6961082465	 0.446148
O	 1.3425185566	-2.9776671933	-1.3373717288	-0.325856
C	 1.4394648406	-1.8195702451	 0.7817029028	-0.167848
N	 2.1733516257	-0.5528954912	 1.0932855745	-0.331869
C	 0.7137859552	-0.5938528592	 1.2200967651	-0.040148
H	 1.125078163	 1.9068993263	 0.0473770112	 0.13392
H	-0.3950638755	 1.9988477476	-0.8624895521	 0.116905
H	-0.4235044334	 1.9984451866	 0.9058298657	 0.109943
H	-1.0429575905	-0.2609585723	 0.063912179	 0.08218
H	 0.000611981	-0.7684953849	-2.0479786055	 0.123019
H	 1.5273447074	-0.0287282375	-1.5509212193	 0.140928
H	 1.5872855101	-2.6964340223	 1.400353159	 0.104634
H	 2.5983074501	-0.6627707921	 2.0113772247	 0.241289
H	 0.2654935403	-0.5324108643	 2.2072482309	 0.093639
105.3034	180.8204	239.6879	262.68	339.5635	462.2122	483.256	535.1523	596.3435	667.1125	794.3978	816.6325	851.8392	874.6853	908.0627	916.5498	939.4476	1015.5995	1040.7425	1100.4306	1115.7514	1133.3906	1149.312	1191.9803	1214.2967	1259.3123	1267.5843	1338.7746	1347.0435	1369.4662	1402.0313	1411.3717	1453.5644	1495.5435	1502.4632	1844.5756	3022.9392	3032.3738	3054.9049	3098.0994	3112.1906	3123.4924	3156.4403	3194.8436	3498.103
CC1CC(=O)C2NC12	C[C@H]1CC(=O)[C@H]2N[C@@H]12	
InChI=1S/C6H9NO/c1-3-2-4(8)6-5(3)7-6/h3,5-7H,2H2,1H3	InChI=1S/C6H9NO/c1-3-2-4(8)6-5(3)7-6/h3,5-7H,2H2,1H3/t3-,5-,6+/m0/s1
