13
gdb 133155	2.31215	1.85791	1.03669	3.8807	64.34	-0.2706	-0.0846	0.186	1034.5508	0.087411	-497.859228	-497.851554	-497.85061	-497.89175	27.724	
C	-0.0259887703	 1.5256799785	-0.0220841557	-0.490283
C	-0.0378169108	 0.0309454814	 0.0058459734	-0.05127
C	-1.1297527128	-0.7441414888	-0.1365484357	 0.227385
F	-2.3419927992	-0.2321706983	-0.3218203651	-0.052973
C	-1.0374661833	-2.1732109255	-0.0949240905	-0.063192
N	 0.0669292471	-2.8139450611	 0.077322545	-0.042459
O	 1.2075190934	-2.0578751101	 0.2271474412	-0.259558
C	 1.2358092822	-0.6598809892	 0.2035240278	 0.426337
O	 2.3013681132	-0.1256604372	 0.3468679973	-0.319331
H	 0.6339957083	 1.8820707345	-0.8192799094	 0.161978
H	-1.0283988336	 1.9262385538	-0.1754363739	 0.14168
H	 0.3824391493	 1.9164401821	 0.9152473952	 0.161967
H	-1.9259771534	-2.7845746501	-0.2111946895	 0.159719
112.8717	114.87	180.3355	263.663	272.4741	347.9904	474.6332	490.6604	528.4477	556.4818	668.2875	681.9405	760.9705	854.3243	910.2651	919.4745	951.6065	1058.1537	1062.9146	1170.7141	1238.4257	1324.1547	1381.3977	1416.1394	1474.2085	1475.3122	1622.5605	1713.4576	1836.8215	3048.905	3103.4952	3152.8375	3200.1272
CC1=C(F)C=NOC1=O	Cc1c(F)cnoc1=O	
InChI=1S/C5H4FNO2/c1-3-4(6)2-7-9-5(3)8/h2H,1H3	InChI=1S/C5H4FNO2/c1-3-4(6)2-7-9-5(3)8/h2H,1H3
