17
gdb 6144	4.4498	1.3703	1.26583	4.4616	68.7	-0.275	0.0057	0.2807	1008.2081	0.140658	-363.869602	-363.861258	-363.860314	-363.902581	30.53	
C	-0.4158137641	 1.5451747203	 0.0072300588	-0.43103
C	 0.0865827106	 0.1128644629	-0.0723965754	 0.428192
C	-0.9756249764	-0.9055253381	 0.3131927408	-0.426931
C	 0.9151192661	-0.242460201	-1.337245725	-0.346889
C	 2.0919774739	-0.4326865424	-0.3498856039	-0.000528
O	 1.2814889518	-0.052961669	 0.7706600208	-0.31599
C	 2.6183885981	-1.7983527881	-0.2345960034	 0.275061
N	 3.0298377283	-2.875792183	-0.1592804052	-0.321024
H	 0.3768294932	 2.2524058511	-0.2525069855	 0.120174
H	-1.2563321523	 1.6972075948	-0.6783461927	 0.121878
H	-0.7570939904	 1.7710023226	 1.0222604715	 0.132253
H	-1.8305911054	-0.8461735041	-0.3689243194	 0.119905
H	-0.5727125882	-1.9213374233	 0.2786550464	 0.134184
H	-1.3330516949	-0.7135570938	 1.3295901838	 0.130908
H	 0.6025329803	-1.139946243	-1.8704767839	 0.132935
H	 1.0579239341	 0.5761269035	-2.0432503686	 0.121563
H	 2.9365585352	 0.2518101006	-0.492271579	 0.125338
43.2612	152.5599	201.674	229.6988	247.378	322.0804	337.2867	392.0235	429.9165	519.9559	566.6617	674.5366	777.4334	859.4942	882.3699	917.8206	959.819	980.1032	1012.1787	1019.3357	1052.8702	1114.9774	1172.7096	1237.7565	1263.0784	1286.4849	1297.7824	1364.5727	1402.8211	1415.8359	1472.7531	1480.834	1489.8451	1494.9509	1504.8758	2354.0943	3033.6902	3036.8574	3039.4377	3092.1321	3105.6175	3112.6188	3116.0614	3120.5407	3153.1559
CC1(C)CC(O1)C#N	CC1(C)C[C@@H](O1)C#N	
InChI=1S/C6H9NO/c1-6(2)3-5(4-7)8-6/h5H,3H2,1-2H3	InChI=1S/C6H9NO/c1-6(2)3-5(4-7)8-6/h5H,3H2,1-2H3/t5-/m1/s1
