15
gdb 28694	3.55085	1.03154	0.84042	3.7177	72.97	-0.1956	0.0277	0.2233	1300.5759	0.11339	-416.855978	-416.847589	-416.846645	-416.889802	30.648	
O	 0.4137195514	 1.2480883504	 0.3040598914	-0.431231
C	 0.1585863656	-0.0472397869	 0.0006526525	 0.377358
C	-0.257479908	-0.6894102972	-1.1408810657	-0.291757
C	-0.3185402111	-2.080805899	-0.8177010326	-0.216975
C	 0.0512694561	-2.2322877168	 0.4932305291	 0.309533
C	 0.1096152885	-3.4546609937	 1.3576469272	-0.452297
C	 1.3622544493	-3.5655974807	 2.1155070195	 0.25468
N	 2.3402835423	-3.611336495	 2.7294068901	-0.310602
N	 0.33339682	-0.9689978516	 0.9913092118	-0.342687
H	 0.2961230075	 1.7760910095	-0.4913383413	 0.310682
H	-0.4894033938	-0.2271895965	-2.0874841426	 0.092622
H	-0.6151860125	-2.8789182764	-1.4814377532	 0.098651
H	-0.7164030639	-3.4908966203	 2.0830962616	 0.158219
H	 0.0016164904	-4.3397054785	 0.7230639658	 0.168137
H	 0.7209525084	-0.7591467673	 1.8962832165	 0.275666
38.6949	94.1959	212.0685	244.101	277.8783	320.1791	380.5199	443.7175	452.5007	480.2623	621.106	660.3533	676.7307	736.5608	750.1068	809.7866	926.659	929.7078	997.3395	1026.5125	1059.1203	1173.3528	1205.6469	1222.1536	1290.532	1301.8659	1338.617	1435.2752	1455.2924	1529.2644	1574.8885	1646.4131	2359.2171	2999.9877	3087.9321	3241.9348	3256.7345	3666.7155	3848.6923
OC1=CC=C(CC#N)N1	Oc1ccc(CC#N)[nH]1	
InChI=1S/C6H6N2O/c7-4-3-5-1-2-6(9)8-5/h1-2,8-9H,3H2	InChI=1S/C6H6N2O/c7-4-3-5-1-2-6(9)8-5/h1-2,8-9H,3H2
