16
gdb 82714	2.38665	2.21102	1.63963	3.5752	67.83	-0.2347	-0.0264	0.2083	869.1046	0.124803	-437.835643	-437.828654	-437.827709	-437.866953	27.24	
C	-0.0310511752	 1.5851626705	 0.0222080232	-0.411733
C	 0.0341220743	 0.0753576854	-0.0330225184	 0.022416
C	 0.7578878589	-0.6346353661	-1.2082586659	 0.067427
O	 2.0581069158	-0.0468430863	-1.468416144	-0.298026
C	 2.6863555188	-0.8022252259	-0.3836900305	-0.054465
C	 1.3760104371	-1.5901686424	-0.1714676487	-0.033111
N	 0.9812257829	-0.6352829622	 0.9434006737	-0.215341
C	 2.3045856142	-0.0327154246	 0.8979693044	 0.422967
O	 2.7929915642	 0.8049930274	 1.5906282611	-0.311502
H	 0.928182512	 2.0326296542	-0.246821904	 0.149296
H	-0.7896681804	 1.9467258213	-0.6795084024	 0.122831
H	-0.3043697925	 1.9218198478	 1.0262227023	 0.143266
H	-0.9567562634	-0.3699338044	 0.1128805973	 0.098592
H	 0.2286184357	-0.8702733989	-2.133132307	 0.0933
H	 3.6911857936	-1.1444655056	-0.6320354686	 0.101469
H	 1.2397447641	-2.6586614403	-0.0362569923	 0.102612
147.3501	155.9221	203.8584	267.1535	374.7229	475.1028	553.3156	646.6182	658.0626	736.9637	798.838	821.0447	842.8567	879.3159	915.0403	938.413	942.927	975.5673	1016.4467	1042.0107	1065.4685	1104.3463	1148.7809	1177.3686	1197.2257	1216.7917	1244.9823	1254.9917	1286.2912	1314.2432	1367.6443	1408.8418	1482.1214	1495.0929	1901.763	3041.2408	3047.1673	3101.1093	3115.2233	3116.0243	3135.8883	3167.9245
CC1C2OC3C2N1C3=O	C[C@H]1[C@H]2O[C@@H]3[C@H]2N1C3=O	
InChI=1S/C6H7NO2/c1-2-4-3-5(9-4)6(8)7(2)3/h2-5H,1H3	InChI=1S/C6H7NO2/c1-2-4-3-5(9-4)6(8)7(2)3/h2-5H,1H3/t2-,3-,4+,5+/m0/s1
