18
gdb 72209	3.56466	1.72667	1.41787	3.8214	75.46	-0.231	-0.0133	0.2177	945.4393	0.148467	-401.892048	-401.88501	-401.884065	-401.922937	29.01	
C	 0.1432029294	 1.5007094389	 0.2115827378	-0.491935
C	-0.0786781538	 0.0369135516	-0.0307961689	 0.419725
C	 0.2024170348	-0.6225130434	-1.4475951916	-0.290302
C	-1.1711758633	-1.4249107155	-1.4030427784	-0.064194
C	-1.0790138457	-2.9293367494	-1.0002168196	-0.170592
N	-0.289917853	-2.9043403399	 0.2757199801	-0.260171
C	-0.4782167636	-1.7238886993	 0.6921500001	 0.319299
O	 0.4485982878	-0.7944013032	 1.1172320496	-0.313642
C	-1.3943606028	-0.7583861346	-0.0362049199	-0.183789
H	 1.2130040754	 1.7338239259	 0.2072098685	 0.139751
H	-0.3386588149	 2.0905150057	-0.5741314734	 0.126568
H	-0.2700846406	 1.798023371	 1.179099287	 0.136401
H	 0.1923927246	 0.1411520196	-2.2286297088	 0.112944
H	 1.1213328624	-1.2053097069	-1.5261920371	 0.131433
H	-1.8510010539	-1.207511588	-2.2285245449	 0.072325
H	-2.0737683762	-3.3855099119	-0.8962507243	 0.105997
H	-0.5119653224	-3.529989632	-1.7182582608	 0.118794
H	-2.3367619041	-0.4379062785	 0.4042705046	 0.091389
204.2222	214.5422	248.6064	302.9638	364.6783	396.8695	510.5352	578.8078	664.4012	686.3751	710.6156	755.9439	779.6855	851.3541	874.6524	876.5743	933.613	944.6873	963.7368	971.7723	1016.1721	1071.5054	1085.699	1131.7825	1154.3474	1183.9337	1209.3478	1210.8615	1229.9084	1266.2445	1288.8306	1311.5835	1346.8306	1411.9855	1459.6136	1477.401	1483.9953	1490.7362	1696.4289	3008.7424	3040.092	3075.073	3079.2954	3098.6097	3110.4914	3122.1213	3133.6688	3139.6459
CC12CC3CN=C(O1)C23	C[C@@]12C[C@H]3C[N][C](O1)[C@@H]23	
InChI=1S/C7H9NO/c1-7-2-4-3-8-6(9-7)5(4)7/h4-5H,2-3H2,1H3	InChI=1S/C7H9NO/c1-7-2-4-3-8-6(9-7)5(4)7/h4-5H,2-3H2,1H3/t4-,5-,7-/m0/s1
