18
gdb 45999	4.17454	1.02529	0.86054	5.163	84.28	-0.2223	-0.0236	0.1987	1324.917	0.148573	-401.964631	-401.956537	-401.955592	-401.997889	30.213	
O	 0.0161571696	 0.0527946823	 0.3072297316	-0.35754
C	 0.0467654076	 1.2512642863	 0.1270150495	 0.4064
C	-1.1898940328	 2.1742854017	 0.1121781297	-0.33212
C	-0.640887878	 3.5905458504	-0.1360724887	-0.312852
C	 0.8556150453	 3.3885364396	-0.2460351578	 0.366802
C	 1.2210987306	 2.0946511718	-0.1038374097	-0.32769
N	 1.6618592912	 4.4588130422	-0.5600902422	-0.114121
C	 1.8309049738	 5.6280948764	 0.2870981759	-0.233193
C	 2.9662742216	 4.6850265844	 0.0240937487	-0.224792
H	-1.8778780241	 1.8426645297	-0.670646981	 0.130647
H	-1.723154261	 2.0810151767	 1.0624060505	 0.127632
H	-1.0262499289	 4.0468765086	-1.0546197122	 0.12773
H	-0.8786354417	 4.2878657332	 0.6762056999	 0.11434
H	 2.2279868708	 1.7028344312	-0.1552669143	 0.099378
H	 1.7901373472	 6.5892366278	-0.2166020451	 0.132405
H	 1.3862381658	 5.6052915952	 1.2791556876	 0.130731
H	 3.2700256139	 4.0300143904	 0.8373089074	 0.133388
H	 3.7547649991	 4.9648302621	-0.66801708	 0.132855
84.0543	104.097	127.2529	178.697	246.7826	423.8861	467.8992	536.3567	543.0952	578.3013	630.7268	809.8331	828.6399	833.0303	855.2433	877.7431	923.4037	953.6395	1008.5219	1014.9571	1042.0626	1109.5758	1136.3692	1149.1183	1154.8118	1168.9948	1179.7001	1186.0237	1232.4458	1254.3168	1302.7445	1330.8368	1411.6759	1458.5678	1484.5927	1491.7274	1519.8394	1650.2327	1801.5964	3035.5501	3066.444	3067.9442	3107.8112	3108.2724	3111.9638	3193.5875	3207.136	3225.9057
O=C1CCC(=C1)N1CC1	O=C1CCC(=C1)N1CC1	
InChI=1S/C7H9NO/c9-7-2-1-6(5-7)8-3-4-8/h5H,1-4H2	InChI=1S/C7H9NO/c9-7-2-1-6(5-7)8-3-4-8/h5H,1-4H2
