13
gdb 123512	4.13282	1.79765	1.25274	0.7777	75.3	-0.2408	-0.0779	0.1629	896.9801	0.093233	-411.804759	-411.799047	-411.798103	-411.834757	22.841	
C	 0.0168120626	 1.3120014703	 0.0094289929	-0.079783
C	 1.3190599527	 1.7706743714	-0.0007103677	-0.101124
N	 2.0853682192	 0.6396619061	-0.0143210871	-0.016245
N	 3.4417535082	 0.577055644	-0.0278102442	-0.093486
N	 3.9629265458	-0.5925004873	-0.0392422581	-0.187739
C	 3.1907335043	-1.7221331627	-0.0379224653	 0.037448
C	 1.8203256086	-1.7127880345	-0.0245884227	-0.248428
C	 1.2022392808	-0.4571466525	-0.0117442584	 0.468445
N	-0.0565375766	-0.0510194991	 0.0026431915	-0.345685
H	-0.8789518971	 1.9158920824	 0.021422185	 0.129234
H	 1.7617179142	 2.7514788545	 0.0003598507	 0.156156
H	 3.7580364969	-2.6444796738	-0.0484643881	 0.137167
H	 1.2262913805	-2.6180007586	-0.0237820284	 0.14404
222.7651	233.7862	415.09	433.1528	585.5438	620.7535	633.965	656.9954	756.7832	777.7642	788.8734	859.5907	907.7578	913.4408	931.9841	988.1006	1036.5579	1075.4696	1165.2126	1189.1945	1205.0329	1276.782	1309.5566	1389.8309	1427.7806	1460.3205	1490.7876	1544.1221	1649.0559	3209.5999	3226.0384	3245.6553	3297.3077
C1=CN2N=NC=CC2=N1	c1cn2nnccc2n1	
InChI=1S/C5H4N4/c1-2-7-8-9-4-3-6-5(1)9/h1-4H	InChI=1S/C5H4N4/c1-2-7-8-9-4-3-6-5(1)9/h1-4H
