21
gdb 7595	2.66872	1.69449	1.43777	1.5761	75.02	-0.2213	0.0689	0.2902	1019.939	0.185922	-366.233751	-366.223927	-366.222982	-366.267712	36.295	
C	 1.5338571555	-2.2335876252	 1.2436163114	-0.415893
C	 0.4240862954	-1.7070104263	 0.3301899219	 0.074244
O	-0.2153205978	-0.5623676173	 0.8977101991	-0.439026
C	 0.8964450357	-1.4272217863	-1.0965144722	 0.34513
C	 2.0060760988	-0.4006351103	-1.2400984314	-0.470429
C	 0.7961905633	-2.536598167	-2.0949616099	-0.295675
N	-0.0797532956	-1.3761422078	-2.190306746	-0.116872
C	-1.5036529538	-1.5540592217	-1.9387483531	-0.315433
H	 1.9812175539	-3.1457012148	 0.8362806015	 0.120486
H	 2.3338924359	-1.4952380704	 1.367538059	 0.112572
H	 1.1247016306	-2.4557838283	 2.2329571676	 0.123944
H	-0.3670512143	-2.4609007072	 0.2917413188	 0.084684
H	 0.4608310578	 0.1026210342	 1.0650460254	 0.279389
H	 2.9409082557	-0.7379469537	-0.7808902156	 0.115434
H	 2.19021164	-0.2065654121	-2.298654018	 0.131999
H	 1.7233748506	 0.5543323939	-0.781014892	 0.107262
H	 1.5429445918	-2.6477717737	-2.8784104362	 0.106754
H	 0.3581454321	-3.4765507317	-1.7560128941	 0.098714
H	-1.7577238406	-2.4297242833	-1.3218500672	 0.09893
H	-1.8951938832	-0.6631980772	-1.4408343129	 0.137031
H	-2.0123080618	-1.6705489538	-2.9013111061	 0.116754
60.8196	143.8425	175.1286	209.3034	228.0202	244.991	256.7151	284.8076	291.2989	378.5041	412.8658	446.2477	516.6881	555.0708	700.8399	762.1762	867.3735	915.027	917.6473	974.0629	1025.8212	1054.5981	1075.4875	1099.2207	1117.9507	1123.0534	1159.7665	1168.9964	1200.3188	1280.5955	1298.3967	1328.0679	1390.0666	1402.5582	1413.0676	1426.116	1447.5925	1481.5614	1486.1503	1491.0405	1498.253	1500.3837	1506.8694	1515.4222	2979.2638	3028.2234	3034.1669	3064.9931	3071.6688	3074.317	3090.3226	3104.6184	3116.8735	3118.2764	3128.6698	3157.3181	3808.7202
CC(O)C1(C)CN1C	C[C@@H](O)[C@@]1(C)CN1C	
InChI=1S/C6H13NO/c1-5(8)6(2)4-7(6)3/h5,8H,4H2,1-3H3	InChI=1S/C6H13NO/c1-5(8)6(2)4-7(6)3/h5,8H,4H2,1-3H3/t5-,6-,7?/m1/s1
