18
gdb 12927	3.39763	1.6902	1.4001	1.1223	68.13	-0.237	0.0821	0.3191	953.703	0.152641	-384.891906	-384.883665	-384.882721	-384.924358	30.599	
C	 0.1019923996	 1.0779816738	-0.3681521279	-0.234389
O	-0.0788114274	-0.0056868152	 0.5225461675	-0.241477
C	-1.3049361635	-0.6456500131	 0.3518640422	 0.054801
C	-1.5595152487	-1.6695887415	-0.7330293032	-0.168441
C	-0.2805222717	-2.4740029556	-1.0000832361	-0.218847
C	-0.2304316501	-2.8968370966	 0.5027759085	-0.285513
C	-1.4919881135	-2.0645644108	 0.7580342437	 0.333781
O	-2.5332205469	-2.4707752302	 1.5760494442	-0.461147
H	 1.0963723023	 1.4894789895	-0.1796166993	 0.126116
H	 0.0356966801	 0.7561295065	-1.4170124292	 0.112596
H	-0.6468940997	 1.867285962	-0.2013052233	 0.10543
H	-2.1740456362	-0.0177478489	 0.5628542718	 0.083554
H	-2.4154788722	-1.5944320932	-1.3932995092	 0.089657
H	-0.4433865781	-3.3204032892	-1.6696513043	 0.103964
H	 0.5744378427	-1.8958252296	-1.3595182413	 0.102872
H	-0.4318788179	-3.9618237886	 0.6352753053	 0.107645
H	 0.6602279988	-2.6174936213	 1.0713776679	 0.103318
H	-2.3945254575	-2.094154738	 2.4522954826	 0.28608
94.2709	169.3814	177.8757	200.8457	245.3584	274.0919	325.5621	387.4523	515.5914	564.7042	630.3327	778.0962	797.6081	830.9827	904.674	938.4998	962.1394	986.3646	1031.1681	1044.8007	1091.7082	1138.5515	1146.5412	1182.4406	1207.1827	1225.1798	1230.2877	1236.9267	1254.2201	1297.2703	1320.77	1338.5006	1448.5338	1472.6432	1483.1964	1486.6706	1506.3152	1515.1707	2982.753	3035.4842	3061.9285	3068.8474	3080.9242	3110.4253	3117.5261	3128.5461	3181.9487	3791.2871
COC1C2CCC12O	CO[C@H]1[C@H]2CC[C@@]12O	
InChI=1S/C6H10O2/c1-8-5-4-2-3-6(4,5)7/h4-5,7H,2-3H2,1H3	InChI=1S/C6H10O2/c1-8-5-4-2-3-6(4,5)7/h4-5,7H,2-3H2,1H3/t4-,5+,6+/m1/s1
