18
gdb 11245	4.8918	1.21047	1.06498	3.0487	74.8	-0.2418	-0.0254	0.2164	1126.443	0.153476	-347.830403	-347.822381	-347.821437	-347.863507	29.386	
C	 0.0506261877	 1.5942097982	-0.0431507116	-0.39779
C	 0.0348136591	 0.0631190502	 0.0370079951	-0.008138
C	 0.7128290756	-0.6353573373	-1.1737017581	-0.256704
C	 1.4630427287	-1.8749833019	-0.6096054979	-0.101524
C	 2.828694587	-2.0515532464	-1.2452504016	 0.1565
O	 3.2380192329	-3.0649723625	-1.7479444071	-0.249383
C	 1.5628788791	-1.547022839	 0.8707485768	-0.100935
C	 0.7971865419	-0.5121108638	 1.208483846	-0.064768
H	 1.0778594095	 1.9711528828	-0.0965187397	 0.11762
H	-0.4853405338	 1.9461636872	-0.9307090218	 0.11773
H	-0.4272790368	 2.042884786	 0.8339882382	 0.115556
H	-1.0154664506	-0.2577649752	 0.1110557232	 0.085259
H	 0.0091363482	-0.9048132263	-1.9643992637	 0.111378
H	 1.4424387617	 0.056284002	-1.6151008891	 0.103393
H	 0.9126935947	-2.8102584449	-0.7694222805	 0.096947
H	 3.459048889	-1.1304417102	-1.2042989175	 0.069794
H	 2.1641580034	-2.1392017792	 1.5516463213	 0.106658
H	 0.6799626625	-0.1302369196	 2.217766098	 0.09841
55.9905	67.4313	203.3893	243.4296	288.9355	345.6043	370.6003	425.7049	532.1536	622.1521	764.5466	774.1802	848.2797	871.1965	915.3799	946.5048	966.5958	979.6553	1037.5667	1059.45	1090.2791	1117.1272	1141.7052	1158.8143	1208.0014	1258.8938	1285.2889	1310.3485	1325.7716	1339.3143	1382.621	1409.8492	1420.7496	1486.1976	1497.6201	1499.5725	1680.5379	1833.7086	2842.1677	2984.0558	3023.3501	3029.4934	3036.3054	3099.1479	3101.0442	3104.8762	3177.6927	3204.9861
CC1CC(C=O)C=C1	C[C@H]1C[C@@H](C=O)C=C1	
InChI=1S/C7H10O/c1-6-2-3-7(4-6)5-8/h2-3,5-7H,4H2,1H3	InChI=1S/C7H10O/c1-6-2-3-7(4-6)5-8/h2-3,5-7H,4H2,1H3/t6-,7+/m1/s1
