19
gdb 85830	2.41691	1.26281	1.10256	2.85	77.55	-0.2301	0.0132	0.2433	1210.5064	0.156965	-419.194137	-419.184352	-419.183408	-419.228448	35.737	
C	 0.0333862014	 1.5627861231	-0.0556361052	-0.402749
C	 0.065205567	 0.0523528489	 0.0698018816	 0.030602
N	 1.0064874668	-0.6657788917	-0.814635116	-0.08028
C	 0.5097534305	-1.2148511281	-2.0563905524	-0.331074
C	 1.3811871538	-1.5944254255	 0.2599462472	-0.218929
C	 0.7983490287	-0.5862969576	 1.2960048353	 0.240786
O	 1.7317443746	 0.3151342548	 1.840339416	-0.457357
C	-0.0524915635	-1.1591706241	 2.3438053877	 0.229047
N	-0.6990758711	-1.6190086494	 3.1847841728	-0.339192
H	 1.0330680868	 1.9794477485	 0.0737211262	 0.143871
H	-0.3402442737	 1.8448047926	-1.045516476	 0.119252
H	-0.6346612799	 1.9998185981	 0.693131298	 0.126558
H	-0.9546670418	-0.3638114981	 0.0093084575	 0.076791
H	 0.1874241045	-0.4042515431	-2.7176510142	 0.127821
H	 1.3098385286	-1.7610755505	-2.5666267426	 0.126793
H	-0.3433175976	-1.905990288	-1.9159337129	 0.0965
H	 0.8238786599	-2.5444212654	 0.2510116782	 0.104648
H	 2.4537550755	-1.7981710649	 0.3510885174	 0.111858
H	 2.2604230795	-0.1489867994	 2.4992103014	 0.295055
74.4787	135.1382	187.2063	196.0662	208.6163	237.326	265.0238	271.8319	298.9354	372.2859	410.9214	507.2227	509.2545	592.21	624.2782	748.9635	811.104	921.3438	958.8661	992.3629	1023.9665	1072.472	1097.9604	1121.1527	1137.8447	1181.4137	1205.2276	1232.5632	1257.3473	1299.4651	1329.2614	1357.5145	1389.929	1407.2769	1452.239	1482.9898	1485.1197	1493.4193	1496.5859	1504.3793	2349.5756	2925.5645	2957.7165	2980.7227	3044.0883	3061.5815	3062.4629	3103.4625	3107.7501	3149.1915	3806.1318
CC1N(C)CC1(O)C#N	C[C@H]1N(C)C[C@]1(O)C#N	
InChI=1S/C6H10N2O/c1-5-6(9,3-7)4-8(5)2/h5,9H,4H2,1-2H3	InChI=1S/C6H10N2O/c1-5-6(9,3-7)4-8(5)2/h5,9H,4H2,1-2H3/t5-,6-/m1/s1
