19
gdb 116927	4.11077	0.61404	0.55718	1.8158	83.96	-0.2517	0.0162	0.2678	2003.7048	0.155839	-422.961365	-422.950957	-422.950013	-422.998765	35.455	
C	 0.7887020728	 1.3350371979	-0.3146725726	-0.219628
O	 0.9096550667	-0.0551607112	-0.5105675212	-0.228271
C	-0.3396038701	-0.6632058358	-0.7750889528	-0.205481
C	-0.1710556453	-2.0953476509	-0.9753665235	 0.039852
C	-0.0550342828	-3.2805051483	-1.1555285166	 0.170053
C	 0.0718990925	-4.7004295713	-1.3333758118	-0.172984
O	 0.1528729401	-5.2048048966	-2.6803609895	-0.243181
C	 1.3093444267	-5.3272176105	-1.8567263211	 0.098997
C	 2.5290148923	-4.5379473318	-2.2484971907	-0.425539
H	 0.3807671041	 1.8406292448	-1.2044952048	 0.106529
H	 0.138979336	 1.5732330689	 0.5426727913	 0.105769
H	 1.7909603058	 1.7210078364	-0.1168805644	 0.132437
H	-1.0400279256	-0.4850546578	 0.0599359703	 0.11718
H	-0.8037816909	-0.2170640582	-1.6724045365	 0.12013
H	-0.5583416249	-5.3039457511	-0.6800875665	 0.111523
H	 1.5000947086	-6.3493368853	-1.5218977374	 0.092983
H	 2.2658205032	-3.5058355073	-2.4877829396	 0.145743
H	 3.2563723948	-4.5338281441	-1.4298628279	 0.12507
H	 3.0068628459	-4.9922524179	-3.1225544247	 0.128817
27.0822	58.5392	73.146	128.444	155.1344	190.1971	229.378	293.5471	327.7807	374.9293	389.2634	445.545	555.7916	613.5745	764.2498	798.4214	876.124	954.5393	978.043	1016.4618	1025.7468	1077.5278	1131.136	1153.9988	1164.1902	1182.7056	1198.554	1220.394	1254.0166	1288.9341	1378.6695	1410.04	1413.6957	1447.5384	1477.144	1484.2717	1484.8278	1493.5938	1496.5594	1515.7142	2366.7718	2944.6664	2962.5904	2969.5656	3012.6357	3041.3656	3082.4284	3104.6549	3108.5569	3122.2342	3140.4924
COCC#CC1OC1C	COCC#C[C@H]1O[C@H]1C	
InChI=1S/C7H10O2/c1-6-7(9-6)4-3-5-8-2/h6-7H,5H2,1-2H3	InChI=1S/C7H10O2/c1-6-7(9-6)4-3-5-8-2/h6-7H,5H2,1-2H3/t6-,7+/m0/s1
