21
gdb 76971	2.20199	1.15603	0.8804	3.4683	85.25	-0.2388	-0.0141	0.2246	1397.4015	0.181289	-387.074947	-387.065409	-387.064464	-387.109975	35.176	
C	-0.2029866512	 0.9269960416	-2.0189088053	-0.413058
C	-0.0070503447	-0.1988368497	-1.0240915964	-0.045281
C	 1.3668936354	-0.5812400615	-0.4545640156	-0.144226
C	 2.5866902774	 0.1857753414	-0.7777046723	 0.16813
O	 3.681043964	-0.3133225078	-0.9002432271	-0.277766
C	 0.2598640678	 0.0174036162	 0.4323093772	-0.039475
C	 0.3697536021	 1.368611396	 1.0687013779	 0.016164
C	-0.6493897772	 1.7780253508	 2.1063924466	-0.275121
C	 0.7691493225	 1.4790238591	 2.5206351773	-0.266904
H	 0.3831364046	 1.817246109	-1.7823161585	 0.12331
H	 0.0773083168	 0.6069708812	-3.0276681715	 0.128257
H	-1.2560280921	 1.2270618302	-2.0444492614	 0.125825
H	-0.6151209721	-1.0710308294	-1.2508139429	 0.098833
H	 1.5664827376	-1.6410942478	-0.3346395458	 0.102082
H	 2.4530867011	 1.2820842072	-0.9058221705	 0.061503
H	-0.1813059966	-0.7202914163	 1.0993094047	 0.092153
H	 0.722757556	 2.1680221966	 0.4268292516	 0.084858
H	-0.986236919	 2.8085899232	 2.1168257016	 0.114764
H	-1.4176025506	 1.058454745	 2.3706056213	 0.113201
H	 0.9557432226	 0.557212223	 3.061559419	 0.116393
H	 1.4073520256	 2.3036325319	 2.8175487499	 0.116357
49.1369	89.8362	129.243	175.2004	199.001	228.8143	280.6223	309.404	409.4196	440.1486	506.7577	578.0809	730.9978	759.8449	818.6552	831.2078	874.7536	913.2554	933.4494	964.5452	986.391	1007.5443	1050.1712	1057.0777	1064.8277	1080.043	1104.2386	1129.4506	1151.3939	1187.5526	1198.1069	1211.5111	1226.928	1267.3785	1321.6521	1338.8299	1405.3285	1422.5801	1447.5739	1465.2777	1470.4845	1495.7926	1503.8875	1512.4172	1805.4556	2883.9942	3040.4678	3097.5655	3118.2076	3124.9522	3130.4575	3135.9112	3140.3445	3166.2005	3169.8049	3209.2499	3225.0651
CC1C(C=O)C1C1CC1	C[C@H]1[C@@H](C=O)[C@H]1C1CC1	
InChI=1S/C8H12O/c1-5-7(4-9)8(5)6-2-3-6/h4-8H,2-3H2,1H3	InChI=1S/C8H12O/c1-5-7(4-9)8(5)6-2-3-6/h4-8H,2-3H2,1H3/t5-,7+,8+/m0/s1
