16
gdb 116661	2.77882	0.87481	0.69974	5.2618	76.73	-0.2469	-0.0365	0.2104	1569.5139	0.11947	-437.839164	-437.828788	-437.827844	-437.876435	34.36	
C	 0.5161699221	 1.0491999862	-0.5355566959	-0.253464
O	-0.1189888718	 0.3250203118	 0.5155497281	-0.189675
C	 0.5972830146	-0.6763412017	 1.0452510443	 0.142507
N	 0.1196562897	-1.3489106503	 2.0012608944	-0.255312
C	 0.8834208078	-2.458121941	 2.5530113172	-0.170405
C	 0.026131186	-3.7310530967	 2.3506287807	 0.180048
O	-0.2672594035	-4.4922538325	 3.2270284842	-0.229471
C	 2.2089227819	-2.7213505758	 1.9840958143	 0.291144
C	 3.2753223422	-2.9673592861	 1.4840125714	-0.469856
H	 0.7639517075	 0.394054893	-1.3787175169	 0.132717
H	-0.2018188368	 1.8007785225	-0.8643262982	 0.151849
H	 1.4254108665	 1.5489967678	-0.1823092654	 0.133892
H	 1.5845351404	-0.8361389303	 0.5938528078	 0.099207
H	 0.9677041376	-2.3179184716	 3.6365081135	 0.137264
H	-0.2983334288	-3.8667693787	 1.296484629	 0.090115
H	 4.2281365246	-3.1884395867	 1.0688578614	 0.209438
37.0133	52.9474	76.6721	112.9197	150.5989	171.1239	210.4554	242.8179	363.0617	407.0001	431.8631	490.5655	517.4922	639.925	662.9276	700.2994	921.6251	989.3994	1001.6091	1042.6278	1049.63	1086.0742	1176.3845	1181.5839	1236.7942	1291.5783	1319.0101	1401.0735	1411.2479	1486.1298	1495.1516	1499.1451	1756.7085	1848.2267	2218.3214	2905.2398	3019.9617	3046.8802	3052.2329	3088.1316	3151.1747	3497.7942
COC=NC(C=O)C#C	COC=N[C@@H](C=O)C#C	
InChI=1S/C6H7NO2/c1-3-6(4-8)7-5-9-2/h1,4-6H,2H3	InChI=1S/C6H7NO2/c1-3-6(4-8)7-5-9-2/h1,4-6H,2H3/t6-/m1/s1
