20
gdb 85413	2.27288	1.46547	1.20187	3.0451	75.01	-0.242	0.0269	0.2689	1136.5895	0.170199	-440.340944	-440.33164	-440.330696	-440.374473	35.942	
C	-0.0730887017	 1.5910325842	 0.0669641559	-0.4117
C	 0.0266357283	 0.0653053715	 0.0465101439	 0.216814
C	-1.3781942392	-0.5571738347	-0.0574197718	-0.410158
N	 0.8916009772	-0.3957354644	-1.0458579621	-0.321869
C	 1.6349789936	-1.5165012399	-0.7722853417	 0.388563
O	 2.3058822357	-2.140632532	-1.5635987291	-0.378091
C	 1.4361299443	-1.8046190755	 0.7207463774	-0.373904
C	 0.8008352933	-0.5211036575	 1.2773033821	 0.116552
O	 1.7766526109	 0.3669456109	 1.7938318455	-0.431258
H	 0.9119601602	 2.0560679868	 0.1213076971	 0.119458
H	-0.5815728589	 1.9524657738	-0.8337306379	 0.109423
H	-0.6511777309	 1.9237141452	 0.9339332325	 0.12656
H	-1.8620748776	-0.2561003541	-0.9923227075	 0.117275
H	-1.3365652723	-1.6502883556	-0.0413248131	 0.121326
H	-2.0123885155	-0.2254569874	 0.7709613811	 0.122481
H	 0.75437843	-0.1114712245	-2.0046105718	 0.245244
H	 0.7761661805	-2.6730699525	 0.8167598724	 0.133557
H	 2.3771013857	-2.0507213067	 1.2160041417	 0.133654
H	 0.1142130632	-0.7040668418	 2.1071492817	 0.089583
H	 2.4658606133	 0.4756404243	 1.1282969937	 0.286491
93.4522	110.6062	198.3031	233.0049	256.7576	321.5448	333.5127	344.1483	379.467	412.5826	483.9207	506.0225	541.0152	585.8956	616.3214	671.7943	811.9838	880.9017	890.695	921.6398	938.7372	973.4329	1003.1071	1018.458	1077.2436	1163.0487	1189.9409	1200.7875	1226.4122	1248.7031	1283.6185	1308.1981	1340.5132	1396.6081	1403.8772	1419.6581	1435.5982	1460.2517	1476.8483	1483.6938	1501.6868	1502.8411	1832.0375	3032.778	3041.5655	3064.1899	3088.9643	3102.3481	3108.5811	3111.2417	3125.233	3140.1936	3619.2701	3795.6191
CC1(C)NC(=O)CC1O	CC1(C)NC(=O)C[C@H]1O	
InChI=1S/C6H11NO2/c1-6(2)4(8)3-5(9)7-6/h4,8H,3H2,1-2H3,(H,7,9)	InChI=1S/C6H11NO2/c1-6(2)4(8)3-5(9)7-6/h4,8H,3H2,1-2H3,(H,7,9)/t4-/m1/s1
