21
gdb 95385	2.51802	1.63288	1.14847	0.9424	76.8	-0.2419	0.064	0.3058	1112.5265	0.185387	-424.24381	-424.235778	-424.234834	-424.276562	31.713	
O	 0.203100287	 1.3246437494	-0.3724946583	-0.427578
C	 0.0371203245	-0.0154653866	 0.0542343649	 0.089484
C	 0.3690438229	-0.2613183948	 1.537533718	-0.125631
O	-0.3248991587	-1.4467825258	 1.8756459179	-0.263596
C	-1.5793083556	-1.4372769928	 1.1803051338	 0.126476
C	-2.7567765754	-0.9127053972	 2.0349830678	-0.227297
C	-3.5662597084	-0.0231996905	 1.0783054115	-0.209257
C	-2.4774138068	 0.6708446838	 0.241992196	-0.208706
C	-1.4397082453	-0.4440799927	-0.0165866465	-0.050293
H	 1.1438578569	 1.5255403701	-0.3719587351	 0.28687
H	 0.6419862757	-0.696397877	-0.5621139813	 0.072884
H	 1.4331825957	-0.4232278599	 1.7370286016	 0.097699
H	 0.0335120964	 0.6068423616	 2.129765059	 0.089687
H	-1.7551509143	-2.4670855871	 0.8557036264	 0.076247
H	-3.340022541	-1.7189295716	 2.4875609784	 0.095114
H	-2.3436131288	-0.3109923087	 2.8528793087	 0.106274
H	-4.2006622907	-0.6431595639	 0.4318900972	 0.095241
H	-4.2244832818	 0.6799200114	 1.5971109729	 0.095097
H	-2.8529034938	 1.1129232316	-0.6838455354	 0.098501
H	-2.0234958643	 1.483580325	 0.8180414016	 0.1105
H	-1.6555453139	-0.9411967244	-0.9651952591	 0.072285
59.1549	173.58	203.8232	253.1052	256.9489	368.4298	424.6296	500.8413	535.2414	590.1358	614.6023	704.1567	780.8718	861.0316	870.0197	902.8553	920.5169	943.4099	974.9712	1017.518	1030.9195	1035.9999	1080.4719	1094.2587	1109.3873	1138.9333	1176.7599	1190.3892	1224.6602	1231.5948	1249.6497	1281.2053	1302.1689	1309.3607	1326.7662	1336.3685	1343.3824	1360.9274	1373.8624	1383.3186	1430.6959	1485.6006	1492.8586	1505.5234	1521.0195	2963.7216	2992.1333	3026.9742	3043.7929	3052.8673	3057.8753	3072.1467	3076.5048	3086.35	3098.6302	3108.2696	3824.2326
OC1COC2CCCC12	O[C@H]1CO[C@H]2CCC[C@@H]12	
InChI=1S/C7H12O2/c8-6-4-9-7-3-1-2-5(6)7/h5-8H,1-4H2	InChI=1S/C7H12O2/c8-6-4-9-7-3-1-2-5(6)7/h5-8H,1-4H2/t5-,6-,7-/m0/s1
