15
gdb 5422	3.32598	1.86729	1.20487	5.6823	71.77	-0.2201	-0.0238	0.1963	950.8882	0.119495	-362.723781	-362.716119	-362.715175	-362.757118	27.309	
C	 0.004789596	 1.5061496043	 0.0648391064	-0.50833
C	 0.0227627656	 0.0163686147	-0.0455289078	 0.235742
C	-0.0420510798	-0.8366869153	-1.145522709	 0.114812
C	-0.1503452781	-0.4483173215	-2.5416086454	 0.069757
O	-0.204279011	-1.2228548599	-3.4753865944	-0.296788
C	 0.0174512008	-2.181965215	-0.6542180232	-0.235818
C	 0.1149662859	-2.1140177492	 0.7046255108	-0.07539
N	 0.1171288346	-0.7765584805	 1.0602547243	-0.291643
H	 0.9206561917	 1.8880845733	 0.5318921727	 0.137389
H	-0.0788272573	 1.9661740015	-0.920629925	 0.151971
H	-0.8422849721	 1.8566425843	 0.6668389685	 0.137238
H	-0.1832223034	 0.6503143219	-2.7237998524	 0.047166
H	-0.0113209872	-3.0693837686	-1.2653365407	 0.123836
H	 0.1831638764	-2.8829455354	 1.4570720876	 0.12772
H	 0.179630558	-0.4327254148	 2.0039652176	 0.262339
18.3348	147.9152	191.7963	211.434	301.4721	319.9618	529.656	530.2111	630.9549	637.7131	664.6414	736.6531	796.7733	865.8785	918.5979	980.8956	1028.3387	1058.286	1074.8797	1101.1937	1160.1544	1272.7979	1332.4593	1406.9887	1414.7613	1448.8999	1472.1178	1479.8531	1497.1054	1535.306	1611.0648	1776.8032	2859.2358	3024.4537	3071.0496	3139.038	3260.6707	3280.9768	3662.7606
CC1=C(C=O)C=CN1	Cc1c(C=O)cc[nH]1	
InChI=1S/C6H7NO/c1-5-6(4-8)2-3-7-5/h2-4,7H,1H3	InChI=1S/C6H7NO/c1-5-6(4-8)2-3-7-5/h2-4,7H,1H3
