21
gdb 103562	2.22762	1.24191	1.16101	2.2799	78.7	-0.2475	-0.0244	0.223	1233.1959	0.179591	-424.238777	-424.228626	-424.227682	-424.273511	37.61	
C	 0.1025061517	 1.5209667267	 0.0077124671	-0.399367
C	-0.0470595834	 0.0055676495	 0.1773275867	-0.212017
C	-1.4837763295	-0.5256972429	 0.0509658974	 0.25783
C	-2.4512747399	 0.1006565155	 1.0497508459	-0.468141
C	-1.969118993	-0.5653184889	-1.4460578473	-0.377997
C	-1.4426505929	-2.0006484171	-1.4787745826	 0.340526
O	-0.879556601	-2.6745264449	-2.2982547718	-0.315257
C	-1.4850247351	-2.1153370325	 0.0394513972	 0.024966
O	-0.4882412294	-2.8570685179	 0.6732634613	-0.428396
H	 1.1583333698	 1.8065063708	 0.0371749202	 0.118526
H	-0.3047486345	 1.8641257363	-0.9496380064	 0.116069
H	-0.4080850994	 2.0728586626	 0.802351441	 0.121323
H	 0.5851352858	-0.4987912156	-0.5655390029	 0.096871
H	 0.345598442	-0.3015463069	 1.1531813103	 0.112997
H	-2.5752609014	 1.1739206587	 0.8757980159	 0.122906
H	-3.4417805574	-0.3610712991	 0.9762987778	 0.111527
H	-2.0941717274	-0.0334356386	 2.0771137315	 0.125583
H	-3.058666457	-0.5167603926	-1.5361132207	 0.124557
H	-1.5181849642	 0.1268689029	-2.159659291	 0.129896
H	-2.4731837124	-2.4601134319	 0.3767614082	 0.099888
H	 0.1057998186	-3.179992084	-0.0160804278	 0.297709
79.6928	106.6875	154.1391	175.9638	213.3631	236.3966	244.5591	300.5637	306.3985	340.0612	382.2693	440.1896	554.9969	610.2003	660.88	753.4781	759.4379	784.246	847.5964	878.425	956.5362	1014.1627	1021.8198	1043.4308	1050.8403	1105.1546	1132.0616	1136.9128	1189.9473	1228.192	1235.7552	1270.8295	1318.512	1352.8915	1375.704	1407.0651	1410.9405	1415.684	1447.5806	1480.189	1495.3087	1496.2551	1504.462	1513.2904	1868.5631	3005.7307	3020.8478	3028.1525	3038.3045	3061.7203	3064.4624	3093.6626	3101.6007	3103.4517	3112.6333	3125.4191	3773.5832
CCC1(C)CC(=O)C1O	CC[C@@]1(C)CC(=O)[C@H]1O	
InChI=1S/C7H12O2/c1-3-7(2)4-5(8)6(7)9/h6,9H,3-4H2,1-2H3	InChI=1S/C7H12O2/c1-3-7(2)4-5(8)6(7)9/h6,9H,3-4H2,1-2H3/t6-,7+/m1/s1
