16
gdb 129842	3.87551	1.06559	0.83716	1.4851	76.58	-0.1916	0.0235	0.2151	1310.2147	0.12727	-430.26796	-430.259428	-430.258484	-430.301279	31.579	
N	 0.3322940629	 1.4468633563	 0.1477391934	-0.608964
C	 0.068652888	 0.0784896241	 0.0498418227	 0.408611
C	-1.1180433892	-0.6313266448	 0.0409533349	-0.386275
C	-0.6988028617	-1.9828790308	 0.0140123347	 0.459872
N	-1.4673598771	-3.1425213456	-0.0126657002	-0.374808
C	-2.8307151059	-3.2512670832	-0.0271051925	 0.082249
N	-3.6299920092	-2.2550059793	-0.0161302549	-0.461988
N	 0.6227075765	-2.1198118883	 0.0000444707	-0.339886
N	 1.0721954139	-0.8307563384	 0.0201111344	-0.248016
H	 0.980176412	 1.781339672	-0.5563129863	 0.249026
H	-0.5191170024	 1.9901787931	 0.0970262186	 0.25825
H	-2.127708302	-0.2650418393	 0.0328823737	 0.134175
H	-0.9287718936	-3.993514804	-0.0299944955	 0.256814
H	-3.1384619602	-4.3038010372	-0.0474967148	 0.08631
H	-4.5913633592	-2.586252597	-0.0292283335	 0.218079
H	 2.0563991973	-0.6589962275	 0.1249604047	 0.26655
73.6748	159.1554	163.9495	182.3424	263.2178	315.9443	333.8077	428.8258	459.2514	512.2368	560.7427	658.6211	720.2743	731.2293	768.768	792.9989	802.6374	823.7231	1000.7034	1037.973	1043.0392	1101.0265	1132.2607	1172.14	1189.7699	1248.9238	1346.8096	1409.1597	1433.7879	1490.6326	1536.4697	1596.978	1626.187	1660.6245	1724.71	3043.1188	3313.2903	3515.9016	3528.6317	3626.653	3646.9478	3688.123
NC1=CC(NC=N)=NN1	Nc1cc(NC=N)n[nH]1	
InChI=1S/C4H7N5/c5-2-7-4-1-3(6)8-9-4/h1-2H,(H5,5,6,7,8,9)	InChI=1S/C4H7N5/c5-2-7-4-1-3(6)8-9-4/h1-2H,(H5,5,6,7,8,9)
