16
gdb 19622	4.71702	2.00746	1.84113	1.7384	67.65	-0.2282	0.0791	0.3073	765.1082	0.131082	-346.508518	-346.502494	-346.501549	-346.538344	24.875	
C	-0.1067094174	 1.4766326235	-0.030083571	-0.33326
C	 1.2388503427	 0.764856842	-0.011754817	-0.342585
C	-0.0384212039	-0.0118466875	 0.0217939384	 0.456866
C	-0.4658178552	-1.0186014996	 1.0663384369	-0.237866
C	-1.6718251687	-1.7290866552	 0.4119461588	 0.092169
O	-1.9381547617	-1.0958167791	-0.8389959994	-0.290823
C	-0.4900220505	-1.042719351	-1.0182422432	-0.051277
C	-0.2932364269	-2.1693624336	 0.0714750671	-0.13015
H	-0.4108796968	 2.0088590033	 0.8654630286	 0.113302
H	-0.4246351507	 1.9459703404	-0.955585024	 0.115582
H	 1.8240331234	 0.7613789248	-0.9266102395	 0.111275
H	 1.8358013236	 0.8212886676	 0.8929303827	 0.112561
H	-0.284043896	-1.0183138657	 2.1335586215	 0.091099
H	-2.4844584257	-2.1997520478	 0.9493746852	 0.108764
H	-0.1761984616	-1.0258079031	-2.0602561877	 0.083653
H	 0.2413045355	-3.1077655189	 0.1114513624	 0.10069
170.5514	244.2774	269.6655	483.6417	577.1546	609.2805	754.3967	765.632	771.7846	782.1626	816.6665	864.2607	895.6604	908.2131	940.0642	962.0012	978.156	988.08	1022.7612	1048.7803	1055.8017	1060.423	1075.0418	1081.5265	1152.1647	1170.2424	1181.3136	1207.3391	1257.0259	1268.2621	1361.575	1417.4313	1463.0082	1512.3144	3119.6913	3127.074	3141.8406	3197.4408	3197.8228	3203.95	3213.7792	3220.3056
C1CC11C2C3OC1C23	C1CC21[C@H]1[C@H]3O[C@@H]2[C@@H]13	
InChI=1S/C7H8O/c1-2-7(1)4-3-5(4)8-6(3)7/h3-6H,1-2H2	InChI=1S/C7H8O/c1-2-7(1)4-3-5(4)8-6(3)7/h3-6H,1-2H2/t3-,4+,5-,6+/m0/s1
