21
gdb 117268	4.43018	0.71827	0.6659	1.189	79.84	-0.2409	-0.0113	0.2297	1730.5753	0.181224	-424.230237	-424.220207	-424.219263	-424.266942	35.425	
O	-0.420382025	 1.5847896416	-0.1787863187	-0.425399
C	-0.0768921031	 0.2205616032	 0.0196746298	-0.076475
C	-1.3720064593	-0.5764679741	 0.0091577267	-0.28871
C	-1.1704842301	-2.0669802231	 0.2190953506	 0.354124
O	-0.0800464362	-2.5347886483	 0.4727235587	-0.315825
C	-2.394099284	-2.9413082281	 0.0439511486	-0.059714
C	-2.6308326047	-3.4781892946	-1.4145173523	-0.223146
C	-2.987625612	-4.85889024	-0.8032626256	-0.209318
C	-2.3184701365	-4.41223255	 0.5233170873	-0.233084
H	 0.3907109643	 2.1008258598	-0.1612305847	 0.286922
H	 0.5908693963	-0.1500108546	-0.7716591852	 0.098708
H	 0.442315103	 0.0645228642	 0.975386679	 0.103925
H	-2.0459494787	-0.2027595507	 0.792365624	 0.13186
H	-1.9102157225	-0.4145555487	-0.9343023143	 0.130084
H	-3.2874230611	-2.4219993795	 0.4042945398	 0.076441
H	-3.387964435	-2.9697710966	-2.0152344169	 0.103665
H	-1.694138016	-3.5111056185	-1.9781334655	 0.115289
H	-4.0686244854	-4.9854372452	-0.6961660669	 0.103019
H	-2.5835402206	-5.7436415669	-1.3002092697	 0.10215
H	-1.2738105622	-4.7235217514	 0.5918349541	 0.127488
H	-2.8270007112	-4.6577581685	 1.458046601	 0.097995
28.6041	67.0865	93.566	102.014	148.5301	216.5338	273.9622	296.3757	319.6747	404.433	557.7345	606.0049	697.4095	774.6833	786.2285	808.9985	878.5605	930.886	935.07	950.5119	986.5025	1007.7845	1035.7359	1053.757	1084.0669	1117.3565	1143.2142	1205.4225	1211.4688	1235.2727	1251.6436	1253.5244	1260.137	1279.9144	1281.0505	1301.5758	1336.0594	1383.317	1446.0675	1470.0603	1477.8577	1487.0599	1508.033	1522.4354	1790.5153	2995.2038	3023.8184	3024.9554	3057.5355	3058.1003	3060.6071	3062.5254	3072.0761	3103.5338	3119.1782	3132.7744	3831.0219
OCCC(=O)C1CCC1	OCCC(=O)C1CCC1	
InChI=1S/C7H12O2/c8-5-4-7(9)6-2-1-3-6/h6,8H,1-5H2	InChI=1S/C7H12O2/c8-5-4-7(9)6-2-1-3-6/h6,8H,1-5H2
