17
gdb 53113	2.6239	1.04727	0.83003	3.1415	79.54	-0.2291	-0.0203	0.2088	1417.6742	0.132592	-421.801895	-421.792048	-421.791104	-421.838781	34.138	
C	 0.2561347338	 1.5749968142	-0.3279175893	-0.501051
C	 0.15953277	 0.133943799	-0.1539124323	 0.118889
C	 0.0777953865	-1.0574623068	-0.0021623349	 0.077908
C	-0.0565894217	-2.4820287186	 0.168878571	-0.326945
C	 0.2593349764	-3.1693874163	 1.5454355354	 0.106289
O	 0.0978454295	-2.2287822265	 2.578424423	-0.416486
C	-0.9773019019	-4.1029071567	 1.364289124	-0.381588
C	-1.4628923618	-3.148983386	 0.2594188453	 0.402589
O	-2.5120587022	-2.9415099275	-0.2648074175	-0.281749
H	 1.0755029661	 1.8441503452	-1.0037023097	 0.145876
H	-0.6692782769	 1.9844065855	-0.7479809156	 0.152145
H	 0.4353292974	 2.0765939358	 0.629469689	 0.150946
H	 0.490315998	-3.027804701	-0.6135961778	 0.127751
H	 1.2334839859	-3.6692075153	 1.5932792651	 0.076542
H	 0.1437436815	-2.6958478425	 3.4188985621	 0.288715
H	-0.7327282086	-5.0932982973	 0.9661346736	 0.130087
H	-1.6363111518	-4.2120560653	 2.2285296886	 0.130082
17.2084	60.555	77.1339	105.4234	241.8221	247.1985	282.9516	376.9969	385.5724	398.8467	419.3664	506.0543	575.8249	663.7528	740.7812	834.5786	876.7113	914.4718	976.8767	1033.6168	1048.6903	1051.4742	1053.9287	1104.3458	1185.8525	1202.7003	1211.6156	1227.0741	1294.5722	1346.6942	1410.3529	1413.8138	1429.0881	1476.9231	1477.7616	1909.0004	2373.547	3008.7901	3026.6869	3035.9611	3059.017	3087.1003	3089.0932	3123.9912	3817.1905
CC#CC1C(O)CC1=O	CC#C[C@H]1[C@@H](O)CC1=O	
InChI=1S/C7H8O2/c1-2-3-5-6(8)4-7(5)9/h5-6,8H,4H2,1H3	InChI=1S/C7H8O2/c1-2-3-5-6(8)4-7(5)9/h5-6,8H,4H2,1H3/t5-,6-/m0/s1
