12
gdb 25115	3.1024	1.59821	1.22651	4.2937	64.17	-0.2783	-0.0916	0.1867	952.9695	0.078312	-468.825334	-468.818297	-468.817352	-468.857465	25.424	
N	-0.2846659954	 1.305827488	-0.0168429145	-0.472092
C	-0.0753706528	 0.0744535162	-0.178871943	 0.367226
O	 1.1584106498	-0.3805399098	-0.6386296507	-0.233112
C	 1.4936621535	-1.6864086007	-0.8625320612	 0.134717
N	 0.7638012776	-2.6598343353	-1.1856635754	-0.252918
C	-0.6196355638	-2.4762973157	-1.4038791655	 0.382109
O	-1.1506536927	-2.7447859311	-2.4430772434	-0.280462
N	-1.3618127028	-2.0478849479	-0.2756954738	-0.205597
C	-1.1234295782	-0.9072593299	 0.2271193389	-0.017118
H	 0.5101725897	 1.8695367885	-0.3238631628	 0.248752
H	 2.57082407	-1.7964463246	-0.7636333278	 0.161637
H	-1.7524713448	-0.5433910877	 1.0391164394	 0.166857
64.8295	118.5331	262.5332	306.0075	357.1851	435.6041	480.7184	589.5855	631.9066	713.8527	736.6039	820.1895	840.6161	901.8099	913.4712	964.1597	983.3538	1017.8888	1088.99	1217.1618	1287.9563	1382.4139	1419.9525	1712.3015	1729.7711	1748.994	1840.9628	3144.5742	3180.1053	3482.8858
N=C1OC=NC(=O)N=C1	[NH][C]1OC=NC(=O)N=C1	
InChI=1S/C4H3N3O2/c5-3-1-6-4(8)7-2-9-3/h1-2,5H	InChI=1S/C4H3N3O2/c5-3-1-6-4(8)7-2-9-3/h1-2,5H
