25
gdb 118469	1.76354	0.97976	0.74341	2.0889	85.54	-0.2502	0.0727	0.3229	1691.7664	0.22622	-426.627433	-426.615501	-426.614557	-426.665145	42.779	
C	-1.749874492	 1.5323999568	 1.6181596081	-0.379899
C	-1.7433113894	 0.0034248004	 1.5326448	-0.175589
C	-1.4592236914	-0.5096516996	 0.1144002565	-0.184407
C	-1.4249921519	-2.043093857	-0.0191097956	 0.004258
C	-2.8289570129	-2.6504157067	-0.012589618	-0.09632
O	-2.7082944688	-4.0674325032	 0.0272013153	-0.42423
C	-0.5929722087	-2.518441997	-1.2366119616	 0.110863
C	-1.0607665969	-1.9822519907	-2.5857336163	-0.385167
O	 0.7691737586	-2.105192567	-1.1007563759	-0.438488
H	-1.9393039185	 1.8759211988	 2.6400410461	 0.109431
H	-0.7886005927	 1.9493805375	 1.2979932614	 0.11599
H	-2.5250985772	 1.9618529803	 0.9735960827	 0.112284
H	-0.9841236219	-0.3976885513	 2.2172197676	 0.093805
H	-2.7062236043	-0.381448497	 1.8916558879	 0.09403
H	-2.2051996921	-0.0917403144	-0.5756494955	 0.087674
H	-0.4864593725	-0.1252074047	-0.2121361698	 0.112285
H	-0.9138601435	-2.4517428028	 0.8670039164	 0.062558
H	-3.3859209427	-2.2829423918	 0.8621750695	 0.087567
H	-3.3820439772	-2.3239826987	-0.9078919931	 0.087837
H	-3.5916489875	-4.4460989009	 0.0064394818	 0.286986
H	-0.6483246178	-3.6147281442	-1.2603825286	 0.084811
H	-1.0201251453	-0.8897714356	-2.6143047313	 0.121282
H	-0.4064638017	-2.363280109	-3.374180986	 0.1222
H	-2.0829249363	-2.3014604562	-2.8071535527	 0.113066
H	 1.1198239448	-2.5110821962	-0.3013112587	 0.277175
57.2713	67.1995	82.8504	106.9906	162.0209	215.112	228.6395	245.4632	262.5268	281.226	286.4623	315.129	329.5241	429.1893	483.1413	523.6669	599.4188	743.7023	787.658	854.3425	902.2407	919.9122	980.1462	990.6057	1016.0547	1054.0864	1066.9626	1071.488	1113.9671	1136.1835	1152.4525	1153.8723	1239.7632	1250.2067	1281.1382	1291.8693	1298.064	1326.115	1342.0457	1359.9048	1385.8971	1393.0563	1400.8732	1411.748	1451.0367	1459.0636	1483.739	1487.5926	1495.6236	1499.1358	1502.4052	1511.7722	1523.355	2969.5587	2977.9288	3003.8119	3010.6537	3018.5701	3021.5474	3029.0159	3043.0235	3049.4768	3072.1284	3096.1823	3100.7738	3121.9336	3123.5074	3812.8669	3834.0056
CCCC(CO)C(C)O	CCC[C@@H](CO)[C@@H](C)O	
InChI=1S/C7H16O2/c1-3-4-7(5-8)6(2)9/h6-9H,3-5H2,1-2H3	InChI=1S/C7H16O2/c1-3-4-7(5-8)6(2)9/h6-9H,3-5H2,1-2H3/t6-,7+/m1/s1
