22
gdb 89710	3.29082	1.00473	0.92759	2.1563	83.35	-0.2298	0.0707	0.3005	1379.5287	0.192149	-404.318934	-404.309036	-404.308092	-404.353491	37.718	
C	-0.0636757999	 1.5203797116	 0.067237779	-0.437726
C	-0.0552911137	 0.0056846219	 0.0982547564	 0.255688
C	-1.2676210146	-0.6514597709	-0.5300565238	-0.461833
N	 1.2795326585	-0.6020217829	-0.1408261509	-0.421088
C	 0.6573296227	-0.7032057852	 1.1866471348	 0.317804
C	 1.358334938	-0.1724587192	 2.4442997601	-0.300401
C	 1.3251068477	-1.6092615667	 3.0145803246	 0.13431
O	 0.8992970842	-1.6647076991	 4.356108482	-0.431756
C	 0.3096185754	-2.018664505	 1.9008363417	-0.350361
H	 0.855161358	 1.9234152589	 0.4982197894	 0.127737
H	-0.1409403996	 1.8857617652	-0.963296287	 0.114449
H	-0.9161944546	 1.9187189033	 0.6293087936	 0.110885
H	-1.3372390893	-0.4003914735	-1.5952565976	 0.119528
H	-1.2293090543	-1.7412970012	-0.4400836832	 0.112523
H	-2.1925757511	-0.3090545727	-0.0518904445	 0.120633
H	 1.1708491878	-1.4844359301	-0.638714599	 0.21678
H	 2.3367552025	 0.2901235456	 2.3048336938	 0.109724
H	 0.7179013904	 0.4866085174	 3.0384960802	 0.111177
H	 2.2886074778	-2.1190732693	 2.8794785979	 0.070965
H	 0.8976593225	-2.5856617314	 4.6359260235	 0.281807
H	-0.7124886982	-2.0296041564	 2.293762384	 0.10691
H	 0.5010508899	-2.9523801704	 1.3631433552	 0.092249
49.8925	146.7881	178.1607	181.6494	198.6631	264.5505	279.8794	340.0066	344.2152	387.4554	454.1876	464.2431	477.7793	539.6538	691.5751	729.7775	822.7875	845.2845	912.0225	951.126	959.0576	970.5509	983.8424	1031.16	1037.3744	1059.0599	1074.0415	1138.9821	1153.8375	1166.182	1197.6737	1212.767	1241.7851	1258.8128	1273.3684	1312.3356	1328.9375	1408.9194	1419.5371	1422.1707	1451.5293	1456.9851	1477.5066	1483.938	1487.9879	1498.9078	1518.5241	3005.2335	3022.5698	3029.3909	3037.9613	3060.4104	3081.834	3087.7219	3095.0162	3103.8648	3125.4191	3127.8925	3466.657	3814.3616
CC1(C)NC11CC(O)C1	CC1(C)N[C@]21C[C@@H](O)C2	
InChI=1S/C7H13NO/c1-6(2)7(8-6)3-5(9)4-7/h5,8-9H,3-4H2,1-2H3	InChI=1S/C7H13NO/c1-6(2)7(8-6)3-5(9)4-7/h5,8-9H,3-4H2,1-2H3/t5-,7-
