17
gdb 11362	6.04277	1.2589	1.06226	3.7475	71.89	-0.2262	0.0047	0.2309	1108.0938	0.143108	-360.081689	-360.073592	-360.072648	-360.114669	29.366	
C	-0.0616456333	 1.5388558418	-0.0645550052	-0.365332
C	 0.0313130958	 0.0174351264	 0.0481787026	-0.301174
C	 0.7605796122	-0.4477662213	 1.2727269105	 0.393076
N	 1.2759215006	 0.3029138369	 2.17009292	-0.30044
C	 1.8781560322	-0.5906636303	 3.1661988453	-0.238706
C	 1.6214304264	-2.0172764684	 2.6872133348	 0.380393
N	 1.9834115481	-3.0865670742	 3.2689563692	-0.552324
N	 0.9181889926	-1.8187805176	 1.5002034673	-0.38061
H	 0.9336685395	 1.9876662474	-0.0958364972	 0.137535
H	-0.6020642741	 1.8199061188	-0.9725789306	 0.109269
H	-0.5818060364	 1.9612683912	 0.7980260116	 0.137577
H	-0.9720559009	-0.4308247707	 0.054666672	 0.120122
H	 0.5349485824	-0.4044630088	-0.8327863732	 0.120087
H	 2.9519449025	-0.3968687783	 3.2624658251	 0.142638
H	 1.4363614361	-0.4237368165	 4.1545436609	 0.142636
H	 1.6939385659	-3.9189868438	 2.7526735508	 0.203849
H	 0.5799749003	-2.5535435425	 0.901727576	 0.251404
47.3626	108.7851	188.5326	192.651	261.2492	358.8144	365.8246	488.527	508.4623	627.1072	641.9256	694.7773	807.1179	849.0496	894.22	953.028	985.5773	995.9209	1051.603	1084.8092	1104.0094	1109.9477	1180.8046	1184.1086	1283.4374	1285.9308	1320.5809	1368.775	1417.0944	1447.2641	1456.2609	1473.0603	1491.0341	1501.6843	1712.0771	1763.0798	3012.8553	3037.9541	3050.3809	3055.4543	3081.2774	3127.7965	3136.0687	3452.4199	3658.3535
CCC1=NCC(=N)N1	CCC1=NC[C]([NH])N1	
InChI=1S/C5H9N3/c1-2-5-7-3-4(6)8-5/h2-3H2,1H3,(H2,6,7,8)	InChI=1S/C5H9N3/c1-2-5-7-3-4(6)8-5/h2-3H2,1H3,(H2,6,7,8)
