19
gdb 70266	3.73114	1.10335	0.97373	3.8904	80.13	-0.2475	0.0313	0.2788	1243.2767	0.160738	-382.078693	-382.070428	-382.069484	-382.111378	31.892	
C	-0.5458727504	 1.52537253	 0.3054816233	-0.472407
C	-0.1151927129	 0.0997057008	 0.065729407	 0.338532
C	-0.8828358541	-1.0460626517	 0.6277238274	-0.292511
N	 0.4166956511	-0.671461377	 1.2110807063	-0.123631
C	 1.5422401893	-1.4749192173	 0.7304945057	-0.168496
C	 1.462635207	-1.5122466019	-0.8322863987	-0.185528
C	 0.726182285	-0.1904603157	-1.1734918667	-0.283511
C	 2.7633787136	-1.647821169	-1.4723704069	 0.263425
N	 3.8039025208	-1.7499976205	-1.9660986827	-0.322868
H	 0.3183558686	 2.1985848107	 0.3164446314	 0.124431
H	-1.2273222634	 1.8642294902	-0.4826815754	 0.121667
H	-1.059528401	 1.6167866948	 1.2655259719	 0.132171
H	-1.7336684458	-0.8510628732	 1.2743104824	 0.119497
H	-0.9644655324	-1.9693838335	 0.0583184586	 0.110824
H	 2.4687627194	-0.9843939214	 1.0433806002	 0.131937
H	 1.5262407542	-2.4776950568	 1.1660304378	 0.124115
H	 0.855749966	-2.365422527	-1.1497568306	 0.130852
H	 0.1361154398	-0.2744299971	-2.090060098	 0.123448
H	 1.4497189053	 0.6182024958	-1.3199585331	 0.128054
100.0382	150.3129	189.3784	221.4851	283.8174	327.5974	388.4399	414.595	516.6647	540.2642	567.5911	605.8385	722.4189	777.5454	849.8295	896.4311	901.0976	947.9869	984.3109	1002.6857	1030.3262	1051.073	1089.381	1108.5638	1116.6708	1177.8427	1190.6816	1241.7666	1263.1661	1294.2996	1313.6159	1337.0837	1361.3055	1396.7947	1419.3069	1485.2224	1491.8746	1495.0002	1501.808	1518.6934	2355.4515	3032.8089	3054.507	3057.5552	3063.744	3094.4649	3102.3365	3104.1571	3108.6179	3123.172	3186.3476
CC12CN1CC(C2)C#N	C[C@]12CN1C[C@@H](C2)C#N	
InChI=1S/C7H10N2/c1-7-2-6(3-8)4-9(7)5-7/h6H,2,4-5H2,1H3	InChI=1S/C7H10N2/c1-7-2-6(3-8)4-9(7)5-7/h6H,2,4-5H2,1H3/t6-,7-,9?/m0/s1
