20
gdb 63802	2.98382	1.62353	1.46687	2.5576	76.43	-0.2238	0.0672	0.2909	984.9818	0.172118	-403.112153	-403.104431	-403.103487	-403.143676	31.899	
C	-0.1055318445	 1.5471343713	-0.001690627	-0.444905
C	-0.0106284791	 0.019239491	-0.0130237743	 0.406345
O	-1.3106802647	-0.5608554431	 0.0121469575	-0.481767
C	 0.8682783452	-0.4939061274	-1.2002328152	-0.309207
C	 2.2305549946	-0.7536030334	-0.574244326	-0.011997
C	 2.252773786	-0.3468528415	 0.8479369548	-0.067743
C	 0.7586648315	-0.5064446149	 1.2111186871	-0.073931
C	 1.0098445773	-2.0256525096	 1.0761517313	-0.170285
N	 2.3749541674	-1.802063228	 0.4801862668	-0.153212
H	 0.8884858824	 2.0049488504	 0.0254770431	 0.124641
H	-0.6096950018	 1.9100044577	-0.9059854169	 0.104396
H	-0.6732239681	 1.8887420627	 0.8687235045	 0.122692
H	-1.8075466499	-0.2146178584	-0.7361389529	 0.276446
H	 0.4277725303	-1.3992806559	-1.6301321511	 0.110349
H	 0.9470187707	 0.2468350014	-2.0029275226	 0.095248
H	 3.125521462	-0.6738576241	-1.1817806807	 0.092333
H	 3.03164696	 0.2002792471	 1.3656666588	 0.089825
H	 0.3848202213	-0.1337560311	 2.164325815	 0.070409
H	 1.1411330505	-2.5251961478	 2.038270623	 0.10782
H	 0.312839639	-2.6019123964	 0.4615654849	 0.112544
139.7426	236.2964	260.3692	266.2498	332.6598	367.4228	396.6197	453.8219	501.7582	566.3563	687.4819	731.7621	758.8659	780.8486	830.0471	898.8057	911.6789	924.7616	949.9216	963.3099	982.5605	1010.8879	1023.1979	1055.3607	1074.5325	1110.6317	1147.0593	1160.7081	1196.5175	1203.6061	1221.5029	1252.6317	1274.3221	1287.0079	1291.0229	1319.0179	1381.2005	1394.9011	1404.2325	1484.1234	1492.9835	1493.9772	1518.2394	3023.4896	3042.9229	3061.7327	3083.6015	3090.1357	3111.2004	3114.7459	3120.5812	3168.3501	3182.835	3812.4455
CC1(O)CC2C3C1CN23	C[C@@]1(O)C[C@H]2[C@H]3[C@@H]1CN23	
InChI=1S/C7H11NO/c1-7(9)2-5-6-4(7)3-8(5)6/h4-6,9H,2-3H2,1H3	InChI=1S/C7H11NO/c1-7(9)2-5-6-4(7)3-8(5)6/h4-6,9H,2-3H2,1H3/t4-,5-,6+,7+,8?/m0/s1
