16
gdb 70807	2.93247	1.60789	1.25612	5.4471	69.	-0.2458	0.0012	0.247	1008.9436	0.122791	-437.846163	-437.838246	-437.837302	-437.878163	30.61	
C	-0.0342322282	 1.4767761797	 0.1187040699	-0.491821
C	-0.0387913221	-0.0172499615	 0.0443980696	 0.342786
C	-1.2448859394	-0.9273364404	-0.2407183931	-0.36026
C	-0.3031105086	-2.1102569819	 0.1187322994	 0.247522
O	-0.7384643591	-3.3413302958	 0.5230326325	-0.457497
C	 0.6431948035	-1.0363137159	 0.851928818	-0.190683
N	 1.2033144671	-0.6800500635	-0.5203619803	-0.237899
C	 0.74925714	-1.9927944605	-0.9793998772	 0.410475
O	 1.220402346	-2.7036547231	-1.8069408651	-0.31196
H	 0.9485942409	 1.8421576529	 0.4254989575	 0.143598
H	-0.2708256662	 1.9128664484	-0.8572149461	 0.136087
H	-0.780830655	 1.8267280906	 0.8394583655	 0.12356
H	-2.0195686694	-0.7789206973	 0.5197826093	 0.106173
H	-1.6931057301	-0.9262750234	-1.240053244	 0.119738
H	-1.5512504952	-3.2448294227	 1.0303061189	 0.2945
H	 1.2725225159	-1.0510154856	 1.7300326851	 0.12568
139.5054	197.4976	212.6544	251.923	268.1652	297.394	399.5174	437.6316	520.2436	543.637	662.2168	685.0321	723.128	788.7776	811.8171	859.6594	893.146	935.3435	986.9693	1006.6767	1023.5919	1031.3559	1097.2075	1112.8906	1164.4176	1195.9556	1250.2347	1304.0186	1400.4213	1415.6845	1438.3235	1483.4063	1490.215	1502.8922	1927.0977	3034.8166	3039.4272	3092.5119	3103.5953	3128.4169	3229.1158	3812.5286
CC12CC3(O)C1N2C3=O	C[C@]12C[C@]3(O)[C@H]1N2C3=O	
InChI=1S/C6H7NO2/c1-5-2-6(9)3(5)7(5)4(6)8/h3,9H,2H2,1H3	InChI=1S/C6H7NO2/c1-5-2-6(9)3(5)7(5)4(6)8/h3,9H,2H2,1H3/t3-,5-,6-,7?/m0/s1
