21
gdb 118691	2.07827	1.27586	1.09353	1.7279	75.17	-0.2269	0.0667	0.2936	1275.2515	0.179557	-461.333789	-461.323472	-461.322528	-461.368868	38.195	
C	 0.0778399305	 1.4947308803	-0.3605290496	-0.388921
C	-0.1875640612	 0.0000143108	-0.3682576722	-0.055775
O	 0.9275472091	-0.6395292198	-1.0018146762	-0.313439
C	 0.8176751944	-2.0250543068	-1.1645004085	 0.335489
C	 1.1147120981	-2.8600487122	 0.0575035491	-0.46165
C	-0.1533646825	-2.5386499826	-2.2294803984	 0.02175
O	-0.9608630763	-1.6447960886	-2.9243322979	-0.430408
C	 1.3340052172	-2.4585905076	-2.5213539334	-0.015329
O	 1.6872069069	-1.4405729342	-3.4145455357	-0.436973
H	 1.0076308297	 1.7212442283	 0.1693554304	 0.125389
H	 0.1613313577	 1.8781468529	-1.3818966668	 0.12293
H	-0.7419613298	 2.0209156671	 0.1374133862	 0.119975
H	-0.2909982698	-0.3744671007	 0.6599379627	 0.09284
H	-1.1026428777	-0.2402907294	-0.9188605451	 0.128777
H	 0.3730993207	-2.6971813014	 0.8471358878	 0.123569
H	 1.0997429603	-3.9253948258	-0.1920848946	 0.121678
H	 2.1047430382	-2.6177006487	 0.4580265604	 0.126956
H	-0.6195374282	-3.5072532633	-2.0653520522	 0.095943
H	-0.3812049086	-1.2436063826	-3.591184764	 0.288741
H	 1.9434022217	-3.3528808239	-2.6161433595	 0.09846
H	 1.7805570397	-0.6419448718	-2.8724566027	 0.299997
59.8606	115.8529	142.0065	197.3388	212.8976	239.4556	251.0787	274.1866	290.027	345.5139	369.1782	419.7101	546.0643	580.362	626.7884	671.9064	747.625	824.8935	825.8756	849.8508	916.3858	981.7884	1021.0415	1075.3272	1088.5394	1115.8931	1135.9792	1152.3272	1172.8844	1186.5104	1228.2308	1287.8162	1303.2752	1318.017	1374.5415	1398.7364	1403.335	1411.4284	1432.1777	1452.57	1482.3457	1484.5337	1499.4036	1501.4034	1525.305	3005.1171	3030.9942	3043.2401	3078.7314	3096.227	3107.6045	3117.3121	3121.2049	3133.3164	3148.1093	3686.2055	3708.1504
CCOC1(C)C(O)C1O	CCO[C@@]1(C)[C@@H](O)[C@H]1O	
InChI=1S/C6H12O3/c1-3-9-6(2)4(7)5(6)8/h4-5,7-8H,3H2,1-2H3	InChI=1S/C6H12O3/c1-3-9-6(2)4(7)5(6)8/h4-5,7-8H,3H2,1-2H3/t4-,5+,6-
