17
gdb 37100	2.22761	2.04215	1.33195	3.3461	72.51	-0.2574	0.0624	0.3197	984.4723	0.135223	-421.743241	-421.735813	-421.734868	-421.77509	29.15	
O	-0.111361703	 1.3520909836	 0.0297112247	-0.270614
C	 1.224896577	 0.8310807425	 0.0048590623	-0.280831
C	 0.0608326721	-0.0526457727	 0.0199504098	 0.394251
C	-0.4287824261	-0.9953486154	 1.0945770057	-0.157639
C	-1.9041142466	-1.2322150177	 0.9170421991	-0.296213
C	-0.9534846943	-1.9559832619	 0.002336151	-0.157641
C	-0.4589306737	-1.0042386644	-1.0620076621	 0.394259
O	-1.1883606982	-0.619758539	-2.2122826178	-0.270615
C	 0.0717571271	-1.2801799993	-2.3956015099	-0.280832
H	 1.7746382567	 0.994391432	-0.9213161254	 0.116356
H	 1.8017652	 0.9785222666	 0.9175965562	 0.117642
H	 0.0999474268	-1.2440376595	 2.005133982	 0.099883
H	-2.3672897994	-1.8479373117	 1.6810737072	 0.119603
H	-2.5399035922	-0.4427480187	 0.5281291104	 0.138509
H	-0.8781459932	-3.0347488494	-0.0309039836	 0.099883
H	 0.8700341981	-0.6618767023	-2.804430104	 0.116356
H	 0.0160978288	-2.2907903627	-2.7995498154	 0.117642
98.9913	189.3942	211.249	254.0381	297.286	428.5308	509.8571	538.9345	594.4806	618.7337	774.9607	811.023	871.8514	884.125	890.1242	916.321	926.3988	956.8365	989.5326	1014.2136	1052.1028	1061.1034	1092.9419	1117.672	1119.7387	1134.4548	1159.0165	1162.7878	1185.7791	1228.1094	1272.279	1307.3326	1429.3064	1462.0214	1491.0158	1529.4238	1546.7234	3075.8055	3078.0971	3126.9624	3160.6536	3164.1166	3199.7873	3205.0485	3216.866
O1CC11C2CC2C11OC1	O1C[C@]21[C@H]1C[C@H]1[C@]12OC1	
InChI=1S/C7H8O2/c1-4-5(1)7(3-9-7)6(4)2-8-6/h4-5H,1-3H2	InChI=1S/C7H8O2/c1-4-5(1)7(3-9-7)6(4)2-8-6/h4-5H,1-3H2/t4-,5+,6-,7+
