18
gdb 22822	2.71654	1.35642	1.05066	1.4164	79.86	-0.2298	-0.0352	0.1945	1168.5442	0.147498	-439.053444	-439.044923	-439.043979	-439.086425	32.481	
C	-0.1307463352	 1.5218694701	 0.1098756389	-0.409457
C	 0.0502712407	 0.0009584318	 0.0269140368	 0.039405
O	 0.7201552241	-0.406228356	-1.1662880575	-0.265546
C	 2.0814366894	-0.0372413479	-1.2479113731	-0.129138
C	 2.8480144524	-0.2855657293	 0.0164281356	-0.084779
C	 2.2350079282	-0.562158977	 1.1733230397	-0.132144
C	 0.7787922537	-0.55204552	 1.2390624179	 0.343697
N	 0.0475846533	-0.9186171247	 2.2269322855	-0.213584
O	 0.8059409343	-1.3773165584	 3.3130962049	-0.393332
H	 0.8237743521	 2.0380863292	 0.2508636189	 0.120379
H	-0.5981977372	 1.8915059278	-0.8074598484	 0.122849
H	-0.773696223	 1.7690704417	 0.9588523983	 0.131893
H	-0.9330614223	-0.4713886314	-0.0325623925	 0.10539
H	 2.5032333008	-0.6322146449	-2.0671161711	 0.125279
H	 2.1963294475	 1.0214152614	-1.546076213	 0.106106
H	 3.9316098895	-0.2329882322	-0.0479289956	 0.105293
H	 2.7863481501	-0.7788520447	 2.0792121415	 0.119793
H	 0.1239353917	-1.5992231457	 3.9552856934	 0.307896
81.116	177.2726	203.1556	233.2949	254.5744	303.9924	352.5354	399.8668	429.8965	463.3516	552.4749	600.786	630.6703	775.8474	803.4931	850.0005	855.0424	927.358	982.0924	1002.5502	1021.8033	1042.0504	1058.9243	1112.6735	1147.7871	1193.5451	1264.1109	1294.9073	1328.2724	1361.9153	1387.9712	1397.0758	1410.0953	1419.8459	1478.9492	1489.4866	1501.1812	1681.6751	1707.5911	2934.658	3042.3342	3047.486	3085.5365	3118.2813	3124.8117	3167.1113	3220.5184	3824.194
CC1OCC=CC1=NO	C[C@H]1OCC=CC1=NO	
InChI=1S/C6H9NO2/c1-5-6(7-8)3-2-4-9-5/h2-3,5,8H,4H2,1H3	InChI=1S/C6H9NO2/c1-5-6(7-8)3-2-4-9-5/h2-3,5,8H,4H2,1H3/t5-/m1/s1
