19
gdb 77085	2.92001	1.16595	1.05249	4.2562	72.18	-0.2422	-0.0289	0.2133	1221.7723	0.15499	-460.156064	-460.146027	-460.145083	-460.191325	36.067	
C	-0.7443464366	 1.5092732777	 0.3849922607	-0.431201
C	-0.191867452	 0.1220997454	 0.1057113191	 0.384023
C	-1.2709418194	-0.8815836319	-0.2737095008	-0.431654
O	 0.8401184365	 0.1716156699	-0.9317339718	-0.337008
C	 1.8498719513	-0.3528147648	-0.0571851817	 0.016334
C	 3.0199845515	 0.6018584768	 0.1225981229	 0.14995
O	 4.1169683007	 0.2492520917	 0.4643522767	-0.241002
C	 0.8621718616	-0.4142926597	 1.1326580736	-0.00185
O	 1.2513681873	 0.4340121311	 2.1836724714	-0.409924
H	 0.0440424361	 2.1846338792	 0.721899543	 0.133124
H	-1.1907622873	 1.9150391192	-0.5280387246	 0.128559
H	-1.5216361431	 1.4736119566	 1.1560781618	 0.109062
H	-1.7961970204	-0.5528110212	-1.1757342907	 0.130598
H	-0.8357724425	-1.8651524631	-0.4748677655	 0.120923
H	-2.006053635	-0.9856193752	 0.5320175792	 0.113581
H	 2.2358951899	-1.3250405164	-0.3847842229	 0.102442
H	 2.7716821262	 1.6614138949	-0.1050360955	 0.088399
H	 0.6523216294	-1.4291735026	 1.4902373493	 0.081571
H	 0.6429454961	 0.3209877024	 2.9201591958	 0.294074
43.6973	75.7873	183.3803	200.0656	210.5278	224.5704	243.7985	272.3147	315.574	355.9094	398.3503	463.2919	517.614	568.212	690.4587	828.9188	852.6592	887.3336	935.1919	977.4609	985.5673	998.463	1045.7146	1085.8542	1146.5943	1170.7155	1192.112	1226.9813	1258.0012	1280.4633	1308.3294	1320.5706	1397.2292	1402.0065	1411.2884	1433.1077	1473.6712	1476.8138	1495.2914	1501.6985	1835.8865	2899.8023	3028.6184	3032.2076	3041.0252	3049.0018	3101.9329	3108.8364	3112.5801	3137.5371	3829.8803
CC1(C)OC(C=O)C1O	CC1(C)O[C@@H](C=O)[C@H]1O	
InChI=1S/C6H10O3/c1-6(2)5(8)4(3-7)9-6/h3-5,8H,1-2H3	InChI=1S/C6H10O3/c1-6(2)5(8)4(3-7)9-6/h3-5,8H,1-2H3/t4-,5+/m0/s1
