23
gdb 60017	2.11871	0.91671	0.7558	3.9684	83.85	-0.2742	0.0094	0.2837	1643.3301	0.202268	-425.467665	-425.456421	-425.455477	-425.505392	39.674	
C	-1.4858383701	-0.2231687475	-0.1406804904	-0.392017
C	 0.0263722073	-0.1211354972	 0.1003162899	 0.031396
C	 0.4261131763	-0.9120100285	 1.3540981113	-0.387975
C	 0.7922331004	-0.578997909	-1.1544970609	-0.174955
C	 2.3002715053	-0.3303860627	-1.1408201047	 0.094431
C	 2.9956256403	-0.8342841525	-2.401376836	-0.392958
O	 2.5032147634	 1.0996469829	-1.0373216085	-0.187204
C	 3.4836382071	 1.5491078607	-0.2374888698	 0.171732
O	 3.7576981319	 2.7074290302	-0.1311126767	-0.279829
H	-1.7933022606	 0.3740017591	-1.0053245214	 0.114439
H	-1.7864134486	-1.2613450211	-0.3280050817	 0.110326
H	-2.0474467303	 0.1317357348	 0.7293133442	 0.113393
H	 0.2701276192	 0.935424518	 0.2671205816	 0.095921
H	 0.220986857	-1.981939941	 1.2252357454	 0.111215
H	 1.4880119625	-0.8040794813	 1.5977029838	 0.108028
H	-0.1410655971	-0.5696666253	 2.2255265961	 0.117878
H	 0.6307807676	-1.65432611	-1.309296692	 0.096001
H	 0.3794904443	-0.0717280635	-2.0353979748	 0.106676
H	 2.7518881823	-0.8041021525	-0.2592569385	 0.088964
H	 2.5857405538	-0.3395676535	-3.2869751284	 0.135616
H	 4.07003528	-0.6320133536	-2.3630247014	 0.123405
H	 2.8536536466	-1.9138670036	-2.5094508491	 0.123059
H	 3.9976552014	 0.735457947	 0.3128853819	 0.072456
31.6964	41.7464	100.2441	148.881	167.7319	216.5362	224.1194	241.5118	262.4147	305.2613	327.4267	401.2212	414.366	488.9325	527.1701	612.4847	814.6214	866.049	897.233	927.3325	939.0069	968.2637	983.686	1030.1873	1047.9174	1070.7965	1138.455	1157.796	1174.1499	1192.0948	1212.2628	1279.3844	1302.7164	1352.3231	1370.0822	1380.8163	1397.7133	1401.683	1412.1172	1423.5128	1440.005	1468.9944	1486.8599	1487.9389	1494.4776	1497.7737	1505.7549	1510.0625	1861.6509	2933.3965	3016.6283	3019.6358	3023.5014	3026.7262	3034.4855	3041.4857	3064.3044	3087.2319	3093.6208	3099.6871	3103.446	3115.6683	3120.3083
CC(C)CC(C)OC=O	CC(C)C[C@@H](C)OC=O	
InChI=1S/C7H14O2/c1-6(2)4-7(3)9-5-8/h5-7H,4H2,1-3H3	InChI=1S/C7H14O2/c1-6(2)4-7(3)9-5-8/h5-7H,4H2,1-3H3/t7-/m1/s1
