23
gdb 121894	3.67576	0.64043	0.60354	3.419	83.86	-0.2398	-0.0098	0.23	1955.4014	0.201687	-425.441254	-425.429529	-425.428585	-425.479955	39.978	
C	 0.0411666678	 1.393368505	 0.0762236461	-0.226707
O	 0.0078079646	-0.0109612371	 0.1331078858	-0.227981
C	-1.2843776983	-0.5401201713	-0.0712465131	-0.067492
C	-1.1870815413	-2.0595316948	-0.0078276106	-0.190379
C	-2.544960232	-2.7762245928	-0.0502876988	-0.089844
C	-3.3129456021	-2.5420038577	-1.3703598387	-0.396795
C	-2.3576852671	-4.2890145382	 0.1182478933	 0.388525
C	-3.4552181213	-5.0295857937	 0.8618482821	-0.481504
O	-1.3926554824	-4.8625468946	-0.3317853004	-0.307457
H	 1.0752887699	 1.704271725	 0.24413525	 0.12699
H	-0.2886346564	 1.7729237581	-0.904494033	 0.101378
H	-0.5968218801	 1.8510718289	 0.8498004995	 0.100343
H	-1.9779939428	-0.1634494144	 0.7030935049	 0.077515
H	-1.6796435124	-0.204049084	-1.044407307	 0.085118
H	-0.5582806726	-2.425050922	-0.8247299248	 0.126156
H	-0.6665102826	-2.3216892664	 0.9200526595	 0.108761
H	-3.1749256243	-2.4187375276	 0.7756632067	 0.074708
H	-4.2477074707	-3.1112835349	-1.399022258	 0.11716
H	-3.5697972668	-1.487091391	-1.4965447394	 0.125055
H	-2.7029928886	-2.8531250859	-2.2242861337	 0.137027
H	-4.4473611448	-4.7401944649	 0.499835086	 0.134616
H	-3.3172259111	-6.1067993273	 0.7614964977	 0.141737
H	-3.4160551645	-4.7584434084	 1.9240773558	 0.14307
33.6715	47.7994	77.2339	104.974	122.4246	147.6797	213.0248	223.904	230.3041	273.1192	302.6839	315.3336	443.0846	493.8612	600.7365	607.0426	773.1106	800.3712	889.2069	951.6594	966.4523	984.247	1005.4256	1057.374	1088.893	1123.9352	1156.6314	1165.303	1178.1007	1200.5498	1225.8454	1249.9214	1297.7939	1308.8654	1335.0782	1375.7204	1386.633	1405.0621	1428.4059	1462.4154	1475.8291	1480.2141	1484.5613	1486.7779	1499.8048	1502.0136	1505.9012	1532.2403	1811.7206	2933.0545	2964.0014	2973.2311	3005.7949	3013.5738	3034.1726	3038.6523	3050.7345	3094.7322	3101.2559	3105.5845	3112.2057	3118.9657	3151.453
COCCC(C)C(C)=O	COCC[C@@H](C)C(=O)C	
InChI=1S/C7H14O2/c1-6(7(2)8)4-5-9-3/h6H,4-5H2,1-3H3	InChI=1S/C7H14O2/c1-6(7(2)8)4-5-9-3/h6H,4-5H2,1-3H3/t6-/m1/s1
