16
gdb 50446	2.4681	1.64529	1.3147	3.5382	72.7	-0.249	-0.0362	0.2128	1008.5601	0.12402	-437.883618	-437.875615	-437.874671	-437.91686	29.049	
O	 0.6975237094	-0.0599927907	 0.1072274009	-0.225255
C	 0.3094187192	 1.0646829597	-0.044937682	 0.151046
C	 1.1860682834	 2.3116816876	 0.1446158736	-0.039348
O	 2.4077663512	 1.9635788232	 0.7594486487	-0.221418
C	 3.3617503176	 1.2217563899	 0.1184100213	 0.139704
N	 3.7903022596	 1.2238096003	-1.0618566812	-0.256776
C	 3.3773059149	 2.0664660357	-2.1550027148	-0.203623
C	 2.1551151749	 2.9391076181	-2.1125288142	-0.043291
C	 1.2359600636	 3.064312478	-1.1600898175	-0.115647
H	-0.7336060088	 1.2952882537	-0.3549621379	 0.091387
H	 0.6736968809	 2.940761064	 0.8855186312	 0.120818
H	 3.8393072302	 0.5741010306	 0.8522907503	 0.126374
H	 4.2391317643	 2.7102407078	-2.3921484937	 0.136173
H	 3.2854314581	 1.4245731066	-3.0452299081	 0.13449
H	 2.0327269807	 3.5415317705	-3.0122338528	 0.101974
H	 0.3972333709	 3.7362263747	-1.3227567538	 0.103391
57.7764	101.6096	129.2215	259.8145	279.9092	347.1527	435.7112	456.9226	474.7715	683.4957	730.2237	747.6079	807.7674	821.7991	880.4978	943.9236	969.5385	986.3044	1004.8495	1018.122	1033.3181	1097.8451	1179.2034	1251.3062	1272.5968	1286.1848	1374.7161	1385.3186	1408.3329	1414.6591	1436.7161	1448.2435	1741.5066	1783.5623	1844.4046	2890.1795	2989.2602	2997.8459	3021.9544	3129.9709	3149.9455	3164.3206
O=CC1OC=NCC=C1	O=C[C@H]1OC=NCC=C1	
InChI=1S/C6H7NO2/c8-4-6-2-1-3-7-5-9-6/h1-2,4-6H,3H2	InChI=1S/C6H7NO2/c8-4-6-2-1-3-7-5-9-6/h1-2,4-6H,3H2/t6-/m0/s1
