16
gdb 11707	6.13203	1.34786	1.23796	1.867	72.88	-0.2431	0.0202	0.2633	996.2939	0.128606	-346.535276	-346.527606	-346.526662	-346.566893	29.298	
C	-0.0208755895	 1.5943912996	 0.102165011	-0.406099
C	 0.0317977859	 0.0764963131	 0.009883744	 0.003029
C	 1.0708802893	-0.5819936436	-0.9732095857	-0.331498
C	 1.6911212298	-1.3135234088	 0.2319378244	 0.297675
O	 2.1020322064	-0.2883895137	 1.1615299038	-0.279607
C	 0.7283134554	-0.672604414	 1.1606994749	-0.061464
C	 2.342214289	-2.5773621201	 0.2590177445	 0.178759
C	 2.8842637841	-3.650602888	 0.2314692451	-0.382645
H	 0.9697691329	 1.9941528613	 0.3358941818	 0.135385
H	-0.3537852428	 2.0337243591	-0.8439031789	 0.116908
H	-0.7155563003	 1.9202063013	 0.8840432385	 0.115846
H	-0.9640118759	-0.3421144213	-0.1667879717	 0.08222
H	 0.6074029968	-1.256954907	-1.6949251805	 0.117498
H	 1.7578794066	 0.0952266303	-1.4859697979	 0.113736
H	 0.3163427811	-1.0357676511	 2.0961228665	 0.109141
H	 3.3672570011	-4.5962795771	 0.2198427402	 0.191116
111.3036	140.8961	224.7192	234.8263	298.4721	404.4012	461.2121	519.7534	567.1766	608.5357	620.57	670.9932	706.9813	797.7284	859.9686	908.807	915.9882	937.2415	1014.8288	1040.2006	1097.6175	1113.0727	1158.4728	1187.1729	1222.6054	1259.5846	1276.6996	1358.9313	1399.3348	1422.6555	1474.7421	1493.4244	1503.7024	2240.8752	3033.949	3059.0707	3072.1301	3097.1586	3119.0652	3134.091	3180.1716	3502.4467
CC1CC2(OC12)C#C	C[C@H]1C[C@]2(O[C@@H]12)C#C	
InChI=1S/C7H8O/c1-3-7-4-5(2)6(7)8-7/h1,5-6H,4H2,2H3	InChI=1S/C7H8O/c1-3-7-4-5(2)6(7)8-7/h1,5-6H,4H2,2H3/t5-,6-,7+/m0/s1
