17
gdb 14170	3.96069	1.8354	1.78252	1.5802	67.43	-0.2353	0.0157	0.251	828.2886	0.142433	-363.863275	-363.855896	-363.854952	-363.894478	28.155	
C	-0.0604757203	 1.5543147756	 0.0338302933	-0.457348
C	 0.0358786368	 0.044432281	 0.0391100104	 0.259106
C	-1.1913805232	-0.6661654497	-0.5063943946	-0.448526
C	 1.329108718	-0.6687620912	-0.2568610979	 0.017234
O	 2.5376208813	 0.0709846473	-0.1163693073	-0.210267
C	 2.6066950337	 0.394783611	 1.202555032	 0.087542
N	 1.6905771225	-0.0095850418	 1.9861315227	-0.25649
C	 0.7478505342	-0.721532697	 1.1551228437	-0.074578
H	 0.7995251951	 2.0347507716	 0.5024272591	 0.1336
H	-0.1372013427	 1.9289787162	-0.9928694113	 0.118516
H	-0.9550590698	 1.8774869994	 0.577295458	 0.120672
H	-1.3972048091	-0.3552257301	-1.536940057	 0.120946
H	-1.0651931612	-1.7536828003	-0.5052391708	 0.116558
H	-2.0744632407	-0.4337533229	 0.0991198307	 0.12466
H	 1.413313684	-1.4716646951	-0.9795004127	 0.10709
H	 3.4704727303	 0.9870658445	 1.4790041774	 0.143651
H	 0.2631484211	-1.5809868186	 1.6044024541	 0.097634
140.0376	192.3484	210.8344	235.9707	298.5581	339.3757	428.9832	513.1342	590.5052	697.0357	744.7696	848.9655	872.7155	887.7684	938.0262	972.2405	974.8009	1006.1902	1046.93	1054.7344	1061.1832	1085.6801	1118.4159	1161.7554	1229.5199	1282.1534	1313.4569	1339.5674	1395.9232	1409.3595	1428.4939	1480.579	1488.984	1500.1429	1508.4866	1666.4831	3024.3531	3035.6727	3088.8263	3092.1246	3097.9184	3135.7966	3169.699	3182.745	3229.615
CC1(C)C2OC=NC12	CC1(C)[C@H]2OC=N[C@@H]12	
InChI=1S/C6H9NO/c1-6(2)4-5(6)8-3-7-4/h3-5H,1-2H3	InChI=1S/C6H9NO/c1-6(2)4-5(6)8-3-7-4/h3-5H,1-2H3/t4-,5+/m1/s1
