15
gdb 24991	4.7209	1.28394	1.0293	5.1021	67.98	-0.1867	0.0357	0.2224	1089.9967	0.116179	-453.983612	-453.976696	-453.975752	-454.01493	26.813	
O	 0.0496886244	 0.0304329633	 0.0802574422	-0.377478
C	-0.0390461294	 1.223791284	 0.0736736044	 0.446409
N	-1.1556427506	 2.037566713	 0.0103737812	-0.440508
C	-0.7369815216	 3.3721581302	-0.1780155494	 0.130695
C	 0.5918011973	 3.3411207469	-0.0423304582	 0.373611
N	 1.2039321663	 4.5475208207	 0.2736469981	-0.387013
C	 0.1183916324	 5.535064764	-0.0270607687	-0.165666
C	-1.228901657	 4.7535649077	 0.1380918232	-0.315674
O	 1.0830163139	 2.0832977811	 0.1036398183	-0.250093
H	-2.0282032884	 1.6333864332	-0.2863479871	 0.271431
H	 2.0694461895	 4.7433796161	-0.2181249573	 0.244747
H	 0.1953368926	 6.3935934357	 0.6423064919	 0.122788
H	 0.1994368415	 5.887615535	-1.0628259807	 0.114646
H	-2.0011347294	 5.1591200891	-0.5225685406	 0.113104
H	-1.6042401414	 4.8224315602	 1.1695334627	 0.119001
127.2253	200.89	274.1844	291.236	331.3087	467.9725	534.8936	584.7483	648.8761	698.4357	721.889	753.5553	798.2153	842.6635	877.9847	893.6372	948.1633	1009.003	1066.8083	1085.0885	1184.1111	1194.8781	1242.4802	1273.8879	1318.423	1327.4793	1356.1718	1411.8061	1472.7817	1501.3322	1517.0532	1737.1184	1907.4707	2998.7706	3025.0946	3068.6297	3112.2073	3524.7397	3665.6709
O=C1NC2=C(NCC2)O1	O=C1N[C]2[C](NCC2)O1	
InChI=1S/C5H6N2O2/c8-5-7-3-1-2-6-4(3)9-5/h6H,1-2H2,(H,7,8)	InChI=1S/C5H6N2O2/c8-5-7-3-1-2-6-4(3)9-5/h6H,1-2H2,(H,7,8)
