19
gdb 103502	2.68313	1.38867	1.19853	1.0116	71.01	-0.2394	0.0621	0.3015	1103.0034	0.159531	-460.138921	-460.130361	-460.129416	-460.171897	32.836	
O	-0.0941310737	 1.3929336846	-0.2717812417	-0.439404
C	 0.059094067	 0.0081715467	 0.0631029503	-0.18188
C	-1.330821105	-0.5747827787	 0.0113944359	 0.447703
O	-2.2058320403	 0.0884483395	 0.8859589886	-0.488465
C	-1.970691914	-1.0868180816	-1.2650168962	-0.134374
C	-1.0784067919	-1.5156118938	-2.4141507533	-0.107006
O	-0.0738398768	-2.3627525625	-1.850987118	-0.258088
C	-0.5874753288	-2.9761828449	-0.6694726885	-0.104159
C	-1.6437568939	-2.0353050859	-0.1211010192	-0.1441
H	 0.7094195665	 1.8559837081	-0.0195143635	 0.29255
H	 0.7337062548	-0.5015451377	-0.6317007646	 0.122138
H	 0.4508433016	-0.0996189483	 1.0851694549	 0.094411
H	-2.0596339641	 1.0290359791	 0.7197379798	 0.287131
H	-2.9903603682	-0.7825404154	-1.4665319395	 0.096232
H	-1.6729131835	-2.05590461	-3.1679331999	 0.095524
H	-0.5579293726	-0.6918362576	-2.9143575782	 0.114459
H	-1.0497749714	-3.9499516975	-0.8966649099	 0.097146
H	 0.2637121364	-3.152230489	-0.0026698471	 0.107449
H	-2.4202642322	-2.4306208854	 0.5229922	 0.102731
92.5174	147.5596	214.0527	236.1973	253.2604	288.6246	298.2547	404.6997	438.1583	470.5679	536.5186	669.7065	741.7083	764.8786	857.678	871.0157	914.1722	956.2288	993.8793	1009.9117	1011.1091	1043.0673	1050.5061	1098.0238	1105.6096	1120.7854	1164.322	1218.1456	1223.8962	1244.7479	1268.6807	1289.4316	1297.0693	1340.6841	1357.5174	1393.6692	1444.843	1488.9047	1512.2725	1520.6445	1526.0934	2975.7115	2981.4775	2995.8973	3059.8229	3064.92	3077.645	3185.6449	3195.1526	3769.1346	3840.7961
OCC1(O)C2COCC12	OC[C@@]1(O)[C@H]2COC[C@@H]12	
InChI=1S/C6H10O3/c7-3-6(8)4-1-9-2-5(4)6/h4-5,7-8H,1-3H2	InChI=1S/C6H10O3/c7-3-6(8)4-1-9-2-5(4)6/h4-5,7-8H,1-3H2/t4-,5+,6+
