20
gdb 22107	2.36122	1.05853	0.82135	2.0529	79.39	-0.2359	-0.0261	0.2097	1454.4218	0.167374	-440.273819	-440.263058	-440.262114	-440.310786	37.773	
C	 0.8884100198	 0.8334445108	-0.9215738597	-0.379627
C	-0.0486207699	 0.1210942343	 0.0723666916	-0.269193
C	 0.7156576113	-0.7343981532	 1.0508570761	 0.346619
C	 0.8530381552	-2.2153825922	 0.7725245886	-0.360991
C	-0.4904446036	-2.9114140588	 1.0382636288	 0.37883
C	-0.6999723837	-3.4248253564	 2.4475648814	-0.473663
O	-1.3290923646	-3.0057729954	 0.1728794123	-0.297432
N	 1.2728048585	-0.3199974863	 2.1257543948	-0.174336
O	 1.0908278545	 1.0605117537	 2.313523839	-0.395632
H	 1.4803691766	 0.1153145171	-1.4983281381	 0.117593
H	 0.3072118691	 1.4318417134	-1.629106358	 0.119
H	 1.5761764362	 1.496666139	-0.3915974071	 0.137431
H	-0.620001008	 0.8695853963	 0.6282479048	 0.127187
H	-0.7557664202	-0.5145244432	-0.4681802599	 0.128694
H	 1.107906135	-2.3727693826	-0.2800620641	 0.128166
H	 1.6361387524	-2.6280904867	 1.4122433318	 0.12221
H	-0.0379555302	-4.2811120427	 2.6251045523	 0.143113
H	-0.4231380059	-2.6553185499	 3.1755093017	 0.153676
H	-1.7364221153	-3.7332416284	 2.5880531463	 0.141363
H	 1.5553298627	 1.213539721	 3.1429467974	 0.30699
42.3979	59.7592	76.0487	119.0531	163.3212	215.2492	218.0248	305.6925	310.9166	345.4407	400.2132	424.0201	501.6335	549.4209	605.5537	703.9875	770.1659	805.5111	810.3357	899.5491	968.7269	988.5196	1021.0042	1041.6419	1078.4551	1103.7653	1157.8026	1218.219	1259.3784	1287.3672	1298.2747	1359.6606	1381.0536	1402.6262	1406.3468	1459.8155	1468.7887	1474.4302	1490.1279	1498.0591	1509.1289	1719.4392	1811.4079	3036.0163	3041.0681	3055.5303	3060.1913	3099.7113	3100.4563	3112.9278	3123.4351	3131.4857	3155.3734	3822.1721
CCC(CC(C)=O)=NO	CCC(=NO)CC(=O)C	
InChI=1S/C6H11NO2/c1-3-6(7-9)4-5(2)8/h9H,3-4H2,1-2H3	InChI=1S/C6H11NO2/c1-3-6(7-9)4-5(2)8/h9H,3-4H2,1-2H3
