19
gdb 93916	2.73248	1.37725	1.15244	3.296	71.79	-0.2387	-0.0344	0.2043	1136.7225	0.158459	-460.186715	-460.177706	-460.176762	-460.221202	33.045	
C	-0.234959128	 0.8288360338	 0.564418785	-0.47888
C	 0.6779971325	-0.0210133461	-0.282487569	 0.4002
O	 1.7477415046	-0.4286653232	 0.1234926904	-0.318447
C	 0.1314771483	-0.4223502389	-1.6659469006	 0.02885
C	 1.196677994	-0.8682155053	-2.6744234647	-0.297805
C	 1.3121028733	-2.3872469235	-2.427313623	 0.119225
O	 2.2698006313	-2.7298549343	-1.4539358246	-0.445925
C	-0.1291077738	-2.7348507198	-2.0186884397	-0.090588
O	-0.6947276896	-1.5671506822	-1.4014540402	-0.28494
H	-0.3831705248	 1.8050372066	 0.0874628307	 0.144306
H	-1.2190179415	 0.350928224	 0.6217620206	 0.165121
H	 0.1804752737	 0.9632230793	 1.5633175271	 0.145116
H	-0.5086816228	 0.3784969628	-2.0565556065	 0.078366
H	 0.8399879714	-0.6737654715	-3.6898514124	 0.110288
H	 2.1563951689	-0.3666557685	-2.539797138	 0.126819
H	 1.5921418256	-2.9226127066	-3.3399864618	 0.084732
H	 2.2744636029	-2.03020259	-0.7807408382	 0.299407
H	-0.7385944413	-3.0034841744	-2.8936223661	 0.093215
H	-0.1469606347	-3.5598215822	-1.3017737091	 0.12094
47.0026	67.2575	165.167	172.6971	219.6886	260.2602	352.1155	391.8624	421.269	544.4212	582.3258	593.4353	733.1382	747.2174	808.8111	847.7428	880.4932	910.7084	937.8733	984.4115	1027.8684	1036.2961	1064.8825	1091.9535	1124.233	1186.2133	1196.5702	1234.1003	1249.3138	1318.8195	1324.4893	1363.0901	1372.1135	1374.4897	1397.6808	1460.9353	1472.4796	1473.0879	1479.3404	1508.4555	1794.7294	2998.6933	3021.0285	3037.3288	3060.2689	3074.5184	3097.4322	3099.2184	3130.8301	3157.8419	3659.3858
CC(=O)C1CC(O)CO1	CC(=O)[C@H]1C[C@@H](O)CO1	
InChI=1S/C6H10O3/c1-4(7)6-2-5(8)3-9-6/h5-6,8H,2-3H2,1H3	InChI=1S/C6H10O3/c1-4(7)6-2-5(8)3-9-6/h5-6,8H,2-3H2,1H3/t5-,6-/m1/s1
