15
gdb 129565	3.2886	1.12836	1.03972	4.5201	71.23	-0.2596	-0.0016	0.258	1170.2483	0.115569	-413.010207	-413.002116	-413.001172	-413.044135	29.27	
N	-0.184196086	 1.4096332195	 0.1151862509	-0.501805
C	 0.00431351	-0.0373772374	-0.0030215889	-0.218967
C	 0.7598482777	-0.4324485329	-1.2196007238	 0.257374
N	 1.3257905256	-0.6991871224	-2.1921349774	-0.33114
C	 0.6841164587	-0.5800012695	 1.2307425835	 0.397289
N	 1.7494533255	 0.0480003443	 1.7215100378	-0.289576
N	 2.1018080494	-0.6812273261	 2.7922027959	-0.175943
C	 1.2993410141	-1.7527538367	 2.9948552637	-0.007691
C	 0.3554692065	-1.7227003102	 1.9901206926	-0.305352
H	 0.7073835656	 1.8325569472	 0.3574552055	 0.256641
H	-0.4715595607	 1.796453265	-0.7788711007	 0.241725
H	-0.9816519104	-0.5101948424	-0.0826723219	 0.133867
H	 2.8944316624	-0.3906250196	 3.3396191731	 0.282615
H	 1.4562002087	-2.4328471491	 3.8166995044	 0.144433
H	-0.4514065271	-2.4188840797	 1.8302148953	 0.116531
24.9897	105.5459	189.6916	215.3166	285.6135	340.2563	415.1156	468.0792	535.1465	595.5839	663.845	729.2101	769.2074	787.5193	848.1999	862.4353	949.1023	955.5509	995.4598	1076.7084	1101.2767	1115.9783	1173.9911	1236.6406	1278.517	1333.8074	1387.8001	1409.3117	1478.7856	1501.4272	1569.1957	1650.9948	2342.8955	3044.4274	3261.8746	3279.729	3496.1904	3580.4263	3673.0937
NC(C#N)C1=NNC=C1	N[C@@H](C#N)c1n[nH]cc1	
InChI=1S/C5H6N4/c6-3-4(7)5-1-2-8-9-5/h1-2,4H,7H2,(H,8,9)	InChI=1S/C5H6N4/c6-3-4(7)5-1-2-8-9-5/h1-2,4H,7H2,(H,8,9)/t4-/m0/s1
