19
gdb 61480	2.50068	0.92575	0.86496	4.4682	82.47	-0.2487	0.0198	0.2685	1457.1471	0.156672	-382.039689	-382.029274	-382.02833	-382.075645	37.446	
C	 1.3468135075	 0.3236765392	 1.0331169335	-0.400241
C	 0.2035507867	 0.1791087143	 0.0157409633	-0.124742
N	 0.7667763756	-0.3078323488	-1.2526991128	-0.298088
C	-0.1791943873	-0.4642372231	-2.3588481209	-0.101577
C	-0.807593959	 0.8341189219	-2.9097741009	-0.399927
C	 0.50075879	-1.1877913042	-3.4465743332	 0.277785
N	 1.0309757493	-1.725643434	-4.320775677	-0.321476
C	-0.8226280967	-0.7453071009	 0.5059117416	 0.379812
C	-1.670872834	-1.4874177673	 0.9232037289	-0.485702
H	 1.8432647006	-0.6382137464	 1.1778640829	 0.145849
H	 2.0829094274	 1.0494650019	 0.6714883849	 0.115665
H	 0.9605011488	 0.6758018993	 1.9920881843	 0.132875
H	-0.2759499741	 1.1689400059	-0.0908386497	 0.094801
H	 1.5295812375	 0.3010910757	-1.5329627215	 0.227008
H	-0.9824157344	-1.1151856	-1.9929495977	 0.148719
H	-0.0322706827	 1.5122041481	-3.2791181583	 0.129571
H	-1.4899539617	 0.6132875225	-3.7351874705	 0.141042
H	-1.375617717	 1.3411038193	-2.1257066619	 0.131835
H	-2.4166666266	-2.1469093135	 1.2939413549	 0.206792
35.184	89.3495	121.5981	172.0349	210.8882	221.2908	233.1478	268.9204	311.7974	350.3745	413.9729	519.3759	554.5915	564.1935	611.0228	632.7423	671.5148	733.9601	808.9267	844.7896	917.4247	990.153	1028.5446	1077.7396	1084.1173	1116.6676	1168.899	1178.4264	1318.9954	1333.2653	1343.9331	1367.9913	1404.2422	1405.4152	1477.9103	1489.1717	1492.0781	1496.1506	1513.269	2237.1718	2362.1219	2929.5758	3043.5205	3044.279	3050.6295	3118.9752	3121.4119	3125.739	3143.8975	3500.5071	3518.9987
CC(NC(C)C#N)C#C	C[C@@H](N[C@@H](C)C#N)C#C	
InChI=1S/C7H10N2/c1-4-6(2)9-7(3)5-8/h1,6-7,9H,2-3H3	InChI=1S/C7H10N2/c1-4-6(2)9-7(3)5-8/h1,6-7,9H,2-3H3/t6-,7+/m1/s1
