23
gdb 53505	4.06341	0.64935	0.60366	0.0922	95.39	-0.2388	0.0635	0.3023	1950.3485	0.203602	-351.128535	-351.117552	-351.116608	-351.166161	39.07	
C	 0.066942813	 1.4811263525	 0.0695043495	-0.497974
C	 0.0100749123	 0.0258292813	 0.0516036619	 0.100552
C	-0.0237771489	-1.1783081674	 0.0375830143	 0.030559
C	-0.0932522453	-2.6357413906	 0.0302089352	-0.358023
C	-1.525691597	-3.197837934	-0.1612939081	 0.018241
C	-2.1188864637	-2.7846031443	-1.5133291708	-0.391368
C	-1.519841544	-4.706605793	 0.0025484873	 0.046088
C	-1.5533100843	-5.335730641	 1.3724697642	-0.276623
C	-2.7566868873	-5.4320116237	 0.4652900251	-0.283446
H	 0.7203858932	 1.8453430239	 0.87029957	 0.145023
H	 0.4518059168	 1.8786928748	-0.8763806981	 0.144675
H	-0.925121235	 1.9178011935	 0.230701406	 0.144591
H	 0.55121358	-3.0322732714	-0.76748209	 0.117392
H	 0.3148143331	-3.0279382262	 0.9703080856	 0.124044
H	-2.1510795925	-2.7730658521	 0.6356275747	 0.075115
H	-3.1459510794	-3.1477054685	-1.615341515	 0.11227
H	-2.1212973763	-1.6969297359	-1.6248259693	 0.124558
H	-1.5331728744	-3.2057165247	-2.3396488073	 0.107605
H	-0.919348197	-5.2273252065	-0.7415711189	 0.076742
H	-0.9673133276	-6.2308687427	 1.5495614572	 0.109588
H	-1.6219604745	-4.6750526217	 2.2311958177	 0.110454
H	-3.6271316739	-4.8345944408	 0.718164559	 0.110316
H	-2.9937536272	-6.3924823616	 0.02116271	 0.10962
27.995	51.2575	83.6632	96.8254	182.1108	212.4485	229.7464	257.8309	292.022	335.4076	388.4893	412.2227	454.0188	522.6089	750.9137	780.1671	824.9544	830.736	873.085	897.2696	939.0548	964.337	1000.4006	1053.0152	1053.7758	1057.9193	1079.4512	1108.1657	1123.5968	1141.1352	1167.0931	1196.1807	1199.4864	1226.3232	1247.2585	1290.4628	1342.4935	1358.3281	1407.6963	1415.9601	1421.0216	1470.9059	1472.1359	1479.8609	1480.0589	1497.0647	1500.2383	1507.8651	2369.857	3002.9634	3016.2521	3024.2634	3029.2264	3044.6979	3083.4116	3083.5674	3094.9192	3116.9897	3119.02	3126.3257	3131.59	3203.7514	3218.8759
CC#CCC(C)C1CC1	CC#CC[C@@H](C)C1CC1	
InChI=1S/C9H14/c1-3-4-5-8(2)9-6-7-9/h8-9H,5-7H2,1-2H3	InChI=1S/C9H14/c1-3-4-5-8(2)9-6-7-9/h8-9H,5-7H2,1-2H3/t8-/m1/s1
