16
gdb 74203	2.91031	1.39132	0.9648	2.7109	77.48	-0.2339	-0.0761	0.1578	1153.4344	0.125321	-437.954839	-437.946777	-437.945833	-437.987499	30.686	
N	 0.0629085022	 1.340605625	 0.0498558817	-0.563822
C	-0.0399648491	-0.0081953197	-0.0074923078	 0.29249
C	-1.1961766265	-0.7275647821	-0.0345242426	-0.30596
C	-1.236657203	-2.1855603333	-0.0320040956	 0.385967
O	-2.2841400182	-2.8039044301	-0.1135805884	-0.353984
C	 0.0936844778	-2.9154220649	 0.1488434172	-0.33272
C	 1.2890732722	-2.1612457688	-0.4480832716	-0.332051
C	 1.29841855	-0.6950799989	-0.0868986095	 0.361919
O	 2.3142063694	-0.0517973397	 0.0825298117	-0.331524
H	 0.9919553214	 1.7065522199	 0.1969930123	 0.275657
H	-0.7276244084	 1.9084816757	 0.2997312026	 0.266607
H	-2.1616289494	-0.2290207047	-0.0319462905	 0.096683
H	 0.2435519721	-3.0449979442	 1.2287669636	 0.133471
H	-0.0045034867	-3.915594401	-0.2787042976	 0.129968
H	 2.2489206721	-2.5947275548	-0.1569707084	 0.132751
H	 1.2377899741	-2.2061648987	-1.5452688172	 0.144548
80.0288	163.3179	166.9784	305.5615	328.9556	394.3302	399.0351	429.419	480.0486	540.6968	562.8189	609.7472	641.851	702.3277	760.7333	806.6206	894.0568	909.3175	998.3151	1028.2851	1080.8508	1149.8577	1181.4832	1227.5255	1265.2175	1317.8348	1333.2882	1356.6083	1411.2719	1462.1441	1471.5441	1600.2981	1673.0712	1752.2716	1782.8627	3020.2203	3034.8257	3103.6669	3110.2507	3169.1174	3581.8045	3721.0146
NC1=CC(=O)CCC1=O	NC1=CC(=O)CCC1=O	
InChI=1S/C6H7NO2/c7-5-3-4(8)1-2-6(5)9/h3H,1-2,7H2	InChI=1S/C6H7NO2/c7-5-3-4(8)1-2-6(5)9/h3H,1-2,7H2
