23
gdb 73270	2.38695	1.60738	1.27678	1.6316	84.25	-0.2379	0.0792	0.3171	1127.3586	0.207949	-388.300888	-388.292474	-388.29153	-388.333615	33.773	
C	-0.0689040897	 1.5226965657	 0.042737011	-0.435842
C	 0.0295345358	-0.0016989036	 0.0129806994	 0.428516
C	-1.2938463208	-0.6320332092	-0.4119740717	-0.242169
C	-1.4223262322	-2.1130899236	-0.0447078523	-0.205709
C	-1.1308208092	-2.3120566543	 1.4465091177	-0.18911
C	 0.3374369712	-1.98468004	 1.7483343275	-0.221221
C	 0.7898593153	-0.5952916146	 1.2455853134	-0.081326
C	 1.9861688178	-0.6272414908	 0.2710617282	-0.090797
O	 1.1266979888	-0.4073992045	-0.8635136296	-0.323907
H	 0.8978242557	 1.9758065348	 0.2817322417	 0.114168
H	-0.3881008989	 1.9002525224	-0.9342641228	 0.120007
H	-0.7959968342	 1.8526687838	 0.7927619697	 0.110387
H	-2.1114392782	-0.0769485298	 0.0664833263	 0.091276
H	-1.4004563307	-0.4797637104	-1.4929420983	 0.10454
H	-2.4267723713	-2.4690695654	-0.2973501734	 0.08808
H	-0.7152060981	-2.7060522657	-0.6384856998	 0.104567
H	-1.7979207627	-1.6695046258	 2.0382054499	 0.088698
H	-1.3417054693	-3.3432011819	 1.7506785008	 0.091803
H	 0.533689034	-2.0677263066	 2.8226475965	 0.093231
H	 0.9528781564	-2.7555581338	 1.2680995913	 0.099238
H	 0.883490322	 0.1074366595	 2.0771916422	 0.066957
H	 2.7110447178	 0.1885348529	 0.4008451249	 0.090733
H	 2.5309362906	-1.5754960089	 0.1963917473	 0.097878
85.7286	119.9779	238.5834	269.4256	315.2087	341.1813	363.1042	410.6094	458.1998	464.9537	572.9693	639.3514	761.944	805.9258	842.3434	866.853	891.8586	918.8358	931.0632	965.636	993.0991	1009.5346	1022.9788	1060.5123	1066.9284	1106.4555	1137.8888	1155.1585	1163.3905	1178.7824	1215.0421	1246.5917	1279.2843	1292.3992	1300.8417	1337.9653	1360.8397	1368.8747	1376.7424	1384.6882	1391.4492	1405.307	1463.6883	1485.935	1488.4198	1489.9152	1491.9337	1503.483	1525.9026	2997.8589	3009.6163	3017.434	3023.7534	3027.9039	3031.1857	3053.2239	3057.6853	3060.2854	3066.3172	3074.2117	3081.2998	3101.5414	3108.9328
CC12CCCCC1CO2	C[C@]12CCCC[C@H]1CO2	
InChI=1S/C8H14O/c1-8-5-3-2-4-7(8)6-9-8/h7H,2-6H2,1H3	InChI=1S/C8H14O/c1-8-5-3-2-4-7(8)6-9-8/h7H,2-6H2,1H3/t7-,8-/m0/s1
