17
gdb 103031	2.39199	1.77666	1.19308	1.7834	74.9	-0.2438	0.0328	0.2766	1051.52	0.13308	-421.69962	-421.691131	-421.690187	-421.732608	32.161	
C	 0.0266092441	 1.4008862476	-0.0802472818	-0.261174
O	-0.0249471038	 0.0094582528	 0.1956922371	-0.293882
C	-1.2940978481	-0.56654575	 0.080716327	 0.247163
C	-2.2621689339	-0.0096040718	 1.0176745679	 0.331282
C	-3.0020124446	 0.507428901	 1.8115883418	-0.459689
C	-1.8465583195	-0.9504465199	-1.3493083897	-0.015226
C	-0.6893007149	-1.9628331036	-1.5097579538	-0.247281
C	-1.2952366846	-2.1161035135	-0.0954072158	-0.00745
O	-2.6438748102	-2.0002682411	-0.6869372573	-0.299514
H	 1.0654807016	 1.7065438787	 0.057506322	 0.132272
H	-0.2763403458	 1.6179037194	-1.1144656068	 0.109521
H	-0.614598141	 1.9695607904	 0.6035690335	 0.1307
H	-3.6734302337	 0.9418874624	 2.5106280652	 0.196788
H	-2.351420229	-0.3262577164	-2.0863302114	 0.10064
H	-0.9123814516	-2.7907216297	-2.1824528179	 0.111082
H	 0.3278858046	-1.5834575492	-1.5953435996	 0.119124
H	-1.1368040196	-2.8786315972	 0.6664328694	 0.105643
92.1243	151.1302	156.3466	177.001	223.677	333.8658	405.2009	473.7435	503.0609	517.952	631.7939	636.8256	651.9877	659.9852	780.0712	826.9617	887.6496	914.0978	951.7919	1010.5777	1027.7759	1046.1216	1104.9786	1133.2849	1167.9902	1172.8916	1183.4064	1193.1875	1207.0648	1233.594	1273.7701	1282.9087	1470.5212	1479.9007	1487.7444	1508.6875	2231.957	2999.9586	3068.0283	3093.5637	3123.4465	3130.3484	3132.756	3175.401	3500.1192
COC1(C#C)C2CC1O2	CO[C@@]1(C#C)[C@H]2C[C@@H]1O2	
InChI=1S/C7H8O2/c1-3-7(8-2)5-4-6(7)9-5/h1,5-6H,4H2,2H3	InChI=1S/C7H8O2/c1-3-7(8-2)5-4-6(7)9-5/h1,5-6H,4H2,2H3/t5-,6+,7+
