19
gdb 6728	4.96546	0.81493	0.78792	1.7161	72.87	-0.2452	0.0259	0.2712	1514.7629	0.162435	-402.191608	-402.181674	-402.18073	-402.227245	34.361	
C	 0.2232057403	 0.8149224065	-0.4920773776	-0.314751
N	 1.1310451989	-0.0486417246	 0.2330565669	-0.207691
C	 0.6400720202	-0.7833555622	 1.126341887	 0.132812
O	 1.4297277496	-1.5855154312	 1.8724170816	-0.19934
C	 0.7743543912	-2.5189297066	 2.7270572911	-0.109465
C	 0.5621518742	-3.8765781769	 2.0416097588	 0.123378
C	 1.8708492293	-4.5123998875	 1.5861268936	-0.404648
O	-0.183632607	-4.7197915206	 2.9112631379	-0.425884
H	 0.526388184	 1.860225348	-0.3624352539	 0.128403
H	 0.2861625025	 0.597334213	-1.5644213698	 0.127344
H	-0.8307905296	 0.7214125872	-0.1818926735	 0.095724
H	-0.4289563962	-0.8291460267	 1.3914531513	 0.07551
H	 1.4223648467	-2.6372872493	 3.6029602133	 0.106712
H	-0.192778106	-2.1294591057	 3.068098531	 0.115068
H	-0.0872064785	-3.7192365605	 1.1710190307	 0.094652
H	 2.521928178	-4.7115625049	 2.4477365587	 0.106127
H	 1.6787366627	-5.4584802499	 1.0733919067	 0.126163
H	 2.4104494784	-3.8429767431	 0.9113969014	 0.147984
H	 0.4198657712	-5.061050865	 3.5804726149	 0.281901
40.5222	68.158	90.9333	201.4687	221.502	231.8073	264.8492	273.696	308.6641	360.2405	423.2149	448.8359	480.3809	623.3882	840.7037	916.5661	961.6082	981.7661	1030.5654	1060.6357	1085.5817	1131.3855	1141.6125	1155.8807	1168.5382	1208.7306	1291.4519	1314.6779	1360.7436	1395.6435	1401.0387	1411.3314	1422.1668	1450.3214	1481.0847	1487.7365	1495.3211	1500.0091	1506.0286	1778.7322	2964.6151	2982.7628	3021.4495	3026.3946	3035.6709	3057.4506	3077.0411	3081.0595	3101.7603	3133.4166	3801.604
CN=COCC(C)O	CN=COC[C@@H](C)O	
InChI=1S/C5H11NO2/c1-5(7)3-8-4-6-2/h4-5,7H,3H2,1-2H3	InChI=1S/C5H11NO2/c1-5(7)3-8-4-6-2/h4-5,7H,3H2,1-2H3/t5-/m1/s1
