15
gdb 129978	4.58255	0.88204	0.79003	5.6258	68.57	-0.2282	-0.0169	0.2113	1387.4491	0.113456	-450.164426	-450.155911	-450.154967	-450.198792	30.127	
N	-0.1464905595	 1.3355904801	 0.0047691925	-0.598888
C	-0.0569190891	-0.0397548514	-0.0038886492	 0.414991
N	-1.0679828556	-0.8815401559	-0.1236600861	-0.35979
C	-0.464722576	-2.1050560758	 0.0135987532	 0.323829
C	-1.229820793	-3.3843238162	-0.0786559043	-0.375439
C	-1.8652273479	-3.5843273396	-1.4498560889	 0.159825
O	-1.9489281414	-4.648288999	-2.0037241173	-0.237526
N	 0.8408191547	-2.0722226793	 0.196646399	-0.269105
N	 1.0917103676	-0.7243696369	 0.1877606594	-0.248834
H	 0.6136106093	 1.8250448664	-0.4462079582	 0.258538
H	-1.0475020811	 1.6510686447	-0.3266624412	 0.272585
H	-0.5950083215	-4.2404110944	 0.1542402021	 0.144042
H	-2.0584041834	-3.3580624253	 0.6435815367	 0.143876
H	-2.2708866913	-2.6540186307	-1.9032556007	 0.095524
H	 2.0201798283	-0.3860955369	 0.3747245631	 0.27637
44.3345	62.6416	130.8627	238.0147	270.233	310.8561	386.7807	423.9019	442.6949	481.9557	632.7618	664.6547	736.1909	747.1478	777.9535	838.413	1015.4933	1030.8535	1048.7634	1065.6441	1116.9508	1138.146	1201.7033	1284.866	1328.4857	1397.4719	1417.9274	1437.7181	1491.1901	1574.2418	1605.5139	1662.4668	1836.9396	2903.3782	3020.179	3134.0641	3563.1896	3662.5929	3674.3414
NC1=NC(CC=O)=NN1	Nc1nc(CC=O)n[nH]1	
InChI=1S/C4H6N4O/c5-4-6-3(1-2-9)7-8-4/h2H,1H2,(H3,5,6,7,8)	InChI=1S/C4H6N4O/c5-4-6-3(1-2-9)7-8-4/h2H,1H2,(H3,5,6,7,8)
