18
gdb 20030	4.15936	1.26489	1.12713	2.8142	67.89	-0.2542	0.0841	0.3382	1089.8869	0.15341	-384.89344	-384.885213	-384.884269	-384.926481	30.114	
O	 0.1504165471	 1.2116783121	-0.5625108943	-0.420113
C	 0.0764951927	-0.0389685688	 0.1113803582	-0.097402
C	-1.3428951729	-0.5572024908	 0.1770277671	-0.031072
C	-1.915232041	-1.3672354484	-0.9678434945	-0.313932
C	-1.6733092703	-2.0217930693	 0.3671767168	-0.052506
C	-0.6160138471	-3.0722533075	 0.5233134268	 0.060946
C	-0.5756385571	-4.2686135391	-0.330766377	-0.176495
O	 0.3584585237	-3.2013157078	-0.5145341634	-0.226714
H	-0.1945496724	 1.0748276904	-1.4511233474	 0.279963
H	 0.7341328974	-0.7859121863	-0.3524060751	 0.117557
H	 0.4573994972	 0.1550004071	 1.120347894	 0.106436
H	-2.0289412837	 0.1395664392	 0.652011955	 0.091481
H	-2.9361187265	-1.1864556909	-1.2846438903	 0.111408
H	-1.2302201095	-1.6465649488	-1.7625591527	 0.127814
H	-2.548122173	-2.2223685028	 0.9815125524	 0.092264
H	-0.1957213035	-3.1640790704	 1.5266643678	 0.095896
H	-0.1512372773	-5.1963491656	 0.0495168583	 0.117162
H	-1.3143797739	-4.3786771323	-1.1229477918	 0.117307
81.5731	104.2805	128.4545	208.6286	257.8044	306.7653	355.7844	420.1698	538.2966	608.9048	733.1744	810.5997	854.1605	864.7823	904.5429	927.2147	970.8251	1004.0052	1054.6302	1071.6467	1081.5259	1097.617	1122.8315	1138.7719	1157.7872	1168.7397	1175.1184	1227.0204	1245.0518	1290.7506	1357.5116	1384.8294	1411.9783	1431.8717	1439.7204	1485.7878	1512.8221	1523.3145	3022.114	3069.0039	3085.9242	3091.195	3129.4783	3131.5168	3144.8595	3177.0233	3219.3875	3809.2968
OCC1CC1C1CO1	OC[C@H]1C[C@H]1[C@H]1CO1	
InChI=1S/C6H10O2/c7-2-4-1-5(4)6-3-8-6/h4-7H,1-3H2	InChI=1S/C6H10O2/c7-2-4-1-5(4)6-3-8-6/h4-7H,1-3H2/t4-,5-,6-/m1/s1
