15
gdb 19318	4.74581	1.74961	1.5356	1.9608	72.61	-0.2206	0.0222	0.2428	842.1467	0.118022	-325.399177	-325.39245	-325.391506	-325.429666	27.067	
C	 0.0837709616	-1.1674712504	 0.026450814	-0.37446
C	 0.0384692667	 0.0351898778	 0.0111041141	 0.217156
C	-0.0167612487	 1.4531850696	-0.0071050617	 0.169724
C	 0.2616425682	 2.2750491243	-1.248534734	-0.345749
C	 1.0953886097	 2.5054125316	-0.0270255505	-0.124438
C	 0.3286413737	 3.2210771243	 1.0945227971	-0.03078
C	-1.081370049	 3.5414078269	 0.7906983226	-0.253687
N	-0.7296000467	 2.1538409038	 1.1553511464	-0.174317
H	 0.1231955418	-2.2281810957	 0.0452303201	 0.188301
H	 0.7593766784	 1.6932097768	-2.0170462629	 0.136261
H	-0.4310586096	 3.0095678906	-1.6429933565	 0.121145
H	 2.1633732233	 2.3384935757	-0.0012073476	 0.111953
H	 0.8201889053	 3.5523831	 2.0031067895	 0.105836
H	-1.6496815158	 4.0222787888	 1.5821439287	 0.128843
H	-1.422504489	 3.794583566	-0.2057800893	 0.124211
145.9964	158.4712	321.7598	436.9856	472.5562	489.1772	514.0245	557.3255	599.0915	669.8916	705.4399	750.3839	801.7369	831.1884	902.8067	911.0228	956.9465	982.5828	1015.5098	1051.1213	1052.8378	1072.9643	1106.2139	1133.529	1158.735	1224.9	1281.0062	1343.8934	1367.3552	1467.7841	1513.4074	2232.1302	3125.7328	3139.2829	3164.8845	3208.9892	3213.6288	3220.8012	3503.7947
C#CC12CC1C1CN21	C#C[C@]12C[C@H]1[C@H]1CN21	
InChI=1S/C7H7N/c1-2-7-3-5(7)6-4-8(6)7/h1,5-6H,3-4H2	InChI=1S/C7H7N/c1-2-7-3-5(7)6-4-8(6)7/h1,5-6H,3-4H2/t5-,6+,7-,8?/m0/s1
