17
gdb 128212	2.78666	1.48787	0.97593	1.6642	83.77	-0.1879	-0.02	0.1679	1172.7974	0.138805	-414.20965	-414.201365	-414.200421	-414.242699	31.052	
C	 0.0983379306	 1.3932926855	-0.1314333365	-0.327159
N	-0.0718303561	-0.0359169593	-0.0964162184	-0.352011
C	-1.2626555377	-0.6559831524	 0.0146269451	 0.388498
C	-2.4970526762	-0.064375071	 0.1114881661	-0.273862
C	-3.651207162	-0.8871073301	 0.2224402016	 0.023873
N	-3.6393077264	-2.1885966392	 0.2403323482	-0.23272
N	-2.4020173907	-2.7484714982	 0.1423507147	-0.308244
C	-1.1788444423	-2.1261814654	 0.029108545	 0.340767
N	-0.0218973254	-2.6898641469	-0.0612058466	-0.591366
H	 1.1607541245	 1.6238292346	-0.2246862686	 0.136795
H	-0.4270952997	 1.844215073	-0.984502876	 0.131029
H	-0.2773651546	 1.8696355034	 0.7845663718	 0.131036
H	 0.7156498447	-0.6679554968	-0.1541654031	 0.268427
H	-2.6076754826	 1.0126429304	 0.1050502377	 0.09372
H	-4.6356673867	-0.4372434915	 0.2999722836	 0.113321
H	-2.4184582426	-3.7569266584	 0.1588344773	 0.258229
H	-0.0774864867	-3.7071479676	-0.0414341718	 0.199667
88.6496	116.1205	161.0284	202.611	248.8471	364.6089	455.5379	508.0851	528.32	544.8224	574.9747	603.8897	646.4716	756.5359	783.735	787.6604	834.9888	896.3806	933.0774	1053.3344	1086.374	1104.9769	1159.939	1163.6897	1191.8188	1276.6164	1354.6399	1401.2849	1416.8252	1455.1777	1465.2178	1480.087	1517.6828	1549.8957	1619.4284	1659.6839	1685.3137	2999.1546	3040.3829	3132.7719	3183.2157	3208.8949	3485.7627	3578.6648	3621.032
CNC1=CC=NNC1=N	CNC1=C(NN=CC1)[NH]	
InChI=1S/C5H8N4/c1-7-4-2-3-8-9-5(4)6/h2-3H,1H3,(H2,6,9)(H,7,8)	InChI=1S/C5H9N4/c1-7-4-2-3-8-9-5(4)6/h3,6-7,9H,2H2,1H3
