20
gdb 112195	2.50596	1.31328	0.97287	2.8058	81.63	-0.2529	0.0283	0.2812	1281.8188	0.170437	-403.145299	-403.13626	-403.135316	-403.179223	33.862	
C	-0.0366427582	 1.5620413077	-0.1162150158	-0.385662
C	-0.0880786476	 0.1086032611	 0.3647101286	-0.193357
C	-1.397895976	-0.5730502667	 0.0245390165	 0.066904
O	-1.5948109929	-0.6956115633	-1.4357065136	-0.291204
C	-1.6814838767	-2.0736545261	-1.3548296313	 0.396461
N	-1.861718239	-2.9431158119	-2.2414737278	-0.564287
C	-1.4933632952	-2.0966035727	 0.1202372738	 0.188077
C	-0.6988038551	-3.0880903759	 0.9238858031	-0.318557
C	-2.187594146	-2.9868156515	 1.1108149392	-0.321035
H	 0.9251732853	 2.0220576564	 0.1273936724	 0.11648
H	-0.1747693909	 1.6123789557	-1.1998051992	 0.139296
H	-0.8240260493	 2.1633464636	 0.3513823627	 0.116137
H	 0.7328128095	-0.4686611946	-0.0760839693	 0.109575
H	 0.0434807876	 0.0651714614	 1.4541464147	 0.100865
H	-2.252711999	-0.0364623323	 0.4523463776	 0.090898
H	-1.9552144919	-2.5225548748	-3.16674936	 0.226112
H	-0.3024774088	-3.9430391821	 0.3875472608	 0.141228
H	-0.0564838299	-2.6993716659	 1.7070401981	 0.121067
H	-2.5598212972	-2.5288197311	 2.0215052693	 0.120009
H	-2.8138204088	-3.7724249071	 0.7027681003	 0.140992
88.2144	108.2638	139.4708	200.2477	205.8875	223.4922	289.2144	351.268	461.7768	542.5318	597.9874	685.945	735.639	776.4566	801.0105	843.323	858.6834	889.3401	943.9473	953.5606	959.7876	1008.3569	1014.0288	1059.2422	1071.3195	1083.1539	1096.7106	1161.9936	1195.1477	1198.684	1255.997	1287.0927	1288.7834	1344.0276	1401.0512	1412.4325	1414.3443	1457.1912	1475.1239	1498.0035	1501.0389	1508.5216	1824.4451	3023.6717	3038.1789	3040.9277	3070.0272	3106.9719	3121.5352	3131.5965	3134.8832	3216.3378	3230.5216	3485.8771
CCC1OC(=N)C11CC1	CC[C@H]1O[C]([NH])C21CC2	
InChI=1S/C7H11NO/c1-2-5-7(3-4-7)6(8)9-5/h5,8H,2-4H2,1H3	InChI=1S/C7H11NO/c1-2-5-7(3-4-7)6(8)9-5/h5,8H,2-4H2,1H3/t5-/m1/s1
