17
gdb 72339	2.38631	2.22772	1.63377	3.1196	70.65	-0.2361	0.0291	0.2651	885.1706	0.137511	-417.972883	-417.965881	-417.964937	-418.003875	28.242	
C	-0.0853816322	 1.518544969	-0.0297071193	-0.475526
C	 0.0210548887	 0.0132649348	 0.0144725888	 0.414718
O	-1.2106164801	-0.597271752	-0.4280117714	-0.258856
C	-1.5178050127	-1.5167692969	 0.5282345285	 0.123929
N	-0.7996166505	-1.6427127583	 1.5691429119	-0.265808
C	 0.313993066	-0.7253293699	 1.3669236958	-0.080002
C	 1.5991715287	-1.3017006582	 0.7256317409	-0.043401
N	 1.1790213091	-2.0694863833	-0.4613386307	-0.325336
C	 1.3070067434	-0.6046090833	-0.5696286677	-0.118706
H	 0.8466301205	 1.9739052685	 0.3199886209	 0.123248
H	-0.2725376595	 1.8653245836	-1.0512214408	 0.131696
H	-0.902758973	 1.8663028868	 0.6082906056	 0.132318
H	-2.4222867803	-2.0781319432	 0.3209005416	 0.134067
H	 0.506182189	-0.0961934631	 2.2392672824	 0.080464
H	 2.5471556623	-1.4953349997	 1.2116985505	 0.098742
H	 2.0160353392	-2.4797010496	-0.8726670912	 0.235984
H	 1.9773873414	-0.1477975155	-1.288335296	 0.092469
195.6585	213.3161	234.5857	260.7802	324.187	468.0238	506.749	580.1027	651.9838	680.0678	802.0276	828.9773	841.1757	855.6883	902.1309	923.4913	934.8303	950.4143	979.4196	1006.128	1047.0766	1082.1778	1092.9544	1102.8675	1166.042	1171.6239	1195.9753	1234.2943	1279.0541	1317.8009	1324.2988	1340.3707	1385.5518	1410.771	1483.3755	1491.9721	1672.7513	3037.3239	3083.3928	3107.6611	3117.2561	3178.7927	3196.4766	3213.7266	3486.9418
CC12OC=NC1C1NC21	C[C@]12OC=N[C@H]1[C@H]1N[C@@H]21	
InChI=1S/C6H8N2O/c1-6-4(7-2-9-6)3-5(6)8-3/h2-5,8H,1H3	InChI=1S/C6H8N2O/c1-6-4(7-2-9-6)3-5(6)8-3/h2-5,8H,1H3/t3-,4+,5-,6+/m1/s1
