20
gdb 114019	4.49861	0.62758	0.58579	2.8274	78.45	-0.2479	0.0327	0.2806	1865.4766	0.170285	-440.286511	-440.276398	-440.275454	-440.323316	35.449	
O	-0.438760036	 1.4774338715	-0.6561040922	-0.419839
C	-0.0093712528	 0.227568963	-0.131608064	-0.099119
C	-1.2427989499	-0.5494529971	 0.2512615106	 0.007946
C	-1.9940141018	-1.3624451158	-0.7727327451	-0.295911
C	-1.2751557283	-2.0559900195	 0.364711721	-0.024535
C	-0.0721818364	-2.9374836911	 0.1043893513	-0.183781
N	-0.4785850169	-4.288763478	-0.258035787	-0.27128
C	-0.0129639265	-5.4029509156	 0.3654975087	 0.15401
O	 0.8074521773	-5.4185137308	 1.2590671321	-0.323391
H	 0.340524604	 2.0209820279	-0.8061437501	 0.286245
H	 0.5835201114	-0.3270102963	-0.8749583245	 0.08225
H	 0.6305418778	 0.3707342618	 0.753874785	 0.091909
H	-1.8537408494	-0.0204102438	 0.9773016795	 0.096992
H	-3.0776818423	-1.3332339459	-0.7740968951	 0.116009
H	-1.5493374417	-1.4308946597	-1.7617796897	 0.111233
H	-1.9091478868	-2.4400974768	 1.1596820193	 0.095887
H	 0.5565049449	-2.5141004753	-0.6883237921	 0.106156
H	 0.550997441	-3.0412871839	 0.9962599732	 0.149987
H	-1.1773137735	-4.3983598662	-0.976240446	 0.247302
H	-0.477269634	-6.3229037184	-0.0432667751	 0.07193
32.8119	51.302	92.0772	116.9957	190.146	238.9357	251.2801	275.9881	340.0069	373.9368	442.7634	544.3176	572.2934	743.6346	800.678	848.7653	883.2059	903.7662	943.44	983.849	1031.9648	1050.7758	1062.6391	1070.3568	1080.9158	1144.2989	1163.3501	1185.467	1209.8057	1236.7592	1260.1198	1283.3357	1287.549	1352.1793	1390.6282	1430.5882	1432.2591	1473.4012	1494.4942	1499.9802	1521.27	1529.7288	1805.3675	2930.6286	2968.9499	2996.7382	3030.6114	3106.7764	3124.8663	3138.8162	3151.6295	3212.5061	3631.0352	3826.2933
OCC1CC1CNC=O	OC[C@H]1C[C@H]1CNC=O	
InChI=1S/C6H11NO2/c8-3-6-1-5(6)2-7-4-9/h4-6,8H,1-3H2,(H,7,9)	InChI=1S/C6H11NO2/c8-3-6-1-5(6)2-7-4-9/h4-6,8H,1-3H2,(H,7,9)/t5-,6+/m0/s1
