18
gdb 109991	2.43851	1.28085	0.94421	5.7997	72.25	-0.263	0.026	0.289	1230.4086	0.147624	-439.080703	-439.071609	-439.070665	-439.114699	33.5	
O	 0.2918669065	 1.181868744	-0.4837724412	-0.428394
C	 0.165842389	-0.2095513327	-0.278496136	-0.070118
C	-1.2847443806	-0.5911201322	 0.0314272125	-0.07101
C	-2.2307666462	-0.5196318867	-1.1983734004	 0.119768
O	-1.75326743	 0.3181607759	-2.2314746776	-0.429722
C	-2.1022805645	-2.0542617599	-1.3831863576	-0.276685
C	-1.5745930454	-2.1347637852	 0.0844381963	-0.166309
C	-0.4751967627	-3.0423550703	 0.363838621	 0.284133
N	 0.4039089311	-3.7632227875	 0.5762880737	-0.333112
H	-0.2358031342	 1.3828298498	-1.266425775	 0.293034
H	 0.5402019086	-0.7840802747	-1.139122419	 0.099946
H	 0.7989898201	-0.4663915618	 0.5766485727	 0.124698
H	-1.614066673	-0.0293914056	 0.9079427525	 0.094261
H	-3.2481621046	-0.2336055895	-0.9021277448	 0.083574
H	-2.4214808647	 0.3927845228	-2.9191386915	 0.296215
H	-2.9993699784	-2.6293585311	-1.6184181821	 0.115497
H	-1.3155644442	-2.2908737565	-2.1021144618	 0.136177
H	-2.3875281865	-2.3491748687	 0.7831634882	 0.128049
76.1295	114.5359	156.697	197.2978	209.7168	255.2058	308.6806	377.3387	401.6283	487.0042	513.555	551.7922	608.6109	668.7216	777.5536	836.9456	897.0071	931.469	985.9398	1040.158	1057.623	1089.6862	1098.253	1108.1777	1142.0805	1197.995	1205.8	1240.9644	1259.9808	1273.1508	1318.8478	1331.865	1358.277	1401.564	1432.61	1448.5957	1483.5087	1504.4476	2352.005	2994.0669	3017.5692	3073.9234	3078.591	3079.5458	3094.6349	3142.1944	3785.461	3832.2489
OCC1C(O)CC1C#N	OC[C@H]1[C@@H](O)C[C@H]1C#N	
InChI=1S/C6H9NO2/c7-2-4-1-6(9)5(4)3-8/h4-6,8-9H,1,3H2	InChI=1S/C6H9NO2/c7-2-4-1-6(9)5(4)3-8/h4-6,8-9H,1,3H2/t4-,5+,6-/m0/s1
