20
gdb 12843	2.81801	2.32117	1.76564	0.1237	79.38	-0.2342	0.028	0.2622	863.8303	0.17877	-311.879358	-311.872091	-311.871147	-311.910361	29.372	
C	-0.114149775	 1.5393973873	 0.012451778	-0.469105
C	-0.011356215	 0.0176623359	 0.0031213149	 0.324014
C	-1.2986802462	-0.7716774654	 0.4040639758	-0.264165
C	-0.435286334	-1.6830911992	 1.3176959372	-0.223639
C	 0.7755824328	-0.7179929497	 1.149959028	-0.037511
C	 2.0521153033	-1.3174430983	 0.5319539578	-0.280539
C	 1.7727731674	-1.2278398629	-0.9530932779	-0.065109
C	 0.6756538077	-0.5225444356	-1.2290293963	-0.126599
H	 0.870390196	 2.0051539815	-0.1062209399	 0.114245
H	-0.750699931	 1.896356648	-0.8063261201	 0.111585
H	-0.5500222187	 1.8992118936	 0.9510198175	 0.108584
H	-1.9996409901	-0.1487855164	 0.9685688049	 0.091701
H	-1.8478552953	-1.2602453814	-0.4056567701	 0.091828
H	-0.8003341815	-1.8275803775	 2.337225551	 0.094281
H	-0.2434978006	-2.6667314876	 0.8803060698	 0.100001
H	 0.965291968	-0.1107037664	 2.0379018868	 0.058004
H	 2.9591259009	-0.7572340079	 0.7994260381	 0.09993
H	 2.222343855	-2.3495949342	 0.8661018559	 0.099955
H	 2.4186478234	-1.6860522213	-1.6953001001	 0.087912
H	 0.2976526228	-0.3232141525	-2.2278155012	 0.084627
120.5299	227.8342	236.0144	259.0686	337.3094	395.6349	464.9972	593.1899	639.6583	719.9931	760.1482	776.2543	800.2878	873.6675	899.1977	913.7936	950.2966	953.0436	966.7647	981.6306	1016.3417	1046.8327	1099.6247	1112.6105	1151.4681	1178.758	1193.5812	1214.8607	1234.1468	1259.3855	1273.1472	1285.4552	1311.1631	1327.7167	1383.7935	1408.8734	1475.6095	1485.6801	1492.6791	1493.6795	1498.0408	1678.1733	3005.0793	3019.2056	3033.9529	3044.7822	3058.7412	3077.5968	3084.0237	3091.14	3094.1914	3114.2437	3164.4862	3192.6037
CC12CCC1CC=C2	C[C@]12CC[C@H]1CC=C2	
InChI=1S/C8H12/c1-8-5-2-3-7(8)4-6-8/h2,5,7H,3-4,6H2,1H3	InChI=1S/C8H12/c1-8-5-2-3-7(8)4-6-8/h2,5,7H,3-4,6H2,1H3/t7-,8+/m1/s1
