14
gdb 46020	5.35569	1.02198	0.87347	3.6175	76.85	-0.2218	-0.0347	0.1871	1231.8752	0.101392	-436.705556	-436.697652	-436.696708	-436.738311	29.23	
O	 0.0457664331	-0.0285100367	 0.2349135261	-0.372674
C	 0.0083341232	 1.155030873	 0.0328487243	 0.482477
N	-1.183779941	 1.864437722	-0.0644800906	-0.380112
C	-1.2514310293	 3.2479734042	-0.0248671741	-0.058236
C	-0.1563563944	 3.9825545698	-0.2801560761	 0.051899
C	 1.0881029885	 3.2122403839	-0.6601750189	-0.177124
O	 1.1275309194	 1.9002399844	-0.0643656963	-0.239662
C	-0.1230843878	 5.3927836044	-0.2543778013	 0.23222
C	-0.0355459848	 6.5955037994	-0.25436016	-0.425924
H	-2.0024010504	 1.3114703576	 0.1316545176	 0.274243
H	-2.2140127151	 3.6759507855	 0.2233068994	 0.13577
H	 1.1643053374	 3.1002997373	-1.7511004217	 0.132461
H	 1.990096325	 3.7152061402	-0.307935644	 0.146819
H	 0.023605006	 7.655546185	-0.2490898643	 0.197842
69.9703	135.794	159.3487	208.4104	410.441	421.9661	447.9205	497.8731	526.2005	555.4447	568.9568	615.0672	667.2436	743.6798	767.3384	833.4295	900.0151	938.4448	1033.0365	1065.5745	1152.2814	1231.0258	1232.1738	1271.5578	1361.2947	1428.3934	1467.1615	1504.2019	1709.6633	1860.4953	2219.0616	3005.4444	3116.1096	3221.0322	3503.4131	3656.3605
O=C1NC=C(CO1)C#C	O=C1NC=C(CO1)C#C	
InChI=1S/C6H5NO2/c1-2-5-3-7-6(8)9-4-5/h1,3H,4H2,(H,7,8)	InChI=1S/C6H5NO2/c1-2-5-3-7-6(8)9-4-5/h1,3H,4H2,(H,7,8)
