20
gdb 11462	4.03656	1.28768	1.18594	2.6147	70.62	-0.2518	0.0794	0.3312	1100.7866	0.177969	-386.14844	-386.140033	-386.139089	-386.181937	31.286	
C	 0.1608166549	 1.5458283912	 0.0212872548	-0.394782
C	 0.0280986426	 0.0200040064	-0.0252033653	 0.026498
C	 0.8868300147	-0.5939159987	-1.1478507777	-0.089554
O	 2.1621643738	-0.8045498615	-0.5625894	-0.277317
C	 1.925686756	-1.3334613542	 0.7456304084	 0.130713
C	 3.16847499	-1.0441142097	 1.5731860953	-0.072832
O	 4.3254881114	-1.6136721019	 0.9967226663	-0.425357
C	 0.6210242654	-0.6652225971	 1.2399745187	-0.277219
H	 1.2146384069	 1.8360929363	 0.0925993296	 0.126309
H	-0.2565475317	 2.0094094533	-0.8789625844	 0.112389
H	-0.3627790869	 1.9636749579	 0.8871964998	 0.114243
H	-1.0245129189	-0.2488567036	-0.1566858468	 0.073684
H	 0.4595911766	-1.5493947456	-1.4943343645	 0.0856
H	 1.0161905463	 0.0621766254	-2.013151353	 0.105416
H	 1.795327113	-2.4247796093	 0.6673677128	 0.071049
H	 3.2668412321	 0.0487193839	 1.6872551902	 0.084474
H	 3.0603222612	-1.4773299213	 2.5734609984	 0.105794
H	 4.320420726	-1.3422255032	 0.0712749859	 0.292534
H	 0.8274673374	 0.0746701629	 2.0205700572	 0.103583
H	-0.0615521906	-1.4047825712	 1.6649558345	 0.104774
33.9194	125.1519	176.0049	209.7508	261.7512	349.6649	375.9517	414.2338	441.6088	474.2852	658.8946	711.158	815.4942	830.3114	881.8957	935.5092	958.882	999.8441	1031.9836	1039.5067	1067.6112	1088.7852	1117.6071	1146.5731	1162.6003	1206.0724	1246.3399	1253.7569	1279.2224	1308.3309	1341.9195	1352.1952	1367.6716	1385.5324	1400.6553	1415.9734	1440.801	1491.2545	1496.3255	1498.1966	1503.9542	1515.4204	2960.3845	2967.5009	2978.1328	3029.3419	3049.4112	3057.2058	3072.2901	3089.377	3097.8098	3102.0797	3105.5609	3797.5335
CC1COC(CO)C1	C[C@H]1CO[C@@H](CO)C1	
InChI=1S/C6H12O2/c1-5-2-6(3-7)8-4-5/h5-7H,2-4H2,1H3	InChI=1S/C6H12O2/c1-5-2-6(3-7)8-4-5/h5-7H,2-4H2,1H3/t5-,6-/m1/s1
