16
gdb 38001	3.42712	1.92542	1.58034	3.5415	72.58	-0.2191	-0.0332	0.1859	853.1282	0.125398	-400.627906	-400.62176	-400.620816	-400.658056	26.141	
C	 0.1198449255	 1.5950037225	-0.1273884311	-0.277143
C	 1.3473232773	 0.711329442	-0.0032429899	-0.030777
N	 1.9518711486	 0.9197593181	 1.3092093299	-0.235697
C	 1.5286444442	 0.055240709	 2.1204391422	 0.318922
O	 0.8395980219	 0.4126545077	 3.2879422976	-0.25794
C	-0.1420772502	-0.5801562287	 2.8597922321	 0.066118
C	-0.4371234098	-0.6910675968	 1.3000759542	-0.089949
C	-0.0561808276	 0.1065937492	 0.0530701785	-0.043701
C	 0.7814235318	-1.2802529612	 1.9556951087	-0.229415
H	-0.0723372745	 2.2419224694	 0.7217992045	 0.136789
H	-0.1241236075	 2.0200550373	-1.0959088489	 0.112446
H	 1.9888041114	 0.5547007827	-0.8634417458	 0.096588
H	-0.8478324698	-0.9147088962	 3.609632113	 0.126542
H	-1.282625291	-1.3634860866	 1.1559106741	 0.096106
H	-0.3822091489	-0.4246590887	-0.8376024679	 0.094015
H	 1.1897460986	-2.2806902795	 1.9159290887	 0.117095
172.04	270.7755	406.6967	455.0895	527.209	543.2476	585.6456	641.8252	758.2612	779.4509	791.5685	798.3703	821.451	873.6501	878.6598	901.4316	961.309	994.9199	1016.3722	1047.3377	1050.3848	1061.275	1070.0629	1099.0617	1105.3787	1125.619	1157.966	1206.5533	1230.3673	1294.9969	1318.6364	1364.7957	1389.3175	1470.2505	1703.5717	3108.2552	3126.1617	3136.9534	3167.6934	3198.5161	3211.0944	3221.2522
C1C2N=C3OC4C(C12)C34	C1[C@H]2[N][C]3O[C@H]4[C@@H]([C@@H]12)[C@@H]34	
InChI=1S/C7H7NO/c1-2-3(1)8-7-5-4(2)6(5)9-7/h2-6H,1H2	InChI=1S/C7H7NO/c1-2-3(1)8-7-5-4(2)6(5)9-7/h2-6H,1H2/t2-,3+,4-,5+,6-/m0/s1
