21
gdb 75653	2.42271	1.7195	1.24525	3.0677	82.14	-0.2294	-0.0033	0.2261	1086.1921	0.182877	-387.113127	-387.104637	-387.103693	-387.145632	33.678	
C	-0.1085196656	 1.5462452548	-0.0147422441	-0.425894
C	 0.0475898442	 0.0271395207	 0.0505965589	-0.125009
C	 0.9852279121	-0.5411605088	-1.0432017028	 0.438664
O	 0.9460793414	-0.3346419889	-2.2271235352	-0.348841
C	 1.9692007794	-1.3721292256	-0.2375020154	-0.131491
C	 2.2801971376	-0.3595494511	 0.9145808099	-0.276029
C	 0.7762241874	-0.5848994031	 1.278641327	 0.332953
C	 0.2282600193	-0.2840992008	 2.6544120885	-0.499428
C	 0.9992867664	-2.0486569724	 0.7833745758	-0.276324
H	 0.8353758382	 2.0639246738	 0.1845516994	 0.118446
H	-0.4404307266	 1.8382455974	-1.0151801449	 0.139458
H	-0.8476526714	 1.9029376928	 0.7088902804	 0.116625
H	-0.9416843452	-0.4356824507	-0.0682285177	 0.090881
H	 2.738419709	-1.9097783176	-0.7873117247	 0.079761
H	 2.9533427741	-0.7926191767	 1.6588854217	 0.104487
H	 2.6192687937	 0.6447071837	 0.6467445142	 0.104505
H	 0.2481569072	 0.7905133127	 2.8660642981	 0.122355
H	-0.8109814054	-0.6204822633	 2.7476690087	 0.117979
H	 0.8137408419	-0.787805177	 3.4309583948	 0.114021
H	 0.1396522379	-2.6025638814	 0.3936012707	 0.099798
H	 1.5409654444	-2.6567089482	 1.5125016266	 0.103083
115.2745	200.0342	206.4862	222.9607	250.4002	283.3975	305.4169	470.3829	481.5357	504.0318	535.5371	665.0849	693.9582	766.365	794.1461	843.7687	865.3926	868.631	947.2232	967.3039	986.5758	1021.3642	1029.5269	1062.6257	1078.8408	1110.0374	1130.1239	1139.5033	1179.6864	1215.4575	1233.1279	1239.2457	1260.0184	1283.5087	1325.7275	1353.6527	1405.2083	1416.8206	1484.272	1490.6598	1493.0634	1498.9707	1503.132	1521.8099	1863.695	3014.7462	3024.7221	3038.7274	3047.6516	3056.8383	3089.4867	3095.1773	3105.2562	3109.747	3114.2898	3115.7972	3147.4479
CC1C(=O)C2CC1(C)C2	C[C@H]1C(=O)[C@H]2C[C@]1(C)C2	
InChI=1S/C8H12O/c1-5-7(9)6-3-8(5,2)4-6/h5-6H,3-4H2,1-2H3	InChI=1S/C8H12O/c1-5-7(9)6-3-8(5,2)4-6/h5-6H,3-4H2,1-2H3/t5-,6-,8+/m0/s1
