18
gdb 49625	4.79453	0.99366	0.91885	3.7397	79.72	-0.2393	0.0048	0.2441	1288.1024	0.147146	-401.902899	-401.8949	-401.893956	-401.935639	30.539	
O	 0.159926426	 0.0779751146	 0.5099314421	-0.296962
C	 0.0855670522	 1.1962664437	 0.058650354	 0.134005
N	 1.1019523608	 1.8588843988	-0.6030335491	-0.072183
C	 2.4860171274	 1.8293625651	-0.1684750617	-0.023542
C	 3.3499972966	 2.3393540216	-1.336181883	-0.337618
C	 2.5279253563	 3.6560836734	-1.301206006	 0.384672
C	 3.075988662	 5.047455072	-1.4060720065	-0.33569
C	 2.0848923687	 4.5345695714	-2.4288478819	-0.31446
C	 1.6985513326	 3.1180493067	-0.1514828276	-0.158034
H	-0.8506191214	 1.7877574565	 0.0573926647	 0.081322
H	 2.7714185333	 1.1863545874	 0.6536666599	 0.125637
H	 4.3942645045	 2.4900516811	-1.0513656071	 0.114501
H	 3.296275057	 1.7429944699	-2.2500615591	 0.117293
H	 2.7346143356	 5.7888965373	-0.6904242407	 0.116138
H	 4.1122374748	 5.1652896628	-1.706518658	 0.117431
H	 2.4530540914	 4.304463331	-3.4231970675	 0.119805
H	 1.0737109114	 4.9273864837	-2.408616577	 0.117532
H	 1.2728046509	 3.6552968731	 0.6888688446	 0.110154
81.7415	135.622	178.2058	227.0757	290.7381	308.7503	401.5231	451.9036	559.7579	685.7919	762.0597	774.4368	827.2215	837.1568	872.2473	899.3085	935.3177	954.9708	979.9908	1003.1839	1030.67	1033.5402	1054.4325	1070.4508	1081.2456	1134.5011	1173.9055	1185.9679	1217.8486	1230.1611	1256.3015	1291.4103	1386.358	1413.9647	1420.3076	1465.9029	1476.2926	1506.7455	1791.3397	2946.1655	3063.2968	3120.5928	3124.2175	3130.8726	3180.6474	3202.9397	3213.93	3218.5188
O=CN1C2CC3(CC3)C12	O=CN1[C@H]2CC3(CC3)[C@@H]12	
InChI=1S/C7H9NO/c9-4-8-5-3-7(1-2-7)6(5)8/h4-6H,1-3H2	InChI=1S/C7H9NO/c9-4-8-5-3-7(1-2-7)6(5)8/h4-6H,1-3H2/t5-,6-,8?/m0/s1
