17
gdb 19234	3.13774	1.95794	1.52991	2.0775	73.78	-0.2307	0.0498	0.2806	884.913	0.141607	-326.645651	-326.637931	-326.636987	-326.677372	29.691	
C	-0.1397344626	 1.5683047617	-0.1690452916	-0.409359
C	 0.0153408582	 0.0618714467	-0.047850468	 0.008483
C	 0.6797570328	-0.6944515142	-1.2085017849	-0.057406
N	 2.0620113919	-0.1699410382	-1.316452704	-0.322576
C	 1.752840307	-1.2260872194	-0.3301442872	-0.056971
C	 1.1557759664	-0.5272553302	 0.9066644094	-0.212802
C	 1.996203446	 0.3804272638	 1.6605372601	 0.36744
C	 2.6798629358	 1.134513017	 2.3011555808	-0.477429
H	 0.7993356263	 2.0236618038	-0.490108953	 0.147347
H	-0.9164064492	 1.816193371	-0.9011727987	 0.105677
H	-0.4255576937	 2.0111410078	 0.7901301381	 0.118106
H	-0.9351890105	-0.407571708	 0.2214855176	 0.076664
H	 0.1915015034	-1.1511548612	-2.0608401608	 0.09226
H	 2.4988959268	-0.6264882478	-2.1162417343	 0.23009
H	 2.2724540058	-2.1761212343	-0.3443240329	 0.09697
H	 0.7111917253	-1.2670912151	 1.5794161294	 0.101621
H	 3.2938401902	 1.8002588967	 2.8551340501	 0.191885
115.7961	133.6403	207.7909	219.5124	299.2139	364.5665	493.0487	537.1548	611.7852	618.3341	634.2056	682.0206	768.7487	816.2757	842.7434	892.0573	900.9993	955.7297	1004.5538	1032.3671	1069.5183	1097.032	1110.0884	1118.1032	1135.3435	1180.1629	1253.4798	1271.2259	1316.4936	1343.9896	1369.605	1381.6954	1405.7496	1485.9158	1500.9923	2232.9848	3036.0003	3052.902	3069.8555	3099.3713	3135.3573	3181.674	3195.7199	3479.5768	3505.115
CC1C2NC2C1C#C	C[C@H]1[C@H]2N[C@H]2[C@H]1C#C	
InChI=1S/C7H9N/c1-3-5-4(2)6-7(5)8-6/h1,4-8H,2H3	InChI=1S/C7H9N/c1-3-5-4(2)6-7(5)8-6/h1,4-8H,2H3/t4-,5+,6-,7+/m1/s1
