19
gdb 97541	2.55437	0.82976	0.72356	1.8095	87.19	-0.2518	0.0199	0.2717	1674.109	0.154621	-385.827696	-385.81664	-385.815696	-385.864811	39.375	
C	 0.0661496197	 1.4786148463	-0.3863256567	-0.364397
C	-0.0528650633	 0.1040452994	 0.2968377688	-0.317624
C	-1.3912383804	-0.469469937	 0.2031202434	 0.030632
C	-2.5023822219	-0.925532093	 0.1110849434	 0.108815
C	-3.8647266632	-1.4816652357	 0.0325831602	-0.035359
C	-3.8238132972	-3.0109770947	-0.1381930815	-0.387007
O	-4.5765140732	-1.2576743035	 1.2550362911	-0.420231
C	-4.5835662217	-0.8581554346	-1.0963349461	 0.353836
C	-5.1901734822	-0.3475052168	-1.9992056255	-0.493417
H	 1.0852010886	 1.864476496	-0.2892913606	 0.115879
H	-0.176278912	 1.4060819551	-1.4498220252	 0.131755
H	-0.620135309	 2.198752716	 0.0672296848	 0.128216
H	 0.6690998153	-0.5924054514	-0.1484748856	 0.132791
H	 0.228332653	 0.1919261475	 1.3541260328	 0.132653
H	-3.3029266515	-3.4487045786	 0.7159838876	 0.132864
H	-4.8458162127	-3.3943586723	-0.1752454468	 0.133624
H	-3.301591147	-3.2771679604	-1.0586480916	 0.131771
H	-4.5940585873	-0.3057363706	 1.4058597046	 0.285397
H	-5.7229097639	 0.1054374381	-2.7986589472	 0.199802
25.5911	67.5668	104.548	163.8383	174.4495	213.7533	222.416	251.7398	304.5839	347.2795	377.1182	447.1912	457.8611	518.1739	572.5315	599.704	634.8239	654.9276	661.6325	785.2286	846.8855	934.4352	950.8491	1031.4342	1073.6451	1096.2072	1104.7778	1157.8386	1231.2129	1286.4355	1350.1083	1359.9939	1398.0873	1410.5146	1473.0249	1479.2935	1485.6408	1495.072	1505.2865	2233.0652	2360.9937	3022.0143	3045.807	3049.5831	3058.3554	3119.35	3125.6504	3143.288	3149.946	3501.2138	3805.8633
CCC#CC(C)(O)C#C	CCC#C[C@@](C)(O)C#C	
InChI=1S/C8H10O/c1-4-6-7-8(3,9)5-2/h2,9H,4H2,1,3H3	InChI=1S/C8H10O/c1-4-6-7-8(3,9)5-2/h2,9H,4H2,1,3H3/t8-/m0/s1
