18
gdb 118611	2.93859	0.79531	0.65553	4.3553	74.38	-0.2651	-0.0384	0.2267	1675.5589	0.144404	-439.091987	-439.081543	-439.080599	-439.129197	34.576	
C	 0.0733561634	 1.4146959465	 0.0797473675	-0.234552
O	-0.0102473186	 0.007417615	 0.008916485	-0.230326
C	 0.62351387	-0.527726447	-1.1204696849	-0.054376
C	 0.5451927872	-2.0597825139	-1.0248539494	-0.179466
C	 1.0881384071	-2.7278227907	-2.3107307368	-0.295326
C	 0.9429062779	-4.2393412011	-2.3123328431	 0.148355
O	 0.4664119322	-4.8611094959	-3.2252031259	-0.231888
C	 1.2661279568	-2.53402725	 0.1621408462	 0.291781
N	 1.8608765637	-2.9255258969	 1.0722476887	-0.324425
H	 1.118232283	 1.755484609	 0.1317954572	 0.115573
H	-0.4066236543	 1.8939682839	-0.7872595133	 0.110124
H	-0.4467206495	 1.7222941548	 0.9889345774	 0.140439
H	 0.1258616596	-0.2039436026	-2.0497635663	 0.101064
H	 1.6776472945	-0.2097336107	-1.1781731787	 0.106027
H	-0.512214132	-2.3215340371	-0.8972017663	 0.149121
H	 0.5677384999	-2.3338372436	-3.1873708955	 0.13479
H	 2.1569495722	-2.4939625476	-2.4097384396	 0.142787
H	 1.3220379469	-4.7479748921	-1.3996484024	 0.110299
50.1562	61.4475	80.5347	96.7497	130.5368	164.6909	226.4876	251.725	291.4722	337.964	419.4393	489.7108	565.8301	620.1538	801.2997	821.3443	957.76	984.2782	1018.8687	1087.7547	1104.4885	1116.2123	1167.6884	1183.0888	1211.0909	1230.9599	1253.5512	1279.0753	1328.5076	1368.1588	1413.8305	1430.1392	1459.869	1480.9234	1487.132	1500.843	1526.1462	1836.3026	2359.3907	2907.3274	2958.9468	2981.7066	2993.7796	3027.1709	3030.1485	3051.3812	3111.0721	3128.9436
COCC(CC=O)C#N	COC[C@@H](CC=O)C#N	
InChI=1S/C6H9NO2/c1-9-5-6(4-7)2-3-8/h3,6H,2,5H2,1H3	InChI=1S/C6H9NO2/c1-9-5-6(4-7)2-3-8/h3,6H,2,5H2,1H3/t6-/m0/s1
