19
gdb 86314	2.49813	1.39204	1.30028	3.5522	70.83	-0.2434	0.0531	0.2965	1081.3962	0.158748	-460.114777	-460.106179	-460.105234	-460.148164	32.685	
O	-0.0755193204	 1.4436689653	 0.0798589711	-0.438536
C	 0.0736967113	 0.02360149	 0.0685521287	 0.011654
C	 0.2230409469	-0.558741153	 1.4993543476	-0.286681
C	-1.3312044279	-0.6360637341	 1.5695480496	 0.073422
O	-1.9431604388	 0.4786178427	 2.1775487765	-0.439727
C	-1.3442564333	-0.5831875832	 0.0126856781	 0.288815
C	-2.5014665291	 0.0120635407	-0.7966574677	-0.146442
O	-2.7217076424	-1.2408139904	-1.4875556035	-0.275927
C	-1.6174204886	-1.8605642587	-0.80488775	-0.143804
H	 0.7695096866	 1.8318166421	 0.3316354434	 0.290475
H	 0.7926644712	-0.2890148097	-0.6995379265	 0.070574
H	 0.6883700245	-1.5490531525	 1.4922092041	 0.108188
H	 0.7158609218	 0.0701654094	 2.2461204022	 0.097176
H	-1.7692040078	-1.5233704499	 2.0340563434	 0.084204
H	-1.5650053891	 1.2634245934	 1.7582127897	 0.284062
H	-3.3686476634	 0.3176242411	-0.2000828924	 0.114866
H	-2.2250068413	 0.8209676512	-1.4826122035	 0.110894
H	-0.8172758752	-2.1572655383	-1.49755896	 0.095853
H	-1.9284829549	-2.7400779659	-0.2252251508	 0.100934
67.2139	113.0558	186.2353	199.0597	269.927	341.8341	369.8686	396.3864	456.7613	486.887	521.4976	586.4597	807.9992	847.6092	858.7797	876.4685	887.4802	956.1808	975.8774	1007.2786	1025.2326	1037.8403	1071.9451	1138.3327	1142.6632	1156.0104	1160.6894	1169.7873	1206.8909	1225.0398	1239.7935	1271.0405	1300.5911	1311.5682	1331.7867	1376.5869	1405.4571	1447.7816	1462.9781	1507.516	1533.2811	2991.2136	3017.0172	3026.6904	3033.4544	3052.0227	3073.3888	3078.8563	3111.6601	3755.1416	3807.28
OC1CC(O)C11COC1	O[C@H]1C[C@@H](O)C21COC2	
InChI=1S/C6H10O3/c7-4-1-5(8)6(4)2-9-3-6/h4-5,7-8H,1-3H2	InChI=1S/C6H10O3/c7-4-1-5(8)6(4)2-9-3-6/h4-5,7-8H,1-3H2/t4-,5+
