19
gdb 96192	2.2404	1.87584	1.17685	1.5713	70.64	-0.2393	0.0575	0.2968	1059.1796	0.161127	-460.132579	-460.124728	-460.123784	-460.164905	30.369	
O	-0.0639508402	 1.4461186643	 0.0940827311	-0.426735
C	-0.0097330854	 0.0319586619	 0.0817993918	 0.086575
C	 0.7973735702	-0.5491778642	 1.2454135426	-0.12927
O	 0.7526826949	-1.9647882169	 1.189219769	-0.241542
C	-0.5360288178	-2.4476271109	 1.5262588438	-0.086114
C	-1.6510833529	-1.9531968906	 0.5793145613	-0.094744
C	-2.8373975603	-1.3221995921	 1.3377260604	-0.085077
O	-2.2681827904	-0.0050857741	 1.1798799852	-0.286682
C	-1.433165744	-0.49480234	 0.1025183452	 0.137376
H	 0.8304635652	 1.7816031137	-0.0239643344	 0.287431
H	 0.4421242502	-0.3475173098	-0.8506649978	 0.0726
H	 1.851311023	-0.2608973979	 1.1695760342	 0.093857
H	 0.3969241106	-0.1719378921	 2.198519489	 0.109994
H	-0.4666969475	-3.5384400397	 1.5013749535	 0.109605
H	-0.7725501362	-2.1490926548	 2.5602026817	 0.095896
H	-1.8804051691	-2.6858751051	-0.1963093328	 0.078976
H	-3.7997831835	-1.4110585687	 0.8144551664	 0.097203
H	-2.9701246794	-1.5952533665	 2.3904548333	 0.105578
H	-1.9167876874	-0.2868284165	-0.8628756435	 0.075073
120.9954	129.1304	217.2587	250.9342	320.3923	353.3393	388.4761	433.9006	466.1171	600.9562	631.4595	782.3203	841.0964	855.4327	927.9044	955.3079	972.4353	983.4706	1007.2474	1078.1183	1088.8729	1105.7985	1121.2614	1143.3266	1157.8105	1178.9459	1230.4515	1238.7517	1252.8015	1277.8458	1326.2013	1339.2745	1345.7855	1357.722	1366.5171	1416.3642	1424.7933	1448.6025	1490.2458	1500.7056	1525.9658	2957.9364	2974.72	2996.5134	2999.5929	3005.2881	3065.1852	3073.3688	3081.7166	3100.3402	3817.5685
OC1COCC2COC12	O[C@H]1COC[C@H]2CO[C@@H]12	
InChI=1S/C6H10O3/c7-5-3-8-1-4-2-9-6(4)5/h4-7H,1-3H2	InChI=1S/C6H10O3/c7-5-3-8-1-4-2-9-6(4)5/h4-7H,1-3H2/t4-,5-,6+/m0/s1
