17
gdb 106946	3.99928	1.15309	1.02653	3.5294	69.85	-0.2589	0.0255	0.2843	1162.7149	0.136865	-455.125574	-455.117462	-455.116517	-455.1586	30.33	
O	 0.1693475268	 1.0693922745	-0.8118232947	-0.409723
C	-0.0267863778	 0.0926089373	 0.1994079408	-0.166856
C	-1.4408785466	-0.4366710063	 0.1841638106	 0.27463
C	-2.4971065322	 0.0816730215	 1.0871143822	-0.299226
N	-1.8916676641	-1.2568324876	 1.3211490634	-0.170522
C	-2.6949232091	-2.2947797917	 0.7630085867	 0.435687
N	-3.2292899544	-3.2014519285	 1.4518253223	-0.537936
O	-2.8007466423	-2.1665576293	-0.6018867116	-0.249327
C	-1.9305237896	-1.133718465	-1.0771222609	-0.152212
H	-0.3589609292	 1.8419077129	-0.5848873143	 0.288374
H	 0.673185756	-0.7184591643	-0.028163463	 0.124915
H	 0.2178922221	 0.4697545239	 1.2018705049	 0.109464
H	-2.2517458623	 0.811132673	 1.8531588376	 0.130801
H	-3.5225167417	 0.1115340265	 0.7282753911	 0.138553
H	-3.744980884	-3.8413706173	 0.8480030425	 0.229634
H	-2.4913755666	-0.4886129753	-1.758464528	 0.127515
H	-1.0932205951	-1.5807938042	-1.6253266793	 0.126232
76.5191	114.7197	148.1766	232.3075	313.4219	375.2332	376.4828	392.7085	482.3129	674.1803	687.5112	727.8897	782.1345	836.3253	867.8338	896.7236	941.0562	948.8196	976.003	1007.9681	1063.7496	1067.946	1079.3983	1125.8104	1144.1535	1183.3694	1220.0058	1250.5883	1325.7505	1360.0248	1394.122	1409.2853	1420.7998	1497.7292	1506.5884	1523.9885	1786.054	3013.5556	3041.3282	3078.6933	3095.7652	3112.3809	3204.7652	3500.883	3811.7
OCC12CN1C(=N)OC2	OC[C@]12CN1[C]([NH])OC2	
InChI=1S/C5H8N2O2/c6-4-7-1-5(7,2-8)3-9-4/h6,8H,1-3H2	InChI=1S/C5H8N2O2/c6-4-7-1-5(7,2-8)3-9-4/h6,8H,1-3H2/t5-,7?/m0/s1
