15
gdb 124025	4.51261	1.33383	1.11444	2.4631	73.23	-0.2438	0.0145	0.2583	1047.7272	0.114697	-416.759355	-416.752589	-416.751645	-416.790809	25.856	
C	 0.065321213	 1.5390839674	-0.0226571896	-0.254062
O	 1.2158082448	 0.6740930025	-0.0430044811	-0.25129
C	-0.0588128226	 0.0825602522	-0.014977999	 0.248885
C	-0.5522270901	-0.8844173388	 1.1202444164	-0.244934
N	-1.0303007411	-1.7067248894	-0.0029323928	 0.063165
N	-1.740002814	-2.7723825382	-0.3715852709	-0.296737
C	-1.747099239	-2.6374590154	-1.7125584972	 0.020655
C	-1.0676296443	-1.480388408	-2.1793829681	-0.416266
C	-0.6198636479	-0.9050101169	-1.0035546793	 0.353797
H	-0.0799470581	 2.0997532366	 0.8992969286	 0.126912
H	-0.120215601	 2.0890128641	-0.9432456373	 0.131495
H	 0.2435469876	-1.3462806004	 1.7094965172	 0.147446
H	-1.3464473083	-0.5041343569	 1.7676883432	 0.140841
H	-2.2445864338	-3.3877054357	-2.3103754521	 0.116094
H	-0.9406736652	-1.1577488132	-3.1985773583	 0.113999
97.5473	148.035	249.4226	306.0505	450.8187	510.5199	528.7022	649.3543	704.1198	751.6019	787.8395	847.8408	855.2931	879.5091	915.6934	970.4154	1015.3414	1060.1336	1066.3646	1120.3503	1128.5734	1131.4461	1165.6116	1190.1846	1253.5837	1304.1971	1334.3677	1389.6021	1456.5912	1467.9865	1509.6838	1531.8993	1580.5081	3064.1326	3089.5942	3125.6457	3180.9571	3243.1719	3283.4596
C1OC11CN2N=CC=C12	C1O[C@]21Cn1nccc21	
InChI=1S/C6H6N2O/c1-2-7-8-3-6(4-9-6)5(1)8/h1-2H,3-4H2	InChI=1S/C6H6N2O/c1-2-7-8-3-6(4-9-6)5(1)8/h1-2H,3-4H2/t6-/m0/s1
