15
gdb 15544	2.87314	2.16678	1.49274	3.901	65.57	-0.267	-0.0053	0.2618	848.9116	0.120017	-362.684578	-362.677339	-362.676394	-362.716247	26.99	
O	 0.1255119263	 1.4117311491	-0.146366006	-0.419778
C	 0.0337165717	 0.0141013857	-0.0183084461	 0.100104
C	 0.7142986573	-0.5857029973	 1.1921907832	-0.106447
C	-0.0015028787	-1.5577859504	 1.7502517295	-0.052596
C	-1.3073227527	-1.8011263578	 1.0304347812	-0.273094
C	-1.4357192221	-0.5535880645	 0.1037354063	-0.204056
C	-2.2993887865	 0.4580929203	 0.7094014618	 0.274725
N	-2.9540503084	 1.2712182762	 1.2069285046	-0.329348
H	-0.286716304	 1.8182619858	 0.6263797334	 0.294584
H	 0.4819160492	-0.3735276619	-0.9416231789	 0.108041
H	 1.6982083019	-0.252280853	 1.5001899099	 0.111673
H	 0.3036627829	-2.1567899354	 2.600611755	 0.109757
H	-1.2610365825	-2.7158669327	 0.4261509156	 0.123734
H	-2.161223028	-1.912006988	 1.7047573662	 0.134072
H	-1.8459085663	-0.8037565162	-0.8777057757	 0.12863
71.9355	152.1418	213.8461	302.8184	374.9424	387.755	475.8643	509.8251	602.8797	690.642	760.8379	797.3136	824.6064	868.7962	952.4343	981.7108	1001.7289	1018.5562	1074.3186	1102.106	1145.9664	1181.2365	1198.5744	1278.4747	1286.7442	1324.1724	1343.816	1364.7558	1436.252	1489.1368	1688.5078	2351.4009	3031.1892	3032.9853	3084.2865	3089.0367	3193.5405	3218.5329	3777.7337
OC1C=CCC1C#N	O[C@H]1C=CC[C@H]1C#N	
InChI=1S/C6H7NO/c7-4-5-2-1-3-6(5)8/h1,3,5-6,8H,2H2	InChI=1S/C6H7NO/c7-4-5-2-1-3-6(5)8/h1,3,5-6,8H,2H2/t5-,6-/m0/s1
