23
gdb 60262	3.68335	0.91541	0.78038	1.5247	88.43	-0.2304	0.0175	0.2479	1544.7958	0.204825	-388.302982	-388.293123	-388.292179	-388.338588	36.446	
C	-0.0913360515	 1.5724563949	 0.0384863379	-0.390473
C	 0.0274901915	 0.0418536949	 0.0728008676	 0.042196
C	 0.9224900923	-0.4024438648	 1.2389717259	-0.381681
C	-1.372539844	-0.6012090164	 0.110747148	-0.180779
C	-1.4296838844	-2.1002644447	-0.2207167372	 0.077502
O	-0.8185911508	-2.9009996062	 0.8016969622	-0.269997
C	-1.7273255144	-3.8845364994	 1.2872566627	-0.114787
C	-3.0037989428	-3.6422562911	 0.5333752326	-0.099851
C	-2.8317993613	-2.6439469229	-0.3237071865	-0.08812
H	 0.8959068193	 2.0436810953	-0.0119598016	 0.108166
H	-0.6716890425	 1.9134321791	-0.8258292686	 0.104222
H	-0.5890888333	 1.9461720411	 0.9415910405	 0.110558
H	 0.5075835765	-0.2764863417	-0.8649235951	 0.067562
H	 1.0353957194	-1.4868164299	 1.2689622848	 0.139769
H	 1.914935819	 0.0546551813	 1.1594466339	 0.098384
H	 0.4893340906	-0.0878287977	 2.1965037916	 0.103354
H	-1.8369474504	-0.4425008462	 1.0930002553	 0.094103
H	-2.0101928468	-0.0899069	-0.6237230917	 0.085086
H	-0.8782839321	-2.2627678607	-1.1642997061	 0.076771
H	-1.3213425685	-4.8934549672	 1.1075979151	 0.10356
H	-1.8496463796	-3.7769222068	 2.3764471667	 0.105417
H	-3.903874305	-4.2235003138	 0.6884537449	 0.105541
H	-3.5644046212	-2.2419972272	-1.0122216829	 0.103498
39.6274	63.6451	113.6331	162.2293	221.5904	250.3129	281.9609	295.8313	358.0156	417.0024	439.7446	530.1791	707.8957	761.7151	811.0523	815.8909	844.7341	928.7791	931.6165	940.0305	959.896	961.4179	969.6114	1003.4773	1046.397	1052.0918	1106.6776	1130.151	1143.0332	1147.1781	1196.2796	1199.7048	1256.8848	1278.2063	1324.1712	1359.6244	1365.5563	1369.3379	1388.2075	1391.531	1401.5095	1424.0224	1465.6528	1487.775	1493.546	1503.7213	1511.3983	1522.2049	1693.2304	2935.9096	2969.4189	2988.0709	2988.3666	3008.8287	3020.7919	3028.2645	3053.3947	3082.5862	3088.9918	3095.5428	3144.5985	3205.1707	3230.0093
CC(C)CC1OCC=C1	CC(C)C[C@H]1OCC=C1	
InChI=1S/C8H14O/c1-7(2)6-8-4-3-5-9-8/h3-4,7-8H,5-6H2,1-2H3	InChI=1S/C8H14O/c1-7(2)6-8-4-3-5-9-8/h3-4,7-8H,5-6H2,1-2H3/t8-/m0/s1
