17
gdb 50371	3.5454	1.29731	0.99834	5.5206	77.61	-0.247	-0.0225	0.2245	1161.5433	0.137697	-418.00686	-417.999279	-417.998335	-418.039328	28.372	
O	 0.1689675895	-0.0492264478	 0.4693257712	-0.279796
C	 0.1251365259	 1.1421121495	 0.2956567622	 0.142959
N	 1.140064349	 1.8976729901	-0.2433019228	-0.149826
C	 1.3383851521	 3.3818444312	-0.3245261472	-0.224588
C	 2.7816088453	 3.0922848365	-0.8727810701	-0.100092
C	 4.1544582403	 3.2826171866	-0.2124182725	-0.259779
C	 4.6634999122	 1.7919819189	-0.2076360925	-0.157213
N	 3.4495204797	 0.9357829806	-0.0253275945	-0.294144
C	 2.5164620578	 1.6830781208	-0.4347960142	 0.412664
H	-0.7588265955	 1.7695712125	 0.5289335065	 0.080953
H	 0.6534254574	 3.886766577	-1.0080946514	 0.130926
H	 1.3146058795	 3.8537192984	 0.6623302414	 0.133381
H	 2.8126851766	 3.2197128468	-1.9584461907	 0.108706
H	 4.8213904769	 3.9658331859	-0.7430421433	 0.108329
H	 4.0531908106	 3.6324054391	 0.8205119533	 0.114447
H	 5.1764013475	 1.5378013428	-1.1446656233	 0.113166
H	 5.3602157152	 1.5931707512	 0.6103599679	 0.119906
76.8536	151.0374	191.7344	227.6016	304.2285	353.6827	451.2726	525.5762	617.7257	647.3346	751.0583	826.4801	840.8123	887.7229	900.7841	954.6398	978.0913	1029.2879	1054.4574	1086.618	1108.6187	1133.4275	1145.5575	1172.4109	1202.4501	1233.4475	1274.2272	1296.036	1312.5606	1345.0299	1397.2363	1430.4526	1483.0059	1497.7617	1504.1749	1749.8017	1821.821	2930.8699	3025.2423	3052.9042	3056.0654	3072.5152	3098.7982	3115.747	3124.9582
O=CN1CC2CCN=C12	O=CN1C[C@H]2CC[N][C]12	
InChI=1S/C6H8N2O/c9-4-8-3-5-1-2-7-6(5)8/h4-5H,1-3H2	InChI=1S/C6H8N2O/c9-4-8-3-5-1-2-7-6(5)8/h4-5H,1-3H2/t5-/m1/s1
