20
gdb 121976	6.20153	0.52533	0.50304	5.9983	76.98	-0.2727	0.0285	0.3012	2109.7455	0.168581	-440.293194	-440.282323	-440.281379	-440.330359	37.551	
O	-0.0301477373	 1.4520013378	-0.0648100876	-0.418242
C	 0.0484121935	 0.0364811983	-0.0382429598	-0.074963
C	-1.3737004698	-0.5065777461	 0.0099238907	-0.16956
C	-1.4241854593	-2.0359197025	 0.0448720614	-0.217436
C	-2.85626257	-2.5847407517	 0.0333456736	 0.127924
O	-3.5924399144	-2.1596141132	-1.0983848913	-0.413103
C	-2.8529431176	-4.127785606	 0.1517589893	-0.371426
C	-4.1967325523	-4.6992576829	 0.1804964671	 0.272217
N	-5.2564479159	-5.1577510733	 0.2148287279	-0.302319
H	 0.8640562332	 1.8047655453	-0.086587052	 0.287053
H	 0.5656415356	-0.3525696327	-0.931637475	 0.082111
H	 0.6137687392	-0.3162693732	 0.8407041028	 0.083229
H	-1.8736275302	-0.0954172083	 0.8951614751	 0.111083
H	-1.9270567893	-0.1381027211	-0.8592015948	 0.122492
H	-0.8826379191	-2.4510368102	-0.8194893139	 0.08877
H	-0.9063044582	-2.4109703872	 0.9375172442	 0.10176
H	-3.4067092546	-2.1767044424	 0.8887576036	 0.114155
H	-3.1325550925	-2.4568227329	-1.89225164	 0.282982
H	-2.3039940231	-4.5598780585	-0.6950689798	 0.140902
H	-2.3211367479	-4.4329444492	 1.0600980286	 0.15237
47.0208	66.8262	82.1874	102.0492	153.7484	173.1147	263.5221	271.6411	288.0376	308.5692	396.8779	399.5233	456.8291	500.6772	606.1163	761.0363	851.722	863.9261	938.2843	961.19	1009.7306	1040.254	1059.7347	1084.4806	1113.2979	1122.1088	1198.3139	1205.8596	1230.7832	1280.6818	1289.3569	1308.4977	1321.7295	1360.0184	1367.8377	1396.4147	1423.0113	1458.8399	1464.3246	1481.6898	1501.4787	1529.2729	2366.7699	2951.9908	2976.382	2990.5988	3029.5659	3039.3008	3043.8003	3058.2265	3080.6295	3098.1122	3790.6255	3831.9847
OCCCC(O)CC#N	OCCC[C@@H](O)CC#N	
InChI=1S/C6H11NO2/c7-4-3-6(9)2-1-5-8/h6,8-9H,1-3,5H2	InChI=1S/C6H11NO2/c7-4-3-6(9)2-1-5-8/h6,8-9H,1-3,5H2/t6-/m1/s1
