17
gdb 130213	3.09036	1.31212	0.99171	1.3801	75.44	-0.2087	0.008	0.2167	1184.3058	0.138719	-414.181118	-414.172907	-414.171963	-414.214809	30.601	
N	-0.036802242	 1.3896423949	 0.228330846	-0.597803
C	 0.0231919562	 0.0090294104	 0.0449321683	 0.235535
N	-1.0649797347	-0.7572871576	-0.0025062681	-0.278949
N	-0.5562546302	-1.9868961474	-0.1164867744	-0.09177
N	 0.7635479511	-2.0787986824	-0.146143338	-0.288107
C	 1.1750884546	-0.812376183	-0.0428254193	 0.303312
C	 2.5918060195	-0.4052657668	-0.0404268727	-0.127209
C	 3.6865708567	-1.4296817674	 0.1387869325	-0.260062
C	 3.5070225888	-0.7723699129	-1.1994596471	-0.258407
H	 0.5882618977	 1.8984257161	-0.3832991741	 0.250951
H	-0.9820996019	 1.7364342791	 0.125523175	 0.25382
H	-1.1460385836	-2.8005960524	-0.1447254357	 0.287291
H	 2.7607471305	 0.5678737704	 0.4104334193	 0.089065
H	 4.5430187029	-1.1503347905	 0.7420396115	 0.111127
H	 3.371137685	-2.4611757753	 0.2412058503	 0.137633
H	 3.0682777021	-1.3628938289	-1.9957843995	 0.123028
H	 4.2384326872	-0.0398003664	-1.5234131241	 0.110544
28.5763	150.5849	169.7857	238.8723	281.9339	312.932	369.9809	456.6107	504.5178	617.4539	696.0589	719.7084	750.901	791.4005	810.6638	827.7464	915.479	924.7779	989.1471	1060.6197	1085.4415	1090.5875	1104.9803	1134.2939	1182.1251	1192.806	1205.0959	1227.8306	1268.1952	1396.2338	1402.7121	1463.6613	1474.2439	1499.4207	1569.0612	1581.5494	1648.6737	3133.3875	3141.5508	3153.7756	3219.9329	3236.8759	3539.9671	3632.6084	3687.9581
NC1=NNN=C1C1CC1	Nc1n[nH]nc1C1CC1	
InChI=1S/C5H8N4/c6-5-4(3-1-2-3)7-9-8-5/h3H,1-2H2,(H3,6,7,8,9)	InChI=1S/C5H8N4/c6-5-4(3-1-2-3)7-9-8-5/h3H,1-2H2,(H3,6,7,8,9)
