18
gdb 55960	3.83307	1.00493	0.94137	2.2641	73.37	-0.2424	0.0261	0.2685	1292.1441	0.148355	-439.14577	-439.137144	-439.1362	-439.180183	31.925	
N	-0.170835999	 1.2935134815	 0.0722079207	-0.561487
C	 0.0362701186	-0.058720501	 0.0876664012	 0.48982
O	 1.103264039	-0.5958093372	 0.2789184483	-0.40418
O	-1.1384371037	-0.7043276976	-0.1128034296	-0.274766
C	-1.077199103	-2.1470514392	-0.0556170768	 0.13461
C	-1.1567077914	-2.6347301845	 1.4112907123	-0.264093
C	-2.6107744492	-3.0000360197	 1.5832083644	-0.059291
C	-3.2626332942	-3.0184682824	 0.422196121	-0.05789
C	-2.3611371006	-2.6672608183	-0.7371173053	-0.279468
H	 0.6522094291	 1.8649656212	-0.0106665982	 0.267
H	-1.0306836801	 1.64525108	-0.3133786992	 0.262884
H	-0.1570553558	-2.4606634016	-0.5479539155	 0.103812
H	-0.5035202604	-3.503243132	 1.5688463736	 0.113172
H	-0.8091984675	-1.8605025962	 2.1021064086	 0.121472
H	-3.0423016804	-3.2398802839	 2.5484774961	 0.092627
H	-4.3068733657	-3.2778179233	 0.2900893045	 0.091645
H	-2.7765571954	-1.9046366292	-1.4040022787	 0.114258
H	-2.1473375804	-3.5477404865	-1.3576137774	 0.109873
43.3481	64.0873	106.7535	208.6589	329.0925	351.0465	364.2664	424.7083	478.5321	522.4509	648.0927	695.7032	754.306	785.8721	793.3203	851.7162	888.7064	929.9463	949.4702	976.5067	979.6972	1030.0816	1062.7375	1075.8339	1115.6528	1129.8478	1171.6277	1219.9661	1250.3594	1308.268	1328.4251	1349.852	1380.5901	1410.4	1468.2897	1476.7914	1610.2953	1686.9346	1826.5555	3021.2249	3025.3885	3072.8666	3080.7527	3118.7899	3185.4351	3210.7065	3613.1455	3743.112
NC(=O)OC1CC=CC1	NC(=O)O[C@H]1CC=CC1	
InChI=1S/C6H9NO2/c7-6(8)9-5-3-1-2-4-5/h1-2,5H,3-4H2,(H2,7,8)	InChI=1S/C6H9NO2/c7-6(8)9-5-3-1-2-4-5/h1-2,5H,3-4H2,(H2,7,8)
