17
gdb 71868	2.96538	1.58625	1.27089	2.4736	72.23	-0.2313	-0.0097	0.2216	999.7577	0.136819	-421.825832	-421.818666	-421.817722	-421.857175	29.133	
O	-0.0939478213	 1.379692394	-0.0204329963	-0.458964
C	 0.0315314814	 0.0095945139	-0.0549095232	 0.407286
C	 0.8499705796	-0.7904022174	-1.0610532129	-0.314059
C	-0.1377136666	-1.9827888765	-0.8092137311	-0.054828
C	 0.4171981719	-2.9375001502	 0.2485654487	-0.326868
C	 0.5095565752	-2.0580417007	 1.5091865235	 0.40442
O	 1.0752564803	-2.3390956557	 2.5372699809	-0.334967
C	-0.2735671805	-0.8174575807	 1.2264317812	-0.22827
C	-1.078548882	-0.9859112081	-0.0521151118	-0.146981
H	 0.6860432033	 1.7502185109	 0.4088029774	 0.292154
H	 0.7271793366	-0.3726160098	-2.0636174244	 0.114841
H	 1.9137077218	-0.9622379759	-0.861766522	 0.097411
H	-0.5343423787	-2.4595307228	-1.703289631	 0.084436
H	-0.2804625399	-3.7579932564	 0.4591366859	 0.126847
H	 1.3856841971	-3.3791380333	-0.0005576194	 0.124153
H	-0.6590469079	-0.2239603454	 2.045871158	 0.107883
H	-2.1506914604	-0.8680918059	-0.1282849235	 0.105509
123.4245	203.174	286.3541	327.6517	403.0058	421.3805	474.1278	531.7122	593.052	602.3133	701.0365	716.1599	830.9888	837.4531	857.9345	905.7074	926.0587	951.3273	981.348	1001.6467	1019.6126	1051.1267	1107.23	1142.5158	1151.8313	1174.0455	1202.6095	1227.8651	1253.4281	1270.354	1282.1119	1312.7861	1330.3682	1442.7032	1455.2874	1503.8523	1829.8297	3037.5963	3038.9029	3101.9224	3105.4561	3132.0575	3203.9504	3214.3422	3789.0563
OC12CC3CC(=O)C1C23	O[C@@]12C[C@H]3CC(=O)[C@@H]1[C@@H]23	
InChI=1S/C7H8O2/c8-4-1-3-2-7(9)5(3)6(4)7/h3,5-6,9H,1-2H2	InChI=1S/C7H8O2/c8-4-1-3-2-7(9)5(3)6(4)7/h3,5-6,9H,1-2H2/t3-,5+,6-,7-/m1/s1
