17
gdb 60675	2.1557	1.46395	1.28571	2.9882	73.71	-0.245	-0.0569	0.1881	1088.1958	0.133138	-417.98474	-417.975352	-417.974408	-418.019088	33.518	
C	 0.0034392901	 1.5292575049	-0.066772395	-0.40932
C	-0.0730873878	-0.0129581708	 0.0618324261	 0.002269
C	 0.3878201857	-0.3451537157	 1.5058189227	 0.154367
O	 1.4537174508	-0.8130496788	 1.79792785	-0.248144
C	-1.4877002795	-0.4359368045	-0.0152664303	 0.289403
N	-2.5929158256	-0.7719578725	-0.0293862295	-0.324385
N	 0.6217581967	-0.6102643703	-1.0694117952	-0.096976
C	 2.078869633	-0.7222365115	-1.1245992782	-0.231233
C	 1.220544525	-1.9387809379	-1.0120101713	-0.226116
H	 1.0483055399	 1.8411130195	 0.0062048388	 0.143485
H	-0.390996562	 1.8229275186	-1.0409827084	 0.160495
H	-0.5741116829	 2.0243932626	 0.7176758724	 0.141318
H	-0.3653604052	-0.0722204945	 2.2781253866	 0.115295
H	 2.512485552	-0.4438035247	-2.0812313068	 0.121129
H	 2.6612623592	-0.4614269485	-0.2488343427	 0.14372
H	 1.2489606317	-2.4637957906	-0.062810835	 0.137729
H	 1.025339709	-2.5598339052	-1.8813166942	 0.126964
66.7169	90.6753	162.3488	181.5403	221.5558	229.8277	265.6062	314.3817	334.8341	443.6399	517.7938	535.5129	597.8955	677.6292	826.4447	861.9461	901.7713	920.2467	938.6848	1004.0392	1042.1506	1106.5655	1116.7857	1138.1653	1159.4322	1172.5252	1192.9287	1203.8105	1337.293	1394.2655	1418.3402	1481.3757	1482.2721	1490.7792	1510.7481	1837.8197	2357.3955	2888.5813	3054.1702	3119.8677	3123.1129	3135.5788	3148.199	3210.1062	3225.3124
CC(C=O)(C#N)N1CC1	C[C@@](C=O)(C#N)N1CC1	
InChI=1S/C6H8N2O/c1-6(4-7,5-9)8-2-3-8/h5H,2-3H2,1H3	InChI=1S/C6H8N2O/c1-6(4-7,5-9)8-2-3-8/h5H,2-3H2,1H3/t6-/m0/s1
