18
gdb 38595	3.22648	2.16817	1.87085	1.6667	72.76	-0.2133	0.0883	0.3016	806.8947	0.152638	-401.909939	-401.904491	-401.903547	-401.939379	24.5	
C	-0.053749134	 1.5860747911	 0.0794175064	-0.239129
C	 1.4859212509	 1.4055630927	 0.0556425656	-0.039442
C	 1.7232591728	 0.7318378167	 1.4257755163	 0.120354
O	 2.8567812878	-0.1554802881	 1.4395994799	-0.312196
C	 2.0285030416	-1.1776004381	 0.8206095473	 0.080442
C	 2.0860314131	-0.941080479	-0.6895724958	-0.181425
N	 1.2385362882	 0.2476302754	-0.9038799252	-0.119072
C	 0.0120123502	 0.0478049922	-0.0617984655	-0.022514
C	 0.7147194174	-0.4346565931	 1.23090997	-0.100395
H	-0.5074617054	 2.0074669956	 0.9791721227	 0.097891
H	-0.4332433922	 2.0698760851	-0.8201360051	 0.117587
H	 2.1785936186	 2.1825129045	-0.267537116	 0.076816
H	 1.6973444577	 1.4022521411	 2.288391046	 0.080954
H	 2.2642005138	-2.1805338584	 1.1835196992	 0.075657
H	 3.1115107498	-0.7729975906	-1.0271353404	 0.11617
H	 1.6512475105	-1.7700029724	-1.2616818961	 0.099961
H	-0.7968081021	-0.5528313973	-0.4810949626	 0.071107
H	 0.1352517813	-0.8000354874	 2.0748384532	 0.077235
325.39	406.5273	409.3112	467.9764	632.6491	664.9728	713.7	787.6988	817.8583	846.7039	857.9837	861.8544	889.0856	901.3111	921.258	930.5061	985.3731	993.7181	1015.0758	1034.9195	1039.6105	1073.1153	1095.0204	1098.7454	1141.6415	1171.9111	1213.2415	1224.7144	1228.3155	1250.1873	1261.9569	1274.0982	1286.7337	1293.4741	1308.9109	1346.9738	1350.5506	1471.5814	1489.7012	3033.2831	3076.1288	3080.7828	3087.768	3102.1678	3110.0132	3122.1593	3151.0534	3152.452
C1C2C3OC4CN2C1C34	C1[C@H]2[C@@H]3O[C@@H]4CN2[C@H]1[C@H]34	
InChI=1S/C7H9NO/c1-3-6-5-2-8(3)4(1)7(6)9-5/h3-7H,1-2H2	InChI=1S/C7H9NO/c1-3-6-5-2-8(3)4(1)7(6)9-5/h3-7H,1-2H2/t3-,4+,5-,6+,7+/m1/s1
