20
gdb 18789	3.28414	2.24049	1.97724	0.1779	77.23	-0.2543	0.0849	0.3391	813.7679	0.17942	-311.833179	-311.826491	-311.825547	-311.863532	27.759	
C	-0.2515034303	 1.5734744321	 0.0259303807	-0.41899
C	 0.0581802057	 0.0838234536	 0.0157028098	 0.05078
C	 1.0407620956	-0.5270614268	-1.0234884249	-0.054642
C	 2.4278837982	 0.1632281428	-1.0873025435	-0.229388
C	 2.8506606831	-0.5379823904	 0.2268747408	-0.026192
C	 2.2195896797	 0.1022449564	 1.4875715602	-0.229388
C	 0.8633717063	-0.5789950184	 1.1693516998	-0.054642
C	 1.5930486362	-1.4761393152	 0.1029216884	-0.036477
H	 0.6534571911	 2.1822858887	 0.1135563708	 0.116015
H	-0.7623879175	 1.8745036441	-0.8959353705	 0.111522
H	-0.9049918361	 1.8327550716	 0.866873055	 0.111522
H	-0.8822959766	-0.4749943476	-0.0736122521	 0.067984
H	 0.6123541041	-0.8670408551	-1.9678957116	 0.056088
H	 3.0035208449	-0.2240131579	-1.9338867809	 0.095574
H	 2.4667259222	 1.2575535027	-1.1200084695	 0.087294
H	 3.8808026895	-0.8888256483	 0.30189894	 0.058228
H	 2.6532165341	-0.3265739647	 2.3964725351	 0.095574
H	 2.2485105117	 1.193665113	 1.5775266997	 0.087294
H	 0.2901063562	-0.9613837827	 2.015620069	 0.056088
H	 1.5998121027	-2.5634117578	 0.077718126	 0.055753
184.3889	190.1534	232.8043	365.065	391.0874	535.8072	581.1562	621.6799	733.7117	809.5511	818.6747	837.5455	840.6062	892.8237	926.0192	942.7948	955.0532	972.8866	1015.4057	1030.7965	1071.2882	1095.8542	1100.077	1110.2371	1142.0463	1161.8284	1163.426	1183.7993	1212.7539	1233.0702	1253.1781	1282.1153	1291.0146	1293.5954	1335.3168	1343.9856	1373.2046	1405.8998	1475.9597	1484.3695	1498.1483	1501.7022	3016.0977	3026.155	3033.9371	3036.3807	3079.051	3079.0671	3085.8455	3086.5515	3087.1757	3094.0038	3102.5111	3138.4187
CC1C2CC3CC1C23	C[C@H]1[C@H]2C[C@H]3C[C@@H]1[C@@H]23	
InChI=1S/C8H12/c1-4-6-2-5-3-7(4)8(5)6/h4-8H,2-3H2,1H3	InChI=1S/C8H12/c1-4-6-2-5-3-7(4)8(5)6/h4-8H,2-3H2,1H3/t4-,5-,6+,7-,8+
