13
gdb 25522	5.62509	1.00306	0.8529	2.2749	68.53	-0.2708	-0.0565	0.2143	1234.0203	0.090752	-452.821257	-452.814043	-452.813099	-452.854156	25.257	
O	 0.0571565316	-0.0510982416	 0.0847001452	-0.246409
C	-0.0252321956	 1.1291005602	-0.0345166655	 0.165444
O	 1.089565215	 1.92156131	 0.1457019706	-0.239614
C	 0.9908963291	 3.2815209682	 0.0862676167	 0.486749
N	-0.1962111742	 3.8647459768	 0.1314122563	-0.335302
C	-0.1919263809	 5.2016325587	 0.083125296	 0.080194
N	 0.8681272948	 5.9975114781	 0.0083481892	-0.254665
C	 2.0554301749	 5.3747014546	-0.029143762	 0.035561
C	 2.1848776661	 3.9970713463	 0.0031338903	-0.235378
H	-0.9197772183	 1.7069648817	-0.2919604628	 0.143787
H	-1.1665559331	 5.6818833407	 0.1149658368	 0.133593
H	 2.9346336735	 6.0111032792	-0.0888884674	 0.132503
H	 3.1410351172	 3.4921602872	-0.0312423636	 0.133537
45.9421	98.7427	182.1594	243.4242	386.1082	405.8317	504.7042	567.7674	666.7575	711.3462	803.7775	871.5829	926.8424	989.2052	1007.5499	1025.8419	1048.5085	1066.1864	1088.9963	1198.7924	1266.3654	1308.9749	1341.7477	1392.0569	1422.7624	1498.2908	1609.9452	1619.5508	1874.73	3095.1263	3167.3562	3172.6277	3226.0742
O=COC1=NC=NC=C1	O=COc1ncncc1	
InChI=1S/C5H4N2O2/c8-4-9-5-1-2-6-3-7-5/h1-4H	InChI=1S/C5H4N2O2/c8-4-9-5-1-2-6-3-7-5/h1-4H
