17
gdb 48615	2.58798	1.64646	1.22433	3.8508	72.92	-0.2443	-0.033	0.2113	1028.3683	0.136238	-421.84331	-421.835696	-421.834752	-421.87584	29.014	
O	 0.0072357281	-0.1271402138	-0.0398560026	-0.250019
C	 0.0590785977	 1.0552570732	 0.1946845748	 0.048195
C	 1.3014481102	 1.8711377583	 0.0748510228	 0.128428
C	 2.6890255374	 1.2856897096	-0.3338090067	-0.268805
C	 3.0111696116	 2.769833857	-0.6715406773	-0.031931
C	 1.5225375672	 2.9013933585	-1.1051204225	-0.277918
C	 2.9984298106	 3.4293212607	 0.7199846529	-0.333909
C	 1.7021951917	 2.777785179	 1.2469466084	 0.401837
O	 1.1399356761	 2.9412673003	 2.2941179417	-0.327242
H	-0.8432200439	 1.6220530426	 0.5116728385	 0.089333
H	 3.2795652952	 0.7867715937	 0.438586421	 0.112436
H	 2.6000202439	 0.6474039421	-1.2140134196	 0.126574
H	 3.8198607988	 3.0393016023	-1.3487566851	 0.081886
H	 1.314552915	 2.4393028499	-2.0720488557	 0.125584
H	 1.0376300897	 3.8786542335	-1.0325117519	 0.113683
H	 3.8544278238	 3.1625891833	 1.3474110307	 0.132268
H	 2.9115259871	 4.5199794996	 0.7030332205	 0.129598
65.1218	131.1191	182.5499	243.7024	384.6011	397.0662	456.3406	564.3965	589.3258	620.8709	701.7675	758.5869	838.2111	859.183	886.9767	910.3284	962.8325	980.1123	987.2723	1022.0984	1048.8555	1071.3357	1093.2335	1130.9203	1190.2449	1193.7058	1212.6147	1249.7946	1279.5094	1297.6272	1327.2206	1425.7357	1460.7274	1487.9347	1523.3161	1815.3104	1865.5936	2897.6297	3056.9277	3061.2965	3070.1721	3104.0925	3127.3173	3130.1014	3137.7392
O=CC12CC(C1)CC2=O	O=C[C@@]12C[C@@H](C1)CC2=O	
InChI=1S/C7H8O2/c8-4-7-2-5(3-7)1-6(7)9/h4-5H,1-3H2	InChI=1S/C7H8O2/c8-4-7-2-5(3-7)1-6(7)9/h4-5H,1-3H2/t5-,7+
