18
gdb 91674	3.34332	1.24629	1.10682	4.99	75.81	-0.269	0.0273	0.2963	1142.4807	0.148966	-401.943799	-401.936025	-401.935081	-401.976009	30.103	
C	-0.1162759748	 1.5520581685	 0.0113924309	-0.422592
C	 0.0631311741	 0.0360637277	 0.0134183771	 0.025173
C	 1.0055895358	-0.5551080622	-1.0919353801	-0.257783
C	 1.9535534378	-1.3316224664	-0.1578357212	 0.080272
O	 1.0312840307	-1.9415364632	 0.7933183118	-0.2919
C	 0.8081966016	-0.5680184502	 1.2268703076	 0.065476
C	 2.3120823057	-0.276529196	 0.9323504732	-0.175774
C	 3.2284701987	-0.7479816957	 1.9546565208	 0.2793
N	 3.9776521013	-1.0897676793	 2.765790459	-0.322598
H	 0.8409631308	 2.0832409674	 0.0474016517	 0.118719
H	-0.6359360933	 1.8787562481	-0.8946683793	 0.128402
H	-0.7116517423	 1.8806416593	 0.8699874278	 0.124566
H	-0.9180950301	-0.4444715612	-0.035383379	 0.094823
H	 0.4890833439	-1.2291770348	-1.7772798971	 0.119986
H	 1.5192413442	 0.2135461707	-1.6768547206	 0.106955
H	 2.6927139399	-2.0155706175	-0.5711457167	 0.105419
H	 0.3815629645	-0.473185819	 2.2244423298	 0.102978
H	 2.5936427714	 0.7263232039	 0.6029096145	 0.118577
124.7435	151.2902	197.1761	219.1543	282.8571	383.3148	444.419	491.6298	540.8457	560.56	665.3957	810.9033	848.7676	869.805	889.2893	910.3034	930.1795	938.9653	958.8343	1027.8252	1047.7855	1071.1052	1093.2498	1116.1101	1158.285	1187.2879	1205.4277	1233.4022	1251.3041	1296.6128	1302.9612	1313.3917	1362.37	1373.2464	1416.6072	1488.8204	1496.7916	1500.7711	2360.7778	3032.5514	3064.3583	3066.6464	3089.2389	3099.9684	3104.658	3123.7148	3139.0185	3145.6559
CC1CC2OC1C2C#N	C[C@H]1C[C@@H]2O[C@H]1[C@H]2C#N	
InChI=1S/C7H9NO/c1-4-2-6-5(3-8)7(4)9-6/h4-7H,2H2,1H3	InChI=1S/C7H9NO/c1-4-2-6-5(3-8)7(4)9-6/h4-7H,2H2,1H3/t4-,5-,6-,7+/m0/s1
