12
gdb 5500	3.67881	1.93855	1.26956	5.2472	63.53	-0.2197	-0.0111	0.2086	862.3359	0.08588	-377.572055	-377.565273	-377.564329	-377.60296	25.324	
O	 0.0915883671	 1.3327897429	 0.0083213886	-0.43657
C	 0.0558790084	-0.0196092684	 0.0045623373	 0.238249
C	 0.0240146178	-0.8125239772	-1.1145837062	-0.159098
N	-0.0062652337	-2.1261266911	-0.6792364655	-0.23289
C	 0.0051633848	-2.1894782902	 0.6723514174	-0.157548
C	 0.0442556173	-0.8856934644	 1.1490987292	 0.05793
C	 0.0691170195	-0.4390657746	 2.4869752425	 0.179504
N	 0.0912933031	 0.0026296382	 3.5595101055	-0.370329
H	 0.1085722005	 1.6414860144	 0.9220253698	 0.312553
H	 0.0205454733	-0.5560782658	-2.1593000476	 0.139551
H	-0.033216217	-2.9251579478	-1.2879668544	 0.277203
H	-0.014302931	-3.1244435059	 1.2062912735	 0.151444
128.0332	163.7996	304.3663	330.2379	389.5182	479.9909	533.0158	544.8058	620.0765	622.6113	649.4534	726.8635	738.9722	765.6881	903.2646	1078.6396	1120.0474	1182.6271	1242.732	1291.7673	1359.9154	1426.0432	1494.6355	1553.8841	1654.535	2331.6279	3281.7312	3290.107	3688.8979	3799.0954
OC1=CNC=C1C#N	Oc1c[nH]cc1C#N	
InChI=1S/C5H4N2O/c6-1-4-2-7-3-5(4)8/h2-3,7-8H	InChI=1S/C5H4N2O/c6-1-4-2-7-3-5(4)8/h2-3,7-8H
