14
gdb 130959	3.41562	1.11283	0.88881	1.7813	63.73	-0.2365	-0.0476	0.1889	1218.455	0.101224	-470.04594	-470.037865	-470.03692	-470.079961	28.044	
O	 0.0964463548	-0.134696589	 0.2795800461	-0.220307
C	 0.0604036866	 0.9730891267	-0.1807322709	 0.150342
C	 1.2099602452	 1.9689205475	-0.0611647914	-0.26257
N	 1.2645346774	 2.8991540873	-1.1625125974	-0.125994
C	 1.6291989033	 2.6837833605	-2.4708783223	 0.045497
N	 1.5722126746	 3.7615283188	-3.1872887004	-0.210038
N	 1.1473901203	 4.7248180045	-2.3018029698	-0.312196
C	 0.9418206668	 4.2625809808	-1.0235749869	 0.480029
O	 0.5823465589	 4.836717194	-0.0175148601	-0.425756
H	-0.8290109417	 1.3667750335	-0.7222718791	 0.099923
H	 1.0364698437	 2.5781756969	 0.8361246649	 0.18261
H	 2.1509984987	 1.4262351474	 0.0653869026	 0.149744
H	 1.9342089566	 1.7212694017	-2.8517217333	 0.161627
H	 1.0290391747	 5.6748468694	-2.6069704619	 0.28709
49.0943	76.1576	112.1213	225.0732	257.1056	340.5206	422.7791	451.8675	550.1378	659.3764	683.9013	752.8903	775.2945	824.9931	842.4939	924.1669	1042.6028	1044.948	1093.2661	1192.9992	1211.7136	1255.4521	1322.1276	1360.0184	1377.0055	1411.3364	1425.3245	1452.3566	1619.7072	1841.747	1846.1834	2888.918	3036.6795	3102.2749	3263.9394	3695.7954
O=CCN1C=NNC1=O	O=CCn1cn[nH]c1=O	
InChI=1S/C4H5N3O2/c8-2-1-7-3-5-6-4(7)9/h2-3H,1H2,(H,6,9)	InChI=1S/C4H5N3O2/c8-2-1-7-3-5-6-4(7)9/h2-3H,1H2,(H,6,9)
