18
gdb 41101	3.00723	1.93233	1.81985	2.3593	74.48	-0.2127	0.0547	0.2673	858.3043	0.149648	-401.832586	-401.826102	-401.825158	-401.862864	27.741	
C	 0.040940847	 1.5467175265	-0.0666963369	-0.245813
N	 1.519146505	 1.5370411734	 0.2129587634	-0.41283
C	 1.5578148865	 0.0828896307	 0.2398590661	 0.241815
C	 1.6974010181	-1.1469972998	-0.7611520305	-0.128157
C	 1.740261971	-2.0403331846	 0.5137774838	-0.216889
C	 1.2647282877	-0.8828637067	 1.4263291159	 0.035154
O	-0.1802928247	-0.6590548246	 1.2926949777	-0.348131
C	 0.0627810052	 0.0008044813	 0.0333474703	 0.360275
C	 0.2165759678	-0.9200437976	-1.2060638897	-0.293584
H	-0.5310240091	 2.0633130071	 0.710173167	 0.117885
H	-0.2562925845	 1.9315969873	-1.0506104407	 0.098411
H	 2.1320324332	 2.0251784228	-0.4268734171	 0.226321
H	 2.4735339562	-1.3030573258	-1.5108636076	 0.068326
H	 1.1234115526	-2.9429380595	 0.5119885882	 0.102951
H	 2.7753692978	-2.2956450613	 0.7619986355	 0.105699
H	 1.5922986637	-0.8439267053	 2.4663632512	 0.079642
H	 0.1334734532	-0.3567321949	-2.1405263243	 0.100647
H	-0.4314808869	-1.798352109	-1.2584661224	 0.108281
216.3317	291.2649	317.933	374.4987	435.5912	482.9775	523.4019	556.7396	707.487	714.2749	822.566	836.8095	846.7989	872.3612	889.3275	928.5503	946.2094	957.4058	973.7471	1002.3922	1038.2753	1081.6158	1099.3094	1117.7797	1133.7891	1175.0341	1182.2977	1207.6046	1219.9285	1243.2429	1270.1791	1297.2532	1298.5163	1314.974	1327.5839	1362.3057	1458.8843	1475.4785	1497.5342	3014.4098	3048.885	3051.0116	3079.6512	3100.8185	3103.3964	3109.7233	3113.7292	3567.7971
C1NC23C4CC2OC13C4	C1N[C@@]23[C@H]4C[C@@H]2O[C@@]13C4	
InChI=1S/C7H9NO/c1-4-2-6-3-8-7(4,6)5(1)9-6/h4-5,8H,1-3H2	InChI=1S/C7H9NO/c1-4-2-6-3-8-7(4,6)5(1)9-6/h4-5,8H,1-3H2/t4-,5-,6-,7-/m0/s1
