17
gdb 128115	1.84796	1.81357	0.97679	2.7737	71.23	-0.2498	-0.0342	0.2156	1192.558	0.136249	-451.284931	-451.27583	-451.274886	-451.319984	32.195	
C	-0.6239346883	 1.0480435398	-0.1783077766	-0.331484
N	 0.1807953186	-0.1367890005	 0.151592362	-0.390822
C	 0.7810824101	-0.768614115	-0.9512471279	 0.136051
C	 0.7026899452	-2.0801311305	-1.3336471648	 0.361215
C	-0.0202102091	-3.2622702261	-0.745739287	-0.27341
N	-1.3119264491	-2.9640859709	-0.1326838553	-0.497673
O	 1.4348813063	-2.2416728168	-2.4295459417	-0.223689
N	 1.993376358	-0.9377029282	-2.7517488472	-0.02433
N	 1.5903329674	-0.1369957239	-1.8790732018	-0.143909
H	-0.0613833521	 1.8225768427	-0.7159807864	 0.135245
H	-1.4691775653	 0.7429927129	-0.802134272	 0.129884
H	-1.0192342694	 1.4740344912	 0.7475428286	 0.125009
H	 0.8771145577	 0.1012837906	 0.8502438587	 0.242674
H	-0.1515230967	-4.0125845597	-1.5313240271	 0.140708
H	 0.6267366238	-3.7238434205	 0.0113588776	 0.139105
H	-1.1938617972	-2.1863674556	 0.5125937481	 0.245364
H	-1.9547336899	-2.6341873795	-0.8471922171	 0.230062
30.5378	74.171	158.0532	183.1657	198.442	231.2794	350.8868	364.1862	395.2284	478.4501	589.7379	649.4411	671.9847	710.7117	727.5967	813.3978	904.1536	931.5108	998.1646	1051.381	1125.1097	1136.722	1154.583	1168.7877	1181.56	1283.5303	1338.6989	1383.3116	1411.2878	1453.8497	1456.3668	1473.4625	1484.0002	1494.0482	1521.2578	1641.8956	1684.3259	3015.5464	3029.8212	3087.6985	3088.1229	3120.7848	3484.2826	3517.0108	3557.8305
CNC1=C(CN)ON=N1	CNc1c(CN)onn1	
InChI=1S/C4H8N4O/c1-6-4-3(2-5)9-8-7-4/h6H,2,5H2,1H3	InChI=1S/C4H8N4O/c1-6-4-3(2-5)9-8-7-4/h6H,2,5H2,1H3
