19
gdb 58154	2.5956	0.84674	0.7418	1.0402	93.79	-0.2463	-0.0175	0.2288	1602.1463	0.155553	-385.844985	-385.834394	-385.83345	-385.88065	38.642	
C	 0.086156357	 1.5364237103	-0.1302496485	-0.412381
C	 0.0378497549	 0.0167346855	 0.0188129803	 0.141421
O	 0.7725454375	-0.4277448904	 1.1470184459	-0.430404
C	-1.4172707472	-0.5431921952	 0.0437479027	-0.192092
C	-1.4179816568	-2.0835925522	-0.0314092255	-0.392697
C	-2.1186811193	-0.0745206098	 1.2345775685	 0.419396
C	-2.672679132	 0.309667108	 2.2417571202	-0.299576
C	-3.3037400139	 0.7363672559	 3.3698164364	 0.293218
C	-3.8622956668	 1.1171338385	 4.3704845132	-0.555637
H	 1.1253691683	 1.8749840005	-0.1314530354	 0.126727
H	-0.3857283792	 1.8580427831	-1.064733665	 0.114431
H	-0.4372045938	 2.0266034131	 0.6978938794	 0.126266
H	 0.53733839	-0.4464805959	-0.840333977	 0.089895
H	 0.3449428102	-0.0607718836	 1.9310197113	 0.285434
H	-1.937017412	-0.1460881309	-0.8395137944	 0.108805
H	-2.4336000812	-2.4810007881	 0.0317550641	 0.124371
H	-0.9753549323	-2.4095550992	-0.9777778166	 0.11677
H	-0.8244660556	-2.4955285818	 0.787302133	 0.143331
H	-4.3550006678	 1.4488532223	 5.2504406674	 0.192723
68.4977	70.738	121.787	198.598	216.4794	235.1297	240.3686	254.168	349.3081	367.5297	386.3528	464.3177	511.2644	524.9145	545.5767	583.172	594.6801	613.8333	718.5128	803.1279	922.4804	979.4996	1022.1489	1040.5558	1078.9162	1114.3694	1139.9721	1193.9619	1256.156	1303.2078	1342.5455	1365.5082	1401.3419	1406.0496	1429.3108	1489.5523	1493.2245	1496.1964	1500.6154	2178.1639	2353.5123	3010.2317	3035.1426	3042.0734	3047.924	3104.4016	3119.9818	3122.2975	3141.3832	3505.0778	3775.9091
CC(O)C(C)C#CC#C	C[C@@H](O)[C@@H](C)C#CC#C	
InChI=1S/C8H10O/c1-4-5-6-7(2)8(3)9/h1,7-9H,2-3H3	InChI=1S/C8H10O/c1-4-5-6-7(2)8(3)9/h1,7-9H,2-3H3/t7-,8+/m0/s1
