19
gdb 75619	2.05853	1.67376	1.08059	1.6886	75.62	-0.2386	-0.0257	0.2129	1162.1803	0.156439	-423.017793	-423.008438	-423.007494	-423.052023	34.214	
C	-0.5490976068	 1.0091360404	-1.5078347015	-0.41351
C	 0.1982613498	-0.1732901715	-0.9071356939	-0.196268
C	 1.6933690481	-0.343595937	-1.2459685833	 0.386557
O	 2.3370313229	-0.1629496316	-2.239656984	-0.305331
C	 2.0690012984	-0.6613163292	 0.2159181449	-0.196268
C	 3.3048289825	 0.0037489528	 0.8057781524	-0.41351
C	 0.6466787065	-0.1782482053	 0.569420212	 0.420464
C	 0.2206702381	 0.6982121932	 1.6599162063	-0.257995
O	-0.1263069394	-0.6968435251	 1.6316721887	-0.275543
H	-0.0475546861	 1.9535666875	-1.275289681	 0.121795
H	-0.5930356167	 0.9140943486	-2.5966386916	 0.13931
H	-1.5745087488	 1.0627717425	-1.1292185304	 0.126827
H	-0.3263597928	-1.1145404939	-1.1227755265	 0.117958
H	 2.11636993	-1.7517834959	 0.343658683	 0.117958
H	 3.2536467606	 1.0923709506	 0.7065093307	 0.121795
H	 3.4164715613	-0.2392433774	 1.8669970995	 0.126827
H	 4.2028675533	-0.3370287861	 0.28246677	 0.13931
H	 0.9293634567	 0.985215255	 2.4352113628	 0.119812
H	-0.6097233478	 1.3867223225	 1.5112566815	 0.119812
54.7295	174.6663	176.1692	187.8034	200.3113	206.4901	213.09	290.6222	429.2521	444.8016	508.2921	577.1599	596.775	734.478	791.3294	830.6774	893.195	933.0132	935.7086	964.4763	1021.81	1061.9431	1091.4321	1120.1569	1126.15	1158.5608	1166.4709	1172.8925	1209.8911	1242.6003	1319.0418	1352.4548	1402.7038	1405.5387	1433.5838	1493.0921	1494.3261	1495.3039	1499.0225	1536.6688	1890.3955	3019.9368	3025.6195	3038.6198	3039.3762	3086.0978	3108.7943	3109.4543	3115.1127	3115.6112	3172.9499
CC1C(=O)C(C)C11CO1	C[C@H]1C(=O)[C@@H](C)[C@]21CO2	
InChI=1S/C7H10O2/c1-4-6(8)5(2)7(4)3-9-7/h4-5H,3H2,1-2H3	InChI=1S/C7H10O2/c1-4-6(8)5(2)7(4)3-9-7/h4-5H,3H2,1-2H3/t4-,5+,7+
