19
gdb 53396	2.44613	1.08665	0.82574	0.5212	90.29	-0.2376	0.0418	0.2794	1451.5195	0.157032	-348.688118	-348.678134	-348.67719	-348.725187	35.479	
C	 0.383893091	 1.5775419591	-0.4073894535	-0.499628
C	 0.2506636467	 0.1486326634	-0.1648640303	 0.107082
C	 0.1371087704	-1.0342537338	 0.0331820592	 0.0522
C	-0.010137653	-2.449966009	 0.2835416387	-0.172367
C	-0.2975824913	-2.956203308	 1.7310864402	-0.21675
C	-1.2263635107	-4.0431103131	 1.1386571559	-0.23049
C	-1.3175239559	-3.2172137563	-0.1896200962	-0.198438
C	-2.508499224	-2.3997373449	-0.2950724008	 0.367308
C	-3.5056263692	-1.7319113041	-0.3725017003	-0.491503
H	 1.3005769102	 1.8066191867	-0.9623330676	 0.145177
H	-0.4609174392	 1.9596402579	-0.9912362176	 0.149467
H	 0.4165550299	 2.1402121178	 0.5323836587	 0.146091
H	 0.8480489569	-2.9954823045	-0.1249027787	 0.100979
H	 0.5629281005	-3.2781435143	 2.3206744025	 0.103165
H	-0.859082095	-2.2084171351	 2.2948572826	 0.121819
H	-0.7062619048	-4.9901774235	 0.972933622	 0.104579
H	-2.1689670512	-4.2372895443	 1.6507019245	 0.114675
H	-1.1814149893	-3.7923583784	-1.1098506066	 0.102808
H	-4.3823025719	-1.1378948858	-0.4468541028	 0.193826
12.2002	65.4553	82.0057	135.6156	168.9832	228.6261	293.7242	315.8724	427.4435	448.1584	506.5247	556.564	618.5489	623.358	673.8906	732.8197	796.7749	878.0237	904.9308	936.7498	972.8271	1023.7909	1051.5207	1052.951	1068.5709	1100.0975	1191.8037	1200.6192	1230.0093	1238.9973	1264.6331	1270.0109	1336.5076	1366.2525	1414.1011	1478.2098	1478.4991	1481.2076	1495.9338	2233.1396	2368.4876	3024.513	3036.1585	3059.6008	3070.3391	3074.1457	3083.9008	3085.6015	3124.7032	3139.4427	3506.1604
CC#CC1CCC1C#C	CC#C[C@H]1CC[C@H]1C#C	
InChI=1S/C9H10/c1-3-5-9-7-6-8(9)4-2/h2,8-9H,6-7H2,1H3	InChI=1S/C9H10/c1-3-5-9-7-6-8(9)4-2/h2,8-9H,6-7H2,1H3/t8-,9+/m1/s1
