14
gdb 133149	2.34778	1.83262	1.03591	5.5072	66.72	-0.2411	-0.0453	0.1958	1048.6432	0.100229	-477.998964	-477.991196	-477.990252	-478.031478	28.656	
C	 0.0313473624	 1.5333795588	-0.0139248427	-0.547897
C	 0.0080506642	 0.0298024442	-0.0313069903	-0.004453
C	 0.1275182538	-0.7208218477	-1.1933077206	 0.321363
O	 0.2763501202	-0.1835277859	-2.4222884543	-0.419664
C	 0.0918071846	-2.1209640039	-1.0872077077	-0.033932
N	-0.0497329542	-2.7577824549	 0.0629503345	-0.201891
N	-0.1666846011	-2.0583240587	 1.1955765613	-0.268254
C	-0.1361703339	-0.7479421614	 1.1223636406	 0.32314
F	-0.2577646886	-0.1125253834	 2.2862849578	-0.065054
H	 0.9748489098	 1.9262860654	-0.41305536	 0.14385
H	-0.7866397756	 1.9557155504	-0.6109401734	 0.143951
H	-0.0769651165	 1.9045798882	 1.0048581143	 0.166712
H	 0.2859358201	 0.7785641003	-2.3627230667	 0.309129
H	 0.1824626847	-2.7339839215	-1.9779137429	 0.133
83.0253	136.9741	241.0922	279.1223	285.4103	340.9637	398.2762	491.1726	537.9179	551.9546	581.4413	660.6761	695.0684	781.3851	853.6911	930.6895	945.1271	1055.3556	1108.5005	1141.6752	1199.1664	1244.9162	1288.0846	1367.0323	1409.5116	1427.0801	1485.8638	1494.8938	1495.3057	1605.6323	1634.7887	3020.6883	3069.3832	3153.6785	3191.2261	3808.593
CC1=C(O)C=NN=C1F	Cc1c(O)cnnc1F	
InChI=1S/C5H5FN2O/c1-3-4(9)2-7-8-5(3)6/h2H,1H3,(H,8,9)	InChI=1S/C5H5FN2O/c1-3-4(9)2-7-8-5(3)6/h2H,1H3,(H,8,9)
