16
gdb 50145	3.85711	1.13661	0.94919	5.9723	74.2	-0.2545	-0.0362	0.2182	1212.9621	0.123798	-437.911469	-437.903201	-437.902257	-437.944859	29.675	
O	-0.1404764159	-0.0124432638	 0.0021803467	-0.272181
C	-0.028916799	 1.18527589	 0.0107475944	 0.155722
N	 1.166735944	 1.8752530541	 0.0024226916	-0.14855
C	 1.4420700836	 3.3308750983	 0.0113299488	-0.260839
C	 2.9341154224	 2.9657627361	-0.0086730993	 0.169064
C	 4.0794667292	 3.5789124981	-0.7672308733	-0.309757
C	 4.0964305098	 3.565838144	 0.7343902273	-0.30974
C	 2.5427463222	 1.5094483766	-0.0170417385	 0.412992
O	 3.103264051	 0.4564763604	-0.0321841355	-0.330254
H	-0.8907315457	 1.8839527411	 0.0269854484	 0.084853
H	 1.0703186888	 3.848768025	-0.8773473579	 0.130287
H	 1.0907970815	 3.8338524336	 0.9167466485	 0.130281
H	 4.7341212742	 2.8951443539	-1.2965702635	 0.145681
H	 3.8944455088	 4.5211890689	-1.2716448124	 0.128367
H	 3.9230507731	 4.4991589483	 1.2591798302	 0.128384
H	 4.762747322	 2.8730880953	 1.2368144841	 0.14569
59.9879	157.0705	172.7963	198.0916	219.0117	219.2879	345.5257	425.1613	524.2079	630.7729	731.9709	760.6964	792.9366	860.8987	866.1932	955.2379	967.3781	1024.1008	1033.0226	1064.7772	1074.9656	1097.0784	1125.8799	1153.3968	1195.6737	1241.6529	1244.3847	1360.4518	1404.702	1437.3538	1458.9366	1499.9246	1515.7131	1808.0355	1915.1619	2922.0345	3050.0382	3103.1355	3135.1083	3137.0419	3218.6928	3232.7229
O=CN1CC2(CC2)C1=O	O=CN1CC2(CC2)C1=O	
InChI=1S/C6H7NO2/c8-4-7-3-6(1-2-6)5(7)9/h4H,1-3H2	InChI=1S/C6H7NO2/c8-4-7-3-6(1-2-6)5(7)9/h4H,1-3H2
