16
gdb 50257	2.88878	1.36744	1.0679	4.473	71.83	-0.2399	-0.0445	0.1954	1109.9901	0.124043	-437.890353	-437.88249	-437.881546	-437.923793	28.576	
O	-0.1685916972	 0.1242511448	 0.2173813224	-0.319181
C	-0.0221537423	 1.3234429347	 0.3195022035	 0.130021
N	 1.1647714267	 1.9574953127	 0.1397629127	-0.033054
C	 2.4441789631	 1.4335596305	-0.350936051	-0.181166
C	 2.9030562898	 2.8950857638	-0.5947941554	-0.056716
C	 2.4951742386	 3.4778093704	-1.9756397027	-0.363315
C	 1.1586449952	 3.9491506925	-1.3626879593	 0.4181
O	 0.2102521727	 4.5409913001	-1.7809544802	-0.280159
C	 1.5335686406	 3.3727802948	 0.0284906866	-0.150544
H	-0.8343895634	 2.0281595755	 0.5869420271	 0.085402
H	 3.0020885741	 0.8943375505	 0.4212978031	 0.129
H	 2.3592879691	 0.7970384833	-1.2373704937	 0.131351
H	 3.8632141334	 3.2001540532	-0.1881507284	 0.098424
H	 3.102589289	 4.3316113356	-2.2934200538	 0.144303
H	 2.4236373483	 2.7772674762	-2.8124005621	 0.14083
H	 1.3981039724	 3.9844029515	 0.9234965314	 0.106704
47.66	77.8966	183.3594	235.0239	302.152	362.7705	432.1712	471.8643	553.4969	643.6149	763.2179	794.4259	826.9871	856.5194	906.8642	965.0667	1015.3198	1031.2416	1036.7159	1054.2073	1127.0073	1138.2273	1161.0247	1188.46	1211.6828	1235.0769	1255.4799	1302.2188	1317.2961	1391.4339	1433.2014	1435.5117	1514.7049	1789.855	1897.2494	2942.6346	3044.073	3057.0411	3088.3675	3090.5926	3109.7035	3157.0424
O=CN1CC2CC(=O)C12	O=CN1C[C@H]2CC(=O)[C@@H]12	
InChI=1S/C6H7NO2/c8-3-7-2-4-1-5(9)6(4)7/h3-4,6H,1-2H2	InChI=1S/C6H7NO2/c8-3-7-2-4-1-5(9)6(4)7/h3-4,6H,1-2H2/t4-,6+/m1/s1
