18
gdb 30840	2.32037	1.38132	0.913	1.6912	76.83	-0.1878	0.0389	0.2267	1283.8401	0.146473	-439.110735	-439.101234	-439.10029	-439.145111	34.487	
C	 0.4014034617	 1.1864351618	 0.3116323641	-0.325588
N	-0.3308837154	 0.077299708	-0.3074495138	-0.3787
C	 0.3834390374	-0.7355690362	-1.1732395533	 0.205178
C	 0.7373414984	-2.0462234061	-1.1227996106	 0.268425
C	 0.39262317	-3.0055620198	-0.0289207905	-0.505351
C	 1.4973927044	-2.3285168607	-2.3173234751	-0.41312
C	 1.5461251325	-1.1581227849	-3.0005088523	 0.424829
O	 2.1202867536	-0.847071378	-4.175352513	-0.427157
O	 0.8955267545	-0.1684758244	-2.3604349363	-0.231051
H	 1.2486517705	 0.7826114705	 0.8730462364	 0.131629
H	 0.787777965	 1.9215086985	-0.4096328385	 0.111016
H	-0.2594547442	 1.7034179584	 1.0139385178	 0.116827
H	-1.206236678	 0.3995142126	-0.7061848155	 0.229654
H	-0.1837815428	-3.8565547744	-0.4101777989	 0.124285
H	 1.2930970365	-3.4156471542	 0.4430396068	 0.124397
H	-0.2012811839	-2.5045929759	 0.7389496247	 0.134383
H	 1.93556335	-3.2657489632	-2.6178299065	 0.105523
H	 1.9543346999	 0.0869261379	-4.3485661456	 0.304823
68.3182	134.96	161.404	176.1282	198.6158	238.0568	254.1253	295.9041	340.1359	427.8011	534.7178	595.2405	614.0801	645.1604	682.0178	743.4611	757.3461	800.3583	976.5767	1017.1034	1031.3292	1050.1381	1067.3458	1144.4294	1157.6032	1169.767	1217.8983	1268.3781	1347.9818	1409.4348	1447.3557	1454.1403	1474.2862	1488.5679	1490.5629	1494.0174	1520.0383	1675.9568	1716.2546	2994.4299	3027.2149	3074.7605	3075.3702	3115.5659	3124.8895	3268.3265	3510.1295	3816.6726
CNC1=C(C)C=C(O)O1	CNc1c(C)cc(O)o1	
InChI=1S/C6H9NO2/c1-4-3-5(8)9-6(4)7-2/h3,7-8H,1-2H3	InChI=1S/C6H9NO2/c1-4-3-5(8)9-6(4)7-2/h3,7-8H,1-2H3
