19
gdb 116408	2.7874	1.36171	0.97111	3.8381	72.58	-0.2444	0.0039	0.2483	1224.0038	0.159558	-460.19325	-460.184472	-460.183528	-460.227167	32.11	
C	-0.1601904197	 1.3277831481	 0.0686198944	-0.247595
O	 0.0646205776	-0.0732023498	 0.0774346284	-0.236579
C	 0.6044429337	-0.6066019568	-1.1006500263	-0.003911
C	 1.3373084377	-1.9019619199	-0.7545035495	-0.234726
C	 1.8012321345	-2.5779257372	-2.0434588777	-0.233699
C	 0.5936279434	-2.8748312553	-2.9177718062	-0.059463
O	-0.2478155133	-1.7298645483	-3.1497929154	-0.227922
C	-0.4700044608	-0.7928243923	-2.1943846841	 0.394171
O	-1.4357852021	-0.0856740544	-2.2839859747	-0.313787
H	 0.7686357901	 1.8735589276	-0.1610126257	 0.097941
H	-0.9319159466	 1.6078994483	-0.6530681157	 0.146899
H	-0.483498374	 1.595842961	 1.077206684	 0.125007
H	 1.3335036348	 0.097407257	-1.5444967358	 0.094015
H	 2.1719611107	-1.6722213363	-0.0866581989	 0.112408
H	 0.6531389509	-2.557292975	-0.201736283	 0.118927
H	 2.5020443576	-1.9287323255	-2.5827462515	 0.112825
H	 2.3258723908	-3.5161240595	-1.8345841562	 0.112856
H	 0.8841249652	-3.2196569848	-3.9130214868	 0.12433
H	-0.0260358704	-3.6554092268	-2.4571277492	 0.118303
59.6575	117.189	138.2879	190.3733	242.6351	298.452	330.6549	387.72	432.4967	480.5988	549.8288	590.4472	674.6571	793.2082	890.9718	906.5142	933.8689	975.8213	1023.9304	1079.857	1104.692	1133.3861	1155.4355	1177.0338	1179.4476	1204.1095	1229.2611	1260.821	1295.8917	1331.2285	1349.4762	1380.9614	1386.9338	1426.0676	1474.7662	1479.9493	1484.0212	1499.0034	1516.5312	1519.3881	1839.9083	2928.9358	2983.539	3022.9943	3034.2008	3041.7562	3084.0945	3088.5223	3095.1703	3102.0464	3131.283
COC1CCCOC1=O	CO[C@H]1CCCOC1=O	
InChI=1S/C6H10O3/c1-8-5-3-2-4-9-6(5)7/h5H,2-4H2,1H3	InChI=1S/C6H10O3/c1-8-5-3-2-4-9-6(5)7/h5H,2-4H2,1H3/t5-/m0/s1
