19
gdb 35508	3.11549	1.44669	1.34598	2.0408	79.88	-0.2381	0.0531	0.2912	1034.5214	0.161425	-385.868079	-385.860631	-385.859687	-385.899868	30.221	
C	-0.0973453555	-1.238470013	-0.1936517012	-0.45835
C	-0.0453293253	-0.0421885653	-0.0860071421	 0.327334
C	 0.0004890757	 1.4042633413	 0.0391458652	-0.183607
C	-0.6099175811	 1.970623303	 1.3796906292	-0.237438
C	 0.5592540255	 2.795298099	 1.9646719897	-0.039448
C	 1.6686036915	 1.8117772899	 2.3721211556	-0.070706
O	 2.1831018379	 1.3265373881	 1.1153917191	-0.269697
C	 1.4434568024	 1.9944242071	 0.0948937715	 0.10672
C	 1.1954212249	 3.387159231	 0.6882836291	-0.238139
H	-0.1311127093	-2.2952640944	-0.2885589068	 0.190678
H	-0.5203822402	 1.8464192842	-0.8189554208	 0.101779
H	-1.477910382	 2.6019488937	 1.171496057	 0.101576
H	-0.9306360413	 1.1681461496	 2.0473088666	 0.115307
H	 0.2752741353	 3.4962991788	 2.7504695525	 0.069328
H	 2.4782671188	 2.2991363243	 2.9310604115	 0.095879
H	 1.2929718725	 0.9693731021	 2.9649201023	 0.10372
H	 1.9996517369	 1.9185578526	-0.839393923	 0.081615
H	 0.5077732022	 4.0027366261	 0.1024057926	 0.098317
H	 2.1236528708	 3.9355976518	 0.865836262	 0.105131
93.8687	147.7547	237.6647	338.5955	386.5334	449.4024	483.6823	535.7401	609.274	623.9614	625.0861	762.3279	801.513	813.0842	850.6871	894.8215	938.3519	944.3312	953.6128	961.7089	977.0889	1016.5855	1043.8994	1084.9144	1100.7572	1136.9448	1160.9485	1187.6678	1231.66	1241.1728	1268.6686	1300.892	1303.9163	1322.8549	1339.8621	1346.6467	1389.2889	1487.8592	1499.5685	1531.3264	2236.8206	3010.7605	3026.3685	3054.7783	3062.4594	3065.697	3110.0552	3114.3242	3120.6061	3124.8197	3506.1605
C#CC1CC2COC1C2	C#C[C@H]1C[C@H]2CO[C@@H]1C2	
InChI=1S/C8H10O/c1-2-7-3-6-4-8(7)9-5-6/h1,6-8H,3-5H2	InChI=1S/C8H10O/c1-2-7-3-6-4-8(7)9-5-6/h1,6-8H,3-5H2/t6-,7+,8-/m1/s1
