17
gdb 103269	2.67463	1.32199	1.10953	1.4836	69.61	-0.2415	-0.0166	0.2249	1122.8682	0.134696	-458.940449	-458.932101	-458.931156	-458.973387	32.199	
O	-0.0158172348	 1.3642990989	 0.1003746742	-0.420893
C	 0.0427605033	-0.0401901428	-0.1414351627	-0.161015
C	-1.3515754068	-0.6240365811	-0.0285671357	 0.412219
O	-2.2600363962	 0.0796093918	-0.8139295634	-0.470758
C	-1.7035241413	-2.0439678577	 0.1392867812	-0.121859
C	-0.6669020068	-2.8117012167	 0.9729129166	-0.377557
C	-0.9716898936	-1.8324258956	 2.1422393421	 0.396575
O	-0.6315771072	-1.806526856	 3.2928502392	-0.319752
C	-1.9629162382	-1.063963139	 1.3362564894	-0.265106
H	-0.1663774259	 1.4910504209	 1.04436528	 0.297072
H	 0.4004533769	-0.1475668981	-1.1706821631	 0.128275
H	 0.7545236717	-0.5345990575	 0.528007469	 0.114536
H	-1.9898627949	 1.0068267712	-0.7447151118	 0.292867
H	-2.463585477	-2.496930015	-0.4837181474	 0.117099
H	-1.0118971381	-3.8144040939	 1.2423988841	 0.139757
H	 0.3586252602	-2.8801440238	 0.60057361	 0.1222
H	-2.8761456715	-0.5848095856	 1.6647168283	 0.11634
78.1454	138.0952	185.9045	256.2825	287.5354	370.9985	388.0575	452.0667	481.0436	535.374	548.9694	563.3106	626.0906	740.4797	805.9993	849.8745	885.8983	914.893	961.4544	986.7291	997.5002	1022.0275	1056.0198	1089.9951	1113.8391	1152.5302	1209.7927	1220.2835	1240.8159	1273.1406	1324.5664	1378.0549	1409.8944	1459.6834	1488.1725	1498.3377	1870.3151	3042.5889	3061.2695	3094.2524	3113.0302	3203.7025	3211.3366	3737.7432	3798.7647
OCC1(O)C2CC(=O)C12	OC[C@@]1(O)[C@H]2CC(=O)[C@@H]12	
InChI=1S/C6H8O3/c7-2-6(9)3-1-4(8)5(3)6/h3,5,7,9H,1-2H2	InChI=1S/C6H8O3/c7-2-6(9)3-1-4(8)5(3)6/h3,5,7,9H,1-2H2/t3-,5-,6+/m0/s1
