21
gdb 69650	3.94347	1.11736	1.03199	2.1894	82.53	-0.2412	0.0714	0.3126	1243.9236	0.182347	-387.042856	-387.03433	-387.033386	-387.076234	32.86	
C	-0.0378654313	 1.5741884754	 0.0189702064	-0.496755
C	 0.0410511944	 0.0753008642	-0.0036463008	 0.37641
C	-0.8775459712	-0.813850888	 0.7869014036	-0.33365
C	 0.6090093414	-0.9094010863	 1.026384144	-0.171539
C	 1.2578115371	-1.7377135408	-0.0793939648	 0.322059
C	 2.7726534525	-2.0242924074	-0.0389129875	-0.140454
O	 2.5550703756	-3.4479890821	-0.0570663571	-0.27588
C	 1.1259110291	-3.2732500353	-0.1529587118	-0.132458
C	 0.6736527481	-0.7523130193	-1.1355862527	-0.379745
H	 0.9279389604	 2.0304837973	-0.2274297754	 0.115523
H	-0.772501637	 1.9444289647	-0.7068162918	 0.120526
H	-0.3388002833	 1.9397737385	 1.0063570329	 0.117851
H	-1.4383924936	-0.3188223191	 1.5740023951	 0.109488
H	-1.4136396663	-1.6331919235	 0.3111326064	 0.103448
H	 1.0468487027	-0.7167181569	 2.000266895	 0.083298
H	 3.3380385226	-1.6818885338	-0.9169867356	 0.093907
H	 3.2966444377	-1.6984586428	 0.8698010314	 0.098003
H	 0.5942723749	-3.7446306439	 0.6838075658	 0.099618
H	 0.7292945752	-3.6685622227	-1.0980417199	 0.095102
H	-0.0173878288	-1.1714552914	-1.8762576098	 0.09339
H	 1.4670524296	-0.2151639569	-1.6646693135	 0.10186
60.4336	98.011	203.4507	208.2364	289.414	317.1847	374.0949	393.9884	429.7244	502.7881	649.2788	777.9016	812.904	847.3575	859.7042	882.5578	942.9709	951.2001	963.3601	988.0952	998.4417	1018.334	1038.3988	1040.3752	1072.257	1089.3795	1143.1378	1153.2956	1159.2779	1168.8458	1200.9249	1215.1538	1246.0679	1287.7889	1306.6538	1314.9493	1384.0552	1393.0363	1424.2049	1479.225	1486.0512	1497.4118	1506.0729	1506.3169	1531.6281	2989.3371	3003.0416	3018.1896	3029.3608	3035.3999	3044.0777	3075.5833	3084.3967	3094.273	3098.5488	3163.6836	3191.3656
CC12CC1C1(COC1)C2	C[C@]12C[C@H]1C1(COC1)C2	
InChI=1S/C8H12O/c1-7-2-6(7)8(3-7)4-9-5-8/h6H,2-5H2,1H3	InChI=1S/C8H12O/c1-7-2-6(7)8(3-7)4-9-5-8/h6H,2-5H2,1H3/t6-,7-/m1/s1
