16
gdb 33513	2.72008	1.19716	0.92204	2.7387	68.88	-0.2779	-0.0052	0.2727	1238.9485	0.122664	-437.843668	-437.835078	-437.834134	-437.877974	30.544	
N	-0.7125911018	-1.0580801445	 0.3105719661	-0.331953
C	-0.4202179617	 0.0536872379	 0.1921473141	 0.277765
C	-0.0968520577	 1.4652826634	 0.0401737566	 0.241563
C	-1.1175798526	 2.2918693973	-0.7201039677	-0.324387
C	-1.2476874783	 1.8542767148	-2.1638103588	 0.093887
C	-2.2769948055	 0.9001746686	-2.5950961683	-0.167312
O	-2.4151147155	 2.3018231948	-2.8462144675	-0.235727
C	 0.8093235534	 2.0724465697	 1.036519229	-0.209866
O	 1.2790396377	 1.7267026792	-0.2629531057	-0.246813
H	-2.0937334044	 2.219252356	-0.2291160146	 0.130598
H	-0.800193382	 3.33915666	-0.680006447	 0.127556
H	-0.3290938793	 1.9191343259	-2.7475759954	 0.113603
H	-2.1038801992	 0.2815157576	-3.4733443562	 0.126678
H	-2.9655693786	 0.485532818	-1.8609236259	 0.126448
H	 0.7141077936	 3.1380721231	 1.2373212616	 0.133952
H	 1.1942072117	 1.4640425682	 1.8517849496	 0.144006
57.4098	66.076	134.2431	184.5348	243.3162	294.7251	363.4546	412.5282	433.1735	575.0852	594.5432	719.7709	824.0579	829.0205	876.4957	904.0851	926.2168	955.2985	1005.9831	1074.6667	1118.5294	1136.4422	1158.0009	1170.8337	1179.0364	1197.9267	1274.4371	1289.2639	1315.2971	1389.4521	1440.742	1466.7757	1520.4776	1530.3954	2358.6958	3048.2618	3092.5881	3094.6726	3095.568	3115.86	3183.1224	3192.279
N#CC1(CC2CO2)CO1	N#C[C@@]1(C[C@H]2CO2)CO1	
InChI=1S/C6H7NO2/c7-3-6(4-9-6)1-5-2-8-5/h5H,1-2,4H2	InChI=1S/C6H7NO2/c7-3-6(4-9-6)1-5-2-8-5/h5H,1-2,4H2/t5-,6-/m0/s1
