19
gdb 37595	2.78811	2.30215	1.985	1.4792	75.33	-0.2208	0.0863	0.3072	813.8957	0.164942	-385.891208	-385.885738	-385.884794	-385.920612	25.259	
C	-0.0422298378	 1.5623268385	-0.0760480548	-0.211738
C	 1.4638149647	 1.8623948356	 0.0186531577	-0.044063
C	 1.971109582	 0.9229788923	-1.1048356828	-0.206299
C	 1.4723394643	-0.3614098948	-0.4023572665	-0.069803
C	 2.248716475	-0.2974577569	 0.9226139126	-0.098311
C	 1.2258877174	 0.0423327454	 1.9469513655	 0.083006
O	-0.0617340201	-0.2528836874	 1.4780398335	-0.254302
C	 0.0039113926	 0.0238605534	 0.078024633	 0.07053
C	 2.025704717	 1.1717805048	 1.2957542055	-0.109323
H	-0.6531760913	 1.9955264328	 0.7183327706	 0.103661
H	-0.4420799435	 1.8794566771	-1.0445799114	 0.089425
H	 1.741660584	 2.9138062605	-0.0646803894	 0.058353
H	 1.505219843	 1.1251189419	-2.0754333963	 0.087743
H	 3.0579516414	 0.9262883473	-1.2245949833	 0.095038
H	 1.5494597633	-1.3028752676	-0.9452296394	 0.064828
H	 3.1550029654	-0.8640528038	 1.0945846961	 0.082961
H	 1.3389736522	-0.1596389655	 3.0055022527	 0.098598
H	-0.8039666384	-0.5213126017	-0.4106652503	 0.076845
H	 2.7322517289	 1.706462498	 1.9201223568	 0.082851
311.747	441.0961	485.9825	557.9631	592.7606	621.759	718.0304	734.0748	770.4109	790.9877	822.695	856.9559	877.8126	905.055	920.3546	928.7606	957.2561	970.6085	979.906	1005.7887	1015.9874	1047.2479	1064.8273	1082.3874	1104.8615	1119.6955	1144.9876	1163.1331	1193.3091	1201.6795	1256.4803	1268.1164	1273.2918	1294.1503	1303.0383	1324.3935	1341.4041	1355.1516	1412.4084	1482.115	1509.4964	3042.9383	3051.7517	3098.8672	3103.5089	3108.2159	3115.1759	3123.2176	3171.7885	3182.7612	3194.6283
C1C2CC3C4C(OC13)C24	C1[C@@H]2C[C@H]3[C@@H]4[C@H](O[C@@H]13)[C@H]24	
InChI=1S/C8H10O/c1-3-2-5-4(1)7-6(3)8(7)9-5/h3-8H,1-2H2	InChI=1S/C8H10O/c1-3-2-5-4(1)7-6(3)8(7)9-5/h3-8H,1-2H2/t3-,4+,5-,6+,7-,8+/m0/s1
