19
gdb 68049	2.16087	1.85771	1.29704	2.5487	76.12	-0.2499	0.0757	0.3257	1049.2065	0.157618	-422.956559	-422.948006	-422.947061	-422.989054	33.472	
C	-0.0153588418	 1.4653433364	 0.0273701838	-0.513066
C	 0.0136491024	-0.035944692	 0.0208784667	 0.215155
C	 0.5775559802	-0.9751092759	-1.1034082041	-0.336707
C	 0.0223601969	-1.9393293849	 0.0002674961	 0.295064
O	-0.0645028887	-3.3129373507	-0.0017694445	-0.469095
C	 0.6871181585	-0.9938523772	 1.0570391709	-0.328404
C	-1.182290081	-1.0051956013	 0.0732273564	 0.484689
C	-2.495349105	-1.031926376	 0.6931430858	-0.323429
O	-2.3177338483	-0.9967778762	-0.7504284059	-0.309733
H	 0.9912482441	 1.8829057051	-0.0776239792	 0.12199
H	-0.6258110009	 1.8426391993	-0.7997052385	 0.132878
H	-0.440720658	 1.8472554172	 0.9618269869	 0.120695
H	 0.0502425135	-0.9678005934	-2.0592318859	 0.114718
H	 1.6646823604	-0.9602214791	-1.2287440287	 0.083168
H	 0.8188578749	-3.6802842036	-0.1113815538	 0.286467
H	 1.7805161977	-0.981985495	 1.062780585	 0.087902
H	 0.2712614895	-1.0059206178	 2.0678847541	 0.095329
H	-2.8972210101	-1.9669952483	 1.0793202245	 0.126842
H	-2.923599954	-0.1272767065	 1.1224849303	 0.115537
170.6085	183.8049	206.5618	218.0449	225.8734	250.1122	284.7968	427.6627	476.5811	504.1967	599.6438	624.2935	653.1532	686.1633	749.7726	794.3521	898.5897	942.3476	958.665	977.2106	1034.1253	1041.4929	1056.7782	1065.7609	1109.6207	1119.9442	1123.1926	1133.4364	1167.1964	1181.011	1196.8336	1288.7502	1351.8962	1364.9355	1414.9034	1466.7054	1486.3421	1490.4586	1493.3104	1525.1933	1586.5826	3030.4804	3048.8865	3053.4374	3085.959	3096.4932	3101.4595	3120.5579	3130.6559	3173.2113	3814.3436
CC12CC(O)(C1)C21CO1	C[C@@]12C[C@@](O)(C1)[C@]12CO1	
InChI=1S/C7H10O2/c1-5-2-6(8,3-5)7(5)4-9-7/h8H,2-4H2,1H3	InChI=1S/C7H10O2/c1-5-2-6(8,3-5)7(5)4-9-7/h8H,2-4H2,1H3/t5-,6-,7-/m1/s1
