14
gdb 43168	2.32937	2.01437	1.89344	1.6002	60.91	-0.2435	-0.046	0.1975	825.3176	0.103283	-473.836499	-473.83003	-473.829086	-473.867419	24.879	
O	-0.0022789019	 0.041121898	 0.0514403664	-0.312472
C	-0.0013668529	 1.2383458597	 0.0225986284	 0.397552
C	-1.1897605707	 2.2092152738	 0.0274605209	 0.106246
O	-0.8233208483	 3.1888061284	 0.9375055494	-0.259954
C	 0.635456126	 3.2309835705	 1.0458879884	-0.085277
C	 1.1330321331	 2.2514574603	-0.0179379106	-0.127208
N	 1.0729996349	 2.8960439532	-1.3529120483	-0.26863
C	-0.081103085	 3.0781675842	-1.8467498334	 0.138393
O	-1.2901207959	 2.7575271675	-1.3188367882	-0.240998
H	-2.1701431453	 1.8004336973	 0.2609017221	 0.12891
H	 0.9641094233	 4.2557137702	 0.8598715911	 0.136057
H	 0.9228096877	 2.9247769712	 2.0575718868	 0.126558
H	 2.1258955467	 1.8450157853	 0.1644593205	 0.114476
H	-0.1991643918	 3.5495799604	-2.8195711635	 0.146348
143.0101	155.5894	307.302	350.9606	437.6212	488.0724	568.0431	614.1829	739.8362	779.6088	798.4291	848.5976	884.0247	896.5691	963.0679	971.05	1006.7618	1073.787	1089.8579	1133.5155	1188.3546	1203.6785	1243.2452	1283.5202	1302.2359	1344.2289	1383.2492	1386.4189	1513.2265	1706.6228	1889.4982	3047.6074	3113.9255	3141.7435	3161.4167	3177.1964
O=C1C2OCC1N=CO2	O=C1[C@H]2OC[C@@H]1N=CO2	
InChI=1S/C5H5NO3/c7-4-3-1-8-5(4)9-2-6-3/h2-3,5H,1H2	InChI=1S/C5H5NO3/c7-4-3-1-8-5(4)9-2-6-3/h2-3,5H,1H2/t3-,5-/m0/s1
