12
gdb 133602	2.67698	1.4268	1.15235	1.8088	48.13	-0.2829	-0.0545	0.2284	1000.4929	0.072344	-604.116299	-604.108486	-604.107542	-604.149772	27.266	
F	 0.0099315841	 0.0435506705	 0.1835663409	-0.081345
C	-0.0372107769	 1.3749760036	 0.0396926738	 0.284116
F	 1.2043648729	 1.8178049084	-0.185642171	-0.064621
F	-0.7834769213	 1.6466170884	-1.0329714639	-0.063627
C	-0.6017819253	 2.0345085256	 1.2918526672	-0.147651
O	-1.8982285267	 1.528084197	 1.6302816538	-0.27716
C	-1.4591961552	 0.9115892175	 2.8654277523	-0.186571
C	-0.0541397899	 1.4737170558	 2.6290212587	 0.348359
O	 0.9818363996	 1.5013288741	 3.208490126	-0.250375
H	-0.5741064349	 3.1231486115	 1.1690531102	 0.139496
H	-1.9866422193	 1.2986902455	 3.7444894349	 0.146223
H	-1.526820047	-0.1823072279	 2.8395187073	 0.153156
57.63	100.9704	124.6784	230.5308	296.0351	378.4153	430.8173	503.6565	535.5812	585.1213	678.186	725.7848	805.0854	886.3086	982.403	1007.4763	1057.4192	1071.7795	1134.8194	1171.8313	1207.7881	1241.7495	1281.401	1303.458	1355.1433	1475.9881	1941.6855	3033.8256	3062.2427	3087.6977
FC(F)(F)C1OCC1=O	FC(F)(F)[C@H]1OCC1=O	
InChI=1S/C4H3F3O2/c5-4(6,7)3-2(8)1-9-3/h3H,1H2	InChI=1S/C4H3F3O2/c5-4(6,7)3-2(8)1-9-3/h3H,1H2/t3-/m0/s1
