22
gdb 60431	4.37354	0.60473	0.55055	2.5491	80.45	-0.2427	0.0328	0.2755	2035.4227	0.19082	-441.524025	-441.512388	-441.511444	-441.563561	40.002	
C	-0.2290008398	 1.4474743571	-0.0098400791	-0.394133
C	 0.0430493266	-0.0599400305	-0.0314087177	 0.161283
C	 0.9742108137	-0.4568525124	-1.1720195319	-0.38726
O	 0.6659048834	-0.5079262057	 1.1679257742	-0.265697
C	-0.1800683353	-0.5691465876	 2.2973667292	-0.056497
C	 0.6118265583	-1.220130076	 3.4236903932	-0.327486
C	-0.1809600801	-1.2683720742	 4.7249115529	 0.411936
N	 0.3219601123	-2.1194576581	 5.6680630849	-0.52444
O	-1.1838368345	-0.6069609677	 4.9168657389	-0.359576
H	 0.7079935426	 1.9979435543	 0.1244913198	 0.119072
H	-0.6852612314	 1.7663489201	-0.9525280605	 0.112838
H	-0.9105100707	 1.7265513029	 0.7983488669	 0.1222
H	-0.9168205125	-0.5918588048	-0.1501888514	 0.063286
H	 1.937976632	 0.0522279904	-1.0687216569	 0.120453
H	 1.154395721	-1.5350282923	-1.1601834673	 0.117217
H	 0.5413694538	-0.1839808633	-2.1390156972	 0.111007
H	-0.5191450178	 0.4234157795	 2.6190063963	 0.114009
H	-1.0831095568	-1.1599820702	 2.0756179414	 0.094353
H	 0.9280013074	-2.2270097467	 3.1288264199	 0.116566
H	 1.5309592573	-0.6445506823	 3.5924732475	 0.133653
H	 1.1952812906	-2.6004061078	 5.5431184842	 0.257742
H	-0.1048086101	-2.1214018048	 6.5799723828	 0.259475
13.3582	49.4092	51.3328	97.6637	136.5932	164.9088	205.9026	226.0032	255.9323	278.7771	390.816	410.5301	476.8829	505.9486	518.6672	618.8923	650.1979	811.3314	822.8741	873.9374	926.1881	936.1637	949.8882	1064.1167	1081.8525	1106.8037	1115.99	1153.5655	1174.1573	1199.0673	1217.1898	1259.3854	1304.5859	1359.981	1370.0415	1389.3319	1398.0279	1413.8403	1439.2091	1470.0317	1480.3611	1486.215	1494.8129	1509.2639	1524.2693	1617.1467	1793.8393	2951.58	2981.0268	3035.1475	3035.3874	3041.0254	3044.1264	3078.8143	3106.3681	3114.052	3116.2872	3121.531	3601.6804	3738.1752
CC(C)OCCC(N)=O	CC(C)OCCC(=O)N	
InChI=1S/C6H13NO2/c1-5(2)9-4-3-6(7)8/h5H,3-4H2,1-2H3,(H2,7,8)	InChI=1S/C6H13NO2/c1-5(2)9-4-3-6(7)8/h5H,3-4H2,1-2H3,(H2,7,8)
