18
gdb 107548	2.24715	1.49627	1.04029	4.9861	74.4	-0.2317	0.0273	0.259	1167.5072	0.147126	-439.062618	-439.053849	-439.052905	-439.096484	32.029	
O	 0.0653572341	 1.3868010909	 0.0862439912	-0.413353
C	 0.0938697765	-0.031959769	-0.0289626047	-0.193547
C	-1.3164487514	-0.5161569614	-0.0944359723	 0.384729
C	-2.2234916267	-0.7409068153	 1.0875149465	-0.311409
C	-1.9421813719	-1.8868731648	 0.1464784387	-0.162974
C	-2.7351321571	-1.712466068	-1.1606408953	-0.182553
N	-2.1124504367	-0.3842256333	-1.3137412613	-0.093097
C	-2.6484273584	 0.729257663	-1.887008288	 0.114643
O	-3.5910359444	 0.7160601136	-2.6511404798	-0.329072
H	 0.9528486806	 1.7208518336	-0.0765401849	 0.292442
H	 0.6280970845	-0.3448456007	-0.9380299552	 0.100812
H	 0.5927064361	-0.4972153278	 0.8358192999	 0.09408
H	-1.7219968871	-0.8022171643	 2.0482275632	 0.123785
H	-3.205092648	-0.2762167888	 1.1137314476	 0.124048
H	-1.4560818341	-2.7994586302	 0.4622364019	 0.10683
H	-2.4403083123	-2.4018839186	-1.9571399793	 0.124184
H	-3.826415055	-1.6890725745	-1.0837195727	 0.129819
H	-2.0900952588	 1.6414550856	-1.6024284657	 0.090633
76.9728	89.8016	140.5678	212.4862	244.5789	275.9756	331.7448	354.5485	428.7443	459.9692	547.6739	712.3404	783.6084	845.4021	853.5615	905.4757	944.4129	983.7846	1016.8361	1038.7307	1050.155	1064.549	1076.9356	1097.916	1128.9867	1160.0618	1206.1986	1248.4379	1266.5887	1281.9963	1330.0862	1374.8661	1387.5747	1422.5729	1466.4401	1490.1258	1505.3799	1513.6043	1787.7391	2962.776	2976.6078	3016.0909	3050.15	3099.5401	3119.1948	3207.459	3215.7684	3825.8094
OCC12CC1CN2C=O	OC[C@]12C[C@H]1CN2C=O	
InChI=1S/C6H9NO2/c8-3-6-1-5(6)2-7(6)4-9/h4-5,8H,1-3H2	InChI=1S/C6H9NO2/c8-3-6-1-5(6)2-7(6)4-9/h4-5,8H,1-3H2/t5-,6+/m0/s1
