14
gdb 5738	4.22812	2.05476	1.40749	3.0721	64.94	-0.1923	0.0381	0.2303	830.5322	0.109916	-378.720911	-378.714506	-378.713561	-378.751532	24.231	
O	 0.0210749494	 1.3852924916	-0.0468537454	-0.436332
C	 0.0464442226	 0.0329433024	-0.0506144693	 0.192693
C	 0.1289440646	-0.8299025744	-1.1157634491	 0.231577
C	 0.2272365907	-1.3626613427	-2.5366126572	-0.384163
C	 0.2116135862	-2.7885351152	-1.8624323375	-0.169418
N	 0.1177154019	-2.0861446212	-0.5615658904	-0.001097
C	 0.0318765287	-1.9790672494	 0.7818339685	-0.039126
N	-0.0125470534	-0.6900395247	 1.1105776079	-0.35106
H	-0.0416200236	 1.6455947155	 0.8802296372	 0.298992
H	-0.627428805	-1.1636170003	-3.1880922121	 0.128328
H	 1.1481642872	-1.1308099556	-3.0775710036	 0.128325
H	-0.6599182528	-3.4081289008	-2.0855159244	 0.13415
H	 1.1262388999	-3.3751837261	-1.9743897889	 0.134144
H	 0.0042578635	-2.8071339592	 1.4713225442	 0.132987
103.8779	208.4028	304.0385	358.509	368.1804	533.5703	638.2771	662.8521	695.1312	717.804	760.1637	806.5629	864.6128	913.0632	1055.7448	1074.6364	1080.6261	1137.844	1184.8826	1202.945	1233.8172	1266.3681	1310.8332	1355.0356	1376.8231	1437.3677	1468.0538	1495.2348	1516.7023	1682.3812	3062.4911	3069.1643	3104.8057	3127.3964	3268.1324	3801.1764
OC1=C2CCN2C=N1	Oc1c2CCn2cn1	
InChI=1S/C5H6N2O/c8-5-4-1-2-7(4)3-6-5/h3,8H,1-2H2	InChI=1S/C5H6N2O/c8-5-4-1-2-7(4)3-6-5/h3,8H,1-2H2
