23
gdb 65921	3.03067	1.06985	1.0479	1.8705	84.89	-0.2417	0.0738	0.3156	1310.1115	0.206151	-388.259129	-388.24994	-388.248996	-388.293558	34.785	
C	 0.0942915867	 1.6644848318	-0.0095008751	-0.484776
C	 0.0446923734	 0.1407307808	-0.0033158544	 0.270463
C	 1.0000111483	-0.5715061245	-1.00068523	-0.111934
O	 1.612507627	-1.3349609444	 0.0569668797	-0.27637
C	 0.9307193872	-0.5608076128	 1.0632110258	-0.111928
C	-1.3619099059	-0.4569575997	-0.047477082	 0.019304
C	-2.4468016979	-0.065826464	 0.9996195636	-0.249594
C	-3.5110790843	-0.21568983	-0.120770385	-0.207508
C	-2.3740794017	-0.0767039993	-1.168789516	-0.249594
H	 1.1302256304	 2.0166222438	 0.0234374226	 0.116851
H	-0.3654141029	 2.0815115613	-0.9116285976	 0.120343
H	-0.4246866181	 2.0905930686	 0.8554674575	 0.120342
H	 0.5320653016	-1.2143142553	-1.7563378654	 0.097512
H	 1.7213270052	 0.0940442179	-1.4956449499	 0.088295
H	 1.6174555487	 0.1101180068	 1.5984592651	 0.088297
H	 0.4130004697	-1.1959320504	 1.7924329096	 0.097518
H	-1.2548535734	-1.5488997887	-0.0384202573	 0.079122
H	-2.5439159574	-0.6923904831	 1.8896800728	 0.096161
H	-2.3528504596	 0.9764517517	 1.3183884953	 0.100524
H	-3.9480737264	-1.2182098432	-0.1303780859	 0.103761
H	-4.3213593808	 0.5161266243	-0.1516233032	 0.096525
H	-2.2586069694	 0.9623669833	-1.4909377311	 0.100526
H	-2.4115307106	-0.7121777148	-2.057039729	 0.09616
66.3631	67.4621	137.8194	186.9336	214.0195	279.4238	326.4158	333.7516	435.2969	457.4972	580.2603	703.8826	767.979	788.3037	864.7165	891.9486	894.9169	934.7871	952.0214	956.9828	979.8611	985.5081	1000.4987	1036.6345	1056.0634	1058.2448	1103.9686	1162.0241	1165.9435	1174.3827	1204.4234	1204.5075	1246.3008	1255.4262	1266.41	1278.2485	1305.3234	1307.1003	1310.694	1375.8642	1394.1061	1418.4638	1477.5213	1487.0543	1498.2273	1499.2077	1511.432	1512.9477	1536.1441	2990.3806	3001.2291	3023.1305	3032.601	3046.2935	3048.8314	3053.9738	3055.9271	3061.9637	3096.7001	3098.2734	3099.8629	3106.5574	3120.5857
CC1(COC1)C1CCC1	CC1(COC1)C1CCC1	
InChI=1S/C8H14O/c1-8(5-9-6-8)7-3-2-4-7/h7H,2-6H2,1H3	InChI=1S/C8H14O/c1-8(5-9-6-8)7-3-2-4-7/h7H,2-6H2,1H3
