19
gdb 58809	3.57915	1.04544	0.98136	1.7471	71.06	-0.2508	0.0637	0.3144	1269.5426	0.157071	-460.120727	-460.111484	-460.11054	-460.154834	34.751	
C	-0.0094674926	 1.4457071168	-0.2542948018	-0.417529
C	 0.002050835	-0.0382510319	 0.1124000878	-0.004012
O	 0.8052508246	-0.3018500486	 1.2586018269	-0.421851
C	-1.3902117303	-0.5757564688	 0.3166306161	 0.437966
C	-2.355404941	-0.3528059746	 1.4901785676	-0.361931
C	-3.007512727	-1.7503518244	 1.1392807126	 0.146307
O	-4.3529443683	-1.7797891251	 0.7590504992	-0.433687
C	-1.9745326056	-1.8909685459	 0.0077910367	-0.100907
O	-2.2131794411	-0.7576743198	-0.8528043741	-0.313123
H	 1.0123085767	 1.8046100132	-0.4032140092	 0.127336
H	-0.5817082538	 1.6112149375	-1.1714127181	 0.140155
H	-0.4728548593	 2.0404665329	 0.5429526347	 0.111635
H	 0.4605779619	-0.608921161	-0.703036207	 0.101132
H	 0.5728767254	 0.3437096587	 1.9348661982	 0.282425
H	-1.8672850041	-0.3613228619	 2.4678278523	 0.107458
H	-3.0165072988	 0.5131201786	 1.4070136912	 0.105764
H	-2.8767925246	-2.4798936521	 1.9414481884	 0.098635
H	-4.4130618723	-1.243837353	-0.0425353811	 0.288377
H	-1.5485945546	-2.7761835808	-0.4515058503	 0.10585
63.3103	97.6785	163.8743	195.1106	255.3704	268.2083	302.5224	365.7352	424.2627	482.908	492.8214	501.0041	611.7865	669.9438	728.6573	818.6038	879.9299	890.0074	934.4385	949.4745	980.1637	1014.0585	1023.5394	1074.864	1103.823	1119.9172	1141.2467	1190.2783	1204.5831	1255.6817	1270.9249	1294.5271	1320.7044	1342.8776	1398.7384	1405.8136	1435.4328	1448.359	1478.9968	1492.8733	1499.2727	3027.4771	3052.9124	3062.9695	3095.4975	3102.3412	3125.2914	3127.8051	3182.8494	3770.3502	3806.367
CC(O)C12CC(O)C1O2	C[C@@H](O)[C@]12C[C@@H](O)[C@H]1O2	
InChI=1S/C6H10O3/c1-3(7)6-2-4(8)5(6)9-6/h3-5,7-8H,2H2,1H3	InChI=1S/C6H10O3/c1-3(7)6-2-4(8)5(6)9-6/h3-5,7-8H,2H2,1H3/t3-,4-,5-,6-/m1/s1
