21
gdb 103127	2.21429	1.09903	1.03372	2.9043	81.24	-0.2392	-0.0183	0.2209	1333.0508	0.179427	-424.225316	-424.21485	-424.213906	-424.260794	38.085	
C	 0.2791776979	 1.537718885	 0.2406603348	-0.389018
C	-0.1276182693	 0.0995423893	-0.1103836199	-0.242614
C	 0.6492212115	-0.4771782153	-1.2899334421	 0.279883
C	 0.4423864828	 0.2364121923	-2.6152677558	-0.456598
C	 1.9857312645	-1.0806324427	-1.0446012891	 0.047877
O	 2.4642309449	-1.0566685946	 0.2658289359	-0.415225
C	 0.8204046115	-2.0136766568	-1.4155328231	-0.216459
C	 0.2751456185	-2.9686156406	-0.4298299618	 0.145674
O	-0.1983378028	-4.0407431759	-0.7323286218	-0.280049
H	 1.3450327281	 1.5881717288	 0.4821968681	 0.133816
H	 0.0803721277	 2.2366970134	-0.5771701246	 0.115978
H	-0.2808949064	 1.8876532042	 1.1131066351	 0.114837
H	 0.0231659246	-0.5215347296	 0.7739376908	 0.11654
H	-1.1988195331	 0.0608947354	-0.3452342377	 0.099999
H	 0.7541589941	 1.2837931022	-2.5552330401	 0.127675
H	 1.0192179365	-0.2344411164	-3.4167035377	 0.118354
H	-0.61347813	 0.2137106742	-2.9066530587	 0.126108
H	 2.7501206366	-0.9571091811	-1.8123207265	 0.095529
H	 3.0496163966	-1.8111422639	 0.3916465226	 0.296851
H	 0.8135510965	-2.4080192849	-2.4269752133	 0.099762
H	 0.3389411092	-2.6590727832	 0.6334077451	 0.081079
61.2747	84.2691	134.5188	192.628	200.381	208.0749	257.1957	287.4119	292.6759	344.7976	360.9345	426.8779	496.0169	497.5065	603.0384	680.769	785.6965	806.0872	891.3368	934.8766	1009.3893	1019.0298	1026.8681	1044.5087	1055.1655	1091.4717	1129.0064	1151.99	1173.9409	1237.5937	1262.6619	1309.1636	1325.7385	1347.2934	1378.9576	1407.6283	1415.6628	1442.2493	1469.527	1478.7924	1492.8904	1500.4724	1506.7142	1509.709	1796.6116	2916.2557	3031.0443	3033.7739	3042.0036	3093.2863	3097.9529	3102.4372	3107.9363	3112.9377	3124.1867	3163.2326	3804.9664
CCC1(C)C(O)C1C=O	CC[C@@]1(C)[C@@H](O)[C@H]1C=O	
InChI=1S/C7H12O2/c1-3-7(2)5(4-8)6(7)9/h4-6,9H,3H2,1-2H3	InChI=1S/C7H12O2/c1-3-7(2)5(4-8)6(7)9/h4-6,9H,3H2,1-2H3/t5-,6+,7-/m1/s1
