18
gdb 49427	3.51903	1.41872	1.3667	4.1878	76.64	-0.2271	0.0371	0.2642	1001.2675	0.15107	-401.976497	-401.969698	-401.968754	-402.008827	27.236	
O	-0.057910311	-0.0243802833	-0.000851516	-0.348695
C	 0.0099636049	 1.1884509023	 0.0326964514	 0.133396
N	 1.1539784561	 1.9062711965	 0.1000381554	-0.007214
C	 1.359405294	 3.3332438516	 0.0311245953	-0.014674
C	 2.6871959814	 3.5984477844	 0.7158816896	-0.092088
C	 3.1852153194	 2.2325737005	 1.1841131464	-0.218532
C	 2.5337648068	 1.4115230823	 0.0410053622	-0.057309
C	 3.0616447158	 2.1450135431	-1.2214463554	-0.219427
C	 2.610204922	 3.5435817323	-0.8061950117	-0.091661
H	-0.8823030921	 1.84742358	 0.0279744401	 0.064817
H	 0.5013281784	 3.9893446445	 0.0525667762	 0.111109
H	 2.8797996238	 4.5162052088	 1.254620942	 0.094468
H	 4.2753078639	 2.148893845	 1.1871839807	 0.106261
H	 2.7964862281	 1.9490057346	 2.1659216044	 0.112356
H	 2.5892944636	 0.3284042495	 0.0749528658	 0.112801
H	 4.1459846712	 2.056670449	-1.3311945044	 0.106362
H	 2.5753870434	 1.7913839549	-2.1348467025	 0.1137
H	 2.7446086506	 4.4194364343	-1.4262064295	 0.09433
22.4897	205.5395	288.2672	422.9663	449.9177	479.0065	563.2132	696.2139	731.8464	754.3441	795.0514	824.6266	855.5084	891.1328	935.3822	943.2927	953.9194	972.5354	984.1152	1022.4176	1033.6308	1058.7457	1060.7838	1081.1275	1148.0175	1152.9462	1208.209	1216.4384	1247.0258	1270.1041	1272.1488	1307.7254	1318.7728	1366.1406	1425.0718	1479.4253	1480.9111	1500.5441	1786.3785	2922.0231	3059.3042	3064.1714	3110.4739	3114.6593	3189.5662	3205.231	3211.7008	3228.9951
O=CN1C2C3CC1CC23	O=CN1[C@H]2[C@H]3C[C@@H]1C[C@@H]23	
InChI=1S/C7H9NO/c9-3-8-4-1-5-6(2-4)7(5)8/h3-7H,1-2H2	InChI=1S/C7H9NO/c9-3-8-4-1-5-6(2-4)7(5)8/h3-7H,1-2H2/t4-,5+,6-,7+
