20
gdb 102624	1.86679	1.21456	0.91656	2.7605	71.76	-0.2613	0.05	0.3114	1380.9603	0.169299	-477.471312	-477.460723	-477.459778	-477.507821	37.697	
C	-0.3537832761	 1.4370070422	 0.5826466383	-0.388824
C	-0.0723229946	-0.0341587785	 0.2702254318	-0.176056
C	 0.6576788298	-0.2534652045	-1.0512211347	 0.104859
C	 0.93357185	-1.7257118576	-1.3604027534	-0.087308
O	-0.2533583869	-2.4964220728	-1.4263132716	-0.419782
O	-0.1986409854	 0.264967682	-2.1061105997	-0.289406
C	 0.4267215922	 0.8117982064	-3.1829362113	 0.497115
N	-0.5053321798	 1.2169250624	-4.097535941	-0.56304
O	 1.6236259806	 0.8978285405	-3.3251736982	-0.394697
H	 0.5736941954	 2.018086728	 0.6347495312	 0.116918
H	-0.9871038614	 1.8872766971	-0.1867195838	 0.119336
H	-0.8664572817	 1.5404141959	 1.5435352988	 0.114866
H	 0.5506965802	-0.4714342695	 1.0599853089	 0.101928
H	-1.0015019219	-0.6128652797	 0.2558489698	 0.113273
H	 1.5993654606	 0.3024367898	-1.0814650596	 0.110434
H	 1.5099173722	-1.788203056	-2.2946158396	 0.109548
H	 1.5444195612	-2.1570058177	-0.5603301782	 0.110228
H	-0.8130981325	-2.0786649058	-2.0904359374	 0.286395
H	-1.4587799457	 1.3314361906	-3.7977657021	 0.26395
H	-0.1689595659	 1.8144442071	-4.8332118281	 0.270262
41.1791	73.4386	97.98	119.8164	178.1118	218.0759	247.0545	285.0328	352.2937	369.2434	397.8965	442.4195	475.6466	521.5059	650.8033	679.2783	770.0137	785.1196	862.4266	869.0534	952.682	996.1811	1030.8438	1063.3174	1083.9211	1111.778	1136.3085	1173.573	1232.6271	1286.0843	1316.5156	1338.3582	1374.453	1392.0205	1409.4487	1413.4294	1427.7543	1482.5618	1498.4235	1502.303	1509.2741	1611.2851	1831.5676	3006.068	3037.0751	3039.0234	3073.3686	3078.865	3088.3973	3106.3446	3117.4825	3611.3365	3740.1043	3804.4751
CCC(CO)OC(N)=O	CC[C@@H](CO)OC(=O)N	
InChI=1S/C5H11NO3/c1-2-4(3-7)9-5(6)8/h4,7H,2-3H2,1H3,(H2,6,8)	InChI=1S/C5H11NO3/c1-2-4(3-7)9-5(6)8/h4,7H,2-3H2,1H3,(H2,6,8)/t4-/m0/s1
