16
gdb 33553	2.21216	1.56621	1.19494	4.0493	80.28	-0.2698	-0.0101	0.2597	1087.7888	0.123965	-363.597649	-363.589297	-363.588353	-363.63069	31.316	
C	-0.0500120395	-1.2120918426	-0.0503192939	-0.421599
C	-0.0457090042	-0.0114630125	-0.0388171131	 0.283135
C	-0.018317235	 1.4516514489	 0.0054907394	-0.072031
C	-0.615857557	 2.0289162145	 1.3430450313	-0.25237
C	 0.2581882609	 3.2549186064	 1.6883941987	-0.268717
C	 1.5325548905	 2.9933949904	 0.9259002176	-0.059416
C	 1.4032835667	 2.0288268258	 0.0214510476	-0.091445
C	-0.74528017	 1.9907658272	-1.1644997433	 0.269935
N	-1.3054866897	 2.4430280547	-2.068541902	-0.342087
H	-0.0591164421	-2.2741622737	-0.0694307045	 0.205757
H	-1.6785074563	 2.253971693	 1.2456146024	 0.131527
H	-0.4993822608	 1.2569165409	 2.1062073231	 0.131366
H	-0.2016592115	 4.1948472169	 1.3559920246	 0.130812
H	 0.4185268712	 3.3510588557	 2.7671351464	 0.118032
H	 2.4393801267	 3.5655860317	 1.0862822727	 0.113264
H	 2.1497543498	 1.6769332026	-0.6781176068	 0.123836
85.6419	126.6368	152.639	176.0864	242.9898	374.7152	468.0604	495.9605	511.9492	570.0881	584.4289	644.8622	655.4499	684.4818	769.3651	780.6132	853.0973	930.3806	966.17	980.8508	983.9686	1061.8817	1080.0718	1109.6835	1152.8201	1210.5787	1246.6212	1312.1233	1320.9327	1367.6022	1480.6166	1495.3082	1687.475	2243.531	2352.4652	3027.0397	3069.9721	3086.2723	3139.5601	3197.692	3233.4636	3500.0407
C#CC1(CCC=C1)C#N	C#C[C@]1(CCC=C1)C#N	
InChI=1S/C8H7N/c1-2-8(7-9)5-3-4-6-8/h1,3,5H,4,6H2	InChI=1S/C8H7N/c1-2-8(7-9)5-3-4-6-8/h1,3,5H,4,6H2/t8-/m0/s1
