18
gdb 65710	3.73688	0.87459	0.81533	3.1175	74.9	-0.2503	-0.0528	0.1976	1414.7611	0.144303	-439.076613	-439.066876	-439.065932	-439.112223	34.052	
C	-0.1477386025	 1.725287735	 0.3234949884	-0.452294
C	-0.0333286688	 0.2352283364	 0.0625438311	 0.312577
C	-1.33330641	-0.4358504187	-0.4047521466	-0.354886
C	-1.5396175005	-0.1982507766	-1.8924037412	 0.155467
O	-0.9471418215	-0.8284768315	-2.7326756859	-0.235537
N	 1.2099915663	-0.2202904752	-0.5401138316	-0.353208
C	 0.9162876936	-0.6436061455	 0.8439759506	-0.166156
C	 1.8232113496	-0.1096666924	 1.8990382797	 0.163467
O	 1.9398231964	-0.6117413951	 2.9891513195	-0.25743
H	 0.8278162951	 2.1629837617	 0.5390532803	 0.139036
H	-0.5498861861	 2.2381446127	-0.5574166803	 0.125755
H	-0.8181544313	 1.9256134007	 1.1656688119	 0.128858
H	-1.2663191969	-1.5178746531	-0.258005042	 0.135001
H	-2.1833294155	-0.0547190055	 0.1700134443	 0.118429
H	-2.2496681597	 0.607168184	-2.1797000087	 0.094447
H	 1.0420505	-0.9743288221	-1.2030608824	 0.254539
H	 0.5795904068	-1.6594193955	 1.0375643319	 0.104218
H	 2.3996451551	 0.7922853307	 1.600766171	 0.087716
52.9568	69.2038	96.7042	130.4894	195.0383	222.9364	264.5798	339.5143	384.5731	412.4734	476.9303	514.9199	562.9543	680.1469	816.7807	888.5791	916.0371	964.4344	984.2465	1006.389	1021.1578	1046.5603	1083.9579	1094.7807	1126.0966	1198.8509	1223.8125	1253.8445	1308.9349	1346.2168	1393.3843	1418.9165	1419.5531	1448.6166	1469.9048	1490.6432	1498.1678	1815.7997	1821.5491	2896.735	2904.4292	3037.4196	3049.9444	3097.9094	3106.9746	3142.0616	3144.7816	3500.9288
CC1(CC=O)NC1C=O	C[C@@]1(CC=O)N[C@H]1C=O	
InChI=1S/C6H9NO2/c1-6(2-3-8)5(4-9)7-6/h3-5,7H,2H2,1H3	InChI=1S/C6H9NO2/c1-6(2-3-8)5(4-9)7-6/h3-5,7H,2H2,1H3/t5-,6-/m0/s1
