20
gdb 87577	2.62595	1.40255	1.19096	2.4895	78.8	-0.2305	0.0761	0.3066	1149.4668	0.169408	-403.086946	-403.078103	-403.077159	-403.120192	33.703	
C	 0.1421645406	 1.9467594013	 0.6439011016	-0.417447
C	-0.043396865	 0.4567709384	 0.5254806547	-0.03132
O	 1.1230159071	-0.3213765476	 0.1821249577	-0.30537
C	 0.5560464267	-0.4951796964	 1.4655535769	 0.429437
C	 1.3206221426	-0.2760060262	 2.7503631511	-0.136464
C	 0.3890301015	-0.4060610337	 3.8907565451	-0.247492
N	 0.9127549166	-1.6410708269	 3.2798420719	-0.142064
C	 0.1403603344	-1.8779938339	 1.9922731994	-0.034197
C	-1.3136615932	-2.2948279109	 2.1147069528	-0.413592
H	 1.0366135957	 2.1845126842	 1.225263751	 0.128523
H	 0.2434295575	 2.4038718084	-0.3458126802	 0.131724
H	-0.7246382598	 2.4007783615	 1.1365262768	 0.122406
H	-0.9414320823	 0.1374842242	-0.0070972281	 0.088964
H	 2.336930669	 0.0936420427	 2.8297751173	 0.109145
H	 0.7802476168	-0.2367689901	 4.8893836407	 0.125359
H	-0.6559314237	-0.1332291263	 3.7659341107	 0.112858
H	 0.6993564863	-2.6362100568	 1.4345595182	 0.105204
H	-1.9223067754	-1.5503826168	 2.6357734843	 0.116517
H	-1.7480868374	-2.4446508262	 1.1207022267	 0.125694
H	-1.3903034779	-3.2403719989	 2.6609903715	 0.132115
113.1345	131.7234	172.6197	188.7939	206.0644	264.396	294.9351	432.7684	457.9721	486.1966	551.6934	600.3381	726.7175	769.8295	786.6603	805.3619	901.1136	923.0571	930.49	995.9651	1029.8902	1049.9769	1093.7341	1102.5359	1111.5124	1118.8697	1128.5383	1137.9474	1173.269	1186.5231	1228.3994	1268.8554	1313.919	1364.1211	1376.2131	1406.7793	1409.8201	1474.1765	1485.5948	1489.4934	1492.5365	1503.4396	1527.1758	3036.6628	3036.9628	3059.9833	3087.941	3100.7664	3104.9412	3107.5575	3114.5562	3125.3318	3175.8473	3197.7547
CC1OC11C2CN2C1C	C[C@H]1O[C@]21[C@H]1CN1[C@H]2C	
InChI=1S/C7H11NO/c1-4-7(5(2)9-7)6-3-8(4)6/h4-6H,3H2,1-2H3	InChI=1S/C7H11NO/c1-4-7(5(2)9-7)6-3-8(4)6/h4-6H,3H2,1-2H3/t4-,5+,6+,7+,8?/m0/s1
