14
gdb 5404	5.34171	1.71868	1.31102	1.9838	66.49	-0.2495	-0.0371	0.2124	890.4108	0.10966	-378.777438	-378.770812	-378.769867	-378.808371	24.159	
C	-0.020440835	 1.3929558779	 0.0197941734	-0.226247
O	 0.0216205315	-0.0325963164	-0.0345876531	-0.23823
C	 0.6237046929	-0.592386351	-1.0882944973	 0.47371
N	 1.1495217157	 0.1972627572	-2.0261559029	-0.339679
C	 1.7351196369	-0.4291083925	-3.0501745154	 0.013094
C	 1.7994416928	-1.810651956	-3.1448290129	-0.147064
C	 1.2113939454	-2.5198780302	-2.0984194978	 0.013551
N	 0.6207803752	-1.9300744919	-1.0650739039	-0.29804
H	 0.9872202977	 1.817272052	 0.0368361606	 0.135493
H	-0.5566544712	 1.8051591957	-0.8394324136	 0.135503
H	-0.5473104202	 1.6302692563	 0.9448110436	 0.132039
H	 2.1657769574	 0.2099066442	-3.8181488077	 0.118266
H	 2.2764396377	-2.3082757143	-3.9790827878	 0.107669
H	 1.2148592431	-3.6080367011	-2.0897635553	 0.119934
117.5784	165.2714	223.36	259.1332	424.5731	502.8346	544.8467	616.4036	648.7278	819.3527	835.3401	852.1092	1001.2932	1001.3555	1012.9268	1068.9647	1105.4728	1120.2016	1179.4741	1204.2791	1271.2993	1313.3221	1375.6153	1438.0834	1470.9025	1481.488	1496.0565	1516.7296	1598.1752	1633.6824	3044.5911	3116.5599	3149.7101	3151.7379	3154.0315	3219.5005
COC1=NC=CC=N1	COc1ncccn1	
InChI=1S/C5H6N2O/c1-8-5-6-3-2-4-7-5/h2-4H,1H3	InChI=1S/C5H6N2O/c1-8-5-6-3-2-4-7-5/h2-4H,1H3
