17
gdb 78596	2.84148	1.5834	1.25885	3.5129	67.08	-0.2436	0.06	0.3036	1003.4283	0.136247	-458.899908	-458.892281	-458.891337	-458.931441	31.025	
O	 0.0592027202	 1.4539721006	 0.0133272864	-0.454438
C	 0.0016027747	 0.0609488736	-0.0584242805	 0.188408
C	-1.3291992238	-0.6954533396	-0.1228466324	-0.180164
C	-1.735389095	-0.811047828	-1.6158256982	-0.189752
C	-0.6446654769	-0.1546116932	-2.4342709362	 0.133719
O	-0.7832573207	 1.2473286229	-2.6418184411	-0.443172
C	 0.3785075825	-0.6791907191	-1.3820684796	-0.27075
C	-0.7279516267	-1.754850994	-0.9916464624	 0.375222
O	-0.6971369182	-3.1090174005	-0.7994147733	-0.449958
H	-0.3986073047	 1.7850176648	-0.7731138279	 0.284141
H	 0.6019069067	-0.3295690853	 0.7685870513	 0.092959
H	-2.0770557775	-0.8257955008	 0.6483718709	 0.094502
H	-2.761728793	-1.004416922	-1.8973851053	 0.094502
H	-0.5181307945	-0.6701943327	-3.3954636977	 0.07397
H	-0.0224219947	 1.5562680327	-3.1458122422	 0.289636
H	 1.4162289284	-0.8644712071	-1.6529919643	 0.069104
H	-0.6473949768	-3.5435796022	-1.6583257374	 0.292071
175.1368	238.7592	259.6616	278.9667	318.2354	337.1441	391.9326	450.1147	555.7858	592.9984	618.5319	671.597	725.7146	760.9197	821.3045	896.6432	921.9322	936.1383	976.8325	981.7442	1000.3455	1017.4771	1070.7099	1090.478	1103.3975	1137.8487	1152.9413	1184.4588	1238.6441	1261.0647	1295.9826	1314.7981	1321.0769	1350.3676	1419.8605	1477.0333	1500.4211	3016.1278	3075.3919	3135.6203	3204.1118	3213.4343	3717.8086	3788.5617	3807.6793
OC1C2C3C(O)C1C23O	O[C@H]1[C@H]2[C@H]3[C@@H](O)[C@@H]1[C@@]23O	
InChI=1S/C6H8O3/c7-4-1-2-5(8)3(4)6(1,2)9/h1-5,7-9H	InChI=1S/C6H8O3/c7-4-1-2-5(8)3(4)6(1,2)9/h1-5,7-9H/t1-,2+,3-,4+,5-,6-
