19
gdb 72173	2.34177	2.19213	1.69287	2.6095	73.17	-0.2331	0.0717	0.3048	894.7387	0.162236	-423.017277	-423.010462	-423.009518	-423.047929	28.907	
O	-0.0623847205	 1.3939995379	 0.0288711143	-0.495159
C	-0.0029812634	 0.0041031202	-0.0375434602	 0.40328
C	 0.2152637371	-0.7989749434	-1.3429745671	-0.319037
C	-0.4382476696	-1.9418590924	-0.5197451327	-0.081125
C	 0.6449005653	-2.204734678	 0.548615127	-0.215112
C	 0.7406046426	-0.7556427698	 1.1133519368	-0.125518
C	-0.2924153094	-0.6378444457	 2.237990023	-0.078474
O	-1.5317375497	-0.9599148424	 1.5786755061	-0.285194
C	-1.2836520743	-0.8183029549	 0.1951726454	 0.110317
H	 0.8356788341	 1.7416490214	-0.0032799188	 0.278893
H	-0.4223547476	-0.4227542247	-2.1465222757	 0.105376
H	 1.2334107287	-0.9566595032	-1.7083849761	 0.089448
H	-0.9043018475	-2.7984189047	-1.0029170183	 0.067779
H	 0.3371066492	-2.9236439213	 1.312662459	 0.104335
H	 1.5785193003	-2.5557971299	 0.1000212703	 0.093925
H	 1.7406831041	-0.3976399581	 1.3657382948	 0.05911
H	-0.1290580451	-1.3501619881	 3.0533091347	 0.10039
H	-0.3401762043	 0.3789784629	 2.6517047789	 0.098861
H	-2.1847760802	-0.5020498358	-0.3297215313	 0.087903
239.7339	251.2744	263.8692	305.5976	431.834	447.1034	458.0527	569.5868	643.866	722.5499	754.571	822.5287	836.0484	856.6497	894.4117	926.9384	938.171	965.2725	986.7215	1003.1672	1033.0989	1055.9332	1078.1667	1089.7083	1118.1396	1149.9621	1157.1497	1181.4706	1196.7272	1224.5123	1231.0981	1269.6057	1283.4529	1310.7602	1315.359	1328.861	1380.6874	1405.5583	1489.969	1510.7964	1518.3102	3007.7393	3053.3161	3058.5681	3071.7675	3092.9626	3101.8961	3118.4993	3125.8103	3136.4014	3799.0715
OC12CC3CC1COC23	O[C@@]12C[C@H]3C[C@@H]1CO[C@@H]23	
InChI=1S/C7H10O2/c8-7-2-4-1-5(7)3-9-6(4)7/h4-6,8H,1-3H2	InChI=1S/C7H10O2/c8-7-2-4-1-5(7)3-9-6(4)7/h4-6,8H,1-3H2/t4-,5-,6-,7+/m1/s1
