20
gdb 67638	3.24326	1.75373	1.58389	1.3334	81.35	-0.2277	0.0868	0.3145	946.8797	0.173702	-365.968478	-365.961625	-365.960681	-365.999224	28.999	
C	 0.0341551503	 1.5242297053	 0.0318714702	-0.516053
C	-0.0229668065	 0.0295584736	-0.0346829347	 0.339681
C	 0.6840476212	-0.999969258	-0.8783446648	-0.122427
C	-0.6270464904	-1.7932982772	-1.1230009847	-0.028661
C	-0.8457709625	-3.0499061394	-0.2568175606	-0.241783
C	-0.9939859145	-2.0911633834	 0.9583991383	-0.055862
C	 0.399531541	-1.7481764021	 1.5045108402	-0.161927
N	 1.0100798027	-0.8104447887	 0.5493253206	-0.142218
C	-1.2809487294	-0.8921934983	-0.0330690472	-0.105006
H	 1.063370973	 1.870580102	-0.0963789154	 0.13189
H	-0.5858809491	 1.9805031181	-0.7473183098	 0.117396
H	-0.3266967769	 1.8895798938	 1.001050093	 0.119173
H	 1.5043641421	-0.8975580285	-1.5816683285	 0.086286
H	-0.9538230884	-1.7704281152	-2.1639405964	 0.066285
H	-1.7873162067	-3.5439275268	-0.5146243859	 0.094358
H	-0.0510881011	-3.802015741	-0.2063356103	 0.089738
H	-1.7258865936	-2.3426544566	 1.7277714906	 0.064488
H	 0.3435071116	-1.2360525618	 2.4721507884	 0.098409
H	 1.0315582363	-2.6340222046	 1.6278243439	 0.101983
H	-2.286443339	-0.4875201914	-0.1227973168	 0.064248
187.6052	208.3471	242.3286	324.4449	410.1454	518.4221	553.3749	647.8955	665.388	723.9751	797.2727	818.8003	835.8525	850.9903	864.104	897.8503	919.598	957.8147	964.7208	997.2396	1005.0227	1033.5271	1053.6696	1086.5466	1108.3543	1120.2507	1145.9705	1160.8565	1197.7723	1200.8741	1232.3943	1244.0969	1265.8464	1272.4353	1305.6143	1316.1964	1346.4469	1402.3895	1442.2731	1484.0005	1488.2745	1493.5933	1503.7496	3025.3941	3032.5113	3036.826	3078.3019	3084.7211	3086.5986	3093.2537	3096.3742	3114.8777	3142.7607	3158.2111
CC12C3C4CC(CN13)C24	C[C@@]12[C@@H]3[C@H]4C[C@@H](CN13)[C@@H]24	
InChI=1S/C8H11N/c1-8-6-4-2-5(6)7(8)9(8)3-4/h4-7H,2-3H2,1H3	InChI=1S/C8H11N/c1-8-6-4-2-5(6)7(8)9(8)3-4/h4-7H,2-3H2,1H3/t4-,5-,6+,7-,8+,9?/m0/s1
