19
gdb 81649	2.93863	1.60228	1.31755	1.6691	81.99	-0.2188	-0.046	0.1728	1037.8985	0.161249	-385.880002	-385.872535	-385.871591	-385.911455	30.217	
C	-0.0644216892	 1.5471741972	 0.0061006749	-0.416271
C	-0.0452220305	 0.0256106723	-0.0019619437	-0.014957
C	 1.0995122842	-0.5858955768	-0.8561229529	 0.034755
O	 1.9333944629	-0.6678541234	 0.333562677	-0.284769
C	 0.7494355805	-0.6010747564	 1.1769074202	 0.034755
C	 0.2897599032	-1.9750568741	 1.5980016414	-0.075769
C	 0.1757532594	-3.0145990578	 0.7569254655	-0.076118
C	 0.424409484	-3.003813638	-0.6872368466	-0.07612
C	 0.8105478409	-1.9524714914	-1.426582147	-0.075769
H	 0.9399311103	 1.9460404359	 0.1819858016	 0.131155
H	-0.4235383122	 1.9411128336	-0.9509329097	 0.115508
H	-0.723861284	 1.9280784125	 0.7935764698	 0.115509
H	-1.0402523918	-0.3890891022	-0.1764001554	 0.082092
H	 1.5532773192	 0.0715239261	-1.6051680863	 0.069632
H	 0.924904996	 0.0442885308	 2.0440221951	 0.069632
H	 0.0561311649	-2.1187053633	 2.6493669606	 0.091732
H	-0.1448108037	-3.9687404825	 1.1674299912	 0.091636
H	 0.2619594221	-3.9510929253	-1.1951077808	 0.091636
H	 0.942316234	-2.0802642973	-2.497513055	 0.091732
159.2242	217.4689	247.8866	269.7698	277.6137	383.7924	454.1561	456.0236	598.4168	660.6298	692.5137	787.7847	817.1422	839.3566	886.532	892.8545	900.9773	953.7663	954.6009	986.2086	995.6759	1013.8223	1059.3404	1079.1014	1093.3258	1124.5887	1213.4678	1237.4884	1242.9808	1252.12	1280.9321	1338.8427	1344.1912	1395.254	1405.2628	1405.7797	1444.8646	1494.0806	1499.8019	1658.666	1699.6589	3027.5335	3049.9002	3053.6156	3082.2514	3093.6742	3108.0947	3145.4842	3154.9971	3169.9403	3178.6058
CC1C2OC1C=CC=C2	C[C@H]1[C@H]2O[C@@H]1C=CC=C2	
InChI=1S/C8H10O/c1-6-7-4-2-3-5-8(6)9-7/h2-8H,1H3	InChI=1S/C8H10O/c1-6-7-4-2-3-5-8(6)9-7/h2-8H,1H3/t6-,7-,8+
