16
gdb 126855	2.85854	1.55904	1.09459	0.2761	74.53	-0.2557	-0.0774	0.1783	1086.5541	0.125287	-434.078528	-434.070671	-434.069726	-434.111304	29.018	
C	-0.0011817179	 1.531365131	-0.0824133485	-0.386951
C	-0.0377469081	 0.011313375	 0.0738224318	-0.130056
N	-1.406868282	-0.5194744746	 0.0211086835	-0.071242
N	-1.9557464121	-0.7885064969	 1.2134114028	-0.054668
N	-3.1478754172	-1.2440278573	 1.2858557059	-0.222938
C	-3.8512028041	-1.4553255536	 0.122657738	 0.062036
C	-3.3588129104	-1.2103181601	-1.1148315934	-0.243981
C	-2.0230733189	-0.6825154169	-1.2464123981	 0.471504
O	-1.4307485267	-0.3907108951	-2.2689779609	-0.39588
H	 1.0341758492	 1.8797144998	-0.0261138836	 0.127666
H	-0.4116794165	 1.826983152	-1.0501299775	 0.153381
H	-0.5713493735	 2.0174815753	 0.7143939148	 0.132234
H	 0.5181249209	-0.4690313636	-0.7338049678	 0.145795
H	 0.3679843056	-0.3015601319	 1.036703033	 0.13576
H	-4.8520565935	-1.8443567219	 0.2776190646	 0.140012
H	-3.9268426649	-1.3863081112	-2.0199385447	 0.137329
74.8288	114.2642	181.2998	227.9824	318.298	347.7848	434.473	493.6477	561.6633	586.8314	626.7071	724.8628	781.5487	792.5607	877.7943	897.5447	984.7293	1003.4714	1017.6384	1073.6794	1107.6722	1169.4693	1196.0935	1228.405	1290.1876	1353.6939	1389.884	1407.98	1428.4488	1459.7047	1483.9718	1492.0571	1507.5637	1619.5431	1785.3653	3049.5163	3085.4445	3120.7535	3133.07	3152.8741	3191.3947	3220.1258
CCN1N=NC=CC1=O	CCN1[N]N=C[CH]C1=O	
InChI=1S/C5H7N3O/c1-2-8-5(9)3-4-6-7-8/h3-4H,2H2,1H3	InChI=1S/C5H7N3O/c1-2-8-5(9)3-4-6-7-8/h3-4H,2H2,1H3
