17
gdb 45197	3.35494	1.58516	1.3326	3.7821	72.72	-0.2494	-0.0306	0.2188	968.0268	0.137161	-421.771895	-421.765181	-421.764236	-421.802843	27.637	
O	 0.0096819731	-0.0229641841	 0.1538743198	-0.285349
C	-0.0278227144	 1.1637640073	 0.0680904435	 0.30364
C	-1.1835951417	 2.2172175213	-0.1997031492	-0.396315
C	-0.0795916934	 3.0900052749	-0.8723204637	-0.004575
C	 0.5086817918	 4.5168524156	-0.6951870212	-0.288951
C	 1.7823652906	 4.0756535831	 0.1111824775	 0.05401
C	 1.1460172852	 3.240793059	 1.2266936377	-0.262425
C	 0.9541641083	 2.338268645	-0.0262445641	 0.321877
O	 2.2406658613	 2.8018928851	-0.5051025662	-0.360802
H	-1.9850843317	 1.8454347128	-0.8390695768	 0.134479
H	-1.608240993	 2.611720616	 0.7257311728	 0.131905
H	 0.0098431994	 2.7718270724	-1.9135174415	 0.102498
H	 0.7465907371	 4.9741775597	-1.6571890716	 0.115184
H	-0.0928886196	 5.2219207487	-0.1154063672	 0.112435
H	 2.5921245107	 4.7869904646	 0.2699036013	 0.091895
H	 1.8811410913	 2.8016789232	 1.9006383099	 0.126378
H	 0.278098445	 3.6303384254	 1.762825609	 0.104116
123.3481	249.2019	262.9776	403.1737	427.6075	518.1088	551.1796	605.3045	636.1147	655.8236	748.3991	801.799	832.5608	865.7076	885.1816	909.0455	964.9764	975.616	1004.6665	1025.1597	1056.5657	1080.4143	1101.2531	1130.0287	1171.0674	1183.9186	1184.345	1211.4687	1237.4759	1260.8876	1276.8844	1298.331	1376.5587	1453.8277	1477.7286	1496.1641	1898.4286	3069.5847	3074.2325	3078.6292	3084.115	3124.6763	3133.3197	3145.373	3155.3645
O=C1CC2CC3CC12O3	O=C1C[C@H]2C[C@H]3C[C@@]12O3	
InChI=1S/C7H8O2/c8-6-2-4-1-5-3-7(4,6)9-5/h4-5H,1-3H2	InChI=1S/C7H8O2/c8-6-2-4-1-5-3-7(4,6)9-5/h4-5H,1-3H2/t4-,5+,7+/m1/s1
