18
gdb 67898	2.46253	1.93441	1.3788	3.7678	75.17	-0.2378	-0.0053	0.2325	978.1378	0.147538	-401.917355	-401.909786	-401.908842	-401.948995	30.367	
C	 0.0159446632	 1.5272556917	-0.0299308256	-0.463569
C	-0.0315571783	 0.0163526144	-0.0624702227	 0.353187
C	-1.4228736746	-0.672396166	 0.0132862238	-0.449066
C	-0.8307118306	-1.4502510703	 1.2128879316	 0.388792
O	-1.1659056708	-2.3858740025	 1.875985837	-0.31429
N	 0.3845787344	-0.6932754875	 1.2006445341	-0.174103
C	 1.5795488437	-1.2706784664	 0.5261637697	-0.018637
C	 1.2067686501	-2.1441016422	-0.6344321117	-0.312142
C	 1.1545188187	-0.6462182375	-0.8046730626	-0.117476
H	 1.0301753343	 1.8793468828	 0.1830212405	 0.12753
H	-0.2922837914	 1.9409216853	-0.9970277342	 0.121546
H	-0.6516500623	 1.9209172438	 0.742253647	 0.125488
H	-2.258021131	-0.0070548292	 0.2459499778	 0.132713
H	-1.7058485029	-1.3232652925	-0.8169446849	 0.13793
H	 2.5371673396	-1.3012670309	 1.0296536938	 0.109842
H	 2.0504537658	-2.6123120878	-1.1321674113	 0.122871
H	 0.31550588	-2.7633092328	-0.6097414537	 0.133281
H	 1.7651158222	-0.1323060023	-1.5368358586	 0.096103
119.2237	223.9109	225.3513	264.8525	318.5438	355.0816	484.6057	498.5596	559.073	589.1348	664.3198	755.6871	769.0193	854.0335	879.6529	895.3951	939.0006	951.4177	960.7008	982.645	1008.0495	1049.2133	1060.5303	1079.0064	1088.2578	1127.4862	1162.6162	1184.0135	1198.3504	1238.5885	1261.0764	1295.0296	1343.7625	1410.7932	1440.6073	1483.6102	1491.7512	1494.6319	1891.7855	3031.2893	3072.5376	3100.3379	3112.6354	3126.3402	3129.7926	3185.3916	3194.5971	3209.3777
CC12CC(=O)N1C1CC21	C[C@]12CC(=O)N1[C@H]1C[C@@H]21	
InChI=1S/C7H9NO/c1-7-3-6(9)8(7)5-2-4(5)7/h4-5H,2-3H2,1H3	InChI=1S/C7H9NO/c1-7-3-6(9)8(7)5-2-4(5)7/h4-5H,2-3H2,1H3/t4-,5+,7-/m1/s1
