19
gdb 97209	2.33733	1.63434	1.06462	2.1734	79.21	-0.2369	0.0202	0.2571	1163.9867	0.160622	-419.201965	-419.193268	-419.192324	-419.236173	31.668	
C	-0.1883388109	 1.3754572908	-0.0659067926	-0.335438
N	-0.1722020327	-0.0744476582	-0.1569143998	-0.354741
C	 0.6080524831	-0.6540453522	-0.9588154227	 0.409146
O	 1.4697056136	-0.0539773776	-1.8306237651	-0.257362
C	 2.2428349634	-1.0535518097	-2.5279478039	-0.092114
C	 1.440623904	-2.3593597518	-2.4221978732	-0.32096
C	 0.6908407497	-2.1394338186	-1.1222532576	 0.242288
C	 0.7699624259	-2.9916122653	 0.0976369035	-0.278155
N	-0.4447610974	-2.9642491713	-0.726292385	-0.362869
H	 0.580967854	 1.870240755	-0.6691882643	 0.124278
H	-1.1706102734	 1.7477449793	-0.3803103889	 0.125544
H	-0.0595746418	 1.6710649088	 0.9813780755	 0.12337
H	 2.3868259505	-0.7016303566	-3.5512513769	 0.124266
H	 3.2227474404	-1.1367411532	-2.0427414144	 0.115849
H	 0.730759302	-2.4507726975	-3.2505111775	 0.126323
H	 2.0795352427	-3.2441722012	-2.4184852391	 0.117389
H	 1.3317221007	-3.9216467073	 0.0592360847	 0.117457
H	 0.7563335513	-2.4847854371	 1.0581355864	 0.129437
H	-1.1235112751	-2.3415425464	-0.2852928592	 0.246293
40.2814	99.595	155.3662	183.7822	201.4053	304.1741	311.4632	382.7461	502.2379	554.6974	666.284	721.4682	730.3308	824.4521	877.4557	917.3938	953.2823	978.7445	1002.7	1026.6755	1048.2671	1096.9079	1109.4815	1120.7568	1134.7602	1148.8905	1194.9372	1208.2976	1240.7555	1293.3948	1308.7525	1347.0869	1381.5733	1421.8447	1440.5261	1489.9251	1494.9712	1496.9983	1499.8835	1524.365	1800.3655	3016.401	3034.8646	3058.6977	3074.1279	3088.5015	3105.4546	3109.7454	3121.9414	3201.3123	3456.5515
CN=C1OCCC11CN1	CN=C1OCC[C@]21CN2	
InChI=1S/C6H10N2O/c1-7-5-6(4-8-6)2-3-9-5/h8H,2-4H2,1H3	InChI=1S/C6H10N2O/c1-7-5-6(4-8-6)2-3-9-5/h8H,2-4H2,1H3/t6-/m1/s1
