19
gdb 95324	2.6789	1.76723	1.52418	2.5625	68.67	-0.2434	0.0731	0.3165	948.1185	0.162746	-460.178389	-460.171288	-460.170344	-460.209564	29.26	
O	 0.0321247039	 1.4188264854	-0.0901038283	-0.444656
C	 0.0764339381	 0.0075153244	-0.0018185877	 0.133241
C	 0.7983794585	-0.4593926289	 1.2746528121	-0.118109
O	-0.0212788743	-0.2881072352	 2.4331185252	-0.265891
C	-1.3446872493	-0.7377713078	 2.2438147805	 0.1938
C	-1.4360160068	-2.2057732972	 1.7741249091	-0.256098
C	-1.4312526688	-2.0791304768	 0.2272696011	-0.245682
C	-1.3570504573	-0.5537758517	 0.0138436643	 0.050077
O	-1.9709734283	-0.0073709448	 1.1993697568	-0.268961
H	-0.5824228863	 1.7026478607	 0.5994378925	 0.289315
H	 0.6266848893	-0.3452147783	-0.8812940773	 0.084768
H	 1.1120110568	-1.5096996584	 1.1763448244	 0.089907
H	 1.6899970758	 0.1501808313	 1.4360080404	 0.122932
H	-1.8698526535	-0.5200523481	 3.1746198661	 0.093585
H	-0.613072468	-2.8036195651	 2.170781666	 0.11764
H	-2.3702497223	-2.6429174181	 2.1324554913	 0.114314
H	-0.5916736006	-2.6013272376	-0.2396446815	 0.10855
H	-2.3504246233	-2.4775639409	-0.2071838103	 0.113605
H	-1.917535434	-0.1882702831	-0.8483221649	 0.087663
163.2123	196.6986	250.3015	372.3224	385.8509	438.9881	443.115	513.1393	562.8643	686.359	782.5831	792.0763	809.4288	834.2441	867.0538	916.6475	942.087	963.5441	975.1611	1009.6091	1027.819	1046.5093	1071.7251	1108.9061	1149.6876	1184.0348	1242.3611	1248.7499	1263.3474	1284.3147	1302.5512	1319.6657	1327.2071	1344.5511	1366.7685	1388.1036	1408.5921	1437.5886	1482.5882	1492.5112	1509.7411	2992.2598	3056.2697	3065.535	3078.4661	3099.0591	3107.3213	3108.8255	3116.9512	3129.1106	3771.0426
OC1COC2CCC1O2	O[C@H]1CO[C@@H]2CC[C@H]1O2	
InChI=1S/C6H10O3/c7-4-3-8-6-2-1-5(4)9-6/h4-7H,1-3H2	InChI=1S/C6H10O3/c7-4-3-8-6-2-1-5(4)9-6/h4-7H,1-3H2/t4-,5+,6-/m0/s1
