20
gdb 92300	2.26143	1.86703	1.21914	2.9797	79.37	-0.2528	0.0246	0.2774	1074.9041	0.172878	-403.165851	-403.157746	-403.156802	-403.198729	31.342	
C	-0.0447057034	 1.6021156077	-0.0912870578	-0.400287
C	 0.0333173508	 0.0885117848	 0.0131896046	 0.041714
C	 0.9707146336	-0.6945003236	-0.9517516135	-0.25869
C	 1.4294123694	-1.5914384178	 0.2338842242	-0.027308
C	 2.912150645	-1.568672426	 0.588233517	-0.109977
O	 3.1296142238	-0.3258352945	 1.279572022	-0.245194
C	 1.9548912125	 0.1802192356	 1.7720993603	 0.409553
N	 1.8857176558	 1.159566326	 2.5681758996	-0.542887
C	 0.7736517424	-0.5843882339	 1.2195179039	-0.13431
H	 0.9492090767	 2.0574512058	-0.0604222751	 0.124318
H	-0.5250843521	 1.894701198	-1.031809285	 0.107228
H	-0.6224830908	 2.0277827136	 0.7347739415	 0.129967
H	-0.975011966	-0.3361117552	-0.0339769475	 0.077364
H	 0.5002127147	-1.1998274291	-1.7980020469	 0.10111
H	 1.7865844281	-0.0704743638	-1.33196749	 0.106292
H	 1.0118581451	-2.598562412	 0.22169769	 0.079629
H	 3.1901118177	-2.3945694468	 1.2553555235	 0.109167
H	 3.5732975748	-1.5849803248	-0.2833408376	 0.116873
H	 2.8218937153	 1.4950890495	 2.8032413738	 0.218857
H	 0.1426773565	-0.9460404036	 2.0323370031	 0.096581
65.5389	144.3618	167.7973	196.0818	317.8137	352.9451	395.6209	468.3072	550.1811	666.3325	694.9781	720.1581	791.5407	824.586	881.3199	895.118	907.5285	926.4833	942.6972	976.6112	1000.7047	1027.2658	1086.9241	1116.631	1132.0368	1146.1146	1153.8838	1209.6572	1227.0795	1250.4593	1257.3848	1267.4053	1284.4565	1327.0191	1334.5082	1374.6313	1404.8532	1415.2645	1485.5399	1489.1334	1491.6446	1517.6358	1763.6541	3022.387	3033.3773	3044.003	3049.909	3084.7676	3098.1322	3101.1464	3104.3471	3113.4168	3117.7626	3465.3528
CC1CC2COC(=N)C12	C[C@H]1C[C@H]2CO[C]([NH])[C@@H]12	
InChI=1S/C7H11NO/c1-4-2-5-3-9-7(8)6(4)5/h4-6,8H,2-3H2,1H3	InChI=1S/C7H11NO/c1-4-2-5-3-9-7(8)6(4)5/h4-6,8H,2-3H2,1H3/t4-,5-,6-/m0/s1
