19
gdb 116094	2.20121	1.5884	1.13268	3.6516	71.46	-0.2582	0.0155	0.2736	1141.1416	0.159795	-460.207263	-460.198442	-460.197497	-460.241727	31.966	
C	-0.6448533036	 1.01265263	-0.4267738438	-0.251068
O	-0.2919110105	-0.3547964122	-0.587697084	-0.235899
C	 1.023998707	-0.5595481553	-1.009261054	 0.211495
C	 1.3341508171	-2.0576841581	-0.9185086685	-0.236091
C	 0.9566870184	-2.8189464369	-2.2082261241	-0.216507
C	-0.0010434782	-1.9914759292	-3.0799833182	-0.336703
C	 0.6134706817	-0.6418166784	-3.3852368881	 0.419445
O	 0.6255314894	-0.1078500275	-4.4583381818	-0.324827
O	 1.2334646353	-0.0291830296	-2.3289032509	-0.244832
H	 0.0159798563	 1.5048998324	 0.3011443145	 0.113869
H	-0.594235479	 1.5590182081	-1.3747258832	 0.140068
H	-1.6689234875	 1.0304620461	-0.0496480613	 0.132986
H	 1.7124011639	 0.0350384199	-0.3942584787	 0.086224
H	 2.3988467942	-2.1800200954	-0.7039345868	 0.115052
H	 0.7834176724	-2.4379968472	-0.0547108209	 0.125832
H	 1.8594528807	-3.0344623673	-2.7888894147	 0.118802
H	 0.5041250454	-3.7843695668	-1.9673610381	 0.112456
H	-0.2225702722	-2.4773518903	-4.0312473624	 0.125753
H	-0.9430513907	-1.8261201024	-2.546946295	 0.143945
39.7293	91.8697	129.6649	178.4028	216.1106	272.5469	377.4405	406.5009	461.5514	495.2478	596.4138	678.789	736.9883	786.3839	820.0878	878.2851	937.5138	956.1371	973.4874	1044.3933	1084.0959	1105.2243	1144.8949	1147.5657	1181.1377	1197.9181	1221.8483	1259.4972	1286.8063	1346.5918	1358.4063	1368.236	1397.4534	1417.5841	1464.1341	1478.8972	1482.0531	1486.1519	1508.1852	1511.3882	1860.996	3002.0855	3019.5085	3049.9439	3062.9439	3070.0674	3077.7861	3091.2474	3116.4125	3130.5699	3134.7989
COC1CCCC(=O)O1	CO[C@H]1CCCC(=O)O1	
InChI=1S/C6H10O3/c1-8-6-4-2-3-5(7)9-6/h6H,2-4H2,1H3	InChI=1S/C6H10O3/c1-8-6-4-2-3-5(7)9-6/h6H,2-4H2,1H3/t6-/m1/s1
