19
gdb 116388	2.45357	1.47004	1.0811	3.2295	71.51	-0.2644	0.003	0.2674	1165.1127	0.159944	-460.20204	-460.193339	-460.192395	-460.235944	31.812	
C	 0.0921082824	 1.6020482808	 0.0614825393	-0.390057
C	 0.0229972947	 0.0755250664	-0.0137476751	-0.177136
C	 0.6755504085	-0.5421442989	-1.2776695935	-0.1229
C	 0.7160854698	-2.0708134787	-1.1881212084	-0.126391
O	-0.598854563	-2.5854943749	-1.3695431381	-0.219733
C	-1.033859608	-2.3268127692	-2.6565312787	 0.022601
O	-1.0454052576	-0.9324359454	-2.9999209847	-0.234558
C	-0.0871747061	-0.0926378479	-2.5215987947	 0.406615
O	 0.0580517252	 0.9821766425	-3.0365322124	-0.321403
H	 1.1310228801	 1.9490279054	 0.0663726114	 0.115963
H	-0.4054733554	 2.0714874499	-0.7898057254	 0.148578
H	-0.3844058828	 1.9582419107	 0.9798971521	 0.112016
H	 0.5363343485	-0.3565516778	 0.8546420149	 0.098793
H	-1.0164688265	-0.2652251128	 0.0458379814	 0.119031
H	 1.6915879888	-0.1464908065	-1.3786652065	 0.106449
H	 1.3897791467	-2.4967583451	-1.9487271193	 0.102311
H	 1.0544520297	-2.4040305779	-0.2038926823	 0.119893
H	-0.4011205521	-2.8383856802	-3.4000433158	 0.104612
H	-2.0676413429	-2.6657330105	-2.7394560242	 0.135318
65.8272	96.2844	134.0662	201.7257	235.2694	272.0621	353.7816	414.4791	433.4437	496.371	595.2188	719.236	732.5625	785.0514	835.3309	858.5035	944.529	1000.418	1021.8105	1041.2315	1052.5172	1077.0034	1124.8036	1143.4441	1179.9553	1250.331	1261.7612	1276.7509	1295.6814	1323.4243	1351.2339	1367.4714	1407.9278	1421.6347	1458.5102	1490.1732	1497.0294	1501.8601	1507.6658	1524.1803	1840.1638	2973.8409	2983.009	3025.1917	3040.7152	3059.1586	3075.9559	3097.6717	3105.0037	3122.5442	3133.5725
CCC1COCOC1=O	CC[C@H]1COCOC1=O	
InChI=1S/C6H10O3/c1-2-5-3-8-4-9-6(5)7/h5H,2-4H2,1H3	InChI=1S/C6H10O3/c1-2-5-3-8-4-9-6(5)7/h5H,2-4H2,1H3/t5-/m0/s1
