20
gdb 78553	3.15002	1.23482	1.02795	2.249	80.33	-0.23	0.072	0.302	1223.4562	0.170069	-403.087092	-403.07827	-403.077326	-403.120062	34.422	
C	-0.0833938322	 1.4339323246	-0.005311856	-0.430941
C	 0.0590476349	-0.0727115959	-0.053518625	-0.069797
C	 0.7692952888	-0.6715610127	-1.2596707275	-0.226643
C	 1.4398777755	-0.6545280409	 0.1105115463	 0.388736
O	 2.5348152181	 0.1058619902	 0.4832842817	-0.458981
C	 1.3946129566	-2.1911592544	 0.1869054611	-0.376914
C	 0.6910558629	-2.1826619822	-1.1872523289	 0.381922
C	-0.340345711	-3.0762286068	-1.7554253092	-0.311096
N	 1.059590207	-3.1134521597	-2.2464321482	-0.375424
H	 0.8066850228	 1.9272030269	-0.4047212255	 0.131843
H	-0.9499905254	 1.7660594742	-0.5862875299	 0.118579
H	-0.2223541236	 1.784577013	 1.0238979499	 0.111634
H	-0.7878916383	-0.6234789843	 0.3568970815	 0.076546
H	 0.9823199684	-0.0804478463	-2.1439446875	 0.088669
H	 2.4434110177	 0.3347917291	 1.4152852275	 0.286086
H	 2.3906046505	-2.6328164198	 0.1061267798	 0.122613
H	 0.858808018	-2.6331200294	 1.0339760114	 0.089936
H	-0.6528493379	-3.9693502333	-1.2205649185	 0.116176
H	-1.1062133631	-2.6373136439	-2.3906306202	 0.108745
H	 1.1267752303	-2.6222652382	-3.1354999329	 0.228309
109.326	178.4633	194.9048	209.1684	253.7734	268.0801	331.1278	385.8549	414.2916	438.3704	474.8944	582.9923	688.2684	767.5921	814.5612	835.0393	896.4241	925.6345	952.2541	966.1465	968.1286	996.2341	1027.0425	1045.9136	1078.6404	1104.4443	1110.8624	1141.1475	1150.2631	1197.9475	1206.9214	1236.8594	1262.1677	1284.3951	1307.7456	1364.521	1412.2538	1422.1616	1434.4771	1483.1256	1493.7948	1506.5085	1515.0392	3030.7978	3041.4836	3087.3279	3090.4674	3100.4516	3114.4246	3119.8394	3172.0399	3184.8059	3486.0863	3786.3303
CC1C2C1(O)CC21CN1	C[C@H]1[C@H]2[C@]1(O)C[C@]12CN1	
InChI=1S/C7H11NO/c1-4-5-6(3-8-6)2-7(4,5)9/h4-5,8-9H,2-3H2,1H3	InChI=1S/C7H11NO/c1-4-5-6(3-8-6)2-7(4,5)9/h4-5,8-9H,2-3H2,1H3/t4-,5+,6+,7-/m0/s1
