18
gdb 105403	2.32295	1.22788	1.03372	3.0026	70.89	-0.253	0.0231	0.2761	1229.4031	0.145249	-476.184498	-476.174823	-476.173879	-476.219225	35.174	
O	 0.3584487218	 0.9864844281	 0.5780111914	-0.418135
C	-0.2211109513	 0.3068425204	-0.5226574957	-0.131971
C	-1.4261077958	-0.5209459292	-0.1163759851	 0.362094
C	-1.9787676562	-1.5425027872	-1.0727317704	-0.379182
C	-1.300447808	-1.9852172324	 0.2070168517	 0.041971
O	-0.0227207308	-2.5416994478	 0.1674733494	-0.414105
O	-2.4004244887	 0.2209002459	 0.5842580381	-0.235125
C	-2.181046922	 0.4091108876	 1.9108591677	 0.092738
N	-2.8736045436	 1.2604455416	 2.5344803716	-0.448882
H	-0.1759644149	 1.7667416324	 0.7576013022	 0.2989
H	-0.5194012572	 1.0104066365	-1.3124019645	 0.10297
H	 0.5439986409	-0.3611255539	-0.9251383581	 0.129641
H	-3.0570554456	-1.6308042154	-1.136844551	 0.134485
H	-1.4375186377	-1.6858563248	-2.00241735	 0.120853
H	-1.9513405946	-2.3624594084	 0.9955807406	 0.103312
H	-0.0869563737	-3.411302192	-0.2415124189	 0.294389
H	-1.3981562971	-0.2377453904	 2.3187520869	 0.116325
H	-2.6161052155	 1.255565449	 3.519622984	 0.229722
70.0421	90.8447	134.3593	181.8167	204.7486	248.3558	299.2266	319.3144	375.9876	394.908	443.7485	465.3969	527.8449	617.7396	796.3171	828.3183	837.9633	900.2614	922.2218	1001.1981	1032.7746	1039.6984	1044.7932	1075.2932	1080.2421	1105.7628	1176.8665	1210.0289	1263.4476	1284.6388	1302.3722	1320.8364	1398.3066	1410.113	1412.9637	1419.8845	1480.4206	1489.3773	1735.6065	3009.4963	3078.1846	3106.0222	3111.502	3134.7875	3231.2476	3513.1248	3805.0553	3823.5129
OCC1(CC1O)OC=N	OC[C@]1(C[C@H]1O)O[CH][NH]	
InChI=1S/C5H9NO3/c6-3-9-5(2-7)1-4(5)8/h3-4,6-8H,1-2H2	InChI=1S/C5H9NO3/c6-3-9-5(2-7)1-4(5)8/h3-4,6-8H,1-2H2/t4-,5+/m1/s1
