19
gdb 73579	2.39792	2.02513	1.53003	1.4711	73.46	-0.2524	0.0828	0.3352	949.4198	0.16013	-422.999189	-422.991691	-422.990747	-423.030765	30.082	
C	-0.0631180927	 1.4831468789	-0.0200232796	-0.46347
C	 0.0181578637	-0.030296233	-0.0123791796	 0.391146
O	-1.2056299283	-0.6308440537	-0.4465939698	-0.298704
C	-1.7931459301	-1.1819690024	 0.71392532	 0.009865
O	-0.7472338005	-1.6414775841	 1.5496718235	-0.267437
C	 0.3301029077	-0.7443735509	 1.3314250313	 0.034348
C	 1.6153549894	-1.3243490571	 0.7270543812	-0.069343
C	 1.3036174147	-2.1236924718	-0.5029068917	-0.300224
C	 1.3046163303	-0.6304117238	-0.6128287137	-0.097478
H	 0.8614618749	 1.9226765531	 0.367861277	 0.11998
H	-0.2148815464	 1.850269613	-1.0399801018	 0.129399
H	-0.8973805316	 1.8313562044	 0.597098313	 0.120082
H	-2.3986079278	-0.422418245	 1.2408515182	 0.084884
H	-2.4228391385	-2.0301031522	 0.4294886321	 0.118126
H	 0.4875736207	-0.0876650631	 2.1939327399	 0.074691
H	 2.5600701046	-1.4003437064	 1.2495660001	 0.08772
H	 2.1581199883	-2.6164319955	-0.9545062843	 0.113028
H	 0.37155532	-2.6734403657	-0.5731554586	 0.128428
H	 1.9770020217	-0.0903533946	-1.2680578474	 0.08496
142.1668	187.6899	231.7794	259.3551	282.5039	360.2635	465.9954	538.7504	628.0927	636.677	719.6112	778.9216	830.2365	837.6259	909.9467	924.279	950.0615	975.6856	986.4876	1001.3686	1015.3114	1049.3751	1057.5417	1080.0925	1097.6871	1150.2929	1164.1145	1181.5753	1211.0657	1221.6338	1239.6664	1255.5147	1310.3867	1344.2955	1367.4356	1407.3516	1423.8318	1484.6917	1486.3961	1492.1496	1541.6581	2936.5935	3033.6645	3047.822	3084.6657	3107.8751	3108.8581	3136.4627	3184.024	3197.1917	3222.2644
CC12OCOC1C1CC21	C[C@]12OCO[C@H]1[C@H]1C[C@@H]21	
InChI=1S/C7H10O2/c1-7-5-2-4(5)6(7)8-3-9-7/h4-6H,2-3H2,1H3	InChI=1S/C7H10O2/c1-7-5-2-4(5)6(7)8-3-9-7/h4-6H,2-3H2,1H3/t4-,5+,6-,7+/m0/s1
