17
gdb 34279	3.50226	1.48819	1.34318	1.7835	78.82	-0.2419	-0.0007	0.2412	991.6031	0.136735	-384.648935	-384.641797	-384.640853	-384.68009	29.501	
C	 0.0937459988	-1.1657210699	 0.0070487431	-0.321387
C	 0.0323195485	 0.0337762506	 0.013591676	 0.100957
C	-0.0868004836	 1.4749815718	 0.0165523286	 0.302595
C	-0.7129259739	 2.1692674428	 1.2470839546	-0.252879
C	-0.4782873893	 3.5708368943	 0.6324734879	-0.135424
C	 1.0582860688	 3.4537678875	 0.3878194248	-0.070092
O	 1.2470248254	 2.0919558635	-0.010031086	-0.315589
C	-1.1145003423	 3.3853803725	-0.7340921874	-0.091572
C	-0.8826361942	 2.1257998736	-1.1155750727	-0.119965
H	 0.1549079741	-2.2258332752	 0.0023590614	 0.185175
H	-1.7674341335	 1.9294155779	 1.3828871931	 0.113411
H	-0.1472705644	 1.9719493769	 2.1610194555	 0.1095
H	-0.782460811	 4.4405319632	 1.2132604715	 0.074575
H	 1.4102620882	 4.1279494212	-0.4009789463	 0.100902
H	 1.6268494792	 3.6481623818	 1.3058729085	 0.101873
H	-1.5572243797	 4.1792434822	-1.322222347	 0.104961
H	-1.0826174612	 1.6530593553	-2.0671489557	 0.112958
146.47	155.9036	289.7896	393.7114	449.4194	474.3608	535.5415	540.624	541.7434	627.2622	669.5237	679.4835	742.9727	799.4189	813.5713	865.4609	888.9994	926.145	936.136	951.6514	983.1516	1027.3039	1056.2821	1085.1393	1098.8186	1151.8751	1184.1053	1207.7368	1251.969	1275.7914	1293.6904	1340.652	1363.9472	1486.0274	1521.422	1634.7836	2250.2525	3017.8567	3063.5821	3075.1616	3127.8403	3146.2067	3206.849	3237.9299	3503.3615
C#CC12CC(CO1)C=C2	C#C[C@@]12C[C@@H](CO1)C=C2	
InChI=1S/C8H8O/c1-2-8-4-3-7(5-8)6-9-8/h1,3-4,7H,5-6H2	InChI=1S/C8H8O/c1-2-8-4-3-7(5-8)6-9-8/h1,3-4,7H,5-6H2/t7-,8+/m0/s1
