17
gdb 29192	3.02881	1.40554	0.97155	5.9545	79.54	-0.2261	-0.0469	0.1792	1184.4928	0.136936	-418.090355	-418.08203	-418.081086	-418.123213	31.22	
C	-0.0332890962	 1.558173153	-0.0129455561	-0.502935
C	-0.0083120263	 0.0540631302	-0.012624403	 0.190086
C	-0.0291147514	-0.6665082947	-1.1672869378	-0.020435
N	-0.005727268	-2.0189046364	-1.1347215498	-0.343528
C	 0.0409117115	-2.7767537466	 0.0585429991	 0.431387
O	 0.0585451145	-3.9871272851	-0.0038764258	-0.387883
N	 0.0615292795	-2.0371735974	 1.2291649892	-0.374164
C	 0.0389276665	-0.7292319548	 1.197490283	 0.2677
C	 0.0648499101	-0.0231430741	 2.5280653193	-0.478205
H	 0.8539929404	 1.9834633518	 0.4701583359	 0.135123
H	-0.0685070361	 1.9447237521	-1.0355284924	 0.123492
H	-0.9055971158	 1.9542599876	 0.5197163007	 0.135126
H	-0.0646535233	-0.2065463995	-2.1495923564	 0.132782
H	-0.0209270415	-2.5626700991	-1.9856271616	 0.267789
H	 0.0995133188	-0.7598000612	 3.330078254	 0.15298
H	 0.9361813382	 0.6378091355	 2.6032802608	 0.135351
H	-0.8219810209	 0.6090667187	 2.6528209009	 0.135333
89.4243	149.2678	191.0093	218.0041	292.6803	295.9598	350.2622	419.874	484.4254	535.5894	572.3825	618.9344	710.0395	725.9974	781.4932	808.2624	905.4601	924.6208	1015.9173	1037.6813	1046.1742	1076.8382	1139.1897	1172.696	1230.1817	1321.162	1390.4681	1415.9772	1427.8963	1452.3121	1475.4012	1478.3019	1490.7882	1501.6795	1562.2768	1698.7982	1810.2934	3026.2043	3033.9191	3076.2147	3086.2508	3107.2007	3159.7275	3186.4142	3614.432
CC1=CNC(=O)N=C1C	Cc1c[nH]c(=O)nc1C	
InChI=1S/C6H8N2O/c1-4-3-7-6(9)8-5(4)2/h3H,1-2H3,(H,7,8,9)	InChI=1S/C6H8N2O/c1-4-3-7-6(9)8-5(4)2/h3H,1-2H3,(H,7,8,9)
