17
gdb 57578	3.18792	0.77987	0.72961	2.0907	92.95	-0.245	-0.0438	0.2012	1593.4909	0.131204	-384.651637	-384.641316	-384.640372	-384.687242	36.749	
C	 0.0052736709	 1.6159320794	-0.0031376539	-0.403352
C	 0.0139750383	 0.0782122165	-0.0555414659	-0.075503
C	 0.6454052791	-0.5258341776	 1.227503414	-0.413907
C	-1.4268722897	-0.4694865639	-0.1420702374	 0.162126
O	-2.4149198705	 0.2067628921	-0.0656781588	-0.239875
C	 0.7193066224	-0.4147120099	-1.2353376318	 0.549384
C	 1.2726613438	-0.8441470542	-2.2235349858	-0.412644
C	 1.9037313002	-1.3184264239	-3.3314789261	 0.313391
C	 2.4628928145	-1.7410902535	-4.3147165871	-0.569483
H	 1.025757149	 1.996960253	 0.0828680271	 0.123663
H	-0.4507947723	 2.0328596834	-0.9031002571	 0.139415
H	-0.576930744	 1.9525669694	 0.8579540485	 0.132095
H	 0.1171362633	-0.157611151	 2.1121205484	 0.132326
H	 0.5970019192	-1.6183369563	 1.2167227557	 0.13304
H	 1.6958571469	-0.2331094666	 1.2975845583	 0.139886
H	-1.4757367606	-1.5731667247	-0.2686699754	 0.093988
H	 2.9550161195	-2.1108225322	-5.1799174327	 0.195449
54.6288	85.3006	104.2693	198.9692	222.9705	227.4988	245.3446	278.4385	326.4411	331.9073	461.2545	492.6776	517.6349	548.1316	552.9718	600.265	606.9027	706.6054	815.3519	898.6107	955.4902	1014.331	1043.0325	1081.2049	1161.5796	1218.5897	1270.8941	1393.4155	1404.3309	1424.8463	1477.66	1482.3168	1494.7481	1504.5921	1837.7327	2179.425	2353.822	2895.8384	3041.7888	3055.7399	3119.7409	3126.7665	3134.0799	3139.9225	3503.7257
CC(C)(C=O)C#CC#C	CC(C)(C=O)C#CC#C	
InChI=1S/C8H8O/c1-4-5-6-8(2,3)7-9/h1,7H,2-3H3	InChI=1S/C8H8O/c1-4-5-6-8(2,3)7-9/h1,7H,2-3H3
