15
gdb 131583	4.50522	1.00271	0.82441	3.373	70.56	-0.2579	-0.0554	0.2025	1302.0662	0.113273	-453.966343	-453.958025	-453.957081	-454.000128	29.387	
O	 0.0394019428	 1.388602663	 0.0094726858	-0.390138
C	-0.0098356458	-0.0099873203	 0.0024890053	-0.198733
C	-1.4718971252	-0.4622882905	 0.0119995569	 0.308265
O	-2.3899900361	 0.3242074542	 0.0228351985	-0.290506
C	-1.7117996084	-1.9178681449	 0.0065892442	 0.286435
C	-2.9168935975	-2.6040123462	 0.0121486301	-0.271309
C	-2.5611831495	-3.9613346139	 0.0025887065	-0.003645
N	-1.2352475575	-4.127096945	-0.0080649934	-0.21304
N	-0.7434424641	-2.8828560482	-0.0055405054	-0.276773
H	 0.9628932072	 1.6565698743	 0.0013128842	 0.295535
H	 0.4715720297	-0.4471866991	-0.8912922098	 0.10802
H	 0.4860756105	-0.4564917718	 0.8836761258	 0.107922
H	-3.8959831859	-2.1553592538	 0.0217153515	 0.13602
H	-3.2046827084	-4.8282551887	 0.0030026278	 0.124151
H	 0.2556664384	-2.763478409	-0.012224768	 0.277795
65.988	82.3382	147.8564	184.7758	231.5514	289.0722	372.8817	482.4283	520.4399	545.4525	676.4994	705.0543	752.741	843.5558	915.0288	934.7284	943.4948	1019.9479	1048.9393	1070.0482	1142.2767	1164.0687	1224.559	1258.623	1259.8993	1296.9592	1352.0947	1437.5307	1455.2849	1466.2961	1509.2335	1586.9319	1795.1034	2935.7767	2957.9413	3253.3563	3286.8207	3669.1838	3836.5207
OCC(=O)C1=CC=NN1	OCC(=O)c1ccn[nH]1	
InChI=1S/C5H6N2O2/c8-3-5(9)4-1-2-6-7-4/h1-2,8H,3H2,(H,6,7)	InChI=1S/C5H6N2O2/c8-3-5(9)4-1-2-6-7-4/h1-2,8H,3H2,(H,6,7)
