13
gdb 7225	5.25806	1.19049	0.97733	3.3133	60.65	-0.2601	-0.0837	0.1764	1093.9697	0.094465	-394.812301	-394.803926	-394.802982	-394.84588	29.104	
N	-0.0419782273	 1.3215741502	 0.2801452447	-0.514584
C	 0.0795110005	-0.0187849192	 0.1070578156	 0.285853
N	 1.2159282969	-0.5979970095	-0.0157833198	-0.513825
C	-1.2850053526	-0.7070149734	 0.0897478207	 0.357395
O	-2.3037236109	-0.0646685281	 0.1227095715	-0.279183
C	-1.2830593651	-2.2403461715	 0.0160475756	-0.497341
C	-2.6243161116	-2.8086724444	 0.0348863196	 0.297294
N	-3.6757349343	-3.2843099469	 0.0486596119	-0.285695
H	 0.7752370015	 1.8968764838	 0.1700546768	 0.270039
H	-0.9585299408	 1.7301095017	 0.2113829024	 0.278105
H	 1.1253561438	-1.6054778704	-0.1060231859	 0.223023
H	-0.7649832809	-2.5549288691	-0.8980492396	 0.18928
H	-0.6999239592	-2.6404923931	 0.8541009466	 0.189638
47.91	77.1756	132.2236	260.4124	266.2674	366.6589	381.2422	402.4213	430.8072	503.3189	523.8549	623.6024	683.8781	798.2979	812.8607	957.3324	959.5308	1064.2959	1118.0707	1149.7961	1203.4079	1318.1875	1422.0808	1443.6585	1592.1527	1716.7256	1811.2353	2379.3466	3043.1914	3080.0454	3539.768	3611.1412	3744.2762
NC(=N)C(=O)CC#N	NC(=N)C(=O)CC#N	
InChI=1S/C4H5N3O/c5-2-1-3(8)4(6)7/h1H2,(H3,6,7)	InChI=1S/C4H5N3O/c5-2-1-3(8)4(6)7/h1H2,(H3,6,7)
