20
gdb 6888	3.16222	1.44817	1.34874	2.5009	71.42	-0.2421	0.0578	0.3	1042.3391	0.175698	-386.123265	-386.114084	-386.11314	-386.156322	34.727	
C	 0.0316894694	 1.5494440143	-0.168644423	-0.456794
C	-0.0038328962	 0.0453092895	 0.0158498774	 0.289028
C	-1.2034240175	-0.6370295523	-0.6143119691	-0.451953
C	 1.3022175074	-0.7122960106	 0.0103132668	 0.069502
O	 2.4977074996	-0.0027857761	-0.1083394892	-0.431221
C	 0.5242733432	-0.5880376197	 1.30713981	-0.149188
C	 1.1535271745	 0.2067613907	 2.4314654921	-0.115913
O	 2.493214091	-0.2319603165	 2.7245509471	-0.4178
H	 1.0130872834	 1.9609605244	 0.0714590171	 0.13646
H	-0.1731608153	 1.798441822	-1.2159711636	 0.115259
H	-0.7273701853	 2.0507691362	 0.4429823918	 0.107919
H	-1.2532672541	-0.4230567757	-1.6882695371	 0.117965
H	-1.1598883046	-1.7243260464	-0.4929847595	 0.110116
H	-2.1398903981	-0.2902240553	-0.1613455789	 0.114636
H	 1.3102716876	-1.6850369856	-0.4836114707	 0.077168
H	 2.9555388886	-0.0925141726	 0.7405825335	 0.294303
H	-0.0031617469	-1.4819130613	 1.6339646294	 0.076513
H	 1.2590492802	 1.2617710213	 2.1748877386	 0.125623
H	 0.5331254019	 0.1524406311	 3.3362012577	 0.101203
H	 2.4473754214	-1.1645931773	 2.9609940997	 0.287173
101.6321	163.375	188.0155	214.0447	229.4122	278.8399	287.6727	323.0241	356.3706	409.3239	467.8901	505.3766	608.4458	657.1099	719.4704	799.982	846.4001	967.2186	974.4859	981.0038	992.7459	1025.6594	1041.6845	1091.7839	1124.5806	1155.2763	1180.8466	1210.2499	1270.4103	1325.0733	1350.5409	1372.3102	1399.8543	1405.889	1416.764	1424.5828	1443.7781	1486.0192	1489.7824	1502.6485	1507.7409	1520.9575	3013.9318	3019.7338	3030.2017	3081.0238	3082.6949	3084.5464	3094.6219	3114.7445	3127.6029	3137.501	3706.763	3810.7356
CC1(C)C(O)C1CO	CC1(C)[C@@H](O)[C@H]1CO	
InChI=1S/C6H12O2/c1-6(2)4(3-7)5(6)8/h4-5,7-8H,3H2,1-2H3	InChI=1S/C6H12O2/c1-6(2)4(3-7)5(6)8/h4-5,7-8H,3H2,1-2H3/t4-,5+/m1/s1
