17
gdb 45364	2.99307	1.62675	1.4222	3.9967	67.16	-0.2567	0.0095	0.2662	950.7223	0.138618	-459.012161	-459.005292	-459.004348	-459.043683	27.137	
O	-0.0122389773	 0.0548029102	-0.6870563653	-0.322133
C	-0.0438617647	 1.1047738514	-0.1095949422	 0.408304
C	-1.3478221345	 1.8406551674	 0.2033729761	-0.350664
C	-1.1603363397	 3.1058322417	 1.0431407301	 0.092204
C	 0.0527939053	 3.8713920198	 0.5091117539	-0.260721
C	 1.1255248135	 2.9138962331	 1.027270402	 0.089063
C	 0.6346940751	 2.6523411448	 2.4529820052	-0.089107
O	-0.7930082687	 2.7516381289	 2.383809554	-0.276058
O	 1.1295943687	 1.6931123557	 0.2583375228	-0.242076
H	-1.8134028877	 2.0740715996	-0.7612794663	 0.137277
H	-2.0100726087	 1.134611584	 0.7114560914	 0.149788
H	-2.0831480792	 3.6875152676	 1.0998908339	 0.089975
H	 0.0717368256	 3.9844044171	-0.5765975806	 0.120572
H	 0.1490339523	 4.853238766	 0.9799392101	 0.119203
H	 2.1496573212	 3.2833694187	 0.9784113496	 0.102457
H	 0.9315144566	 1.6588954189	 2.8044850049	 0.12436
H	 1.024675542	 3.4056505052	 3.1501337904	 0.107558
88.3994	140.0669	340.4206	378.3795	414.3751	448.0767	527.932	573.0826	595.4405	740.9371	763.809	849.9925	870.1338	876.111	917.2449	942.1094	970.234	1008.268	1030.2965	1039.5184	1088.0806	1108.9175	1153.241	1178.505	1217.6215	1231.5001	1257.5779	1308.4736	1326.5934	1335.5239	1373.3807	1384.7362	1397.6865	1444.9197	1483.0327	1517.9132	1853.5003	3018.6071	3052.0629	3070.6553	3077.9569	3090.5084	3106.7317	3123.7315	3130.0016
O=C1CC2CC(CO2)O1	O=C1C[C@@H]2C[C@@H](CO2)O1	
InChI=1S/C6H8O3/c7-6-2-4-1-5(9-6)3-8-4/h4-5H,1-3H2	InChI=1S/C6H8O3/c7-6-2-4-1-5(9-6)3-8-4/h4-5H,1-3H2/t4-,5-/m0/s1
