15
gdb 67625	2.91262	1.7695	1.44239	1.0766	62.62	-0.2163	0.0667	0.2829	903.3402	0.111899	-457.681709	-457.674784	-457.67384	-457.712555	28.486	
O	 0.2296250027	 1.371771265	-0.2481604219	-0.459401
C	 0.1147611973	 0.0101132524	-0.0968078081	 0.365592
C	 1.0761872026	-0.9024445853	 0.6395910026	-0.017351
O	 0.414604264	-1.8683354436	 1.4144520885	-0.229265
C	-0.7350932298	-2.085548569	 0.6386214586	-0.017401
C	-1.1940125217	-0.8238466153	-0.0913459721	-0.280354
C	-0.4731111109	-1.925329112	-0.8462961044	 0.365552
O	-0.9530834157	-2.7263711948	-1.8553162547	-0.459368
C	 0.834008861	-1.0886239203	-0.8575205267	-0.280386
H	 0.1188400526	 1.7849468767	 0.6163852692	 0.289474
H	 2.021677834	-0.5613435646	 1.0404734759	 0.112713
H	-1.4285985841	-2.8132497172	 1.039212597	 0.112736
H	-2.2110985398	-0.4623405245	-0.1433362378	 0.103997
H	-0.5442812587	-3.5962906608	-1.7744065912	 0.289468
H	 1.5923786864	-1.0540333069	-1.6266445249	 0.103994
200.8173	262.269	293.2039	314.8986	368.3991	368.7502	529.6313	563.3597	604.8299	653.8773	718.9782	752.6495	797.616	838.1264	853.7262	882.3977	913.2283	924.3956	980.6164	990.0425	1019.9101	1072.1041	1078.6178	1087.7158	1111.3999	1184.3213	1226.6386	1254.6125	1279.7438	1312.7399	1323.4867	1453.1672	1471.6646	3211.0902	3214.2756	3223.8478	3224.7511	3777.8018	3778.091
OC12C3OC4C1C4(O)C23	O[C@@]12[C@H]3O[C@H]4[C@@H]1[C@@]4(O)[C@@H]23	
InChI=1S/C6H6O3/c7-5-1-3(5)9-4-2(5)6(1,4)8/h1-4,7-8H	InChI=1S/C6H6O3/c7-5-1-3(5)9-4-2(5)6(1,4)8/h1-4,7-8H/t1-,2+,3+,4+,5-,6+/m1/s1
