18
gdb 35481	3.14415	1.5557	1.47682	1.6452	79.67	-0.2387	0.0467	0.2854	968.4128	0.149204	-364.738734	-364.731603	-364.730659	-364.770067	29.225	
C	-0.1466481265	-1.2572788035	-0.2500413763	-0.491322
C	-0.0754409107	-0.0661170071	-0.1042980453	 0.374681
C	-0.0068200521	 1.3806500242	 0.0635069773	-0.155698
C	-0.686821984	 1.9175632655	 1.3698202961	-0.240861
C	 0.5200558046	 2.3072788599	 2.2235695449	-0.042577
C	 1.436523289	 1.0641085133	 2.4641790724	-0.252143
C	 2.241672056	 1.4806630294	 1.2261771262	-0.03234
C	 1.5673623747	 2.8169981344	 1.1897177764	-0.064636
N	 1.3984640445	 1.8826170362	 0.0887660297	-0.091898
H	-0.2048900129	-2.3090459437	-0.3842188863	 0.197514
H	-0.4758656971	 1.8445018658	-0.8113935016	 0.113209
H	-1.3092807967	 2.7882312187	 1.138560301	 0.101553
H	-1.3171344915	 1.161946831	 1.8447342336	 0.115359
H	 0.2940741806	 2.9227754763	 3.0935544926	 0.071535
H	 2.0406693874	 1.1783990509	 3.3679760061	 0.103942
H	 0.9641196272	 0.0778990196	 2.4643487079	 0.109528
H	 3.2642361688	 1.2022208208	 0.9973249051	 0.092689
H	 1.9333332585	 3.8224187183	 1.0188237001	 0.091465
112.8872	152.4108	263.5967	362.542	397.0153	483.6512	545.7252	615.6786	645.7752	648.9321	714.0941	738.1245	813.248	836.5329	851.4965	881.4248	884.5298	952.819	969.7009	980.791	1011.9252	1024.1757	1039.1897	1064.5318	1097.3145	1129.8544	1165.8967	1210.2777	1219.8864	1243.2564	1250.4972	1279.4808	1307.4802	1326.1584	1347.4487	1365.4388	1485.8323	1495.6609	2235.6126	3035.9469	3051.8914	3056.3171	3106.8915	3109.9352	3120.8706	3170.6343	3186.1487	3503.3053
C#CC1CC2CC3C2N13	C#C[C@H]1C[C@H]2C[C@@H]3[C@H]2N13	
InChI=1S/C8H9N/c1-2-6-3-5-4-7-8(5)9(6)7/h1,5-8H,3-4H2	InChI=1S/C8H9N/c1-2-6-3-5-4-7-8(5)9(6)7/h1,5-8H,3-4H2/t5-,6-,7+,8-,9?/m0/s1
