14
gdb 17229	5.47529	1.72455	1.5701	4.5728	66.6	-0.2398	0.0054	0.2452	804.3467	0.109438	-341.521136	-341.515139	-341.514195	-341.551152	23.66	
N	 0.0095405335	-1.0570716843	-0.0779481244	-0.3456
C	 0.0042566046	 0.0993854019	-0.0279528833	 0.173542
C	-0.0209599466	 1.5218555185	 0.017538422	 0.268813
N	-1.0430491884	 2.3137869605	 0.746565035	-0.362839
C	-0.5092296655	 3.487804528	-0.0346307508	-0.052666
C	 0.8699573841	 3.7091351453	 0.6363495807	-0.208375
C	 1.2615128057	 2.3891447402	-0.0226371181	-0.109333
C	 0.1982153327	 2.5329794825	-1.0862961901	-0.150185
H	-1.9445803087	 2.0615544459	 0.3404379051	 0.228108
H	-1.2006865732	 4.3019379128	-0.2344588384	 0.092877
H	 1.4143894332	 4.5413449875	 0.1839985585	 0.114032
H	 0.8719152962	 3.7839442873	 1.7261978774	 0.118047
H	 2.2327824032	 1.9202035869	-0.1084584772	 0.116662
H	 0.2199195492	 2.4378930869	-2.1633643965	 0.116917
156.0604	168.4574	418.3002	481.4046	515.5104	546.0185	575.6253	725.7122	764.7046	781.7622	842.3859	890.3582	918.9342	940.9177	955.355	1002.2163	1015.5881	1040.8204	1089.0787	1106.4347	1157.1433	1164.3075	1185.0233	1237.401	1267.0507	1293.2986	1330.9912	1401.34	1486.137	2347.2816	3065.9901	3128.561	3159.2503	3206.07	3217.0738	3455.2094
N#CC12NC3CC1C23	N#C[C@@]12N[C@H]3C[C@@H]1[C@@H]23	
InChI=1S/C6H6N2/c7-2-6-3-1-4(8-6)5(3)6/h3-5,8H,1H2	InChI=1S/C6H6N2/c7-2-6-3-1-4(8-6)5(3)6/h3-5,8H,1H2/t3-,4+,5-,6-/m1/s1
