14
gdb 43575	3.37191	1.40105	1.14211	2.1756	67.56	-0.2785	-0.0117	0.2668	1027.9342	0.102324	-432.856674	-432.84946	-432.848516	-432.888858	26.789	
N	 0.0209336283	 1.1552793032	 0.4419663452	-0.524368
C	 0.0042809637	-0.013663959	-0.010505703	 0.442425
O	 1.1166284116	-0.6908700084	-0.4904315441	-0.245013
C	 0.7306035649	-1.9430328316	-1.0573169867	-0.056034
C	 1.5959042565	-3.0143746819	-0.5470056038	 0.284749
N	 2.2577681677	-3.8775049866	-0.1591790527	-0.307976
C	-0.7440941109	-2.0972242441	-0.6803741822	-0.047709
C	-1.0801961847	-2.0237077329	 0.7563332953	-0.248997
N	-1.1670586444	-0.814805139	-0.1065101543	-0.126607
H	 0.9630089722	 1.542998511	 0.4103201661	 0.240487
H	 0.8418198586	-1.894365304	-2.1470959796	 0.149371
H	-1.4031202006	-2.5666706418	-1.4012403023	 0.133312
H	-2.0405736765	-2.3871439055	 1.1034477657	 0.149239
H	-0.2706080665	-2.0712112294	 1.4793267265	 0.157123
71.9702	134.775	197.0299	276.4847	367.3368	437.2543	513.8664	562.0437	667.7977	722.75	757.9661	780.4068	854.7059	860.4592	883.3099	946.9211	995.899	1011.7101	1052.7069	1071.7485	1111.7075	1123.1089	1158.4604	1216.6829	1301.0213	1322.308	1362.0784	1384.5072	1506.3537	1799.4774	2366.9447	3043.8936	3127.5296	3185.1682	3226.1571	3512.6303
N=C1OC(C#N)C2CN12	[NH][C]1O[C@@H](C#N)[C@H]2CN12	
InChI=1S/C5H5N3O/c6-1-4-3-2-8(3)5(7)9-4/h3-4,7H,2H2	InChI=1S/C5H5N3O/c6-1-4-3-2-8(3)5(7)9-4/h3-4,7H,2H2/t3-,4+,8?/m1/s1
