12
gdb 132641	3.24744	1.38946	0.97399	4.4941	60.43	-0.2339	-0.0453	0.1886	1059.0574	0.078	-518.116253	-518.109254	-518.10831	-518.14777	26.436	
N	-0.0122950404	 1.4183355167	 0.1549449491	-0.60204
C	-0.026079975	 0.03342318	 0.0468580803	 0.131888
C	-1.1762926743	-0.753277051	 0.0265138408	-0.043249
N	-1.1508793898	-2.0914786326	-0.0132101333	-0.307086
C	 0.0441090307	-2.6351704311	-0.0332531887	 0.342249
F	 0.0946350085	-3.9535830766	-0.0687284161	-0.056555
N	 1.2197220954	-2.0199955749	-0.0268533235	-0.358193
C	 1.159222313	-0.7153548897	 0.0122041564	 0.314053
F	 2.3105796024	-0.0492344261	 0.0103994168	-0.065995
H	 0.8430071668	 1.8491499089	-0.1647801218	 0.263782
H	-0.8313635839	 1.8832238479	-0.2090955176	 0.258578
H	-2.1582947135	-0.2860513816	 0.0432943676	 0.122569
131.6733	245.0371	276.8872	291.627	373.3054	395.5412	469.3268	505.4822	563.2976	601.1516	614.6209	717.821	772.0953	800.595	823.5777	948.9168	1025.4644	1099.9554	1258.5278	1303.9195	1323.7099	1401.8785	1469.5901	1512.1884	1608.3593	1640.7334	1670.2028	3158.0192	3566.8333	3667.8843
NC1=CN=C(F)N=C1F	Nc1cnc(F)nc1F	
InChI=1S/C4H3F2N3/c5-3-2(7)1-8-4(6)9-3/h1H,7H2	InChI=1S/C4H3F2N3/c5-3-2(7)1-8-4(6)9-3/h1H,7H2
