17
gdb 57691	2.95968	0.90283	0.8195	6.0308	74.04	-0.3025	-0.0115	0.291	1425.6057	0.132775	-418.016291	-418.006198	-418.005254	-418.052805	35.101	
C	 0.0507864155	 1.5833255364	-0.0022689234	-0.424215
C	 0.012973964	 0.0459680346	 0.0757794421	 0.214482
C	 0.8386974526	-0.4898782644	 1.2598253067	-0.424986
O	-1.3318298512	-0.4597437539	 0.0825085584	-0.276887
C	-2.1329329905	-0.1072599117	 1.1905207675	-0.208899
C	-3.4606212619	-0.6962055514	 0.9954649376	 0.279648
N	-4.518391713	-1.1430384346	 0.8789872371	-0.28553
C	 0.5775183794	-0.5019460648	-1.1765705134	 0.289717
N	 1.0652434898	-0.9048166042	-2.1422059242	-0.324976
H	 1.0721768392	 1.9221721638	-0.1912367611	 0.149924
H	-0.5902656887	 1.9362181463	-0.8130399955	 0.153873
H	-0.279338436	 2.0290319273	 0.9399562254	 0.128282
H	 0.5075096544	-0.0405175357	 2.199991026	 0.128514
H	 0.7448455291	-1.5760733873	 1.3256707546	 0.153635
H	 1.8930519422	-0.2380242929	 1.1232942513	 0.150089
H	-1.7257088602	-0.4869051294	 2.1380207499	 0.148945
H	-2.2526331247	 0.9804709919	 1.2911867709	 0.148386
15.7434	89.1579	103.622	185.7898	202.8878	248.8237	258.5613	277.3714	356.8783	375.4252	396.7879	446.274	488.0489	582.8312	610.5493	733.8943	873.5095	924.9346	946.4119	985.2673	1018.0021	1038.0907	1102.4279	1181.0581	1190.0124	1258.0184	1261.9359	1398.0912	1404.3539	1423.6592	1477.7864	1486.1748	1493.5243	1500.3722	1508.1311	2369.6098	2376.7732	3005.9114	3037.5499	3052.3652	3055.6042	3125.5363	3130.7772	3140.7127	3142.3944
CC(C)(OCC#N)C#N	CC(C)(OCC#N)C#N	
InChI=1S/C6H8N2O/c1-6(2,5-8)9-4-3-7/h4H2,1-2H3	InChI=1S/C6H8N2O/c1-6(2,5-8)9-4-3-7/h4H2,1-2H3
