14
gdb 124384	5.07058	1.03281	0.86262	1.7526	64.98	-0.2672	-0.0239	0.2432	1259.0911	0.09983	-473.845827	-473.837791	-473.836847	-473.880258	27.947	
C	-0.046904642	 1.4157714204	 0.2213195895	-0.483838
C	-0.5681742341	 0.1042374261	-0.3010695925	 0.424438
O	-1.0826950367	-0.0863211869	-1.3662894639	-0.316102
O	-0.3622424694	-0.8675338424	 0.6470370944	-0.251168
C	-0.7368872684	-2.1607853979	 0.4460919164	 0.46765
N	-0.4780036252	-2.9807192677	 1.4375968318	-0.212947
O	-0.9420315562	-4.2144389247	 1.0056165783	-0.158608
C	-1.4591562795	-4.0855442474	-0.2240509077	 0.087206
C	-1.3686996716	-2.8037541726	-0.658014388	-0.357216
H	 1.0184644013	 1.3279266195	 0.4518959813	 0.162977
H	-0.2073290604	 2.191015639	-0.5262999736	 0.154985
H	-0.5592786128	 1.6762801852	 1.151646692	 0.162976
H	-1.8541089217	-4.9875823433	-0.6654597289	 0.158166
H	-1.6858366832	-2.3727824075	-1.5871958892	 0.161481
26.609	79.2124	97.3551	183.7958	345.2958	352.0667	378.7369	589.2521	597.8994	610.2065	717.3906	744.4209	808.4876	878.543	913.6746	916.9233	968.0126	1011.7017	1054.4581	1063.1617	1074.1872	1168.5944	1237.1997	1306.2592	1396.9966	1442.593	1466.909	1473.1012	1484.2255	1615.3767	1851.7007	3060.1559	3125.5945	3175.1157	3265.9618	3339.1108
CC(=O)OC1=NOC=C1	CC(=O)Oc1nocc1	
InChI=1S/C5H5NO3/c1-4(7)9-5-2-3-8-6-5/h2-3H,1H3	InChI=1S/C5H5NO3/c1-4(7)9-5-2-3-8-6-5/h2-3H,1H3
