17
gdb 15791	3.40963	1.40959	1.15424	2.4143	65.62	-0.2525	0.0287	0.2812	1054.3497	0.141378	-401.004434	-400.995966	-400.995021	-401.038322	29.973	
C	-0.0149463573	 1.6246516423	-0.1860684586	-0.397522
C	-0.0004413766	 0.0996520717	-0.0012887431	 0.008731
N	-1.3455444928	-0.4480674953	 0.0647882945	-0.283018
C	-1.9951918646	-0.6873174882	 1.2329865316	 0.154684
O	-1.5348184227	-0.4975666563	 2.3397421376	-0.328902
C	 0.7694027772	-0.578945067	-1.1235304042	 0.087898
C	 0.5823250053	-1.983006357	-1.4955088035	-0.187829
O	 0.008896287	-0.9301572927	-2.2868339334	-0.246125
H	 1.0050953473	 2.0224119562	-0.200480671	 0.11852
H	-0.5022816336	 1.8981773197	-1.1275474237	 0.125466
H	-0.55543348	 2.0958688871	 0.638140323	 0.139597
H	 0.4785082874	-0.1368580234	 0.9544852224	 0.128134
H	-1.8109230847	-0.6138059157	-0.815518438	 0.257672
H	-3.0137045634	-1.0891553252	 1.0620781091	 0.076632
H	 1.7313109959	-0.1164713316	-1.3471678795	 0.099878
H	 1.3963347983	-2.5264010769	-1.9712894204	 0.124018
H	-0.1338421827	-2.5905392976	-0.9470090828	 0.122166
33.9702	96.1356	178.1389	212.8953	239.8065	256.5514	295.983	398.92	504.7752	588.3779	606.9755	723.587	809.3267	871.3587	896.0405	952.0647	999.4333	1032.311	1052.3667	1094.0195	1128.4229	1151.0262	1163.5416	1177.0583	1218.8074	1288.3173	1331.0262	1361.6727	1403.7282	1424.1751	1435.1713	1488.7285	1497.0844	1522.9997	1525.3368	1800.4054	2936.325	3037.8021	3070.3701	3097.8139	3106.6805	3112.2943	3129.2247	3189.3118	3617.2979
CC(NC=O)C1CO1	C[C@@H](NC=O)[C@H]1CO1	
InChI=1S/C5H9NO2/c1-4(6-3-7)5-2-8-5/h3-5H,2H2,1H3,(H,6,7)	InChI=1S/C5H9NO2/c1-4(6-3-7)5-2-8-5/h3-5H,2H2,1H3,(H,6,7)/t4-,5-/m1/s1
