14
gdb 130319	3.18475	1.28424	0.91856	4.6011	66.47	-0.2324	-0.0138	0.2186	1168.8881	0.102271	-470.016929	-470.009052	-470.008108	-470.049772	28.775	
N	 0.121105521	 1.3958204395	 0.076413264	-0.604404
C	 0.0329581684	 0.0043110344	 0.0108262609	 0.31237
N	-1.1118936382	-0.6367702752	 0.0058010117	-0.206578
O	-0.7815525452	-1.9896249474	 0.0151375737	-0.174317
C	 0.5565732082	-2.1258891866	 0.0141220105	 0.029276
C	 1.1402694155	-0.8974706243	 0.0228190061	 0.183357
N	 2.481680816	-0.5140341824	 0.0654474594	-0.426357
C	 3.530906633	-1.3872682408	-0.0021759553	 0.14049
O	 3.4180438154	-2.5819528667	-0.1654090716	-0.307094
H	 0.6284150199	 1.7906960446	-0.7083463775	 0.254538
H	-0.8021900977	 1.8131082557	 0.1176716229	 0.265412
H	 0.9549317149	-3.1245896299	 0.0111269384	 0.181518
H	 2.6705509029	 0.4477206264	 0.3066701659	 0.261539
H	 4.5024314559	-0.8700686473	 0.1031093308	 0.090251
68.386	153.3163	211.0198	237.5126	263.5896	307.0311	426.9568	468.5642	560.9321	593.2349	607.7408	709.1252	727.9662	825.636	838.8276	890.3175	930.723	950.9509	1013.3409	1130.7798	1152.8524	1170.1296	1227.0287	1293.7877	1426.2483	1467.9856	1520.1071	1578.9379	1640.6187	1687.9303	1799.4403	2966.3695	3313.1959	3513.6626	3602.5023	3615.1763
NC1=NOC=C1NC=O	Nc1nocc1NC=O	
InChI=1S/C4H5N3O2/c5-4-3(6-2-8)1-9-7-4/h1-2H,(H2,5,7)(H,6,8)	InChI=1S/C4H5N3O2/c5-4-3(6-2-8)1-9-7-4/h1-2H,(H2,5,7)(H,6,8)
