18
gdb 32534	2.58641	1.33841	0.892	2.6864	76.3	-0.1835	0.0572	0.2407	1297.2867	0.146927	-439.085613	-439.076183	-439.075239	-439.120044	33.809	
C	-0.0496391599	 1.3304127681	-0.0464932453	-0.241925
O	-0.0038569581	-0.0796219603	-0.0153907566	-0.260425
C	 0.6362140264	-0.6095933943	 1.0590195215	 0.236861
C	 1.2478771968	 0.0145806337	 2.125846139	-0.203271
N	 1.748251775	-0.9710772138	 2.945919079	-0.268305
C	 1.4684374675	-2.213512794	 2.4239298788	-0.203271
C	 0.7757330164	-2.0185723523	 1.2474933144	 0.23686
O	 0.2778320873	-2.9230079669	 0.3648789526	-0.260425
C	 0.5034798769	-4.2739965765	 0.7042503498	-0.241925
H	 0.9607364317	 1.7634321551	-0.0736877609	 0.112918
H	-0.586541366	 1.6089605431	-0.9547774154	 0.12995
H	-0.5805770559	 1.7333095592	 0.8280914389	 0.112903
H	 1.3658521315	 1.0570530003	 2.3643751588	 0.117524
H	 2.2454450871	-0.8074778152	 3.8008826386	 0.259236
H	 1.7790183273	-3.1149600049	 2.922423082	 0.117524
H	 1.5783972652	-4.4975570767	 0.7649902459	 0.112905
H	 0.0372939502	-4.5283293271	 1.6671072167	 0.112916
H	 0.0531857208	-4.8774540576	-0.0856275078	 0.12995
72.9437	104.93	157.1817	164.2708	208.0616	245.3749	266.0366	298.3048	357.2074	412.9539	580.5838	596.3247	610.0841	624.2345	702.8753	709.1585	752.4848	900.9326	1046.7769	1074.6176	1103.8017	1161.9399	1182.2315	1182.3278	1210.7288	1219.8602	1234.1803	1272.6589	1359.3275	1425.9842	1468.5679	1478.2128	1484.2907	1484.3716	1486.8451	1509.2343	1510.3957	1605.3694	1641.0537	2986.2519	2987.3699	3037.4078	3037.6544	3130.8135	3131.0435	3280.4666	3283.5065	3712.0658
COC1=CNC=C1OC	COc1c[nH]cc1OC	
InChI=1S/C6H9NO2/c1-8-5-3-7-4-6(5)9-2/h3-4,7H,1-2H3	InChI=1S/C6H9NO2/c1-8-5-3-7-4-6(5)9-2/h3-4,7H,1-2H3
