14
gdb 36762	6.46509	0.49637	0.46365	5.4037	84.1	-0.278	-0.0559	0.222	2168.7603	0.097799	-399.474951	-399.465405	-399.46446	-399.510795	32.147	
C	-0.0233103027	-1.1897567537	-0.0040193008	-0.400907
C	 0.0167291126	 0.0098381121	 0.002271759	 0.284521
C	 0.028777551	 1.4635781212	 0.0099498269	-0.205677
O	 1.3718831229	 1.9298547205	-0.0006174401	-0.239182
C	 1.4331952604	 3.3394808078	 0.006305532	-0.213341
C	 2.8242619584	 3.766452289	-0.0047506604	 0.018847
C	 3.9680079406	 4.1507839087	-0.0136599011	 0.137184
C	 5.2630828912	 4.5838555209	-0.0237552691	 0.209923
N	 6.363171018	 4.9561365518	-0.0323060353	-0.330439
H	-0.0504645889	-2.2516668825	-0.0098593641	 0.20893
H	-0.5156106237	 1.8489510384	-0.8686298496	 0.127436
H	-0.498364256	 1.8394406132	 0.9030454783	 0.127427
H	 0.9175536017	 3.7656794102	-0.8721913438	 0.137641
H	 0.9345324745	 3.7562417924	 0.8990173382	 0.137639
53.7779	65.7381	84.7805	143.6174	153.2664	241.6086	318.6488	331.0082	357.8303	427.6057	562.0277	575.4878	592.807	619.3781	688.5256	752.1772	985.5949	1005.8618	1018.2302	1045.3804	1125.3531	1177.5615	1242.957	1255.366	1371.9893	1442.2566	1486.2793	1504.8537	2251.7252	2272.6987	2408.9878	2949.2886	2960.1247	2969.0763	2981.9102	3504.9332
C#CCOCC#CC#N	C#CCOCC#CC#N	
InChI=1S/C7H5NO/c1-2-6-9-7-4-3-5-8/h1H,6-7H2	InChI=1S/C7H5NO/c1-2-6-9-7-4-3-5-8/h1H,6-7H2
