21
gdb 65035	2.48249	1.44205	1.31097	3.0556	77.34	-0.2409	0.0795	0.3204	1116.5194	0.180315	-424.194952	-424.185507	-424.184563	-424.229155	35.482	
C	 0.3963361864	 0.9759766737	 1.002452885	-0.474924
C	-0.0402152359	-0.0214672377	-0.0512336794	 0.371496
C	 0.4777527273	 0.0853515297	-1.4233101399	-0.225915
O	 0.9976468839	-0.8930127758	-0.5139716656	-0.285682
C	-1.3759385889	-0.7247934117	 0.189841766	 0.365947
C	-1.2983224319	-1.6813440921	 1.3728028132	-0.444859
C	-2.6210754586	 0.2038131282	 0.1360706125	-0.334391
C	-3.0178862166	-0.6277138163	-1.096036834	-0.070835
O	-1.8292256197	-1.4373332686	-0.9962508125	-0.314855
H	 1.3460808933	 1.4324325731	 0.714145101	 0.129995
H	-0.3440200318	 1.7717670366	 1.1334539278	 0.121161
H	 0.5402799941	 0.4868993954	 1.9707053795	 0.130491
H	-0.1030770087	-0.3231080592	-2.2448196747	 0.127126
H	 1.1610285789	 0.8973302305	-1.6720318585	 0.101722
H	-1.0820899352	-1.1502974998	 2.305215412	 0.114968
H	-2.2481231055	-2.2097831757	 1.4909979885	 0.116159
H	-0.508028772	-2.416564352	 1.1976835934	 0.145551
H	-3.2885992719	 0.1300023989	 0.9962580386	 0.110116
H	-2.4075828941	 1.2550185738	-0.0646426661	 0.109521
H	-3.9285599183	-1.2297668673	-0.9933828595	 0.105263
H	-3.0632160949	-0.0801034836	-2.045208617	 0.101947
68.0982	77.7658	179.4428	196.8691	228.1594	266.7451	293.453	333.0176	375.4699	411.6632	485.3277	502.3017	594.5187	775.7619	791.7949	844.6259	871.8551	903.5793	924.5513	931.3673	966.3243	1000.628	1016.8322	1028.3503	1096.8783	1134.9234	1139.0671	1160.8051	1171.6204	1187.1697	1209.7904	1230.2879	1264.6497	1309.3348	1352.5097	1390.523	1400.7213	1415.5948	1478.0888	1486.4609	1488.0666	1492.0344	1501.2933	1514.5369	1531.9005	3017.6318	3041.0431	3044.4475	3056.0253	3077.4794	3086.8998	3107.1417	3115.194	3125.0575	3126.4536	3132.7595	3194.1116
CC1(CO1)C1(C)CCO1	C[C@]1(CO1)[C@@]1(C)CCO1	
InChI=1S/C7H12O2/c1-6(3-4-8-6)7(2)5-9-7/h3-5H2,1-2H3	InChI=1S/C7H12O2/c1-6(3-4-8-6)7(2)5-9-7/h3-5H2,1-2H3/t6-,7+/m1/s1
