15
gdb 11102	6.41955	1.13827	1.06415	1.4336	62.42	-0.2411	-0.0382	0.2029	1066.2682	0.117547	-399.788156	-399.780334	-399.779389	-399.821419	26.975	
O	-0.1750467339	 0.1646525499	-0.3254369054	-0.248805
C	-0.0911835506	 1.3521749418	-0.1317468744	 0.147344
C	 1.2059663508	 2.0600193651	 0.1735116136	-0.040624
C	 1.3573782241	 2.4137095505	 1.6877351716	-0.282468
C	 2.4179894389	 1.2901863003	 1.7238474408	-0.038816
N	 2.3847840306	 1.1746999264	 0.238465165	-0.342204
C	 3.7990995128	 1.6717432178	 2.2152431153	 0.166744
O	 4.0285319039	 2.5937718575	 2.9539429293	-0.239847
H	-0.9887302959	 2.0098147327	-0.1579549574	 0.088044
H	 1.3092764722	 2.9072397511	-0.5185194047	 0.102762
H	 1.7743409576	 3.4013103837	 1.8838878329	 0.141709
H	 0.4715469896	 2.2655292581	 2.3066833204	 0.120689
H	 2.0951549616	 0.3846028262	 2.2574518091	 0.104087
H	 2.1563344865	 0.2427546303	-0.0988091032	 0.236562
H	 4.6111670717	 1.0272036084	 1.8091798171	 0.084824
46.98	95.4418	123.9996	184.4308	253.9313	332.2391	391.6182	591.5671	673.3135	720.2281	799.2932	834.4872	874.9443	924.6487	945.4736	994.0809	1030.8804	1071.5711	1113.0564	1130.4787	1151.1526	1221.5959	1248.814	1277.0558	1310.5751	1335.4253	1401.765	1410.4712	1431.0564	1492.7228	1817.5924	1832.8905	2884.587	2887.4506	3003.5077	3014.2333	3090.9398	3150.7941	3501.905
O=CC1CC(N1)C=O	O=C[C@H]1C[C@@H](N1)C=O	
InChI=1S/C5H7NO2/c7-2-4-1-5(3-8)6-4/h2-6H,1H2	InChI=1S/C5H7NO2/c7-2-4-1-5(3-8)6-4/h2-6H,1H2/t4-,5-/m1/s1
