16
gdb 42789	2.42902	1.7231	1.42745	2.9968	69.77	-0.2292	-0.0443	0.185	956.9375	0.125982	-437.896683	-437.889396	-437.888452	-437.928627	28.089	
O	-0.0479945366	 0.0300394768	-0.095862347	-0.305509
C	-0.0631779332	 1.2213903294	-0.0161547239	 0.410361
C	-1.128443287	 2.3234611656	 0.1326610657	-0.111968
C	-0.018598811	 3.1591986859	 0.8195272949	-0.252789
C	 1.0371688789	 2.3267506325	 0.0160975389	-0.246669
C	 1.1271285135	 2.899321413	-1.3969669646	 0.407642
O	 2.1348719722	 2.9283212481	-2.0523386605	-0.306952
C	-0.2262581044	 3.4436939057	-1.8953675099	-0.287513
N	-1.3986411625	 2.8714126239	-1.2116289257	-0.294092
H	-2.0657663288	 2.1153934492	 0.6516098717	 0.098326
H	-0.0392427408	 4.2377986256	 0.655725666	 0.123443
H	 0.0377682534	 2.9492470004	 1.8884591215	 0.130517
H	 2.0213606066	 2.0949679579	 0.4196842415	 0.111251
H	-0.2059264232	 4.5338161995	-1.7613618386	 0.141702
H	-0.2942196992	 3.2685334933	-2.9710099109	 0.141931
H	-1.8048715379	 2.1384594032	-1.782977179	 0.24032
91.1579	131.486	198.1752	370.1301	423.8215	429.5141	473.1949	492.6933	571.9636	648.9878	719.3953	753.2208	792.7634	843.5233	898.8977	936.3767	978.1029	987.7322	1028.6288	1062.9993	1078.5129	1116.8941	1150.3406	1189.048	1212.6668	1240.8173	1249.5644	1269.9631	1317.1068	1350.6423	1469.9933	1476.0796	1500.2656	1824.2045	1892.7433	3015.3767	3084.2709	3100.1998	3112.9118	3140.0907	3144.4782	3530.9407
O=C1C2CC1C(=O)CN2	O=C1[C@H]2C[C@@H]1C(=O)CN2	
InChI=1S/C6H7NO2/c8-5-2-7-4-1-3(5)6(4)9/h3-4,7H,1-2H2	InChI=1S/C6H7NO2/c8-5-2-7-4-1-3(5)6(4)9/h3-4,7H,1-2H2/t3-,4-/m1/s1
