21
gdb 121159	3.15541	0.93927	0.79121	2.0484	79.89	-0.2556	0.0759	0.3316	1502.4136	0.181019	-424.180703	-424.171246	-424.170302	-424.215715	34.376	
C	 0.0679261524	 1.3808502328	 0.1030440576	-0.225292
O	 0.0061448937	-0.0245398623	 0.0866751614	-0.232559
C	-1.3099526852	-0.5166645675	-0.0474122413	-0.081962
C	-1.2576201924	-2.0297540968	-0.0447424069	-0.072053
C	-0.901890182	-2.7716251497	 1.2798761922	-0.22737
C	-2.0361728957	-3.8018746029	 0.9936674914	-0.321921
C	-2.5716223597	-2.8220751619	-0.0519064333	 0.439985
C	-3.942622472	-2.3370892953	-0.2337911746	-0.266553
O	-3.3049186583	-3.1771475378	-1.2070012208	-0.271561
H	 1.1183244791	 1.6620143417	 0.2114499503	 0.127275
H	-0.3226802513	 1.8190001985	-0.8294275456	 0.103605
H	-0.5023246978	 1.8064060318	 0.9444756692	 0.10193
H	-1.9418744176	-0.1546399884	 0.7832354172	 0.079053
H	-1.7651275356	-0.1502586055	-0.9848765885	 0.089851
H	-0.6149400531	-2.3702443946	-0.8637761353	 0.094065
H	 0.1122230001	-3.1628631062	 1.3636718009	 0.110028
H	-1.1137255549	-2.154286343	 2.157053785	 0.104458
H	-1.6615221707	-4.7158545559	 0.5235737695	 0.117104
H	-2.6993437787	-4.0750090709	 1.8177170669	 0.104873
H	-4.7564818117	-2.8009685548	 0.3229338806	 0.113306
H	-4.1283749788	-1.3125506914	-0.5542397262	 0.113738
65.5539	93.736	109.0255	116.7532	227.5242	259.0791	282.4551	339.2119	343.7106	471.2698	506.1617	552.8289	744.8363	811.7178	846.756	891.7549	902.1128	914.1417	951.4934	972.1012	1012.1483	1089.7831	1117.2984	1132.0978	1145.9136	1160.0763	1170.2415	1171.534	1189.8607	1214.5047	1225.7488	1239.7562	1263.377	1268.7569	1282.3812	1357.275	1423.1105	1425.6934	1475.8901	1480.4014	1484.879	1495.4695	1503.6006	1526.1391	1538.1033	2936.3555	2964.3871	2968.058	3010.0646	3056.4316	3060.9246	3069.8371	3076.9967	3110.5977	3113.1276	3133.5711	3161.7411
COCC1CCC11CO1	COC[C@H]1CC[C@]21CO2	
InChI=1S/C7H12O2/c1-8-4-6-2-3-7(6)5-9-7/h6H,2-5H2,1H3	InChI=1S/C7H12O2/c1-8-4-6-2-3-7(6)5-9-7/h6H,2-5H2,1H3/t6-,7-/m1/s1
