19
gdb 67560	2.89113	1.95584	1.4579	2.0296	77.5	-0.2301	0.0897	0.3198	940.2226	0.160438	-385.81331	-385.806464	-385.80552	-385.843969	29.226	
C	 0.019680871	 1.5143440009	-0.0126352646	-0.511556
C	 0.0567181845	 0.0068728068	-0.0345363541	 0.36013
C	 0.564883284	-0.7335231353	-1.2632900747	-0.120816
C	 1.7979158765	-1.5944827065	-1.1097089483	-0.304176
C	 0.4323898195	-2.1822512722	-0.8367286609	-0.068155
C	-0.1297626376	-2.021869417	 0.5617187019	-0.048294
C	 0.5040396282	-0.7779793361	 1.2463204748	-0.015088
O	-0.7539702919	-0.4614087743	 1.9352937156	-0.320845
C	-1.1441302068	-0.8267333653	 0.5729543076	 0.008806
H	 1.0233578474	 1.9345262317	-0.1400955404	 0.117637
H	-0.6064585101	 1.9074566212	-0.821583585	 0.113948
H	-0.3861116009	 1.8627618285	 0.9409348447	 0.136112
H	 0.2706481164	-0.3918590545	-2.2493524013	 0.084779
H	 2.2867573047	-1.909208509	-2.0261178856	 0.112268
H	 2.4831987294	-1.4164769746	-0.2871049787	 0.113092
H	 0.0336943856	-2.9435875821	-1.4965163884	 0.089096
H	-0.3479224068	-2.889622696	 1.1823956097	 0.078939
H	 1.4242855158	-0.6935243074	 1.8265905468	 0.088448
H	-2.207471249	-0.8054576587	 0.3254053009	 0.085672
227.0635	242.59	274.6463	297.6748	374.6597	490.8615	519.404	652.4782	674.7569	677.1398	764.3889	792.0575	816.7294	836.4934	880.643	895.4013	904.1959	930.5617	937.6289	1001.2785	1004.7002	1051.2396	1070.1726	1075.2134	1094.6193	1099.345	1142.0298	1157.7606	1178.1993	1186.6996	1200.7875	1222.3444	1259.8339	1282.6282	1330.9801	1341.8679	1388.8228	1407.8188	1489.3638	1492.8128	1498.4181	3030.2396	3088.7085	3094.9115	3101.1615	3118.2132	3127.0965	3136.7314	3169.4739	3181.179	3210.0642
CC12C3CC3C3C1OC23	C[C@@]12[C@H]3C[C@H]3[C@H]3[C@@H]1O[C@@H]23	
InChI=1S/C8H10O/c1-8-4-2-3(4)5-6(8)9-7(5)8/h3-7H,2H2,1H3	InChI=1S/C8H10O/c1-8-4-2-3(4)5-6(8)9-7(5)8/h3-7H,2H2,1H3/t3-,4+,5-,6-,7+,8+/m1/s1
