16
gdb 24688	3.72727	1.61287	1.14359	3.4711	77.97	-0.2211	-0.0202	0.2009	1020.3069	0.128616	-400.824617	-400.81805	-400.817106	-400.855896	25.617	
C	 0.0499158144	 1.3457701832	-0.1983096419	-0.088466
C	 1.461834931	 1.8779547694	 0.1713242003	-0.369684
C	 2.1265629363	 0.6217765792	 0.6692658031	 0.199134
C	 3.4129645865	 0.3075364117	 1.0537613308	-0.223404
C	 3.6570719804	-0.9945298428	 1.5140757603	-0.116619
C	 2.6028596451	-1.8965821002	 1.5692664001	-0.0214
N	 1.3409286238	-1.6128512921	 1.1984933821	-0.349596
C	 1.1543095715	-0.3844233044	 0.7656376851	 0.421448
O	-0.0752658083	 0.0220027963	 0.3656538515	-0.258345
H	-0.7615660348	 1.9560597607	 0.2033171801	 0.124206
H	-0.0789638868	 1.2628757083	-1.2830902289	 0.120009
H	 1.9636529353	 2.3268064677	-0.6906947358	 0.124823
H	 1.4122259592	 2.6449937993	 0.9529358987	 0.127156
H	 4.2131919807	 1.0397593359	 1.0061057681	 0.103834
H	 4.6493819809	-1.2980834645	 1.8255350577	 0.097351
H	 2.7689032248	-2.9090795478	 1.9280546985	 0.109555
78.1549	195.7317	262.5942	425.9161	433.7431	556.0427	564.059	621.021	696.1102	773.4803	800.7723	805.4181	851.0295	881.9692	955.1164	962.544	975.7768	1025.0535	1072.6908	1079.2036	1121.1259	1184.2938	1211.5951	1238.1503	1271.0491	1274.9925	1320.4854	1357.621	1399.8288	1464.9367	1488.6004	1496.5225	1525.8931	1630.9658	1646.526	3034.8312	3042.3892	3080.1363	3109.3195	3160.2223	3174.9614	3205.2232
C1CC2=CC=CN=C2O1	C1Cc2cccnc2O1	
InChI=1S/C7H7NO/c1-2-6-3-5-9-7(6)8-4-1/h1-2,4H,3,5H2	InChI=1S/C7H7NO/c1-2-6-3-5-9-7(6)8-4-1/h1-2,4H,3,5H2
