19
gdb 88057	2.44832	1.25096	1.03813	1.314	76.73	-0.237	-0.0327	0.2043	1235.2921	0.15697	-422.999651	-422.990438	-422.989494	-423.034616	33.149	
C	-0.1549282912	 1.4338639517	-0.0850026132	-0.403468
C	 0.110584774	-0.0553646513	-0.0782973541	-0.084705
C	 1.5414985247	-0.5826033164	-0.048940847	-0.362506
C	 0.6631286152	-0.7085640283	 1.1520237611	 0.435316
O	 0.9176842496	 0.0301384055	 2.3482931962	-0.299111
C	 0.5392562241	-1.102711606	 3.1567430018	-0.095975
C	 0.2099106604	-1.9647318511	 1.9103230219	-0.237347
C	-1.2463735135	-2.3086414889	 1.7397923482	 0.169561
O	-1.6642680755	-3.3856299706	 1.4017663023	-0.254308
H	 0.5247910697	 1.9519777631	 0.5967205771	 0.135164
H	-0.0231529057	 1.8530351893	-1.0878560391	 0.119687
H	-1.1774424571	 1.65286001	 0.2403991573	 0.119527
H	-0.592762274	-0.6537094415	-0.6538764568	 0.096349
H	 1.7882498868	-1.4737160301	-0.6171984048	 0.119517
H	 2.3386485412	 0.1513442372	 0.0206851087	 0.125589
H	 1.3718179255	-1.4747979636	 3.7625852976	 0.119419
H	-0.3117117358	-0.8718298566	 3.8090368815	 0.111951
H	 0.8247228606	-2.8536739758	 1.7653459486	 0.10422
H	-1.9382893789	-1.4593030866	 1.9489343525	 0.08112
53.1215	57.6539	121.6896	180.2077	188.7361	246.7886	315.8802	397.8939	427.1385	465.8643	508.7221	584.6486	790.3357	846.742	869.7047	876.4149	895.0535	925.9971	991.8511	1009.2015	1032.7322	1050.8964	1072.1576	1106.6257	1132.2409	1142.4249	1175.0851	1181.8888	1204.5915	1220.8589	1285.9489	1313.3022	1351.1324	1406.9741	1422.6645	1429.5199	1480.3226	1492.0327	1504.1702	1523.5577	1831.3888	2860.4517	3023.8453	3035.8095	3074.8044	3096.3612	3112.8151	3113.8832	3123.8021	3132.0398	3213.6791
CC1CC11OCC1C=O	C[C@H]1C[C@]21OC[C@H]2C=O	
InChI=1S/C7H10O2/c1-5-2-7(5)6(3-8)4-9-7/h3,5-6H,2,4H2,1H3	InChI=1S/C7H10O2/c1-5-2-7(5)6(3-8)4-9-7/h3,5-6H,2,4H2,1H3/t5-,6+,7+/m0/s1
