24
gdb 101340	2.42509	1.00612	0.87561	1.2969	86.7	-0.2435	0.0722	0.3156	1514.2159	0.215524	-405.514995	-405.503953	-405.503008	-405.551894	39.586	
C	-0.7207521589	 1.3973517784	-1.1375284505	-0.380595
C	-0.1335698851	 0.1303058409	-0.5057366112	-0.176603
C	-1.1009982148	-0.5097795414	 0.4644184018	 0.030706
N	-2.2051472384	-1.3113958092	-0.0864969707	-0.338526
C	-1.2024512823	-1.96353817	 0.77338282	-0.071304
C	-0.3077204226	-3.052410127	 0.1826400545	 0.12879
C	-0.619515345	-3.4112276242	-1.2717214682	-0.398051
O	 1.0384229359	-2.6202743998	 0.3771999317	-0.244048
C	 2.0029321485	-3.6427284311	 0.3081178479	-0.231049
H	-0.013169925	 1.8593862732	-1.8328763936	 0.108295
H	-1.6363300125	 1.1628151761	-1.6898070229	 0.125166
H	-0.9721359927	 2.1441102509	-0.3752471752	 0.106068
H	 0.1424600402	-0.5827602232	-1.2850907476	 0.107666
H	 0.791555579	 0.3662650253	 0.0330637272	 0.101869
H	-1.3559720495	 0.1426037654	 1.3018434794	 0.073564
H	-3.0686186645	-1.1537948962	 0.4244890054	 0.227904
H	-1.5069952315	-2.1804491708	 1.7960214783	 0.078964
H	-0.4606448382	-3.9621797731	 0.7891483988	 0.059094
H	 0.0180714453	-4.2324813451	-1.611434547	 0.104771
H	-1.6615570786	-3.7290242968	-1.3581588864	 0.124038
H	-0.4799348327	-2.5585024041	-1.9381872798	 0.133261
H	 2.9599911242	-3.2016628934	 0.5992849896	 0.124192
H	 1.7701986622	-4.4685288717	 0.9999790854	 0.099091
H	 2.1093726867	-4.0639077332	-0.7022297068	 0.106739
47.9949	66.3854	82.6474	129.0192	184.7397	190.176	220.5528	229.8097	282.266	305.3531	380.3667	430.5495	453.4659	509.4416	672.8755	753.964	761.6745	820.2418	863.3176	903.3586	947.5896	968.6674	1020.6913	1028.7469	1070.6008	1085.3646	1093.4707	1122.6441	1144.6826	1165.7088	1182.1179	1207.3441	1223.3559	1247.829	1293.5035	1303.0241	1341.4835	1378.2856	1385.7213	1403.6912	1405.3889	1428.2072	1468.5805	1474.8434	1476.9867	1484.5985	1488.265	1497.9387	1500.9684	1508.6801	1513.1112	2941.1615	2971.5209	3022.0475	3029.1944	3046.8704	3056.2975	3078.66	3088.3435	3105.975	3107.4225	3111.2838	3118.8129	3123.3712	3144.133	3508.8341
CCC1NC1C(C)OC	CC[C@H]1N[C@H]1[C@@H](C)OC	
InChI=1S/C7H15NO/c1-4-6-7(8-6)5(2)9-3/h5-8H,4H2,1-3H3	InChI=1S/C7H15NO/c1-4-6-7(8-6)5(2)9-3/h5-8H,4H2,1-3H3/t5-,6-,7+/m1/s1
