19
gdb 99530	2.22915	1.2069	0.82876	1.1821	83.14	-0.2585	0.0366	0.2951	1383.6422	0.155379	-385.817037	-385.806515	-385.805571	-385.852551	38.531	
C	 0.0877557163	 1.5689542361	 0.0000700472	-0.406759
C	 0.01157354	 0.0281998179	 0.0343415512	-0.168596
C	 0.7142147779	-0.4841375401	 1.2091618143	 0.330095
C	 1.2850777071	-0.8696077678	 2.1940108734	-0.456699
C	-1.4582884363	-0.4989716563	 0.001864544	-0.176564
C	-2.2531603925	 0.0297473085	-1.2200241621	-0.069973
O	-3.5603501209	-0.4915188558	-1.2733434626	-0.42141
C	-1.4996461996	-1.9599529932	-0.0148539599	 0.303068
C	-1.5744958951	-3.1574340745	-0.1049724555	-0.449271
H	 1.125392294	 1.8917521332	 0.1118209612	 0.132267
H	-0.2909441219	 1.9673014996	-0.9442359618	 0.125478
H	-0.4905438966	 2.0041640162	 0.8209446751	 0.130083
H	 0.5132668519	-0.3628292536	-0.8612006638	 0.116136
H	 1.7923857618	-1.2277297913	 3.0553170606	 0.196179
H	-1.9658757017	-0.1454220522	 0.9085308117	 0.121994
H	-2.3634500735	 1.1141424888	-1.1472188403	 0.115464
H	-1.6832486997	-0.1935132805	-2.1373029063	 0.091551
H	-3.4830486333	-1.4536659162	-1.2491883127	 0.285294
H	-1.6162579678	-4.2181327891	-0.1433085637	 0.201665
52.5084	106.8326	126.8127	154.3996	195.1435	202.5183	255.0773	281.4484	337.0723	399.3951	434.5336	466.077	503.3583	560.315	610.2612	632.2591	634.2649	642.6016	659.6252	819.1527	853.8563	936.9353	1020.4091	1037.2116	1082.907	1095.3742	1104.9038	1143.2755	1210.9779	1249.963	1313.8685	1340.9003	1353.7398	1382.2408	1408.0098	1435.4462	1493.6947	1499.6164	1510.0578	2226.9922	2237.2206	2966.8678	3013.8779	3035.562	3046.9894	3099.9833	3121.7286	3129.8911	3501.2719	3505.1632	3770.9752
CC(C#C)C(CO)C#C	C[C@@H](C#C)[C@@H](CO)C#C	
InChI=1S/C8H10O/c1-4-7(3)8(5-2)6-9/h1-2,7-9H,6H2,3H3	InChI=1S/C8H10O/c1-4-7(3)8(5-2)6-9/h1-2,7-9H,6H2,3H3/t7-,8+/m0/s1
