13
gdb 61120	2.48605	1.25614	1.00569	5.2764	63.58	-0.3196	-0.0925	0.2272	1148.0355	0.086265	-452.761177	-452.752102	-452.751158	-452.79563	31.173	
O	-0.0252077708	 1.4442709982	-0.044083954	-0.422273
C	-0.0069645575	 0.0551980364	-0.0463722086	 0.126422
C	 0.701841635	-0.4731146684	-1.3263303788	-0.370737
C	 0.0422776266	-0.0303514179	-2.5503270464	 0.291317
N	-0.468605059	 0.309021574	-3.5283038489	-0.282309
C	 0.7702380463	-0.4628267926	 1.1903543292	 0.128194
O	 1.2277993661	 0.3154989129	 1.9804580274	-0.231815
C	-1.3707066022	-0.5159987349	 0.0582335625	 0.265998
N	-2.4132768629	-0.9985604325	 0.1801192199	-0.30308
H	 0.3546633269	 1.7204529787	 0.8076843841	 0.311479
H	 1.7291919805	-0.0943363247	-1.3162561632	 0.176748
H	 0.7387118137	-1.5678703886	-1.3127749129	 0.170504
H	 0.8662632674	-1.5592461606	 1.2918819796	 0.139552
62.1308	92.8263	115.3288	183.1819	204.7092	292.85	333.7449	361.853	386.6634	452.8303	464.2336	509.0644	570.4358	710.0608	815.4981	890.6644	913.0805	988.6515	1012.4897	1112.9125	1174.1722	1282.7235	1326.7887	1380.2099	1418.8261	1449.8049	1834.8854	2354.1314	2374.6848	2978.6914	3051.0214	3100.5056	3666.1339
OC(CC#N)(C=O)C#N	O[C@@](CC#N)(C=O)C#N	
InChI=1S/C5H4N2O2/c6-2-1-5(9,3-7)4-8/h4,9H,1H2	InChI=1S/C5H4N2O2/c6-2-1-5(9,3-7)4-8/h4,9H,1H2/t5-/m1/s1
