18
gdb 46578	2.78658	1.78551	1.42478	3.1403	76.62	-0.2403	0.0215	0.2618	963.9017	0.150222	-401.92674	-401.919628	-401.918684	-401.958068	28.711	
N	-0.0196209967	 1.2781139626	 0.2557293497	-0.547511
C	-0.0077961997	 0.0346062597	 0.0351209444	 0.33189
O	 1.1460395801	-0.7079400429	-0.1648995668	-0.256641
C	 0.8616351266	-1.9663901992	-0.8315040281	-0.162599
C	-0.6226445868	-2.1852314993	-0.6613352866	 0.205373
C	-1.1609960937	-2.1380664863	 0.7312303277	-0.358763
C	-1.1686742814	-0.8711845215	-0.0869611354	 0.195525
C	-2.3140247824	-0.8569484145	-1.1143061961	-0.287993
C	-1.741199021	-2.1842576019	-1.7246295889	-0.284657
H	 0.9282860689	 1.6560570503	 0.2072686557	 0.22223
H	 1.1343944982	-1.8778171092	-1.89042819	 0.112315
H	 1.5014700318	-2.7221512207	-0.3662992981	 0.119508
H	-2.1149571075	-2.6061314754	 0.9547755555	 0.121319
H	-0.4334467492	-2.1858252042	 1.5339683056	 0.135337
H	-3.3222359388	-0.9008088915	-0.694174118	 0.109077
H	-2.2563637785	-0.0093570815	-1.7981682538	 0.126966
H	-1.3538467634	-2.0429566586	-2.7363385779	 0.111992
H	-2.3988293266	-3.0582920759	-1.7232365189	 0.106631
126.5351	179.533	238.8076	313.6584	372.5015	423.1056	577.7686	595.7502	649.4112	702.1786	735.9793	770.463	786.0838	841.7116	896.7452	924.1494	937.909	951.7974	969.8002	972.056	991.6959	1017.6238	1081.1277	1103.0279	1163.4613	1203.5605	1213.6372	1237.3116	1246.9653	1265.7697	1289.9084	1350.6559	1373.4313	1399.7313	1477.6151	1480.175	1499.5221	1517.0593	1772.5753	3027.7127	3054.5923	3067.5141	3082.0741	3106.8824	3126.6238	3133.9573	3219.3269	3470.4711
N=C1OCC23CC12CC3	[NH][C]1OC[C@@]23C[C@@]12CC3	
InChI=1S/C7H9NO/c8-5-7-2-1-6(7,3-7)4-9-5/h8H,1-4H2	InChI=1S/C7H9NO/c8-5-7-2-1-6(7,3-7)4-9-5/h8H,1-4H2/t6-,7+/m1/s1
