20
gdb 61303	5.33718	0.68051	0.63419	4.6846	80.14	-0.2766	0.0316	0.3081	1722.874	0.16952	-403.14784	-403.138014	-403.13707	-403.183552	34.99	
C	-0.138143893	 1.5490327493	 0.0326978351	-0.398708
C	-0.0140173885	 0.0213866261	-0.0157180836	 0.020299
C	 0.7794704002	-0.5181090219	 1.2002160074	-0.350448
C	 2.1494181442	-0.0135167797	 1.2625161226	 0.26472
N	 3.2324599082	 0.3887627371	 1.293665129	-0.312055
C	-1.3832262167	-0.6825094788	-0.0758730025	-0.227346
C	-2.1583105518	-0.3920460996	-1.339339106	 0.08396
C	-3.6258615668	-0.3964883089	-1.3745093033	-0.181946
O	-2.8970773752	 0.831984036	-1.3913130136	-0.227594
H	 0.8484595213	 2.0200886666	 0.0629207456	 0.137729
H	-0.6768097655	 1.9280194573	-0.8377289269	 0.147102
H	-0.6928132168	 1.8649078067	 0.9240876828	 0.116641
H	 0.548872857	-0.2553643788	-0.9172674811	 0.095839
H	 0.266525165	-0.2452749418	 2.1310526964	 0.149605
H	 0.8206024741	-1.6131986729	 1.1720504919	 0.146057
H	-1.2369903171	-1.7696100324	-0.010229733	 0.102032
H	-1.9929731088	-0.387451881	 0.7874955466	 0.106465
H	-1.6333248634	-0.6247446269	-2.2685710709	 0.094427
H	-4.1469975485	-0.6456590403	-2.2975540306	 0.118343
H	-4.1819928577	-0.5965603859	-0.459340046	 0.114877
49.9155	64.8177	104.1231	123.4204	203.1068	245.2578	277.8095	331.3018	391.3211	400.5059	435.7833	455.4631	584.2562	791.0357	838.7467	855.9551	891.9182	909.9434	929.4705	962.7732	976.9604	1052.1093	1082.6634	1123.6719	1133.8969	1153.9541	1159.7921	1179.2576	1227.3779	1272.0407	1289.6015	1297.9484	1341.12	1374.9547	1377.9679	1423.1516	1448.6549	1460.9155	1471.9623	1497.8596	1502.8173	1530.7402	2360.4404	3012.3778	3016.5918	3034.1006	3039.2703	3058.6832	3074.8066	3083.0857	3089.6651	3106.5651	3138.2097	3170.3783
CC(CC#N)CC1CO1	C[C@@H](CC#N)C[C@H]1CO1	
InChI=1S/C7H11NO/c1-6(2-3-8)4-7-5-9-7/h6-7H,2,4-5H2,1H3	InChI=1S/C7H11NO/c1-6(2-3-8)4-7-5-9-7/h6-7H,2,4-5H2,1H3/t6-,7-/m0/s1
