18
gdb 48956	3.27197	1.58619	1.36422	3.1067	75.93	-0.2377	-0.034	0.2037	976.1994	0.149584	-401.895529	-401.888598	-401.887654	-401.927049	27.804	
O	-0.8590317538	 1.1010660349	 0.5970340584	-0.256272
C	 0.2132376282	 0.8612567487	 0.0959983085	 0.0552
C	 1.3132913477	 1.860139316	 0.0094558731	 0.282365
C	 1.3513818595	 3.1607257852	 0.8101162455	-0.291202
C	 2.4683132503	 3.5352389544	-0.1959220504	-0.074763
C	 3.5271713401	 2.4868408702	 0.2084671936	-0.156572
N	 2.7538742283	 1.251768335	-0.1429055204	-0.187414
C	 2.615068883	 1.4815491701	-1.6359629192	-0.196608
C	 1.7152416147	 2.6580066335	-1.289418004	-0.075023
H	 0.4366847265	-0.1355311376	-0.3421236161	 0.082659
H	 0.4190581179	 3.7061937037	 0.6486384607	 0.122481
H	 1.593678284	 3.1334102517	 1.8760070572	 0.106328
H	 2.7666794155	 4.5661847741	-0.3790038021	 0.075111
H	 4.4603210924	 2.5173924967	-0.3586206018	 0.104963
H	 3.7630580933	 2.5118467317	 1.2751651697	 0.106961
H	 3.5602431818	 1.6401602896	-2.1641358785	 0.103779
H	 2.0736013139	 0.6531053335	-2.0996457248	 0.112088
H	 0.9949938969	 3.1439637485	-1.9474579296	 0.085919
75.8211	189.8982	228.4567	389.6174	407.8927	466.8772	560.3312	640.1059	676.4866	747.8566	787.9109	834.4327	841.8757	879.4908	904.3948	938.9946	951.8459	974.5122	990.1559	1006.3011	1031.382	1073.8909	1111.1792	1130.8478	1134.8116	1152.2957	1204.3956	1215.7348	1236.5445	1240.942	1265.1492	1291.0039	1312.4002	1328.5566	1421.4834	1489.6801	1510.1598	1533.4693	1809.0332	2896.3526	3050.6825	3060.6942	3066.9842	3107.0769	3114.431	3118.3689	3126.5185	3132.5644
O=CC12CC3CN1CC23	O=C[C@@]12C[C@H]3CN1C[C@@H]23	
InChI=1S/C7H9NO/c9-4-7-1-5-2-8(7)3-6(5)7/h4-6H,1-3H2	InChI=1S/C7H9NO/c9-4-7-1-5-2-8(7)3-6(5)7/h4-6H,1-3H2/t5-,6+,7+/m0/s1
