18
gdb 6667	7.09363	0.69171	0.64982	3.8722	70.	-0.2467	-0.0225	0.2242	1667.5008	0.14968	-384.976783	-384.966894	-384.96595	-385.013901	32.562	
C	-0.0834271917	 1.549380129	-0.0848233631	-0.473614
C	 0.0802217366	 0.039843304	-0.0934604932	 0.37708
O	 1.1579403897	-0.4874454649	-0.2458427773	-0.287063
C	-1.192985408	-0.7778327846	 0.1026334626	-0.300157
C	-0.9684748736	-2.2859457438	 0.0018528072	-0.183333
C	-2.2545887332	-3.0928116458	 0.2425779559	-0.282908
C	-1.9956483257	-4.5827959779	 0.2276308761	 0.161534
O	-2.5816179181	-5.3800691536	-0.4575393015	-0.236244
H	 0.8919828954	 2.0284138337	-0.1758388538	 0.145476
H	-0.7242963788	 1.8642417988	-0.9164160956	 0.141112
H	-0.5752693563	 1.8803261022	 0.8365684588	 0.137124
H	-1.6162678043	-0.5095594311	 1.0817937675	 0.12136
H	-1.9386612285	-0.4384631726	-0.6296641695	 0.12255
H	-0.558777429	-2.5239454251	-0.9855113622	 0.126189
H	-0.1978780029	-2.5813913001	 0.7222788554	 0.121543
H	-2.6589432366	-2.8427954115	 1.2353420307	 0.116513
H	-3.0263717945	-2.8673488514	-0.4998243538	 0.120398
H	-1.1868792704	-4.9109261853	 0.9232179357	 0.072441
27.724	49.6645	75.7281	93.7701	115.1416	135.9799	277.8873	284.8647	433.354	478.1257	509.7997	596.9997	724.5204	779.7148	829.9259	872.5901	935.835	980.9437	1007.9585	1054.0955	1106.7995	1131.3018	1176.3995	1184.2614	1258.9627	1280.8611	1325.2825	1344.9599	1382.5951	1393.0932	1430.5798	1450.7201	1461.5738	1465.254	1476.4147	1495.3505	1812.7609	1837.9555	2851.1031	3003.6367	3010.5303	3036.8399	3040.1643	3050.2046	3080.6142	3096.7916	3099.2047	3153.237
CC(=O)CCCC=O	CC(=O)CCCC=O	
InChI=1S/C6H10O2/c1-6(8)4-2-3-5-7/h5H,2-4H2,1H3	InChI=1S/C6H10O2/c1-6(8)4-2-3-5-7/h5H,2-4H2,1H3
