19
gdb 57986	4.03099	0.70856	0.6244	2.2635	78.5	-0.2614	-0.0315	0.2299	1751.1769	0.155208	-423.016141	-423.005676	-423.004731	-423.052676	37.258	
C	 0.0426355044	 1.5076550913	-0.2411254903	-0.404781
C	-0.0125824868	 0.0286333954	 0.1673275973	 0.064901
O	 0.5754442914	-0.1478660566	 1.4272952221	-0.437321
C	-1.4409387079	-0.5248227268	 0.1802821032	 0.35568
O	-1.8668209584	-1.0291155932	 1.1997264977	-0.327732
C	-2.2691054345	-0.4411808029	-1.0854999499	-0.301363
C	-3.5457272025	-1.2977335244	-1.0167736308	-0.359906
C	-4.3526776905	-1.181266581	-2.2241667684	 0.28352
C	-4.9996644926	-1.0685132954	-3.230719564	-0.424328
H	 1.0758133371	 1.8542379732	-0.163608285	 0.14032
H	-0.2951997198	 1.6596282784	-1.2704331938	 0.117853
H	-0.5708978777	 2.1149866968	 0.431263403	 0.128613
H	 0.5354662059	-0.5597451195	-0.5915417931	 0.090295
H	-0.0909820623	-0.6123073058	 1.9591391641	 0.292902
H	-2.5320241478	 0.6111727821	-1.2522337449	 0.150515
H	-1.6512119121	-0.7261904157	-1.9448901553	 0.137245
H	-3.270677486	-2.345296187	-0.8480486249	 0.144341
H	-4.128273492	-1.0011873398	-0.1383455858	 0.152618
H	-5.5846525581	-0.9800786691	-4.1123737212	 0.196629
47.6974	61.9302	80.3399	101.9679	209.5072	228.919	261.4003	323.9873	348.638	377.1561	425.7849	460.0504	511.191	578.2942	623.9141	647.3412	686.8981	773.6745	810.1087	928.2051	966.8259	978.2841	1020.0681	1056.1197	1096.7605	1101.3805	1173.7291	1200.2855	1270.519	1301.2587	1311.0841	1355.7194	1384.5655	1399.4058	1432.4048	1450.1338	1472.3883	1490.4792	1498.9587	1785.0119	2241.4923	2937.0026	3036.4801	3043.3155	3047.988	3067.7903	3087.7984	3119.2357	3128.8344	3506.9737	3678.9984
CC(O)C(=O)CCC#C	C[C@@H](O)C(=O)CCC#C	
InChI=1S/C7H10O2/c1-3-4-5-7(9)6(2)8/h1,6,8H,4-5H2,2H3	InChI=1S/C7H10O2/c1-3-4-5-7(9)6(2)8/h1,6,8H,4-5H2,2H3/t6-/m1/s1
