18
gdb 86680	2.14958	1.56587	1.21705	3.1945	72.68	-0.2466	-0.0306	0.216	1100.8363	0.145583	-439.041704	-439.032834	-439.03189	-439.075857	32.204	
C	-0.5739960682	 1.4098210236	-0.0139614961	-0.402587
C	-0.0565915736	-0.0149833868	-0.0046451238	 0.080187
O	 1.116992331	-0.1772996662	-0.8447781295	-0.293226
C	 1.9396830082	-0.6046531067	 0.2444193541	-0.013456
C	 3.0909865869	 0.3288590591	 0.5559030983	 0.139613
O	 3.2297675911	 1.4283756441	 0.0905580663	-0.238354
C	 0.745710531	-0.4950322251	 1.2107991318	 0.245547
C	 0.6418843911	-0.1007208668	 2.6303410288	-0.304195
N	 0.3869430244	-1.4911460784	 2.1974056863	-0.358114
H	 0.2208143408	 2.1050245457	 0.2674104513	 0.143732
H	-0.9249250897	 1.6726273761	-1.0165111642	 0.133966
H	-1.4152757749	 1.5216979212	 0.6792638653	 0.111441
H	-0.8430957483	-0.7216519852	-0.3075091843	 0.082436
H	 2.316102373	-1.630544567	 0.1238250525	 0.10481
H	 3.8085890006	-0.0892649219	 1.3008447861	 0.077817
H	 1.5319002736	 0.0317488273	 3.2390011209	 0.129473
H	-0.1987334074	 0.5254799694	 2.9188723775	 0.123298
H	-0.6117195697	-1.6856692124	 2.1659950088	 0.23761
52.3672	79.9642	202.7459	204.0773	222.5622	227.7377	295.6515	376.2797	407.2249	504.8874	544.2752	741.1035	780.187	832.5495	865.8566	895.4253	913.5182	941.7351	961.5593	1022.2876	1032.4155	1077.2869	1084.5732	1109.5813	1125.0266	1150.241	1208.1616	1253.9389	1278.2372	1292.2464	1334.0897	1381.3221	1406.2948	1414.6873	1421.5979	1481.5197	1494.6499	1518.8011	1838.4188	2854.0036	2996.3191	3012.9288	3036.7881	3106.2581	3109.2608	3131.1367	3193.2988	3488.5475
CC1OC(C=O)C11CN1	C[C@H]1O[C@@H](C=O)[C@]21CN2	
InChI=1S/C6H9NO2/c1-4-6(3-7-6)5(2-8)9-4/h2,4-5,7H,3H2,1H3	InChI=1S/C6H9NO2/c1-4-6(3-7-6)5(2-8)9-4/h2,4-5,7H,3H2,1H3/t4-,5+,6-/m1/s1
