14
gdb 31377	3.15921	1.43205	0.99155	3.4709	67.74	-0.2525	-0.0392	0.2133	1118.6592	0.10234	-470.034147	-470.026485	-470.02554	-470.066926	27.327	
C	-0.0520577022	 1.3751227395	-0.0498526473	-0.237517
O	 0.0324552746	-0.0577780848	 0.0470681149	-0.238494
C	 0.6629207928	-0.524708473	 1.1059648688	 0.516866
N	 1.1862712481	 0.1837084248	 2.0203424713	-0.388608
C	 1.8228605022	-0.4767369664	 3.0829620808	 0.370091
N	 2.3570292625	 0.1987010184	 4.0167941103	-0.497582
N	 1.8432583897	-1.9040265623	 3.0707100633	-0.287848
C	 1.2859082428	-2.4898336497	 2.1022373433	 0.122429
O	 0.6529979275	-1.8886467684	 1.0444190574	-0.204352
H	 0.94798218	 1.8115076498	-0.0898161949	 0.157315
H	-0.5987458909	 1.5652035622	-0.9725132868	 0.144546
H	-0.5843467844	 1.7821772836	 0.8121560105	 0.157393
H	 2.7647126354	-0.450631301	 4.6904511142	 0.227563
H	 1.246705252	-3.5697576524	 1.9997772143	 0.158199
82.9248	136.2795	147.7157	215.9587	236.759	424.5178	445.2248	521.4387	562.136	617.7761	734.8719	784.8645	790.3454	906.0548	915.4629	953.4283	966.9054	1049.1857	1081.3135	1160.8549	1182.8068	1220.0967	1331.2262	1370.0659	1406.7307	1479.0283	1479.4202	1496.1315	1661.8689	1723.5092	1768.5762	3062.6242	3144.6003	3173.1681	3198.9254	3489.4549
COC1=NC(=N)N=CO1	COC1=N[C@@H]([NH])N=CO1	
InChI=1S/C4H5N3O2/c1-8-4-7-3(5)6-2-9-4/h2,5H,1H3	InChI=1S/C4H6N3O2/c1-8-4-7-3(5)6-2-9-4/h2-3,5H,1H3/t3-/m0/s1
