16
gdb 72080	2.97049	1.64512	1.47832	1.5523	67.64	-0.2166	-0.0136	0.203	920.9572	0.126648	-437.884027	-437.877286	-437.876342	-437.914882	27.744	
O	-0.085615186	 1.3330303716	 0.0522091149	-0.467664
C	 0.0348626543	-0.038741225	 0.0433520625	 0.408727
C	 1.0734057019	-0.7977929851	 0.8726980769	-0.287272
C	 0.55311062	-2.2082330175	 0.5080127385	-0.1606
N	-0.8887103172	-2.0729452491	 0.8373674267	-0.299645
C	-1.1741974887	-0.8947253062	 0.0127854753	-0.063036
C	-0.2587923667	-0.8905960465	-1.2291826708	-0.302632
C	 0.5861308522	-2.1079443676	-1.0460929664	 0.447793
O	 1.1573448341	-2.8049663348	-1.8426658179	-0.343414
H	 0.7104843737	 1.7121631589	-0.3372345944	 0.291393
H	 2.1032334204	-0.6340965902	 0.540165174	 0.108397
H	 0.9839472751	-0.5795148642	 1.9401818795	 0.122001
H	 1.0408035439	-3.0714782763	 0.9530300588	 0.093948
H	-1.3976073405	-2.8814630486	 0.4822492865	 0.226084
H	-2.177114376	-0.4917625683	-0.0150414163	 0.116028
H	-0.5306747906	-0.4508674911	-2.1770031278	 0.109891
139.0709	263.9946	319.9695	365.069	423.426	466.1332	509.3818	559.7456	603.3767	654.6731	736.6012	791.7816	819.1108	880.5191	882.9758	900.9639	935.1348	954.915	979.748	1014.4508	1048.6913	1083.5008	1117.7634	1128.8797	1144.4426	1203.4154	1227.11	1253.0755	1271.3674	1309.7891	1341.1842	1387.7651	1465.5382	1498.8507	1860.4926	3054.6067	3111.9914	3163.4248	3218.9843	3239.6697	3466.3557	3794.1948
OC12CC3NC1C2C3=O	O[C@@]12C[C@H]3N[C@@H]1[C@@H]2C3=O	
InChI=1S/C6H7NO2/c8-4-2-1-6(9)3(4)5(6)7-2/h2-3,5,7,9H,1H2	InChI=1S/C6H7NO2/c8-4-2-1-6(9)3(4)5(6)7-2/h2-3,5,7,9H,1H2/t2-,3+,5-,6-/m1/s1
