19
gdb 17521	4.52129	1.65239	1.54464	1.9693	73.82	-0.231	0.0716	0.3026	910.4231	0.166525	-327.864058	-327.856879	-327.855935	-327.895331	28.321	
C	-0.0576051881	 1.5443032766	 0.0652932077	-0.381636
C	-0.0302653981	 0.0106848991	 0.0166572483	-0.31191
C	 0.6828602394	-0.526394911	-1.1987465718	 0.32294
C	 0.1348768285	-0.3087387316	-2.643336885	-0.281933
C	 0.8981770208	-1.5779732135	-3.0081155058	-0.032353
C	 0.9334809664	-2.0406372259	-1.6028139543	-0.117868
N	 2.204656783	-1.6211412219	-2.255612925	-0.148272
C	 2.2006262936	-0.36977236	-1.4303085508	-0.18242
H	 0.9556545635	 1.959880221	 0.079711122	 0.121486
H	-0.5745353432	 1.959730228	-0.8059619877	 0.121867
H	-0.5752215151	 1.8995934904	 0.9610979963	 0.115523
H	 0.4585088114	-0.3764245189	 0.9206050886	 0.098363
H	-1.0577269464	-0.3759424495	 0.0358863993	 0.097958
H	-0.9446736537	-0.4782220156	-2.6953810608	 0.101946
H	 0.3877966938	 0.629858702	-3.1492481777	 0.092868
H	 0.8604562414	-2.1583808515	-3.9205073542	 0.096379
H	 0.776041876	-2.9988016305	-1.1244699098	 0.092269
H	 2.5642977256	 0.531216533	-1.9396252005	 0.092278
H	 2.7951771112	-0.5519737101	-0.5301017288	 0.102513
90.491	169.7418	207.3897	320.3085	351.2629	445.2034	454.6637	624.1476	719.0335	745.8981	791.1119	800.0704	846.7421	893.2046	927.2627	952.0967	973.0781	980.9032	993.7435	1012.9098	1024.6574	1068.1036	1106.1665	1132.2255	1152.1976	1166.6899	1200.7778	1212.1746	1248.2664	1269.4833	1300.594	1323.8032	1351.539	1381.3896	1412.4132	1486.6354	1491.0476	1500.5048	1507.5634	1513.6173	3013.4956	3022.3201	3034.2899	3037.2752	3043.8779	3089.0953	3095.0838	3102.4218	3108.5334	3192.2667	3208.459
CCC12CC3C1N3C2	CC[C@]12C[C@@H]3[C@H]1N3C2	
InChI=1S/C7H11N/c1-2-7-3-5-6(7)8(5)4-7/h5-6H,2-4H2,1H3	InChI=1S/C7H11N/c1-2-7-3-5-6(7)8(5)4-7/h5-6H,2-4H2,1H3/t5-,6-,7-,8?/m1/s1
