21
gdb 115878	2.50809	1.39331	1.06832	1.2492	78.3	-0.25	0.0701	0.3201	1215.585	0.182163	-424.221204	-424.21217	-424.211226	-424.25469	34.755	
C	-0.0024923379	 1.5621325268	-0.0875671158	-0.383316
C	 0.0152566563	 0.0332799044	-0.0052563654	-0.198434
C	-1.3777072956	-0.5813948426	 0.0432852609	 0.083627
O	-2.0797208604	-0.2532358673	-1.1555676185	-0.273374
C	-3.1171927849	-1.2148705059	-1.3494224767	-0.094843
C	-2.5806873918	-2.509960371	-0.7700950528	-0.110719
C	-1.1542639911	-2.8641959201	-1.1450896065	-0.354652
C	-1.4459210385	-2.1056754891	 0.1247644577	 0.373482
O	-1.2772754815	-2.6979716191	 1.3740554716	-0.472583
H	 1.0131429112	 1.9676500454	-0.1235460299	 0.107807
H	-0.5361644733	 1.8912208083	-0.9827710378	 0.137069
H	-0.5064022707	 1.9981199577	 0.7821797949	 0.112741
H	 0.5540664314	-0.3847803418	-0.8636521406	 0.099559
H	 0.5535148368	-0.2863091013	 0.8972455863	 0.085938
H	-1.9171798458	-0.1915006596	 0.9256751115	 0.067834
H	-4.0379009996	-0.9166711035	-0.8226241028	 0.094654
H	-3.3291881448	-1.2493593059	-2.423176943	 0.107066
H	-3.2639816063	-3.2980549437	-0.4784843465	 0.099067
H	-0.8756814418	-3.9050286047	-1.0226688481	 0.112408
H	-0.6875677386	-2.3504526377	-1.9797779843	 0.120546
H	-0.3321211632	-2.7890202393	 1.5357944758	 0.286122
90.8392	132.9305	165.7575	228.5776	242.2757	283.7959	289.7289	331.842	424.0915	456.0338	523.5176	568.9588	683.2909	733.6026	775.9261	850.5876	882.2043	932.6356	933.3044	948.0444	969.1393	1011.3667	1050.8791	1066.5519	1082.5434	1093.1075	1121.3473	1128.0785	1161.2242	1225.7104	1237.6601	1280.8313	1290.2749	1324.6856	1332.6853	1348.7377	1373.4705	1404.4141	1410.8094	1416.6873	1475.2528	1483.0523	1496.784	1508.3758	1515.2992	2940.4929	2977.2677	3018.7041	3037.1407	3062.7824	3067.7248	3101.9251	3124.1683	3127.876	3192.2228	3221.5659	3801.7212
CCC1OCC2CC12O	CC[C@H]1OC[C@H]2C[C@@]12O	
InChI=1S/C7H12O2/c1-2-6-7(8)3-5(7)4-9-6/h5-6,8H,2-4H2,1H3	InChI=1S/C7H12O2/c1-2-6-7(8)3-5(7)4-9-6/h5-6,8H,2-4H2,1H3/t5-,6-,7+/m1/s1
