14
gdb 133369	3.13764	1.40574	0.97175	3.1817	71.4	-0.1963	-0.0459	0.1504	1109.6747	0.102216	-474.161421	-474.153783	-474.152839	-474.193401	29.577	
N	-0.0332265397	 1.375563014	 0.1508447605	-0.567013
C	-0.037904564	-0.0054502216	 0.0417374273	 0.278959
N	-1.1574593468	-0.6579479789	 0.030474359	-0.281519
N	-1.0820975358	-2.0162513877	 0.01777701	-0.329898
C	 0.0554236102	-2.8212279453	-0.0127557142	 0.406972
N	 0.0759417684	-4.1067347382	-0.0323893984	-0.571251
C	 1.2868286681	-2.0450120403	-0.0258660014	-0.267421
C	 1.2273399693	-0.7065261131	 0.0038914715	 0.280526
F	 2.3237674095	 0.0558489608	-0.0172123106	-0.072309
H	 0.7525103325	 1.8309565667	-0.2891398404	 0.26118
H	-0.9228671748	 1.7992858234	-0.0713754316	 0.26148
H	-1.9862153995	-2.461367924	 0.0181968204	 0.261457
H	-0.8674053372	-4.4974783205	-0.0228321343	 0.195121
H	 2.2247938899	-2.5822154054	-0.0602446078	 0.143715
101.6269	207.7899	277.9432	316.0224	351.4952	362.7438	409.7995	465.2773	528.1844	539.0079	574.1875	623.2675	673.6904	730.542	744.7013	776.9215	819.6989	919.0752	946.8449	1069.2876	1136.6179	1208.7317	1241.3249	1283.1243	1366.5522	1455.061	1495.5725	1620.4416	1631.6659	1677.6629	1734.2748	3237.0812	3460.4462	3567.7469	3634.6172	3678.4443
NC1=NNC(=N)C=C1F	NC1=NNC(=C[C@H]1F)[NH]	
InChI=1S/C4H5FN4/c5-2-1-3(6)8-9-4(2)7/h1H,(H2,6,8)(H2,7,9)	InChI=1S/C4H6FN4/c5-2-1-3(6)8-9-4(2)7/h1-2,6,8H,(H2,7,9)/t2-/m1/s1
