14
gdb 25487	5.52754	1.01579	0.8581	2.8961	75.72	-0.2561	-0.0603	0.1958	1256.6885	0.102909	-432.91215	-432.904806	-432.903862	-432.945093	26.238	
N	-0.1737108549	 1.3196861769	 0.0106442339	-0.418814
C	-0.0120030556	 0.0716653697	 0.0025099253	 0.105492
O	-1.1348251382	-0.7124521755	 0.0068804132	-0.225949
C	-1.0271497676	-2.0686630283	-0.0004591357	 0.443473
C	-2.2343802723	-2.7867909527	 0.0031692885	-0.081516
N	-2.2405572458	-4.1104224775	-0.0031372264	-0.224699
C	-1.0475544793	-4.7229233444	-0.0130985048	-0.021446
C	 0.1366031778	-4.0021903226	-0.0165924133	-0.015843
N	 0.151112042	-2.6628177043	-0.0101931687	-0.330065
H	 0.7337664281	 1.7825296229	 0.0057797228	 0.238987
H	 0.914339844	-0.5011735821	-0.0080838304	 0.144527
H	-3.1832122147	-2.2590610272	 0.0112842816	 0.137644
H	-1.0461409712	-5.8082616907	-0.0183224753	 0.122598
H	 1.1017260676	-4.5010520742	-0.0246615109	 0.125611
50.315	87.2948	184.7079	223.7643	414.7518	433.9871	486.4786	547.1017	624.5958	722.2414	781.2788	841.5808	874.1832	892.2265	959.2417	982.5248	1022.9413	1041.7306	1068.0722	1091.9695	1197.1872	1249.0959	1260.8881	1325.6474	1330.0308	1391.2042	1440.9066	1502.4596	1586.8005	1619.033	1742.5946	3147.6829	3165.9356	3179.9989	3189.0031	3512.1752
N=COC1=CN=CC=N1	[NH][CH]Oc1cnccn1	
InChI=1S/C5H5N3O/c6-4-9-5-3-7-1-2-8-5/h1-4,6H	InChI=1S/C5H5N3O/c6-4-9-5-3-7-1-2-8-5/h1-4,6H
