17
gdb 133714	3.35801	0.87353	0.83268	2.7951	61.83	-0.2556	0.072	0.3276	1398.8026	0.131854	-549.500304	-549.491232	-549.490288	-549.535455	32.539	
C	 0.0254422806	 1.5461318638	-0.2287156298	-0.394382
C	-0.0068169154	 0.0587556939	 0.0311152575	-0.010633
N	 1.2751139345	-0.6623859077	 0.0072672769	-0.3294
C	 0.5128927995	-0.597247561	 1.2633171062	-0.016443
C	 1.1533670506	 0.1514240577	 2.4108327358	-0.337728
C	 2.0203219342	-0.754796093	 3.2631522369	 0.279602
F	 3.0175245483	-1.3080464896	 2.5616633684	-0.072618
F	 2.5701577383	-0.0787566542	 4.2851748085	-0.081311
F	 1.3008847121	-1.7627589731	 3.7941587164	-0.091096
H	 0.9119980056	 2.0111375774	 0.2077268648	 0.12738
H	 0.0470907644	 1.7426377862	-1.3057782505	 0.125003
H	-0.8643238592	 2.0343848496	 0.183585544	 0.11812
H	-0.8602885812	-0.4472573088	-0.4201159821	 0.085648
H	 1.17991111	-1.5754713311	-0.4273166163	 0.234756
H	-0.012299217	-1.4978794608	 1.5761076262	 0.096805
H	 1.7871626874	 0.9601370315	 2.0427383504	 0.137697
H	 0.3932728974	 0.5813596094	 3.0715755067	 0.128599
36.8712	80.5879	119.2196	167.2882	205.1806	300.0233	358.266	379.225	460.6649	475.9805	535.2543	556.0348	657.2378	773.3619	836.4568	855.6338	884.7708	933.7412	988.3039	1013.9105	1035.7746	1086.4452	1125.7733	1161.2753	1179.932	1221.609	1258.4525	1272.617	1277.2829	1315.1233	1359.9919	1404.1368	1428.1464	1460.5534	1472.7219	1490.954	1504.904	3037.7236	3064.0214	3097.8116	3100.2804	3121.7737	3128.5319	3138.1944	3515.3746
CC1NC1CC(F)(F)F	C[C@H]1N[C@H]1CC(F)(F)F	
InChI=1S/C5H8F3N/c1-3-4(9-3)2-5(6,7)8/h3-4,9H,2H2,1H3	InChI=1S/C5H8F3N/c1-3-4(9-3)2-5(6,7)8/h3-4,9H,2H2,1H3/t3-,4+/m1/s1
