17
gdb 37774	2.74958	2.09528	1.47307	1.6746	79.38	-0.2067	-0.0371	0.1696	906.6044	0.138851	-384.65243	-384.646013	-384.645069	-384.682898	26.852	
O	 0.0284244784	 1.4801497718	 0.1339609166	-0.297922
C	 1.4298316474	 1.5064275147	-0.091875735	 0.084246
C	 2.1848920676	 0.8371304983	 1.0440444595	-0.098522
C	 1.7861283197	 0.8683461536	 2.4634873854	-0.056556
C	 0.7277116504	 0.2978820941	 3.0634169313	-0.091258
C	-0.3211490957	-0.5302350183	 2.4821773955	-0.071239
C	-0.6413324975	-0.6863913096	 1.188878015	-0.090955
C	 0.0334858272	 0.007698428	 0.0512465104	 0.070188
C	 1.5626750379	 0.0115812699	-0.0693535974	-0.195515
H	 1.8405739259	 2.2747659739	-0.7365889854	 0.106009
H	 3.2578535107	 0.9447785166	 0.8912308482	 0.094622
H	 2.4631756598	 1.4359180084	 3.0992738732	 0.092152
H	 0.6415831082	 0.4452735532	 4.1376280764	 0.08594
H	-0.9259531065	-1.0686347729	 3.2093882566	 0.092212
H	-1.4598846122	-1.3533336684	 0.9329364946	 0.091026
H	-0.4226747266	-0.282749751	-0.9016444734	 0.084179
H	 2.1364870953	-0.6707917624	-0.6806698315	 0.101395
176.452	225.2012	324.7869	398.2927	466.9069	499.494	621.8443	672.7036	703.7372	752.7431	804.6685	810.6783	837.7292	857.0483	905.7685	917.5143	944.1011	964.7193	994.8539	1005.2644	1018.8728	1036.3205	1048.1893	1056.2949	1107.3244	1169.1702	1243.2632	1251.9578	1273.115	1287.488	1331.2142	1379.8045	1425.6003	1434.0132	1470.608	1670.278	1710.0329	3040.9779	3120.8008	3132.47	3141.0078	3158.5842	3170.7415	3178.5861	3207.4056
O1C2C3C=CC=CC1C23	O1[C@H]2[C@H]3C=CC=C[C@@H]1[C@@H]23	
InChI=1S/C8H8O/c1-2-4-6-7-5(3-1)8(7)9-6/h1-8H	InChI=1S/C8H8O/c1-2-4-6-7-5(3-1)8(7)9-6/h1-8H/t5-,6+,7-,8-/m0/s1
