19
gdb 102132	3.22502	0.77107	0.64077	2.0563	87.75	-0.2438	0.033	0.2768	1738.5029	0.155617	-385.830578	-385.819607	-385.818663	-385.869015	38.06	
C	-0.0084260182	 1.4559403282	-0.0126185186	-0.499057
C	-0.0161175296	-0.0001225703	-0.0003194213	 0.102517
C	-0.0164777219	-1.2044076435	 0.0262822999	 0.042793
C	-0.0522880727	-2.6641306424	 0.0221519289	-0.211568
C	-1.5152498925	-3.1710927761	-0.0749869841	-0.059761
O	-1.6657147495	-4.5202370367	 0.3020716293	-0.421491
C	 0.8461767034	-3.1954363252	-1.1356349032	-0.352367
C	 0.9389786914	-4.6496486483	-1.2260192987	 0.2854
C	 1.0247455304	-5.8471115705	-1.3134176841	-0.44105
H	 0.8636670861	 1.8449154226	-0.5497052998	 0.148622
H	-0.9036379815	 1.8547839583	-0.5022687953	 0.149475
H	 0.021128931	 1.8614914913	 1.004667246	 0.150604
H	 0.3480388878	-3.0462983659	 0.9697766952	 0.119811
H	-2.1308129851	-2.5878325693	 0.6152724343	 0.117715
H	-1.8920266813	-2.9766074426	-1.0928629899	 0.089766
H	-1.1186360346	-5.0580213829	-0.2830723046	 0.28659
H	 0.4607083074	-2.794781874	-2.0813452831	 0.142088
H	 1.8524943925	-2.7795770048	-1.0144100513	 0.145335
H	 1.1157097269	-6.9027313779	-1.3895711199	 0.204578
9.9247	61.6339	80.2824	100.3048	155.7638	185.6918	262.9399	291.9986	344.4098	353.7995	394.8688	432.8533	461.2159	508.5958	523.7954	624.7016	644.1972	818.6526	858.942	885.3272	969.3943	1052.0276	1052.9345	1062.3263	1067.8578	1090.292	1170.152	1188.6777	1271.7785	1275.945	1312.1695	1351.2694	1397.1387	1414.8975	1437.9592	1466.5463	1478.1039	1478.6375	1505.2491	2225.789	2368.5863	2968.9531	3026.9586	3027.2138	3035.873	3071.5159	3087.9958	3088.631	3089.3317	3501.1507	3772.526
CC#CC(CO)CC#C	CC#C[C@@H](CO)CC#C	
InChI=1S/C8H10O/c1-3-5-8(7-9)6-4-2/h1,8-9H,5,7H2,2H3	InChI=1S/C8H10O/c1-3-5-8(7-9)6-4-2/h1,8-9H,5,7H2,2H3/t8-/m0/s1
