19
gdb 72122	2.41813	2.24424	1.72824	1.4933	78.57	-0.2371	0.0073	0.2444	890.8243	0.16146	-385.875172	-385.868415	-385.867471	-385.905694	28.98	
C	-0.0078028994	 1.5373717668	-0.0022254276	-0.506182
C	-0.0202463443	 0.0286724478	-0.0356141999	 0.306942
C	 0.231694684	-0.8118475974	-1.3110431111	-0.288608
C	-0.3466580936	-1.9337473503	-0.430169394	 0.075979
O	 0.6708011793	-2.1109834802	 0.5399057235	-0.279056
C	 0.7315869642	-0.7440261107	 1.0944513165	 0.019274
C	-0.2488444144	-0.7712963817	 2.2439237689	-0.091529
C	-1.4713014	-0.8869199325	 1.7035267939	-0.081592
C	-1.3206350083	-0.8205570089	 0.2231865387	-0.123364
H	 1.0013416743	 1.9273743565	-0.1784547181	 0.117881
H	-0.6639289196	 1.952815383	-0.7738942118	 0.116419
H	-0.3473433583	 1.9106729833	 0.9693821994	 0.125347
H	-0.4293609059	-0.5073550302	-2.1268253946	 0.094655
H	 1.2562457933	-0.9476270913	-1.66577227	 0.095941
H	-0.7062131218	-2.8943221334	-0.7947593392	 0.080685
H	 1.7700174838	-0.4839895887	 1.2992017211	 0.070357
H	 0.024676809	-0.8586180842	 3.2874412696	 0.099166
H	-2.4000960969	-1.0730497426	 2.2289625551	 0.099132
H	-2.1889674254	-0.5861296151	-0.3915744104	 0.06855
218.0379	240.8381	268.4187	390.9264	412.8063	467.1716	526.6569	602.3471	645.4796	708.8274	769.7421	783.5357	800.7545	841.7576	880.916	900.7445	929.4512	935.8568	945.0984	962.0051	975.6695	1006.9613	1034.0221	1081.678	1103.8142	1126.5277	1138.1492	1193.0015	1211.2876	1224.3839	1250.3427	1264.8945	1279.5153	1325.7604	1340.1663	1365.6953	1409.4748	1489.1584	1492.929	1494.6292	1626.0939	3028.1711	3059.0181	3091.2548	3102.8218	3118.5836	3120.5858	3124.8531	3140.4128	3197.2171	3224.4485
CC12CC3OC1C=CC23	C[C@@]12C[C@H]3O[C@@H]1C=C[C@@H]23	
InChI=1S/C8H10O/c1-8-4-6-5(8)2-3-7(8)9-6/h2-3,5-7H,4H2,1H3	InChI=1S/C8H10O/c1-8-4-6-5(8)2-3-7(8)9-6/h2-3,5-7H,4H2,1H3/t5-,6-,7-,8+/m1/s1
