20
gdb 79085	2.96095	1.77556	1.28706	1.0578	83.96	-0.2015	0.0021	0.2036	1028.9119	0.170249	-365.923392	-365.915248	-365.914303	-365.955833	32.402	
C	-0.9284806276	 1.4275429118	-0.129938678	-0.329199
N	-0.6365723271	-0.0028360521	-0.0841123808	-0.108579
C	-1.3540368817	-0.8862508262	 0.8937622148	-0.078073
C	-0.2446092881	-1.9649923187	 0.64298553	-0.047308
C	-0.042304805	-2.7388408858	 1.9230212565	-0.126489
C	-0.1585067793	-1.8141211612	 2.8755148158	-0.134467
C	-0.419362515	-0.5030185628	 2.1394196156	 0.299711
C	-0.5478226047	 0.7239047384	 3.0264145183	-0.520259
C	 0.4424049979	-0.5613268634	 0.8011250963	-0.073747
H	-0.0087839997	 1.9776746108	-0.3579122438	 0.116171
H	-1.6278417609	 1.6092907363	-0.9541928715	 0.117395
H	-1.3720875709	 1.8632870191	 0.77395814	 0.103271
H	-2.4409114156	-1.0214329989	 0.8778830334	 0.071345
H	-0.2111920292	-2.4398560904	-0.3348191373	 0.07529
H	 0.1508951431	-3.7990548017	 2.0069810812	 0.105072
H	-0.0855560442	-1.9180066039	 3.9507318151	 0.096699
H	 0.2427708859	 0.7087678634	 3.7860107574	 0.117598
H	-0.4605536822	 1.6687434031	 2.4927718222	 0.125451
H	-1.505912695	 0.722836174	 3.5592392956	 0.120475
H	 1.4988802792	-0.3062534719	 0.6626588192	 0.069644
90.6441	108.371	194.6071	284.7315	312.621	336.6224	417.3505	499.1317	507.9441	635.7685	655.3303	686.5006	741.7069	774.5045	781.5265	790.3859	894.588	901.7374	915.574	932.4113	982.4306	1030.4325	1070.1329	1086.8696	1113.2576	1117.6689	1131.6218	1141.8765	1164.859	1183.4819	1193.8368	1200.2713	1260.7177	1298.1887	1305.173	1348.409	1411.5946	1448.2457	1481.8874	1489.7181	1496.653	1528.4122	1647.1632	3009.7172	3030.3776	3053.2535	3061.04	3061.8681	3080.8167	3088.1184	3152.2027	3156.0919	3203.3134	3238.7859
CN1C2C3C=CC2(C)C13	CN1[C@H]2[C@@H]3C=C[C@@]2(C)[C@H]13	
InChI=1S/C8H11N/c1-8-4-3-5-6(8)9(2)7(5)8/h3-7H,1-2H3	InChI=1S/C8H11N/c1-8-4-3-5-6(8)9(2)7(5)8/h3-7H,1-2H3/t5-,6-,7+,8+
