19
gdb 84758	3.20715	1.24001	0.95206	3.5991	84.24	-0.2303	-0.0499	0.1804	1246.4964	0.159586	-385.920496	-385.912118	-385.911174	-385.953608	32.299	
C	-1.1929356646	 0.7288352178	 0.0027609484	-0.420174
C	 0.2371982351	 0.1737232423	-0.0832045555	-0.085258
C	 0.9047339151	 0.570813987	-1.3890253621	-0.029891
C	 2.1248933717	 0.1811476849	-1.7430542351	-0.09703
C	 2.9989546078	-0.6855831138	-0.8687293389	-0.368088
C	 3.4152443074	 0.0123357054	 0.4267514725	 0.370997
O	 4.5867040185	 0.1280181976	 0.7273397822	-0.321377
C	 2.3606599293	 0.5066705329	 1.3432644495	-0.159713
C	 1.0361512459	 0.5561663551	 1.1459962086	-0.022134
H	-1.1849613973	 1.8242335247	 0.0130831512	 0.127244
H	-1.7867082661	 0.4044483156	-0.8566996022	 0.121299
H	-1.6970955996	 0.3861800109	 0.9112789549	 0.118456
H	 0.1618023336	-0.9284332179	-0.0781590852	 0.112604
H	 0.3214877328	 1.2016235956	-2.0551708386	 0.093791
H	 2.5447154282	 0.5079617793	-2.6896350456	 0.104253
H	 2.4516383294	-1.5985719416	-0.5883340611	 0.124167
H	 3.9132182152	-0.98954858	-1.3801921443	 0.122871
H	 2.7651055113	 0.8532388485	 2.2908628605	 0.104737
H	 0.4324987962	 0.9220103756	 1.9763596308	 0.103245
58.723	120.7866	240.4061	274.1312	300.1163	332.0071	344.1416	372.7879	477.4352	528.0914	618.007	645.4531	684.7647	719.4717	812.8761	833.9467	872.6521	938.0547	965.3586	984.4527	1004.4696	1023.057	1044.2069	1087.946	1139.6216	1172.5135	1222.1034	1240.4421	1268.163	1302.9151	1304.3443	1306.8353	1396.3018	1407.1246	1425.2651	1463.9151	1499.229	1501.3133	1684.1723	1720.2496	1769.9193	2940.581	2996.3386	3035.5976	3105.5697	3112.9682	3121.1896	3126.0935	3153.2635	3169.8211	3180.8023
CC1C=CCC(=O)C=C1	C[C@H]1C=CCC(=O)C=C1	
InChI=1S/C8H10O/c1-7-3-2-4-8(9)6-5-7/h2-3,5-7H,4H2,1H3	InChI=1S/C8H10O/c1-7-3-2-4-8(9)6-5-7/h2-3,5-7H,4H2,1H3/t7-/m0/s1
