16
gdb 69642	3.24281	1.27194	1.16662	3.3595	71.93	-0.239	-0.035	0.204	1096.5921	0.121702	-437.798801	-437.790799	-437.789855	-437.831311	30.321	
C	-0.1128121817	 1.5266902833	 0.0238019831	-0.50789
C	 0.1041302783	 0.0516359826	 0.0219796626	 0.439896
O	-0.8288089632	-0.8158735157	 0.6617997763	-0.255193
C	 0.5484218299	-0.9192788413	 1.0255622909	-0.112097
C	 1.297609946	-1.7540417717	-0.0591894243	 0.22508
N	 0.3293579315	-2.1342284366	-1.1221474084	-0.334874
C	 0.8295386	-0.7726619399	-1.1151411752	-0.20223
C	 2.6468513621	-2.2977072415	 0.0385513448	 0.053306
O	 3.3076974396	-2.3067262138	 1.0521258808	-0.274552
H	 0.8093325797	 2.0546124415	-0.240243624	 0.131584
H	-0.8840792098	 1.8064464987	-0.7024477597	 0.139041
H	-0.4349404941	 1.8584038793	 1.0139131661	 0.144953
H	 0.832936285	-0.8221653952	 2.0648896768	 0.129864
H	 0.8418859427	-2.6578129258	-1.8345139503	 0.242697
H	 1.4119164438	-0.3544026598	-1.9272638641	 0.118284
H	 3.0436840701	-2.6999909742	-0.9241849954	 0.062131
95.2889	164.2408	200.2787	212.4549	266.9664	327.9034	420.3236	462.9895	503.314	584.5642	642.1385	703.6079	766.8091	787.4958	842.772	875.9247	915.8945	941.5456	999.3474	1013.3174	1036.2705	1069.6523	1085.0151	1123.7573	1170.6267	1198.6678	1251.3493	1333.51	1381.1765	1405.3067	1431.2575	1469.046	1484.6698	1496.1807	1788.5703	2844.2347	3035.8525	3099.0895	3126.813	3194.592	3213.9257	3454.2148
CC12OC1C1(NC21)C=O	C[C@]12O[C@H]1[C@]1(N[C@@H]21)C=O	
InChI=1S/C6H7NO2/c1-5-3-6(2-8,7-3)4(5)9-5/h2-4,7H,1H3	InChI=1S/C6H7NO2/c1-5-3-6(2-8,7-3)4(5)9-5/h2-4,7H,1H3/t3-,4+,5+,6-/m0/s1
