19
gdb 89287	2.1781	1.82164	1.18035	4.2826	75.06	-0.2653	0.0105	0.2758	1097.4822	0.158428	-423.054709	-423.046148	-423.045204	-423.087741	32.631	
C	-0.5637185636	 1.3841633514	 0.0672601525	-0.410257
C	 0.0704284637	 0.0020363443	 0.0105944065	 0.025636
C	 1.3903155867	-0.1913205845	-0.8061279238	-0.303562
C	 2.0776645652	-0.7831747897	 0.4473747352	 0.45203
C	 2.9083022213	-2.0328679104	 0.3872032653	-0.482153
O	 2.7460438457	 0.2919400798	 1.2076902007	-0.287279
C	 1.6400784551	 0.4879282102	 2.0031377102	 0.453077
O	 1.5269176301	 1.2599166964	 2.9017588071	-0.337692
C	 0.7907445794	-0.5535249836	 1.2894624853	-0.305165
H	 0.1530008342	 2.1429403797	 0.3965570686	 0.138071
H	-0.9330397033	 1.6769025922	-0.9213938216	 0.118148
H	-1.4096063717	 1.4040181645	 0.7621186813	 0.126326
H	-0.6742982255	-0.7321800965	-0.3091583137	 0.087393
H	 1.2989832986	-0.8907021029	-1.6404117773	 0.108367
H	 1.8666439658	 0.7255169922	-1.1605157202	 0.118734
H	 3.8208812889	-1.857937537	-0.1926036863	 0.138165
H	 3.197413349	-2.3586703947	 1.3905863932	 0.134071
H	 2.3490514419	-2.8400800635	-0.0955878441	 0.125709
H	 0.2830736284	-1.2964807979	 1.9022252514	 0.100378
84.55	135.477	215.8969	220.8821	227.6041	295.4157	369.3272	388.3506	409.3101	503.7328	604.1382	637.3621	715.4194	797.7309	840.7678	866.5348	882.7208	908.0584	926.7597	971.023	1001.4049	1038.4582	1095.0106	1107.4324	1139.6642	1159.5986	1204.0221	1217.8853	1238.8046	1247.8993	1307.5955	1330.5614	1363.8028	1416.4024	1419.0021	1470.821	1481.9929	1490.3353	1493.8194	1496.7964	1925.1512	3033.927	3037.5742	3058.7055	3068.5799	3101.3209	3107.3266	3109.6493	3117.6154	3125.9317	3133.8496
CC1CC2(C)OC(=O)C12	C[C@H]1C[C@@]2(C)OC(=O)[C@@H]12	
InChI=1S/C7H10O2/c1-4-3-7(2)5(4)6(8)9-7/h4-5H,3H2,1-2H3	InChI=1S/C7H10O2/c1-4-3-7(2)5(4)6(8)9-7/h4-5H,3H2,1-2H3/t4-,5+,7+/m0/s1
