17
gdb 46149	4.38791	1.01555	0.86686	2.6756	75.15	-0.2376	-0.0265	0.2111	1288.7043	0.1349	-421.808548	-421.800157	-421.799213	-421.841782	31.573	
O	 0.0390320322	-0.0593566258	 0.211137507	-0.295319
C	-0.0177227943	 1.1289430699	 0.0069898155	 0.385869
C	-1.3262029276	 1.9021920062	-0.0682360908	-0.332125
C	-1.2802989133	 3.0566609061	-1.0828655219	-0.212008
C	 0.0271081124	 3.8520900452	-0.9239464005	-0.068057
O	 1.1447380381	 2.9867748844	-1.1180419874	-0.253019
C	 1.2445802379	 1.9837302415	-0.1222402648	-0.174803
C	 0.1232002673	 4.9489187815	-1.8807485315	 0.29479
C	 0.1604041971	 5.8579271815	-2.664291536	-0.395202
H	-2.1406011333	 1.2014979245	-0.2669027215	 0.130428
H	-1.4937813723	 2.3124081229	 0.9391919293	 0.129022
H	-1.3127460974	 2.6696585639	-2.1062167016	 0.129285
H	-2.1403267842	 3.7206480701	-0.9535513294	 0.117307
H	 0.0691965498	 4.2704706862	 0.0986816819	 0.094078
H	 1.4508355627	 2.432526943	 0.8677805265	 0.109019
H	 2.0867319719	 1.3430179468	-0.3889995904	 0.140087
H	 0.207405553	 6.6621217821	-3.3566685846	 0.200648
62.9985	140.9861	160.6986	192.2258	304.6264	378.8419	417.7311	447.2219	454.491	536.1352	547.5179	630.747	673.5111	678.5815	754.7592	798.7743	879.3485	931.0902	974.913	1046.5244	1063.4058	1093.2889	1123.4743	1172.9423	1204.219	1252.4781	1270.486	1312.919	1337.2886	1358.2539	1374.3982	1390.3312	1457.1179	1465.4313	1484.6891	1828.0175	2247.9966	2931.8574	2936.9667	3008.8427	3053.9893	3100.0049	3107.7433	3123.3782	3502.9285
O=C1CCC(OC1)C#C	O=C1CC[C@@H](OC1)C#C	
InChI=1S/C7H8O2/c1-2-7-4-3-6(8)5-9-7/h1,7H,3-5H2	InChI=1S/C7H8O2/c1-2-7-4-3-6(8)5-9-7/h1,7H,3-5H2/t7-/m0/s1
