15
gdb 61348	3.18888	0.93633	0.80256	3.0251	75.42	-0.2815	-0.0581	0.2234	1399.0156	0.109904	-416.781034	-416.771618	-416.770674	-416.8159	33.242	
C	-0.0381147071	 1.555307849	 0.0021666454	-0.403887
C	-0.0130742014	 0.0257798808	 0.0197057225	-0.067314
O	 0.5883471831	-0.4712752338	-1.2158848663	-0.241398
C	-0.2261218214	-0.6259069813	-2.2629513439	 0.336613
N	-1.4637962451	-0.3483918879	-2.2640398329	-0.518938
C	 0.4984948022	-1.1584096234	-3.4056474936	 0.25755
N	 1.0110980445	-1.5765304347	-4.3531589019	-0.313391
C	 0.7768371291	-0.516106943	 1.1166295004	 0.335641
C	 1.4086091921	-0.9343222513	 2.0478126083	-0.427614
H	 0.9747585108	 1.948439509	-0.1108759888	 0.14115
H	-0.6647103402	 1.9056016947	-0.8202127386	 0.146404
H	-0.4535841437	 1.9232072153	 0.9437666828	 0.139268
H	-1.0361952572	-0.3596223798	 0.0618509693	 0.151148
H	-1.8962221117	-0.5580148092	-3.1600826244	 0.255291
H	 1.9668744258	-1.3142567545	 2.8679532317	 0.209476
62.4791	74.426	119.057	186.4603	211.0679	237.0834	303.1428	318.6704	396.7521	468.1671	540.9076	545.8608	622.9262	632.533	688.9724	732.1372	837.4855	842.8224	879.503	935.12	1037.9776	1101.0455	1111.3897	1139.0864	1332.7222	1347.9524	1393.1689	1400.8396	1486.6506	1494.1845	1698.871	2248.9238	2357.2895	3057.2506	3073.3047	3136.5109	3148.4844	3502.3296	3538.8843
CC(OC(=N)C#N)C#C	C[C@@H](O[C]([NH])C#N)C#C	
InChI=1S/C6H6N2O/c1-3-5(2)9-6(8)4-7/h1,5,8H,2H3	InChI=1S/C6H6N2O/c1-3-5(2)9-6(8)4-7/h1,5,8H,2H3/t5-/m1/s1
