18
gdb 93809	2.98368	1.37089	1.0106	2.6556	69.72	-0.266	0.0152	0.2812	1170.8605	0.147633	-476.238398	-476.229815	-476.228871	-476.271677	32.291	
C	-0.5400670004	 1.3631493406	 0.0727551498	-0.405315
C	-0.0816152546	-0.0680259065	-0.0795384546	 0.204922
O	 0.9083362909	-0.1348316819	-1.0514932864	-0.246773
C	 1.378149073	-1.4602954277	-1.3143174538	-0.093272
C	 1.1513985454	-2.4065098249	-0.1124649973	 0.020496
O	 2.0873111263	-3.4442221796	-0.1113733314	-0.442655
C	 1.2036196356	-1.605874356	 1.173907954	 0.390508
N	 1.920195027	-2.0191202358	 2.1314290061	-0.555969
O	 0.4502107465	-0.4858532635	 1.2031872404	-0.246598
H	 0.3198908275	 1.999233206	 0.2945808823	 0.143318
H	-1.0049057334	 1.7009042554	-0.8560189002	 0.134898
H	-1.2642930397	 1.439573534	 0.8865379758	 0.13472
H	-0.9238059558	-0.7365844178	-0.3211078992	 0.08448
H	 0.8934440961	-1.8582524918	-2.2147139714	 0.109837
H	 2.4533820578	-1.3909684584	-1.4951454004	 0.135222
H	 0.1320676111	-2.8238441427	-0.1817498184	 0.102197
H	 2.4764675561	-3.4295911417	 0.7803698682	 0.299039
H	 1.8819030006	-1.3996263679	 2.9398288566	 0.230945
80.7518	119.4954	174.8738	213.9732	283.3396	313.4958	379.9992	415.9889	448.4842	467.7732	525.1263	588.6535	648.666	730.7198	785.1577	874.2158	878.5032	900.9003	1033.5009	1051.4329	1076.0712	1086.192	1112.3524	1147.3867	1174.6099	1180.8107	1239.3721	1273.4674	1334.6897	1360.6865	1387.3969	1400.2642	1411.407	1433.127	1465.3073	1481.7969	1488.5669	1516.8111	1759.4236	2950.3917	2975.6455	3026.3121	3061.1271	3108.5766	3144.5989	3145.7532	3502.991	3643.3508
CC1OCC(O)C(=N)O1	C[C@H]1OC[C@@H](O)[C]([NH])O1	
InChI=1S/C5H9NO3/c1-3-8-2-4(7)5(6)9-3/h3-4,6-7H,2H2,1H3	InChI=1S/C5H9NO3/c1-3-8-2-4(7)5(6)9-3/h3-4,6-7H,2H2,1H3/t3-,4+/m0/s1
