15
gdb 125915	4.46015	1.30581	1.06386	5.1456	67.86	-0.227	-0.043	0.184	1081.7257	0.112781	-453.909372	-453.902053	-453.901109	-453.941677	27.474	
C	 0.2214008794	 1.5004982356	 0.0966451242	-0.397356
C	 0.0331027521	 0.0027353129	-0.0256703248	 0.117887
C	 0.729954003	-0.6446431314	-1.2928643477	-0.396777
C	 1.433314208	-1.7722360118	-0.6207103796	 0.292358
C	 1.3076183473	-1.6710483821	 0.7182073404	 0.353671
O	 0.5840561542	-0.6363394163	 1.1892728033	-0.284238
N	 1.9992822589	-2.6765810565	 1.3039305374	-0.217494
N	 2.543265835	-3.3876789945	 0.40888242	-0.036989
O	 2.1908695507	-2.8109005501	-0.9134170695	-0.231567
H	 1.2854869172	 1.7538359622	 0.1217493986	 0.135492
H	-0.2378307872	 2.0077617411	-0.7579084241	 0.128011
H	-0.245844911	 1.8727541555	 1.011754598	 0.142555
H	-1.0311667657	-0.2542441835	-0.0337072973	 0.111275
H	-0.0078053849	-0.9502373357	-2.0398576919	 0.143807
H	 1.423564913	 0.0549221746	-1.7752642169	 0.139364
44.943	202.8488	245.2907	281.0508	336.1624	433.0534	438.6551	503.6713	591.3464	648.933	710.6466	734.5945	774.0566	826.5868	884.2515	927.7714	997.6876	1049.7875	1095.1559	1122.6197	1193.8474	1212.0638	1260.5047	1323.6561	1363.943	1372.3666	1412.6321	1428.6191	1483.491	1487.8701	1492.3661	1500.9001	1661.3155	3031.5656	3043.6962	3051.9765	3088.8174	3117.2732	3129.2635
CC1CC2=C(O1)N=NO2	C[C@H]1Cc2c(O1)nno2	
InChI=1S/C5H6N2O2/c1-3-2-4-5(8-3)6-7-9-4/h3H,2H2,1H3	InChI=1S/C5H6N2O2/c1-3-2-4-5(8-3)6-7-9-4/h3H,2H2,1H3/t3-/m0/s1
