23
gdb 59239	2.35804	1.41005	1.036	1.1607	85.05	-0.2496	0.0755	0.3251	1256.4992	0.20488	-388.263821	-388.254127	-388.253183	-388.297959	37.4	
C	 1.1999921764	 0.58877539	 1.0574877818	-0.406214
C	 0.1488528263	 0.5204452686	-0.051307194	 0.112678
O	-0.2021321273	 1.8277270451	-0.5128045157	-0.440313
C	 0.6596652529	-0.2304870003	-1.2741746917	 0.022445
C	 1.0437581341	-1.708496117	-1.1280834713	-0.075301
C	-0.1614850189	-2.5731249594	-0.8690252568	-0.284727
C	 0.097994993	-2.0922350193	-2.2680009549	-0.057583
C	-0.3260721395	-0.6238990586	-2.4457158128	-0.003341
C	-1.8073229183	-0.2690208293	-2.368852029	-0.408297
H	 1.4668925082	-0.4135221709	 1.4071760268	 0.123054
H	 2.1049942922	 1.0870357565	 0.6946621365	 0.120218
H	 0.8233187476	 1.152336936	 1.9191963904	 0.099743
H	-0.7468513651	 0.0161339251	 0.343548644	 0.058976
H	-0.5500684794	 2.3224938371	 0.2357554651	 0.278441
H	 1.4925931727	 0.3507692698	-1.6828754698	 0.074851
H	 2.0468281061	-2.0703692221	-0.9348461968	 0.080987
H	 0.0605780493	-3.6216598508	-0.6965554374	 0.10774
H	-1.0085780356	-2.2091229442	-0.2944224681	 0.104283
H	 0.2722495465	-2.7899513216	-3.0788054939	 0.079454
H	 0.0804024118	-0.2301437556	-3.3819328527	 0.073532
H	-2.2919561988	-0.7041173548	-1.4889428962	 0.105535
H	-1.9399272282	 0.8151138018	-2.3187580525	 0.129453
H	-2.3372706759	-0.6448095662	-3.251220251	 0.104385
72.9282	127.0954	158.5774	215.1238	233.9003	250.4264	273.4651	291.2559	336.9622	437.7317	454.7938	507.9426	556.2746	670.2287	768.6344	795.816	802.3054	885.1234	910.5197	932.2012	957.7128	995.3642	1015.8916	1018.3928	1059.2131	1068.9388	1075.4153	1087.9621	1094.639	1125.3431	1139.5692	1159.6194	1183.8863	1228.7415	1254.7995	1275.6399	1309.7342	1340.8999	1365.6112	1367.5037	1372.7676	1402.1309	1405.0702	1432.7031	1486.0163	1492.4301	1497.7199	1499.0317	1503.3399	2976.2133	3025.8708	3032.2439	3045.2296	3061.8622	3092.162	3094.0217	3111.4902	3115.7506	3117.5337	3168.8397	3177.8356	3199.19	3816.3713
CC(O)C1C2CC2C1C	C[C@@H](O)[C@H]1[C@H]2C[C@H]2[C@H]1C	
InChI=1S/C8H14O/c1-4-6-3-7(6)8(4)5(2)9/h4-9H,3H2,1-2H3	InChI=1S/C8H14O/c1-4-6-3-7(6)8(4)5(2)9/h4-9H,3H2,1-2H3/t4-,5-,6+,7+,8+/m1/s1
