21
gdb 111854	2.31429	1.38984	1.09585	1.4402	78.26	-0.2288	0.0727	0.3015	1220.1739	0.182072	-424.210513	-424.201338	-424.200394	-424.244633	34.728	
C	-0.2201391535	 1.4719494222	 0.1366050549	-0.375075
C	 0.1837188318	 0.0150678128	-0.1209796872	-0.203943
C	 0.8347673356	-0.6160346119	 1.0897268774	-0.054749
C	 0.031392559	-1.2983673073	 2.1877818166	-0.014439
O	-1.290582342	-1.6436523022	 1.864642159	-0.258055
C	-1.2754935852	-2.9349984504	 1.2402816175	-0.063452
C	 0.0902631095	-3.0674835066	 0.5344161021	-0.321338
C	 0.977747575	-2.0985029528	 1.3272069695	 0.330326
O	 2.234838371	-2.5250686152	 1.7581966914	-0.46748
H	 0.6475945744	 2.0837132997	 0.4069086508	 0.111833
H	-0.6792631271	 1.9174867291	-0.7513426141	 0.108343
H	-0.9413516774	 1.5331814248	 0.9575831441	 0.127609
H	-0.7071640592	-0.5544724205	-0.4023222842	 0.104033
H	 0.8734226092	-0.0350893989	-0.9730640858	 0.09721
H	 1.6924174138	-0.0708091234	 1.4802721742	 0.091579
H	 0.2144706146	-1.0805437591	 3.2361983466	 0.092941
H	-1.3919052631	-3.7188872428	 2.0044945412	 0.091242
H	-2.1335476842	-2.9853457407	 0.5645740696	 0.109551
H	 0.4941248052	-4.0813712698	 0.6060929905	 0.101989
H	 0.0319886935	-2.8125609154	-0.5279343214	 0.114492
H	 2.109550809	-3.2472782413	 2.3847490073	 0.277382
54.656	116.2861	157.8201	193.4686	245.0331	269.4388	294.2691	335.3794	392.09	492.8813	574.3386	605.4879	646.3712	744.2098	778.3946	826.9958	858.3998	913.2887	947.3682	955.2322	979.0916	1009.8176	1035.1369	1051.3937	1088.1716	1113.863	1131.0614	1155.7975	1195.5368	1229.6675	1244.9452	1260.2668	1288.2561	1305.078	1319.7734	1338.1275	1375.2263	1392.6975	1409.1274	1462.4907	1481.0695	1493.9016	1498.5329	1505.9383	1518.98	2983.3974	3027.1631	3033.1018	3054.2285	3075.6345	3086.5573	3100.9534	3102.86	3110.0586	3129.6268	3149.2642	3781.9994
CCC1C2OCCC12O	CC[C@H]1[C@H]2OCC[C@@]12O	
InChI=1S/C7H12O2/c1-2-5-6-7(5,8)3-4-9-6/h5-6,8H,2-4H2,1H3	InChI=1S/C7H12O2/c1-2-5-6-7(5,8)3-4-9-6/h5-6,8H,2-4H2,1H3/t5-,6+,7+/m0/s1
