19
gdb 57620	4.35593	0.84724	0.83186	1.5596	83.48	-0.2557	0.0279	0.2836	1434.0526	0.153747	-385.824192	-385.81347	-385.812526	-385.859654	39.596	
C	 0.020255458	 1.6311822604	 0.0224148168	-0.399339
C	 0.0178596145	 0.1042462148	 0.0313180469	 0.334138
O	 0.6929964942	-0.2770948103	 1.2188277335	-0.443178
C	-1.4326389975	-0.4607172489	 0.0254193699	-0.40509
C	-2.2337128858	-0.0526223808	 1.1706874939	 0.322147
C	-2.9042402788	 0.2816448212	 2.1101902018	-0.437964
C	 0.7472795125	-0.4712975428	-1.2175777398	-0.405428
C	 2.1442552338	-0.075154036	-1.3245876614	 0.322149
C	 3.2970922554	 0.2490795864	-1.4238156365	-0.437938
H	 1.048276228	 1.9987172457	 0.0271696307	 0.139366
H	-0.4865578753	 2.015425305	-0.8679557137	 0.10863
H	-0.4950874238	 2.0062289619	 0.9088064543	 0.139429
H	 0.7190433637	-1.2391163868	 1.2664950384	 0.278932
H	-1.9329067369	-0.1559627026	-0.9028805984	 0.130408
H	-1.3784993742	-1.5585168892	-0.0068524065	 0.116346
H	-3.4912280286	 0.5770484099	 2.9441037458	 0.195244
H	 0.6828226727	-1.5685064464	-1.1835966172	 0.116374
H	 0.206026857	-0.1652994378	-2.1221619797	 0.130499
H	 4.3161796012	 0.5356425165	-1.5049044088	 0.195273
62.7919	76.3336	103.2872	172.4733	225.1885	267.4087	281.8935	321.9809	345.8395	350.5131	375.9946	390.9605	415.5161	463.1578	616.8714	617.2398	636.7798	640.3164	671.1515	784.1598	858.5451	900.5962	924.5691	970.7978	989.1955	1007.9488	1096.0205	1158.128	1164.3324	1211.3025	1264.1846	1331.5782	1340.8181	1387.886	1427.0744	1457.5159	1471.7039	1487.353	1501.2032	2240.226	2240.4394	2999.4522	3006.0948	3040.1154	3047.9372	3054.2155	3128.4295	3145.7773	3506.7402	3507.0379	3800.0512
CC(O)(CC#C)CC#C	CC(O)(CC#C)CC#C	
InChI=1S/C8H10O/c1-4-6-8(3,9)7-5-2/h1-2,9H,6-7H2,3H3	InChI=1S/C8H10O/c1-4-6-8(3,9)7-5-2/h1-2,9H,6-7H2,3H3
