19
gdb 106070	2.42134	1.63939	1.36651	2.3353	74.89	-0.2392	0.0608	0.2999	1029.8996	0.159134	-422.969105	-422.960686	-422.959741	-423.002149	32.575	
O	 0.0841493249	 1.3751748783	 0.2618349892	-0.42105
C	 0.0394417467	-0.0263643316	 0.0171956007	-0.224356
C	-1.3613253959	-0.5373553286	 0.0220432845	 0.315603
C	-2.3822711467	-0.8661593583	 1.0826765222	-0.112298
C	-3.4007793017	 0.1165015581	 0.505526761	-0.296299
C	-2.6028360325	-0.0367591839	-0.8194240793	 0.323412
O	-2.4609875621	 1.0100613874	-1.7261797817	-0.488314
C	-2.8581474148	-1.5056098431	-1.2647054918	-0.292958
C	-2.0411983948	-1.88423685	-0.0268274039	-0.140056
H	-0.4596753813	 1.7887686613	-0.4189816024	 0.292235
H	 0.5303086104	-0.2711637046	-0.938847913	 0.092083
H	 0.6257919746	-0.5010049986	 0.8118758901	 0.110231
H	-2.197675495	-1.0965578581	 2.1241150784	 0.089468
H	-4.4642694944	-0.1521969897	 0.4986401328	 0.082604
H	-3.2617500922	 1.115412042	 0.927556372	 0.107843
H	-3.3338638906	 1.2991005593	-2.015154759	 0.28507
H	-3.8969470495	-1.8478574579	-1.3460645933	 0.083582
H	-2.3131328679	-1.732689101	-2.1849845655	 0.104016
H	-1.6123709572	-2.8479013512	 0.2163810389	 0.089183
70.9653	115.8824	170.4923	208.9431	320.7882	361.6498	417.0051	424.5026	456.2384	492.1807	610.0661	672.8863	721.889	780.3665	836.1742	896.9958	902.3141	914.8584	964.77	992.3468	1008.6388	1010.3967	1045.3096	1071.6894	1096.4382	1105.5654	1115.9085	1168.2245	1206.0864	1236.1361	1244.0223	1249.3292	1276.0271	1292.6591	1359.8342	1381.7399	1418.7987	1469.6956	1486.1688	1499.1889	1509.4889	2968.3717	3021.8331	3029.4099	3062.34	3099.9751	3102.5969	3192.2823	3201.6863	3792.3983	3798.1277
OCC12C3CC1(O)CC23	OC[C@@]12[C@H]3C[C@]1(O)C[C@@H]23	
InChI=1S/C7H10O2/c8-3-7-4-1-6(7,9)2-5(4)7/h4-5,8-9H,1-3H2	InChI=1S/C7H10O2/c8-3-7-4-1-6(7,9)2-5(4)7/h4-5,8-9H,1-3H2/t4-,5+,6-,7-
