23
gdb 58419	1.9622	1.33033	1.20955	1.303	81.67	-0.2407	0.067	0.3077	1251.45	0.202124	-425.414005	-425.40286	-425.401916	-425.449442	41.505	
C	 0.721363097	 0.1506736253	-1.1153893996	-0.39646
C	-0.0062130722	 0.1593372053	 0.2368504287	-0.003113
C	-0.0345003071	 1.5701978398	 0.8492797275	-0.416764
C	-1.4187522113	-0.3937775288	 0.0976556122	 0.374857
O	-2.2451705607	 0.318967973	-0.7959665382	-0.477942
C	-1.7203401541	-1.8753877198	 0.0936363997	-0.097653
C	-0.6667081109	-2.9516966624	 0.2358710302	-0.429779
C	-2.1263378969	-1.0066871961	 1.2793617981	-0.01383
O	-1.4121403061	-1.0840553166	 2.4816201424	-0.421108
H	 1.7262781881	 0.5747922441	-1.0203597502	 0.102781
H	 0.8189749599	-0.8651423649	-1.510282763	 0.112113
H	 0.1678264379	 0.7410175938	-1.8516292324	 0.123662
H	 0.5323474366	-0.4854658209	 0.9372077683	 0.087067
H	-0.5319596588	 1.5650530011	 1.8237401961	 0.128855
H	 0.981630512	 1.9521346195	 0.9892940885	 0.111595
H	-0.554186801	 2.2808653671	 0.1949077653	 0.102014
H	-2.4509415193	 1.1689197771	-0.3908174877	 0.280031
H	-2.5459984263	-2.1297764248	-0.5654521679	 0.094218
H	 0.0679771622	-2.7034815141	 1.0054395019	 0.127766
H	-1.129415119	-3.9046455706	 0.5175808451	 0.111869
H	-0.1307330294	-3.1156522916	-0.7044457649	 0.125313
H	-3.1854441313	-0.7703022806	 1.3849766153	 0.083892
H	-1.6434005795	-1.9118023251	 2.9165056745	 0.290614
66.5251	126.2555	164.6199	172.6187	201.9471	232.3541	246.2975	259.2998	280.5889	286.0891	300.3483	356.3582	370.9912	464.6013	517.3705	564.2369	610.393	684.1786	805.1781	869.661	892.6866	927.5582	959.7575	966.1903	1020.0071	1048.3384	1064.0549	1117.1916	1131.4973	1143.6637	1165.7916	1189.8119	1234.0363	1255.9456	1300.6091	1318.5667	1337.136	1368.9473	1376.5336	1392.2991	1414.2567	1416.4588	1467.2181	1486.751	1492.4944	1499.073	1506.2336	1507.0619	1514.9803	3024.9989	3032.7103	3037.1197	3066.968	3087.6154	3091.182	3095.3019	3103.9155	3111.0021	3114.9728	3119.245	3150.0256	3794.2487	3797.9082
CC(C)C1(O)C(C)C1O	CC(C)[C@@]1(O)[C@@H](C)[C@H]1O	
InChI=1S/C7H14O2/c1-4(2)7(9)5(3)6(7)8/h4-6,8-9H,1-3H3	InChI=1S/C7H14O2/c1-4(2)7(9)5(3)6(7)8/h4-6,8-9H,1-3H3/t5-,6+,7+/m0/s1
