19
gdb 26138	2.52844	1.38958	1.09336	1.1718	79.97	-0.187	0.03	0.217	1188.6847	0.159408	-419.215737	-419.206449	-419.205505	-419.249842	34.406	
C	 0.2057927817	 1.0879902933	-0.5038441324	-0.327581
N	 0.0003556928	-0.1097187817	 0.3102336548	-0.177713
C	 0.5394293107	 0.0258294125	 1.6649853646	-0.331174
C	-1.2687375171	-0.6694363159	 0.2291836492	 0.307553
C	-1.6681309388	-1.9085167823	-0.1820325528	 0.171837
N	-0.8323193336	-2.9578798547	-0.5865712663	-0.613358
C	-3.0956981547	-1.948378517	-0.0317191703	-0.244779
C	-3.4551201875	-0.7338476692	 0.4614139211	-0.00971
O	-2.3780749792	 0.0606446136	 0.64300874	-0.188953
H	 1.2768353611	 1.3118835252	-0.5575063285	 0.113395
H	-0.1629555579	 0.9061042272	-1.5161627009	 0.123717
H	-0.3091463026	 1.9751154218	-0.1012645824	 0.112105
H	 0.0564661092	 0.8330085613	 2.239492987	 0.110023
H	 0.4005456067	-0.9136429366	 2.2045768554	 0.131495
H	 1.6122392902	 0.241509524	 1.6104318182	 0.112962
H	 0.1024822218	-2.6140832842	-0.7757875308	 0.241147
H	-1.1843277843	-3.4513148003	-1.39758943	 0.240195
H	-3.7525319975	-2.7744082804	-0.2569234765	 0.10159
H	-4.4096605308	-0.3042615866	 0.7203021305	 0.127247
55.264	136.2873	143.0823	212.5557	228.4264	268.2602	288.5735	310.1143	375.6591	444.7319	513.717	611.5482	634.3759	699.5678	707.9329	747.6795	803.0616	816.5862	892.937	951.3043	1035.0485	1055.6192	1073.587	1116.7235	1128.8877	1173.2233	1201.0665	1221.9056	1228.3642	1321.5012	1353.8511	1437.7561	1457.3298	1476.5237	1479.0118	1495.1933	1500.9533	1518.9822	1547.2325	1638.4194	1706.8203	2973.4659	2979.2241	3060.6267	3061.9734	3116.9985	3121.8886	3246.8692	3273.0231	3517.729	3610.3858
CN(C)C1=C(N)C=CO1	CN(C)c1c(N)cco1	
InChI=1S/C6H10N2O/c1-8(2)6-5(7)3-4-9-6/h3-4H,7H2,1-2H3	InChI=1S/C6H10N2O/c1-8(2)6-5(7)3-4-9-6/h3-4H,7H2,1-2H3
