17
gdb 120418	3.29255	0.93873	0.80903	3.2462	65.8	-0.2655	-0.0055	0.26	1420.3048	0.133577	-496.099897	-496.09035	-496.089406	-496.135371	32.593	
C	-0.2325245097	 1.3120141583	-0.1187966843	-0.229259
O	 0.0475751252	-0.0648446987	-0.0105985003	-0.236557
C	 0.6409757118	-0.594006039	-1.1705378637	-0.055301
C	 0.8491689162	-2.0739319009	-0.9528636108	 0.082479
O	-0.4008780849	-2.8508880959	-1.0861222282	-0.245327
C	 0.0599621617	-3.5079324159	-2.1913149802	 0.417974
O	-0.5183884176	-4.2654192456	-2.9030976366	-0.328139
C	 1.4597853256	-2.8724694665	-2.1224699374	-0.079173
O	 1.8645481836	-2.103428366	-3.2243244481	-0.42142
H	 0.681697717	 1.9014676799	-0.2919304872	 0.106234
H	-0.9371778273	 1.520955572	-0.9383665829	 0.111181
H	-0.683670236	 1.6262938915	 0.8249102166	 0.133036
H	 0.0127587156	-0.430135546	-2.0589361838	 0.106455
H	 1.6195541441	-0.1258554024	-1.3720729367	 0.106493
H	 1.2861373065	-2.2610439132	 0.0297882674	 0.112917
H	 2.2301349453	-3.5891676795	-1.8067460821	 0.111587
H	 1.7901392028	-2.6523293522	-4.0132310115	 0.306819
57.3467	94.4004	103.9313	134.5083	144.992	231.3712	262.8717	278.0959	347.1736	434.3338	514.8724	570.4231	710.8328	781.311	856.7349	892.3736	938.3126	1001.9788	1035.502	1120.7383	1139.1375	1163.8755	1177.7115	1182.0683	1194.3565	1230.2492	1254.3617	1303.2888	1321.4607	1363.3903	1408.7808	1437.8467	1480.2228	1486.3783	1495.4115	1516.3787	1934.618	2965.9635	2977.0199	3013.3206	3016.6005	3021.7841	3107.7845	3121.4514	3808.0856
COCC1OC(=O)C1O	COC[C@H]1OC(=O)[C@H]1O	
InChI=1S/C5H8O4/c1-8-2-3-4(6)5(7)9-3/h3-4,6H,2H2,1H3	InChI=1S/C5H8O4/c1-8-2-3-4(6)5(7)9-3/h3-4,6H,2H2,1H3/t3-,4+/m1/s1
