23
gdb 109307	2.14939	1.43872	1.1284	1.415	87.89	-0.2296	0.0272	0.2568	1247.1437	0.204718	-388.317029	-388.306985	-388.306041	-388.351613	38.243	
C	 0.1278740679	 1.771615511	-0.1433089101	-0.370678
C	 0.01522044	 0.2366778226	-0.0733836775	-0.291222
C	 0.682232042	-0.4586880426	-1.2268761562	 0.321928
C	 1.8992149345	-1.0056742769	-1.2415480277	-0.182245
C	 2.2622205992	-1.6121609808	-2.5743064679	-0.256008
C	 1.159130878	-1.05817516	-3.5047937559	-0.266201
C	-0.0152914148	-0.6641982187	-2.5689725311	 0.301294
C	-1.0807469094	-1.7687792863	-2.4763182139	-0.437317
O	-0.638308018	 0.5635571015	-2.9612191274	-0.470655
H	 1.1774548039	 2.0819807884	-0.1250867142	 0.111111
H	-0.3211219817	 2.1469727499	-1.0646004813	 0.144245
H	-0.3785544269	 2.234743407	 0.7100097136	 0.101544
H	 0.4584745208	-0.1169138469	 0.864862411	 0.096338
H	-1.0466804563	-0.0370232272	-0.0405027365	 0.098657
H	 2.5617783294	-1.047780406	-0.382328261	 0.082748
H	 3.271067075	-1.3418905732	-2.906927034	 0.101954
H	 2.2417586969	-2.7104839748	-2.5276098978	 0.102587
H	 1.5059900436	-0.1391622146	-3.9860239546	 0.109406
H	 0.8615570675	-1.7600910898	-4.2902437724	 0.083055
H	-0.6319130928	-2.7265027481	-2.1956136123	 0.121983
H	-1.8472681129	-1.5154167148	-1.7383497942	 0.122955
H	-1.5748859661	-1.9046045616	-3.4470899719	 0.101451
H	-1.1976789601	 0.3813854021	-3.723482567	 0.273071
63.9429	99.0075	168.0134	206.7909	249.2075	253.9124	259.3807	281.9354	309.8785	360.4938	409.048	461.6338	562.8281	639.6814	684.3528	709.0274	790.4863	814.9741	869.5903	910.4521	935.8737	946.7325	965.7334	979.9537	1013.4623	1074.0255	1086.3688	1093.1856	1112.591	1174.5214	1195.2048	1208.5557	1244.8839	1267.3483	1302.6893	1318.2041	1332.1674	1351.8065	1395.1248	1403.6504	1404.76	1478.5386	1482.2992	1489.7092	1493.4139	1497.0115	1500.3811	1514.0686	1717.96	3003.8709	3018.3364	3023.3688	3037.9275	3045.4237	3053.2259	3060.2136	3088.6535	3098.9493	3102.4449	3116.2707	3142.6101	3176.1728	3808.6387
CCC1=CCCC1(C)O	CCC1=CCC[C@]1(C)O	
InChI=1S/C8H14O/c1-3-7-5-4-6-8(7,2)9/h5,9H,3-4,6H2,1-2H3	InChI=1S/C8H14O/c1-3-7-5-4-6-8(7,2)9/h5,9H,3-4,6H2,1-2H3/t8-/m0/s1
