19
gdb 68680	2.34121	1.77262	1.37906	2.4141	74.45	-0.2368	-0.0161	0.2208	1011.4893	0.160667	-423.045444	-423.037476	-423.036531	-423.077554	31.487	
O	 0.2189500421	 1.4445281287	-0.1526305282	-0.486166
C	 0.0599343073	 0.063102582	-0.080152959	 0.315005
C	-1.365166069	-0.6135621348	 0.0119849933	-0.306409
C	-0.6918317313	-1.7367019233	 0.8710112642	-0.140696
C	 0.0333352875	-2.7691271698	-0.0271240611	-0.215375
C	 0.4887136562	-2.1124035556	-1.3503122977	-0.215677
C	 0.9003025816	-0.6348729101	-1.1713510578	-0.243575
C	 0.2959108349	-0.6325358074	 1.2578837528	 0.362335
O	 0.8193626448	-0.2624144268	 2.2737974407	-0.342525
H	 0.2972688488	 1.7745496758	 0.7513331183	 0.291931
H	-2.0514557462	-0.0040653431	 0.6034785749	 0.112196
H	-1.8379112664	-0.9045886406	-0.9268704228	 0.110121
H	-1.261213907	-2.1972904668	 1.6789510521	 0.091419
H	 0.8871890971	-3.1791789607	 0.5242748356	 0.115483
H	-0.6335597705	-3.6112585892	-0.2397218211	 0.106177
H	 1.3072410858	-2.6835672694	-1.7979917289	 0.104467
H	-0.3369029351	-2.1628900857	-2.0668588144	 0.111199
H	 0.7650068781	-0.0804860577	-2.1061651377	 0.11496
H	 1.9575573015	-0.5400705254	-0.8999304033	 0.11513
120.5839	177.6475	213.0406	233.9333	309.4478	355.8153	407.9374	423.5416	485.6307	543.582	675.7893	708.5972	787.017	799.4073	829.362	862.6283	893.3914	926.4547	942.8821	964.1024	1038.5367	1051.1315	1077.4316	1107.4896	1134.2079	1167.7435	1179.6509	1200.8821	1224.6771	1272.8936	1288.494	1300.9778	1357.9067	1368.9537	1374.2811	1381.2893	1481.6908	1492.657	1497.6165	1517.7892	1869.8619	3036.577	3039.8265	3050.4083	3072.446	3077.2524	3078.4426	3096.1299	3111.2562	3139.8985	3775.6678
OC12CC(CCC1)C2=O	O[C@@]12C[C@@H](CCC1)C2=O	
InChI=1S/C7H10O2/c8-6-5-2-1-3-7(6,9)4-5/h5,9H,1-4H2	InChI=1S/C7H10O2/c8-6-5-2-1-3-7(6,9)4-5/h5,9H,1-4H2/t5-,7-/m1/s1
