16
gdb 44487	3.90072	1.64068	1.50262	4.5002	67.83	-0.23	0.0195	0.2495	887.072	0.127926	-437.897713	-437.891659	-437.890715	-437.927909	25.531	
O	 0.0197749748	-0.0147034529	-0.1088078722	-0.379872
C	-0.0093129719	 1.1817605121	 0.0411061344	 0.437273
N	-1.1273384257	 1.9959654978	 0.1249813195	-0.316654
C	-0.7316034991	 3.3700915379	 0.236265838	-0.004687
C	 0.1918996765	 3.9555548799	-0.9215057754	 0.067523
C	 1.0164978896	 4.6445915649	 0.1833888016	-0.249199
C	 0.6515301785	 3.3566260899	 0.9600825438	-0.080332
C	 1.1465413999	 2.1998160305	 0.0645764428	-0.049379
O	 1.0008427362	 2.8248466683	-1.2526952722	-0.279078
H	-2.0247036625	 1.6805534753	-0.2083546209	 0.254508
H	-1.494801868	 4.0375959058	 0.6305862058	 0.096669
H	-0.1726992829	 4.4396248504	-1.8252650518	 0.089456
H	 2.0642756066	 4.8443220823	-0.0442678651	 0.114774
H	 0.529393933	 5.524269423	 0.6104022804	 0.107548
H	 0.7379517717	 3.2385430433	 2.038706798	 0.090961
H	 2.1449872132	 1.7889881816	 0.1921876734	 0.100488
162.3313	331.2674	407.2364	448.1813	487.3579	499.0809	578.548	703.843	740.8888	780.5833	792.0761	861.0207	866.0949	879.1061	895.6124	936.5055	951.5374	987.366	1016.4613	1053.9955	1076.8718	1095.3494	1105.493	1179.0568	1209.8948	1215.3511	1232.3757	1252.0994	1252.5645	1286.5553	1325.4796	1353.8956	1402.63	1488.3671	1853.8734	3075.4217	3137.4262	3141.5033	3143.777	3149.7048	3158.1634	3637.9481
O=C1NC2C3CC2C1O3	O=C1N[C@@H]2[C@H]3C[C@@H]2[C@@H]1O3	
InChI=1S/C6H7NO2/c8-6-5-2-1-3(9-5)4(2)7-6/h2-5H,1H2,(H,7,8)	InChI=1S/C6H7NO2/c8-6-5-2-1-3(9-5)4(2)7-6/h2-5H,1H2,(H,7,8)/t2-,3+,4-,5-/m0/s1
