17
gdb 47241	2.59608	1.645	1.13451	3.9771	77.78	-0.2337	-0.041	0.1927	1066.2323	0.137498	-421.854595	-421.846951	-421.846007	-421.886818	29.361	
O	 0.0895124959	 0.0048694638	-0.5356638276	-0.312489
C	 0.0172745817	 1.094718078	-0.0424719586	 0.409441
C	-1.2934807548	 1.8528620926	 0.1481210225	-0.389532
C	-1.4159505775	 2.7896196849	-1.0283163588	-0.076949
C	-0.8240251879	 3.9872515146	-1.10844542	-0.057379
C	-0.0391565974	 4.6624357556	-0.0782804956	-0.081391
C	 0.7464450138	 4.1782595913	 0.8948825372	-0.063734
C	 1.1925308474	 2.7854329249	 1.2507184125	-0.150789
O	 1.1592975245	 1.7783456627	 0.237409866	-0.212109
H	-2.0986557365	 1.1180882915	 0.1583148071	 0.132887
H	-1.3097611237	 2.4170789771	 1.0842719229	 0.127632
H	-1.9813182077	 2.421096902	-1.8787152218	 0.111783
H	-0.9943260969	 4.5727223481	-2.009339244	 0.099139
H	-0.1100512522	 5.7484619172	-0.1191171757	 0.099037
H	 1.1844299377	 4.9104006161	 1.5725002383	 0.101584
H	 2.25001508	 2.8355047709	 1.5316035421	 0.137724
H	 0.6625301635	 2.4317257888	 2.1479541135	 0.125146
89.1812	161.3692	199.5482	287.8933	302.8507	352.8639	475.4128	502.4934	533.6083	651.2083	688.6275	727.3237	781.3409	837.6469	853.9815	858.3735	938.2856	982.467	1002.3794	1013.9796	1033.2839	1052.5226	1110.2409	1135.8624	1246.5605	1269.682	1282.4667	1294.5117	1312.2019	1410.7001	1421.0629	1453.2423	1476.0871	1495.8134	1691.9288	1714.6176	1849.4442	2991.8845	3062.791	3070.8489	3122.6497	3136.4541	3142.3084	3152.7253	3183.7941
O=C1CC=CC=CCO1	O=C1CC=CC=CCO1	
InChI=1S/C7H8O2/c8-7-5-3-1-2-4-6-9-7/h1-4H,5-6H2/b3-1-,4-2-	InChI=1S/C7H8O2/c8-7-5-3-1-2-4-6-9-7/h1-4H,5-6H2/b3-1-,4-2-
