19
gdb 101279	2.29159	1.20265	0.87339	3.8493	76.5	-0.2703	0.0093	0.2796	1342.2	0.158504	-419.189198	-419.179451	-419.178507	-419.224817	35.122	
C	-0.6461222559	 1.5791556174	 0.1683214187	-0.384731
C	-1.0962402084	 0.1402508704	 0.438886912	-0.220339
C	-1.3951102358	-0.6252317902	-0.8524821667	 0.110746
O	-0.2681648208	-0.6373340873	-1.7317223765	-0.427013
C	-1.8524607802	-2.0701653143	-0.6871155376	-0.036011
N	-1.3584776005	-2.85107695	 0.4479260669	-0.319724
C	-2.8118775965	-2.6298625301	 0.320732453	-0.197441
C	-3.4739690675	-1.8649028098	 1.3501984074	 0.341052
N	-4.0557037037	-1.279849688	 2.160304537	-0.339333
H	-0.4039235575	 2.090690041	 1.104094505	 0.115127
H	 0.2357064232	 1.6025080604	-0.476844188	 0.122608
H	-1.436014392	 2.1519583369	-0.3300016498	 0.116368
H	-0.3275046858	-0.4073116589	 0.9981209771	 0.107618
H	-1.9859682343	 0.1470765666	 1.0748323054	 0.135251
H	-2.1738648746	-0.0966161307	-1.4172224581	 0.099121
H	 0.4734013421	-1.0059726696	-1.2370601223	 0.283296
H	-1.8977124289	-2.5747574181	-1.65166894	 0.10903
H	-1.1333949658	-3.8058362328	 0.1823131935	 0.249085
H	-3.4239500873	-3.4576866329	-0.0304429673	 0.13529
26.5675	95.9888	124.9873	185.2719	203.2293	230.812	276.0899	309.1226	351.4044	402.1882	467.3066	555.238	597.4743	651.6902	771.0005	805.2976	822.1726	884.2873	919.2313	971.3103	987.1459	1017.3127	1067.6783	1073.3612	1110.0322	1137.0626	1198.6615	1224.9041	1253.8932	1261.6002	1317.6235	1342.4961	1394.4019	1396.6257	1409.1077	1424.3735	1455.3388	1488.578	1496.9293	1509.8079	2358.1555	3031.1524	3039.0543	3045.2748	3094.5246	3108.0465	3117.0349	3125.7707	3136.6207	3512.6714	3789.155
CCC(O)C1NC1C#N	CC[C@@H](O)[C@H]1N[C@H]1C#N	
InChI=1S/C6H10N2O/c1-2-5(9)6-4(3-7)8-6/h4-6,8-9H,2H2,1H3	InChI=1S/C6H10N2O/c1-2-5(9)6-4(3-7)8-6/h4-6,8-9H,2H2,1H3/t4-,5+,6-/m0/s1
