14
gdb 13651	5.9466	0.9352	0.85705	4.3468	78.96	-0.253	-0.0498	0.2032	1278.4536	0.106717	-341.538287	-341.530378	-341.529434	-341.571023	27.913	
C	-0.1668742579	 1.4380180168	-0.1936944724	-0.318733
N	 0.0199055031	 0.0036655174	-0.0003500728	-0.069669
C	 1.3591567918	-0.5178891221	-0.1583626079	-0.234244
C	 0.7309926352	-0.4530821976	 1.2095167808	-0.202003
C	 1.2380360639	 0.4674235736	 2.179939481	 0.162171
C	 1.6270650369	 1.2310394325	 3.0348411991	-0.004829
C	 2.0808266495	 2.0929189305	 3.9893480658	 0.206368
N	 2.4679986043	 2.8288643343	 4.8014245226	-0.33619
H	 0.695866828	 2.0457019327	 0.1163453121	 0.119951
H	-0.3546362583	 1.6141290948	-1.2565497949	 0.136262
H	-1.0436668582	 1.765016826	 0.3717714855	 0.139437
H	 1.4489990104	-1.4846033854	-0.6458511352	 0.1354
H	 2.1683994827	 0.1834348993	-0.3553543308	 0.130354
H	 0.3239988685	-1.3680328728	 1.6341675971	 0.135724
79.6341	98.7378	191.3336	220.7828	251.1213	352.874	374.3958	479.2881	540.7664	577.5789	591.9362	699.6557	753.9616	867.4073	963.1314	1018.3128	1059.8405	1111.84	1123.6136	1163.2493	1207.3904	1210.3121	1318.9206	1370.9542	1451.0282	1490.0222	1493.461	1506.3891	2258.3088	2387.214	2996.7795	3087.2598	3098.4485	3122.0291	3133.0896	3192.2309
CN1CC1C#CC#N	CN1C[C@H]1C#CC#N	
InChI=1S/C6H6N2/c1-8-5-6(8)3-2-4-7/h6H,5H2,1H3	InChI=1S/C6H6N2/c1-8-5-6(8)3-2-4-7/h6H,5H2,1H3/t6-,8?/m1/s1
