16
gdb 6069	4.50961	1.20311	1.1868	2.601	61.96	-0.2532	-0.0175	0.2357	1092.0758	0.126628	-420.935513	-420.926152	-420.925208	-420.971027	31.132	
C	-0.2882501991	 1.2304776858	-0.0574907786	-0.484249
C	-0.0327692699	-0.2592487583	-0.1632246418	 0.3839
O	-0.4785790199	-1.0650135103	 0.6142277706	-0.283297
C	 0.837946627	-0.6872526907	-1.3486613734	-0.181499
O	 0.9734541461	-2.0958725569	-1.4228177257	-0.223003
C	-0.106719252	-2.7534402118	-1.9205852879	 0.448644
C	 0.084920318	-4.2427607672	-1.8073507709	-0.482372
O	-1.0656209944	-2.1925325606	-2.3832830797	-0.358341
H	 0.6350257079	 1.8060408485	-0.1835966747	 0.134729
H	-0.971629253	 1.5369993241	-0.8582181678	 0.156806
H	-0.7437325899	 1.4591314443	 0.906494451	 0.150886
H	 0.4138932036	-0.2832060381	-2.2739930324	 0.143957
H	 1.8485686975	-0.286572811	-1.2197550632	 0.134911
H	-0.6922867686	-4.7542216635	-2.3737734929	 0.148203
H	 1.0756271467	-4.5330692826	-2.1649790525	 0.146555
H	 0.01779274	-4.5290420017	-0.7532404002	 0.16417
44.3216	72.7171	79.9281	97.9618	108.1124	273.5474	303.832	341.6169	447.4647	460.9325	586.0446	604.4641	678.8524	810.1822	825.5322	898.7155	959.85	1008.2437	1063.3167	1100.5997	1110.6433	1188.9279	1257.8225	1295.8483	1380.9204	1388.1983	1397.5668	1446.6009	1464.7371	1469.8631	1475.1361	1475.8901	1825.3574	1839.9063	3036.4955	3051.8471	3058.9533	3096.3553	3104.0336	3126.5834	3154.6862	3170.4748
CC(=O)COC(C)=O	CC(=O)COC(=O)C	
InChI=1S/C5H8O3/c1-4(6)3-8-5(2)7/h3H2,1-2H3	InChI=1S/C5H8O3/c1-4(6)3-8-5(2)7/h3H2,1-2H3
