21
gdb 94985	2.77767	1.71724	1.32538	1.5552	80.68	-0.2241	0.0804	0.3045	1042.8303	0.185023	-387.068348	-387.060839	-387.059895	-387.099903	30.934	
C	 0.0388021322	 1.5656011239	 0.0485676889	-0.410188
C	-0.0013398457	 0.0349287711	-0.0135371396	 0.023005
C	 0.6211007676	-0.4848705978	-1.3243008551	-0.195327
C	 0.7864378824	-2.0166382105	-1.3763839024	-0.244456
C	 1.2254511122	-2.6459268497	-0.0642006814	-0.042028
C	 2.1665287402	-2.0491460499	 0.9547268339	 0.085564
O	 2.1866047847	-0.6222089046	 0.9400306522	-0.305402
C	 0.7365131758	-0.599799968	 1.1667487312	 0.108431
C	 0.6920326951	-2.1317913141	 1.2540507534	-0.179235
H	 1.0742392327	 1.9228542036	 0.0623657349	 0.130393
H	-0.4576582896	 2.0101736286	-0.8203905296	 0.109755
H	-0.4591016479	 1.9423304067	 0.9485407402	 0.107283
H	-1.0485680973	-0.2959719951	 0.0536529887	 0.070239
H	 0.0144291384	-0.1556108471	-2.1753789679	 0.084614
H	 1.6025070905	-0.0143312167	-1.4317123606	 0.116549
H	-0.1726671876	-2.477708739	-1.6499897936	 0.095777
H	 1.4889543258	-2.2783811572	-2.1769051107	 0.097798
H	 1.3018323071	-3.7318198886	-0.0884220916	 0.084215
H	 3.029073095	-2.5565671119	 1.3723004729	 0.099539
H	 0.5224975901	-0.095406785	 2.1152043054	 0.073495
H	 0.1317476286	-2.7131946985	 1.9739973007	 0.089979
131.6284	206.1357	230.9028	276.3244	333.5874	379.9966	467.7588	495.3449	587.9496	689.3725	713.9861	766.8169	801.1008	825.3069	870.8499	911.7459	919.1184	946.5543	968.0957	994.8994	1009.0735	1030.7068	1049.7018	1057.2464	1088.6691	1109.5389	1117.7308	1141.6487	1157.8904	1224.3943	1250.054	1264.2261	1285.7542	1309.7095	1323.3445	1350.4761	1369.9019	1376.0401	1399.7998	1412.3145	1441.9695	1479.9291	1494.2425	1497.5305	1503.4645	2996.6479	3008.1638	3027.7074	3039.7949	3046.2058	3048.6853	3091.9148	3096.3182	3101.99	3125.5083	3172.8149	3197.2795
CC1CCC2C3OC1C23	C[C@H]1CC[C@H]2[C@H]3O[C@@H]1[C@@H]23	
InChI=1S/C8H12O/c1-4-2-3-5-6-7(4)9-8(5)6/h4-8H,2-3H2,1H3	InChI=1S/C8H12O/c1-4-2-3-5-6-7(4)9-8(5)6/h4-8H,2-3H2,1H3/t4-,5+,6+,7-,8+/m0/s1
