13
gdb 25342	3.30082	1.30061	0.93299	3.3449	71.96	-0.2547	-0.1023	0.1524	1142.3084	0.089858	-452.784864	-452.777604	-452.77666	-452.817049	26.394	
N	-0.2735895563	 1.2871483106	-0.1059971909	-0.517751
C	-0.1286623841	 0.0369686794	-0.2268054319	 0.40358
O	 1.1565394064	-0.5473125224	-0.2030236327	-0.220375
C	 1.2995092442	-1.8792960237	-0.3324586952	 0.137069
N	 0.3724646197	-2.7409142308	-0.4833923288	-0.327321
C	-0.9263597722	-2.2315841601	-0.5159120719	 0.190603
C	-2.0071568532	-3.245924687	-0.692934068	 0.110227
O	-3.1806076693	-2.9730341773	-0.7418593387	-0.24495
C	-1.2031459799	-0.9145891724	-0.396854552	-0.183561
H	 0.6246145022	 1.7589564306	 0.0024070125	 0.235063
H	 2.3463391809	-2.165592903	-0.2932914488	 0.155059
H	-1.628560739	-4.2850233575	-0.7763269816	 0.101392
H	-2.2198369494	-0.5450106466	-0.425348752	 0.160964
107.5336	152.6886	191.1339	191.4279	401.1219	402.4452	474.6771	550.6045	597.9725	660.56	735.8388	771.1249	862.0616	877.4681	934.9212	966.9224	967.0378	1052.5667	1068.6172	1130.4454	1187.3994	1282.9816	1329.838	1405.4469	1428.8788	1627.7666	1659.6793	1746.33	1815.1867	2937.7855	3194.3752	3235.2853	3495.0622
N=C1OC=NC(C=O)=C1	[NH]C1=C[C@H](N=CO1)C=O	
InChI=1S/C5H4N2O2/c6-5-1-4(2-8)7-3-9-5/h1-3,6H	InChI=1S/C5H5N2O2/c6-5-1-4(2-8)7-3-9-5/h1-4,6H/t4-/m0/s1
