17
gdb 71867	3.06053	1.60404	1.30723	3.4999	72.41	-0.2341	-0.0111	0.2229	998.5635	0.135966	-421.822595	-421.815297	-421.814353	-421.854149	29.034	
C	-0.0089384767	 1.46882898	-0.0612161531	-0.495434
C	-0.0408739292	-0.0219944839	-0.0241447135	 0.475599
O	 0.8050854694	-0.7340479445	-0.9254979848	-0.335607
C	-0.0787370271	-1.8989581537	-0.8035466455	 0.074562
C	 0.5728939637	-2.8607061082	 0.1771182086	-0.332126
C	 0.5824576863	-2.0474300319	 1.4871673938	 0.426685
O	 1.1515338574	-2.3467748484	 2.5060420572	-0.330075
C	-0.2860114555	-0.8482801534	 1.2643054388	-0.245718
C	-1.1076234993	-1.0507817174	-0.0085971719	-0.225155
H	 0.9809713577	 1.8371592824	 0.2269519964	 0.143674
H	-0.2297304044	 1.8290965663	-1.0707413875	 0.136425
H	-0.7453983218	 1.8864156231	 0.6304301394	 0.130997
H	-0.3630773092	-2.2941175259	-1.7783710567	 0.093855
H	-0.0331132782	-3.7642089329	 0.3191620362	 0.127767
H	 1.582761461	-3.1603052557	-0.1114833601	 0.138312
H	-0.6920812493	-0.3149275819	 2.114425606	 0.106868
H	-2.1851848247	-1.015270624	-0.0903845033	 0.109372
122.3699	193.5809	203.996	279.4879	388.9953	435.5693	464.0964	547.4665	616.9996	659.2113	712.8921	736.3427	829.2348	851.5591	861.8856	884.9843	921.4978	957.0606	984.1208	992.3163	1002.0858	1036.9251	1098.4109	1135.5432	1157.2462	1177.5702	1206.9808	1245.1372	1276.8549	1296.2644	1326.3976	1403.1051	1437.1777	1457.5632	1474.4431	1498.0763	1837.8387	3040.351	3044.6904	3108.0036	3118.3712	3121.7276	3124.0212	3203.0078	3210.523
CC12OC3CC(=O)C1C23	C[C@@]12O[C@H]3CC(=O)[C@@H]1[C@@H]23	
InChI=1S/C7H8O2/c1-7-5-3(8)2-4(9-7)6(5)7/h4-6H,2H2,1H3	InChI=1S/C7H8O2/c1-7-5-3(8)2-4(9-7)6(5)7/h4-6H,2H2,1H3/t4-,5+,6-,7+/m0/s1
