16
gdb 36295	3.77061	1.14584	1.09079	1.1104	73.11	-0.2457	0.0081	0.2538	1135.0522	0.124516	-400.702723	-400.694991	-400.694046	-400.735821	29.174	
C	-0.0148316899	-1.0472994324	-0.4219621582	-0.455233
C	-0.0223900639	 0.1032283593	-0.0751128556	 0.315356
C	-0.0016024205	 1.4983429776	 0.3526803536	-0.38435
C	 1.3675041203	 2.1353077227	 0.1716855205	-0.060596
C	 1.8657380826	 2.6982621576	-1.1272277283	 0.052502
O	 0.8847796819	 3.055040828	-2.093945131	-0.201503
C	 0.1556729245	 4.0458438852	-1.5174136675	 0.090305
N	 0.4776993885	 4.4520430247	-0.3556987603	-0.248751
C	 1.5984753074	 3.6342095833	 0.0503919947	-0.071703
H	-0.0213687711	-2.0627126066	-0.7320361191	 0.196409
H	-0.7629830517	 2.0625489705	-0.1948192286	 0.14643
H	-0.2856289827	 1.5638308063	 1.4106389032	 0.139247
H	 2.155772595	 1.6355011381	 0.7280507771	 0.11114
H	 2.8131852523	 2.4277250477	-1.5744130045	 0.116064
H	-0.6634082325	 4.4170195241	-2.1212254197	 0.148372
H	 2.35171235	 4.1173119138	 0.6608170738	 0.10631
36.6395	116.7727	208.2885	226.1059	333.6018	442.6731	448.1564	573.5437	619.5156	642.5807	674.8479	729.0948	753.8291	814.4748	878.301	913.2006	940.252	953.0308	965.228	1013.6319	1028.735	1078.0596	1090.1558	1113.5039	1133.4861	1199.4489	1241.7721	1290.2736	1313.6759	1336.0336	1365.5944	1425.4013	1466.7498	1665.5423	2240.7727	3031.2388	3078.0641	3151.4563	3183.3799	3201.8901	3231.0613	3506.1723
C#CCC1C2OC=NC12	C#CC[C@H]1[C@H]2OC=N[C@@H]12	
InChI=1S/C7H7NO/c1-2-3-5-6-7(5)9-4-8-6/h1,4-7H,3H2	InChI=1S/C7H7NO/c1-2-3-5-6-7(5)9-4-8-6/h1,4-7H,3H2/t5-,6+,7-/m1/s1
