20
gdb 87905	2.47944	1.45496	1.13484	1.5409	80.21	-0.2352	0.0091	0.2444	1157.6828	0.171345	-403.134879	-403.126137	-403.125193	-403.168535	33.731	
C	-0.1627952434	 1.5353615564	 0.1490994801	-0.398326
C	-0.1055625811	 0.0291302606	 0.2227072836	-0.043596
N	 1.1406225989	-0.6138567594	-0.2315512441	-0.387277
C	 0.7547290682	-0.7173039698	 1.1843173243	 0.277424
C	 1.6430093185	-0.0433361954	 2.2368476006	-0.330952
C	 1.4659714051	-0.9214624199	 3.4490604143	-0.070261
C	 0.7341373015	-2.0060957064	 3.1979072009	-0.115242
C	 0.2645172333	-2.0655462686	 1.7663205691	 0.011123
O	-1.1296849391	-2.3206728708	 1.6212785686	-0.422082
H	 0.8128639906	 1.9774447905	 0.365310492	 0.127441
H	-0.4580566868	 1.8572361623	-0.8552754317	 0.121162
H	-0.8945058706	 1.938842156	 0.8583756589	 0.11033
H	-1.0321529696	-0.4787869512	-0.0375442271	 0.093425
H	 0.9270112884	-1.4868796371	-0.7105803489	 0.22713
H	 2.6868399882	-0.0197295872	 1.8997847888	 0.123771
H	 1.3619281438	 0.9978527009	 2.4377838975	 0.107585
H	 1.915116454	-0.6810153809	 4.4070452855	 0.099565
H	 0.4866995394	-2.7900604482	 3.9047070707	 0.100236
H	 0.7343309019	-2.9022389676	 1.2300529579	 0.093948
H	-1.594439941	-1.6563476743	 2.1432747989	 0.274597
39.1142	161.3205	180.1306	217.7303	268.4129	287.953	366.3346	442.6304	459.35	484.3138	510.8548	571.2302	704.7382	768.6943	782.9409	823.6533	872.469	937.401	970.5431	981.9535	992.3262	1030.5472	1044.2978	1059.7442	1061.4404	1098.9635	1128.5286	1138.5247	1179.1487	1235.5117	1255.5712	1267.4873	1290.6783	1299.2073	1351.8457	1377.9521	1407.3774	1426.2249	1461.4782	1482.495	1489.3709	1500.5556	1685.7369	3005.6237	3025.1555	3032.6261	3051.8183	3092.8564	3115.8643	3135.2526	3180.2911	3207.5306	3474.5944	3793.3699
CC1NC11CC=CC1O	C[C@H]1N[C@]21CC=C[C@H]2O	
InChI=1S/C7H11NO/c1-5-7(8-5)4-2-3-6(7)9/h2-3,5-6,8-9H,4H2,1H3	InChI=1S/C7H11NO/c1-5-7(8-5)4-2-3-6(7)9/h2-3,5-6,8-9H,4H2,1H3/t5-,6-,7+/m1/s1
