19
gdb 83009	2.51515	1.87741	1.65151	2.8708	72.94	-0.2287	0.0653	0.294	921.8395	0.162499	-422.998573	-422.991735	-422.990791	-423.029479	28.601	
O	 0.058333076	 1.44571986	 0.0217838479	-0.438627
C	-0.0110800024	 0.057399325	 0.0575641257	 0.122253
C	-0.393057246	-0.7464307661	 1.2674543528	-0.107369
C	-1.1730385585	-0.0364350892	 2.3729932908	-0.266579
C	-2.4804166745	 0.4509125352	 1.7415017967	 0.109826
O	-2.4238489081	 1.7846980385	 1.1408277772	-0.316915
C	-2.9244364018	 1.2564135176	-0.1234490803	-0.11043
C	-2.637853084	-0.1879899656	 0.3390369387	-0.069628
C	-1.2766824339	-0.7861618558	 0.0063166341	-0.123745
H	-0.670157286	 1.8137254957	 0.551070359	 0.301852
H	 0.8088978396	-0.3496242416	-0.5271982147	 0.102146
H	 0.2246561955	-1.5910632659	 1.5551832745	 0.082413
H	-1.3990566725	-0.7409454588	 3.1802345354	 0.10784
H	-0.6256797713	 0.8018575158	 2.8202727059	 0.123712
H	-3.3395896763	 0.3940443763	 2.4181705137	 0.084763
H	-3.9900812807	 1.4854878763	-0.2402878635	 0.106647
H	-2.3587659536	 1.6414664235	-0.9744870642	 0.131801
H	-3.4414853395	-0.9115067045	 0.1934020449	 0.077827
H	-1.2661104719	-1.6496850565	-0.6503928947	 0.082213
169.1327	216.2146	246.9713	331.6947	378.6809	524.3107	615.5061	646.9482	690.3503	695.7577	732.2608	754.0143	811.6302	836.8598	869.0132	888.1857	955.2639	978.7463	992.3905	1016.1091	1042.4807	1052.2345	1084.0573	1092.1735	1104.1228	1118.3345	1174.2825	1200.0577	1216.0435	1232.0036	1255.9501	1305.4148	1316.6278	1325.9371	1347.0002	1366.8916	1369.6468	1401.5623	1475.577	1494.4269	1513.5716	3033.4477	3037.7626	3052.9504	3081.1309	3095.6891	3114.7067	3147.4668	3152.6498	3165.8506	3608.9164
OC1C2CC3OCC3C12	O[C@H]1[C@H]2C[C@H]3OC[C@H]3[C@@H]12	
InChI=1S/C7H10O2/c8-7-3-1-5-4(2-9-5)6(3)7/h3-8H,1-2H2	InChI=1S/C7H10O2/c8-7-3-1-5-4(2-9-5)6(3)7/h3-8H,1-2H2/t3-,4+,5+,6-,7-/m0/s1
