14
gdb 129998	5.23101	1.28895	1.04152	7.4727	70.54	-0.2043	-0.0113	0.193	1058.344	0.104547	-429.047332	-429.040521	-429.039576	-429.078316	26.695	
N	 0.0055367434	 1.2945992686	 0.1274090856	-0.563887
C	-0.0168686258	-0.0671575814	 0.0329800725	 0.374837
N	-1.1057990838	-0.7679888815	 0.02465949	-0.358568
C	-0.661790644	-2.1020649365	 0.0046093673	 0.356317
C	 0.7045703847	-2.2362012488	-0.0043840352	 0.324949
C	 1.3112141274	-0.8734966354	 0.0152817516	-0.47554
N	 0.9000810086	-3.5655019135	-0.0408633951	-0.33589
N	-0.2989670494	-4.2183379681	-0.0494244765	-0.132884
N	-1.2527030491	-3.3157935665	-0.0229088247	-0.294881
H	 0.8086576466	 1.7829506311	-0.2338711435	 0.259087
H	-0.8811123885	 1.7513468299	-0.0284979174	 0.270642
H	 1.916695496	-0.6304860333	-0.8657710969	 0.143972
H	 1.9123282367	-0.650956026	 0.9034438316	 0.154879
H	 1.7437388471	-4.1147055087	-0.0555781491	 0.276967
146.5742	222.3629	307.3599	341.4774	375.3008	476.2823	526.5648	537.2785	554.904	590.0725	700.45	742.0863	761.457	821.3191	849.7611	944.4078	998.116	1028.7674	1111.0647	1145.2153	1179.7479	1207.6104	1235.6183	1359.5048	1382.0529	1434.1023	1447.8219	1516.007	1589.4765	1609.5315	1675.227	3044.4714	3084.807	3580.9319	3664.3877	3698.7288
NC1=NC2=C(C1)NN=N2	NC1=Nc2c(C1)[nH]nn2	
InChI=1S/C4H5N5/c5-3-1-2-4(6-3)8-9-7-2/h1H2,(H3,5,6,7,8,9)	InChI=1S/C4H5N5/c5-3-1-2-4(6-3)8-9-7-2/h1H2,(H3,5,6,7,8,9)
