17
gdb 21030	3.90305	1.71695	1.21358	3.0211	72.62	-0.2013	0.0439	0.2452	998.6029	0.142988	-360.071111	-360.062541	-360.061596	-360.10413	30.62	
C	-0.0853504965	 1.3830640331	-0.043446215	-0.333536
N	-0.0336113656	-0.0570202399	 0.0265608389	 0.009715
N	-0.007317743	-0.8029923728	-1.1133403884	-0.341002
C	 0.0337695717	-2.0648902873	-0.6973710433	 0.370222
C	 0.0557352084	-3.1861397148	-1.6882751482	-0.489957
C	 0.0574530657	-2.1440634986	 0.7158250342	-0.387858
C	 0.0190427562	-0.8293609956	 1.1420477976	 0.385215
N	-0.0542742251	-0.2566468068	 2.4179684181	-0.608914
H	 0.912952308	 1.8362091912	 0.0115979829	 0.12624
H	-0.5393713204	 1.6570347085	-0.9959865098	 0.15764
H	-0.695716494	 1.7664047452	 0.7788416349	 0.144476
H	 0.9532777839	-3.8049172353	-1.5764373468	 0.121907
H	-0.8095247963	-3.847373893	-1.5656087815	 0.123203
H	 0.0398668216	-2.783260872	-2.7033105544	 0.135344
H	 0.1021273166	-3.0258109446	 1.3354591688	 0.084334
H	-0.0197292585	-0.9644726373	 3.1395696066	 0.253527
H	 0.6748289273	 0.42557015	 2.5947475854	 0.249445
93.837	102.0966	156.8993	197.802	215.6478	271.8838	285.5026	360.3907	500.7382	599.7974	647.3042	667.8386	687.3028	740.3747	792.6643	827.1449	990.1473	1022.5063	1063.3208	1065.479	1106.6035	1150.4407	1186.7708	1255.5592	1311.1414	1400.6183	1424.1731	1445.6583	1483.7658	1486.3402	1491.8877	1502.7218	1508.5835	1559.553	1600.0728	1658.6656	3018.4204	3031.1735	3080.5115	3095.4865	3129.1893	3154.2905	3251.811	3521.2767	3621.0804
CN1N=C(C)C=C1N	Cn1nc(C)cc1N	
InChI=1S/C5H9N3/c1-4-3-5(6)8(2)7-4/h3H,6H2,1-2H3	InChI=1S/C5H9N3/c1-4-3-5(6)8(2)7-4/h3H,6H2,1-2H3
