16
gdb 55494	6.225	0.54263	0.5101	3.9925	78.78	-0.258	-0.0241	0.2339	2064.6781	0.120624	-400.752971	-400.742614	-400.74167	-400.792698	34.019	
C	-0.1057904056	 1.54227726	-0.1064579519	-0.478693
C	 0.1058529394	 0.0400170852	-0.0759963237	 0.389988
O	 1.1820829115	-0.4716747189	-0.2463542267	-0.266042
C	-1.1686815358	-0.7863541097	 0.1921726233	-0.487245
C	-0.9681381767	-2.2242182705	 0.1600532354	 0.088486
C	-0.7962971766	-3.4123845491	 0.1277938438	 0.133971
C	-0.5682765287	-4.8541670697	 0.0861373039	-0.473164
C	-1.7689828873	-5.6168556733	-0.2820241372	 0.277969
N	-2.7064112114	-6.2264499153	-0.5693560728	-0.301455
H	 0.8517208361	 2.0448529506	-0.2442251361	 0.149681
H	-0.7817605652	 1.812357226	-0.9258738635	 0.145373
H	-0.5761647232	 1.886987487	 0.8210167673	 0.141235
H	-1.5699343516	-0.4702836465	 1.1654897558	 0.155089
H	-1.9296967546	-0.4849071149	-0.5408032581	 0.15606
H	 0.2250381896	-5.0944428841	-0.63338502	 0.18652
H	-0.2172959998	-5.2179731369	 1.0604123905	 0.182226
5.4849	23.2795	62.712	100.4037	113.2448	202.0824	287.0622	334.2829	359.2695	379.9734	423.6296	468.6778	538.9823	614.9346	794.9467	818.8653	828.1196	927.7853	935.7746	969.7921	1053.0048	1166.6355	1173.3468	1224.7095	1232.4696	1327.5051	1342.7492	1383.8391	1438.2152	1448.1476	1464.3572	1476.3452	1832.4436	2371.0237	2392.3747	3013.9849	3026.4463	3037.7937	3041.6753	3056.66	3097.8479	3156.8705
CC(=O)CC#CCC#N	CC(=O)CC#CCC#N	
InChI=1S/C7H7NO/c1-7(9)5-3-2-4-6-8/h4-5H2,1H3	InChI=1S/C7H7NO/c1-7(9)5-3-2-4-6-8/h4-5H2,1H3
