23
gdb 103805	2.52789	1.08391	0.92673	2.5837	87.96	-0.2384	-0.0101	0.2283	1424.5683	0.203047	-388.316511	-388.305808	-388.304864	-388.352305	39.275	
C	 0.1221747543	 1.5318839034	 0.2050684032	-0.381934
C	-0.2418127983	 0.0870360462	-0.1641042489	-0.261353
C	 0.6082252367	-0.4771214861	-1.2946245343	 0.357295
C	 0.3900589427	 0.1708219792	-2.6513693815	-0.455718
C	 1.977766586	-0.9867859688	-0.9826551492	-0.321206
C	 0.9021223931	-1.9950721601	-1.3504881543	-0.177575
C	 0.400592855	-2.9382813174	-0.3113341625	 0.387057
C	-0.2832036523	-4.1907330424	-0.8326356911	-0.482101
O	 0.5228718232	-2.7345456683	 0.8809501746	-0.32802
H	 1.1754057402	 1.6091034219	 0.4949890661	 0.118534
H	-0.0480308505	 2.2278910038	-0.6225366837	 0.112488
H	-0.4822632302	 1.8741759876	 1.0505523743	 0.113846
H	-0.1312544803	-0.5463968863	 0.7184027218	 0.13898
H	-1.2997697875	 0.0414464868	-0.4563503218	 0.087298
H	 0.6373265327	 1.2372475729	-2.6224900431	 0.124717
H	 1.015822426	-0.289980755	-3.4217172247	 0.11272
H	-0.6556674497	 0.0812134997	-2.9674093841	 0.117058
H	 2.7799533812	-0.8283741119	-1.6958019301	 0.109366
H	 2.2791723879	-1.0113316785	 0.0595614276	 0.134583
H	 0.9297519985	-2.4058051212	-2.3549823323	 0.079326
H	 0.4154295422	-4.7784707667	-1.4395438516	 0.138368
H	-0.6397086351	-4.7946258413	 0.0023871692	 0.13885
H	-1.1224244657	-3.9240812076	-1.4852961737	 0.137421
58.9111	89.3779	129.1953	141.1038	167.298	217.1081	227.4656	267.9248	323.4765	345.3199	372.9167	405.4117	479.9278	596.8492	629.2353	684.6635	770.9317	797.6547	844.3153	910.6122	932.5024	960.8361	966.5616	1022.3426	1028.1008	1046.5034	1076.8719	1082.837	1103.0047	1124.7339	1133.1685	1196.744	1257.7105	1312.9315	1340.9385	1375.5922	1382.1342	1409.1291	1415.0267	1427.7943	1463.7956	1474.4449	1476.264	1484.556	1497.87	1500.9121	1507.5353	1512.4459	1780.6179	3017.1749	3028.3329	3032.8303	3036.1995	3090.6469	3092.3769	3095.6933	3102.9643	3105.2452	3118.5035	3127.5889	3151.6401	3155.1279	3219.6051
CCC1(C)CC1C(C)=O	CC[C@@]1(C)C[C@H]1C(=O)C	
InChI=1S/C8H14O/c1-4-8(3)5-7(8)6(2)9/h7H,4-5H2,1-3H3	InChI=1S/C8H14O/c1-4-8(3)5-7(8)6(2)9/h7H,4-5H2,1-3H3/t7-,8-/m0/s1
