14
gdb 64643	2.2926	1.59089	1.36449	4.7531	68.11	-0.2672	-0.0571	0.2101	993.5756	0.0993	-436.708968	-436.700587	-436.699643	-436.742603	30.065	
O	-0.0126679848	 1.4588995532	-0.0308396122	-0.439099
C	 0.0638781973	 0.0468898206	 0.0245602737	 0.116739
C	 0.6651073414	-0.5127177912	 1.294893615	-0.111628
C	-0.1921238803	-1.2680701895	 1.9815242401	-0.068066
C	-1.5390624957	-1.3943787831	 1.3281226171	-0.377973
C	-1.4245037527	-0.4840708709	 0.1052075258	 0.390824
O	-2.2862624913	-0.1712325249	-0.6581279615	-0.269947
C	 0.7298773209	-0.4927187513	-1.1732514713	 0.229905
N	 1.2830590068	-0.9081784534	-2.0998470892	-0.32793
H	 0.8629469037	 1.8083956092	-0.2330670022	 0.29992
H	 1.6881211162	-0.2954250067	 1.5771875206	 0.121856
H	 0.0400329294	-1.7530674445	 2.9225620997	 0.123707
H	-1.7694671903	-2.4176053571	 1.0038678855	 0.157565
H	-2.3746456607	-1.0765237105	 1.962531709	 0.154126
39.9887	132.3796	158.5682	189.4722	267.4422	274.7966	395.6075	473.0432	509.4867	559.462	588.1104	629.9167	685.1858	752.1939	754.6976	929.9127	951.2742	977.2335	992.1178	1083.6888	1105.8848	1136.5465	1146.2294	1165.8507	1295.6667	1336.9072	1383.4196	1443.5676	1678.9467	1885.3226	2343.8565	3034.7466	3069.4658	3196.0567	3218.4226	3802.177
OC1(C=CCC1=O)C#N	O[C@]1(C=CCC1=O)C#N	
InChI=1S/C6H5NO2/c7-4-6(9)3-1-2-5(6)8/h1,3,9H,2H2	InChI=1S/C6H5NO2/c7-4-6(9)3-1-2-5(6)8/h1,3,9H,2H2/t6-/m1/s1
