16
gdb 93481	2.52589	1.55605	1.12742	1.9111	68.18	-0.2579	-0.0058	0.252	1068.1083	0.127092	-471.261374	-471.253275	-471.252331	-471.294391	30.4	
O	 0.095286108	 1.3304836278	 0.1511783962	-0.432738
C	 0.0042877576	-0.0804517281	 0.0233647348	 0.083142
C	-1.4714530202	-0.4468345075	-0.0535734192	-0.184727
N	-2.0192616862	-0.057119446	-1.3401869542	-0.334956
C	-1.3626047153	-0.2360812204	-2.519855425	 0.45158
O	-1.8656631762	-0.1274620297	-3.6191033665	-0.396158
N	-0.003783406	-0.565414312	-2.3788602809	-0.396681
C	 0.7585238385	-0.5186821079	-1.2241131375	 0.360079
N	 2.0111682171	-0.7357620039	-1.128418659	-0.528312
H	 1.032905037	 1.553806895	 0.1197900883	 0.29717
H	 0.4640222097	-0.5896294917	 0.8787418457	 0.101761
H	-1.5824783532	-1.5263001108	 0.127505949	 0.116817
H	-2.0047126543	 0.0874946502	 0.7362359103	 0.133961
H	-3.0078609029	 0.1062028681	-1.4369435444	 0.262306
H	 0.458749811	-0.7020363474	-3.2668786533	 0.256782
H	 2.4353374754	-0.9479497658	-2.0343954545	 0.209974
63.6664	112.452	187.9491	259.537	346.2204	373.3374	398.2789	469.4845	497.6547	535.0363	575.9316	613.5952	713.6903	744.0765	762.0048	885.9353	906.2691	928.5507	951.4589	1013.8697	1118.92	1133.5956	1153.3865	1220.9303	1271.8427	1329.5969	1358.0881	1394.998	1415.371	1422.1659	1435.6479	1475.9856	1510.9236	1728.5147	1828.3372	2996.1015	3041.7334	3101.7861	3442.83	3607.6074	3657.5693	3802.0714
OC1CNC(=O)NC1=N	O[C@H]1CNC(=O)N[C]1[NH]	
InChI=1S/C4H7N3O2/c5-3-2(8)1-6-4(9)7-3/h2,8H,1H2,(H3,5,6,7,9)	InChI=1S/C4H7N3O2/c5-3-2(8)1-6-4(9)7-3/h2,8H,1H2,(H3,5,6,7,9)/t2-/m0/s1
