20
gdb 120998	3.75813	0.90263	0.85669	3.4501	75.08	-0.2288	0.0712	0.3001	1417.4718	0.171409	-440.225466	-440.216684	-440.21574	-440.259651	32.699	
O	 0.0130192249	 1.3374654564	 0.1742365882	-0.421634
C	-0.046550295	-0.0815704767	 0.1516726171	-0.060136
C	-1.4493254741	-0.6043015423	-0.1677767491	-0.22588
C	-1.5100250032	-2.1156868412	-0.2205165426	 0.148123
O	-1.113846844	-2.7604399796	 1.0323878885	-0.322076
C	-2.2824703145	-3.5985567453	 1.0345293146	 0.117394
C	-3.4527010127	-3.0389821561	 1.8687239789	-0.18445
N	-3.8524921737	-2.169341401	 0.7212175211	-0.313582
C	-2.8760770869	-2.8378370982	-0.1747911186	-0.09508
H	-0.5545398697	 1.6391468601	 0.8906634735	 0.279424
H	 0.6610436957	-0.3921536911	-0.6256168354	 0.104421
H	 0.3003209939	-0.5165829529	 1.0998325828	 0.107737
H	-2.1659190238	-0.2563679591	 0.5847987311	 0.108069
H	-1.771079565	-0.2004054961	-1.1363169022	 0.099486
H	-0.8800889037	-2.5039653791	-1.035546811	 0.071701
H	-2.0432046369	-4.6625129886	 1.0953193062	 0.081199
H	-4.1910499254	-3.8088003149	 2.1271879224	 0.096446
H	-3.170884027	-2.4890209987	 2.7721968353	 0.112052
H	-4.8150638087	-2.2918822839	 0.4336652325	 0.223406
H	-3.26576909	-3.2791093517	-1.0931192633	 0.07338
69.8196	91.4957	122.871	141.3206	275.0852	298.6288	356.8814	369.704	440.1209	572.0777	667.5561	717.5569	781.7357	796.1931	820.1182	897.17	917.8714	970.503	978.7569	1011.7855	1029.5863	1063.8792	1065.7926	1074.9573	1098.3472	1118.1757	1145.055	1188.9633	1195.5307	1214.8745	1247.5637	1281.4369	1300.5826	1306.0499	1344.3233	1351.747	1375.1825	1393.9217	1416.4092	1421.7862	1479.4877	1496.1538	1515.1398	2984.8599	3005.5099	3016.7092	3030.5432	3058.0725	3078.6832	3082.9504	3085.9538	3101.1324	3557.8631	3815.5225
OCCC1OC2CNC12	OCC[C@H]1O[C@H]2CN[C@@H]12	
InChI=1S/C6H11NO2/c8-2-1-4-6-5(9-4)3-7-6/h4-8H,1-3H2	InChI=1S/C6H11NO2/c8-2-1-4-6-5(9-4)3-7-6/h4-8H,1-3H2/t4-,5+,6+/m1/s1
