17
gdb 76060	2.72777	1.25879	1.10541	2.2384	75.26	-0.2453	0.0277	0.273	1149.1522	0.133454	-421.742264	-421.733235	-421.732291	-421.776299	32.845	
O	-0.012100833	 1.4057262152	-0.0394011318	-0.422217
C	-0.0063854161	 0.0167541811	-0.0098491554	 0.050428
C	-0.503151203	-0.7153700137	 1.2409385195	-0.350259
C	-0.9249149814	 0.0848027279	 2.348736808	 0.300236
C	-1.2527219232	 0.8231531032	 3.242506554	-0.430345
C	-1.3090488382	-0.7047587791	-0.0492647778	 0.238131
C	-2.6789024525	-0.0957380276	-0.2990071243	-0.135018
O	-3.0392450375	-1.2210339479	-1.1378845702	-0.276069
C	-1.774637982	-1.8757724981	-0.9049250185	-0.142401
H	-0.0330332445	 1.7291656927	 0.8710258248	 0.294407
H	 0.8468744133	-0.4268339968	-0.5208723004	 0.105789
H	 0.0031795752	-1.6446503306	 1.4887158765	 0.120011
H	-1.5634401893	 1.4399894466	 4.0494551097	 0.205664
H	-3.330479328	-0.0090208229	 0.5790863971	 0.11137
H	-2.67305825	 0.852147414	-0.8488285536	 0.119564
H	-1.2146728586	-2.0426311589	-1.83469698	 0.107226
H	-1.8958196813	-2.8324102953	-0.3791934774	 0.103486
81.0455	107.2466	120.8427	175.7359	184.9615	243.6081	332.9392	379.5823	452.3864	519.4779	595.7044	631.3921	657.3869	668.0238	808.1752	823.3814	872.7499	951.9343	976.5405	985.3236	1027.2484	1057.7811	1098.9098	1124.902	1146.2231	1148.3439	1161.6884	1188.3475	1289.2717	1309.8022	1338.8942	1365.8765	1383.6701	1458.4992	1509.5816	1533.6848	2224.7821	2998.9836	3022.3374	3041.477	3070.3595	3117.3206	3142.8373	3500.2649	3750.1343
OC1C(C#C)C11COC1	O[C@H]1[C@@H](C#C)C21COC2	
InChI=1S/C7H8O2/c1-2-5-6(8)7(5)3-9-4-7/h1,5-6,8H,3-4H2	InChI=1S/C7H8O2/c1-2-5-6(8)7(5)3-9-4-7/h1,5-6,8H,3-4H2/t5-,6+/m1/s1
