18
gdb 91268	2.9682	1.46154	1.19638	4.8475	71.14	-0.2548	0.0524	0.3072	1073.515	0.149415	-439.133681	-439.125853	-439.124908	-439.166504	29.982	
C	 0.2149576571	 1.5964737258	 0.0088870545	-0.405707
C	 0.0860082114	 0.0816100144	 0.0392592017	 0.009687
C	 0.9232346851	-0.7636254298	-0.9756272946	-0.270587
C	 1.3919988338	-1.6842409893	 0.1961046466	-0.011358
N	 2.7759750233	-1.643981222	 0.5878660102	-0.362541
C	 3.0478039894	-0.5775437649	 1.4194644144	 0.46774
O	 4.1164996059	-0.171408793	 1.7779297317	-0.385805
O	 1.8558083449	-0.0232604384	 1.8200802163	-0.248377
C	 0.7510970907	-0.6952257969	 1.2101188538	 0.088024
H	 1.2580282817	 1.9054554228	 0.1178627246	 0.136208
H	-0.16428102	 1.9941504218	-0.9382051371	 0.116753
H	-0.3546830597	 2.0600149939	 0.8209330571	 0.123444
H	-0.9699878265	-0.2051404271	-0.011346807	 0.080525
H	 0.3598099444	-1.2511592976	-1.7741403559	 0.106372
H	 1.7537455854	-0.2079388692	-1.4198967759	 0.10839
H	 0.9915362978	-2.6997937646	 0.1782899649	 0.09377
H	 3.5277325741	-1.9986528108	 0.0199267478	 0.260711
H	 0.1010274111	-1.0769402752	 2.000428167	 0.092751
54.4519	116.3915	216.8915	239.7835	338.1785	410.0305	441.8169	464.0521	561.7895	607.9387	713.5399	739.113	770.4425	811.8189	866.6197	905.28	920.8316	940.8654	944.0158	1011.9864	1062.1819	1116.5109	1129.5181	1143.2392	1181.4234	1207.3486	1225.2866	1257.4633	1288.0786	1297.5697	1346.0493	1365.926	1390.0053	1406.891	1416.2419	1478.3233	1493.3164	1499.6395	1891.9349	3037.279	3045.6813	3060.7152	3079.0753	3089.1501	3102.4853	3117.8329	3122.0815	3658.3748
CC1CC2NC(=O)OC12	C[C@H]1C[C@H]2NC(=O)O[C@@H]12	
InChI=1S/C6H9NO2/c1-3-2-4-5(3)9-6(8)7-4/h3-5H,2H2,1H3,(H,7,8)	InChI=1S/C6H9NO2/c1-3-2-4-5(3)9-6(8)7-4/h3-5H,2H2,1H3,(H,7,8)/t3-,4+,5-/m0/s1
