19
gdb 31700	5.46763	0.83316	0.7663	0.5351	80.17	-0.2004	0.0279	0.2283	1539.0405	0.158642	-423.050216	-423.041013	-423.040069	-423.084758	33.417	
C	 0.0129526724	 1.5408097266	 0.2281823449	-0.371179
C	-0.040723065	 0.0422217421	-0.1160295011	-0.290639
C	-1.4276741669	-0.4970188408	-0.1985165908	 0.411472
C	-2.1605092398	-1.028895668	-1.2139691655	-0.429847
C	-3.4403827233	-1.3535541702	-0.655558082	 0.353332
O	-4.4382284484	-1.9091932699	-1.378942662	-0.256238
C	-5.6280666981	-2.1665677636	-0.6567097501	-0.248113
C	-3.3985254818	-0.9955021147	 0.660163824	-0.183725
O	-2.1641244456	-0.4691830858	 0.9453806944	-0.195322
H	 1.049263687	 1.8851318881	 0.2968489476	 0.111964
H	-0.4963201062	 2.1353896463	-0.5362964005	 0.121699
H	-0.4759910456	 1.7348291617	 1.1866274008	 0.132269
H	 0.4492317156	-0.1422395585	-1.0772949882	 0.113619
H	 0.5242950414	-0.5215913771	 0.637763999	 0.116553
H	-1.8488127871	-1.1816451099	-2.2347483386	 0.11131
H	-6.334566815	-2.6111488121	-1.3591686598	 0.134212
H	-5.4450588374	-2.8657590484	 0.1706411752	 0.121228
H	-6.0520699482	-1.2387164175	-0.2489805443	 0.121121
H	-4.095842598	-1.0411056684	 1.4768728169	 0.126286
51.4877	82.2079	148.8887	183.8583	217.473	236.9076	305.5435	335.7956	402.8183	496.0523	615.6411	632.5919	671.1757	693.3046	719.8713	783.8714	801.2564	936.3797	979.3326	996.8803	1061.4104	1073.3958	1089.5394	1160.7209	1179.1892	1182.2432	1213.9037	1242.8191	1288.2889	1331.8385	1354.9113	1404.965	1427.5888	1474.3273	1475.6608	1484.1134	1495.819	1506.7098	1508.4898	1594.424	1665.9036	2997.5946	3023.3248	3041.5493	3052.8718	3079.8974	3112.1726	3123.1494	3136.6579	3263.5056	3297.5298
CCC1=CC(OC)=CO1	CCc1cc(OC)co1	
InChI=1S/C7H10O2/c1-3-6-4-7(8-2)5-9-6/h4-5H,3H2,1-2H3	InChI=1S/C7H10O2/c1-3-6-4-7(8-2)5-9-6/h4-5H,3H2,1-2H3
