17
gdb 23270	2.67836	1.47176	1.07236	2.8204	70.91	-0.2435	0.0027	0.2462	1108.7805	0.136688	-455.081869	-455.073794	-455.07285	-455.114858	31.121	
O	-0.0711809165	 1.3359852703	 0.1964422103	-0.391011
N	 0.0270444955	-0.0638681575	 0.245107316	-0.200883
C	-1.0903587919	-0.6160508035	-0.0000753752	 0.331717
C	-2.4063637853	 0.0534736308	-0.33416502	-0.299726
C	-3.2474638789	-1.0825097646	-0.8863608668	-0.048462
N	-2.5834693076	-1.778734044	-2.0102328661	-0.349226
C	-2.56450806	-2.3784972506	-0.6573335909	-0.068243
C	-1.2073858436	-2.1482179445	-0.0054765197	 0.064922
O	-0.1515394552	-2.8149030941	-0.6563549446	-0.422731
H	 0.8370984287	 1.60826877	 0.3657809373	 0.307793
H	-2.8615721089	 0.479812596	 0.5689126961	 0.123643
H	-2.2641350102	 0.8748268617	-1.0422955209	 0.138238
H	-4.3294287864	-1.005001859	-0.8896122035	 0.092265
H	-3.2796289972	-2.2498977121	-2.5816778772	 0.23716
H	-3.1003812196	-3.3036135682	-0.4773121986	 0.092636
H	-1.2091885861	-2.5260230475	 1.0238105674	 0.103703
H	-0.1795983368	-2.5147887632	-1.5741461236	 0.288203
46.1689	180.5544	197.7641	250.7851	334.8737	377.6803	407.1096	418.5792	506.8071	545.7502	585.0757	643.1428	729.5056	812.2383	832.5443	870.1173	884.6813	958.0568	963.6422	995.7486	1016.3764	1068.0397	1098.4421	1123.2787	1155.7691	1178.6771	1214.0442	1241.666	1281.4131	1293.2512	1322.3711	1360.8841	1402.5386	1424.6095	1436.8953	1460.3128	1754.6014	3036.1307	3046.8822	3091.7448	3166.8339	3180.5953	3511.3532	3774.8561	3816.7258
ON=C1CC2NC2C1O	ON=C1C[C@H]2N[C@H]2[C@H]1O	
InChI=1S/C5H8N2O2/c8-5-3(7-9)1-2-4(5)6-2/h2,4-6,8-9H,1H2	InChI=1S/C5H8N2O2/c8-5-3(7-9)1-2-4(5)6-2/h2,4-6,8-9H,1H2/t2-,4-,5+/m1/s1
