23
gdb 110450	2.74851	1.32243	1.06586	0.1981	88.74	-0.2422	0.0853	0.3275	1260.2606	0.206355	-351.112726	-351.104039	-351.103094	-351.145903	34.505	
C	 0.022369495	 1.5215513128	 0.2177427781	-0.376439
C	 0.0356689316	 0.0076984171	-0.0202720997	-0.211878
C	-1.3577422776	-0.6134329922	 0.0332563835	 0.036303
C	-1.5610777919	-2.1298212523	 0.0037323017	-0.11164
C	-1.5404836724	-2.6422387663	 1.4541539894	-0.058917
C	-2.7925432899	-2.034325895	 0.8689029553	-0.087417
C	-2.1935254429	-0.6505104746	 1.3547482382	-0.079688
C	-1.3277174651	-1.4422281587	 2.3801792861	 0.017147
C	-1.9913690346	-1.5986350629	 3.7444482152	-0.406823
H	 1.0287566879	 1.9465981314	 0.1528511351	 0.109845
H	-0.6033723724	 2.0331031408	-0.5224684092	 0.112036
H	-0.376930585	 1.7634954293	 1.2087716795	 0.116013
H	 0.4708286587	-0.2047366353	-1.0060843302	 0.090248
H	 0.6962768984	-0.4774946983	 0.7067886236	 0.098872
H	-1.9832187506	-0.1646713379	-0.7497260719	 0.063674
H	-1.388593933	-2.8090727659	-0.8227065106	 0.077921
H	-1.3527815077	-3.6877251332	 1.66900415	 0.076794
H	-3.795950118	-2.4101041409	 0.7341699294	 0.084785
H	-2.7639218336	 0.2189053268	 1.679611229	 0.060842
H	-0.2972204222	-1.0897544959	 2.5128269923	 0.056762
H	-3.0302198863	-1.930845318	 3.6414611907	 0.11472
H	-1.4642189829	-2.3360860787	 4.3599674749	 0.108854
H	-1.9916041553	-0.6494269523	 4.2919177096	 0.107985
72.6289	157.4664	184.3275	228.1383	248.1203	270.8112	291.6029	394.5752	526.1868	545.0988	693.9469	749.0487	784.4045	795.3108	803.7516	807.7749	871.4419	882.2497	915.8898	945.5807	985.966	1004.0832	1019.9879	1024.5612	1034.1638	1048.5164	1064.0093	1090.6891	1113.6924	1129.9178	1146.9525	1169.1077	1177.1048	1203.2404	1245.6448	1279.9306	1284.9689	1309.7285	1341.748	1361.2981	1385.9771	1407.3334	1407.5807	1415.7	1491.112	1495.2347	1498.5123	1501.0021	1509.011	3015.9435	3018.7698	3022.9678	3025.6796	3029.6942	3061.9686	3088.0397	3095.4619	3097.1807	3101.5151	3119.7068	3177.5098	3185.8641	3224.1029
CCC1C2C3C2C1C3C	CC[C@H]1[C@H]2[C@@H]3[C@H]2[C@H]1[C@H]3C	
InChI=1S/C9H14/c1-3-5-6-4(2)7-8(5)9(6)7/h4-9H,3H2,1-2H3	InChI=1S/C9H14/c1-3-5-6-4(2)7-8(5)9(6)7/h4-9H,3H2,1-2H3/t4-,5-,6+,7-,8+,9-/m1/s1
