23
gdb 120320	3.06073	0.97463	0.9298	1.4903	85.43	-0.2429	0.0804	0.3233	1434.0883	0.207103	-388.288234	-388.279116	-388.278172	-388.322631	34.415	
C	-0.0951500616	 1.5421537934	 0.0934186086	-0.381133
C	-0.148905364	 0.0314318284	-0.1473318539	-0.155932
C	 0.9448283599	-0.4611618803	-1.1061152811	-0.211425
C	 0.9089725904	-1.9650465486	-1.3060140147	-0.010959
C	 0.0307681796	-2.6801176611	-2.3112581651	-0.077662
C	-0.4891503098	-1.8966503811	-3.502756758	-0.095385
O	 0.6306712977	-1.2081750433	-4.0568536025	-0.25224
C	 1.8228205502	-1.9255993144	-3.7417532729	-0.092377
C	 1.537022531	-2.7001523453	-2.468391234	-0.104155
H	 0.8667461394	 1.8398396144	 0.5259591135	 0.112101
H	-0.2192989634	 2.0962590108	-0.84366028	 0.115947
H	-0.883322705	 1.8675067159	 0.7798198017	 0.108751
H	-0.0572595793	-0.4967360295	 0.8114165142	 0.089407
H	-1.1323200896	-0.2438890832	-0.5496404316	 0.09622
H	 0.8497036209	 0.0525324518	-2.0670909354	 0.122616
H	 1.9272656595	-0.1814504292	-0.7000768888	 0.088434
H	 0.9978131413	-2.5132751873	-0.3689893004	 0.08027
H	-0.5213714184	-3.5622382018	-2.0072677699	 0.084953
H	-0.9314502628	-2.589413968	-4.2370725673	 0.09206
H	-1.2413921741	-1.1381591096	-3.2580644283	 0.106976
H	 2.0890515995	-2.6259638176	-4.5498912218	 0.091652
H	 2.6273568858	-1.1867235273	-3.6543160574	 0.106599
H	 2.1175705028	-3.5964790371	-2.280843295	 0.085282
71.0565	83.5465	113.1328	221.0811	225.8206	246.6266	255.9219	350.8817	465.8041	506.6358	687.029	733.1213	748.5777	770.7491	813.2353	871.8758	899.8173	916.0122	921.2382	979.1035	997.399	1010.4933	1019.6901	1052.9892	1085.7791	1094.4242	1123.8254	1127.132	1134.6416	1149.3285	1222.4104	1224.6076	1244.4744	1271.2693	1303.2403	1327.5894	1328.644	1359.4652	1364.0107	1378.9327	1405.2169	1410.7033	1454.8151	1487.5513	1498.299	1498.5655	1512.4104	1516.1081	1525.1073	2969.4101	2975.8523	3007.2968	3014.6488	3028.1068	3044.3674	3055.0598	3058.0349	3088.4128	3096.3284	3099.8702	3115.2845	3167.3079	3177.5151
CCCC1C2COCC12	CCC[C@H]1[C@H]2COC[C@@H]12	
InChI=1S/C8H14O/c1-2-3-6-7-4-9-5-8(6)7/h6-8H,2-5H2,1H3	InChI=1S/C8H14O/c1-2-3-6-7-4-9-5-8(6)7/h6-8H,2-5H2,1H3/t6-,7+,8-
