19
gdb 61030	3.74862	1.00627	0.82815	2.2441	77.14	-0.2447	-0.0378	0.2069	1357.8446	0.158741	-423.045125	-423.036406	-423.035462	-423.079192	32.371	
O	 0.9482572508	-0.2349234267	-1.1001575721	-0.436373
C	 0.0579363924	-0.0781085031	-0.0284123498	 0.026546
C	-1.256760028	-0.7627332556	-0.343577842	 0.136135
O	-1.4296171695	-1.3575812755	-1.3811500024	-0.265475
C	 0.6694469273	-0.6100478642	 1.2809295031	 0.013274
C	 2.0600148487	 0.0152844813	 1.5857720742	-0.263386
C	 2.0597555087	 0.1390056528	 3.0894193837	-0.063852
C	 0.8517917424	-0.05726664	 3.6128463218	-0.063817
C	-0.1852825376	-0.3508937322	 2.5540246362	-0.287733
H	 0.4671313456	-0.7502474444	-1.767104951	 0.293918
H	-0.1760352592	 0.9938053465	 0.1217745041	 0.09002
H	-2.0533140938	-0.6930831067	 0.423387061	 0.102844
H	 0.8048557882	-1.691315304	 1.164883852	 0.087603
H	 2.8776758	-0.5992829009	 1.1976258561	 0.116628
H	 2.1719554489	 1.0000765121	 1.1105509807	 0.114658
H	 2.9506968068	 0.3953886226	 3.6520549998	 0.094775
H	 0.6015092124	 0.0137471781	 4.6654179748	 0.094492
H	-0.8591091037	 0.5112595486	 2.4268661065	 0.102011
H	-0.8263930905	-1.2029534084	 2.8075461732	 0.107732
70.9436	77.898	112.9697	180.8295	303.1926	347.5066	374.9833	392.8571	407.8497	462.9837	622.3935	723.1081	766.5296	784.6068	822.8626	884.0029	923.5132	948.0594	976.7493	978.0128	983.4031	1031.6909	1083.3988	1100.841	1132.5961	1154.5721	1166.6023	1195.4472	1270.6858	1288.6565	1296.1411	1321.4403	1336.6653	1367.1864	1370.407	1396.6788	1440.6543	1485.0325	1492.6338	1691.1581	1807.9592	2919.7121	2944.5587	2983.0015	3012.4102	3035.6142	3053.391	3077.7184	3182.5479	3207.9672	3686.6048
OC(C=O)C1CC=CC1	O[C@@H](C=O)[C@H]1CC=CC1	
InChI=1S/C7H10O2/c8-5-7(9)6-3-1-2-4-6/h1-2,5-7,9H,3-4H2	InChI=1S/C7H10O2/c8-5-7(9)6-3-1-2-4-6/h1-2,5-7,9H,3-4H2/t7-/m0/s1
