16
gdb 48764	3.12402	1.3086	1.05088	4.5281	70.54	-0.2504	-0.0319	0.2185	1113.5765	0.124743	-437.929571	-437.921866	-437.920922	-437.962018	29.3	
O	-0.137123383	 0.0439304246	 0.1474651185	-0.259005
C	 0.0033144072	 1.2268891107	-0.0396460367	 0.090203
C	 1.3039682748	 1.9316749813	-0.0120772936	 0.227102
C	 1.3051839237	 3.4369959476	 0.2487257803	-0.344894
C	 1.6114247773	 2.9442926619	-1.1276577593	-0.032128
N	 2.9757337548	 2.7131089221	-1.4782724896	-0.310535
C	 3.6302908139	 1.7822876579	-0.6954175737	 0.40315
O	 4.8124439096	 1.5406146994	-0.7348832353	-0.359993
C	 2.5784697061	 1.1488372004	 0.2294732753	-0.432041
H	-0.8693648512	 1.8854159662	-0.2592835052	 0.070706
H	 0.3356338459	 3.8963771415	 0.4159058129	 0.130916
H	 2.1161595117	 3.8387359107	 0.8466596327	 0.135612
H	 0.9150607606	 3.1084617607	-1.9431648237	 0.120372
H	 3.5076238041	 3.34650486	-2.0548205711	 0.258184
H	 2.9369592112	 1.187926323	 1.2611983103	 0.142287
H	 2.4331841532	 0.094978722	-0.0250469218	 0.160064
90.3778	121.2134	204.9395	256.8955	346.7598	444.6573	456.4399	469.9774	497.0167	593.3103	624.8246	700.3069	786.5089	812.678	864.3184	893.3294	929.3822	987.0999	1017.2326	1058.0188	1065.7719	1081.0027	1127.8399	1167.3745	1233.7496	1248.2607	1289.0535	1342.3152	1398.6352	1413.1199	1439.3087	1463.9268	1475.3097	1815.5512	1840.7296	2859.7856	3072.9973	3114.8792	3127.2443	3167.2287	3221.0889	3635.5059
O=CC12CC1NC(=O)C2	O=C[C@]12C[C@H]1NC(=O)C2	
InChI=1S/C6H7NO2/c8-3-6-1-4(6)7-5(9)2-6/h3-4H,1-2H2,(H,7,9)	InChI=1S/C6H7NO2/c8-3-6-1-4(6)7-5(9)2-6/h3-4H,1-2H2,(H,7,9)/t4-,6-/m1/s1
