17
gdb 33837	4.29009	1.09065	1.00631	3.8368	79.33	-0.2572	0.0145	0.2718	1187.8915	0.137194	-380.82952	-380.821846	-380.820902	-380.861713	29.863	
N	 0.0964594176	-1.141201786	-0.0777497575	-0.349699
C	 0.0597776755	 0.0149381423	-0.0249275938	 0.189657
C	 0.0061860766	 1.4360809662	 0.0555450711	 0.207551
C	 0.2839179562	 2.3298838376	-1.1313606159	-0.322023
C	 1.1901290505	 2.4382537019	 0.0601254688	-0.189701
C	 0.5030671102	 3.2050170057	 1.1691536287	 0.375248
C	 1.1535053709	 3.8622443629	 2.3184216115	-0.313661
N	 0.406383401	 4.651977966	 1.3144683152	-0.360644
C	-0.6963476523	 2.235911115	 1.1740956916	-0.36049
H	 0.7081231141	 1.8302807401	-1.9952390712	 0.141756
H	-0.4215280166	 3.1235037461	-1.361838573	 0.132435
H	 2.246908085	 2.2067856102	 0.0012218237	 0.116471
H	 0.6932133885	 3.8211558333	 3.3020127027	 0.127271
H	 2.2394857817	 3.9197117403	 2.3280802032	 0.11858
H	 1.0507894882	 5.118683753	 0.6798574005	 0.234235
H	-1.6678365284	 2.6600615376	 0.9079325108	 0.121118
H	-0.7833269789	 1.6736773079	 2.1055577836	 0.131896
85.7551	154.108	216.2574	273.7012	331.7109	391.1899	451.2874	492.0987	551.5692	577.6118	632.8317	789.4859	818.0258	825.9125	877.7785	919.3734	948.7327	962.7313	988.0889	998.1112	1017.1564	1049.3705	1093.1012	1102.6453	1134.6265	1140.2975	1206.8058	1231.391	1244.3536	1268.9189	1293.3303	1370.7352	1430.1169	1478.1951	1493.3466	1518.3316	2345.6876	3068.2519	3103.4766	3123.1113	3129.4418	3188.6762	3190.1791	3220.8171	3492.4072
N#CC12CC1C1(CN1)C2	N#C[C@]12C[C@H]1[C@]1(CN1)C2	
InChI=1S/C7H8N2/c8-3-6-1-5(6)7(2-6)4-9-7/h5,9H,1-2,4H2	InChI=1S/C7H8N2/c8-3-6-1-5(6)7(2-6)4-9-7/h5,9H,1-2,4H2/t5-,6-,7-/m1/s1
