14
gdb 33623	3.57491	1.64567	1.44	4.2266	68.96	-0.2743	0.0028	0.2772	888.4588	0.102465	-399.474522	-399.468444	-399.4675	-399.505008	24.589	
N	 0.0113883383	-1.1891128882	 0.0085989038	-0.342738
C	-0.0127356302	-0.0321564968	 0.0278959436	 0.112815
C	-0.0499705456	 1.3941958743	 0.0639010907	 0.258506
C	-0.7041430666	 2.336699139	 1.1265990376	-0.174182
C	-0.9351833041	 3.3320858028	 0.0158216513	-0.092267
C	 0.3718942383	 3.3459567938	 0.8079101219	-0.092281
C	 1.1812010612	 2.3708612921	-0.0893332621	 0.022362
O	 0.8603928566	 2.6588383229	-1.461353972	-0.279237
C	-0.4995071527	 2.3527447217	-1.1075321941	 0.022392
H	-1.2504920641	 2.1217026446	 2.0318850333	 0.119928
H	-1.6151412741	 4.1698730158	-0.0296942611	 0.11161
H	 0.7138415059	 4.19455638	 1.3817138656	 0.111609
H	 2.2249380068	 2.1319772691	 0.0992286538	 0.11074
H	-1.1460540095	 2.095685929	-1.9429397622	 0.110742
148.4067	161.9426	454.4131	495.3045	507.8865	576.2219	599.6505	757.8185	762.3657	809.2463	825.7053	842.4223	860.2015	894.9831	903.5041	925.4374	959.2746	1000.2811	1021.3665	1043.8916	1044.0522	1085.0068	1146.6034	1158.8357	1198.9723	1207.7433	1262.9427	1283.962	1324.4505	1344.9432	2346.1993	3160.1505	3162.5912	3225.5184	3229.0324	3245.4916
N#CC12C3C4C3C1OC24	N#C[C@@]12[C@@H]3[C@H]4[C@@H]3[C@@H]1O[C@@H]24	
InChI=1S/C7H5NO/c8-1-7-4-2-3(4)6(7)9-5(2)7/h2-6H	InChI=1S/C7H5NO/c8-1-7-4-2-3(4)6(7)9-5(2)7/h2-6H/t2-,3+,4-,5-,6+,7+
