21
gdb 37911	2.45044	1.93539	1.36389	0.3537	86.63	-0.2281	0.0377	0.2658	1021.4621	0.186111	-349.932891	-349.925591	-349.924647	-349.964575	30.131	
C	-0.1446250246	 1.4547627862	-0.0649394044	-0.262293
C	 1.3777732852	 1.6244895279	-0.0075537409	-0.069505
C	 1.9556472063	 1.0146230653	 1.2385505296	-0.003235
C	 1.3839313766	 1.1016246555	 2.6496287608	-0.290684
C	 0.1638817626	 0.3313051614	 3.0816367442	-0.039608
C	-0.6610916991	-0.4987561683	 2.4437041404	-0.054809
C	-0.6963550159	-0.9431364982	 1.0071847715	-0.273877
C	 0.052691451	-0.1002096261	-0.0170758836	 0.014563
C	 1.5689773699	 0.1032484024	 0.1072161318	-0.105047
H	-0.706733139	 1.9049321841	 0.758583865	 0.101288
H	-0.5857247045	 1.786941917	-1.007202827	 0.097187
H	 1.9442442511	 2.3343222324	-0.599261674	 0.077799
H	 3.0355986926	 1.1560920986	 1.2537165815	 0.082548
H	 2.1847948818	 0.802354657	 3.3426219441	 0.108908
H	 1.2132419584	 2.163513167	 2.8884518882	 0.10981
H	-0.0456780853	 0.4855956246	 4.1407114362	 0.078443
H	-1.4498430316	-0.9431511002	 3.0502503112	 0.077174
H	-0.3309682956	-1.9809989975	 0.9472624509	 0.105637
H	-1.7516471583	-1.0032635954	 0.7024559159	 0.098925
H	-0.1643026265	-0.5067287921	-1.01025739	 0.071892
H	 2.3052077949	-0.5300921416	-0.3761854214	 0.074885
72.4443	187.3299	281.684	351.2334	365.3721	396.7001	468.8365	636.4126	657.9904	705.3421	747.4787	776.0671	813.8666	819.2579	839.625	884.2835	920.1962	953.1364	977.2677	997.8066	1020.54	1023.333	1035.9407	1055.9729	1068.0311	1095.7978	1123.9333	1155.2872	1196.6548	1225.5416	1254.3576	1262.0437	1274.3833	1286.8815	1318.4961	1341.4444	1364.3853	1392.9755	1405.9286	1438.8435	1458.3321	1464.7335	1467.6988	1495.0664	1750.8855	2980.7693	2981.9134	2998.8369	3008.6313	3045.8209	3055.6859	3105.5554	3107.0092	3112.0827	3133.2702	3158.6362	3175.3799
C1C2C3CC=CCC1C23	C1[C@H]2[C@H]3CC=CC[C@@H]1[C@@H]23	
InChI=1S/C9H12/c1-2-4-7-8-5-6(3-1)9(7)8/h1-2,6-9H,3-5H2	InChI=1S/C9H12/c1-2-4-7-8-5-6(3-1)9(7)8/h1-2,6-9H,3-5H2/t6-,7+,8-,9+/m0/s1
