19
gdb 121710	6.92367	0.57875	0.53949	3.9213	77.11	-0.2419	-0.0133	0.2287	2012.0355	0.157325	-456.358591	-456.347982	-456.347038	-456.39634	35.39	
C	 0.2430519129	 1.3224984817	 0.0061693791	-0.229645
O	 0.0842336961	-0.0762528509	 0.0009367962	-0.238242
C	-1.271170604	-0.4696705568	 0.0115442067	-0.049129
C	-1.3060276233	-1.9908662513	 0.0044382949	-0.352974
C	-2.7343709982	-2.5275021456	 0.0148361174	 0.435123
O	-3.7091983437	-1.8175748886	 0.0284674322	-0.310226
N	-2.780351975	-3.9232815209	 0.0068384461	-0.332569
C	-3.886983	-4.7704737912	 0.0127889606	 0.085772
N	-5.0921173441	-4.3817879334	 0.0299374073	-0.396976
H	 1.3158385416	 1.5302716666	-0.0028259376	 0.12542
H	-0.2176070833	 1.7895460669	-0.8786456154	 0.106406
H	-0.2010013653	 1.781000532	 0.9038496997	 0.106418
H	-1.7895703004	-0.0817329531	 0.901484593	 0.106769
H	-1.8058769802	-0.0731136421	-0.8648582453	 0.106701
H	-0.7760677122	-2.3662875814	-0.880072914	 0.130979
H	-0.7603427254	-2.3749201322	 0.8755825228	 0.13111
H	-1.8874020813	-4.3904637155	-0.0054920032	 0.25355
H	-3.5576337418	-5.8180682852	 0.0008566533	 0.092662
H	-5.7101602024	-5.1919610288	 0.0306606861	 0.228849
30.5448	49.2824	86.1939	96.028	117.4649	174.8062	214.3374	230.059	290.1139	323.7188	484.1463	540.0365	543.7317	599.5742	785.2812	815.3165	825.997	931.0738	996.6324	1026.4272	1062.4117	1080.1152	1102.5232	1157.8054	1176.7971	1180.6153	1221.6132	1233.2751	1262.2771	1303.2527	1331.9301	1424.2623	1433.3096	1468.9293	1483.1291	1484.6934	1505.4937	1526.4769	1534.9598	1737.8967	1829.2386	2969.4965	2988.9185	3013.9335	3017.5792	3023.7878	3030.4275	3069.5581	3113.5726	3495.4073	3633.428
COCCC(=O)NC=N	COCCC(=O)NC=N	
InChI=1S/C5H10N2O2/c1-9-3-2-5(8)7-4-6/h4H,2-3H2,1H3,(H2,6,7,8)	InChI=1S/C5H10N2O2/c1-9-3-2-5(8)7-4-6/h4H,2-3H2,1H3,(H2,6,7,8)
