18
gdb 112318	3.08173	1.302	1.11724	3.8915	72.12	-0.236	-0.016	0.22	1118.8782	0.148099	-439.077362	-439.069149	-439.068204	-439.110245	31.21	
O	 0.0216341766	 1.4826240613	 0.2162262547	-0.414733
C	 0.0584445443	 0.0840938618	-0.0369043229	-0.092776
C	-1.3588182799	-0.4737196026	-0.0349546328	 0.041428
C	-2.2359586069	-0.0590507496	 1.1624518647	-0.378739
C	-3.6519261068	 0.012248004	 0.5722410471	 0.420619
O	-4.6893340491	-0.0772542451	 1.1774533054	-0.326394
C	-3.4996519036	 0.1397482601	-0.9142148394	-0.146771
C	-2.5794424991	 1.2355666836	-1.3545719071	-0.241458
N	-2.097324491	-0.1383474715	-1.2907474212	-0.112318
H	 0.9157015369	 1.8281854084	 0.1460094298	 0.294126
H	 0.5149528213	-0.1328320963	-1.0135794951	 0.106532
H	 0.6434864646	-0.438769801	 0.7356735099	 0.093104
H	-1.265145306	-1.5659940373	-0.0496464287	 0.093162
H	-2.2122791049	-0.7728726026	 1.9875674034	 0.130864
H	-1.9513017451	 0.9188648353	 1.5627634791	 0.151455
H	-4.2978375829	-0.217105039	-1.5555007976	 0.111316
H	-2.7011858346	 1.6236886587	-2.3615324442	 0.125955
H	-2.2283058639	 1.9560197518	-0.6250069451	 0.14463
83.7292	134.3978	196.0712	213.0772	264.7262	296.3896	382.4519	466.5419	535.4409	580.6873	609.6577	683.564	742.0116	797.4959	853.3423	890.9116	917.671	942.4411	978.6818	1036.8911	1063.309	1099.511	1106.8544	1130.1339	1150.9279	1162.4588	1199.6095	1230.812	1248.3851	1256.9295	1289.6699	1324.5269	1359.8844	1387.6693	1454.9342	1460.7745	1508.7191	1518.5999	1842.07	2978.5283	3020.7561	3037.9955	3071.1809	3125.8042	3127.5613	3180.3537	3223.1317	3840.7283
OCC1CC(=O)C2CN12	OC[C@H]1CC(=O)[C@H]2CN12	
InChI=1S/C6H9NO2/c8-3-4-1-6(9)5-2-7(4)5/h4-5,8H,1-3H2	InChI=1S/C6H9NO2/c8-3-4-1-6(9)5-2-7(4)5/h4-5,8H,1-3H2/t4-,5-,7?/m1/s1
