19
gdb 119659	3.79359	1.10977	0.98962	2.5353	76.07	-0.2272	0.0788	0.306	1263.0588	0.157792	-422.923819	-422.91559	-422.914646	-422.957386	31.184	
C	 0.0240501701	 1.4912488497	 0.0976481158	-0.387102
C	-0.022318782	-0.0232120101	 0.0060282213	-0.065516
O	 0.7470393033	-0.5571058012	 1.0811202035	-0.293916
C	 0.7961967804	-1.9200489607	 1.1249154864	 0.42166
C	 1.4001356252	-2.9262959375	 0.1095701892	-0.350392
C	 0.9408363295	-3.817489221	 1.2819555129	-0.097658
C	 1.2867061441	-2.7380728534	 2.3555608181	 0.022851
O	-0.0148238633	-2.7976348602	 3.0068031687	-0.325227
C	-0.3151601784	-2.9481263164	 1.5894692219	 0.010806
H	 1.0549577689	 1.8483683619	 0.0228956721	 0.129156
H	-0.5588648171	 1.9383335172	-0.7130672893	 0.116622
H	-0.3884153872	 1.8300569925	 1.0519084129	 0.133298
H	-1.0578928671	-0.3882600721	 0.0756869216	 0.096932
H	 0.3871224532	-0.3690351797	-0.9547129959	 0.098221
H	 0.8698185215	-3.059722465	-0.8371631918	 0.100921
H	 2.47848483	-2.8578224433	-0.0578653958	 0.104223
H	 1.01797381	-4.8940290122	 1.4073637193	 0.093424
H	 2.1807794847	-2.6131740914	 2.9654259896	 0.097867
H	-1.3514630961	-3.080701677	 1.2802153692	 0.09383
62.1085	70.1776	147.4001	241.6179	307.9772	346.6712	356.9158	450.5104	573.5549	686.0202	743.8518	782.9027	820.1119	846.5602	850.1214	884.4886	889.024	923.3292	943.3747	990.9617	1033.4931	1057.658	1070.7692	1089.5103	1110.1178	1130.4417	1152.6952	1168.479	1171.2528	1186.5347	1220.0171	1250.2166	1296.9501	1298.1856	1361.4555	1403.7758	1435.624	1483.6229	1499.8617	1514.504	1527.174	2985.5464	3018.6234	3046.8299	3054.1001	3112.1173	3121.2489	3123.701	3125.7553	3130.0382	3164.867
CCOC12CC3C1OC23	CCO[C@@]12C[C@H]3[C@@H]1O[C@@H]23	
InChI=1S/C7H10O2/c1-2-8-7-3-4-5(7)9-6(4)7/h4-6H,2-3H2,1H3	InChI=1S/C7H10O2/c1-2-8-7-3-4-5(7)9-6(4)7/h4-6H,2-3H2,1H3/t4-,5-,6+,7-
