16
gdb 53202	3.12223	1.04885	0.8529	3.2469	80.44	-0.2364	-0.0075	0.2289	1364.2758	0.124276	-396.921227	-396.912176	-396.911232	-396.956907	31.481	
C	 0.002856211	 1.5103101443	-0.0164543284	-0.497453
C	 0.0161223337	 0.0562379167	 0.0336045674	 0.033348
C	 0.0274548812	-1.1457097313	 0.0713782844	 0.157583
C	 0.0334044887	-2.600983755	 0.1176952426	-0.233849
N	 0.5558771924	-3.1206559097	 1.4101436109	-0.233749
C	-0.3629038443	-3.8709874798	 1.8752955897	 0.062222
N	-1.5099332857	-3.9957027758	 1.1033141871	-0.340468
C	-1.3735691069	-3.2199301193	-0.0479277521	 0.383047
N	-2.1564956099	-3.0438182222	-1.0269788353	-0.530689
H	 0.6611077373	 1.8872920781	-0.8068241524	 0.14946
H	-1.0054922669	 1.8902752619	-0.2138601357	 0.15047
H	 0.3416066613	 1.9414890726	 0.9319914775	 0.149717
H	 0.6739026139	-2.9901110336	-0.6853001822	 0.143477
H	-0.2924224914	-4.409519041	 2.8153525444	 0.138159
H	-2.3312036739	-4.5213409012	 1.3513273487	 0.259661
H	-3.0274935705	-3.5667004546	-0.9221516967	 0.209065
24.3879	60.0761	87.421	144.1445	254.9141	278.9363	353.5771	401.0903	429.2191	496.9156	524.8433	646.8284	675.6426	841.3809	857.5088	864.2175	918.8964	946.1745	972.463	1052.6866	1053.6847	1076.0484	1088.5742	1181.7561	1226.8781	1271.1365	1318.0795	1350.4748	1413.1584	1415.2338	1477.0165	1478.1604	1685.2507	1768.2667	2381.5571	3018.9057	3028.2416	3089.8682	3090.3205	3189.7464	3457.054	3660.1162
CC#CC1N=CNC1=N	CC#C[C@H]1N=CN[C]1[NH]	
InChI=1S/C6H7N3/c1-2-3-5-6(7)9-4-8-5/h4-5H,1H3,(H2,7,8,9)	InChI=1S/C6H7N3/c1-2-3-5-6(7)9-4-8-5/h4-5H,1H3,(H2,7,8,9)/t5-/m1/s1
