17
gdb 10421	2.6157	1.90084	1.38499	3.2782	68.32	-0.2817	0.0236	0.3053	944.2941	0.142449	-363.864689	-363.856547	-363.855602	-363.897278	29.841	
O	 0.1387545665	 1.2047838281	-0.4543145133	-0.416835
C	-0.0578571582	-0.1419326061	-0.0890716641	-0.110286
C	-1.5454811024	-0.4920251109	 0.1202297781	 0.142471
C	-2.365884041	-0.4440388256	-1.2115375659	-0.24937
C	-2.2394344865	-1.9880800405	-1.3150707416	-0.217199
C	-1.7966128129	-2.0361661491	 0.1727606889	-0.263079
C	-2.0665610321	 0.3007076138	 1.2264659322	 0.220397
N	-2.4536694862	 0.9537066002	 2.0999606367	-0.35037
H	-0.1227071256	 1.758465342	 0.2906748141	 0.299369
H	 0.3286596882	-0.7439659541	-0.9176666473	 0.116765
H	 0.5072748207	-0.4137019886	 0.8152588582	 0.107026
H	-3.3945670497	-0.1180886232	-1.0474696373	 0.123229
H	-1.9211413353	 0.168172419	-1.9978608168	 0.129502
H	-3.1487711022	-2.5350804845	-1.568244282	 0.113488
H	-1.4490520617	-2.303228229	-2.0001518559	 0.114816
H	-0.9248944518	-2.6444650681	 0.4276746289	 0.113262
H	-2.6128932797	-2.2939822733	 0.8496842972	 0.126813
101.3198	115.9252	170.9137	182.2211	242.5926	325.803	386.6946	437.5253	532.9357	565.7065	647.5164	715.2176	797.2393	855.3511	902.5994	917.402	945.7155	974.5393	1045.8861	1067.808	1104.6632	1129.5034	1185.1481	1214.8091	1248.0196	1258.8916	1267.2395	1275.6946	1318.6377	1383.6585	1420.6547	1476.9795	1486.7108	1496.7112	1509.0062	2340.7004	2993.6662	3066.1195	3074.4421	3079.4878	3082.4047	3115.864	3130.2276	3141.3853	3796.4253
OCC1(CCC1)C#N	OCC1(CCC1)C#N	
InChI=1S/C6H9NO/c7-4-6(5-8)2-1-3-6/h8H,1-3,5H2	InChI=1S/C6H9NO/c7-4-6(5-8)2-1-3-6/h8H,1-3,5H2
