20
gdb 108950	2.92911	1.30956	1.16195	1.2056	79.24	-0.2324	0.022	0.2545	1174.6777	0.171101	-403.160453	-403.151572	-403.150628	-403.194569	32.932	
C	-0.8848146162	 0.7114660748	 0.0853584318	-0.384149
C	 0.6169829696	 0.3864326574	 0.0299449316	-0.275397
C	 1.1107486009	-0.3401697405	 1.2374893227	 0.386492
N	 1.9685893219	 0.0704086295	 2.0888217983	-0.302587
C	 2.099083398	-0.9687336672	 3.0797874459	-0.052786
C	 0.8618287294	-1.3348454611	 3.8936167517	-0.054897
C	-0.3332220526	-0.4313510396	 4.0843158085	-0.417269
C	 1.1644844209	-2.0824093231	 2.6244314875	 0.031838
O	 0.5816076115	-1.5905631523	 1.427299849	-0.244814
H	-1.1111928218	 1.3806396603	 0.9210321769	 0.130148
H	-1.2004968193	 1.2062679627	-0.8373654665	 0.119187
H	-1.4774745037	-0.1989599213	 0.2061259509	 0.136225
H	 0.8187937133	-0.2390193065	-0.8482699413	 0.122504
H	 1.2102433063	 1.2982996167	-0.0650451772	 0.132444
H	 3.0860726581	-1.1106524707	 3.5038923572	 0.096862
H	 1.118906517	-1.9241844124	 4.7712852971	 0.093512
H	-0.5005320644	 0.2161287471	 3.2216968026	 0.134745
H	-1.2436701733	-1.0181521659	 4.2451677863	 0.119731
H	-0.1878682797	 0.2148531301	 4.955853502	 0.122732
H	 1.3600659442	-3.146872478	 2.5883439851	 0.105479
48.054	108.1721	127.5603	208.35	213.0413	230.8746	326.9552	384.6139	511.9717	551.5346	679.668	719.4418	728.0445	760.5942	786.7672	822.5717	887.9311	931.1701	972.4379	989.6106	1004.5968	1026.4357	1067.6482	1081.5702	1094.6717	1129.3319	1135.7552	1152.1596	1216.7467	1241.8424	1290.4084	1325.8455	1351.1258	1372.0614	1407.4917	1414.9082	1424.4368	1472.0794	1489.6196	1497.4197	1499.9082	1507.8969	1703.7247	3039.4278	3041.0544	3044.8669	3098.7423	3107.7827	3116.1442	3125.0779	3131.0536	3139.2704	3175.0603	3189.0244
CCC1=NC2C(C)C2O1	CCC1=N[C@H]2[C@@H](C)[C@H]2O1	
InChI=1S/C7H11NO/c1-3-5-8-6-4(2)7(6)9-5/h4,6-7H,3H2,1-2H3	InChI=1S/C7H11NO/c1-3-5-8-6-4(2)7(6)9-5/h4,6-7H,3H2,1-2H3/t4-,6+,7-/m1/s1
