17
gdb 10711	2.48248	2.05254	1.44662	2.0971	64.18	-0.2459	0.0169	0.2627	930.3439	0.140958	-401.021636	-401.012991	-401.012047	-401.054905	31.542	
C	-0.2560163193	 1.3125011672	 0.4200804441	-0.390223
C	 0.292849037	-0.1043792921	 0.2160201027	-0.254819
C	 0.7617864541	-0.3498401045	-1.2007167009	 0.315984
C	 0.5158833171	-1.6384350897	-1.8754763217	-0.21684
O	-0.2604561957	-0.4848313654	-2.2074853857	-0.285394
C	 1.9858304487	 0.4435587707	-1.6340699293	 0.338796
N	 2.0022591202	 0.7580917501	-2.956687353	-0.529437
O	 2.8672953439	 0.7296613657	-0.8456510394	-0.370342
H	 0.521484588	 2.0611763111	 0.2426710927	 0.136483
H	-1.08962954	 1.5095789358	-0.2611107562	 0.124708
H	-0.6174134344	 1.4419887649	 1.4441053982	 0.11576
H	 1.1456274859	-0.2754204481	 0.8798056685	 0.131064
H	-0.4755957881	-0.8454269703	 0.4594768507	 0.098285
H	 1.1970394344	-1.9814768895	-2.6519224345	 0.124959
H	-0.0190085142	-2.4199146013	-1.3381990365	 0.124538
H	 1.1616736974	 0.639197942	-3.4982291941	 0.273601
H	 2.746610675	 1.3424249234	-3.2991365555	 0.262877
66.8337	82.8885	184.9577	213.0386	271.396	297.6953	345.3697	368.7041	461.8696	499.358	517.9678	634.8343	683.5037	759.5233	776.9151	851.3259	892.5604	950.5876	1001.2706	1060.4404	1093.6791	1105.6047	1137.4038	1170.0492	1219.107	1296.5393	1334.0461	1383.5183	1405.52	1410.6284	1464.2441	1499.7367	1508.699	1519.5944	1591.2617	1796.1236	3042.0876	3049.8304	3089.0428	3094.7369	3114.6319	3121.3657	3181.0824	3592.6342	3731.3919
CCC1(CO1)C(N)=O	CC[C@]1(CO1)C(=O)N	
InChI=1S/C5H9NO2/c1-2-5(3-8-5)4(6)7/h2-3H2,1H3,(H2,6,7)	InChI=1S/C5H9NO2/c1-2-5(3-8-5)4(6)7/h2-3H2,1H3,(H2,6,7)/t5-/m0/s1
