18
gdb 32002	3.09398	1.30379	0.99036	3.1424	81.34	-0.2001	0.035	0.2351	1199.9231	0.14915	-401.943782	-401.935385	-401.934441	-401.977831	30.595	
O	 0.3779696122	 0.7697646396	 0.867173579	-0.414574
C	-0.0620764012	 0.3148156932	-0.4152212981	-0.156549
C	-1.4391193339	-0.2560692347	-0.4267197122	 0.168944
C	-2.6918725269	 0.3524279459	-0.430552133	-0.195575
C	-3.7220327889	-0.6359071098	-0.3694214968	-0.324736
C	-3.0519313625	-1.8380384805	-0.3061168545	 0.323748
C	-2.8696087634	-3.3466046794	-0.3607190733	-0.374014
C	-1.3284469652	-3.0187546675	-0.4363101396	-0.175143
N	-1.7136349499	-1.6000153168	-0.323878905	-0.029407
H	 0.1002993988	 0.1121346928	 1.5125675054	 0.275741
H	-0.0171498452	 1.1943142289	-1.0644139203	 0.119443
H	 0.6436313379	-0.4265610842	-0.8243323945	 0.08252
H	-2.8461350606	 1.4217435927	-0.4596350958	 0.099082
H	-4.7860158039	-0.4599002512	-0.3750370206	 0.097191
H	-3.1720284454	-3.9068118591	 0.5281357297	 0.123693
H	-3.2658221733	-3.8483599669	-1.2473667585	 0.126255
H	-0.7159720253	-3.3840112578	 0.3928968648	 0.123381
H	-0.8499107232	-3.2715313753	-1.3865655667	 0.13
41.6196	92.2781	127.7734	199.5711	231.7341	260.5185	409.6791	505.6896	617.4329	643.8106	703.0661	715.9859	768.1334	809.1605	822.9421	834.5885	902.5821	964.4419	1014.812	1031.8278	1056.5909	1057.7143	1136.7372	1146.1207	1179.6531	1218.3654	1230.0592	1234.1514	1270.2288	1316.5347	1344.1382	1417.6216	1426.2208	1446.6481	1487.1365	1497.6138	1504.3838	1526.884	1586.6484	2969.829	3052.4566	3061.4608	3080.5509	3097.7782	3112.6675	3234.4611	3259.5122	3819.448
OCC1=CC=C2CCN12	OCc1ccc2CCn12	
InChI=1S/C7H9NO/c9-5-7-2-1-6-3-4-8(6)7/h1-2,9H,3-5H2	InChI=1S/C7H9NO/c9-5-7-2-1-6-3-4-8(6)7/h1-2,9H,3-5H2
