15
gdb 130215	3.24332	1.42996	1.05895	1.8175	67.79	-0.209	0.0003	0.2092	1076.3539	0.114867	-450.102714	-450.09498	-450.094036	-450.135388	28.843	
N	 0.4792275991	 0.9384662821	-0.9562315924	-0.602517
C	 0.2007572205	-0.2204575683	-0.2622891732	 0.27254
N	-0.9583973442	-0.8714982274	-0.3758500473	-0.283918
N	-0.8368524868	-1.8591657122	 0.5187577764	-0.087383
N	 0.289953609	-1.9061206273	 1.2015541678	-0.279816
C	 0.9898653855	-0.8763527836	 0.7186102867	 0.254779
C	 2.359302406	-0.5699123917	 1.1802101768	-0.03547
C	 3.5321893603	-0.7136916789	 0.2967993827	-0.173865
O	 2.9808507903	 0.5760641629	 0.5769252422	-0.237001
H	 1.4572625343	 1.186858964	-0.957938509	 0.263305
H	 0.017042371	 1.0209806962	-1.8487722762	 0.253743
H	-1.5781633649	-2.5212337487	 0.6720598854	 0.2903
H	 2.5287860593	-0.6622031195	 2.252162731	 0.118354
H	 4.5129661447	-0.9012075005	 0.7302827384	 0.126008
H	 3.388422136	-1.0730016572	-0.7202889193	 0.120941
53.1014	158.849	197.6653	301.4636	340.2756	385.218	398.2503	438.9923	500.8285	585.4079	670.4292	702.157	745.9754	777.2746	859.8257	903.5846	987.4548	1007.0299	1091.8857	1097.5274	1150.2087	1168.1276	1193.9986	1235.7808	1266.6877	1294.9835	1360.5438	1423.2581	1475.7222	1518.2975	1561.35	1590.6559	1639.32	3090.5153	3121.7372	3183.9706	3571.1864	3685.6079	3685.7139
NC1=NNN=C1C1CO1	Nc1n[nH]nc1[C@H]1CO1	
InChI=1S/C4H6N4O/c5-4-3(2-1-9-2)6-8-7-4/h2H,1H2,(H3,5,6,7,8)	InChI=1S/C4H6N4O/c5-4-3(2-1-9-2)6-8-7-4/h2H,1H2,(H3,5,6,7,8)/t2-/m1/s1
