23
gdb 59527	3.47533	1.00555	0.96539	1.4489	86.21	-0.2231	0.0795	0.3026	1386.093	0.204285	-388.268322	-388.258667	-388.257722	-388.303054	36.945	
C	 0.1338696385	 1.4942576358	-0.1084217893	-0.389118
C	 0.0933540219	-0.0415632745	-0.0740182862	 0.013401
C	 0.9348488065	-0.6341174284	-1.2118833519	-0.394917
C	 0.5222455841	-0.531195047	 1.3094420282	 0.158835
C	 0.6881055662	-2.0441491898	 1.5923431686	-0.407824
C	 2.1259325173	-1.6681793156	 1.9240803576	 0.482379
C	 2.9800115822	-2.073048736	 3.0800804568	-0.334122
C	 3.4091980278	-2.3749986634	 1.6474412424	-0.333088
O	 1.9344862302	-0.2952903227	 1.5787929131	-0.325113
H	 1.1524285082	 1.8517090694	 0.0747287424	 0.13376
H	-0.1899745529	 1.8756418854	-1.0817552953	 0.107895
H	-0.5170439161	 1.9287203151	 0.6578263793	 0.107696
H	-0.9510523725	-0.3642735803	-0.2004456167	 0.07098
H	 1.9894580173	-0.3773556929	-1.0777466915	 0.132763
H	 0.855889959	-1.7242892368	-1.2634079015	 0.10859
H	 0.6062424312	-0.2360016961	-2.1768371568	 0.108617
H	-0.0879407039	-0.0264218509	 2.0712454496	 0.070871
H	 0.0941407035	-2.4322983267	 2.4219457045	 0.108713
H	 0.568402439	-2.6965822048	 0.7252073347	 0.110633
H	 3.5114283394	-1.2834861964	 3.6005663799	 0.123099
H	 2.6516184891	-2.8940550121	 3.7097748907	 0.111256
H	 3.3745568085	-3.4017787142	 1.2967526397	 0.111984
H	 4.2196883257	-1.7816748369	 1.2373892918	 0.122711
47.7621	69.6949	175.058	215.5322	240.6351	257.0437	297.2006	307.0247	370.2931	421.1859	448.5746	535.5548	616.0599	733.6891	756.7166	831.5356	868.7965	891.2401	912.0836	917.599	926.3298	957.8131	968.122	990.3519	1026.4357	1047.7763	1063.2833	1066.7169	1118.7927	1136.6799	1174.7496	1186.5601	1205.4148	1225.0521	1246.1027	1299.4482	1329.6713	1361.0428	1375.4987	1392.1708	1401.6374	1425.504	1448.5031	1482.0348	1490.9208	1496.2494	1504.2435	1511.667	1515.7095	2993.1936	3004.1551	3031.884	3041.3714	3073.4298	3099.3901	3103.3783	3108.2688	3119.9397	3124.521	3125.5378	3127.3876	3207.9796	3222.4052
CC(C)C1CC2(CC2)O1	CC(C)[C@H]1CC2(CC2)O1	
InChI=1S/C8H14O/c1-6(2)7-5-8(9-7)3-4-8/h6-7H,3-5H2,1-2H3	InChI=1S/C8H14O/c1-6(2)7-5-8(9-7)3-4-8/h6-7H,3-5H2,1-2H3/t7-/m1/s1
