21
gdb 93085	2.29327	1.47565	1.03759	1.9983	85.95	-0.2344	0.0086	0.2431	1228.6236	0.183132	-387.100016	-387.091007	-387.090063	-387.133596	34.876	
C	-0.1303810354	 1.5696089726	 0.0360908333	-0.465821
C	 0.022336075	 0.069574314	-0.0400782545	 0.301259
C	-0.0248989335	-0.5498233566	-1.2251618914	-0.163375
C	 0.0900866316	-2.0134788833	-1.5777941332	 0.0876
O	 1.3243472146	-2.2601712618	-2.2608951817	-0.436298
C	-0.1097492767	-3.004093543	-0.4188037085	-0.276342
C	 0.9586354159	-2.882652607	 0.6373475386	-0.070972
C	 1.0981791787	-1.799012785	 1.397913526	-0.053668
C	 0.1917730574	-0.5914384005	 1.3214484888	-0.349298
H	 0.7662808906	 2.0357858444	 0.4651628036	 0.122816
H	-0.3110116118	 2.012479476	-0.9463378996	 0.121759
H	-0.9657975114	 1.8453432372	 0.6932174194	 0.122828
H	-0.1310014444	 0.081431794	-2.1065816581	 0.080187
H	-0.6748062716	-2.2315441882	-2.3339538288	 0.084088
H	 2.0244459264	-1.9730668241	-1.6630487354	 0.275934
H	-1.102160287	-2.830091523	 0.0207386286	 0.104168
H	-0.1169214232	-4.0130996062	-0.8402123197	 0.103883
H	 1.6439668269	-3.7163182277	 0.764510394	 0.090641
H	 1.8874477416	-1.7654912872	 2.1447585885	 0.090253
H	 0.5544601591	 0.1691077509	 2.0206036233	 0.103453
H	-0.8076565927	-0.8646519255	 1.7007243768	 0.126905
63.2897	144.1988	155.9643	217.8039	307.6262	318.8252	337.0645	368.0403	405.4993	446.8432	491.2725	506.4506	665.4807	689.1964	766.2941	829.2158	858.761	879.0217	916.067	940.5489	958.8907	995.4159	1032.0425	1050.115	1059.0369	1069.073	1115.1829	1163.3062	1221.3308	1225.3244	1238.3222	1278.7065	1320.9047	1363.6716	1378.6994	1390.0461	1411.7345	1420.0186	1425.8955	1467.6781	1479.2061	1482.7548	1491.3319	1724.0564	1735.1779	2967.5795	3010.3572	3012.2018	3026.9796	3057.3719	3061.3636	3087.0732	3115.1952	3130.1618	3147.4895	3172.2492	3792.2203
CC1=CC(O)CC=CC1	CC1=C[C@@H](O)CC=CC1	
InChI=1S/C8H12O/c1-7-4-2-3-5-8(9)6-7/h2-3,6,8-9H,4-5H2,1H3	InChI=1S/C8H12O/c1-7-4-2-3-5-8(9)6-7/h2-3,6,8-9H,4-5H2,1H3/t8-/m0/s1
