17
gdb 65292	2.79324	1.31746	1.06326	1.779	75.03	-0.2548	0.0156	0.2704	1159.071	0.13249	-421.748331	-421.739366	-421.738422	-421.781984	33.059	
C	-0.046646056	 1.5331620456	-0.0080133372	-0.475911
C	-0.0605329891	 0.0225451422	 0.0722022961	 0.09219
O	 1.2237249596	-0.6228808557	-0.1593591131	-0.299308
C	 0.6776611022	-0.6879503015	 1.1325774891	 0.320391
C	 1.3365320168	-0.1879595973	 2.415362975	-0.157193
O	 0.8917869526	-1.374842363	 3.106980166	-0.274758
C	 0.3515533366	-1.962647823	 1.8994736504	-0.165053
C	-1.1926244216	-0.6374249496	-0.5334855345	 0.302792
C	-2.1556889027	-1.1663424899	-1.0211734897	-0.426505
H	 0.8408477916	 1.9314976286	 0.4889909358	 0.13267
H	-0.0358434727	 1.8563154972	-1.0527951067	 0.143478
H	-0.9397598002	 1.9490519211	 0.4677649606	 0.137578
H	 2.4305323686	-0.1195297709	 2.3570782342	 0.116606
H	 0.933798293	 0.7298912631	 2.8602009924	 0.111515
H	-0.7091524957	-2.2201777973	 1.9944295239	 0.120224
H	 0.919271697	-2.8418276744	 1.5705137515	 0.117704
H	-2.99961356	-1.6394870952	-1.4599900238	 0.203579
93.2259	118.3902	144.4334	185.8701	210.1202	236.0859	345.4961	401.643	452.5036	492.7902	558.6406	607.5535	631.8411	668.4722	672.9813	823.4362	892.4972	914.8631	939.1988	994.4077	1021.205	1067.5569	1117.9697	1126.5175	1140.3618	1144.6187	1175.4181	1230.5569	1297.5942	1344.2197	1409.857	1470.6425	1484.6941	1497.7962	1509.4532	1524.3547	2237.5908	3011.4493	3026.1605	3046.9432	3061.3331	3075.6242	3118.7258	3132.6714	3498.6424
CC1(OC11COC1)C#C	C[C@]1(OC21COC2)C#C	
InChI=1S/C7H8O2/c1-3-6(2)7(9-6)4-8-5-7/h1H,4-5H2,2H3	InChI=1S/C7H8O2/c1-3-6(2)7(9-6)4-8-5-7/h1H,4-5H2,2H3/t6-/m0/s1
