17
gdb 69287	3.98978	1.11784	0.98417	4.5564	80.86	-0.2499	-0.0531	0.1967	1209.6164	0.137102	-380.880938	-380.872989	-380.872045	-380.913284	30.465	
C	 0.0296419445	 1.5075279192	-0.0215667169	-0.466698
C	-0.0408028077	 0.005818844	 0.0844852467	 0.326575
C	-1.3645689448	-0.7016425163	-0.2360027	-0.332383
C	-1.3493864573	-1.9387090091	 0.6246518086	-0.176597
C	-0.2664127456	-1.9703155271	 1.4209364084	 0.214729
C	 0.0324803857	-2.97587822	 2.3801680813	 0.20235
N	 0.2960222864	-3.7764199442	 3.1749271561	-0.334514
C	 0.638462878	-0.8036511932	 1.1490212318	-0.184237
N	 1.19692342	-0.7252405617	-0.2165270595	-0.355518
H	 1.0205070263	 1.8632156642	 0.2693427205	 0.137245
H	-0.1536937043	 1.8327966148	-1.0520109227	 0.12476
H	-0.7189047459	 1.9836119613	 0.6207091953	 0.120164
H	-2.2242705888	-0.0653656289	 0.0142575185	 0.130005
H	-1.463904251	-0.9386706518	-1.3036481324	 0.128606
H	-2.1119935533	-2.7067905383	 0.5832395245	 0.128453
H	 1.256199201	-0.3941556002	 1.9407996443	 0.108246
H	 1.0140722069	-1.5911850527	-0.7205780346	 0.228812
112.5314	147.5162	195.5946	232.3984	306.9144	372.6616	386.2984	459.2709	505.417	564.2895	623.0427	667.709	753.6332	796.0264	837.133	885.9485	925.2762	955.7695	986.7093	1018.2625	1039.7369	1091.8404	1118.0818	1170.77	1175.3001	1191.3449	1262.1709	1277.7337	1319.6522	1334.1811	1405.0767	1432.6156	1463.1949	1487.5559	1494.8032	1654.1662	2339.0736	3019.0461	3033.4592	3046.9122	3093.9496	3128.6823	3176.1491	3214.6898	3478.0495
CC12CC=C(C#N)C1N2	C[C@]12CC=C(C#N)[C@H]1N2	
InChI=1S/C7H8N2/c1-7-3-2-5(4-8)6(7)9-7/h2,6,9H,3H2,1H3	InChI=1S/C7H8N2/c1-7-3-2-5(4-8)6(7)9-7/h2,6,9H,3H2,1H3/t6-,7+/m1/s1
