17
gdb 114423	3.11386	1.19117	1.15249	3.4921	70.03	-0.242	0.0085	0.2505	1129.7986	0.136758	-455.096305	-455.088288	-455.087344	-455.129296	30.374	
O	 0.0509709293	 1.1058148565	-0.6829666642	-0.418278
C	 0.0603307937	-0.2116387605	-0.1696751368	-0.079447
C	-1.3495780718	-0.6474581701	 0.1842824218	 0.111983
O	-2.2311127134	-0.532498653	-0.9706455138	-0.319815
C	-2.6821892561	-1.8980060981	-0.8293243665	 0.032748
C	-1.7105486346	-2.1443598664	 0.3605501954	-0.080533
N	-1.0159731631	-3.1130300801	-0.4894173323	-0.333039
C	-1.8070832908	-2.8733903983	-1.6229846137	 0.384228
N	-1.8291300235	-3.2499275239	-2.8265688034	-0.543904
H	-0.5849653058	 1.1061688634	-1.4092873747	 0.298366
H	 0.498592116	-0.9187827243	-0.8899506267	 0.082606
H	 0.690383451	-0.2035014777	 0.7271447274	 0.110042
H	-1.7428645724	-0.0301043749	 1.0023009526	 0.091767
H	-3.7664237668	-2.0022236844	-0.829426285	 0.108222
H	-1.9856372478	-2.5010576041	 1.35215899	 0.099275
H	-0.0340258576	-3.3530663605	-0.4715185551	 0.242673
H	-1.0413800961	-3.8597951738	-3.054009345	 0.213106
67.0441	115.1112	179.9359	223.2857	312.9621	415.7689	443.2798	462.9512	483.7916	537.908	657.9343	725.1777	808.4782	824.7037	847.605	883.3548	910.0483	971.9709	1017.5065	1039.6097	1052.3998	1079.8382	1089.9345	1119.9969	1166.0404	1186.1367	1219.3374	1265.6411	1280.8053	1297.3839	1344.1032	1352.2975	1355.2563	1397.2604	1433.8939	1499.6096	1799.2674	2989.8887	3026.9934	3068.3079	3119.482	3133.0049	3456.3758	3583.6038	3784.5005
OCC1OC2C1NC2=N	OC[C@H]1O[C@@H]2[C@H]1N[C]2[NH]	
InChI=1S/C5H8N2O2/c6-5-4-3(7-5)2(1-8)9-4/h2-4,8H,1H2,(H2,6,7)	InChI=1S/C5H8N2O2/c6-5-4-3(7-5)2(1-8)9-4/h2-4,8H,1H2,(H2,6,7)/t2-,3+,4-/m1/s1
