20
gdb 61465	3.3648	0.86917	0.7356	3.8737	76.05	-0.2334	0.0374	0.2708	1542.831	0.170128	-440.307372	-440.29753	-440.296586	-440.343034	36.276	
N	 0.5533538879	 0.2219178666	 0.7878961286	-0.511209
C	-0.1014518963	 0.1624741103	-0.4046565131	 0.361527
O	 0.2061599442	 0.8357128501	-1.3703741481	-0.363954
C	-1.3017094615	-0.7914255081	-0.4379971648	-0.300418
C	-1.0979403917	-2.1713072599	 0.2115393771	 0.074881
O	-0.8744341827	-2.064513511	 1.6294725035	-0.429159
C	-2.2464538572	-3.1051144167	-0.0930288293	 0.013413
C	-2.1960330864	-4.0005028197	-1.3065586152	-0.264503
C	-2.0715404568	-4.5918070573	 0.0739729021	-0.276158
H	 1.3890261244	 0.7814662449	 0.8356339247	 0.252376
H	 0.3399936874	-0.4494319932	 1.5116801056	 0.265779
H	-2.1530170062	-0.2945115318	 0.0486883971	 0.109293
H	-1.5639556132	-0.9138435949	-1.4911110681	 0.133928
H	-0.1702621171	-2.6154869413	-0.1688487256	 0.097088
H	-1.7179836869	-1.8477533777	 2.0429120767	 0.282795
H	-3.2249265371	-2.6978597805	 0.1583113559	 0.078561
H	-3.1133795534	-4.1627320585	-1.8608162807	 0.117851
H	-1.3059885075	-3.962450647	-1.9260792363	 0.120551
H	-1.0968708615	-4.9466159599	 0.3914494907	 0.122354
H	-2.9028213983	-5.1665636446	 0.4664404591	 0.115005
41.8549	68.0282	99.7297	145.128	246.1222	265.9317	299.9287	341.2653	370.3994	429.6396	484.2861	507.9586	565.7315	632.0474	743.1863	776.7163	831.007	842.4569	868.4207	907.2967	948.2841	954.6222	1020.1057	1063.2841	1078.2277	1084.8198	1117.8851	1134.6553	1163.2255	1186.8935	1197.793	1226.244	1279.7092	1297.7636	1350.2409	1366.9552	1405.4211	1432.0406	1459.7834	1472.8075	1507.6398	1610.5191	1797.841	3017.46	3046.0044	3114.0794	3116.2371	3134.0706	3139.1541	3212.6338	3227.1847	3546.3728	3703.5855	3796.9339
NC(=O)CC(O)C1CC1	NC(=O)C[C@@H](O)C1CC1	
InChI=1S/C6H11NO2/c7-6(9)3-5(8)4-1-2-4/h4-5,8H,1-3H2,(H2,7,9)	InChI=1S/C6H11NO2/c7-6(9)3-5(8)4-1-2-4/h4-5,8H,1-3H2,(H2,7,9)/t5-/m1/s1
