19
gdb 98326	3.4442	0.87579	0.77913	4.4474	78.27	-0.2618	0.0092	0.271	1508.3603	0.157509	-419.25168	-419.241195	-419.240251	-419.288599	35.765	
C	 0.1230203733	 1.5693109591	-0.2015749697	-0.373034
C	 0.038322882	 0.0550876773	-0.0131534722	-0.317726
C	 0.7586143548	-0.3984440903	 1.2545006126	 0.439607
O	 1.3046448867	 0.3998128642	 1.9962105092	-0.370526
N	 0.7699169453	-1.7530218536	 1.529837477	-0.102861
C	 0.1916720243	-2.8016067054	 0.7066371944	-0.353026
C	 1.472278661	-2.1863388566	 2.7258161159	-0.300265
C	 0.5790853118	-2.8387487244	 3.6944357502	 0.267139
N	-0.1282607805	-3.3696673772	 4.4378431697	-0.309242
H	 1.1624695029	 1.8958959633	-0.2778998261	 0.134562
H	-0.4050485421	 1.866440364	-1.1119515641	 0.108674
H	-0.3208708658	 2.093007627	 0.6476643863	 0.138178
H	-1.0099663209	-0.2643697647	 0.0382644165	 0.131062
H	 0.4695230265	-0.4628439938	-0.8785928842	 0.125329
H	-0.3852326947	-2.377856582	-0.1113994854	 0.148563
H	 0.9742009008	-3.4446625429	 0.2815607827	 0.130599
H	-0.4775291547	-3.4292787483	 1.3060294316	 0.155489
H	 2.2766631651	-2.8897829048	 2.4719905685	 0.149509
H	 1.9179611144	-1.2959932607	 3.1763662071	 0.19797
32.6379	67.0606	86.5689	107.3331	152.1759	212.7469	222.2379	271.9561	346.7661	362.2403	379.8891	429.576	566.9255	584.9596	641.1687	769.4362	825.5728	907.1592	954.4344	999.9931	1031.552	1079.8063	1098.0202	1141.7806	1156.5641	1226.613	1283.1194	1292.979	1352.4118	1370.6709	1415.4938	1426.2063	1461.32	1463.9904	1482.6899	1489.5584	1492.1516	1498.4286	1526.5686	1756.8165	2360.389	3013.9966	3021.385	3028.4478	3055.4157	3062.5387	3071.2922	3110.9537	3127.2676	3138.0737	3181.1905
CCC(=O)N(C)CC#N	CCC(=O)N(C)CC#N	
InChI=1S/C6H10N2O/c1-3-6(9)8(2)5-4-7/h3,5H2,1-2H3	InChI=1S/C6H10N2O/c1-3-6(9)8(2)5-4-7/h3,5H2,1-2H3
