17
gdb 77911	2.31232	1.5922	1.46223	0.6707	62.9	-0.2475	0.0639	0.3113	982.5292	0.135322	-496.055416	-496.047027	-496.046083	-496.087754	32.94	
O	-0.2053808189	 1.4584644998	 0.0073450801	-0.446378
C	-0.1984444658	 0.0485004779	-0.0080724758	 0.014182
C	-0.4542626477	-0.7866942692	 1.2142769733	-0.190846
C	-1.4975498035	-0.1105350314	 2.0937621143	 0.076496
O	-1.1428988515	 1.1808015204	 2.579813311	-0.449008
C	-2.5100195183	-0.0949907834	 0.8871377323	 0.013538
O	-2.9994811361	 1.1708849903	 0.5048012371	-0.452743
C	-1.452176265	-0.7711236806	 0.0156315206	 0.314682
O	-1.7070893896	-1.7969623835	-0.8722621978	-0.460084
H	-0.1719478457	 1.7122052142	 0.9435601442	 0.299883
H	 0.5656468254	-0.3575094536	-0.668289174	 0.110504
H	 0.2287079704	-1.5643686468	 1.5317330685	 0.102505
H	-1.836211068	-0.7445001403	 2.9201453556	 0.086887
H	-1.9312616741	 1.727812746	 2.4437224997	 0.291176
H	-3.3700854499	-0.7422590677	 1.0709399975	 0.10104
H	-2.2550985413	 1.6286155179	 0.0847254588	 0.293797
H	-1.7782551902	-1.4274479499	-1.7594507753	 0.294368
146.5202	197.939	205.1897	254.116	270.0205	287.5187	381.5346	385.6263	427.4961	517.7015	531.836	587.0946	656.7442	741.8781	749.0696	796.1871	815.0756	850.6705	916.0256	967.9869	994.3184	1058.9635	1088.4087	1108.1451	1146.5877	1170.7902	1199.8037	1234.9164	1282.1965	1302.505	1323.7534	1331.7105	1350.0693	1385.0411	1427.5538	1453.5067	1478.9615	3043.5517	3097.8365	3134.744	3197.9561	3674.7	3706.0926	3725.235	3795.7113
OC1C2C(O)C(O)C12O	O[C@H]1[C@H]2[C@@H](O)[C@@H](O)[C@@]12O	
InChI=1S/C5H8O4/c6-2-1-3(7)5(1,9)4(2)8/h1-4,6-9H	InChI=1S/C5H8O4/c6-2-1-3(7)5(1,9)4(2)8/h1-4,6-9H/t1-,2-,3+,4-,5+/m1/s1
