23
gdb 119890	3.97608	0.83799	0.71821	1.0354	89.59	-0.2247	0.0367	0.2613	1652.2451	0.206539	-388.304033	-388.294488	-388.293544	-388.338942	35.315	
C	 0.0188457553	 1.4743186565	 0.0886331554	-0.224298
O	 0.0150499876	 0.0736638123	-0.0299952104	-0.226225
C	 0.5973530516	-0.5705011586	 1.0762870787	-0.125355
C	 0.5578933094	-2.0680218773	 0.9324006847	 0.247149
C	-0.0397435683	-2.676853084	-0.0927174099	-0.124519
C	-0.0800940386	-4.1716746585	-0.2764458829	-0.243344
C	 0.903507009	-4.9045603948	 0.6471881183	-0.193762
C	 0.86082297	-4.3148233028	 2.0611014194	-0.199242
C	 1.2490429805	-2.8301183417	 2.0417514224	-0.281421
H	 1.0417907555	 1.8762061437	 0.1690962887	 0.10259
H	-0.4493858301	 1.8807518551	-0.8111797187	 0.126335
H	-0.5502610362	 1.8129848614	 0.9694608764	 0.102668
H	 1.6464252128	-0.2395578678	 1.2052595795	 0.086182
H	 0.0766519419	-0.2755848948	 2.0080610291	 0.087576
H	-0.5289801816	-2.0673087581	-0.8457695456	 0.09614
H	-1.1046749949	-4.5319412899	-0.0956954828	 0.102879
H	 0.1298046686	-4.4193254451	-1.3250168452	 0.09909
H	 0.6802417529	-5.9767502249	 0.6667374936	 0.088247
H	 1.9208828411	-4.8014661537	 0.2474057686	 0.095671
H	-0.1548721669	-4.4179329792	 2.4648157139	 0.097004
H	 1.525000098	-4.8679352395	 2.7340508177	 0.088788
H	 2.3395366541	-2.7294798594	 1.928976109	 0.103582
H	 1.0152855982	-2.367767459	 3.0108335701	 0.094264
67.4996	72.1673	135.3838	150.3581	225.586	239.7736	295.1551	328.3972	377.8339	438.3438	477.8758	525.9735	673.4515	794.0358	821.3407	836.1317	872.2812	919.9345	947.53	974.1099	1011.6891	1036.0813	1061.8582	1091.4209	1103.9318	1142.3844	1160.2138	1179.0243	1186.2048	1193.6181	1229.9449	1260.9621	1271.3951	1298.5322	1327.9112	1365.4523	1373.423	1379.3069	1393.3868	1426.7536	1473.6248	1477.137	1481.1903	1484.096	1489.9591	1497.7322	1500.9667	1522.7302	1747.0475	2912.032	2922.184	2966.1661	2989.3073	2989.5181	3007.8867	3014.1681	3018.1749	3030.0594	3036.5707	3066.8848	3070.9443	3112.8287	3182.4602
COCC1=CCCCC1	COCC1=CCCCC1	
InChI=1S/C8H14O/c1-9-7-8-5-3-2-4-6-8/h5H,2-4,6-7H2,1H3	InChI=1S/C8H14O/c1-9-7-8-5-3-2-4-6-8/h5H,2-4,6-7H2,1H3
