17
gdb 117618	2.14866	1.10903	0.91023	0.2849	76.39	-0.2626	0.0069	0.2695	1342.0879	0.130563	-421.732997	-421.722326	-421.721382	-421.768692	38.28	
O	-0.1297977729	 1.486950526	-0.0504846784	-0.425908
C	 0.0289979034	 0.0750624332	-0.0089429355	-0.095327
C	-1.3719156467	-0.5227178961	 0.0474147237	-0.188715
C	-1.3810188116	-2.0747323487	 0.0173809186	-0.057966
O	-0.6983032272	-2.5620042258	-1.1467364025	-0.441028
C	-0.6707964994	-2.6235265965	 1.1832749191	 0.396786
C	-0.1028550836	-3.0456564155	 2.1527578584	-0.478493
C	-2.7763510539	-2.5492510414	 0.0217078549	 0.309435
C	-3.9233467453	-2.9025657484	-0.0318384151	-0.441353
H	 0.7457574038	 1.8824544475	-0.0870778151	 0.286503
H	 0.5523889826	-0.3014448462	-0.8982923863	 0.101443
H	 0.60312078	-0.239844728	 0.8742278793	 0.101723
H	-1.8870723981	-0.178090072	 0.9489623126	 0.126351
H	-1.9504337098	-0.166775993	-0.8122774437	 0.109477
H	-1.2821153646	-2.4042762452	-1.8981221049	 0.288754
H	 0.3987899183	-3.4321185533	 3.0056832645	 0.204494
H	-4.9331583648	-3.2311449568	-0.0633227696	 0.203825
68.7777	101.2802	117.5301	129.5546	184.0536	219.8201	243.2647	256.1195	288.3898	353.9006	410.2901	477.4469	512.5666	556.4961	617.6012	637.4645	643.3932	672.4418	673.5364	748.3781	803.1627	969.2007	995.6878	1050.5309	1080.4681	1099.5547	1136.1356	1221.083	1247.6707	1305.2491	1330.8466	1386.4391	1460.1578	1480.6335	1533.4431	2235.1081	2245.984	2997.697	3033.3046	3049.8144	3102.3536	3499.4423	3500.884	3800.4245	3832.7351
OCCC(O)(C#C)C#C	OCCC(O)(C#C)C#C	
InChI=1S/C7H8O2/c1-3-7(9,4-2)5-6-8/h1-2,8-9H,5-6H2	InChI=1S/C7H8O2/c1-3-7(9,4-2)5-6-8/h1-2,8-9H,5-6H2
