19
gdb 73169	2.38142	1.44176	1.3081	1.7685	81.	-0.2425	0.0407	0.2832	1097.3283	0.157823	-385.825853	-385.817175	-385.816231	-385.859178	33.274	
C	-0.258137121	 1.4079992679	-0.2755686791	-0.507391
C	 0.0104891574	-0.0427777156	 0.046130283	 0.296987
C	-1.1411723579	-0.9000490643	 0.6098843212	-0.13087
O	-0.3319953506	-1.3577125041	 1.7209573577	-0.291554
C	 0.7991860468	-0.5904162507	 1.2749109121	 0.073121
C	 1.7399319696	-1.3990587405	 0.3545976034	-0.254125
C	 0.9873480181	-0.8309663475	-0.9052861298	-0.234855
C	 0.4235937215	-1.7643147782	-1.8575001119	 0.331816
C	-0.0595647662	-2.5477155427	-2.6327742018	-0.470807
H	 0.6723311385	 1.9606160635	-0.4459352018	 0.11846
H	-0.8671453018	 1.4984683743	-1.1832323272	 0.129261
H	-0.7980201645	 1.9016571672	 0.5395163244	 0.124222
H	-2.0028457125	-0.3169993108	 0.9600199135	 0.096696
H	-1.4921696864	-1.7225089866	-0.0232596829	 0.116389
H	 1.2353049726	 0.0193255585	 2.0712645046	 0.074261
H	 2.7924854961	-1.1094340625	 0.3929942112	 0.106036
H	 1.6518145128	-2.4765681169	 0.4987641603	 0.123385
H	 1.625260288	-0.1157625848	-1.4350340541	 0.101938
H	-0.4761138705	-3.2380361262	-3.323743573	 0.19703
59.086	135.3654	179.4811	215.7593	248.4601	326.9761	351.2358	397.1189	498.0071	521.8852	614.6477	625.1515	637.6875	655.9379	761.0117	842.2232	872.9624	907.3459	951.851	974.8286	1002.3483	1012.8076	1039.121	1077.3887	1128.2714	1148.6268	1168.3527	1182.3468	1186.1614	1240.5726	1266.449	1284.8884	1318.975	1332.9791	1385.831	1413.746	1464.3103	1491.8094	1492.9347	1520.2591	2228.2978	3010.5292	3022.5843	3045.2135	3064.3292	3068.0858	3076.6962	3086.4718	3096.2463	3139.8906	3502.8829
CC12COC1CC2C#C	C[C@]12CO[C@H]1C[C@H]2C#C	
InChI=1S/C8H10O/c1-3-6-4-7-8(6,2)5-9-7/h1,6-7H,4-5H2,2H3	InChI=1S/C8H10O/c1-3-6-4-7-8(6,2)5-9-7/h1,6-7H,4-5H2,2H3/t6-,7+,8-/m1/s1
