19
gdb 108103	3.55911	1.33614	1.29875	2.013	72.7	-0.2357	0.0893	0.325	1067.1525	0.160897	-423.018855	-423.01149	-423.010546	-423.050791	29.422	
C	-0.297905762	 1.4898629105	-0.0374576098	-0.375135
C	 0.1645350583	 0.028171466	 0.0268382784	-0.300014
C	 0.8564045152	-0.4440332296	-1.2251054762	 0.244312
C	 2.1543826446	 0.1370680222	-1.7809487992	-0.295218
C	 2.2045431597	-0.8213977315	-2.9888046097	 0.148209
O	 2.1219146594	-2.1095359934	-2.3881959603	-0.252935
C	 0.921774909	-1.9062868111	-1.6645170553	-0.015187
C	 0.1264677527	-0.916035376	-2.4834401801	 0.000029
O	 0.9368732436	-0.6308062621	-3.6094961746	-0.252204
H	 0.5499178752	 2.170381709	-0.164813141	 0.1207
H	-0.9813705872	 1.6502526292	-0.8776314798	 0.12057
H	-0.8186874013	 1.7757132374	 0.8814284986	 0.113412
H	 0.8356600989	-0.1083652631	 0.8852194815	 0.103558
H	-0.7024706617	-0.6170788073	 0.2201443471	 0.097137
H	 2.0718014304	 1.1806735164	-2.0917647185	 0.112387
H	 3.0096353945	 0.0027795334	-1.1143914778	 0.110319
H	 3.0129474531	-0.7709619465	-3.7126351296	 0.099382
H	 0.5527118279	-2.7650451941	-1.1229546568	 0.110471
H	-0.9387630404	-0.9108271093	-2.662868737	 0.110209
86.2876	148.6712	207.7145	301.4726	348.1822	448.7319	551.7821	590.6306	616.2823	714.368	740.6304	782.2219	831.8759	856.2817	877.5221	911.6626	926.6922	972.0637	989.1029	999.8724	1024.3115	1038.6797	1051.0884	1062.5731	1081.7604	1106.3356	1160.8436	1186.9079	1226.8814	1237.8245	1277.0313	1288.8282	1332.354	1345.1482	1366.6203	1410.1356	1414.6885	1478.6829	1483.8494	1498.1647	1507.6065	3012.9757	3036.977	3042.6304	3070.9487	3106.9301	3108.1475	3129.3413	3178.8823	3223.7994	3232.4293
CCC12CC3OC1C2O3	CC[C@@]12C[C@H]3O[C@@H]1[C@@H]2O3	
InChI=1S/C7H10O2/c1-2-7-3-4-8-5(7)6(7)9-4/h4-6H,2-3H2,1H3	InChI=1S/C7H10O2/c1-2-7-3-4-8-5(7)6(7)9-4/h4-6H,2-3H2,1H3/t4-,5+,6-,7+
