18
gdb 70010	3.70116	1.41043	1.20885	2.5814	78.98	-0.2233	0.0004	0.2237	1067.5278	0.148126	-401.869771	-401.862179	-401.861235	-401.901598	29.792	
C	-0.1296745525	 1.5646695087	 0.0995774067	-0.508563
C	 0.1630067865	 0.1037373677	-0.0285578254	 0.233657
N	-0.7524664753	-0.9588343875	 0.4978514156	-0.349354
C	 0.6521497896	-0.9229813465	 0.9641763097	-0.181128
C	 1.5943111145	-1.511089994	-0.1230439678	 0.124258
O	 1.6118192104	-2.8193282042	-0.6480393531	-0.280569
C	 1.4223147372	-2.6776771681	-2.0715946099	-0.10503
C	 0.7587701139	-1.3156275962	-2.2737093254	-0.248294
C	 0.881837443	-0.6602700106	-1.1288624939	 0.208964
H	 0.7663896117	 2.1638773516	-0.0905205593	 0.132401
H	-0.8988046784	 1.8766435287	-0.6163227068	 0.134454
H	-0.4902248737	 1.802939444	 1.1058148498	 0.121061
H	-1.3072067177	-0.5237394293	 1.2383832603	 0.224627
H	 0.885195282	-0.8010619732	 2.0154828071	 0.0908
H	 2.6136450954	-1.1599680155	 0.1130574133	 0.075286
H	 2.3890965991	-2.7757616072	-2.5926136041	 0.100584
H	 0.7734956768	-3.4914301773	-2.4187252484	 0.118973
H	 0.1945508974	-1.063329651	-3.1622365484	 0.107873
140.6692	159.6184	210.7594	229.5007	299.6361	336.0986	481.1166	545.8034	584.9037	677.4162	715.4121	784.837	809.352	830.936	859.9774	915.1748	932.0544	962.5369	982.4967	997.7954	1024.758	1050.0609	1085.88	1094.7845	1119.3579	1123.1228	1194.4456	1226.452	1260.9264	1274.9172	1328.6038	1342.6081	1369.7471	1402.9642	1430.5537	1480.6928	1497.5406	1507.9126	1728.9864	2953.2255	2965.9028	3027.8874	3042.7021	3090.8067	3103.3427	3184.0479	3216.185	3435.3776
CC12NC1C1OCC=C21	C[C@]12N[C@H]1[C@H]1OC[CH][C]21	
InChI=1S/C7H9NO/c1-7-4-2-3-9-5(4)6(7)8-7/h2,5-6,8H,3H2,1H3	InChI=1S/C7H9NO/c1-7-4-2-3-9-5(4)6(7)8-7/h2,5-6,8H,3H2,1H3/t5-,6-,7+/m0/s1
