16
gdb 93396	3.24694	1.46634	1.1201	5.043	64.91	-0.2596	0.0073	0.2669	1043.5129	0.125184	-475.019683	-475.011942	-475.010998	-475.052204	29.069	
O	-0.0450013477	 1.4695933862	 0.1460320393	-0.420079
C	-0.0006178668	 0.0572642643	 0.0167121439	 0.064402
C	 0.7907399876	-0.5757256297	 1.1643032616	-0.130754
O	 0.6195607426	-1.9945238278	 1.2200366597	-0.230067
C	-0.6585691981	-2.4589781817	 1.3553981664	 0.435108
O	-0.8767589886	-3.4607016712	 1.9700577886	-0.324845
N	-1.6744851966	-1.7603595815	 0.6597887908	-0.163246
C	-2.2447907063	-0.5357087811	 1.2426217822	-0.253769
C	-1.4123892718	-0.475799193	 0.0099603194	-0.002255
H	 0.8059936924	 1.8283291273	-0.1258824818	 0.293805
H	 0.4679584503	-0.2353561401	-0.9340788071	 0.091585
H	 1.8636479605	-0.4112901911	 1.0389942898	 0.123261
H	 0.4906584013	-0.1172098297	 2.1146365026	 0.125489
H	-3.3245987976	-0.4523603512	 1.1698502298	 0.139061
H	-1.8216578897	-0.1682184639	 2.1728017383	 0.13952
H	-1.9351140514	-0.3667679359	-0.9372669936	 0.112786
64.2671	180.781	212.6287	259.8485	281.8439	350.5398	422.4492	430.6737	558.0919	575.0271	693.3551	734.8591	800.2343	820.7662	910.9924	967.1466	993.807	1032.3555	1077.7246	1091.1188	1105.4027	1110.6995	1130.9736	1171.4486	1174.3965	1247.9915	1263.5252	1330.4874	1362.7672	1389.9769	1420.0604	1454.6085	1507.1115	1528.2076	1862.9131	2998.6772	3037.1466	3104.518	3123.4714	3137.5043	3211.395	3817.7445
OC1COC(=O)N2CC12	O[C@H]1COC(=O)N2C[C@@H]12	
InChI=1S/C5H7NO3/c7-4-2-9-5(8)6-1-3(4)6/h3-4,7H,1-2H2	InChI=1S/C5H7NO3/c7-4-2-9-5(8)6-1-3(4)6/h3-4,7H,1-2H2/t3-,4-,6?/m0/s1
