19
gdb 71618	3.04589	1.7058	1.59456	1.0282	73.33	-0.2419	0.0846	0.3265	938.226	0.161395	-423.015069	-423.008129	-423.007185	-423.045976	28.852	
C	-0.0999220343	 1.5042555892	 0.0229032655	-0.511036
C	 0.0492697157	 0.0113773469	 0.0100381826	 0.383666
C	 0.4925906648	-0.7225554573	-1.2757260151	-0.246866
C	 0.5278846025	-2.1566933426	-0.6718653957	-0.095646
C	 1.9295810318	-2.3787141705	-0.1010674639	-0.08595
O	 2.0819779894	-1.3085845278	 0.8576585153	-0.278437
C	 0.7842226641	-0.8368452357	 1.121566501	 0.063755
C	-0.2798082577	-1.828457822	 0.6336920337	 0.05613
O	-1.1716352348	-0.7379346388	 0.3335197352	-0.331762
H	 0.8692349203	 1.980313479	-0.1574365302	 0.128612
H	-0.7923173689	 1.8325706078	-0.7596886373	 0.128468
H	-0.4827091515	 1.8494696073	 0.9875073336	 0.12766
H	-0.2636952383	-0.5991674745	-2.0540210557	 0.105285
H	 1.4646167613	-0.3984420968	-1.6569120176	 0.102272
H	 0.1516574671	-2.9607828004	-1.3029161585	 0.074697
H	 2.0328233554	-3.3486675645	 0.4077536635	 0.095614
H	 2.7220196193	-2.2948967365	-0.8511927256	 0.110666
H	 0.7008755305	-0.4406733188	 2.132990796	 0.089528
H	-0.7176599369	-2.6366807838	 1.2175469631	 0.083346
190.6187	214.2043	246.1198	303.7755	395.6742	457.119	519.5011	563.7027	642.9015	710.351	779.7875	817.4023	839.9687	869.9124	873.9	908.693	930.9088	950.1968	970.169	994.9271	1016.8429	1051.3898	1088.5724	1121.1573	1136.3738	1161.8513	1195.756	1204.5282	1214.9038	1244.3197	1272.4212	1277.2422	1313.2456	1317.5457	1363.1635	1392.8291	1414.2101	1477.6965	1482.6543	1492.9805	1524.2262	2994.4492	3035.8979	3064.4114	3075.5035	3104.8053	3115.2707	3117.5707	3125.2371	3128.0279	3139.3547
CC12CC3COC1C3O2	C[C@@]12C[C@H]3CO[C@@H]1[C@H]3O2	
InChI=1S/C7H10O2/c1-7-2-4-3-8-6(7)5(4)9-7/h4-6H,2-3H2,1H3	InChI=1S/C7H10O2/c1-7-2-4-3-8-6(7)5(4)9-7/h4-6H,2-3H2,1H3/t4-,5-,6+,7+/m0/s1
