17
gdb 29965	3.75805	1.02123	0.81109	3.5935	80.26	-0.2185	0.0311	0.2496	1379.0973	0.135841	-380.876444	-380.867545	-380.866601	-380.910964	32.008	
C	-0.5654313272	 1.2936323551	 0.1099184064	-0.338583
N	-0.1061833625	-0.0741374978	-0.0136853629	 0.013306
C	 0.9581634243	-0.5167057831	-0.7404441502	-0.004369
N	 1.1195798515	-1.8170042071	-0.6487228474	-0.328981
C	 0.108953601	-2.2475995375	 0.1808822221	 0.276473
C	-0.0272630772	-3.7068687004	 0.5218229219	-0.467506
C	-1.1453738885	-4.0042192683	 1.410535703	 0.319042
C	-2.0671722785	-4.2461326226	 2.1427452732	-0.462772
C	-0.6595632819	-1.187195119	 0.5844170494	-0.194061
H	-0.5239826931	 1.6286549346	 1.1510360273	 0.145629
H	 0.0794837165	 1.9394404255	-0.4891117543	 0.145357
H	-1.593333203	 1.3957224963	-0.2516829638	 0.145664
H	 1.5739773187	 0.1610920508	-1.3142226226	 0.124795
H	-0.1317355105	-4.2845305584	-0.406397399	 0.147699
H	 0.908111019	-4.0582167384	 0.9777174954	 0.147698
H	-2.8785191502	-4.472012809	 2.7890591212	 0.193464
H	-1.5238849084	-1.1243436507	 1.2234900502	 0.137145
46.0542	86.5432	107.1638	160.4465	268.7973	283.6629	334.0271	391.0223	462.9554	609.5557	631.5328	637.4137	654.5748	679.4383	736.7128	766.096	818.3319	955.931	966.3383	1004.1934	1061.0404	1081.9251	1151.8149	1178.4077	1213.8032	1229.0626	1274.5575	1359.4195	1392.9154	1419.4843	1457.2122	1463.9766	1482.5264	1519.0915	1541.1487	1599.6345	2241.6111	3016.1528	3038.5976	3039.3699	3099.9373	3136.0609	3240.4854	3281.8301	3506.5396
CN1C=NC(CC#C)=C1	Cn1cnc(CC#C)c1	
InChI=1S/C7H8N2/c1-3-4-7-5-9(2)6-8-7/h1,5-6H,4H2,2H3	InChI=1S/C7H8N2/c1-3-4-7-5-9(2)6-8-7/h1,5-6H,4H2,2H3
