18
gdb 93296	2.1256	1.83261	1.24769	3.348	72.05	-0.2392	-0.0333	0.2059	1053.5975	0.147207	-439.074916	-439.066501	-439.065557	-439.108134	31.532	
C	 0.490428703	 1.4253407792	-0.3958053239	-0.39384
C	-0.0877071907	 0.1235485408	 0.1613750652	 0.006081
O	-0.0697746576	-0.9114532603	-0.8404797439	-0.267598
C	 1.1255350895	-1.6652987916	-0.7332911244	-0.194036
C	 1.6144256775	-1.4933408386	 0.7037776698	 0.338678
O	 2.5386873092	-2.0514141797	 1.2316415131	-0.3045
C	 0.7027230172	-0.4603747603	 1.3218930541	 0.208772
C	 1.06014043	 0.2322896764	 2.581134387	-0.283233
N	 0.0902574903	-0.8672824663	 2.6112184052	-0.338015
H	 1.5541439888	 1.3181525042	-0.6325598723	 0.122495
H	-0.0393454382	 1.7038960227	-1.3106236959	 0.131387
H	 0.3870265018	 2.240453607	 0.3272419225	 0.118279
H	-1.1416073688	 0.2706590616	 0.4245432375	 0.089534
H	 0.914959122	-2.716165492	-0.9551366986	 0.144232
H	 1.9033365475	-1.3195718514	-1.4324666357	 0.123461
H	 2.0178990334	 0.000646915	 3.0388009993	 0.143248
H	 0.7084416765	 1.2519331616	 2.717774136	 0.119187
H	-0.8559699914	-0.4912437883	 2.6525202351	 0.235867
61.2852	135.4838	197.1691	235.0627	239.2282	258.8709	343.2406	461.8599	486.458	570.5348	590.0076	639.1938	726.5603	825.2451	837.2995	873.7736	936.8726	968.3511	1008.2349	1020.0704	1051.5297	1065.7601	1088.8453	1127.0603	1139.8011	1151.4834	1208.4901	1267.7541	1297.2182	1310.4879	1340.1019	1363.9371	1403.0368	1411.294	1478.2273	1489.5584	1491.8987	1500.385	1859.2656	2984.7181	3038.0994	3039.0959	3080.9603	3106.3899	3110.1191	3121.9667	3199.2405	3474.874
CC1OCC(=O)C11CN1	C[C@H]1OCC(=O)[C@]21CN2	
InChI=1S/C6H9NO2/c1-4-6(3-7-6)5(8)2-9-4/h4,7H,2-3H2,1H3	InChI=1S/C6H9NO2/c1-4-6(3-7-6)5(8)2-9-4/h4,7H,2-3H2,1H3/t4-,6-/m1/s1
