23
gdb 70292	3.31126	1.2541	1.142	0.187	89.25	-0.2509	0.0932	0.3441	1210.1133	0.207103	-351.153747	-351.145343	-351.144398	-351.186091	34.575	
C	-0.526277112	 1.4583471265	 0.2403448194	-0.481659
C	 0.0832094682	 0.098570434	-0.0016513694	 0.367596
C	-0.6446007103	-1.143478834	 0.4612945254	-0.335524
C	 0.6626420722	-0.7531670572	 1.11418048	-0.065112
C	 1.9262857246	-1.43166424	 0.6071232918	-0.296753
C	 1.8201881512	-1.3282924857	-0.9173594314	 0.37514
C	 2.9345433745	-1.7760177039	-1.8197027126	-0.341003
C	 1.6543429858	-2.5743738597	-1.7566228699	-0.298549
C	 0.9908215748	-0.0782289092	-1.2169483112	-0.34811
H	 0.2439640789	 2.2380093591	 0.2842569454	 0.110903
H	-1.2258418865	 1.7312798911	-0.5592076696	 0.113781
H	-1.0810311553	 1.4832713992	 1.1839705117	 0.111372
H	-1.5482676992	-0.9907702117	 1.0426416952	 0.100572
H	-0.6727958596	-2.0186953178	-0.1794666125	 0.113389
H	 0.6367215191	-0.4061040963	 2.1421287796	 0.073531
H	 2.8058174177	-0.8827641976	 0.9698183622	 0.09528
H	 2.0317144994	-2.4695481256	 0.9443442885	 0.093166
H	 3.1317196708	-1.196781449	-2.7163293642	 0.107308
H	 3.8236424055	-2.199503311	-1.362995311	 0.107255
H	 1.6778582905	-3.5373536776	-1.2559858226	 0.107257
H	 0.9848623223	-2.5330228305	-2.6102846329	 0.107008
H	 0.4387017539	-0.1620169852	-2.1607256231	 0.091324
H	 1.6422281632	 0.803174712	-1.3031925288	 0.091829
110.8314	181.5724	218.4022	248.3593	306.2033	356.9318	379.9919	390.4711	413.5618	501.1049	577.8296	700.2585	774.2501	782.6161	820.8	863.5483	884.6558	891.8576	928.1014	932.0525	942.4064	984.9903	989.9244	1007.9108	1054.8164	1055.8419	1070.1457	1080.6028	1092.5353	1100.3265	1117.9	1188.6441	1193.0115	1217.4311	1235.7658	1274.4633	1294.865	1318.1625	1330.8401	1376.0133	1407.0553	1421.7787	1466.6984	1486.5219	1489.1305	1491.0247	1498.3556	1505.9091	1509.0749	3002.2393	3012.5599	3017.2151	3049.3336	3053.6852	3073.2042	3093.1779	3117.9026	3122.8323	3126.0501	3158.2654	3195.5019	3209.4238	3210.6961
CC12CC1CC1(CC1)C2	C[C@]12C[C@H]1CC1(CC1)C2	
InChI=1S/C9H14/c1-8-4-7(8)5-9(6-8)2-3-9/h7H,2-6H2,1H3	InChI=1S/C9H14/c1-8-4-7(8)5-9(6-8)2-3-9/h7H,2-6H2,1H3/t7-,8+/m0/s1
