15
gdb 43211	2.37967	1.69185	1.20134	2.2459	71.82	-0.2446	-0.0373	0.2073	1027.7913	0.111001	-420.564017	-420.55616	-420.555216	-420.596953	29.123	
O	-0.0446241305	 0.0070351208	-0.3870176161	-0.282384
C	-0.0676437268	 1.1697106451	-0.1276024323	 0.396923
C	-1.1871535825	 2.1940908315	 0.0939913424	-0.228789
C	-1.5536250242	 2.3163161312	 1.5954249139	-0.082987
O	-0.4691483649	 3.2404089152	 1.8344969561	-0.271935
C	-0.1003159276	 3.2541737085	 0.4521244639	 0.104898
C	 1.0465504794	 2.2491909373	 0.0987710708	-0.340211
C	 2.1208098987	 2.0069672477	 1.0280847801	 0.331627
C	 3.0024355695	 1.7900894949	 1.8153994015	-0.423047
H	-1.9775666362	 2.2836643334	-0.6487543925	 0.111738
H	-2.5262473	 2.7905370469	 1.768135382	 0.119752
H	-1.4785993674	 1.4062112792	 2.1995913482	 0.130079
H	-0.0271019305	 4.2597475439	 0.0353515008	 0.095882
H	 1.4327917015	 2.5019732674	-0.9004075859	 0.136947
H	 3.7804498014	 1.6019031471	 2.5131344772	 0.201507
60.1498	121.0761	151.292	216.4762	329.6736	365.8023	499.7683	519.678	605.5301	620.9233	641.2511	673.0437	765.8486	833.8034	843.0237	919.5679	932.8317	982.6146	1034.6688	1040.4416	1056.274	1093.0985	1123.1209	1160.6075	1174.6454	1219.367	1248.7305	1294.9764	1305.7858	1358.7253	1522.994	1903.5528	2239.8488	3004.6733	3030.8163	3082.6022	3104.0653	3138.5988	3503.9597
O=C1C2COC2C1C#C	O=C1[C@H]2CO[C@H]2[C@H]1C#C	
InChI=1S/C7H6O2/c1-2-4-6(8)5-3-9-7(4)5/h1,4-5,7H,3H2	InChI=1S/C7H6O2/c1-2-4-6(8)5-3-9-7(4)5/h1,4-5,7H,3H2/t4-,5+,7-/m0/s1
