15
gdb 55338	2.13884	1.59889	1.1775	7.2868	65.23	-0.2663	-0.0083	0.258	1061.3496	0.11389	-453.965222	-453.957135	-453.95619	-453.99884	28.888	
O	-0.2010289389	-0.0378015581	 0.022639181	-0.363803
C	-0.0638086331	 1.284721873	-0.1253664851	 0.444408
O	 0.9781002185	 1.8288644109	-0.3657849894	-0.331035
C	-1.3726902491	 2.0559261292	 0.053843436	-0.136379
N	-2.5800429177	 1.2051617432	 0.1435849141	-0.328075
H	-3.1642243894	 1.1755662418	-0.6848450183	 0.243047
H	-1.1486741165	-0.1951190472	 0.2105612904	 0.307827
C	-3.1116006455	 1.9877194326	 1.2852519986	-0.169068
C	-1.7005721942	 2.6276537951	 1.4825464967	-0.180051
C	-0.938008889	 2.0718136244	 2.5884139332	 0.298954
N	-0.359237876	 1.628057162	 3.4848465237	-0.316178
H	-1.4064360407	 2.8540782082	-0.6940773765	 0.117672
H	-3.8567564085	 2.7410113459	 1.007520117	 0.122471
H	-3.4941438665	 1.3816454007	 2.1089050358	 0.143899
H	-1.6846953334	 3.7159152384	 1.5423545428	 0.146311
54.0335	102.3105	121.0843	221.1462	243.1255	312.9531	438.7581	522.9452	559.9146	614.698	691.9763	751.3883	788.2132	820.6924	836.2983	957.8399	968.0015	993.5704	1034.445	1071.7363	1101.2463	1138.7987	1188.2709	1235.1519	1248.5036	1300.7654	1344.5149	1349.0381	1377.6968	1413.0055	1518.7228	1878.038	2361.694	3043.2872	3066.07	3110.8983	3119.8996	3537.2526	3554.0816
[O-]C(=O)C1[NH2+]CC1C#N	OC(=O)[C@H]1NC[C@H]1C#N	
InChI=1S/C5H6N2O2/c6-1-3-2-7-4(3)5(8)9/h3-4,7H,2H2,(H,8,9)	InChI=1S/C5H6N2O2/c6-1-3-2-7-4(3)5(8)9/h3-4,7H,2H2,(H,8,9)/t3-,4+/m1/s1
