14
gdb 130186	3.52938	1.63227	1.1186	1.3123	69.98	-0.1991	-0.004	0.1951	994.2195	0.105385	-429.049172	-429.04184	-429.040895	-429.08085	27.548	
N	-0.027935432	 1.4109107714	 0.1498418113	-0.599247
C	 0.0415331308	 0.0177156707	 0.0395641671	 0.229588
N	-1.048966825	-0.7398690189	 0.0255258649	-0.283465
N	-0.631566708	-2.0427172061	-0.0060001272	-0.386899
C	 0.7274518409	-2.1227194806	-0.0153800502	 0.313937
C	 1.1944655614	-0.8112247102	 0.0143459262	 0.297908
N	 2.5573418337	-0.8953836075	-0.0006122631	-0.382821
N	 2.9734273456	-2.1828290039	-0.0212884506	-0.202242
C	 1.880158449	-2.9433366121	-0.0366663134	-0.141354
H	 0.5116327409	 1.8871945946	-0.5639037351	 0.243698
H	-0.992944488	 1.7167131383	 0.0970007386	 0.252554
H	-1.3203558919	-2.7698393294	 0.0413540232	 0.270079
H	 3.2458201831	-0.1685635872	 0.0753740441	 0.272743
H	 1.9760420994	-4.017366229	-0.0623266656	 0.115522
115.4112	193.7749	247.8705	264.3495	291.2082	342.8736	454.625	542.6622	643.3223	652.5937	669.1876	686.2096	745.6222	815.8188	836.7461	860.9794	976.0892	1068.3426	1103.9197	1144.4634	1185.5104	1257.3603	1299.6298	1364.492	1379.0707	1431.5786	1486.0467	1536.8727	1589.5372	1631.673	1649.4466	3259.1666	3516.6753	3608.3075	3695.6762	3711.5905
NC1=NNC2=C1NN=C2	Nc1n[nH]c2c1[nH]nc2	
InChI=1S/C4H5N5/c5-4-3-2(7-9-4)1-6-8-3/h1H,(H,6,8)(H3,5,7,9)	InChI=1S/C4H5N5/c5-4-3-2(7-9-4)1-6-8-3/h1H,(H,6,8)(H3,5,7,9)
