26
gdb 101717	2.96279	0.78656	0.72342	1.2368	93.52	-0.2192	0.0776	0.2968	1753.2017	0.238982	-369.589801	-369.578664	-369.577719	-369.626706	41.021	
C	 0.2080684502	 1.3835399288	 0.2008788076	-0.392473
C	 0.0317937604	-0.0902789806	-0.1787767231	-0.16484
C	-1.4061299524	-0.6300532916	-0.0509921592	 0.049222
C	-2.3719206328	 0.0760840391	-1.0137524573	-0.394009
C	-1.4066546337	-2.161040703	-0.258339676	-0.226374
C	-2.7299203925	-2.8508468012	 0.0120748502	 0.017047
C	-2.7806221602	-4.2746820436	 0.4560543521	-0.264568
N	-3.2137860984	-3.2085550998	 1.3510954441	-0.079308
C	-2.3997490136	-2.9484626674	 2.5281249227	-0.311398
H	 1.2634503351	 1.6715520354	 0.1632442762	 0.11162
H	-0.3355697114	 2.0517607592	-0.4734739805	 0.118589
H	-0.1509278266	 1.5747476536	 1.2186795643	 0.112874
H	 0.381622195	-0.2484468269	-1.2087694487	 0.091061
H	 0.6884525931	-0.6972436946	 0.4580660888	 0.089098
H	-1.7448912451	-0.4304544801	 0.9758884809	 0.074005
H	-2.0761870272	-0.0962782057	-2.0562402812	 0.108749
H	-3.3976365202	-0.2835145088	-0.8943457016	 0.119841
H	-2.3881197807	 1.1565934767	-0.8470189941	 0.114516
H	-1.1218294336	-2.3762503787	-1.2985106443	 0.095982
H	-0.6207389626	-2.6059781503	 0.3615591539	 0.091329
H	-3.5421549576	-2.5144817262	-0.6306936852	 0.088573
H	-3.5542808275	-4.9504261355	 0.0990396254	 0.109346
H	-1.8243569598	-4.7553721823	 0.6658109653	 0.099557
H	-1.3184685497	-3.1068390173	 2.39154061	 0.097999
H	-2.5563508807	-1.9171176034	 2.861135282	 0.121766
H	-2.7317726374	-3.614165426	 3.3317839879	 0.121796
39.3617	63.3929	98.3374	133.5923	202.7025	216.0262	230.523	277.497	301.2496	316.639	347.8708	396.1399	421.7849	494.1995	535.986	744.0004	773.7924	782.8441	822.6033	889.2648	915.0353	942.428	973.9329	1007.8377	1037.8884	1045.4288	1062.96	1095.3022	1116.3107	1134.3704	1154.5776	1163.9365	1180.3136	1195.7247	1206.5577	1256.3249	1284.541	1307.2913	1340.7609	1351.9916	1375.5579	1381.3969	1409.886	1415.0619	1430.272	1448.1966	1474.3747	1485.1936	1491.0629	1497.6943	1498.3295	1504.1993	1507.8639	1514.0423	1516.4844	2975.8332	2998.3771	3005.0469	3014.283	3029.6481	3033.1432	3041.5474	3060.0233	3066.6753	3078.8283	3095.4793	3097.2027	3098.0289	3103.9239	3110.3612	3117.1465	3164.4664
CCC(C)CC1CN1C	CC[C@@H](C)C[C@H]1CN1C	
InChI=1S/C8H17N/c1-4-7(2)5-8-6-9(8)3/h7-8H,4-6H2,1-3H3	InChI=1S/C8H17N/c1-4-7(2)5-8-6-9(8)3/h7-8H,4-6H2,1-3H3/t7-,8+,9?/m1/s1
