20
gdb 17921	2.94773	2.10475	2.02931	1.5358	72.25	-0.2475	0.0625	0.31	823.7608	0.180852	-349.026676	-349.019727	-349.018783	-349.057325	28.47	
O	 0.1440965446	 1.3676454698	-0.1414226521	-0.461622
C	 0.0177575665	-0.0303777469	 0.0115779178	 0.171402
C	 0.4258841483	-0.6226499292	 1.3833571759	-0.029965
C	-0.6691983619	-0.0507322337	 2.3143358987	-0.230162
C	-1.9421864038	-0.0355269506	 1.4021212652	-0.230161
C	-1.4215863357	-0.6005820568	 0.0594752782	-0.029965
C	-1.133084571	-2.1053980167	 0.2371041691	-0.213949
C	 0.1412452264	-2.120620198	 1.1502853787	-0.213949
H	-0.3523306881	 1.8023296792	 0.558593602	 0.280887
H	 0.600580929	-0.4605817833	-0.8089236368	 0.076485
H	 1.4454493957	-0.4020626155	 1.7043078806	 0.059312
H	-0.8005228157	-0.6633207582	 3.2105975405	 0.098744
H	-0.4107472584	 0.9555290444	 2.6618383587	 0.090625
H	-2.7582775951	-0.6399332052	 1.8076872785	 0.098744
H	-2.3383770351	 0.9785541512	 1.2805096019	 0.090625
H	-2.0495899875	-0.3603151995	-0.8002135378	 0.059312
H	-1.9794066006	-2.6336872703	 0.6856005761	 0.09476
H	-0.9316065055	-2.5813395647	-0.7272863365	 0.097058
H	 0.9821227724	-2.6042089235	 0.6440941402	 0.097058
H	-0.0198256145	-2.6570861327	 2.089838751	 0.09476
171.7934	208.4494	240.8797	298.1472	378.9965	387.6418	550.3124	576.1931	743.4801	757.3415	796.244	830.9585	836.4919	878.2591	896.1268	906.3974	954.9503	968.4341	994.869	1028.6584	1045.1708	1095.0743	1095.427	1113.7893	1174.414	1179.5964	1195.2555	1239.1925	1247.0697	1280.2029	1283.0486	1293.0044	1302.4717	1318.2171	1339.7017	1348.3305	1352.2457	1444.914	1487.5344	1500.4759	1504.1397	1520.9773	3033.6768	3043.7857	3047.2489	3054.1543	3067.1819	3073.9852	3078.092	3093.4353	3097.2004	3099.3472	3103.7437	3828.222
OC1C2CCC1CC2	O[C@H]1[C@H]2CC[C@@H]1CC2	
InChI=1S/C7H12O/c8-7-5-1-2-6(7)4-3-5/h5-8H,1-4H2	InChI=1S/C7H12O/c8-7-5-1-2-6(7)4-3-5/h5-8H,1-4H2/t5-,6+,7-
