17
gdb 81095	2.04617	1.63176	1.21122	4.2893	70.21	-0.2496	-0.0359	0.2137	1088.9182	0.132894	-458.893274	-458.884442	-458.883498	-458.926847	32.383	
C	-0.0837814281	 1.5795365531	 0.0004447926	-0.436477
C	-0.0408187251	 0.0646111355	-0.0194699177	-0.020075
C	 1.2184358941	-0.647169676	-0.5804423005	-0.019651
O	 1.9954675587	-0.2188127141	 0.6055367516	-0.325627
C	 0.7105967093	-0.6802089533	 1.1477410792	 0.290066
C	 0.4478129254	-0.6262396906	 2.6129287875	 0.029802
O	 1.2089365457	-0.1730475749	 3.4277767629	-0.240826
C	 0.8492464579	-1.9298021218	 0.2282136292	 0.073267
O	-0.3106471601	-2.6599077853	-0.0342188994	-0.425534
H	 0.8750404314	 1.9894207201	 0.3240319243	 0.146789
H	-0.3105521724	 1.967147194	-0.9986571227	 0.119545
H	-0.8653312304	 1.9411505958	 0.6764992679	 0.122331
H	-0.9869769834	-0.3971111902	-0.307922273	 0.100485
H	 1.7037043937	-0.541704324	-1.5514834056	 0.09571
H	-0.5424049447	-1.0491461393	 2.8964905853	 0.089279
H	 1.7171942636	-2.5452535596	 0.4847727247	 0.102803
H	-0.0846200757	-3.4024180094	-0.6027450565	 0.298114
72.5985	153.0718	193.4898	208.0906	215.4943	226.0154	268.5992	350.938	398.483	504.3584	593.2543	655.9957	697.5403	774.3864	800.4489	832.435	900.6068	948.6404	977.7599	1030.0978	1072.0415	1076.9274	1129.3739	1141.2997	1166.7109	1201.9563	1211.7094	1228.7352	1273.0283	1296.3641	1384.2232	1407.7158	1416.5741	1434.6098	1492.3574	1503.4632	1824.3281	2879.8866	3039.2355	3071.7023	3097.2494	3101.5575	3114.8119	3137.8122	3827.6724
CC1C2OC1(C=O)C2O	C[C@H]1[C@H]2O[C@]1(C=O)[C@H]2O	
InChI=1S/C6H8O3/c1-3-4-5(8)6(3,2-7)9-4/h2-5,8H,1H3	InChI=1S/C6H8O3/c1-3-4-5(8)6(3,2-7)9-4/h2-5,8H,1H3/t3-,4+,5-,6-/m0/s1
