18
gdb 22613	2.23793	1.59499	1.03172	1.2563	76.78	-0.2225	0.0086	0.2311	1161.1074	0.145764	-439.01093	-439.001924	-439.000979	-439.044273	34.314	
C	-0.0215339075	 1.6633455477	-0.0315768713	-0.409955
C	 0.0676331067	 0.1402508937	-0.00700178	-0.071638
C	 0.6576191547	-0.6186955613	-1.2157087418	-0.165958
C	 2.1132469224	-0.2824867044	-1.4018223051	-0.322246
C	 1.7729193394	-1.2347132916	-0.2967883861	 0.347158
O	 2.3719530144	-2.4683554187	-0.2516203877	-0.447177
C	 1.1388239169	-0.5439161	 0.8512407092	 0.32308
N	 1.299844578	-0.7746673425	 2.0886987913	-0.278022
O	 0.3662899011	-0.0489998401	 2.8611018365	-0.396414
H	 0.9311223044	 2.1239306071	-0.3088876197	 0.117274
H	-0.7761283057	 1.9926295606	-0.7534996682	 0.116019
H	-0.3012572283	 2.0404613912	 0.9557574432	 0.138507
H	-0.9056054285	-0.2777711686	 0.2765985521	 0.100831
H	 0.0770367498	-1.1087701981	-1.986439396	 0.101488
H	 2.5815499979	-0.7853724045	-2.2428541018	 0.129231
H	 2.5073418854	 0.7103650645	-1.2027314904	 0.117394
H	 1.9256368515	-2.9829371395	 0.4320377074	 0.294079
H	 0.6061369174	-0.3038025356	 3.7583006184	 0.30635
91.4493	152.8791	191.7486	215.8439	226.8645	289.3867	332.6898	377.6959	383.4295	439.8443	491.6229	547.1925	617.0619	638.3876	751.5458	770.5677	849.9562	875.5598	927.7043	974.2131	987.0923	1003.9315	1013.0943	1086.3011	1106.286	1125.8112	1142.9839	1192.1899	1242.4651	1283.0952	1343.8452	1357.922	1404.5811	1416.7046	1432.7303	1492.9852	1495.9113	1507.421	1769.213	3040.3266	3041.5887	3107.998	3114.1262	3121.4325	3197.2409	3205.4146	3784.8414	3819.6598
CC1C2CC2(O)C1=NO	C[C@H]1[C@H]2C[C@@]2(O)C1=NO	
InChI=1S/C6H9NO2/c1-3-4-2-6(4,8)5(3)7-9/h3-4,8-9H,2H2,1H3	InChI=1S/C6H9NO2/c1-3-4-2-6(4,8)5(3)7-9/h3-4,8-9H,2H2,1H3/t3-,4+,6-/m0/s1
