18
gdb 55144	3.58327	1.3025	1.22121	6.3403	71.2	-0.2467	0.0275	0.2742	1060.1785	0.151306	-439.101638	-439.094673	-439.093729	-439.133167	27.946	
O	 0.2716203597	 0.467852912	-0.9149272565	-0.342269
C	-0.0615710491	 1.1247091273	 0.0368204145	 0.393136
O	 0.7210259048	 1.2624754485	 1.1190347966	-0.381059
C	-1.4057996939	 1.8480008002	 0.1159964538	-0.112232
C	-2.3350205714	 1.3266722966	 1.2764753017	-0.232169
C	-2.461512215	 2.6397985471	 2.0671535441	-0.002728
C	-2.7611730043	 3.6838682304	 0.9622693043	-0.232975
C	-1.3049080988	 3.3208459257	 0.5883958029	-0.020538
N	-1.0115072035	 3.0955089792	 2.063088638	-0.349236
H	-0.9505014181	 4.0033172647	 2.5225506908	 0.229514
H	 0.2720368276	 1.8825306581	 1.7499293615	 0.310502
H	-1.8731844763	 1.7664400595	-0.8645869452	 0.103828
H	-3.297405761	 0.9663391779	 0.9084220613	 0.116023
H	-1.8674519606	 0.5361365438	 1.8659878161	 0.129034
H	-2.9777129746	 2.6170504178	 3.0261809247	 0.084821
H	-3.5621904984	 3.4846803355	 0.2443068019	 0.106857
H	-2.8435185584	 4.7001240205	 1.3564981942	 0.105449
H	-0.6415094286	 3.9869185052	 0.0375402852	 0.094042
102.395	186.3384	220.5574	341.3858	398.09	441.588	562.1653	658.454	703.6195	742.2929	828.6899	835.2177	847.5274	859.9068	887.6331	927.4281	951.0754	968.8654	977.7126	985.6082	1021.1633	1065.0612	1077.9892	1105.477	1140.683	1181.6926	1207.6754	1235.4773	1257.044	1261.1512	1284.6982	1296.5898	1320.99	1343.3506	1355.6598	1485.9372	1490.9112	1506.4008	1856.4349	3052.27	3081.573	3114.2473	3120.3828	3128.0356	3131.8543	3135.4363	3258.0556	3472.8783
[O-]C(=O)C1CC2CC1[NH2+]2	O=C(O)[C@H]1C[C@@H]2C[C@H]1N2	
InChI=1S/C6H9NO2/c8-6(9)4-1-3-2-5(4)7-3/h3-5,7H,1-2H2,(H,8,9)	InChI=1S/C6H9NO2/c8-6(9)4-1-3-2-5(4)7-3/h3-5,7H,1-2H2,(H,8,9)/t3-,4+,5-/m1/s1
