19
gdb 13439	3.51398	1.26978	1.14581	2.5796	72.49	-0.2226	-0.0234	0.1993	1118.4932	0.162727	-365.037357	-365.027974	-365.02703	-365.072229	32.737	
C	-0.0367699905	 1.5416168758	 0.6942889067	-0.415092
C	 0.1321742586	 0.0687213363	 0.3855252645	-0.008593
C	 0.2607826123	-0.4742219768	-1.0044394292	-0.02177
C	 0.2371928151	 0.4068302934	-2.2441955965	-0.312483
C	 0.9819929844	-0.2371186521	-3.3975672958	 0.170627
O	 1.8185442456	 0.3115623204	-4.0663427333	-0.238927
N	 1.3884825202	-0.5299527398	-0.0729475954	-0.096757
C	 2.5739372132	 0.2904912224	-0.2796390356	-0.321854
H	 0.4179821117	 2.2007083949	-0.0469317549	 0.122758
H	-1.102420185	 1.78873984	 0.7482069987	 0.124803
H	 0.4040444773	 1.7810167	 1.6681994457	 0.127212
H	-0.3869533878	-0.5669498214	 1.1040027097	 0.090082
H	-0.1727275782	-1.4579047974	-1.194819922	 0.089599
H	-0.8112379773	 0.5184319768	-2.5598839966	 0.126333
H	 0.6450291041	 1.4061039699	-2.0901053637	 0.123723
H	 0.6915930493	-1.2955985518	-3.5962671229	 0.075743
H	 2.3989123264	 1.3050929169	-0.6629257365	 0.105566
H	 3.1037101632	 0.3799190348	 0.6740693589	 0.125111
H	 3.2372175974	-0.2209732022	-0.9840317417	 0.133918
47.4556	65.4336	129.4968	147.7288	173.3158	241.5908	276.1999	297.8381	453.8797	455.891	522.592	560.9068	725.0454	734.4108	784.9358	885.8787	980.795	1023.7377	1037.6395	1057.363	1107.7123	1137.3712	1153.6642	1170.8622	1177.4042	1198.6737	1217.0423	1279.7403	1353.3648	1392.2213	1413.0103	1428.5283	1433.9587	1451.0003	1465.2783	1485.9289	1497.9058	1505.4963	1508.2711	1835.9351	2857.7382	3002.3574	3008.5691	3039.5017	3072.2339	3075.9203	3090.2423	3093.9276	3103.7856	3128.646	3140.4246
CC1C(CC=O)N1C	C[C@H]1[C@@H](CC=O)N1C	
InChI=1S/C6H11NO/c1-5-6(3-4-8)7(5)2/h4-6H,3H2,1-2H3	InChI=1S/C6H11NO/c1-5-6(3-4-8)7(5)2/h4-6H,3H2,1-2H3/t5-,6+,7?/m0/s1
