19
gdb 55833	4.77566	0.76349	0.70557	4.2489	76.63	-0.2401	-0.0193	0.2207	1594.3293	0.15572	-423.060207	-423.050512	-423.049568	-423.096515	34.353	
C	-0.2642688105	 1.4999657504	-0.1450830365	-0.472849
C	-0.2120421807	-0.0061961186	 0.037606475	 0.382648
O	-0.3790212166	-0.5271553914	 1.1169268279	-0.288255
C	 0.065936983	-0.832561153	-1.2151803596	-0.333101
C	 0.1220425849	-2.329322651	-0.9544426379	 0.042718
C	-1.217114862	-3.0537358797	-0.6080158504	-0.343807
C	-0.869876	-4.1012043161	-1.6761970581	 0.401088
O	-1.3054476866	-5.1782664352	-1.9608049138	-0.288339
C	 0.3147602597	-3.2630200176	-2.19158421	-0.381089
H	 0.6885335235	 1.8691925759	-0.5409721452	 0.139803
H	-1.03596349	 1.7707706069	-0.8744817029	 0.139069
H	-0.4760930073	 1.982178677	 0.8097579463	 0.145803
H	-0.7063882255	-0.5933795835	-1.9614479334	 0.11741
H	 1.0074735752	-0.4751799669	-1.6561981117	 0.123492
H	 0.8693141465	-2.5351303226	-0.1851943397	 0.096891
H	-1.3499861552	-3.4181859371	 0.4122969514	 0.142105
H	-2.1092415205	-2.4789442362	-0.8841621654	 0.123069
H	 0.0765581246	-2.7798813858	-3.1467846623	 0.124146
H	 1.2676675077	-3.7874741155	-2.2996886437	 0.129198
34.9508	50.8404	80.2068	111.3709	150.4578	295.2605	296.8038	401.8051	418.464	473.3914	486.8302	571.3082	653.4192	680.2139	773.4101	812.1501	827.1322	920.6102	924.1611	957.5121	976.214	1023.1979	1070.985	1109.631	1134.6537	1168.1053	1182.6114	1192.6044	1238.4037	1242.6978	1269.4524	1340.0618	1382.2112	1392.1014	1427.7555	1444.4572	1451.185	1464.7483	1477.1386	1809.3604	1894.8947	3004.649	3034.6942	3037.5499	3042.6798	3048.5197	3087.3923	3097.4184	3109.8008	3124.3128	3153.2864
CC(=O)CC1CC(=O)C1	CC(=O)CC1CC(=O)C1	
InChI=1S/C7H10O2/c1-5(8)2-6-3-7(9)4-6/h6H,2-4H2,1H3	InChI=1S/C7H10O2/c1-5(8)2-6-3-7(9)4-6/h6H,2-4H2,1H3
