17
gdb 92075	2.94175	1.54292	1.11016	3.8318	67.67	-0.2709	0.002	0.2729	1067.1701	0.137166	-458.986568	-458.979055	-458.978111	-459.018551	29.52	
O	 0.0475353215	 1.3747015612	 0.2113440764	-0.44028
C	-0.0261260794	-0.0081439419	 0.0134179431	 0.021032
C	-1.4752234494	-0.5012046273	-0.1149116261	-0.263498
C	-1.4354513405	-2.0112017558	-0.2930688079	-0.062139
C	-1.6866583705	-2.6569675372	-1.6402721433	-0.308722
C	-0.2890591762	-2.5392091409	-1.1125369606	 0.099657
O	 0.5759572635	-1.6182865982	-1.7589509099	-0.216946
C	 0.7544341004	-0.3850762843	-1.2460118108	 0.397439
O	 1.4866739342	 0.3994757983	-1.7933012419	-0.348161
H	 0.7263707443	 1.6911754564	-0.4050128661	 0.297208
H	 0.4424280468	-0.548449915	 0.855346985	 0.098117
H	-2.0364117019	-0.2179667535	 0.7786341156	 0.124407
H	-1.9495351338	 0.0026894993	-0.9631404645	 0.120033
H	-1.6899690591	-2.5981254609	 0.5834923995	 0.105198
H	-2.1416443774	-3.6402461902	-1.6736667916	 0.125622
H	-1.9490542259	-2.0026933781	-2.4649997651	 0.134036
H	 0.2532664735	-3.4259493319	-0.8048969917	 0.116999
111.3865	124.0539	299.4447	319.38	357.2395	413.7472	446.6168	457.2435	479.7927	574.7467	674.5136	718.1	775.4438	820.0334	838.2706	902.0276	954.2776	1011.3909	1033.8461	1060.0763	1085.7539	1107.2336	1123.6551	1153.5975	1164.1888	1209.162	1214.796	1249.8434	1285.928	1312.4661	1372.1486	1383.9892	1406.4285	1448.3677	1478.2779	1501.3099	1828.3055	2946.1716	3057.2464	3105.8892	3137.4208	3158.8559	3176.0776	3228.5607	3701.6463
OC1CC2CC2OC1=O	O[C@H]1C[C@H]2C[C@H]2OC1=O	
InChI=1S/C6H8O3/c7-4-1-3-2-5(3)9-6(4)8/h3-5,7H,1-2H2	InChI=1S/C6H8O3/c7-4-1-3-2-5(3)9-6(4)8/h3-5,7H,1-2H2/t3-,4-,5+/m0/s1
