16
gdb 11441	3.67544	1.5762	1.2487	4.5211	60.86	-0.2434	0.058	0.3014	961.4947	0.132835	-417.102495	-417.094854	-417.09391	-417.13461	28.167	
O	-0.0848752392	 1.3672110208	 0.2162636398	-0.42524
C	-0.002895656	-0.0427075654	 0.073396165	-0.0818
C	-1.4338486591	-0.5489940412	-0.1157157434	 0.028561
C	-1.5301347559	-2.093014878	-0.1047931373	-0.189951
N	-1.7956482864	-2.3560789054	 1.300333275	-0.338366
C	-2.3773496505	-1.2518565078	 1.9181049364	 0.424354
O	-2.8587596707	-1.2177681353	 3.0273522908	-0.407617
N	-2.2927692513	-0.2030525987	 1.0079600616	-0.331402
H	 0.7718201499	 1.6987767327	 0.4990045775	 0.295097
H	 0.6046605794	-0.3250258661	-0.8013690469	 0.089323
H	 0.4361667686	-0.5162639026	 0.9640495605	 0.106391
H	-1.8282245629	-0.1300409675	-1.0469542696	 0.096601
H	-2.3441852227	-2.4331209526	-0.7594795784	 0.111806
H	-0.6007787078	-2.5647231846	-0.441454978	 0.112282
H	-2.1019427059	-3.2639672348	 1.611295093	 0.251914
H	-2.2350849094	 0.7313903865	 1.383776094	 0.258047
90.8969	156.771	176.5411	249.7364	251.2681	380.0902	465.2503	505.4837	524.8382	587.4305	712.5319	763.1639	772.2093	853.7722	960.4432	977.7912	996.1241	1083.6874	1087.6884	1111.2549	1140.475	1207.6289	1236.707	1251.5603	1276.0237	1294.4178	1358.0012	1391.6188	1415.7879	1441.3365	1455.1395	1515.7243	1529.738	1852.0092	2971.5331	3004.7191	3015.195	3058.6553	3062.8044	3634.9056	3646.4608	3840.4774
OCC1CNC(=O)N1	OC[C@H]1CNC(=O)N1	
InChI=1S/C4H8N2O2/c7-2-3-1-5-4(8)6-3/h3,7H,1-2H2,(H2,5,6,8)	InChI=1S/C4H8N2O2/c7-2-3-1-5-4(8)6-3/h3,7H,1-2H2,(H2,5,6,8)/t3-/m1/s1
