13
gdb 133641	4.29889	0.69552	0.67471	4.3125	53.	-0.3077	-0.007	0.3007	1548.2697	0.084061	-584.243696	-584.234807	-584.233863	-584.279286	29.6	
F	-0.0076171218	 0.0751699513	-0.0102169535	-0.065998
C	-0.036961441	 1.4079106688	 0.0450329931	 0.279314
F	 1.218840113	 1.8548410249	-0.012756785	-0.066007
F	-0.691246653	 1.8572657237	-1.0369845465	-0.077449
C	-0.7530375434	 1.903189523	 1.2931002773	-0.199521
O	-0.0519284099	 1.4214347431	 2.4111510615	-0.233627
C	-0.635385556	 1.8261740586	 3.6277850664	-0.182163
C	 0.1496772019	 1.2863775491	 4.740198391	 0.27199
N	 0.7432321542	 0.8783256504	 5.6419067932	-0.282115
H	-0.7737417689	 3.002397378	 1.2607256212	 0.128701
H	-1.7877284556	 1.5313963095	 1.2627421547	 0.128712
H	-0.6632300433	 2.9241596508	 3.7152079269	 0.149083
H	-1.6716510261	 1.4627907287	 3.7178050396	 0.14908
41.019	66.5845	90.6149	128.1994	211.5196	305.9814	356.0073	381.6205	382.983	532.4336	536.8771	597.0427	672.611	858.0319	965.1009	986.9783	1036.3048	1048.4132	1176.2268	1200.1908	1200.5912	1256.6681	1293.2404	1316.2565	1393.0201	1461.6846	1489.2155	1511.4792	2377.9174	2978.068	2997.6496	3006.4558	3041.5877
FC(F)(F)COCC#N	FC(F)(F)COCC#N	
InChI=1S/C4H4F3NO/c5-4(6,7)3-9-2-1-8/h2-3H2	InChI=1S/C4H4F3NO/c5-4(6,7)3-9-2-1-8/h2-3H2
