21
gdb 89526	2.24207	1.82155	1.3274	2.1035	77.57	-0.2432	0.084	0.3272	1068.2035	0.182782	-424.228765	-424.220271	-424.219327	-424.261372	33.276	
C	 0.3318719394	 1.5657745731	-0.2119672902	-0.418931
C	 0.0393854004	 0.1024489651	 0.0543705705	 0.155209
O	 0.650582543	-0.7726003045	-0.9272435634	-0.346039
C	 1.2893094355	-1.5769833301	 0.0959218153	 0.43439
C	 0.8634527436	-3.0292183441	 0.0241698986	-0.467314
C	 2.8034485131	-1.3380330512	 0.1205965351	-0.125098
O	 2.9958895039	-0.0818308374	 0.7581197258	-0.25148
C	 2.0152295037	 0.0069363986	 1.78749147	-0.100025
C	 0.7533393017	-0.6364693111	 1.2151962545	-0.175781
H	 1.408652613	 1.7483777271	-0.2373335546	 0.142884
H	-0.0895577383	 1.854303883	-1.1801189758	 0.124187
H	-0.1252777086	 2.1990945867	 0.5566779555	 0.109999
H	-1.0472844685	-0.0627600526	 0.0742956298	 0.071104
H	 1.2240861211	-3.4859626518	-0.9040153469	 0.12881
H	 1.2672601988	-3.6016266484	 0.8656114365	 0.115866
H	-0.2266684907	-3.112396872	 0.0360978979	 0.124284
H	 3.306024137	-2.142102163	 0.6838617589	 0.081443
H	 3.2293585968	-1.2819049458	-0.8842437215	 0.11868
H	 2.3421126856	-0.5418337609	 2.6864151979	 0.090139
H	 1.9060903139	 1.0623084655	 2.0514661943	 0.112904
H	 0.1014963655	-1.0670175563	 1.976062662	 0.074772
104.9255	202.9323	205.956	235.9257	244.3058	289.5481	310.7657	392.8133	425.7604	482.0854	608.7878	616.0937	747.2589	774.4926	857.5615	876.5263	912.3003	932.5222	946.9647	981.0873	983.7343	1022.2085	1070.8053	1086.1111	1110.0179	1151.7103	1164.8967	1175.8181	1220.9084	1228.4527	1257.5257	1281.951	1312.7022	1333.0879	1359.6685	1382.0181	1407.588	1408.0816	1412.2532	1480.8067	1483.1877	1487.1766	1494.2312	1504.0815	1513.6763	2964.1486	2970.6741	2993.9445	3034.7007	3036.1242	3089.9453	3100.11	3102.2258	3103.8877	3106.1691	3116.3459	3132.539
CC1OC2(C)COCC12	C[C@H]1O[C@@]2(C)COC[C@@H]12	
InChI=1S/C7H12O2/c1-5-6-3-8-4-7(6,2)9-5/h5-6H,3-4H2,1-2H3	InChI=1S/C7H12O2/c1-5-6-3-8-4-7(6,2)9-5/h5-6H,3-4H2,1-2H3/t5-,6+,7+/m1/s1
