18
gdb 18577	3.31981	2.14509	1.74695	1.8328	71.34	-0.237	0.0128	0.2498	828.4805	0.155477	-347.802399	-347.795498	-347.794554	-347.833399	27.154	
C	 0.3210192475	 1.4723266088	-0.2622374791	-0.402868
C	 0.0384114601	 0.025255557	 0.0931016345	 0.155728
O	 0.5727358405	-0.899360028	-0.8900132965	-0.316941
C	 1.3590523806	-1.586554384	 0.1191038967	 0.097293
C	 2.8324856481	-1.2861664282	 0.0621370012	-0.082793
C	 3.1924547137	-0.4161179485	 1.0063972129	-0.057512
C	 2.0391071117	 0.0256014861	 1.8816957754	-0.281323
C	 0.8196684816	-0.671497801	 1.2459103613	-0.105646
H	 1.3940312696	 1.6594177282	-0.3562575202	 0.125329
H	-0.1472181996	 1.7092926815	-1.2228659312	 0.126021
H	-0.094728788	 2.1489005094	 0.4927738217	 0.11115
H	-1.0464378867	-0.1225999009	 0.1874306987	 0.071873
H	 1.1201584861	-2.6564156341	 0.1337148685	 0.073189
H	 3.4934021559	-1.7288753539	-0.6743026913	 0.098084
H	 4.2016070707	-0.0460562966	 1.1579570106	 0.096622
H	 2.1857531787	-0.2892530153	 2.9229983517	 0.107066
H	 1.9419244785	 1.1179511709	 1.9102094476	 0.109453
H	 0.1680867109	-1.1393201713	 1.9838075477	 0.075276
86.9718	222.7435	238.1698	292.0586	378.9884	475.3099	497.2362	635.3739	728.2026	768.8406	794.3058	847.1073	862.9995	904.8437	941.8358	962.2606	973.8053	993.7848	1010.4558	1022.1929	1091.1003	1108.0463	1126.9216	1143.2393	1190.692	1223.9573	1261.904	1297.8902	1316.7216	1332.7857	1339.7156	1377.4675	1392.1508	1409.4458	1478.6446	1486.1568	1500.6392	1676.6041	2998.2072	3021.0004	3034.44	3035.6614	3047.2336	3103.5227	3107.4724	3121.1554	3178.224	3207.9405
CC1OC2C=CCC12	C[C@H]1O[C@H]2C=CC[C@@H]12	
InChI=1S/C7H10O/c1-5-6-3-2-4-7(6)8-5/h2,4-7H,3H2,1H3	InChI=1S/C7H10O/c1-5-6-3-2-4-7(6)8-5/h2,4-7H,3H2,1H3/t5-,6+,7+/m1/s1
