16
gdb 42444	4.62345	0.75987	0.72791	2.471	72.25	-0.2649	-0.007	0.2579	1531.8776	0.125048	-434.079483	-434.07057	-434.069626	-434.114636	31.086	
O	 0.1967028262	 0.3364380838	-0.9158712991	-0.39031
C	 0.0821593463	 1.3164347645	-0.197571526	 0.455839
N	 1.1041456316	 1.7841495211	 0.5840830645	-0.33767
C	 2.4219429569	 1.185323901	 0.529883113	-0.283876
C	 3.443118735	 2.1152620615	 0.0297967322	 0.255449
N	 4.2429533639	 2.8623439476	-0.3393615889	-0.2944
C	-1.2009101139	 2.0814343762	-0.0951336539	-0.129319
C	-1.9124079586	 2.3488693396	-1.3827565702	-0.218511
N	-2.4271377618	 1.3546460403	-0.4482782268	-0.300968
H	 0.9755209123	 2.627340246	 1.1199058247	 0.265231
H	 2.7343542599	 0.8187901923	 1.514735354	 0.162495
H	 2.3424849294	 0.3250362783	-0.1416957087	 0.200864
H	-1.2980304365	 2.7859408915	 0.7269149457	 0.094888
H	-2.5031718873	 3.2554085924	-1.4742237017	 0.128997
H	-1.4241136936	 2.0052402008	-2.2896679177	 0.13936
H	-2.1374041898	 0.430280693	-0.769824331	 0.251932
34.9875	65.8249	99.6735	196.8222	232.5693	300.1634	326.3154	372.5281	383.7478	465.2772	596.0957	686.843	764.1047	827.1089	870.3462	909.0636	929.6457	978.4719	1012.5828	1050.4359	1087.8345	1121.688	1135.2618	1184.2907	1225.8327	1273.0107	1290.0373	1323.8164	1370.9561	1412.5346	1466.8347	1494.8509	1538.3104	1765.8596	2364.9747	3042.441	3103.611	3118.1739	3140.7282	3213.1785	3468.6343	3644.158
O=C(NCC#N)C1CN1	O=C(NCC#N)[C@H]1CN1	
InChI=1S/C5H7N3O/c6-1-2-7-5(9)4-3-8-4/h4,8H,2-3H2,(H,7,9)	InChI=1S/C5H7N3O/c6-1-2-7-5(9)4-3-8-4/h4,8H,2-3H2,(H,7,9)/t4-/m1/s1
