16
gdb 24648	4.4676	1.21669	0.99613	3.4564	79.33	-0.2316	-0.0365	0.1951	1149.8506	0.127216	-396.946361	-396.939235	-396.938291	-396.978487	26.795	
C	 1.0074579726	-0.6531848464	-0.8296019878	-0.228211
C	-0.4089943316	-0.9412831547	-1.2047020226	-0.228211
N	-0.0957907635	-0.1435312582	-0.0275465154	-0.132387
C	-0.3391547836	-0.6259445098	 1.2619760815	 0.216229
C	 0.6422898265	-0.6154478324	 2.2588743955	-0.034529
N	 0.3983604574	-1.0020162081	 3.5091894155	-0.24286
C	-0.8454553273	-1.4056352727	 3.7727246533	 0.064565
N	-1.8618914505	-1.4616743038	 2.9106591573	-0.24286
C	-1.6025815471	-1.0719774068	 1.6644182024	-0.034528
H	 1.590029515	-1.4767767477	-0.4220321714	 0.128462
H	 1.5791466467	 0.0933731805	-1.3722237386	 0.131387
H	-0.8806539122	-0.4069352522	-2.023618827	 0.131387
H	-0.7674767235	-1.9562794977	-1.0463382466	 0.128462
H	 1.6516541448	-0.2793150021	 2.0295205334	 0.113301
H	-1.0508951478	-1.7221572607	 4.7916154384	 0.116491
H	-2.4231863257	-1.1079977771	 0.9504747019	 0.113301
66.599	141.5763	193.0012	281.7713	428.7542	478.8361	481.1388	558.0338	634.0004	752.4308	770.2774	821.5062	927.0909	929.8538	931.954	978.927	993.555	1037.9136	1045.731	1112.8734	1133.4201	1145.0735	1170.9953	1172.8717	1211.788	1218.614	1246.6387	1368.1646	1381.3841	1463.7601	1468.0486	1494.0274	1519.932	1584.8489	1616.4453	3104.8687	3108.1324	3147.953	3148.6009	3174.6975	3191.0923	3204.2621
C1CN1C1=CN=CN=C1	C1CN1c1cncnc1	
InChI=1S/C6H7N3/c1-2-9(1)6-3-7-5-8-4-6/h3-5H,1-2H2	InChI=1S/C6H7N3/c1-2-9(1)6-3-7-5-8-4-6/h3-5H,1-2H2
