21
gdb 74974	2.55223	1.57774	1.56494	1.4165	82.68	-0.2303	0.0233	0.2536	1031.2806	0.185571	-387.112618	-387.104886	-387.103942	-387.144423	31.267	
C	-0.0305712559	 1.5013380389	 0.0456858181	-0.507805
C	 0.0015293011	 0.0069182909	-0.0264739327	 0.36453
C	-0.0166349054	-0.7486925593	-1.1288166272	-0.198782
C	 0.0109352483	-2.2323020965	-0.853695616	-0.077021
C	 1.3092222844	-2.5635061036	-0.0686677061	-0.203058
C	 1.3327706143	-1.6953315115	 1.219328404	-0.207544
C	 0.0486307239	-0.839092417	 1.2310726805	 0.005314
O	-1.0814616481	-1.7334035656	 1.2642639159	-0.276456
C	-1.17310936	-2.5378259108	 0.0895121212	-0.055082
H	 0.8438961089	 1.897049881	 0.5787258971	 0.123373
H	-0.0490182637	 1.9505450547	-0.9515771061	 0.121532
H	-0.9141086606	 1.8513634119	 0.5945632525	 0.131507
H	-0.0696915584	-0.3510636103	-2.1375770809	 0.081425
H	-0.0669034978	-2.8347908048	-1.7617743555	 0.062027
H	 1.3225947049	-3.6298779671	 0.1813644206	 0.095217
H	 2.1819341321	-2.3670643487	-0.6969114093	 0.097295
H	 1.3422868033	-2.3201571726	 2.1173190758	 0.10143
H	 2.2158428572	-1.049777661	 1.2576362334	 0.095797
H	-0.0306200436	-0.2418596774	 2.1422927127	 0.066973
H	-2.1296305793	-2.3343744831	-0.4104457531	 0.090872
H	-1.1599879554	-3.5962821778	 0.3875795352	 0.088456
138.4012	175.639	190.3065	273.9	324.5351	380.9255	420.82	485.7544	521.3329	636.1585	670.3393	784.1524	818.7212	829.1821	833.4961	873.4167	889.2701	956.509	970.0562	992.3747	1012.2925	1041.9229	1056.3556	1071.7851	1081.9267	1106.6683	1170.9574	1198.9272	1208.7118	1242.5479	1261.0345	1293.7976	1311.3263	1338.2175	1339.4722	1367.8218	1381.0046	1402.3072	1412.642	1478.7325	1480.3501	1488.2715	1499.9999	1522.9404	1716.5969	2990.5738	3013.3525	3026.5709	3038.5304	3049.8228	3060.4504	3079.2029	3081.8395	3087.3502	3099.8961	3104.5669	3172.1414
CC1=CC2CCC1OC2	CC1=C[C@H]2CC[C@@H]1OC2	
InChI=1S/C8H12O/c1-6-4-7-2-3-8(6)9-5-7/h4,7-8H,2-3,5H2,1H3	InChI=1S/C8H12O/c1-6-4-7-2-3-8(6)9-5-7/h4,7-8H,2-3,5H2,1H3/t7-,8+/m1/s1
