16
gdb 44548	3.50722	1.51785	1.43242	5.6873	67.2	-0.2477	0.0239	0.2716	937.2588	0.12672	-437.881707	-437.875152	-437.874208	-437.912854	26.273	
O	 0.0759450268	 0.2630472425	 0.657163351	-0.332348
C	-0.0316186138	 1.3266637793	 0.1268577985	 0.439541
C	-1.3227579409	 2.1028709366	-0.166722176	-0.374401
C	-0.8647212904	 3.4224357977	-0.7761109047	-0.064342
C	-0.6556201401	 4.630864833	 0.1564328668	-0.059293
N	 0.0675043728	 4.1071994533	 1.3314726126	-0.330833
C	 0.8300158641	 4.4708616897	 0.1174770036	-0.070415
C	 0.6955272706	 3.2834985802	-0.8479086542	 0.094245
O	 1.0575507374	 2.0082362636	-0.3550566764	-0.215645
H	-1.930933856	 1.5037075206	-0.8500045457	 0.134014
H	-1.8746780057	 2.2133281297	 0.7680864998	 0.150127
H	-1.3343067141	 3.676477028	-1.7256558041	 0.088155
H	-1.254954945	 5.5303233055	 0.2153223371	 0.102636
H	 0.1813615705	 4.865585745	 2.0013873248	 0.240076
H	 1.6223544053	 5.2072556081	 0.155586494	 0.101904
H	 1.1580269585	 3.4435334271	-1.8227592374	 0.09658
87.6562	188.272	293.4824	408.8039	505.1804	551.7349	582.2681	647.3683	691.0689	746.1265	815.0019	825.1514	851.3829	875.0079	894.9872	915.2323	973.8439	1005.1476	1028.9652	1063.9251	1092.6506	1102.3443	1110.3387	1137.2559	1168.403	1192.7139	1241.2092	1253.778	1287.0806	1323.9335	1346.6294	1372.8312	1378.8541	1450.3174	1890.2527	3074.5937	3103.8109	3119.8128	3131.4943	3193.0325	3205.9777	3495.8376
O=C1CC2C3NC3C2O1	O=C1C[C@H]2[C@H]3N[C@H]3[C@H]2O1	
InChI=1S/C6H7NO2/c8-3-1-2-4-5(7-4)6(2)9-3/h2,4-7H,1H2	InChI=1S/C6H7NO2/c8-3-1-2-4-5(7-4)6(2)9-3/h2,4-7H,1H2/t2-,4+,5+,6-/m0/s1
