17
gdb 37401	2.89909	2.22532	1.79453	1.8747	69.07	-0.2252	0.0592	0.2844	811.5429	0.140778	-417.921466	-417.915789	-417.914845	-417.951141	25.039	
N	-0.0285134501	 1.4695636723	 0.0398437017	-0.359307
C	 1.2872812007	 0.7828484593	-0.0382780823	-0.025324
C	 0.0280914602	 0.0001684062	-0.0312953912	-0.020608
C	-0.1427142565	-0.7169335568	-1.358663224	 0.042571
O	 1.0338450703	-1.5985021964	-1.4039720026	-0.300245
C	 1.7016366721	-0.5984083355	-2.1679900676	 0.120751
C	 1.9300351951	 0.813054317	-1.4291399678	-0.07338
N	 0.9955937082	 1.4014074022	-2.4260024512	-0.307199
C	 0.411684089	 0.0767590184	-2.6268909116	-0.05178
H	-0.2110537047	 1.7470981667	 1.0003692588	 0.237335
H	 1.9294882171	 0.7918263015	 0.8358462236	 0.090134
H	-0.2507452251	-0.5726845865	 0.8489561001	 0.09672
H	-1.0697732957	-1.2824257677	-1.4720937703	 0.074913
H	 2.511888435	-0.9732032386	-2.7920749961	 0.091258
H	 2.9355382487	 1.239577935	-1.4307416073	 0.067775
H	 0.3685177203	 2.0852878228	-2.0093327407	 0.234251
H	-0.1156395646	-0.1167607597	-3.5625780715	 0.082136
281.5009	343.4959	404.5353	489.5839	560.2875	626.3029	670.1069	717.9206	745.3111	794.9009	814.5219	849.8961	859.7507	902.309	914.0164	954.8745	968.582	1008.1308	1013.526	1031.3322	1056.0412	1073.6482	1115.6485	1118.3307	1154.6129	1176.6401	1200.4608	1228.6402	1242.7929	1255.0197	1303.8577	1315.9961	1331.1333	1338.7219	1380.3403	1402.5452	1440.9466	3077.9184	3085.5933	3097.5828	3127.6146	3142.074	3168.0055	3497.106	3512.0856
N1C2C1C1OC3C2NC13	N1[C@H]2[C@@H]1[C@@H]1O[C@@H]3[C@H]2N[C@H]13	
InChI=1S/C6H8N2O/c7-1-2(7)5-4-6(9-5)3(1)8-4/h1-8H	InChI=1S/C6H8N2O/c7-1-2(7)5-4-6(9-5)3(1)8-4/h1-8H/t1-,2+,3-,4+,5-,6+/m0/s1
