15
gdb 26641	3.41329	1.26938	0.93087	1.3949	78.47	-0.1931	-0.0014	0.1917	1187.0586	0.112646	-416.7977	-416.789063	-416.788119	-416.830526	32.874	
N	-0.0502058181	 1.4099554463	 0.0151981236	-0.604642
C	-0.081028455	 0.0184251554	-0.0092837711	 0.243533
C	-1.1413624714	-0.8367759856	-0.0118854479	 0.077404
N	-2.4934442991	-0.5152198169	-0.0547540241	-0.62572
C	-0.590624647	-2.1752201446	-0.0425951475	 0.116766
C	 0.7691277911	-2.0121455564	-0.0610582039	-0.139791
O	 1.1034282304	-0.7114573277	-0.0506027001	-0.168865
C	-1.3271564854	-3.3790515156	-0.0362026571	 0.205451
C	-1.9969001721	-4.380937542	-0.0186992094	-0.423149
H	 0.5216066093	 1.7797681851	 0.7677987055	 0.245027
H	 0.2673819931	 1.8227410659	-0.856941568	 0.246467
H	-2.6740188553	 0.4287049836	 0.261735291	 0.249681
H	-3.0783932906	-1.1862692647	 0.42540784	 0.249423
H	 1.5776707331	-2.7244487501	-0.0711194597	 0.142309
H	-2.5727396028	-5.2726816428	-0.0159806914	 0.186106
113.3425	125.3227	224.4687	246.6384	277.1286	303.0755	326.4404	407.0559	490.3632	518.7188	542.4623	571.8037	606.6467	662.3746	675.47	717.9869	745.6158	761.0125	771.3909	785.8062	962.3688	1107.875	1199.9088	1211.2738	1212.8931	1297.2305	1315.0667	1453.0061	1577.2328	1632.0044	1654.1943	1727.864	2228.8796	3274.4921	3485.9172	3503.7628	3538.02	3552.2732	3638.3429
NC1=C(N)C(=CO1)C#C	Nc1c(N)c(co1)C#C	
InChI=1S/C6H6N2O/c1-2-4-3-9-6(8)5(4)7/h1,3H,7-8H2	InChI=1S/C6H6N2O/c1-2-4-3-9-6(8)5(4)7/h1,3H,7-8H2
