21
gdb 57803	4.571	0.55986	0.54537	1.6346	89.36	-0.2435	0.0532	0.2968	2129.5354	0.180025	-387.047952	-387.037395	-387.036451	-387.086639	37.064	
C	-0.3270845586	 1.362500541	 0.2273633408	-0.373513
C	 0.0943692707	-0.0970540899	-0.0352875854	-0.121176
C	 0.7986000015	-0.2406471589	-1.399021809	-0.37357
C	 0.9338325206	-0.60570755	 1.0505308217	 0.131867
C	 1.6355882417	-1.003730271	 1.9451043647	 0.003403
C	 2.4707577534	-1.5230425728	 3.0244248268	-0.379238
C	 2.1188899515	-2.9502026832	 3.4097289164	 0.113312
C	 2.3418792313	-3.4540764864	 4.7691466023	-0.182
O	 1.0290385858	-3.1219731016	 4.3112028581	-0.22488
H	 0.5497474839	 2.0168770006	 0.2574493596	 0.121674
H	-0.9913817555	 1.7149789189	-0.5683223296	 0.110477
H	-0.8509692896	 1.4542987882	 1.1822625448	 0.124863
H	-0.8193745322	-0.7072915494	-0.0651185631	 0.105292
H	 1.7134144197	 0.3597124596	-1.4250876994	 0.121635
H	 1.0711778952	-1.281276723	-1.5935531125	 0.121208
H	 0.1406798476	 0.1013712078	-2.2045112194	 0.110726
H	 3.5278949915	-1.4931186906	 2.7254386128	 0.128985
H	 2.3779044925	-0.8918414842	 3.9167990297	 0.13296
H	 2.132153165	-3.6631819623	 2.5847455374	 0.100109
H	 2.5299115788	-4.514208761	 4.9326516294	 0.115318
H	 2.7533905051	-2.7885933619	 5.5276148439	 0.112548
5.7793	52.7328	79.3262	126.5158	168.407	228.8065	264.0868	295.5112	312.9663	363.0272	378.779	495.6244	520.7246	545.2861	714.9914	788.8857	857.1535	884.9463	930.7928	938.8053	958.7394	963.9007	1066.3378	1094.7351	1107.6115	1121.4837	1151.138	1158.3955	1168.8652	1209.3508	1245.6835	1293.551	1320.4809	1325.9973	1350.6704	1394.7603	1416.8637	1438.6882	1454.8913	1485.6434	1489.1037	1498.2613	1510.1599	1530.7052	2365.2724	3003.1327	3010.9739	3034.4938	3038.0696	3052.7874	3080.2967	3104.8772	3109.0263	3110.1294	3117.3362	3119.9275	3166.2773
CC(C)C#CCC1CO1	CC(C)C#CC[C@H]1CO1	
InChI=1S/C8H12O/c1-7(2)4-3-5-8-6-9-8/h7-8H,5-6H2,1-2H3	InChI=1S/C8H12O/c1-7(2)4-3-5-8-6-9-8/h7-8H,5-6H2,1-2H3/t8-/m0/s1
