21
gdb 63186	2.87274	1.3107	1.20159	0.9942	78.	-0.216	0.0736	0.2897	1148.231	0.1827	-424.210953	-424.202041	-424.201097	-424.244393	34.509	
C	-0.3875260673	 1.5264980802	 0.1989215127	-0.454134
C	-0.0769930053	 0.056284623	 0.0584475061	 0.33297
O	-1.0509310305	-0.7933008058	 0.6194757699	-0.46691
C	 0.5357952023	-0.5419259958	-1.1898488639	-0.10776
C	 1.0288517705	 0.2787859204	-2.3738333325	-0.244118
C	 2.5528790554	 0.4371013378	-2.273979879	-0.208323
C	 2.9273939255	 1.080262879	-0.9433110061	-0.052842
O	 2.4480040809	 0.3862455753	 0.2097978672	-0.265967
C	 1.3433263268	-0.4633480263	 0.0932825652	 0.031438
H	 0.3798318501	 2.1610066225	-0.2473323254	 0.125075
H	-1.3496961666	 1.7606336279	-0.2686285191	 0.123498
H	-0.4520792763	 1.7978056548	 1.2596096484	 0.111117
H	-1.0199688	-0.6808013704	 1.576774553	 0.277895
H	 0.1527600517	-1.5298793371	-1.423034238	 0.099777
H	 0.7550792822	-0.2179761914	-3.3086995159	 0.103643
H	 0.5590603095	 1.2690753017	-2.4021501446	 0.102144
H	 3.0325716896	-0.5453425199	-2.3593245641	 0.106448
H	 2.9421078326	 1.0638133269	-3.0838899584	 0.096821
H	 4.0151162768	 1.1339905737	-0.8264044671	 0.104784
H	 2.5483311255	 2.1152455891	-0.9268778984	 0.090993
H	 1.501722567	-1.3864753855	 0.6452920301	 0.09345
59.2066	153.0052	180.2322	226.4492	256.3583	312.1718	337.5565	373.5579	440.9592	460.7764	494.1664	513.3551	690.7486	717.1877	792.2709	828.1564	864.7124	893.6058	931.9661	970.6192	996.8196	1009.4829	1056.9413	1072.506	1078.3969	1113.2234	1145.0436	1156.4363	1211.8868	1236.498	1255.825	1294.6445	1297.181	1331.4603	1337.9923	1366.1171	1377.4697	1414.2702	1417.9524	1445.0174	1479.1261	1482.7615	1499.8472	1502.309	1521.8763	2967.1956	3030.5827	3031.8652	3037.9755	3060.4495	3078.1542	3086.1019	3088.5091	3133.4958	3138.7612	3162.6571	3782.3261
CC1(O)C2CCCOC12	C[C@@]1(O)[C@H]2CCCO[C@@H]12	
InChI=1S/C7H12O2/c1-7(8)5-3-2-4-9-6(5)7/h5-6,8H,2-4H2,1H3	InChI=1S/C7H12O2/c1-7(8)5-3-2-4-9-6(5)7/h5-6,8H,2-4H2,1H3/t5-,6+,7+/m0/s1
