20
gdb 80831	2.53775	1.6624	1.27807	3.6178	78.72	-0.2347	0.0244	0.2592	1065.0263	0.17151	-403.170673	-403.162171	-403.161227	-403.203168	33.436	
C	-0.1655845669	 1.5586396451	-0.027823946	-0.438841
C	-0.0011881179	 0.0454752231	-0.0064487849	 0.01617
C	 1.1448301994	-0.5984820264	-0.8422162049	-0.024631
C	 2.11942132	-0.2396323466	 0.3147788291	-0.280642
C	 0.8409327282	-0.5837705141	 1.1767469894	 0.175173
C	 0.6726364813	-0.2370805886	 2.6324802218	-0.500977
C	 0.7453741233	-2.0750174022	 0.7998211016	 0.401286
O	 0.6530550663	-3.0439847886	 1.5118004302	-0.384247
N	 0.8463056865	-2.0276228063	-0.5921114399	-0.324279
H	 0.7692134456	 2.1028705388	 0.1295794031	 0.119772
H	-0.5785367715	 1.8816134519	-0.9897108161	 0.121644
H	-0.8667465924	 1.875117264	 0.7515202039	 0.126783
H	-0.9712663118	-0.4334101126	-0.1734181259	 0.083147
H	 1.3251516295	-0.3628652095	-1.8902288009	 0.078177
H	 3.0007817074	-0.8749636433	 0.4394546278	 0.102446
H	 2.4056958306	 0.8114825689	 0.3678885577	 0.106757
H	 0.7804443556	 0.8379649303	 2.8057709897	 0.11193
H	-0.3139084827	-0.5466075299	 2.9927414644	 0.130408
H	 1.4172165173	-0.7606143517	 3.24011433	 0.13365
H	 1.3495575321	-2.7614574322	-1.07034529	 0.246273
143.294	167.0191	188.0516	206.4878	252.2125	321.6411	336.307	408.1547	489.515	499.9855	551.104	647.5251	666.708	726.639	791.2254	811.9996	847.3725	877.7605	925.1133	969.2694	1001.9763	1045.7276	1053.722	1091.7869	1097.6941	1112.0446	1141.031	1200.4491	1200.5792	1228.3116	1245.4682	1298.1361	1331.3828	1365.7286	1393.5371	1413.5116	1417.4666	1485.6455	1487.2838	1494.7871	1496.5185	1512.3395	1858.3111	3035.9756	3037.783	3055.4026	3064.1685	3095.8723	3105.3291	3109.658	3113.0726	3126.9037	3133.3543	3606.0554
CC1C2CC1(C)C(=O)N2	C[C@H]1[C@H]2C[C@]1(C)C(=O)N2	
InChI=1S/C7H11NO/c1-4-5-3-7(4,2)6(9)8-5/h4-5H,3H2,1-2H3,(H,8,9)	InChI=1S/C7H11NO/c1-4-5-3-7(4,2)6(9)8-5/h4-5H,3H2,1-2H3,(H,8,9)/t4-,5+,7-/m0/s1
