17
gdb 98774	4.12329	1.04326	1.0352	2.8338	68.78	-0.2442	0.0016	0.2459	1224.6266	0.134755	-458.940164	-458.931654	-458.93071	-458.974309	30.468	
C	-0.331679797	 1.4069674071	-0.1652525426	-0.242009
O	-0.27918645	-0.0219301857	-0.2750780953	-0.237366
C	 0.7590980162	-0.5071841278	-0.9854517635	 0.437925
O	 1.5869832054	 0.1748503414	-1.5306338006	-0.354995
C	 0.7485150222	-2.0247127815	-0.9349804808	 0.010032
O	 1.4400626513	-2.6487724149	-2.0353062465	-0.284721
C	 2.2854228547	-3.362176193	-1.1226052952	 0.111166
C	 3.1280277998	-2.4210746893	-0.3281028209	-0.299741
C	 1.6904833436	-2.6807525555	 0.0863731071	-0.151938
H	 0.5703484687	 1.7891938101	 0.3193599127	 0.141754
H	-0.419372224	 1.8643494896	-1.1537799272	 0.145249
H	-1.2126140404	 1.6267278872	 0.4376287046	 0.134802
H	-0.2797656449	-2.3915687346	-0.8603062314	 0.106307
H	 2.5085395471	-4.3977252715	-1.3479789808	 0.108462
H	 3.8604285558	-2.8895552691	 0.32215683	 0.116638
H	 3.4158770643	-1.4677209678	-0.758433044	 0.150076
H	 1.3966270073	-3.0632468348	 1.0533570745	 0.108357
42.1478	109.7112	128.5441	152.3024	221.6923	299.2927	371.7097	393.8263	470.4879	690.8029	743.2964	770.1804	786.7391	817.3231	925.8989	947.6931	969.349	993.9829	1004.386	1046.2778	1051.153	1055.4058	1092.551	1097.3005	1178.8062	1194.3178	1205.1037	1222.4318	1247.2982	1272.5067	1358.0899	1374.3586	1468.4142	1473.0338	1481.883	1496.8485	1829.4063	3052.9186	3064.3927	3128.0847	3129.1037	3160.8944	3190.9885	3214.4373	3225.1269
COC(=O)C1OC2CC12	COC(=O)[C@H]1O[C@H]2C[C@@H]12	
InChI=1S/C6H8O3/c1-8-6(7)5-3-2-4(3)9-5/h3-5H,2H2,1H3	InChI=1S/C6H8O3/c1-8-6(7)5-3-2-4(3)9-5/h3-5H,2H2,1H3/t3-,4+,5+/m1/s1
