18
gdb 78312	3.04952	1.46844	1.216	1.3743	70.79	-0.2233	0.0622	0.2856	1045.5274	0.148598	-438.997683	-438.990296	-438.989352	-439.028936	30.765	
O	-0.1522230906	 1.370534074	-0.0170838722	-0.434111
C	 0.0246194849	-0.0172115021	-0.0603801574	 0.046195
C	-0.3967372903	-0.752775056	 1.1949155133	-0.059256
C	-1.2766482908	-0.7663767172	-0.0441917438	-0.086436
C	-1.2652427705	-2.2867622091	-0.2745051323	 0.35988
O	-2.0040422382	-2.6974148714	-1.3761633863	-0.479894
C	-1.4774485059	-2.7620200789	 1.2150987343	-0.222768
N	-0.0794693723	-2.1955271167	 1.4307702487	-0.149186
C	 0.1998778991	-2.6983121362	 0.0255453205	-0.254531
H	 0.5891472399	 1.7480184603	 0.4683856752	 0.289107
H	 0.8626127778	-0.3384201139	-0.673954768	 0.093094
H	-0.6162383082	-0.1734593163	 2.0835556248	 0.09915
H	-2.2084570385	-0.2239277898	-0.1441898057	 0.106883
H	-1.9630345933	-3.6577723125	-1.4316044766	 0.282825
H	-2.2620591251	-2.2911233409	 1.8115789086	 0.105548
H	-1.4765803165	-3.8479944259	 1.3503997261	 0.095283
H	 0.333438489	-3.7828403232	 0.0599256251	 0.098623
H	 1.0434440695	-2.2514902241	-0.4987544243	 0.109595
208.86	251.6469	280.2436	301.3949	331.4927	385.5938	412.6204	454.8427	529.8059	601.2498	623.7426	673.6032	807.8381	831.8732	866.4396	887.9812	934.1125	944.7464	954.3791	992.9869	1008.9191	1047.5304	1067.9459	1084.8453	1105.3863	1127.582	1136.9256	1186.4165	1197.8299	1213.2471	1227.8476	1244.1374	1289.9359	1298.4011	1323.2238	1392.3685	1443.5283	1500.7962	1547.6779	3051.3283	3070.7488	3115.3918	3124.5592	3144.8112	3184.7125	3197.2872	3804.6766	3813.5539
OC1C2C1C1(O)CN2C1	O[C@H]1[C@H]2[C@@H]1[C@]1(O)CN2C1	
InChI=1S/C6H9NO2/c8-5-3-4(5)7-1-6(3,9)2-7/h3-5,8-9H,1-2H2	InChI=1S/C6H9NO2/c8-5-3-4(5)7-1-6(3,9)2-7/h3-5,8-9H,1-2H2/t3-,4+,5+/m0/s1
