22
gdb 52326	4.14043	0.75409	0.69305	3.7262	83.76	-0.2484	0.034	0.2824	1672.0089	0.196037	-404.395861	-404.386307	-404.385363	-404.43293	34.217	
O	 0.1492324725	 0.7044627425	-1.269922222	-0.323627
C	 0.0665824538	 1.4072684385	-0.2847419214	 0.154274
N	 1.0443325547	 1.5838633893	 0.6435315802	-0.275719
C	 2.3554940672	 0.9582447751	 0.5515427571	-0.192879
C	 3.486134126	 1.945113795	 0.2512896787	 0.051459
C	 3.73623258	 3.0128344335	 1.3317931126	-0.213875
C	 5.1233207982	 3.5648581055	 0.9678768976	-0.199836
C	 5.9248113056	 2.3240387247	 0.4987948233	-0.204458
C	 4.8632857376	 1.2568748784	 0.1035519142	-0.216632
H	-0.8439121308	 1.9879621693	-0.0332380984	 0.070182
H	 0.858671475	 2.2126021497	 1.408378217	 0.246727
H	 2.570020238	 0.4280012651	 1.4896288868	 0.101336
H	 2.2766114713	 0.2124760191	-0.2429324318	 0.146236
H	 3.2404528043	 2.4598854558	-0.6870351303	 0.083488
H	 2.9641287617	 3.7882529694	 1.3643890762	 0.088056
H	 3.7674655244	 2.5350424117	 2.3219004707	 0.088883
H	 5.0228779111	 4.282105771	 0.1451011517	 0.100731
H	 5.6051078779	 4.0939641141	 1.7947275249	 0.093932
H	 6.5896841266	 2.5686610415	-0.3338632587	 0.100742
H	 6.5619217951	 1.9479473409	 1.3048786088	 0.100274
H	 4.9188113162	 0.3975477149	 0.7828187288	 0.095569
H	 5.0133313034	 0.8651381952	-0.9060804958	 0.105136
21.0993	29.1287	72.147	150.4793	180.9267	253.4059	286.0435	399.6897	417.9148	534.5228	576.5792	625.2004	745.0569	774.6029	821.5863	877.1094	895.7887	912.6397	942.9136	983.1979	998.9575	1012.2612	1032.382	1040.504	1098.1247	1122.9976	1194.2939	1204.2942	1214.5297	1222.0215	1271.5432	1283.935	1297.9931	1318.7643	1324.7848	1343.9655	1354.3373	1382.5042	1400.709	1432.0732	1479.1661	1487.7571	1493.7258	1495.9612	1518.0161	1534.1092	1806.706	2927.945	3002.6933	3008.0241	3021.9418	3033.7005	3037.384	3055.1334	3074.4459	3078.2352	3089.4896	3103.882	3113.2312	3637.8588
O=CNCC1CCCC1	O=CNCC1CCCC1	
InChI=1S/C7H13NO/c9-6-8-5-7-3-1-2-4-7/h6-7H,1-5H2,(H,8,9)	InChI=1S/C7H13NO/c9-6-8-5-7-3-1-2-4-7/h6-7H,1-5H2,(H,8,9)
