18
gdb 28886	2.30174	1.79678	1.01652	1.4968	84.23	-0.1864	0.0172	0.2036	1148.6133	0.148701	-402.024752	-402.0161	-402.015156	-402.057363	33.801	
C	 0.0440116165	 1.5072315628	-0.0335264232	-0.537687
C	 0.0389041576	-0.0021516405	-0.002954653	 0.223481
C	 0.1033773946	-0.7227818717	-1.1960680905	 0.232406
O	 0.1681559457	-0.1180851054	-2.4299819352	-0.461634
C	 0.1003871398	-2.128354486	-1.2114741684	 0.24467
N	 0.2263686547	-2.7968424548	-2.4312819628	-0.59317
C	 0.0238819625	-2.8027593404	 0.0085872903	-0.20643
C	-0.0423952976	-2.0976461108	 1.2067086887	-0.10448
C	-0.0332793804	-0.7081111835	 1.2025603764	-0.226249
H	 0.9540806805	 1.9090756961	-0.4994080105	 0.129536
H	-0.8141483225	 1.9151471248	-0.5859807162	 0.125722
H	-0.0060819957	 1.9152048734	 0.9784292249	 0.134655
H	 0.1166951418	 0.8353267881	-2.3193335703	 0.295917
H	-0.0498074488	-2.2374446419	-3.2255539852	 0.255721
H	-0.1954569192	-3.7138735082	-2.4483349766	 0.242163
H	 0.0211571472	-3.8888319426	 0.0089362717	 0.079156
H	-0.1010288956	-2.6385581587	 2.1450039211	 0.085793
H	-0.0833234712	-0.1563339907	 2.135570899	 0.080429
133.4972	151.4445	222.4026	269.8246	291.41	296.5648	327.5919	332.4954	492.1585	499.8985	527.9577	560.8957	567.4408	646.3684	693.0034	741.1715	778.9786	836.1989	862.5739	920.4936	947.4726	1025.0865	1054.7544	1093.5391	1138.138	1185.188	1221.9151	1271.9937	1311.0164	1350.2955	1380.9582	1412.0493	1487.57	1488.7524	1516.3002	1531.8167	1626.9737	1646.1261	1663.2779	3001.6427	3045.3187	3117.6484	3163.856	3173.548	3193.6235	3561.121	3664.0354	3845.8791
CC1=C(O)C(N)=CC=C1	Cc1c(O)c(N)ccc1	
InChI=1S/C7H9NO/c1-5-3-2-4-6(8)7(5)9/h2-4,9H,8H2,1H3	InChI=1S/C7H9NO/c1-5-3-2-4-6(8)7(5)9/h2-4,9H,8H2,1H3
