16
gdb 125593	3.21895	1.37884	0.97143	3.1969	78.11	-0.2074	-0.0297	0.1777	1165.965	0.126147	-434.128124	-434.119921	-434.118977	-434.160611	31.25	
C	-0.010917471	 1.5102558377	-0.0570905437	-0.47332
C	-0.0046088695	 0.0064540472	-0.0058167681	 0.360803
N	-0.0253931344	-0.6174043695	-1.154674244	-0.288195
N	-0.0169195981	-1.9731268366	-1.0847319555	-0.286664
C	 0.0094013369	-2.7836417884	 0.0197407279	 0.401709
O	 0.0313559404	-4.009646966	-0.0445247743	-0.418347
C	 0.0189224192	-2.0392249729	 1.2895909722	 0.27113
N	 0.0017370092	-2.8379519354	 2.38500224	-0.576339
C	 0.0214419654	-0.6711609046	 1.2489768978	-0.289079
H	 0.8782768339	 1.9244156843	 0.4315979893	 0.129668
H	-0.0305295655	 1.8464552915	-1.0946003238	 0.142502
H	-0.8851090734	 1.9181598763	 0.4628378194	 0.130735
H	-0.0222064606	-2.4405201127	-1.9809212747	 0.270095
H	 0.154742939	-3.8185726467	 2.1974615427	 0.276604
H	 0.2367618907	-2.4749522094	 3.2917297824	 0.260001
H	 0.0372848078	-0.0882823147	 2.1650254924	 0.088699
120.4592	145.5884	191.9537	279.1705	298.0411	337.8872	366.1285	447.635	470.6074	522.1525	548.7449	589.9855	631.6288	724.0753	734.544	794.9274	803.5967	876.4265	983.4118	1000.6176	1062.1899	1095.1625	1198.7648	1233.6219	1291.9137	1385.7245	1410.7742	1446.9742	1460.4663	1481.7573	1482.7019	1575.9245	1619.0431	1672.6193	1753.6415	3033.0959	3085.011	3144.6208	3167.3629	3575.5316	3605.7324	3721.9075
CC1=NNC(=O)C(N)=C1	Cc1n[nH]c(=O)c(N)c1	
InChI=1S/C5H7N3O/c1-3-2-4(6)5(9)8-7-3/h2H,1H3,(H2,6,7)(H,8,9)	InChI=1S/C5H7N3O/c1-3-2-4(6)5(9)8-7-3/h2H,1H3,(H2,6,7)(H,8,9)
