19
gdb 86229	2.57995	1.33527	1.08935	1.616	76.99	-0.2525	0.0381	0.2906	1181.4591	0.15769	-422.996208	-422.98696	-422.986015	-423.030346	34.812	
C	 0.5214090868	 1.3853338486	-0.1735916075	-0.394074
C	 0.0858143412	-0.026397078	 0.1986590736	 0.149515
C	 0.1338470628	-1.0406495781	-0.9683646421	-0.266195
C	 1.4219495668	-1.8251752347	-0.7197281498	 0.116328
O	 2.4923140108	-1.0926511849	-1.2929418471	-0.433722
C	 1.4824843634	-1.8080467125	 0.8287495806	-0.119447
O	 0.9929441174	-0.5297964399	 1.2021526896	-0.265179
C	 0.7011599486	-2.9030534492	 1.4170147628	 0.340561
C	 0.052594483	-3.804037335	 1.8785112542	-0.470427
H	 1.501701496	 1.3594004016	-0.6561501837	 0.136777
H	-0.2005857752	 1.841176101	-0.8595055644	 0.107243
H	 0.585088528	 2.0099135328	 0.7220050888	 0.121096
H	-0.9200564669	 0.000807952	 0.6369953753	 0.077197
H	-0.720337525	-1.7207204917	-0.930928086	 0.116299
H	 0.1549126689	-0.5590400961	-1.947614211	 0.118963
H	 1.3827350261	-2.8490022139	-1.1112223781	 0.081986
H	 3.3183211093	-1.5357263384	-1.0735946847	 0.284481
H	 2.5202796302	-1.8755333879	 1.1796895685	 0.099097
H	-0.5160317422	-4.5959727557	 2.2999995708	 0.199502
50.0504	111.9325	148.4024	211.113	257.5655	296.6427	334.7101	357.8392	388.2993	402.3357	509.873	555.2611	640.7214	668.5581	720.5153	795.7583	807.152	866.443	905.4836	940.5166	975.9288	993.2358	1023.5882	1045.3476	1100.3477	1129.796	1151.666	1197.8898	1220.3817	1273.2211	1319.5021	1321.2187	1333.5171	1374.7542	1386.6552	1407.1503	1423.2166	1477.5282	1489.0249	1501.2211	2229.3473	3013.3237	3024.6236	3031.2104	3039.0865	3077.8448	3109.5884	3128.6444	3131.8541	3502.1208	3815.7617
CC1CC(O)C(O1)C#C	C[C@H]1C[C@@H](O)[C@@H](O1)C#C	
InChI=1S/C7H10O2/c1-3-7-6(8)4-5(2)9-7/h1,5-8H,4H2,2H3	InChI=1S/C7H10O2/c1-3-7-6(8)4-5(2)9-7/h1,5-8H,4H2,2H3/t5-,6+,7-/m0/s1
