21
gdb 105000	2.34824	1.27603	1.02266	5.4261	82.21	-0.2537	0.0401	0.2938	1272.4315	0.181822	-383.266192	-383.256201	-383.255257	-383.301194	36.763	
C	 0.0465630755	 1.2881055222	 0.6886377113	-0.389394
C	 0.0194535676	-0.141951718	 0.1316563733	-0.270029
C	-1.3598703352	-0.7882176846	 0.1296287296	 0.334253
C	-1.4443954822	-2.2577798531	 0.3348588838	-0.289108
N	-1.8681905559	-1.3268029011	 1.3990219359	-0.338182
C	-2.4253790468	-0.070838305	-0.7184652092	-0.200084
C	-2.0307338947	 0.0492715827	-2.2064533576	-0.399466
C	-3.7342556337	-0.7263276529	-0.6174088472	 0.291996
N	-4.7724216169	-1.2334737498	-0.6021288138	-0.339602
H	 1.0746694589	 1.6561074765	 0.7513448256	 0.121851
H	-0.5099727793	 1.985615195	 0.0547826075	 0.123959
H	-0.3880764216	 1.332761228	 1.6925971406	 0.127444
H	 0.4411710312	-0.1511855059	-0.8802550272	 0.11034
H	 0.6800707415	-0.7770794709	 0.7343887077	 0.09815
H	-2.2537222557	-2.8302195823	-0.1084386501	 0.141467
H	-0.512496384	-2.8036740627	 0.4572576441	 0.110458
H	-1.1514568974	-1.2646363529	 2.1184316258	 0.229557
H	-2.5546747014	 0.9382418074	-0.3069444043	 0.129922
H	-1.8338732694	-0.9377978834	-2.633806966	 0.138338
H	-2.8356057463	 0.5153850405	-2.779071117	 0.141058
H	-1.1335846642	 0.6622186603	-2.3198046729	 0.127073
51.3155	92.3085	154.1832	187.7529	203.8386	233.1303	247.12	286.1573	358.4854	384.7459	411.5045	489.0127	562.8815	583.97	692.1066	776.4569	838.6243	872.0774	902.7123	919.9235	975.2144	996.6037	1023.506	1041.286	1085.052	1102.6166	1114.51	1135.8828	1164.4181	1245.3405	1270.229	1280.6187	1317.8061	1346.2995	1374.3618	1401.1146	1412.0214	1413.443	1481.2766	1496.5738	1500.8459	1501.1408	1509.3278	1512.2807	2359.9385	3029.1483	3033.1593	3039.1098	3053.0606	3061.6834	3106.4717	3110.9725	3111.6217	3129.6485	3133.326	3199.2044	3493.1138
CCC1(CN1)C(C)C#N	CC[C@]1(CN1)[C@@H](C)C#N	
InChI=1S/C7H12N2/c1-3-7(5-9-7)6(2)4-8/h6,9H,3,5H2,1-2H3	InChI=1S/C7H12N2/c1-3-7(5-9-7)6(2)4-8/h6,9H,3,5H2,1-2H3/t6-,7-/m0/s1
