18
gdb 88027	2.34225	1.36479	1.09823	4.3845	76.22	-0.2737	-0.0026	0.2711	1176.0126	0.146751	-401.924517	-401.915704	-401.91476	-401.958438	32.136	
C	-0.0978692865	 1.4863907543	-0.0840323578	-0.411659
C	 0.097896582	-0.0132393653	-0.0697886149	-0.057716
C	 1.4816816145	-0.6175203661	-0.168922193	-0.353557
C	 0.7157665344	-0.6888888012	 1.1160643994	 0.271441
C	 1.0492196365	-0.1217272315	 2.4917585198	-0.140687
O	 0.5457381294	-1.3254243113	 3.1298674473	-0.279876
C	 0.2333794408	-1.9391394556	 1.8658430294	-0.076619
C	-1.1886067811	-2.274080422	 1.7246872117	 0.288409
N	-2.3053805194	-2.5316314356	 1.5757689384	-0.328408
H	 0.7231837984	 2.0010306341	 0.4266095187	 0.116259
H	-0.1360634191	 1.8645385495	-1.110650255	 0.128377
H	-1.0315121984	 1.7700770276	 0.4128410263	 0.132251
H	-0.6950832378	-0.5791870441	-0.5535607518	 0.110762
H	 1.6124352509	-1.531446711	-0.7398498039	 0.122839
H	 2.3321918483	 0.0575606639	-0.2055677582	 0.119641
H	 2.1134611889	 0.0296961205	 2.7072841966	 0.113523
H	 0.4833275945	 0.7647221381	 2.8014041782	 0.11992
H	 0.8283795139	-2.8464792343	 1.6977822988	 0.125101
66.7613	96.3539	166.3205	187.5243	203.1209	252.7623	340.0532	402.4041	434.4643	517.2383	550.9603	603.6454	784.5388	831.7088	875.8792	894.2576	928.2901	964.25	1007.3964	1024.8783	1035.5106	1056.3992	1092.6109	1118.3831	1130.4787	1154.3963	1183.9224	1218.3486	1241.6261	1313.6396	1349.4509	1366.149	1413.6332	1435.8113	1489.7785	1491.8946	1509.026	1523.8973	2354.5668	3018.4444	3024.6412	3031.8027	3068.144	3096.8426	3100.9831	3119.4953	3138.8258	3204.93
CC1CC11COC1C#N	C[C@H]1C[C@]21CO[C@H]2C#N	
InChI=1S/C7H9NO/c1-5-2-7(5)4-9-6(7)3-8/h5-6H,2,4H2,1H3	InChI=1S/C7H9NO/c1-5-2-7(5)4-9-6(7)3-8/h5-6H,2,4H2,1H3/t5-,6-,7+/m0/s1
