21
gdb 82312	2.45467	1.77776	1.29967	1.3473	81.04	-0.2169	0.0859	0.3028	1060.8141	0.183007	-387.066535	-387.058476	-387.057531	-387.098658	32.981	
C	-0.7020571498	 1.1968366227	 0.0184336803	-0.406364
C	-0.0198455199	-0.1571641484	-0.1764501857	-0.063804
C	 1.0799142223	-0.1884225547	-1.2336126897	-0.083112
C	 2.4330085619	 0.3960776293	-0.8529118281	-0.32983
C	 2.150482547	-1.072482139	-0.6711157833	 0.0971
O	 1.7768271026	-1.5323185413	 0.6045942208	-0.29595
C	 0.7078557409	-0.7191091771	 1.0557139784	 0.43492
C	 0.9391427133	 0.0518704274	 2.3323888157	-0.323843
C	 0.0402574565	-1.1725516103	 2.3090716693	-0.343044
H	 0.0256355454	 1.9789075905	 0.2541254641	 0.121495
H	-1.2277850041	 1.4931137187	-0.8944899899	 0.114761
H	-1.4417334265	 1.1641098942	 0.826069124	 0.114687
H	-0.7808447142	-0.8891980349	-0.48095881	 0.080651
H	 0.7928407662	-0.2210359641	-2.2783475021	 0.08634
H	 3.093191588	 0.6768582099	-1.6666301793	 0.109586
H	 2.5114427987	 1.0235511685	 0.0280808647	 0.123544
H	 2.6855803164	-1.828102973	-1.233173238	 0.098221
H	 1.9159030148	-0.0616732979	 2.7889409909	 0.118818
H	 0.4823040002	 1.0263206621	 2.4635005408	 0.110362
H	-1.0315309541	-1.0273389903	 2.4008155512	 0.111516
H	 0.4156587945	-2.0832593422	 2.7618962559	 0.123945
96.0304	200.3738	237.0712	265.9753	272.7572	353.538	423.9949	446.6832	494.6508	571.0357	663.5477	728.5476	755.519	776.1313	809.9088	878.1403	882.7757	888.9655	946.4398	970.7808	978.7722	1000.6277	1024.5695	1049.7828	1051.9226	1073.7543	1082.8924	1094.9196	1124.1124	1142.3067	1164.4322	1192.3027	1197.6408	1224.57	1300.6731	1339.6243	1356.7141	1374.9303	1387.963	1413.6214	1448.641	1473.5348	1494.9613	1497.8352	1505.1589	3003.9613	3033.3414	3096.9297	3111.5355	3129.2562	3133.0508	3136.9025	3171.2099	3189.0172	3215.0172	3221.1213	3230.4803
CC1C2CC2OC11CC1	C[C@H]1[C@H]2C[C@H]2OC21CC2	
InChI=1S/C8H12O/c1-5-6-4-7(6)9-8(5)2-3-8/h5-7H,2-4H2,1H3	InChI=1S/C8H12O/c1-5-6-4-7(6)9-8(5)2-3-8/h5-7H,2-4H2,1H3/t5-,6+,7+/m0/s1
