19
gdb 14233	4.77658	1.71899	1.50672	1.6289	74.99	-0.2351	0.0922	0.3274	917.0642	0.1661	-327.881376	-327.874007	-327.873063	-327.912384	29.107	
C	-0.0546163745	 1.4742767013	 0.0029321518	-0.4118
C	 0.0239850524	-0.0488683438	 0.0293680366	 0.009869
C	 0.8488423336	-0.6374889409	-1.1059397617	-0.082517
N	 2.1363200612	-0.5679626391	-0.3202391887	-0.198748
C	 1.1670120153	-0.6035310479	 0.9091010648	-0.008392
C	 1.0942607594	-2.1354280796	 0.8009012762	-0.295718
C	 1.5084223739	-1.9005145984	-0.6452864392	 0.332006
C	 2.1535885992	-2.8774378929	-1.5790625636	-0.496653
H	 0.9356106467	 1.912178425	-0.1563433163	 0.134307
H	-0.7120135512	 1.8215179692	-0.801436157	 0.112785
H	-0.4524723855	 1.8602163163	 0.9476907631	 0.112045
H	-0.9694445383	-0.4822436104	 0.2039760245	 0.063331
H	 0.8231542606	-0.3594931236	-2.1553965676	 0.08472
H	 1.4588780151	-0.1047674052	 1.8326240461	 0.076738
H	 1.9017619463	-2.6209105357	 1.3568904018	 0.104794
H	 0.1419269255	-2.6311757509	 1.0214295923	 0.090843
H	 1.4316890001	-3.6273916749	-1.9222277052	 0.12026
H	 2.5544743776	-2.3645054853	-2.4587560823	 0.128599
H	 2.9807877726	-3.4011114631	-1.0882612057	 0.12353
177.4067	192.298	224.4625	245.8823	300.2369	341.5022	431.3649	494.0188	616.2645	750.0743	765.5596	800.0144	811.1389	873.7103	920.1237	945.1838	976.3438	996.4897	1005.1887	1030.0715	1054.3148	1077.6217	1099.4987	1123.0666	1154.0984	1189.8064	1223.0681	1243.8084	1273.8486	1277.2608	1317.3408	1372.0509	1405.9252	1409.1109	1430.1707	1483.1576	1493.6083	1496.5259	1500.5049	1502.2083	3012.9023	3028.3083	3030.9145	3033.1719	3091.549	3093.3902	3094.1357	3107.2198	3110.5432	3123.5705	3159.4598
CC1C2N3C1CC23C	C[C@H]1[C@H]2N3[C@@H]1C[C@@]23C	
InChI=1S/C7H11N/c1-4-5-3-7(2)6(4)8(5)7/h4-6H,3H2,1-2H3	InChI=1S/C7H11N/c1-4-5-3-7(2)6(4)8(5)7/h4-6H,3H2,1-2H3/t4-,5-,6-,7+,8?/m1/s1
