21
gdb 116322	2.98948	1.30359	1.00924	2.1974	78.6	-0.2538	0.0838	0.3376	1243.0064	0.18333	-424.220216	-424.211664	-424.210719	-424.253478	32.781	
C	-0.0589831852	 1.5262702653	-0.0052981959	-0.38766
C	 0.0098384502	-0.002034015	 0.0239702917	-0.186509
C	 0.7368692745	-0.5507696131	 1.2518196939	 0.102777
O	 0.0376494506	-0.1012266985	 2.4015268209	-0.255845
C	 0.5530342824	-0.6276135591	 3.6095622562	-0.075016
C	 0.2760988283	-2.1301006956	 3.7333778992	-0.238511
C	 0.6236589868	-2.8484635866	 2.441101644	 0.039699
O	-0.3643103731	-2.7930353725	 1.4029057876	-0.249297
C	 0.8474393402	-2.0652143933	 1.214946835	 0.026538
H	 0.9436465108	 1.968232532	-0.0321101888	 0.107505
H	-0.6008177211	 1.8757809616	-0.8892338597	 0.109888
H	-0.5690208895	 1.9063244078	 0.8828796317	 0.136235
H	-0.9976321092	-0.4318892318	 0.0165120137	 0.121241
H	 0.5227123415	-0.3754616641	-0.8710651246	 0.092309
H	 1.7704909668	-0.1535296467	 1.2760885399	 0.059153
H	 1.6391583083	-0.4421227231	 3.6680515398	 0.085943
H	 0.0747899349	-0.0695174981	 4.4194687265	 0.108187
H	 0.8606980747	-2.5453506868	 4.5619087168	 0.099069
H	-0.7816680965	-2.3044365303	 3.9571881984	 0.124131
H	 1.1031055716	-3.8227712898	 2.5329411943	 0.091453
H	 1.505587213	-2.4584790823	 0.4380803996	 0.08871
88.0157	112.2561	168.2515	208.3283	280.3463	293.3457	370.0314	394.7644	453.1031	491.7359	616.8028	727.543	766.4845	789.8597	824.3618	882.0183	896.0716	935.4611	967.625	981.4838	1031.494	1055.8317	1061.1338	1105.5378	1118.6522	1135.5519	1161.4123	1184.5939	1251.8488	1279.6181	1282.4296	1307.505	1321.7826	1360.0227	1361.2904	1376.6813	1398.272	1407.7514	1424.5427	1463.4164	1472.6152	1479.7266	1496.4439	1501.0724	1508.9778	2915.6826	2961.7693	3033.8573	3036.4086	3041.844	3077.6943	3081.629	3090.5082	3093.6145	3102.0352	3112.823	3128.5513
CCC1OCCC2OC12	CC[C@H]1OCC[C@H]2O[C@@H]12	
InChI=1S/C7H12O2/c1-2-5-7-6(9-7)3-4-8-5/h5-7H,2-4H2,1H3	InChI=1S/C7H12O2/c1-2-5-7-6(9-7)3-4-8-5/h5-7H,2-4H2,1H3/t5-,6-,7+/m1/s1
