17
gdb 77310	2.58386	1.48743	1.12951	4.6613	74.08	-0.2208	0.0155	0.2363	1098.9549	0.137652	-414.214054	-414.205213	-414.204269	-414.247809	32.067	
C	-0.0870204109	 1.3722293998	 0.1226761816	-0.343109
N	-0.0113350328	-0.0368245835	-0.2276040223	-0.106124
C	-1.1737677955	-0.8983778955	 0.008390608	-0.153646
C	-0.5159203107	-2.3206165143	-0.0403926161	-0.178174
N	 0.9143397032	-2.0999074438	 0.1404869594	-0.323691
C	 1.1079150743	-0.8374491756	 0.0407907474	 0.431156
N	 2.3361764638	-0.2318807813	 0.1936068637	-0.581361
C	-1.821257961	-0.6260423557	 1.3075309235	 0.276148
N	-2.3324457496	-0.4030169354	 2.3201529169	-0.328075
H	 0.809083683	 1.8936535786	-0.2192946796	 0.126082
H	-0.9411201674	 1.8238531459	-0.3900311897	 0.138427
H	-0.1994738957	 1.5417802719	 1.202231809	 0.148558
H	-1.9296651188	-0.7601190364	-0.7714284142	 0.128041
H	-0.9275607829	-2.9804931016	 0.7275473032	 0.129774
H	-0.7123156751	-2.7837800906	-1.0160157465	 0.11285
H	 3.0878237538	-0.9067167349	 0.1694326754	 0.267695
H	 2.5112043723	 0.5647941724	-0.4009193696	 0.255451
61.4129	125.4838	145.3987	182.3409	248.4017	282.5484	325.3736	355.3397	431.9227	478.532	582.0461	617.9046	664.2374	734.0564	753.3932	801.524	835.938	980.0714	1002.0393	1018.1288	1066.2357	1148.5734	1159.8496	1201.9122	1215.5211	1260.3802	1290.7081	1330.8917	1353.0804	1433.0901	1485.9661	1488.6593	1504.342	1515.7144	1626.9711	1731.0565	2347.5269	3013.5842	3018.9802	3056.2566	3087.8835	3090.8352	3127.5709	3569.0269	3671.4632
CN1C(CN=C1N)C#N	CN1[C@@H](C[N][C]1N)C#N	
InChI=1S/C5H8N4/c1-9-4(2-6)3-8-5(9)7/h4H,3H2,1H3,(H2,7,8)	InChI=1S/C5H8N4/c1-9-4(2-6)3-8-5(9)7/h4H,3H2,1H3,(H2,7,8)/t4-/m1/s1
