19
gdb 57369	2.09989	1.59785	1.22953	5.0462	75.45	-0.2668	0.0223	0.2891	1105.4321	0.157137	-419.199179	-419.189341	-419.188397	-419.233221	36.763	
C	-0.3068477367	 1.4745726167	-0.1628794528	-0.4339
C	 0.0191516143	-0.0168766574	-0.0063515975	 0.245382
C	 0.8655551928	-0.2817134667	 1.2446039264	-0.421455
O	-1.1919791538	-0.7768614551	 0.0455883589	-0.474474
C	 0.7435995549	-0.5372811587	-1.2661444093	 0.187526
C	 0.6117421176	-1.9703269756	-1.6667391358	-0.27164
N	-0.046078953	-0.9204065628	-2.4520165578	-0.351887
C	 1.9863924828	 0.1464518593	-1.5609041562	 0.273112
N	 2.9877015876	 0.6911057332	-1.7548693741	-0.353866
H	 0.6029272614	 2.0729762581	-0.2583619326	 0.151356
H	-0.9257217564	 1.6413371793	-1.0488531995	 0.133137
H	-0.8532575823	 1.834643538	 0.7162460596	 0.109521
H	 0.3524434309	 0.0960971047	 2.135688064	 0.110183
H	 1.0308564138	-1.3548559735	 1.369518042	 0.129498
H	 1.836161917	 0.2179777229	 1.1793544942	 0.146565
H	-1.7499652706	-0.3986846089	 0.7319536455	 0.289675
H	 1.4457505696	-2.4595126675	-2.1595897325	 0.137442
H	 0.0011088667	-2.5954899085	-1.0244304611	 0.141478
H	-1.0253025066	-0.8795779274	-2.1722574915	 0.252346
75.9677	148.9584	186.775	201.9475	229.5266	257.0905	262.9351	299.8617	319.5068	386.2531	396.8278	472.716	489.1985	572.8174	609.3034	618.0635	828.1345	886.872	906.6017	928.7915	940.0614	977.9707	1007.0578	1018.9179	1079.8199	1125.8346	1147.2644	1212.1497	1216.1268	1266.4607	1304.7181	1351.4175	1380.6875	1402.2974	1421.0137	1478.1996	1484.9503	1495.7234	1498.9438	1508.2742	2355.4329	3034.1899	3039.8755	3104.8568	3110.3723	3127.802	3128.2636	3130.8868	3225.3714	3489.0397	3832.8434
CC(C)(O)C1(CN1)C#N	CC(C)(O)[C@]1(CN1)C#N	
InChI=1S/C6H10N2O/c1-5(2,9)6(3-7)4-8-6/h8-9H,4H2,1-2H3	InChI=1S/C6H10N2O/c1-5(2,9)6(3-7)4-8-6/h8-9H,4H2,1-2H3/t6-/m1/s1
