19
gdb 55857	3.10406	0.96252	0.926	3.1378	73.49	-0.258	0.0151	0.2731	1377.0625	0.155022	-460.183716	-460.173386	-460.172441	-460.220765	36.57	
C	-0.0697464558	 1.3866788875	-0.1842445976	-0.481462
C	 0.1549629946	-0.1003668037	-0.0561107247	 0.42664
O	 0.6975094215	-0.6551329313	 0.8621718004	-0.340417
O	-0.361744457	-0.7458307888	-1.1346120929	-0.245863
C	-0.2246917273	-2.1535053329	-1.1533451711	 0.102033
C	-0.8519962587	-2.8509444408	-2.3276381378	-0.392165
C	 0.6618291198	-2.7808130019	-2.1854092295	 0.361399
C	 1.4720849565	-1.9272228813	-3.1317417286	-0.451674
O	 1.3139194366	-3.9312290298	-1.7178735182	-0.458387
H	 0.4113191599	 1.762398282	-1.0918080357	 0.148693
H	-1.1390353898	 1.5987430812	-0.2715213423	 0.15084
H	 0.3403465958	 1.890777799	 0.6898056063	 0.149533
H	-0.2512253549	-2.6121935729	-0.1733494942	 0.136891
H	-1.3409453255	-3.7997488739	-2.1374999964	 0.1202
H	-1.3166359975	-2.227019299	-3.0836536524	 0.121832
H	 0.9492987861	-0.9998730967	-3.3762620032	 0.126621
H	 2.4354565801	-1.6753245044	-2.6772553049	 0.132854
H	 1.6674093039	-2.4644947161	-4.0673997918	 0.110225
H	 1.3831604116	-4.5506670962	-2.4533074654	 0.282207
18.1143	51.8203	90.3554	126.5297	207.6645	240.734	273.7505	307.8581	335.8286	395.157	405.9166	473.0405	517.4209	606.2092	641.3612	721.9678	819.341	878.2703	909.2194	940.0324	986.1701	999.1735	1039.8575	1062.4441	1067.6021	1094.4425	1113.8149	1159.6597	1233.7205	1259.2533	1300.2286	1346.8445	1392.6895	1405.9919	1414.5424	1469.3728	1475.9304	1476.9802	1486.0623	1511.0094	1834.512	3030.466	3056.8659	3094.3301	3121.4999	3128.4246	3134.2003	3169.6292	3203.3455	3228.9718	3788.2096
CC(=O)OC1CC1(C)O	CC(=O)O[C@H]1C[C@]1(C)O	
InChI=1S/C6H10O3/c1-4(7)9-5-3-6(5,2)8/h5,8H,3H2,1-2H3	InChI=1S/C6H10O3/c1-4(7)9-5-3-6(5,2)8/h5,8H,3H2,1-2H3/t5-,6-/m0/s1
