19
gdb 92689	2.96041	1.34022	0.96215	4.4129	79.27	-0.2599	-0.0372	0.2227	1244.128	0.158952	-423.090853	-423.082014	-423.081069	-423.124222	33.128	
C	-0.0727496309	 1.4996532394	 0.0914810015	-0.401463
C	-0.0107250962	-0.009582546	-0.0704695754	 0.131554
C	 0.8386009123	-0.4778548548	-1.2474700808	-0.273909
C	 1.029404564	-1.9646041055	-1.1735798006	-0.159408
C	 0.9675887582	-2.6214774874	-0.0096142775	 0.156707
C	 1.1510343418	-4.1037887213	 0.1442204117	-0.473369
C	 0.8142611537	-1.8533369987	 1.2608949538	 0.379365
O	 1.0081020982	-2.3414068985	 2.3458707737	-0.334094
O	 0.5035208412	-0.5347083821	 1.1720741397	-0.247171
H	 0.9303243911	 1.9122688609	 0.2350631661	 0.129801
H	-0.5155511338	 1.9580443391	-0.7979892499	 0.11909
H	-0.6810307338	 1.7646481746	 0.9596687494	 0.135868
H	-1.0265870408	-0.41060776	-0.1981048557	 0.089676
H	 0.343436433	-0.196317836	-2.1836480226	 0.117071
H	 1.8116262949	 0.0356496976	-1.245189703	 0.124634
H	 1.2381790314	-2.5059436947	-2.093452104	 0.102744
H	 1.9968578358	-4.3211253301	 0.8030948754	 0.149266
H	 0.2724249863	-4.5600128129	 0.6125551319	 0.139267
H	 1.3184779836	-4.5805593035	-0.8247953438	 0.114373
90.8321	132.68	162.2244	227.6916	269.6519	271.0923	306.5398	357.0721	420.2951	446.7379	527.3371	561.4541	686.5137	709.7947	769.3691	866.4756	885.2947	925.1437	965.4778	997.0925	1072.2735	1075.0715	1076.6136	1115.1976	1144.8119	1172.081	1223.4066	1261.7987	1324.8077	1371.0928	1390.6709	1402.7073	1414.3109	1416.527	1467.0538	1470.7742	1484.8562	1488.2494	1499.0192	1719.5402	1813.6343	2996.9925	3009.5815	3041.6441	3045.2154	3065.3761	3100.4504	3118.5623	3125.6653	3128.961	3156.279
CC1CC=C(C)C(=O)O1	C[C@H]1CC=C(C)C(=O)O1	
InChI=1S/C7H10O2/c1-5-3-4-6(2)9-7(5)8/h3,6H,4H2,1-2H3	InChI=1S/C7H10O2/c1-5-3-4-6(2)9-7(5)8/h3,6H,4H2,1-2H3/t6-/m0/s1
