14
gdb 5025	3.47783	2.25677	1.37047	5.7604	69.26	-0.1885	-0.0073	0.1812	837.3109	0.110468	-378.782073	-378.775416	-378.774471	-378.812486	26.371	
N	 0.0100218782	 1.3913024512	 0.1439465978	-0.580278
C	-0.0587900243	 0.0161800122	 0.052593513	 0.166409
C	-1.2071693041	-0.7160287988	 0.0310831151	-0.090232
N	-1.1610849425	-2.0948983006	-0.0076148329	-0.309665
C	 0.0165506531	-2.7661169071	-0.0220635617	 0.021356
C	 1.2039864561	-2.0981650451	-0.0082877639	-0.251269
C	 1.26022147	-0.6564086184	 0.0191466168	 0.352502
O	 2.2942773849	 0.019707229	 0.0049619902	-0.4289
H	 0.9525724416	 1.705106715	-0.0640500055	 0.262538
H	-0.7221225227	 1.9271545446	-0.2948016859	 0.241841
H	-2.1973200114	-0.2780262257	 0.0483700378	 0.114048
H	-2.0257330272	-2.6076861165	-0.0204542647	 0.266203
H	-0.0556431806	-3.8466640488	-0.048748245	 0.128654
H	 2.1377322588	-2.6455411211	-0.0323637412	 0.106794
154.2919	285.2904	325.8577	376.6394	424.6647	453.5187	464.9701	550.4335	575.0852	584.9691	653.3274	752.7048	759.566	815.8102	847.4795	909.485	935.8896	1033.287	1097.8428	1168.6615	1231.8589	1266.4461	1320.8616	1421.6575	1434.9293	1561.8416	1595.1915	1625.139	1682.8297	1705.75	3201.2552	3204.0073	3221.3126	3515.3707	3660.6814	3670.9378
NC1=CNC=CC1=O	Nc1c[nH]ccc1=O	
InChI=1S/C5H6N2O/c6-4-3-7-2-1-5(4)8/h1-3H,6H2,(H,7,8)	InChI=1S/C5H6N2O/c6-4-3-7-2-1-5(4)8/h1-3H,6H2,(H,7,8)
