15
gdb 21233	3.27227	1.98719	1.25586	2.4468	64.69	-0.2196	0.0105	0.2301	940.1787	0.118213	-399.791371	-399.783364	-399.78242	-399.824561	27.515	
C	 0.0516454837	 1.421308423	-0.0277736892	-0.250789
O	 0.0357928408	-0.0101455118	-0.0014522491	-0.266396
C	 0.5926223157	-0.643759095	-1.0292112676	 0.486509
C	 0.7125996249	-1.9876431288	-1.253555031	-0.008345
C	 0.2435383399	-3.117012196	-0.391793765	-0.51516
C	 1.3895286233	-2.0061389805	-2.5010789928	-0.010299
N	 1.6534309268	-0.8155615642	-2.9848349293	-0.171615
O	 1.1312996423	 0.075879822	-2.0202669529	-0.230348
H	 1.0776572531	 1.8000457204	-0.0486149276	 0.14617
H	-0.4896266033	 1.8017671316	-0.8988963814	 0.146165
H	-0.4456786703	 1.7355831535	 0.8895565828	 0.142847
H	-0.4778896361	-3.7556887204	-0.9134810699	 0.132055
H	 1.0730611557	-3.7567605631	-0.0706248082	 0.132062
H	-0.2443896266	-2.7306673375	 0.5065628099	 0.13832
H	 1.6995125102	-2.8703753432	-3.0744545687	 0.128822
60.5797	75.8883	167.2286	190.4906	248.1374	292.6153	316.5369	526.9958	622.4168	632.2748	715.5476	732.0411	893.6188	919.4081	941.4681	1008.9528	1044.8451	1070.3454	1177.3071	1197.2065	1212.2266	1221.7581	1326.7427	1399.2775	1427.8803	1466.711	1486.3783	1489.1477	1499.7695	1501.8489	1551.1041	1697.4936	3030.9226	3042.9751	3080.2788	3115.5088	3119.3393	3159.0507	3227.2899
COC1=C(C)C=NO1	COc1c(C)cno1	
InChI=1S/C5H7NO2/c1-4-3-6-8-5(4)7-2/h3H,1-2H3	InChI=1S/C5H7NO2/c1-4-3-6-8-5(4)7-2/h3H,1-2H3
