19
gdb 83973	2.3028	1.78653	1.30198	1.7401	74.53	-0.2366	-0.0251	0.2115	1038.9284	0.159769	-423.044623	-423.036404	-423.03546	-423.077638	30.95	
C	 0.2598523038	 1.6554715368	-0.1694954759	-0.40928
C	 0.1538811711	 0.1445449379	-0.0252377608	-0.120588
C	 0.6484705625	-0.8074463297	-1.1708099983	 0.078349
O	 1.6242982671	-0.2600896709	-2.0394005087	-0.256034
C	 2.9282700138	-0.4492990491	-1.4867191026	-0.094223
C	 2.8569969555	-1.7327650494	-0.6439339572	-0.234724
C	 1.4122120679	-1.6941018896	-0.1357217579	-0.16723
C	 1.1163822151	-0.5987759768	 0.9159088563	 0.374569
O	 1.5566530439	-0.3704930135	 2.0060671599	-0.306456
H	 1.2390539026	 1.9444921302	-0.5593426776	 0.132751
H	-0.4983240663	 2.0389626372	-0.8586641712	 0.123335
H	 0.1196366493	 2.1399884914	 0.8010919904	 0.133335
H	-0.8689129749	-0.1468098445	 0.2527301051	 0.104145
H	-0.135321083	-1.2565306641	-1.7831184979	 0.082453
H	 3.6345820828	-0.5065278979	-2.3189370325	 0.11446
H	 3.2101076588	 0.4086222369	-0.8573940629	 0.104941
H	 3.0157316328	-2.6186398689	-1.2658703837	 0.113092
H	 3.5871514913	-1.7415312805	 0.1689095507	 0.126266
H	 0.9908308158	-2.6719181956	 0.1046878446	 0.100839
75.7224	151.7859	160.3361	187.8499	224.7529	247.9891	482.4844	499.7946	569.9948	597.4155	656.2605	738.182	797.5831	856.2058	875.7381	888.1117	918.9415	958.4452	981.3691	998.3733	1009.9366	1062.1717	1107.0602	1134.7637	1145.8844	1157.078	1199.5929	1216.3758	1255.1798	1258.6411	1266.5671	1326.7726	1329.9262	1354.8686	1396.0181	1406.2546	1483.1742	1488.8215	1497.1292	1526.1925	1883.2815	2989.1675	3016.8998	3046.3722	3058.6779	3091.6277	3093.4367	3104.2814	3114.4784	3116.3571	3126.0486
CC1C2OCCC2C1=O	C[C@H]1[C@H]2OCC[C@H]2C1=O	
InChI=1S/C7H10O2/c1-4-6(8)5-2-3-9-7(4)5/h4-5,7H,2-3H2,1H3	InChI=1S/C7H10O2/c1-4-6(8)5-2-3-9-7(4)5/h4-5,7H,2-3H2,1H3/t4-,5+,7-/m1/s1
