21
gdb 91623	2.24678	1.87768	1.39561	1.6734	82.77	-0.2286	0.0171	0.2457	1044.7555	0.183829	-387.103725	-387.09566	-387.094716	-387.135781	32.565	
C	-0.1870855734	 1.5224690828	-0.0409609536	-0.409624
C	 0.0266675756	 0.0184872886	 0.037878076	 0.159456
O	 0.7864593556	-0.4386104289	-1.0954808721	-0.300797
C	 1.895628122	-1.214443219	-0.5489902677	 0.072933
C	 1.2320042379	-1.9047095817	 0.6525551496	-0.227632
C	 0.8388364885	-0.5327467224	 1.2602651112	-0.154604
C	 2.1914374348	 0.1739545612	 1.2553704273	 0.348737
C	 2.6058834888	 1.1961727175	 2.2613080852	-0.514691
C	 2.8324544965	-0.2472569091	 0.1553551832	-0.191009
H	 0.7670178252	 2.0554499208	-0.0344898137	 0.122667
H	-0.706508929	 1.7756416212	-0.9698553403	 0.12384
H	-0.7999184445	 1.8731829892	 0.7970017002	 0.104239
H	-0.9515714645	-0.4849532472	 0.0237056325	 0.068992
H	 2.30248499	-1.8256790629	-1.3529767459	 0.069838
H	 0.3803536494	-2.5305378814	 0.369215466	 0.096684
H	 1.9281616122	-2.465078632	 1.2784694778	 0.09844
H	 0.2850297184	-0.5267909185	 2.2001719976	 0.060146
H	 2.6143025517	 0.7736465479	 3.2743706554	 0.125536
H	 3.6049269081	 1.5864398022	 2.047167407	 0.125524
H	 1.908397706	 2.0426404851	 2.2847947057	 0.129987
H	 3.7785843007	 0.1099520768	-0.2323516913	 0.091338
152.0936	166.3111	184.4705	237.8709	303.664	313.5776	459.2491	475.609	488.6504	548.6653	609.9708	697.7498	793.3316	817.3136	838.2537	856.6972	874.2307	909.5662	923.279	962.6109	976.8511	1013.0004	1021.7772	1047.0089	1072.8153	1086.962	1135.6175	1138.3352	1166.3799	1228.9051	1255.2315	1265.1217	1285.7129	1289.2825	1332.8675	1356.8195	1389.0044	1406.2951	1412.1866	1476.7132	1484.2049	1486.2089	1492.7933	1501.2962	1685.2886	2983.4199	3016.8848	3036.3759	3059.8068	3063.7585	3104.8961	3106.4988	3108.0264	3123.5229	3128.0506	3135.0277	3205.4114
CC1OC2CC1C(C)=C2	C[C@H]1O[C@@H]2C[C@H]1C(=C2)C	
InChI=1S/C8H12O/c1-5-3-7-4-8(5)6(2)9-7/h3,6-8H,4H2,1-2H3	InChI=1S/C8H12O/c1-5-3-7-4-8(5)6(2)9-7/h3,6-8H,4H2,1-2H3/t6-,7+,8+/m1/s1
