17
gdb 79648	2.56811	1.56614	1.20655	5.4298	78.09	-0.2456	-0.001	0.2447	1064.0748	0.136157	-380.78756	-380.779645	-380.778701	-380.819881	30.44	
C	-0.0233714415	 1.6136802998	 0.0425602362	-0.445852
C	 0.1131495312	 0.0983307031	-0.0690099794	-0.057881
C	 0.4829163559	-0.7526999152	-1.2425254426	-0.143171
C	 1.7841071367	-0.3588951398	-1.9601877681	-0.040951
C	 2.5575567402	 0.7642656506	-1.3792699456	-0.256499
N	 2.616124147	-0.5526685184	-0.7205665172	-0.165669
C	 1.3284926973	-0.8292815853	 0.037328558	 0.174867
C	 1.3831804613	-1.8419074471	 1.040188532	 0.237981
N	 1.406812401	-2.6592906317	 1.8599490151	-0.349743
H	 0.1333205731	 2.1199906504	-0.9117967262	 0.139325
H	-1.0384512038	 1.8533831515	 0.3718444453	 0.128574
H	 0.6638602147	 2.0377427891	 0.7808008794	 0.142599
H	-0.6801482565	-0.4078574541	 0.4795067622	 0.127483
H	-0.1663855306	-1.5230806445	-1.6373244208	 0.121926
H	 2.0789901954	-0.8382198693	-2.8871415181	 0.11628
H	 3.4969437326	 0.9909999441	-1.876783826	 0.135757
H	 2.102611566	 1.6091895869	-0.8881789543	 0.134975
129.1267	135.0964	166.1614	214.4396	300.1463	402.246	429.5781	487.3473	533.5542	560.8555	670.4799	701.286	734.4256	760.5346	851.5792	896.8378	922.5541	963.5631	1006.8938	1010.7645	1054.737	1070.806	1095.9682	1099.3071	1115.5463	1143.9774	1204.3856	1230.0754	1265.697	1339.2391	1353.0121	1413.6851	1455.5178	1492.5613	1502.1558	1515.9576	2342.1671	3045.5492	3104.1588	3120.0226	3131.3331	3140.0835	3173.1545	3204.9535	3274.5907
CC1C2C3CN3C12C#N	C[C@H]1[C@H]2[C@H]3CN3[C@@]12C#N	
InChI=1S/C7H8N2/c1-4-6-5-2-9(5)7(4,6)3-8/h4-6H,2H2,1H3	InChI=1S/C7H8N2/c1-4-6-5-2-9(5)7(4,6)3-8/h4-6H,2H2,1H3/t4-,5+,6-,7-,9?/m0/s1
