20
gdb 17133	6.20314	1.09827	1.01195	1.5415	76.02	-0.2386	0.0924	0.331	1223.4195	0.176885	-348.981236	-348.972956	-348.972012	-349.014621	30.856	
C	-0.5675709735	 1.3557504693	 0.0700066906	-0.395189
C	 0.1142536142	 0.0050210412	-0.0423412885	 0.171928
C	 0.9741721017	-0.2636653337	-1.2968705617	-0.325239
C	 2.1629977295	-0.3240737079	-0.3094342146	 0.151258
O	 1.276772191	-0.0994517887	 0.8174256814	-0.314557
C	 2.9281115062	-1.6095207233	-0.2061572206	 0.018417
C	 4.221184814	-1.7678096743	-0.9715809135	-0.273291
C	 4.2435258941	-1.6442813814	 0.5295325909	-0.266108
H	 0.1249297161	 2.1651285976	-0.1831340392	 0.116275
H	-1.4282489416	 1.4096434554	-0.6063210472	 0.112127
H	-0.9246965292	 1.5185754781	 1.0917727388	 0.125609
H	-0.6024160321	-0.7951006441	 0.1885861614	 0.072398
H	 0.7661066119	-1.2011851291	-1.8162821817	 0.105186
H	 1.0046006185	 0.5503914029	-2.0238920818	 0.10341
H	 2.870823448	 0.5118676383	-0.4132679063	 0.063491
H	 2.3011102543	-2.4932671123	-0.1200703358	 0.080634
H	 4.4365147728	-2.7323981569	-1.4170082516	 0.112416
H	 4.5714732155	-0.9229043182	-1.5559051968	 0.11112
H	 4.605302073	-0.7156308623	 0.9584852239	 0.116534
H	 4.4760973254	-2.5247944806	 1.117568952	 0.113581
45.1716	78.8243	162.5864	239.4285	281.3181	312.8161	327.0582	450.0359	496.4984	733.1262	769.407	802.4512	830.4943	889.9466	897.2634	911.5211	932.7722	944.1134	990.8161	1020.8242	1051.5348	1060.8954	1078.5074	1093.989	1129.1837	1133.6455	1194.4895	1196.158	1222.515	1231.9175	1253.4532	1276.293	1323.986	1331.6063	1384.352	1405.8352	1441.5778	1470.7999	1482.6195	1490.4707	1495.5799	1506.3705	2985.1407	3003.0506	3030.0718	3071.7033	3101.8233	3109.3983	3126.0713	3131.3015	3135.8046	3142.1164	3209.7443	3224.9262
CC1CC(O1)C1CC1	C[C@H]1C[C@@H](O1)C1CC1	
InChI=1S/C7H12O/c1-5-4-7(8-5)6-2-3-6/h5-7H,2-4H2,1H3	InChI=1S/C7H12O/c1-5-4-7(8-5)6-2-3-6/h5-7H,2-4H2,1H3/t5-,7+/m0/s1
