17
gdb 69926	3.07814	1.78734	1.65744	2.6538	69.99	-0.2351	0.0042	0.2393	878.103	0.137331	-421.781478	-421.774804	-421.77386	-421.811986	28.396	
O	-0.2210805914	 1.3603577092	 0.1334271531	-0.465864
C	-0.0799264943	-0.0173217255	-0.0199634148	 0.412856
C	-0.4909677984	-0.6978035409	-1.2987288096	-0.367872
C	-1.2833656	-0.9123740269	-0.0209204967	-0.107511
C	-0.8713055861	-2.0034166501	 1.023021965	 0.016618
O	-0.1388649291	-1.2008894522	 1.9691174185	-0.241961
C	 0.8452551546	-0.7517937623	 1.019283947	-0.063679
C	 1.3265356758	-2.0837119278	 0.443336707	-0.086837
C	 0.2510098042	-2.8705673383	 0.4476858875	-0.082242
H	 0.4602050969	 1.7896530398	-0.3950181328	 0.282884
H	-0.9680386091	-0.051531189	-2.0302216887	 0.111156
H	 0.1051214605	-1.5017001885	-1.7142312543	 0.112575
H	-2.2773245159	-0.4904585649	 0.0566295437	 0.105798
H	-1.7033930346	-2.5097096363	 1.5091347239	 0.079315
H	 1.575290542	-0.0969043374	 1.4923849233	 0.077919
H	 2.3115341906	-2.2791418354	 0.0424704646	 0.107577
H	 0.1355638444	-3.8680967437	 0.0469538234	 0.109267
192.3806	286.0735	309.8249	359.191	395.7481	488.1598	535.9164	600.3308	634.1594	714.0061	745.1216	770.8844	833.0125	868.9146	877.0726	894.9817	913.2435	936.5862	955.1903	971.0723	984.2659	1002.168	1030.4036	1069.8245	1086.6085	1124.5427	1188.5635	1206.3639	1234.0922	1254.0883	1270.2765	1308.9398	1321.7785	1334.8447	1394.4398	1477.0995	1638.1434	3125.5133	3135.9046	3138.956	3195.9904	3217.6742	3217.8009	3243.4498	3797.8355
OC12CC1C1OC2C=C1	O[C@]12C[C@H]1[C@@H]1O[C@H]2C=C1	
InChI=1S/C7H8O2/c8-7-3-4(7)5-1-2-6(7)9-5/h1-2,4-6,8H,3H2	InChI=1S/C7H8O2/c8-7-3-4(7)5-1-2-6(7)9-5/h1-2,4-6,8H,3H2/t4-,5+,6-,7+/m0/s1
