21
gdb 84876	2.1118	1.71956	1.28152	0.6421	79.4	-0.2417	0.0151	0.2568	1095.6657	0.181889	-424.243787	-424.234457	-424.233513	-424.276991	36.575	
C	 0.0164685412	 1.5670918731	-0.0073438822	-0.430204
C	 0.0257300524	 0.0381823717	-0.0033535757	 0.318803
O	-1.3156819134	-0.4637048056	-0.0027171161	-0.465604
C	 0.6742605641	-0.5300517018	-1.2711478416	-0.218837
C	 0.6009989181	-2.0617995925	-1.303918428	-0.259929
C	 0.9944004764	-2.6736956772	 0.0111577581	-0.035804
C	 1.0365295856	-1.9906437331	 1.1552749399	-0.10647
C	 0.760039608	-0.5138249116	 1.2500712748	 0.074719
O	 1.9705285067	 0.1998060538	 1.5345816373	-0.436826
H	 1.0300738664	 1.970890122	-0.0333505721	 0.127296
H	-0.5451395185	 1.9319105449	-0.8723159723	 0.113566
H	-0.4639591933	 1.9518202781	 0.9010054252	 0.099843
H	-1.76834771	-0.0947441232	 0.763181561	 0.275739
H	 0.1873581587	-0.1038173607	-2.1538376611	 0.099006
H	 1.7218526144	-0.2053421677	-1.2921310307	 0.090501
H	-0.4222642294	-2.3751334948	-1.5474646814	 0.13284
H	 1.237598494	-2.4551533755	-2.1058734175	 0.097256
H	 1.2284025484	-3.7362014126	 0.0124042787	 0.088715
H	 1.3305583125	-2.4796269731	 2.0807715344	 0.089323
H	 0.1125419754	-0.3120217371	 2.1157442435	 0.067675
H	 2.6736683224	-0.2323406372	 1.0384212359	 0.278393
96.1381	187.7271	222.0195	234.1552	260.1445	272.5312	289.1926	310.4706	358.4612	409.8672	467.9409	506.7363	530.4749	563.3403	701.9416	739.9638	773.4271	881.4156	891.4845	937.3024	950.293	999.3223	1011.5231	1023.915	1050.9517	1066.1989	1116.3554	1133.7526	1157.4423	1219.6008	1226.6252	1250.7079	1278.3034	1337.7324	1347.2735	1364.9464	1398.5268	1399.7505	1417.5091	1423.5033	1463.5349	1484.0002	1489.6714	1494.3538	1717.6036	2998.7357	3025.3596	3027.8465	3032.82	3055.3445	3082.2082	3097.066	3138.6336	3141.135	3165.7142	3805.2043	3811.7959
CC1(O)CCC=CC1O	C[C@@]1(O)CCC=C[C@H]1O	
InChI=1S/C7H12O2/c1-7(9)5-3-2-4-6(7)8/h2,4,6,8-9H,3,5H2,1H3	InChI=1S/C7H12O2/c1-7(9)5-3-2-4-6(7)8/h2,4,6,8-9H,3,5H2,1H3/t6-,7-/m1/s1
