21
gdb 106681	2.68652	1.19158	1.03495	1.8191	79.24	-0.2214	0.0608	0.2822	1271.352	0.181046	-424.197723	-424.188188	-424.187244	-424.231942	36.418	
C	 0.0913729371	 1.487102577	-0.220304983	-0.372109
C	 0.0033464403	 0.0114464449	 0.1954004382	-0.300304
C	-1.3962993737	-0.53613773	 0.1742589235	 0.272932
C	-2.0895745918	-0.9790837987	-1.1075004984	-0.383363
C	-1.9628412216	-1.9655602862	-0.002586368	 0.347468
O	-1.3677436441	-3.1936865109	-0.1862832993	-0.459294
C	-2.9891455334	-1.72486577	 1.1021967651	 0.072288
O	-2.7218165814	-2.5378497403	 2.2394025583	-0.447254
C	-2.4930322436	-0.2500238907	 1.2188350106	-0.334384
H	 1.1248652792	 1.8460771694	-0.1872017584	 0.111282
H	-0.284446238	 1.6297508502	-1.2386627965	 0.119989
H	-0.5036626573	 2.1226828379	 0.44439437	 0.115805
H	 0.6299174094	-0.5965721451	-0.469118456	 0.107165
H	 0.4264682591	-0.1059321561	 1.2030370354	 0.08542
H	-3.0548879126	-0.5700808166	-1.4054852255	 0.098978
H	-1.4123312795	-1.1687249422	-1.9359199678	 0.119908
H	-1.4183245382	-3.6328707948	 0.67436426	 0.285026
H	-4.0426241985	-1.8957005871	 0.8565484578	 0.085432
H	-1.9405182829	-2.186069609	 2.680970765	 0.281893
H	-2.1044256544	-0.0425877919	 2.2225795586	 0.092839
H	-3.2203067342	 0.5295142201	 0.9661670406	 0.100283
70.6328	103.6819	141.5487	222.0405	226.7692	267.0934	286.8491	346.0521	410.225	441.7499	485.214	528.6653	559.1264	611.9779	718.2384	771.2497	784.2458	840.9164	887.3295	922.5589	962.4484	973.6739	1016.8965	1025.903	1046.5321	1080.7467	1097.5943	1121.2537	1159.2039	1213.9643	1237.386	1243.1655	1283.7996	1316.9499	1326.2994	1357.7661	1374.0851	1408.8948	1416.1123	1436.2884	1478.5823	1485.3042	1498.6397	1506.8949	1516.902	3004.9605	3027.3507	3032.5654	3047.4978	3053.9893	3077.285	3082.6471	3100.6321	3105.5232	3183.6476	3746.0802	3796.2232
CCC12CC1(O)C(O)C2	CC[C@@]12C[C@]1(O)[C@@H](O)C2	
InChI=1S/C7H12O2/c1-2-6-3-5(8)7(6,9)4-6/h5,8-9H,2-4H2,1H3	InChI=1S/C7H12O2/c1-2-6-3-5(8)7(6,9)4-6/h5,8-9H,2-4H2,1H3/t5-,6+,7-/m0/s1
