17
gdb 33053	6.20346	0.80147	0.71617	3.5259	73.91	-0.1879	0.0351	0.223	1542.9899	0.135168	-455.152542	-455.143296	-455.142351	-455.18772	32.23	
C	 0.5763318085	 1.486004488	 0.1859888646	-0.22468
O	 0.8220651636	 0.0998101093	 0.1219258737	-0.232649
C	-0.0548368374	-0.6459935067	 0.9292487957	-0.16859
C	 0.2971427399	-2.0817254129	 0.7810791176	 0.309322
C	 1.2248167944	-2.7308037354	 0.0721573506	-0.174815
N	 1.0595693285	-4.0891608966	 0.3484298352	-0.332894
C	 0.0214490082	-4.2671157492	 1.2343002738	 0.460035
N	-0.4038322663	-5.3655176631	 1.7019138225	-0.608869
O	-0.4575733937	-2.9945988476	 1.5047661126	-0.253546
H	 0.7001906629	 1.8742246445	 1.2088095972	 0.110668
H	 1.3015518579	 1.9738922203	-0.4687719075	 0.132637
H	-0.4396742101	 1.7352963008	-0.1572418509	 0.110666
H	 0.0222769161	-0.3423513624	 1.9893275821	 0.108344
H	-1.1073942218	-0.4793923477	 0.6355317452	 0.108327
H	 1.977118229	-2.3518995713	-0.5953889975	 0.158114
H	 1.5918880259	-4.856715476	-0.0169685425	 0.275143
H	-1.1818877454	-5.2099416541	 2.3364459977	 0.222788
45.2121	68.0862	123.2805	125.6747	200.4752	226.4154	334.3281	352.7713	361.7264	502.5775	590.0629	705.9941	714.8342	735.1553	767.7284	782.1819	932.8321	983.4249	1002.0332	1041.9001	1054.4152	1092.0628	1167.0844	1183.7134	1200.491	1233.5038	1233.5607	1261.543	1366.0183	1401.2931	1437.4082	1483.4418	1485.241	1503.2701	1525.1656	1736.7924	1795.6639	2933.9441	2947.8644	2976.7802	3023.0231	3122.2379	3308.7693	3546.5146	3715.3518
COCC1=CNC(=N)O1	COCC1=CN[C@@H]([NH])O1	
InChI=1S/C5H8N2O2/c1-8-3-4-2-7-5(6)9-4/h2H,3H2,1H3,(H2,6,7)	InChI=1S/C5H9N2O2/c1-8-3-4-2-7-5(6)9-4/h2,5-7H,3H2,1H3/t5-/m1/s1
