15
gdb 98732	3.06029	1.09413	0.91248	5.1218	67.87	-0.2772	-0.026	0.2512	1251.2773	0.111107	-453.940883	-453.931982	-453.931038	-453.975437	30.963	
O	-0.0755725424	 1.2770805601	 0.2671398731	-0.414943
C	-0.0590837628	-0.0722079982	-0.0851176917	-0.12724
C	-1.4726485204	-0.6417646437	-0.084862867	 0.367543
O	-2.4241580099	 0.0362149718	 0.2310209487	-0.338619
N	-1.5974503676	-1.9425794907	-0.5594356896	-0.088228
C	-0.9588130207	-3.1378703123	-0.0665139339	-0.248487
C	-2.4630598222	-2.9666796817	-0.0176990292	-0.155826
C	-3.096160632	-2.7907885347	 1.2699757122	 0.309232
N	-3.610716156	-2.6963836223	 2.300211357	-0.314856
H	-1.0030092068	 1.4823973515	 0.4651220914	 0.300411
H	 0.3783651925	-0.2214822602	-1.0839036732	 0.127685
H	 0.553860978	-0.6618854896	 0.6176683644	 0.114263
H	-0.5296054318	-3.8001490824	-0.8126629058	 0.151435
H	-0.4315362076	-3.0885959736	 0.8828121378	 0.160047
H	-3.0756639103	-3.4884752739	-0.7475156144	 0.157582
65.6391	71.9098	107.4726	170.8093	234.735	257.4634	322.9246	384.7604	426.7322	528.1819	557.8219	571.1823	662.6375	780.2841	831.7213	928.3368	1001.6141	1027.7176	1049.1635	1099.7684	1126.2546	1132.6699	1157.1004	1171.7571	1247.5999	1310.3963	1357.5311	1407.2383	1464.7629	1497.8149	1508.9061	1792.3535	2365.5841	2968.2062	3006.7886	3113.0363	3156.0763	3208.9214	3696.2919
OCC(=O)N1CC1C#N	OCC(=O)N1C[C@H]1C#N	
InChI=1S/C5H6N2O2/c6-1-4-2-7(4)5(9)3-8/h4,8H,2-3H2	InChI=1S/C5H6N2O2/c6-1-4-2-7(4)5(9)3-8/h4,8H,2-3H2/t4-,7?/m1/s1
