20
gdb 41275	2.89071	1.98776	1.82337	1.6901	81.61	-0.2083	0.074	0.2823	883.0686	0.174352	-365.919456	-365.913117	-365.912172	-365.949533	28.242	
C	 0.0092869897	 1.5713205876	-0.1052444308	-0.335347
C	 1.5887875628	 1.5614231797	-0.0214435285	-0.371197
C	 1.5159936875	 0.156717655	 0.6363144357	 0.35373
C	 1.7171701283	-0.4026348968	 2.0296446996	-0.306906
C	 0.9434987117	-1.5798862986	 1.3864963607	 0.006414
C	-0.4942525961	-0.9617731376	 1.1978902288	-0.324968
C	 0.0349135085	 0.0515493481	 0.180415278	 0.272861
C	 0.5817234965	-0.9060974815	-0.9096166794	-0.204715
N	 1.6863820625	-1.2586357326	 0.0452512276	-0.193742
H	-0.4319406762	 2.1461452852	 0.7142404374	 0.107146
H	-0.4401379072	 1.9031871599	-1.0449481474	 0.100713
H	 2.0868702971	 1.5793777538	-0.99369693	 0.118852
H	 2.0368482196	 2.3364303461	 0.6045099819	 0.110307
H	 2.7649066944	-0.6535075124	 2.2139995704	 0.110656
H	 1.2762222165	 0.1003985689	 2.8943038417	 0.093403
H	 1.0379251229	-2.6059619787	 1.7394645299	 0.074528
H	-1.241254231	-1.6594365801	 0.8091666834	 0.094172
H	-0.864411581	-0.5342033831	 2.1331354138	 0.098294
H	-0.0511892907	-1.7374938412	-1.2379862969	 0.091827
H	 1.0068275643	-0.407282682	-1.7839567458	 0.103973
225.091	305.2081	371.3177	426.8839	473.2702	497.3378	597.9843	658.8363	689.325	719.301	755.2184	803.3777	829.1639	860.3535	880.653	892.8726	917.2109	935.4414	959.2394	990.385	1002.5842	1028.383	1065.6922	1085.1238	1122.8336	1138.1483	1157.523	1182.9023	1197.298	1215.2787	1222.2934	1234.8599	1243.2658	1247.7577	1270.9926	1285.0214	1304.8146	1330.8459	1464.6543	1478.8789	1480.7133	1500.5756	1520.3868	3041.5565	3052.2666	3055.4025	3059.153	3069.1395	3101.8549	3103.4189	3107.5807	3118.6269	3124.35	3128.9557
C1CC23CC4CC12CN34	C1C[C@@]23C[C@H]4C[C@@]12CN34	
InChI=1S/C8H11N/c1-2-8-4-6-3-7(1,8)5-9(6)8/h6H,1-5H2	InChI=1S/C8H11N/c1-2-8-4-6-3-7(1,8)5-9(6)8/h6H,1-5H2/t6-,7-,8-/m1/s1
