19
gdb 38710	2.65491	2.14304	1.6125	1.7144	78.45	-0.2325	0.0063	0.2389	897.1149	0.16264	-385.866115	-385.859675	-385.85873	-385.89634	28.136	
C	-0.0286366878	 1.5001036539	 0.1017245179	-0.413845
C	 1.3131801392	 0.8028028756	-0.0159584246	 0.094189
O	 2.1170579375	 0.3505434712	 1.0525414653	-0.277569
C	 1.6251558842	-1.0051709139	 1.263129838	 0.068524
C	 0.1162260717	-0.7635319118	 1.2975447493	-0.2705
C	 0.0460503039	-0.0033428322	-0.0413792697	 0.285192
C	-0.057499348	-0.9628519675	-1.2076938132	-0.352783
C	 1.1045338951	-1.9351914303	-1.0153378531	-0.047639
C	 1.8920442611	-1.9270816322	 0.0694201439	-0.068699
H	-0.371089853	 1.8811916618	 1.0584872521	 0.118099
H	-0.3055507307	 2.1158701159	-0.7502179895	 0.111887
H	 1.8613603456	 0.961208717	-0.9405789718	 0.089827
H	 2.0890815661	-1.3731314044	 2.18103875	 0.071146
H	-0.4836266871	-1.676519668	 1.2982562378	 0.100928
H	-0.1661171102	-0.1442067619	 2.1521167667	 0.099766
H	-1.0169729365	-1.4986744493	-1.2572402675	 0.103947
H	 0.0553025236	-0.4455834492	-2.1694833056	 0.107568
H	 1.3063203294	-2.6336910557	-1.8245864233	 0.090704
H	 2.7395293959	-2.6035850888	 0.1296534672	 0.08926
241.908	311.2074	337.5734	369.9485	471.1503	482.7592	502.4545	632.1675	652.842	709.0261	770.8868	818.0084	852.5407	864.5604	890.4621	916.5421	935.2806	960.1346	976.0382	993.3405	1005.508	1013.7472	1050.7032	1064.2232	1095.3137	1126.2266	1136.2954	1164.9874	1183.5947	1269.7555	1277.0331	1299.9278	1306.7939	1341.9655	1347.861	1391.6036	1414.2074	1472.3356	1477.2831	1496.7661	1672.6993	2997.801	3038.2937	3063.7608	3094.5249	3113.7084	3118.6479	3140.0015	3146.0029	3175.8579	3204.3073
C1C2OC3CC12CC=C3	C1[C@H]2O[C@H]3C[C@@]12CC=C3	
InChI=1S/C8H10O/c1-2-6-4-8(3-1)5-7(8)9-6/h1-2,6-7H,3-5H2	InChI=1S/C8H10O/c1-2-6-4-8(3-1)5-7(8)9-6/h1-2,6-7H,3-5H2/t6-,7-,8+/m1/s1
