19
gdb 41703	3.34932	1.76951	1.74777	1.4049	77.29	-0.2242	0.0142	0.2384	878.7351	0.16413	-385.897952	-385.891945	-385.891001	-385.927869	26.569	
C	-0.0303133541	 1.5530029124	 0.1455699229	-0.11128
O	 1.3175539884	 2.0104951433	-0.0713695156	-0.272315
C	 2.008762431	 0.8882713861	-0.6255448499	 0.102286
C	 1.3660353369	 0.5734211202	-1.997921697	-0.230229
C	 0.2052228316	-0.3934416384	-1.5478701104	-0.075069
C	 0.8805967226	-1.7455439231	-1.3877158559	-0.086786
C	 1.6937862433	-1.6638504566	-0.3298586618	-0.098527
C	 1.5213189405	-0.2978060016	 0.2866851499	-0.064182
C	 0.0423744334	 0.0388201822	-0.0564412863	-0.029585
H	-0.3326795914	 1.8202074022	 1.164863724	 0.102545
H	-0.7205831845	 2.0457077507	-0.554141992	 0.093788
H	 3.0750026206	 1.1114901793	-0.6277424188	 0.07486
H	 1.0035078365	 1.5040859759	-2.441949019	 0.106924
H	 2.040238275	 0.0888674998	-2.7062879554	 0.097325
H	-0.6878611112	-0.3598347144	-2.1727399162	 0.061146
H	 0.8103004939	-2.5551472475	-2.10378956	 0.094295
H	 2.4022653567	-2.4065564043	 0.0142608637	 0.096766
H	 1.8306649436	-0.1720516764	 1.3245206283	 0.067027
H	-0.7083903328	-0.5371866398	 0.4863723194	 0.071011
248.5924	321.7462	358.8741	431.1445	507.4139	558.5053	669.8239	731.4528	761.5035	763.5711	806.6927	862.2055	872.0972	892.6484	912.2146	938.5452	947.6584	953.1478	979.4355	997.4012	1010.8275	1039.9735	1070.0985	1074.08	1107.61	1142.8301	1158.8884	1181.9129	1207.1836	1247.3597	1264.608	1270.8254	1289.9452	1298.136	1323.952	1335.6053	1356.5971	1383.3054	1487.3362	1524.445	1645.53	2999.6545	3048.5711	3066.926	3103.0925	3109.4524	3114.3448	3118.7603	3129.8108	3196.1035	3222.1668
C1OC2CC3C=CC2C13	C1O[C@@H]2C[C@H]3C=C[C@@H]2[C@@H]13	
InChI=1S/C8H10O/c1-2-6-7-4-9-8(6)3-5(1)7/h1-2,5-8H,3-4H2	InChI=1S/C8H10O/c1-2-6-7-4-9-8(6)3-5(1)7/h1-2,5-8H,3-4H2/t5-,6-,7+,8-/m1/s1
