17
gdb 79682	2.67471	1.55861	1.2317	3.0279	74.7	-0.2177	-0.0286	0.1891	1045.3558	0.134389	-417.900714	-417.892567	-417.891623	-417.933401	30.798	
C	-0.2394968229	 1.5442067469	-0.0546858646	-0.297543
N	 0.1670388356	 0.143447645	 0.0989657289	-0.120567
C	 1.375454564	-0.4988722594	-0.2603349953	-0.100938
C	 2.7005876807	 0.176317243	 0.2365326373	-0.071266
N	 2.3635061455	 1.4667827205	 0.8855024288	-0.34338
C	 2.2076162442	 0.1956884114	 1.6254109723	-0.126894
C	 0.8596983761	-0.474927934	 1.1957179595	 0.215189
C	 0.2560352306	-1.5969954605	 1.9252549173	 0.086249
O	 0.6885084083	-2.0318546682	 2.968514388	-0.278866
H	 0.4156266579	 2.0739644623	-0.7471812175	 0.135129
H	-1.2645318857	 1.5595701826	-0.442921277	 0.110831
H	-0.2112178244	 2.0699777207	 0.9005587481	 0.136439
H	 1.3651446923	-1.3367361652	-0.951073061	 0.113511
H	 3.6886093825	-0.0398749723	-0.1460046781	 0.104676
H	 3.2424439184	 1.8844950485	 1.1904141254	 0.23847
H	 2.7195558395	-0.0196213485	 2.5519073369	 0.119098
H	-0.6343468526	-2.0293622427	 1.4198867511	 0.07986
109.3905	119.9037	180.5193	224.5806	258.5729	276.5574	398.2347	446.025	567.5007	638.2332	648.537	710.5438	743.9084	816.1006	831.0584	888.4632	918.426	947.0408	950.4917	986.0182	1046.8201	1054.5749	1091.5852	1105.211	1139.7794	1170.9292	1220.001	1232.2593	1293.351	1303.8017	1344.6497	1386.7352	1430.9458	1462.0125	1485.5932	1500.4267	1791.4324	2905.3045	3029.4566	3111.7691	3149.2812	3157.3305	3209.5644	3232.1869	3474.9408
CN1C2C3NC3C12C=O	CN1[C@H]2[C@H]3N[C@H]3[C@@]12C=O	
InChI=1S/C6H8N2O/c1-8-5-3-4(7-3)6(5,8)2-9/h2-5,7H,1H3	InChI=1S/C6H8N2O/c1-8-5-3-4(7-3)6(5,8)2-9/h2-5,7H,1H3/t3-,4+,5-,6+,8?/m0/s1
