18
gdb 124468	3.24974	1.20867	1.08415	4.4098	73.01	-0.2527	0.0022	0.2548	1166.3437	0.14742	-435.27276	-435.263912	-435.262968	-435.306418	33.178	
C	-0.1068788757	 1.5627120682	 0.0787769027	-0.426373
C	 0.0089750837	 0.0356924576	 0.013802702	 0.207231
C	 0.7003268376	-0.5189330085	 1.2669361822	-0.383569
O	-1.2928562469	-0.5698165064	 0.0071674586	-0.459053
C	 0.7490488557	-0.3966704888	-1.2309265757	 0.345911
C	 1.7814543623	 0.1111073146	-1.9884445953	-0.185917
N	 2.0553931491	-0.7541507886	-3.0064044577	-0.190362
N	 1.2480756072	-1.7729005879	-2.9276248994	-0.117159
N	 0.4621861461	-1.5641444603	-1.8554918385	-0.237313
H	 0.879962678	 2.0320276113	 0.1266764487	 0.131323
H	-0.6187008922	 1.9540493854	-0.8068869144	 0.119745
H	-0.6717142952	 1.8508578887	 0.9693621103	 0.12983
H	 0.1430299869	-0.2204475237	 2.1591259157	 0.126334
H	 0.7350720511	-1.610703327	 1.2285136992	 0.127478
H	 1.7234546002	-0.142476894	 1.3399138694	 0.127438
H	-1.8247066819	-0.118013974	-0.6581697867	 0.283453
H	 2.3349887077	 1.0278888079	-1.8666467235	 0.119445
H	-0.265472864	-2.2171088246	-1.6090610076	 0.281559
48.1393	143.9605	183.3371	221.7848	265.272	321.3584	345.4254	353.1008	371.6688	462.4203	494.0287	609.868	642.1142	728.0514	745.3024	848.2706	858.1419	934.9274	964.0677	997.6516	1016.2167	1050.8988	1071.609	1117.7078	1127.9205	1181.4175	1201.3845	1255.5805	1330.7384	1359.0257	1367.6773	1398.8105	1416.2084	1431.2966	1476.8502	1480.8042	1495.5083	1502.0026	1590.5491	3037.4608	3048.9696	3108.8859	3123.2965	3127.3522	3133.9024	3269.5051	3653.5121	3795.8537
CC(C)(O)C1=CN=NN1	CC(C)(O)c1cnn[nH]1	
InChI=1S/C5H9N3O/c1-5(2,9)4-3-6-8-7-4/h3,9H,1-2H3,(H,6,7,8)	InChI=1S/C5H9N3O/c1-5(2,9)4-3-6-8-7-4/h3,9H,1-2H3,(H,6,7,8)
