16
gdb 47027	3.86667	1.35945	1.04852	6.5115	73.94	-0.2286	-0.019	0.2097	1084.8143	0.127008	-437.905822	-437.898795	-437.897851	-437.937282	27.491	
O	 0.0449852747	-0.0236776471	-0.2466533172	-0.348018
C	 0.038492527	 1.1642652783	-0.0535930787	 0.44475
O	-1.1939052443	 1.7922245637	 0.0635706589	-0.256451
C	-1.2923325085	 3.1060261001	 0.6338213752	-0.101551
C	-0.2886505063	 4.0024364889	-0.065837451	-0.108327
C	 0.4467996318	 5.2194153488	 0.5864292317	-0.202742
N	 1.7193702416	 4.5128799679	 0.2700939246	-0.375145
C	 1.0512504382	 3.3282857495	 0.0337941547	 0.445773
C	 1.237300196	 2.0026900274	 0.0816340842	-0.451166
H	-2.3319709501	 3.4101120091	 0.4907932386	 0.122198
H	-1.0848122458	 3.0601117515	 1.7119573906	 0.107011
H	-0.5923098341	 4.2082668956	-1.0955048902	 0.118305
H	 0.3380355616	 6.1923444451	 0.1023695798	 0.124539
H	 0.2578888843	 5.312093279	 1.6621040353	 0.1203
H	 2.5636962923	 4.5820520855	 0.822837137	 0.250404
H	 2.1832571218	 1.5022247568	 0.2384572864	 0.110121
118.9589	206.3459	226.482	326.3967	371.2109	446.5347	471.7606	547.5682	630.2499	686.92	738.3064	779.9203	825.1366	834.1068	863.8374	919.2049	979.9366	1003.0278	1060.3206	1077.2434	1140.7443	1161.2108	1172.7082	1203.5087	1219.1813	1253.7146	1269.8958	1332.8483	1369.7139	1383.3838	1408.267	1505.0315	1513.2887	1742.9744	1823.9867	3011.5798	3037.3133	3078.3684	3100.4334	3109.383	3221.6336	3577.5678
O=C1OCC2CNC2=C1	O=C1OC[C@H]2CNC2=C1	
InChI=1S/C6H7NO2/c8-6-1-5-4(2-7-5)3-9-6/h1,4,7H,2-3H2	InChI=1S/C6H7NO2/c8-6-1-5-4(2-7-5)3-9-6/h1,4,7H,2-3H2/t4-/m1/s1
