14
gdb 130381	7.17774	0.84101	0.76288	1.2909	71.32	-0.2183	-0.0058	0.2125	1410.0588	0.102331	-466.202754	-466.194502	-466.193558	-466.235673	30.105	
N	-0.0150705838	 1.3235209668	-0.0486737395	-0.489261
C	 0.1042525116	-0.0150422599	 0.0978905518	 0.124764
N	 1.1646109283	-0.6435479788	-0.2594961057	-0.33496
C	 1.1307773079	-2.0183590266	-0.217805316	 0.408257
N	 0.051567033	-2.7273558455	-0.4856171329	-0.228292
O	 0.5130224138	-4.0678842439	-0.3346486243	-0.217558
C	 1.8069540998	-3.9693290994	-0.0157170605	 0.504211
N	 2.4807666363	-5.125672789	 0.2319821401	-0.595211
N	 2.2624060735	-2.7526115148	 0.0659044027	-0.392919
H	 0.791164458	 1.8423551094	-0.3596324006	 0.270658
H	-0.7430768303	 1.8222474742	 0.4305197885	 0.268633
H	-0.7740301098	-0.5103156254	 0.5236376891	 0.132621
H	 2.1015349147	-5.9587270094	-0.1901531466	 0.271624
H	 3.484307657	-5.0414263776	 0.1954719939	 0.277432
83.7059	137.2171	164.5359	263.9416	278.118	334.1995	380.471	404.0548	438.1688	508.4064	538.0409	612.2035	723.5134	741.0429	796.9151	817.3722	910.7065	1013.2867	1030.5314	1041.485	1100.3045	1154.4415	1307.7856	1348.0948	1384.241	1477.2831	1546.311	1603.2432	1626.5856	1685.7747	1734.1409	3086.3755	3594.738	3602.7692	3708.7109	3739.498
NC=NC1=NOC(N)=N1	NC=Nc1noc(N)n1	
InChI=1S/C3H5N5O/c4-1-6-3-7-2(5)9-8-3/h1H,(H4,4,5,6,7,8)	InChI=1S/C3H5N5O/c4-1-6-3-7-2(5)9-8-3/h1H,(H4,4,5,6,7,8)
