15
gdb 11275	5.31454	1.36955	1.1615	1.2715	71.4	-0.2463	-0.0294	0.217	1019.985	0.118341	-362.646305	-362.638574	-362.637629	-362.678834	27.92	
C	 0.0430495847	 1.526837106	 0.0244438032	-0.386858
C	-0.0004851118	-0.0003572055	-0.0039935045	 0.010254
C	 0.782574248	-0.6344870951	-1.1881757565	-0.12449
O	 1.7259009284	-1.5294437342	-0.5593073712	-0.256359
C	 1.5386390902	-1.3704329728	 0.7821105414	 0.253253
N	 0.6345974204	-0.5751163217	 1.1955641999	-0.3233
C	 2.4032569888	-2.1407866902	 1.6123178074	 0.273791
C	 3.1363940218	-2.7932876887	 2.304756415	-0.357092
H	 1.078497331	 1.8819565217	 0.0446597882	 0.122337
H	-0.448415083	 1.9439007258	-0.8609815755	 0.114646
H	-0.4653025661	 1.905605321	 0.9145228165	 0.135027
H	-1.0492376279	-0.3221158988	-0.0148225446	 0.093772
H	 0.1584419566	-1.2197470159	-1.868017356	 0.12159
H	 1.3467992093	 0.1042564568	-1.7672601924	 0.116661
H	 3.7804197698	-3.3672277784	 2.9249216292	 0.206768
53.1933	127.5478	155.8113	232.7706	311.982	350.3763	470.7624	533.8797	586.4227	653.9226	669.512	697.3385	732.7275	853.4094	918.1793	937.9982	954.9295	1015.7903	1083.2108	1120.6962	1160.2614	1226.462	1240.7281	1319.8121	1360.7774	1382.4329	1407.1905	1487.4147	1496.2453	1520.5493	1690.7354	2252.5677	3022.9591	3036.0418	3046.9271	3099.9485	3106.9583	3126.1091	3501.2834
CC1COC(=N1)C#C	C[C@H]1COC(=N1)C#C	
InChI=1S/C6H7NO/c1-3-6-7-5(2)4-8-6/h1,5H,4H2,2H3	InChI=1S/C6H7NO/c1-3-6-7-5(2)4-8-6/h1,5H,4H2,2H3/t5-/m0/s1
