21
gdb 60090	2.2452	1.2034	0.94755	1.7779	80.13	-0.2455	-0.0123	0.2333	1341.5072	0.179897	-424.231635	-424.221514	-424.22057	-424.266956	37.294	
C	 0.1065059259	 1.5342134876	 0.0038897363	-0.402168
C	 0.0405057714	 0.0260480987	 0.2447177753	 0.128352
O	 0.1497849898	-0.2729312109	 1.6396703015	-0.436749
C	-1.2914753117	-0.5661665319	-0.228042559	-0.285174
C	-1.3398273743	-2.0826130933	-0.2416863298	 0.26989
C	-1.4512124693	-2.8642597042	 1.0643840937	-0.288492
C	-2.630078551	-2.80403845	 0.1598337005	-0.325679
C	-0.5775330951	-2.7561500892	-1.3176931827	 0.117147
O	 0.0705902158	-2.1936813349	-2.1687237618	-0.282781
H	 1.0480927597	 1.9465651571	 0.3844708635	 0.102066
H	 0.051520593	 1.7641359911	-1.0649383433	 0.122146
H	-0.7172836287	 2.0422208239	 0.5162150744	 0.119184
H	 0.8547650505	-0.4608767651	-0.3098623631	 0.090092
H	 1.0096332444	 0.0354672355	 1.9415137626	 0.280739
H	-2.0823973179	-0.1760521293	 0.4231067525	 0.098098
H	-1.4901045264	-0.2039443295	-1.2420176148	 0.113274
H	-0.9069674926	-3.8004280508	 1.1376498018	 0.118212
H	-1.4343783934	-2.2600554265	 1.9615057141	 0.149254
H	-3.4649680181	-2.1648246975	 0.4237732654	 0.127801
H	-2.9053574268	-3.6946659318	-0.3956899459	 0.121101
H	-0.6463246352	-3.870315179	-1.2942267711	 0.063684
44.7578	96.3312	140.9567	158.3359	234.7572	252.6702	275.3396	289.2864	319.5567	370.0154	390.0489	468.1925	497.7517	548.5449	777.3346	789.6446	840.0811	856.2623	890.7727	922.2774	949.348	961.9181	1004.7442	1045.7744	1058.4054	1075.4065	1087.4052	1115.7787	1134.4166	1194.6267	1199.8043	1286.3165	1321.4524	1339.2295	1362.7852	1394.2911	1406.0905	1424.2072	1441.0311	1458.1462	1469.7913	1493.4333	1497.9461	1499.5328	1806.01	2844.2584	3010.4608	3026.8552	3038.5684	3088.1049	3094.3706	3111.9903	3133.0181	3142.6301	3217.7806	3244.4887	3822.2492
CC(O)CC1(CC1)C=O	C[C@@H](O)CC1(CC1)C=O	
InChI=1S/C7H12O2/c1-6(9)4-7(5-8)2-3-7/h5-6,9H,2-4H2,1H3	InChI=1S/C7H12O2/c1-6(9)4-7(5-8)2-3-7/h5-6,9H,2-4H2,1H3/t6-/m1/s1
