17
gdb 52590	2.60941	0.98601	0.79417	3.3537	81.14	-0.2574	0.0115	0.2689	1475.2429	0.134749	-380.82515	-380.815349	-380.814405	-380.862046	33.394	
C	-0.0668342806	 1.4464107067	-0.1489381415	-0.499621
C	-0.0074680241	-0.0051844832	-0.0704661068	 0.095229
C	 0.0338620323	-1.2051487392	-0.0045224384	 0.088513
C	 0.1136432624	-2.6673210135	 0.0542584554	-0.355764
C	-1.2242050382	-3.2536371847	 0.2469204517	 0.290885
N	-2.268291209	-3.7325750773	 0.3709588225	-0.333015
C	 0.8067082149	-3.2515756001	-1.1904489459	 0.024042
C	 0.5669927699	-4.6450688552	-1.6316181696	-0.257729
N	 0.0816256668	-3.5035104352	-2.4321465414	-0.308042
H	 0.5849122249	 1.9108727241	 0.5985583813	 0.15478
H	 0.2478087363	 1.8010429159	-1.1360532088	 0.157998
H	-1.086311984	 1.8058617012	 0.0262829171	 0.159933
H	 0.7152438461	-2.9565111874	 0.9287464166	 0.15876
H	 1.7896350066	-2.8091950083	-1.3317964485	 0.114567
H	 1.375659565	-5.2129183166	-2.0819103274	 0.125007
H	-0.1612840214	-5.2371068808	-1.0845759746	 0.13738
H	-0.9203695481	-3.3875804862	-2.2908871417	 0.247077
19.0605	58.6409	82.4566	123.0315	150.989	244.9932	272.1589	356.0954	372.4614	390.852	472.9209	546.3151	635.4201	763.7372	820.0806	849.6291	916.0031	953.4066	974.2927	1051.1579	1052.5288	1061.5161	1124.7605	1144.824	1170.5124	1189.7848	1253.9223	1276.727	1306.773	1314.3027	1400.1672	1413.8233	1475.4661	1476.2451	1511.7353	2359.5625	2381.3141	3002.1226	3032.9218	3096.838	3097.7606	3116.1017	3141.0216	3203.7351	3489.6192
CC#CC(C#N)C1CN1	CC#C[C@@H](C#N)[C@H]1CN1	
InChI=1S/C7H8N2/c1-2-3-6(4-8)7-5-9-7/h6-7,9H,5H2,1H3	InChI=1S/C7H8N2/c1-2-3-6(4-8)7-5-9-7/h6-7,9H,5H2,1H3/t6-,7+/m0/s1
