21
gdb 76761	2.2301	1.71463	1.32246	1.4205	77.41	-0.2446	0.0594	0.3039	1080.1382	0.181479	-424.199283	-424.190076	-424.189132	-424.233047	35.218	
C	 0.1794898462	 1.620527718	 0.0813007147	-0.422125
C	 0.0941298412	 0.1017514116	 0.0371086014	-0.063763
C	 1.0435009168	-0.6891376673	-0.9349583871	 0.10185
O	 2.0553293314	 0.0329605455	-1.59485829	-0.424947
C	 1.4690640805	-1.6334192816	 0.2431647516	-0.157056
C	 2.7047466307	-1.1472595491	 0.9906394388	-0.106119
O	 1.9353785306	-0.1329016956	 1.6844487333	-0.338453
C	 0.6729988992	-0.7104195898	 1.2216851057	 0.437427
C	-0.2063819776	-1.1459565	 2.3645121531	-0.481485
H	 1.1660097199	 1.9495098218	 0.4204193036	 0.123019
H	-0.0136288384	 2.053151392	-0.904998839	 0.123791
H	-0.5553452976	 2.0331908857	 0.7802374407	 0.117241
H	-0.9406962845	-0.2111645051	-0.1457536454	 0.069569
H	 0.5062849373	-1.2192876686	-1.7247125781	 0.088943
H	 2.4429721552	 0.651993744	-0.9671949025	 0.290975
H	 1.3048354338	-2.7030414531	 0.117707411	 0.072026
H	 3.1236028457	-1.879293233	 1.6932930836	 0.100081
H	 3.5197307481	-0.7251284936	 0.3915324134	 0.100898
H	-0.516813961	-0.2774721348	 2.9564557778	 0.129114
H	-1.1077551444	-1.6450585189	 1.9941229046	 0.116225
H	 0.3248290769	-1.8331336383	 3.0300473088	 0.12279
48.6805	172.2703	204.472	214.9561	232.2907	243.8905	279.1831	326.6684	364.0686	478.8735	526.1984	549.0467	643.9819	667.1332	769.0225	830.2442	853.7505	887.9201	911.4622	988.4048	990.9524	1001.3049	1037.7006	1062.8977	1099.4329	1122.503	1156.0299	1165.1046	1173.5708	1193.3154	1219.4117	1258.6278	1277.3957	1293.7954	1331.3894	1353.2103	1366.8911	1402.0271	1409.1031	1441.0714	1480.6823	1485.6579	1488.3258	1510.6441	1532.8853	3011.927	3029.6501	3034.1196	3039.1152	3060.1121	3080.9072	3098.4971	3102.9051	3109.1972	3114.2758	3118.139	3814.8694
CC1C(O)C2COC12C	C[C@H]1[C@@H](O)[C@H]2CO[C@@]12C	
InChI=1S/C7H12O2/c1-4-6(8)5-3-9-7(4,5)2/h4-6,8H,3H2,1-2H3	InChI=1S/C7H12O2/c1-4-6(8)5-3-9-7(4,5)2/h4-6,8H,3H2,1-2H3/t4-,5+,6+,7-/m0/s1
