21
gdb 95214	2.43096	1.69544	1.17734	1.8913	77.66	-0.2399	0.0739	0.3138	1107.7284	0.183706	-424.219807	-424.211256	-424.210312	-424.252606	33.764	
C	 0.0594011589	 1.5471196215	-0.1088508832	-0.393239
C	 0.0143388522	 0.0299669994	-0.0315920721	 0.103825
O	 0.6696431911	-0.4837615938	-1.1922339936	-0.262628
C	 0.3838153315	-1.8559775273	-1.3878015682	-0.106197
C	 0.8755493951	-2.6968753193	-0.2260560387	-0.031869
C	 2.2428864429	-2.3911027148	 0.3172045383	-0.303625
C	 1.0099484692	-2.0088034991	 1.1143542699	-0.055441
C	 0.6322017378	-0.5369791391	 1.2691846943	 0.095372
O	 1.7183962569	 0.2381725334	 1.7632404306	-0.429838
H	 1.0929928215	 1.8973611364	-0.0907656932	 0.126885
H	-0.419735625	 1.8884744764	-1.0298425678	 0.114287
H	-0.4596752599	 1.9894905171	 0.7462850433	 0.116342
H	-1.0371522374	-0.3073852684	-0.0562755285	 0.059736
H	-0.7020986092	-1.9990326835	-1.5241729973	 0.088365
H	 0.8803271926	-2.1458831226	-2.3202245403	 0.10635
H	 0.545379704	-3.7315470242	-0.2334704241	 0.085031
H	 2.8565312113	-3.2015733509	 0.692930666	 0.112836
H	 2.7945899521	-1.6046011024	-0.1897641402	 0.118664
H	 0.8317677729	-2.6155018015	 1.9959802386	 0.090375
H	-0.1372661497	-0.4535109046	 2.045861299	 0.082852
H	 2.5084802811	-0.0383325926	 1.2874663272	 0.281916
77.1939	203.4634	213.2038	248.3418	281.9649	302.4782	327.781	359.8838	418.9968	476.6304	554.6212	688.532	722.6509	754.3041	780.9774	826.4105	874.8283	903.9762	938.5801	997.1612	1022.8926	1039.5393	1069.8239	1076.0981	1107.8111	1116.3144	1133.0425	1139.6675	1161.2644	1182.5487	1221.661	1267.0579	1291.2927	1335.3639	1361.0418	1370.4018	1386.1452	1397.1444	1410.3638	1422.0146	1432.3399	1481.6969	1485.8219	1489.465	1500.8346	2942.2111	2957.4051	3038.6359	3053.1964	3063.2334	3124.1742	3126.4305	3141.0301	3148.1869	3159.7668	3215.4642	3814.0499
CC1OCC2CC2C1O	C[C@H]1OC[C@H]2C[C@H]2[C@H]1O	
InChI=1S/C7H12O2/c1-4-7(8)6-2-5(6)3-9-4/h4-8H,2-3H2,1H3	InChI=1S/C7H12O2/c1-4-7(8)6-2-5(6)3-9-4/h4-8H,2-3H2,1H3/t4-,5-,6-,7+/m1/s1
