15
gdb 32320	2.71985	1.50659	0.97534	2.4468	72.69	-0.2258	-0.0508	0.175	1131.4848	0.113966	-453.992715	-453.984832	-453.983888	-454.025522	29.052	
O	 0.0191084726	 1.4331284037	 0.0082761279	-0.404147
C	-0.0206580746	 0.0272409113	 0.0018826615	-0.147369
C	-1.4448466772	-0.4596007014	 0.0127674529	 0.181434
N	-2.4439472218	 0.3670845659	 0.0232963836	-0.274156
C	-3.7220298534	-0.1289978025	 0.0329483063	-0.06389
C	-3.9736018419	-1.4617503107	 0.0318264288	-0.00183
N	-2.9192432252	-2.3313779275	 0.0206798394	-0.340518
C	-1.587682342	-1.9279174355	 0.0101630974	 0.387905
O	-0.6673633608	-2.7300833659	-0.0001362983	-0.388859
H	 0.9444332438	 1.6935394193	-0.0043692921	 0.290842
H	 0.4750870404	-0.4086766623	-0.8820516669	 0.117672
H	 0.491333875	-0.4171783881	 0.872204025	 0.117726
H	-4.5293330435	 0.59229402	 0.0415932023	 0.119433
H	-4.9667941636	-1.8927235489	 0.0392518801	 0.138239
H	-3.0676271877	-3.3316401073	 0.0193891422	 0.267518
72.0155	141.9657	194.8539	235.2947	265.5976	340.1832	432.7958	526.4092	548.9147	569.5241	578.2207	718.3182	768.3174	787.9646	814.129	898.8977	920.7422	1016.2082	1059.2113	1092.005	1139.7879	1210.8162	1218.9448	1240.0805	1256.8203	1304.9647	1407.7995	1468.9791	1483.2141	1492.0625	1589.8706	1655.9726	1769.8114	2963.4881	2977.2356	3203.5698	3221.9369	3599.9603	3838.5235
OCC1=NC=CNC1=O	OCc1ncc[nH]c1=O	
InChI=1S/C5H6N2O2/c8-3-4-5(9)7-2-1-6-4/h1-2,8H,3H2,(H,7,9)	InChI=1S/C5H6N2O2/c8-3-4-5(9)7-2-1-6-4/h1-2,8H,3H2,(H,7,9)
