20
gdb 62116	2.41893	1.08667	0.91289	5.0543	77.02	-0.2495	0.017	0.2665	1362.0805	0.169104	-440.27505	-440.265386	-440.264442	-440.31037	34.535	
C	 0.0660982232	 1.5199600915	-0.1273022393	-0.391246
C	 0.1680136344	 0.0090633359	 0.0853756782	 0.04857
C	 1.0950366276	-0.3469349638	 1.2519606961	-0.102924
O	 0.7284609615	 0.3354446666	 2.4527462821	-0.178188
C	-0.1259173203	-0.2879423085	 3.2908392186	 0.19108
O	-0.561645098	 0.2387488322	 4.2694219525	-0.282571
N	-1.1549780684	-0.5497511053	 0.358835681	-0.060107
C	-2.033069066	-0.7612358444	-0.7838059556	-0.221731
C	-1.405070501	-1.9177727952	-0.0869729225	-0.230662
H	 1.0519503873	 1.9468715402	-0.3354062135	 0.115869
H	-0.5873658803	 1.7452969342	-0.9744726344	 0.117354
H	-0.3402128167	 2.0026788174	 0.7637208845	 0.151696
H	 0.6144759937	-0.4522278031	-0.8172089427	 0.05831
H	 1.0914298257	-1.4319639974	 1.4183161833	 0.110183
H	 2.119504503	-0.0369463025	 1.0303602538	 0.122687
H	-0.3454894547	-1.3271161159	 2.9850308455	 0.078113
H	-3.0811343895	-0.5227531265	-0.6292074231	 0.125706
H	-1.6498732846	-0.5156492713	-1.7732889708	 0.113493
H	-0.6070263109	-2.4388068862	-0.6147856021	 0.111042
H	-1.986563126	-2.539444748	 0.5876004283	 0.123327
60.5703	71.5591	107.028	177.0409	207.6717	216.6987	260.7272	306.9523	322.7848	399.2065	491.4348	588.6056	675.3381	735.7231	825.4691	885.	905.4061	944.0092	991.073	1009.8393	1029.1231	1039.0642	1067.678	1113.2971	1121.3457	1129.4978	1140.0717	1167.3868	1194.4264	1206.0137	1308.2124	1321.9122	1354.8398	1373.8407	1396.5764	1414.377	1433.9423	1487.2194	1490.7412	1495.0181	1502.0676	1518.7629	1866.6298	2908.4795	2971.9009	3027.6224	3048.7861	3091.2064	3096.9044	3102.006	3115.7964	3140.5653	3178.2032	3192.4871
CC(COC=O)N1CC1	C[C@@H](COC=O)N1CC1	
InChI=1S/C6H11NO2/c1-6(4-9-5-8)7-2-3-7/h5-6H,2-4H2,1H3	InChI=1S/C6H11NO2/c1-6(4-9-5-8)7-2-3-7/h5-6H,2-4H2,1H3/t6-/m0/s1
