20
gdb 12416	2.85414	2.06415	1.47683	1.7262	70.48	-0.2558	0.0831	0.3388	932.702	0.178182	-386.152288	-386.144333	-386.143389	-386.184078	30.704	
C	-0.0968156158	 1.5909588798	-0.0689486843	-0.392132
C	 0.0130312796	 0.0618777756	-0.0218075389	-0.000246
C	 0.7843593446	-0.4792409919	-1.2377892858	-0.096871
O	 2.1586588156	-0.1181472155	-1.166638677	-0.236905
C	 2.7394307629	-0.6040476461	 0.0136842294	 0.02009
O	 2.1263361752	-0.1029259896	 1.1707448423	-0.253328
C	 0.743580296	-0.4648756726	 1.2350862799	 0.136064
C	 0.204574142	 0.0362978739	 2.5649741382	-0.41373
H	 0.8921421931	 2.0496712935	 0.0032482256	 0.139561
H	-0.5508594544	 1.9125740734	-1.0119411124	 0.108425
H	-0.7168792472	 1.979171943	 0.7435412401	 0.112799
H	-0.9933177929	-0.3779670587	-0.0376339191	 0.069226
H	 0.6909760162	-1.5779234862	-1.2858863527	 0.084109
H	 0.4032895479	-0.0641104701	-2.1750967095	 0.106908
H	 2.6966702232	-1.7115214849	 0.0200725857	 0.071764
H	 3.7775153412	-0.2654393691	 0.0254843126	 0.115587
H	 0.6758265805	-1.5679783896	 1.2177237237	 0.060145
H	 0.3291756336	 1.1180638641	 2.6555522617	 0.131566
H	-0.8591100341	-0.2028956354	 2.6615149551	 0.113303
H	 0.7438618626	-0.4367774238	 3.3900146552	 0.123667
141.1011	192.6889	202.0938	225.6851	291.1882	323.7826	348.4198	423.4278	450.022	543.2359	617.0317	745.7097	758.6587	854.3013	904.2173	943.1386	971.4285	1009.5363	1021.5545	1051.8764	1084.4991	1111.3976	1135.8695	1163.6774	1196.8622	1214.3737	1274.6462	1304.6095	1322.003	1348.8076	1379.6298	1386.2775	1392.3283	1414.8229	1421.1049	1447.4917	1482.3929	1492.6538	1497.2969	1504.0873	1509.2313	1515.4986	2905.2955	2933.3909	2961.5369	3020.7498	3043.8596	3047.4473	3085.5828	3106.1921	3110.3714	3118.1344	3129.1784	3132.6175
CC1COCOC1C	C[C@H]1COCO[C@H]1C	
InChI=1S/C6H12O2/c1-5-3-7-4-8-6(5)2/h5-6H,3-4H2,1-2H3	InChI=1S/C6H12O2/c1-5-3-7-4-8-6(5)2/h5-6H,3-4H2,1-2H3/t5-,6-/m0/s1
