17
gdb 74486	3.28255	1.24327	0.971	2.6354	77.99	-0.2442	-0.0518	0.1924	1204.8446	0.134766	-421.850522	-421.842166	-421.841222	-421.883859	30.995	
C	 0.0072181461	 1.5113368272	-0.0061186221	-0.492745
C	-0.0461681416	 0.020107605	 0.0072503441	 0.198655
C	-1.1032333558	-0.7993754618	 0.124601017	-0.231525
C	-0.7201977479	-2.2342795198	 0.1093352814	 0.417875
C	-1.4942983797	-3.2759115209	 0.8062012809	-0.243339
O	-1.5742844658	-3.1387285907	-0.6105541999	-0.273049
C	 0.7819487706	-2.2780651552	-0.1242166381	-0.439444
C	 1.1947340509	-0.7991766778	-0.1143223358	 0.320938
O	 2.3220648627	-0.3688804001	-0.1844206177	-0.321644
H	 0.6746404102	 1.8762419523	 0.7819845906	 0.147576
H	 0.4262061973	 1.8717578169	-0.9520174697	 0.14761
H	-0.9810256867	 1.9559655957	 0.1317922944	 0.124578
H	-2.1405700622	-0.4954520924	 0.2178453788	 0.119434
H	-0.9779501934	-4.1654501457	 1.1659152245	 0.120267
H	-2.395826734	-3.0082114759	 1.3569930094	 0.115857
H	 1.3390664093	-2.8361537156	 0.6326328093	 0.136094
H	 1.0093945701	-2.7214148812	-1.098507357	 0.152861
73.3039	96.9814	148.1081	238.6272	305.0854	323.2696	352.0373	457.4477	469.1708	522.0433	608.4489	637.5537	750.6889	807.8303	837.5761	896.343	927.9303	941.8325	996.8653	1001.9498	1067.9847	1072.9207	1128.5877	1153.0193	1163.3318	1199.9462	1237.8367	1278.4639	1333.8482	1408.3295	1416.807	1448.1563	1472.0113	1482.3781	1526.2265	1689.7013	1814.3197	3038.6366	3067.0031	3075.5494	3092.5101	3112.6063	3126.5677	3163.1359	3192.3031
CC1=CC2(CO2)CC1=O	CC1=C[C@]2(CO2)CC1=O	
InChI=1S/C7H8O2/c1-5-2-7(4-9-7)3-6(5)8/h2H,3-4H2,1H3	InChI=1S/C7H8O2/c1-5-2-7(4-9-7)3-6(5)8/h2H,3-4H2,1H3/t7-/m1/s1
