19
gdb 95962	2.79789	1.45551	1.22888	1.411	70.36	-0.2518	0.0683	0.3201	1079.6777	0.158931	-460.139177	-460.130617	-460.129673	-460.17316	31.126	
C	 0.2817099917	 1.4930927048	-0.2967151376	-0.416101
C	-0.1109788471	 0.0817245621	 0.1373181613	 0.042098
O	 0.1542825067	-0.8801723919	-0.8892275948	-0.264734
C	 1.4734617075	-1.3373352656	-0.6967857026	 0.007947
O	 1.8522704332	-1.0178940002	 0.6326570973	-0.296356
C	 0.7210657804	-0.4856874504	 1.2939355832	 0.344554
C	 1.0453346398	 0.3687358582	 2.5321548909	-0.133391
O	 0.1884166947	-0.4406674541	 3.3613276705	-0.273288
C	 0.0047411654	-1.4112049196	 2.309738355	-0.130152
H	 1.3662304568	 1.5852099268	-0.412195623	 0.128338
H	-0.1898426881	 1.724461564	-1.2552372132	 0.130839
H	-0.0498702308	 2.2368909252	 0.4340014034	 0.123793
H	-1.183795361	 0.0317089982	 0.3433462782	 0.097402
H	 1.4868044151	-2.4230678716	-0.8623757895	 0.10972
H	 2.1828640484	-0.8495699787	-1.3823236238	 0.100685
H	 2.1004451904	 0.3017916734	 2.8249914098	 0.113235
H	 0.7355014341	 1.4192847232	 2.5176936222	 0.105077
H	-1.0535577734	-1.6347191239	 2.1319090294	 0.105004
H	 0.5552994664	-2.3408748498	 2.5007038533	 0.10533
54.3952	87.204	117.5933	200.9266	240.5895	307.5499	325.2288	413.5929	484.9549	513.4886	741.3372	775.8786	810.8001	876.3966	899.3746	946.4225	985.14	1006.5466	1025.5986	1034.2919	1058.1851	1088.3805	1136.8037	1150.6949	1151.8987	1156.9794	1163.1966	1189.9638	1208.4601	1259.4998	1301.246	1332.3618	1376.3968	1383.9856	1403.0673	1435.0785	1490.4432	1494.9695	1500.5799	1526.4368	1558.9389	2984.0893	3012.3094	3025.3457	3028.2946	3042.3043	3066.9177	3073.2326	3075.5977	3115.6005	3124.019
CC1OCOC11COC1	C[C@H]1OCOC21COC2	
InChI=1S/C6H10O3/c1-5-6(2-7-3-6)9-4-8-5/h5H,2-4H2,1H3	InChI=1S/C6H10O3/c1-5-6(2-7-3-6)9-4-8-5/h5H,2-4H2,1H3/t5-/m1/s1
