17
gdb 94514	2.69204	1.24001	1.04287	4.2202	73.87	-0.2482	-0.0826	0.1656	1186.1045	0.135131	-418.000064	-417.991011	-417.990067	-418.034698	32.058	
C	-0.2674594406	 1.5140052462	 0.0398756909	-0.415465
C	-0.0526958753	 0.0053082701	 0.0282860009	-0.007178
C	 1.1348685151	-0.4735924041	-0.8541895065	-0.16802
N	 1.9754598854	-0.5561934505	 0.3597326463	-0.2986
C	 0.7965284647	-0.5823582331	 1.2183424988	-0.097754
C	 0.8957099142	 0.2101594235	 2.5014366583	 0.297854
O	 1.8703850114	 0.7842629591	 2.90873809	-0.257962
C	-0.369989987	 0.2283840695	 3.2804783315	 0.21807
N	-1.367545078	 0.2346625004	 3.8656529215	-0.304424
H	 0.6704290062	 2.0430979406	 0.23534371	 0.145859
H	-0.6461632794	 1.8452713605	-0.932431013	 0.124801
H	-0.9982776443	 1.8131290118	 0.7978862059	 0.134672
H	-0.9935839857	-0.520389733	-0.138857264	 0.093712
H	 0.9328608516	-1.4384464227	-1.3393724533	 0.097408
H	 1.5025461377	 0.2329018748	-1.6061848132	 0.110897
H	 2.6139546149	-1.3386643719	 0.4351048781	 0.228973
H	 0.418338649	-1.5837804211	 1.4890490278	 0.097156
42.1026	100.8908	112.2751	171.5355	249.0584	267.1136	277.4966	352.8437	396.6978	478.0826	562.7057	626.5672	703.2634	797.3596	837.1549	895.7304	911.962	949.4838	1022.2723	1040.3291	1063.2469	1096.5783	1124.8838	1145.7889	1170.6297	1219.9184	1258.516	1304.0619	1364.9653	1376.34	1397.4058	1414.925	1498.1093	1501.9173	1523.3356	1805.037	2333.609	2947.7385	3003.011	3036.6301	3062.6734	3096.8596	3104.6901	3119.3051	3550.4135
CC1CNC1C(=O)C#N	C[C@H]1CN[C@H]1C(=O)C#N	
InChI=1S/C6H8N2O/c1-4-3-8-6(4)5(9)2-7/h4,6,8H,3H2,1H3	InChI=1S/C6H8N2O/c1-4-3-8-6(4)5(9)2-7/h4,6,8H,3H2,1H3/t4-,6+/m0/s1
