21
gdb 89572	3.8709	1.13818	1.0368	1.2174	85.31	-0.224	0.0184	0.2423	1248.5632	0.182542	-387.089956	-387.08145	-387.080506	-387.123155	33.066	
C	 0.7580072909	 1.4982883928	-0.0043330422	-0.395451
C	-0.0566319529	 0.2080877269	 0.002091856	 0.034167
C	 0.4933117544	-0.9283956476	-0.9101654446	-0.296228
C	 1.0188686639	-1.6860077088	 0.3500815143	 0.424707
C	 0.1736094359	-0.7158546696	 1.2347986572	-0.296229
O	 0.6350839544	-3.0573332676	 0.4287832865	-0.314853
C	 1.7629250537	-3.8897660997	 0.6792325277	-0.137043
C	 2.9290868689	-2.9468379328	 0.7596414941	-0.108443
C	 2.5025241167	-1.7034652103	 0.572926834	-0.142559
H	 1.8229243477	 1.3082768518	 0.1732169075	 0.111475
H	 0.6732925371	 2.0136803962	-0.9674666636	 0.113828
H	 0.4134979663	 2.1863951153	 0.775573353	 0.113828
H	-1.1080563618	 0.4482977494	-0.1784224523	 0.070146
H	-0.2978822581	-1.5116955952	-1.3868253052	 0.109492
H	 1.234412881	-0.649230049	-1.6653307099	 0.091428
H	 0.6726663125	-0.2757794585	 2.1035422534	 0.091429
H	-0.7378969481	-1.2191712335	 1.5653439158	 0.109493
H	 1.6130468395	-4.4555208272	 1.6124238664	 0.104699
H	 1.8728088324	-4.6280898845	-0.1308274197	 0.104696
H	 3.945925646	-3.2697588839	 0.9431523867	 0.104758
H	 3.1041114397	-0.8035511442	 0.5734456449	 0.10666
81.0917	88.6256	194.2388	227.3961	294.7842	296.7737	376.4881	380.0238	483.5769	510.8243	735.3486	764.3979	779.8359	808.6971	827.2903	845.7596	899.4908	916.0697	937.3581	953.8738	963.4704	1015.7277	1031.7628	1035.7471	1053.4837	1065.6311	1119.7813	1138.5619	1174.2587	1196.0779	1209.5318	1219.0911	1260.8682	1272.8598	1289.2044	1367.9692	1371.6244	1380.2447	1413.0195	1462.5221	1484.4172	1494.3146	1497.6683	1519.4116	1687.6586	2974.0426	2989.9669	3023.5952	3050.0635	3051.2115	3058.8717	3090.8889	3092.0671	3114.7921	3116.7048	3206.3304	3231.0822
CC1CC2(C1)OCC=C2	C[C@H]1C[C@@]2(C1)OCC=C2	
InChI=1S/C8H12O/c1-7-5-8(6-7)3-2-4-9-8/h2-3,7H,4-6H2,1H3	InChI=1S/C8H12O/c1-7-5-8(6-7)3-2-4-9-8/h2-3,7H,4-6H2,1H3/t7-,8-
