20
gdb 39835	2.72326	1.80662	1.40169	1.391	81.84	-0.2151	0.0777	0.2928	997.7851	0.17296	-365.958373	-365.951212	-365.950267	-365.989553	30.304	
C	-0.1022428082	 1.4388325385	-0.0642066351	-0.313402
C	 1.2846923573	 0.8535532121	 0.0462860939	-0.038464
C	 1.8965621524	 0.5983932679	 1.408485979	-0.032503
C	 1.1411357054	 0.9067848236	 2.6496943517	-0.261593
N	 1.1457065549	-0.4661244183	 2.1097558361	-0.14592
C	 0.0055638265	-0.8133154121	 1.2518469818	 0.366356
C	-0.4259808932	-2.2544037799	 1.2764011867	-0.319921
C	-1.288922266	-1.1918410276	 1.921223152	-0.313052
C	 0.0800556128	-0.0594447118	-0.0594305534	-0.112605
H	-0.5559918258	 1.9282381737	 0.789317442	 0.11559
H	-0.3607549554	 1.8953827011	-1.0144934392	 0.11046
H	 1.9703616688	 0.9855482205	-0.7821361588	 0.087604
H	 2.9804553913	 0.5287077421	 1.444200241	 0.08851
H	 1.6712634313	 1.0157922107	 3.5926269878	 0.110135
H	 0.2299338676	 1.4929621493	 2.5856688696	 0.114601
H	-0.7693559588	-2.7061767199	 0.3513572462	 0.107159
H	 0.1309557394	-2.913740017	 1.9317339348	 0.121534
H	-1.3170093443	-1.1570722727	 3.0048183606	 0.117044
H	-2.2164421323	-0.9108543359	 1.4340002031	 0.112051
H	-0.1368690537	-0.6073231943	-0.9703907697	 0.086417
124.7261	204.703	290.7486	334.7262	355.9531	481.9618	501.541	567.3067	681.3549	686.0437	763.6085	790.1062	802.5772	815.3883	841.5351	904.2765	933.5958	935.9919	952.5593	976.9948	1001.0684	1034.3171	1051.5298	1054.3696	1072.291	1075.8625	1083.3842	1093.6655	1107.8812	1112.9027	1160.6855	1191.0081	1200.994	1234.3778	1285.1277	1291.985	1355.7618	1377.9115	1399.3582	1456.6344	1482.4125	1496.5652	1518.8029	3109.8344	3129.3358	3131.7814	3132.7782	3138.4022	3158.7447	3181.1551	3194.513	3213.9151	3216.5501	3229.1118
C1C2C3CN3C3(CC3)C12	C1[C@H]2[C@H]3CN3C3(CC3)[C@@H]12	
InChI=1S/C8H11N/c1-2-8(1)6-3-5(6)7-4-9(7)8/h5-7H,1-4H2	InChI=1S/C8H11N/c1-2-8(1)6-3-5(6)7-4-9(7)8/h5-7H,1-4H2/t5-,6+,7-,9?/m1/s1
