17
gdb 66960	2.58693	1.70397	1.27603	2.3842	75.56	-0.2634	0.0157	0.2791	1014.1834	0.137084	-380.834996	-380.82738	-380.826436	-380.867028	29.259	
C	-0.100181165	 1.4756970334	-0.0689355425	-0.506526
C	 0.070091176	-0.0061788649	 0.0395297414	 0.324527
C	 0.8509647494	-0.8365399575	-0.9299253949	-0.0745
C	 1.0937432589	-2.2150746339	-0.3433753359	-0.252412
C	-0.3087079311	-2.0239805788	 0.2575140031	-0.020941
C	-0.1981083749	-0.8627942196	 1.2789753976	-0.19659
C	 0.7785847406	-0.9310782474	 2.3583725899	 0.267107
N	 1.5719029006	-0.9916175755	 3.1973590404	-0.334941
N	-0.6511884881	-0.9833549154	-0.8513730873	-0.200152
H	 0.6997304142	 1.9982428052	 0.4666244554	 0.139695
H	-0.0700411077	 1.7876655542	-1.1169353825	 0.138116
H	-1.0600184786	 1.7931628232	 0.3509233082	 0.131123
H	 1.3218368976	-0.3854950285	-1.796004111	 0.103853
H	 1.0792841965	-2.977155889	-1.1260626557	 0.122637
H	 1.9380777945	-2.3819675575	 0.3313508441	 0.127635
H	-0.9825783527	-2.8555740111	 0.4473592236	 0.100149
H	-1.1854077903	-0.6205628771	 1.6836767862	 0.131219
126.5639	132.0815	187.6944	258.2274	298.6631	387.6769	429.356	536.8467	560.8552	625.9233	739.2616	762.5342	805.9891	858.4849	868.5146	934.5872	977.1183	987.5233	1001.6494	1031.9383	1043.0955	1058.7475	1096.468	1131.0685	1181.2581	1191.932	1242.8494	1262.6017	1269.4852	1323.4183	1344.281	1409.0187	1439.6497	1483.0174	1491.0134	1497.074	2352.2637	3035.9247	3060.1854	3073.9845	3103.1116	3115.2161	3118.5487	3153.8827	3183.4231
CC12C3CC(C1C#N)N23	C[C@@]12[C@H]3C[C@@H]([C@H]1C#N)N23	
InChI=1S/C7H8N2/c1-7-4(3-8)5-2-6(7)9(5)7/h4-6H,2H2,1H3	InChI=1S/C7H8N2/c1-7-4(3-8)5-2-6(7)9(5)7/h4-6H,2H2,1H3/t4-,5+,6-,7+,9?/m1/s1
