19
gdb 109621	2.67784	1.05387	0.98432	3.7948	77.72	-0.2469	0.0211	0.268	1301.6377	0.156807	-419.179299	-419.168938	-419.167994	-419.214765	36.599	
C	-0.5540871826	 0.6342813006	-2.0867737018	-0.319765
N	-0.1102412339	-0.3330492203	-1.0900007998	-0.10983
C	 1.2930309867	-0.4602838745	-0.7351718125	-0.06362
C	 2.3952010942	 0.3684938551	-1.3633902301	-0.096792
O	 2.6345824453	-0.0208677574	-2.7081318559	-0.410185
C	 0.2966243142	 0.1028405256	 0.2541358204	 0.106665
C	 0.3042506768	 1.5581375469	 0.7002458334	-0.466435
C	-0.1599765564	-0.793010563	 1.3058897406	 0.276467
N	-0.5014578602	-1.4885192629	 2.1640158198	-0.343035
H	-0.0663093301	 1.6164951934	-2.0499879131	 0.10755
H	-0.365244172	 0.2059968249	-3.0740616731	 0.147237
H	-1.6314072698	 0.7816990379	-1.9704337529	 0.133552
H	 1.5915452192	-1.4985686957	-0.5760782362	 0.103294
H	 2.1429899506	 1.4289417399	-1.4093641443	 0.113805
H	 3.3025042707	 0.2768814237	-0.7466558323	 0.105679
H	 2.9023673899	-0.9460913516	-2.7090723862	 0.289245
H	 0.6664858235	 2.2319612027	-0.0754349258	 0.132327
H	-0.7066447487	 1.8705079399	 0.9783993177	 0.146826
H	 0.9435843926	 1.6754214448	 1.5798036819	 0.147014
72.7331	96.9351	127.6031	142.8328	155.2751	199.2383	243.6802	287.1442	309.802	335.202	406.7602	430.8815	515.3208	573.4175	624.6826	690.189	764.7321	824.3839	929.4804	1009.0743	1038.0756	1080.9205	1088.1341	1116.899	1141.6975	1156.3341	1171.1082	1215.7491	1255.2808	1349.9231	1374.2435	1402.4741	1417.5116	1436.4006	1454.907	1479.6576	1486.9458	1498.2859	1503.4179	1514.6196	2353.668	2991.0995	3016.4348	3054.4082	3080.1138	3088.5696	3115.7383	3116.8714	3126.2887	3154.9508	3810.1602
CN1C(CO)C1(C)C#N	CN1[C@@H](CO)[C@]1(C)C#N	
InChI=1S/C6H10N2O/c1-6(4-7)5(3-9)8(6)2/h5,9H,3H2,1-2H3	InChI=1S/C6H10N2O/c1-6(4-7)5(3-9)8(6)2/h5,9H,3H2,1-2H3/t5-,6-,8?/m0/s1
