18
gdb 36629	6.11717	0.76784	0.6955	1.0453	81.04	-0.2499	0.0293	0.2792	1595.6149	0.147351	-401.931158	-401.92228	-401.921336	-401.965702	32.138	
C	 0.0663769188	-1.1546611197	-0.1495568046	-0.413642
C	 0.061576517	 0.0453318463	-0.1107424033	 0.29702
C	 0.0108207336	 1.4970430204	-0.067615501	-0.23712
O	 1.3495448775	 2.0061013236	 0.0712997541	-0.261384
C	 1.4418794669	 3.3412806587	 0.1218186396	 0.435538
N	 0.4567281963	 4.1424393606	 0.049939106	-0.304371
C	 0.9776607376	 5.5089789936	 0.1797848115	-0.154589
C	 2.5246704152	 5.4220896348	 0.0335039205	-0.22034
C	 2.8198254007	 3.9333029599	 0.3066263259	-0.322341
H	 0.0738819783	-2.2160728316	-0.18371055	 0.202137
H	-0.4387638265	 1.9085330308	-0.9786034219	 0.150211
H	-0.5990572743	 1.8513388155	 0.7713353424	 0.14937
H	 0.5220117364	 6.1572362566	-0.5755466702	 0.107313
H	 0.6819341774	 5.9114069387	 1.1578044578	 0.105443
H	 2.8204046468	 5.6821477983	-0.9870418979	 0.11139
H	 3.0538926101	 6.0967245095	 0.7097962693	 0.104967
H	 3.1668146783	 3.7450818256	 1.3298424721	 0.125729
H	 3.55507666	 3.4859931384	-0.3671477402	 0.124668
39.741	104.5325	112.8773	155.3057	235.4344	270.9361	333.3726	396.6085	520.0603	553.1865	610.9703	662.0091	681.9435	742.9709	815.504	890.2676	905.4469	926.9997	965.9097	1013.022	1013.7298	1025.478	1079.172	1084.6736	1173.9722	1216.317	1237.2373	1246.422	1279.9236	1322.6615	1336.9223	1353.8279	1418.4914	1477.6716	1488.1834	1496.1298	1513.0259	1718.0866	2250.1306	3018.1416	3038.1213	3041.7549	3056.7466	3069.7451	3070.3875	3095.5331	3113.7827	3506.2032
C#CCOC1=NCCC1	C#CCO[C]1[N]CCC1	
InChI=1S/C7H9NO/c1-2-6-9-7-4-3-5-8-7/h1H,3-6H2	InChI=1S/C7H9NO/c1-2-6-9-7-4-3-5-8-7/h1H,3-6H2
