17
gdb 12895	3.26214	1.81761	1.51659	4.4187	72.88	-0.276	0.0332	0.3092	900.4453	0.14274	-326.722808	-326.715256	-326.714312	-326.754379	28.621	
C	 0.006118826	 1.5513340834	 0.0185468485	-0.498672
C	-0.013451187	 0.0510518833	 0.0647138215	 0.336476
C	-1.2759494179	-0.8238498694	-0.0211608019	-0.289958
C	-0.6363690095	-1.8233173484	 0.998842027	-0.235152
C	 0.6093556954	-0.9347650605	 1.0492834054	-0.102602
C	 1.2009816698	-0.771125054	-0.3418681525	-0.225922
C	 1.1476725814	-1.8109805787	-1.3338948742	 0.298331
N	 1.0822380637	-2.6492191728	-2.1294131726	-0.356031
H	 0.9913859076	 1.9482845482	 0.2836181841	 0.122758
H	-0.2429827235	 1.9185477083	-0.9837919502	 0.1334
H	-0.7246275459	 1.9721217245	 0.7180369859	 0.12546
H	-2.1526298891	-0.317472242	 0.3887804735	 0.107877
H	-1.5238874649	-1.2157609688	-1.0111739946	 0.123241
H	-1.1722536156	-1.8456750643	 1.9493272167	 0.11054
H	-0.4812911384	-2.8490092845	 0.6540979076	 0.125562
H	 1.2333502156	-0.746152651	 1.9155506805	 0.097187
H	 2.1245817622	-0.2001228033	-0.3610084045	 0.127505
133.6487	146.4497	208.3599	219.7068	309.8067	370.9602	382.389	555.1215	568.0853	623.8397	765.5924	787.5563	793.3835	867.9807	934.516	941.6565	966.5914	979.3289	1007.6323	1051.2611	1103.1264	1126.485	1152.051	1216.9735	1238.291	1241.2879	1246.5936	1299.6251	1330.6196	1413.7422	1442.7897	1478.3536	1485.2623	1496.3636	1504.5957	2345.6213	3025.9559	3062.1822	3068.9899	3088.5041	3099.8506	3109.9584	3127.5309	3158.5385	3178.4457
CC12CCC1C2C#N	C[C@]12CC[C@H]1[C@H]2C#N	
InChI=1S/C7H9N/c1-7-3-2-5(7)6(7)4-8/h5-6H,2-3H2,1H3	InChI=1S/C7H9N/c1-7-3-2-5(7)6(7)4-8/h5-6H,2-3H2,1H3/t5-,6+,7-/m0/s1
