14
gdb 16051	3.81661	1.71829	1.42921	1.0595	64.98	-0.2382	0.0239	0.262	870.1191	0.105778	-382.450879	-382.443667	-382.442723	-382.482062	27.6	
O	 0.002158274	 1.3967707425	 0.0159739689	-0.427894
C	-0.0396440041	 0.0128446435	 0.0003863343	 0.067108
C	-0.4612825482	-0.7603818335	 1.1954012775	-0.022294
O	-1.4101514749	 0.0162222572	 1.9298212009	-0.304099
C	-2.365251807	-0.0561081887	 0.8296313955	-0.148855
C	-1.358065261	-0.7829971126	-0.0629689528	 0.090678
C	-1.6394018653	-1.7903446332	-1.0188696203	 0.153961
C	-1.8795664356	-2.6392481722	-1.8383364082	-0.393939
H	-0.3216168829	 1.6676814268	 0.8864511655	 0.300183
H	 0.7446812895	-0.4274417991	-0.6075382269	 0.12495
H	 0.0832916794	-1.5346764959	 1.7242054477	 0.120754
H	-3.2210061819	-0.6746103506	 1.1122914491	 0.129873
H	-2.6950716938	 0.9335082307	 0.4973797352	 0.121722
H	-2.0907684782	-3.3868919047	-2.5620110763	 0.187851
139.7422	159.6991	232.1997	261.3231	414.5633	446.8899	488.2202	516.6878	568.5158	586.0539	656.268	660.8212	786.1684	821.8313	913.5338	943.9616	989.1782	1023.6236	1050.9303	1066.976	1116.9617	1160.9445	1214.972	1257.9042	1289.6775	1316.9165	1388.9905	1458.2817	1508.9023	2231.4682	3046.8984	3108.5123	3170.3583	3182.1395	3502.4426	3748.7037
OC1C2OCC12C#C	O[C@H]1[C@H]2OC[C@@]12C#C	
InChI=1S/C6H6O2/c1-2-6-3-8-5(6)4(6)7/h1,4-5,7H,3H2	InChI=1S/C6H6O2/c1-2-6-3-8-5(6)4(6)7/h1,4-5,7H,3H2/t4-,5+,6-/m0/s1
