20
gdb 73636	2.3163	1.63162	1.43625	3.6037	78.47	-0.2392	0.0391	0.2782	1043.7114	0.17261	-403.200422	-403.192134	-403.191189	-403.232956	32.388	
C	-0.03266355	 1.5317675852	-0.0084560101	-0.47908
C	-0.0231417182	 0.0125797126	 0.0200641951	 0.166811
C	-1.4021363911	-0.6648832599	-0.0896194041	-0.255099
C	-1.2352832273	-2.0424575139	 0.5825108985	-0.222556
C	-0.2622556617	-1.7711203689	 1.7482304972	-0.218907
C	 0.7199245743	-0.7348094776	 1.1924582127	-0.001478
N	 1.6596658971	-1.233497776	 0.1779072964	-0.334279
C	 1.0416157663	-0.6495845607	-0.8999854726	 0.400866
O	 1.2595264483	-0.6712334991	-2.0830885581	-0.377685
H	 0.9710282839	 1.9427551104	 0.1405948562	 0.122563
H	-0.3956668962	 1.8906264251	-0.9770224193	 0.136584
H	-0.6880503933	 1.9377797097	 0.7699091035	 0.113688
H	-2.1383522572	-0.0637998449	 0.4591546493	 0.095844
H	-1.7418883669	-0.7314265063	-1.1271723683	 0.11747
H	-2.1844413829	-2.4706052483	 0.9143188312	 0.099035
H	-0.7896774709	-2.7532007272	-0.1213102344	 0.115384
H	-0.7998978515	-1.3243863263	 2.5937175519	 0.102497
H	 0.2352408173	-2.6723639902	 2.1204782764	 0.097239
H	 1.1977463529	-0.1135414416	 1.9551168721	 0.077669
H	 2.4030010669	-1.9160687221	 0.2267885362	 0.243433
94.477	179.1951	205.9847	232.4246	268.8144	275.9795	366.2988	417.8286	514.7167	568.7168	605.7526	678.354	741.9766	760.0538	834.6131	853.3182	889.4687	908.0035	938.2188	955.5803	995.0902	1041.2097	1056.915	1107.2207	1130.2044	1160.6825	1183.4736	1216.4911	1250.2843	1262.0573	1275.7422	1325.9937	1332.3406	1349.4649	1374.4834	1381.5459	1411.2941	1477.876	1486.0935	1491.7511	1495.8235	1505.111	1884.5386	3025.3913	3029.7874	3032.8205	3053.65	3068.4892	3081.9596	3090.8025	3097.3025	3103.9009	3104.6653	3592.8905
CC12CCCC1NC2=O	C[C@]12CCC[C@H]1NC2=O	
InChI=1S/C7H11NO/c1-7-4-2-3-5(7)8-6(7)9/h5H,2-4H2,1H3,(H,8,9)	InChI=1S/C7H11NO/c1-7-4-2-3-5(7)8-6(7)9/h5H,2-4H2,1H3,(H,8,9)/t5-,7+/m1/s1
