17
gdb 12083	3.966	1.60501	1.47624	3.7613	63.52	-0.2268	0.0535	0.2803	902.0448	0.141843	-400.936423	-400.92873	-400.927786	-400.968119	29.616	
O	-0.1034669204	 1.4491586935	-0.0392735784	-0.435104
C	 0.0421887675	 0.0332925707	 0.0639974984	-0.148843
C	-1.3678225605	-0.5369795276	-0.019927976	 0.42957
O	-2.1600150694	 0.0425344522	 0.9950878163	-0.489195
C	-2.0919892336	-0.5787135564	-1.4018727242	-0.219155
N	-2.3664779031	-2.0586389355	-1.2752154093	-0.125083
C	-1.0424765266	-2.6968484027	-1.2255189985	-0.249862
C	-1.5466309304	-2.0512077606	 0.0041560814	-0.084787
H	 0.7275369002	 1.8659498194	 0.2040884464	 0.297192
H	 0.6789222189	-0.3584172734	-0.7402795344	 0.090353
H	 0.4847122306	-0.2524051033	 1.0295937231	 0.098868
H	-1.9347952307	 0.9824084457	 0.9925469623	 0.286794
H	-3.0276184352	-0.0193014204	-1.3772918265	 0.119343
H	-1.516471527	-0.3127099373	-2.2949976816	 0.095844
H	-1.0904968922	-3.7808738761	-1.2699829024	 0.123542
H	-0.219552239	-2.2611401602	-1.7885949091	 0.107844
H	-1.854356859	-2.5997825782	 0.8882145525	 0.10268
104.5984	167.5485	221.8273	257.45	315.2216	393.6938	439.9008	452.5589	484.4652	507.6644	681.617	754.7774	788.2583	859.1723	904.5053	944.38	968.4621	1000.3091	1052.5829	1054.7867	1087.5054	1113.4223	1117.7493	1144.2482	1190.0099	1211.0368	1221.0071	1255.6185	1277.455	1287.2011	1353.9234	1422.6764	1454.3567	1478.0921	1502.4309	1509.7528	2992.5887	3037.1217	3045.1451	3103.2557	3132.7279	3169.8245	3193.0581	3765.1107	3842.7156
OCC1(O)CN2CC12	OC[C@@]1(O)CN2C[C@@H]12	
InChI=1S/C5H9NO2/c7-3-5(8)2-6-1-4(5)6/h4,7-8H,1-3H2	InChI=1S/C5H9NO2/c7-3-5(8)2-6-1-4(5)6/h4,7-8H,1-3H2/t4-,5-,6?/m0/s1
