13
gdb 20614	3.55963	1.94393	1.26719	3.768	69.97	-0.242	-0.0329	0.2092	894.3559	0.095543	-357.621106	-357.613688	-357.612743	-357.653463	26.454	
C	 0.0221303218	 1.5140571352	 0.116941594	-0.506392
C	 0.060235468	 0.0287057183	-0.0025941116	 0.170683
C	 0.0040058838	-0.7608143338	-1.1426244165	 0.187695
N	 0.0788568819	-2.0323411662	-0.6509406389	-0.281781
N	 0.1738550375	-2.0391961049	 0.6829522955	-0.107126
N	 0.1627932179	-0.7960386225	 1.0764090133	-0.229738
C	-0.1028537548	-0.4524080584	-2.5101195891	 0.315767
C	-0.1944374475	-0.1857137196	-3.6810537942	-0.471205
H	 0.9290768247	 1.8892091316	 0.6013114465	 0.147192
H	-0.0625466307	 1.9785186108	-0.867961384	 0.135865
H	-0.8287644805	 1.8340364823	 0.7264419838	 0.147193
H	 0.0697890214	-2.9011057758	-1.1621642784	 0.286067
H	-0.2752805736	 0.054576723	-4.7125317403	 0.20578
42.9158	136.9891	170.0603	271.4217	319.92	469.0362	520.8388	561.565	577.6597	599.6943	683.4248	709.9615	717.7748	731.7092	989.4036	1031.1471	1065.2332	1106.6993	1203.3482	1221.102	1321.0072	1359.5124	1413.4964	1478.9526	1486.5458	1487.4512	1596.7948	2234.6045	3044.275	3102.1454	3131.4697	3499.336	3653.0419
CC1=C(NN=N1)C#C	Cc1c([nH]nn1)C#C	
InChI=1S/C5H5N3/c1-3-5-4(2)6-8-7-5/h1H,2H3,(H,6,7,8)	InChI=1S/C5H5N3/c1-3-5-4(2)6-8-7-5/h1H,2H3,(H,6,7,8)
