18
gdb 49524	4.16539	1.07246	0.95781	2.501	78.56	-0.2452	-0.0265	0.2188	1231.3069	0.147986	-401.864732	-401.857015	-401.856071	-401.897216	29.909	
O	 0.1556901546	-0.1240306716	-0.5167425093	-0.255848
C	 0.0735648804	 1.0345930545	-0.185828311	 0.119303
C	 1.2680032554	 1.9358819993	-0.0916835644	-0.046806
C	 1.2084013994	 3.4007195342	-0.6705299674	-0.168916
C	 0.3315517995	 3.813639627	 0.555467339	-0.245887
C	 1.4493999949	 2.8970529172	 1.1437142285	-0.143673
C	 2.4197369276	 3.6785002967	 0.237645116	 0.470978
C	 3.8702314494	 3.7008850166	 0.028497036	-0.357957
N	 3.127163918	 4.8975197438	 0.5390606769	-0.411189
H	-0.9148699801	 1.4747203493	 0.063549296	 0.07526
H	 2.1570097637	 1.3648084042	-0.3698636061	 0.090235
H	 1.0741714125	 3.6758513125	-1.7176849696	 0.085136
H	 0.3836534088	 4.8642504481	 0.8468929197	 0.113181
H	-0.6944862799	 3.4497291774	 0.5892838722	 0.104312
H	 1.5946518177	 2.5977098437	 2.1810443524	 0.092666
H	 4.5470445954	 3.2519912301	 0.7501569709	 0.127584
H	 4.2481965218	 3.7273419795	-0.9906716966	 0.118553
H	 3.017013121	 5.5822946176	-0.205751033	 0.233069
73.8259	140.6113	211.6203	276.4162	308.812	367.3536	417.3033	465.6783	613.2701	643.0396	725.7883	799.4037	856.6678	894.6443	898.2644	930.6694	939.2629	969.2276	1005.405	1028.5152	1031.1724	1064.693	1079.14	1109.9623	1116.9435	1144.0318	1156.4461	1194.8971	1198.2307	1204.3357	1234.8034	1254.9451	1259.5697	1333.3258	1437.7383	1452.5571	1521.2486	1541.468	1810.9557	2900.9382	3082.5435	3090.3889	3106.8807	3107.1264	3127.3006	3149.9931	3191.1983	3489.8097
O=CC1C2CC1C21CN1	O=C[C@H]1[C@H]2C[C@@H]1[C@]12CN1	
InChI=1S/C7H9NO/c9-2-4-5-1-6(4)7(5)3-8-7/h2,4-6,8H,1,3H2	InChI=1S/C7H9NO/c9-2-4-5-1-6(4)7(5)3-8-7/h2,4-6,8H,1,3H2/t4-,5+,6-,7+
