21
gdb 109557	2.45595	1.28621	0.96759	3.5183	78.62	-0.2437	-0.0248	0.2189	1287.5895	0.180979	-424.237964	-424.228037	-424.227093	-424.272832	36.481	
C	-0.3307796473	 1.5313014807	-0.0564189464	-0.397622
C	-0.0404585275	 0.0327946816	-0.0279969781	-0.06164
C	 1.2344102154	-0.4156727705	-0.8491576652	-0.086079
C	 1.8331541641	 0.4269623825	-1.9657979075	-0.415762
C	 1.9545649203	-0.4995800737	 0.4976609449	 0.382935
O	 3.1033285885	-0.386533069	 0.8422413999	-0.332775
C	 0.6453234235	-0.4999947044	 1.2853640541	-0.11753
C	 0.6895532965	 0.2720711368	 2.6049363685	-0.089891
O	 1.6353589704	-0.3147919749	 3.4789353066	-0.424624
H	 0.5481925116	 2.1310142036	 0.2021733104	 0.125383
H	-0.6594809533	 1.8436567098	-1.0526526049	 0.120895
H	-1.1251865444	 1.7896517811	 0.6509945607	 0.123507
H	-0.943316173	-0.519373065	-0.2981386743	 0.078232
H	 1.0723305377	-1.4432243658	-1.2006597705	 0.106942
H	 2.0049717009	 1.4585063317	-1.6468736845	 0.126345
H	 2.7981031041	 0.0123439884	-2.2720504762	 0.13618
H	 1.1793306862	 0.445916817	-2.8433315783	 0.120763
H	 0.3387750217	-1.5323586811	 1.4895821728	 0.109898
H	 0.9212277706	 1.3314866057	 2.4180099338	 0.089467
H	-0.2793541579	 0.2363044245	 3.1144037518	 0.108916
H	 2.4783939618	-0.3188754991	 3.0055671723	 0.296461
59.938	115.7205	154.2236	162.5244	197.3339	226.2353	231.1503	271.1388	342.9643	433.3943	461.7524	523.717	538.8514	580.8195	727.3257	758.3058	802.8817	861.0384	945.6896	953.6579	993.7928	1021.4683	1046.4748	1068.9446	1086.882	1132.0653	1150.1099	1163.8391	1173.6862	1214.9743	1247.5281	1264.6373	1323.7282	1348.1805	1367.0177	1390.6789	1407.2362	1418.6963	1447.4293	1489.1325	1490.0995	1502.2191	1502.8055	1515.062	1850.8029	2989.1921	3025.5352	3034.0614	3043.1282	3047.8314	3068.0076	3075.765	3102.7517	3103.5953	3110.8711	3119.2028	3754.5732
CC1C(C)C(=O)C1CO	C[C@H]1[C@@H](C)C(=O)[C@H]1CO	
InChI=1S/C7H12O2/c1-4-5(2)7(9)6(4)3-8/h4-6,8H,3H2,1-2H3	InChI=1S/C7H12O2/c1-4-5(2)7(9)6(4)3-8/h4-6,8H,3H2,1-2H3/t4-,5+,6-/m0/s1
