18
gdb 114295	2.28045	1.59281	1.15959	4.6192	76.2	-0.2575	0.0344	0.2919	1110.6885	0.147559	-401.921057	-401.912539	-401.911595	-401.95453	31.357	
C	 0.037873641	 1.2942830418	-0.1612964571	-0.237831
O	-0.0530948341	 0.0145758511	 0.4273886743	-0.232337
C	-1.2614979253	-0.6334774077	 0.1707561335	 0.141984
C	-1.5600888881	-1.2170578749	-1.2632879663	-0.297325
C	-1.7465296158	-2.5905376205	-0.6099613961	-0.067766
C	-0.4607426976	-3.0254550649	 0.0562978368	-0.174231
C	 0.8402455893	-2.727430099	-0.4877876101	 0.310851
N	 1.8823668645	-2.5407690053	-0.9533746088	-0.355076
C	-1.3642149946	-2.0320494444	 0.7603332761	-0.108191
H	 1.0096535477	 1.7074447902	 0.1156728683	 0.137609
H	-0.0265736367	 1.2466557224	-1.257794465	 0.114741
H	-0.7554233358	 1.9646150699	 0.2055594429	 0.102985
H	-2.1109397584	-0.0157325815	 0.5013302114	 0.078003
H	-2.470730041	-0.8117568548	-1.7067716922	 0.110956
H	-0.7418043584	-1.1519610186	-1.9850223879	 0.131511
H	-2.5088666061	-3.3180069327	-0.8575107534	 0.105876
H	-0.5115239962	-4.0157927039	 0.4998465361	 0.135558
H	-1.7524297444	-2.2725744373	 1.7423562874	 0.102682
75.9969	127.4533	135.3753	192.2576	192.5486	293.0241	366.7858	449.5844	478.1126	562.2822	610.9339	736.3587	772.9397	809.5028	835.2363	921.9827	949.2793	973.264	1003.3708	1028.8318	1044.9643	1075.4589	1086.7555	1138.4095	1174.2969	1179.5407	1187.3356	1225.7678	1246.8449	1265.3586	1312.5569	1337.7363	1389.2181	1413.7808	1480.9478	1485.214	1489.3375	1506.1855	2354.3778	2974.7911	2982.5765	3031.5128	3069.6583	3127.2155	3129.4577	3157.0093	3187.8281	3201.4384
COC1CC2C(C#N)C12	CO[C@H]1C[C@H]2[C@@H](C#N)[C@@H]12	
InChI=1S/C7H9NO/c1-9-6-2-4-5(3-8)7(4)6/h4-7H,2H2,1H3	InChI=1S/C7H9NO/c1-9-6-2-4-5(3-8)7(4)6/h4-7H,2H2,1H3/t4-,5+,6-,7-/m0/s1
