19
gdb 112789	2.07732	1.26551	0.91761	2.0802	72.35	-0.2518	-0.0402	0.2116	1306.6769	0.157134	-460.146137	-460.136479	-460.135535	-460.182198	34.218	
C	 0.4140907358	 1.3763594817	-0.2901994371	-0.410722
C	 0.1413281878	-0.0656579552	 0.094302012	 0.14671
O	 0.8472448417	-1.0086951237	-0.7474850388	-0.320082
C	 1.4617843368	-1.6524258704	 0.3933210646	 0.111172
C	 2.9737472268	-1.6657791629	 0.229469319	-0.077052
O	 3.3146142782	-2.3908350875	-0.9346162906	-0.417696
C	 0.7699324537	-0.6744721635	 1.3910841283	-0.206679
C	 1.6314318672	 0.2063002602	 2.2572908356	 0.153778
O	 1.5072361588	 0.2862431348	 3.4539394471	-0.250646
H	 1.4830041439	 1.6041432865	-0.2938586699	 0.12494
H	 0.0280493736	 1.5617328479	-1.2972775111	 0.13611
H	-0.0910499444	 2.0613397315	 0.3993075526	 0.129843
H	-0.9382334379	-0.2589745592	 0.0540716795	 0.094105
H	 1.1055804375	-2.6852989007	 0.4924698674	 0.097858
H	 3.3640249159	-0.6376233046	 0.1861409349	 0.085892
H	 3.4460842353	-2.1726305272	 1.0785380466	 0.118147
H	 2.8177143625	-1.9878867127	-1.6573760559	 0.295831
H	 0.0427263718	-1.1608880418	 2.0417357706	 0.104337
H	 2.408012085	 0.8018121269	 1.7317164453	 0.084154
31.9341	46.693	104.3247	162.8463	223.1756	254.5297	281.2768	357.2777	429.5025	433.4757	452.5196	463.0174	506.5677	750.2887	824.1482	894.5304	900.5114	928.0047	997.3708	1017.6195	1045.2337	1082.7398	1096.3424	1132.3133	1144.422	1164.0158	1211.0011	1228.2972	1279.9801	1297.5538	1328.4202	1346.3125	1381.9157	1404.4789	1414.9711	1434.2658	1441.0603	1481.7231	1497.5402	1499.7611	1818.6311	2898.1528	2989.1275	3018.2717	3031.5011	3040.1954	3073.1442	3110.5961	3112.5683	3123.8173	3786.0699
CC1OC(CO)C1C=O	C[C@H]1O[C@@H](CO)[C@H]1C=O	
InChI=1S/C6H10O3/c1-4-5(2-7)6(3-8)9-4/h2,4-6,8H,3H2,1H3	InChI=1S/C6H10O3/c1-4-5(2-7)6(3-8)9-4/h2,4-6,8H,3H2,1H3/t4-,5+,6+/m1/s1
