17
gdb 77982	2.64211	1.56173	1.33738	2.7494	67.87	-0.239	-0.0089	0.2301	999.4925	0.135283	-458.936305	-458.928064	-458.92712	-458.968463	32.521	
O	-0.0308120356	 1.4246009241	 0.0100408231	-0.429037
C	-0.0640062677	 0.0203431492	-0.0656612422	 0.022105
C	-1.3746923318	-0.7410780029	-0.0479684437	-0.175225
C	-2.6330613045	 0.0821261948	-0.3528418624	 0.087214
O	-2.8752047506	 1.1338304886	 0.5682331416	-0.44246
C	-2.4011798341	 0.5596957809	-1.7852019226	-0.115698
C	-1.2670996503	 0.0823757035	-2.3006593003	-0.190858
C	-0.5112807031	-0.7410327293	-1.2954927481	 0.309681
O	 0.1589424995	-1.8928830981	-1.6994829767	-0.461765
H	-0.2599244344	 1.7706503541	-0.8624034709	 0.287955
H	 0.7522854482	-0.4279632987	 0.4931004173	 0.113961
H	-1.4444806662	-1.62007828	 0.580438843	 0.102508
H	-3.5295280837	-0.5483598642	-0.3110728445	 0.098379
H	-2.0287908149	 1.5876632399	 0.6841788503	 0.291755
H	-3.0978884393	 1.2313246565	-2.2738241147	 0.111104
H	-0.8847755476	 0.2662353136	-3.2994547696	 0.104116
H	 1.0261843062	-1.6395074819	-2.0342470896	 0.286264
150.9516	188.1757	215.5042	272.7005	289.6017	308.4287	324.8303	384.8392	486.9275	543.4995	566.9504	615.3865	660.7839	741.8304	769.8269	793.0837	869.3229	914.6389	945.0823	953.0028	978.8676	1041.7684	1057.631	1072.813	1100.1892	1127.4806	1205.1661	1237.583	1268.575	1303.6112	1307.1061	1327.8154	1351.5489	1376.7904	1443.2267	1453.6187	1663.5678	3034.2903	3157.5384	3179.9875	3194.6161	3210.4012	3737.0888	3758.6339	3797.259
OC1C2C(O)C=CC12O	O[C@H]1[C@H]2[C@@H](O)C=C[C@@]12O	
InChI=1S/C6H8O3/c7-3-1-2-6(9)4(3)5(6)8/h1-5,7-9H	InChI=1S/C6H8O3/c7-3-1-2-6(9)4(3)5(6)8/h1-5,7-9H/t3-,4+,5-,6-/m0/s1
