17
gdb 41223	2.47244	1.92562	1.1616	1.1972	76.46	-0.215	0.0163	0.2314	1031.1293	0.13673	-421.799561	-421.792101	-421.791157	-421.831638	29.087	
C	-0.0442294751	 1.1816244724	-0.3253805808	-0.108214
O	 1.2818768912	 0.6151954494	-0.1669023795	-0.278479
C	 1.6118602686	-0.048117508	 0.9799865221	 0.425248
C	 2.8014540985	-0.6367709676	 1.0998216031	-0.449336
C	-0.7995365537	-0.2350943141	 1.3785250116	 0.462147
O	-1.2391425387	-1.2419695797	 2.1985914489	-0.284595
C	 0.0968179043	-1.3229408106	 2.8121368824	-0.110241
C	 0.5319132599	-0.0549408434	 2.0318407958	-0.286548
C	-1.1449396922	 0.2987880894	 0.2178633182	-0.305914
H	-0.0383248077	 2.1772771117	 0.1417524291	 0.1131
H	-0.1521471951	 1.3254216408	-1.4024072507	 0.127033
H	 3.5253211254	-0.6116003697	 0.2956109673	 0.10893
H	 3.067369036	-1.1453195499	 2.0169315034	 0.099734
H	 0.0367852226	-1.2437400712	 3.8991585135	 0.124463
H	 0.6004047985	-2.2441107126	 2.5101551244	 0.134019
H	 0.5949657429	 0.831898137	 2.6729781667	 0.118859
H	-2.0316374053	 0.069613396	-0.3565235755	 0.109794
78.9326	150.0229	239.6286	265.1998	349.5153	447.8676	482.3624	523.773	574.6747	707.621	723.2387	745.0612	780.6999	786.8923	829.6291	869.6107	936.0487	951.4026	990.2002	1032.8314	1043.8463	1058.9175	1084.2775	1156.2232	1188.1539	1198.2596	1236.2913	1264.6916	1290.5836	1317.9611	1371.4144	1402.9745	1428.8619	1503.0704	1506.1258	1719.6611	1777.7859	2991.7875	3037.4695	3068.8406	3105.4828	3135.8935	3174.8181	3224.0692	3264.7018
C1OC23CC4(OCC24)C13	C1OC(=C)[C@H]2C(=C1)OC2	
InChI=1S/C7H8O2/c1-4-6(8-1)3-7(4)5(6)2-9-7/h4-5H,1-3H2	InChI=1S/C7H8O2/c1-5-6-4-9-7(6)2-3-8-5/h2,6H,1,3-4H2/t6-/m0/s1
