12
gdb 5442	3.76536	1.92682	1.27593	4.3617	63.9	-0.2128	-0.0034	0.2094	862.5541	0.085548	-377.568864	-377.562065	-377.561121	-377.599795	25.267	
N	 0.0669575273	 1.3413058157	 0.1929412905	-0.598958
C	-0.0444356096	-0.0137747574	 0.0690467987	 0.335902
C	-1.1366953751	-0.8556279681	 0.0245346118	 0.082505
C	-0.5898575713	-2.1940443752	-0.0224576701	-0.276192
C	 0.7506248835	-2.0601876758	-0.0111099675	-0.02037
O	 1.0961282102	-0.7201569026	 0.0470216609	-0.171193
C	-2.4814215858	-0.4365868214	 0.0150801977	 0.173783
N	-3.5780106329	-0.0569191326	 0.0028813478	-0.361354
H	 0.9136901211	 1.7437467905	-0.1813447051	 0.271203
H	-0.7693526361	 1.8586123264	-0.0347659896	 0.282145
H	-1.1530079571	-3.1119946346	-0.0647489862	 0.133849
H	 1.5790270758	-2.7455197948	-0.0368961288	 0.148679
133.1384	163.7109	274.4151	295.275	386.867	528.0245	530.3601	553.9457	603.9312	614.6233	685.8419	738.771	753.1963	836.0541	906.9446	1016.2636	1058.1931	1160.9263	1190.496	1288.1223	1320.1368	1484.3364	1583.3906	1610.2076	1670.7293	2329.4531	3271.3625	3306.8916	3573.6005	3682.0612
NC1=C(C=CO1)C#N	Nc1c(cco1)C#N	
InChI=1S/C5H4N2O/c6-3-4-1-2-8-5(4)7/h1-2H,7H2	InChI=1S/C5H4N2O/c6-3-4-1-2-8-5(4)7/h1-2H,7H2
