14
gdb 23197	3.24789	1.18725	0.94073	3.623	68.06	-0.2625	-0.0516	0.2109	1179.9226	0.098028	-473.733777	-473.725594	-473.724649	-473.766978	29.518	
O	-0.2241463494	 1.4350523367	 0.0229946736	-0.379675
N	 0.012003763	 0.055980833	 0.0013087875	-0.24802
C	-1.0703075492	-0.5952444175	-0.0681194263	 0.382836
C	-2.5699421249	-0.2951436862	-0.0071593076	-0.351308
C	-2.7713485147	-1.8254252381	 0.0513528352	-0.018824
O	-2.2011501514	-2.3851141636	-1.1067333206	-0.247552
C	-1.2892012066	-2.0792039311	-0.032971876	 0.22649
C	-0.483612063	-3.1627162569	 0.5826228015	 0.045319
O	-0.7208489539	-4.3359750898	 0.4530807676	-0.248841
H	 0.6673017306	 1.7973555478	 0.0780655004	 0.314259
H	-2.8424673954	 0.2362304528	 0.9088926856	 0.141661
H	-3.0195415302	 0.1981731036	-0.8711833677	 0.145237
H	-3.5114841178	-2.4042551388	 0.5909475207	 0.138407
H	 0.3583386728	-2.789271232	 1.201857196	 0.100012
89.8753	108.1257	160.108	210.9531	240.738	358.2945	382.4625	431.1698	461.7385	530.982	642.8609	732.5447	739.0656	824.9043	861.1911	905.391	954.6339	1007.6158	1021.8665	1047.6728	1060.9185	1125.2923	1202.3804	1241.4855	1255.444	1380.4822	1412.5933	1435.038	1457.6995	1791.3027	1819.1355	2919.9535	3072.0842	3129.9969	3201.6336	3811.8399
ON=C1CC2OC12C=O	ON=C1C[C@H]2O[C@@]12C=O	
InChI=1S/C5H5NO3/c7-2-5-3(6-8)1-4(5)9-5/h2,4,8H,1H2	InChI=1S/C5H5NO3/c7-2-5-3(6-8)1-4(5)9-5/h2,4,8H,1H2/t4-,5+/m1/s1
