18
gdb 7085	5.69365	0.95205	0.86705	1.7829	76.38	-0.2463	-0.0124	0.2339	1343.44	0.15241	-381.160474	-381.151057	-381.150112	-381.196197	32.401	
C	-1.2981065244	 0.2670303042	 0.5601708111	-0.358081
C	-0.1900401829	-0.7913631376	 0.5324706077	-0.140104
N	 0.2199909551	-1.0516398101	-0.830509072	-0.278973
C	 1.3987476067	-0.8484605504	-1.2614087128	 0.367285
C	 2.6181329924	-0.3346738143	-0.5417230732	-0.464031
N	 1.5653944523	-1.1623529314	-2.629508807	-0.315968
C	 2.6664862899	-1.0828882794	-3.4414131526	 0.159505
O	 3.7754386961	-0.7077120064	-3.1348621696	-0.311939
H	-0.9235207219	 1.2307618064	 0.2009384862	 0.116795
H	-2.1291242253	-0.0330963768	-0.0840873482	 0.126187
H	-1.675370857	 0.4032175977	 1.5784600376	 0.111463
H	 0.6261855272	-0.484619716	 1.2015600328	 0.090646
H	-0.5886311984	-1.7310227955	 0.9371454805	 0.109129
H	 2.3911777397	-0.1012157426	 0.4972607622	 0.127315
H	 3.4224027868	-1.0730264068	-0.5805893155	 0.159671
H	 3.0057316383	 0.5566087768	-1.039714179	 0.160583
H	 0.7077733781	-1.5009522523	-3.0455050948	 0.253611
H	 2.4113512174	-1.4197529055	-4.4656962736	 0.086907
20.4602	54.4536	127.8634	154.9849	193.3887	246.5871	269.5148	341.1874	372.7796	466.2719	514.2711	564.7517	709.608	750.9279	810.9366	846.6796	902.7205	1002.5302	1029.2854	1057.6359	1087.3995	1121.5375	1144.9933	1179.5816	1299.718	1305.9564	1370.727	1403.1134	1414.6518	1447.4565	1457.0027	1471.8032	1488.6524	1495.2073	1502.129	1518.8507	1742.4143	1811.805	2938.4784	2998.4215	3033.0124	3039.4376	3071.5533	3110.2647	3120.3643	3131.7056	3165.5863	3591.5697
CCN=C(C)NC=O	CCN=C(C)NC=O	
InChI=1S/C5H10N2O/c1-3-6-5(2)7-4-8/h4H,3H2,1-2H3,(H,6,7,8)	InChI=1S/C5H10N2O/c1-3-6-5(2)7-4-8/h4H,3H2,1-2H3,(H,6,7,8)
