15
gdb 48677	3.62034	1.21839	1.08583	3.3912	66.79	-0.2735	-0.0463	0.2272	1091.7355	0.112905	-457.805317	-457.797837	-457.796893	-457.837628	27.701	
O	-0.0819868296	 0.0152551596	 0.2149447756	-0.257109
C	 0.0123606375	 1.188814151	-0.0467068827	 0.085249
C	 1.2889387618	 1.935723378	-0.0495201001	 0.212253
C	 1.2926677715	 3.4230334303	 0.2140006225	-0.335072
C	 1.631481603	 2.9266814008	-1.1603571485	-0.240656
C	 3.0951817682	 2.7269590621	-1.4347011697	 0.465448
O	 3.7545743723	 3.2265864269	-2.2968320246	-0.335666
O	 3.6129578528	 1.8583254107	-0.518370522	-0.231301
C	 2.5873411658	 1.2045746174	 0.2487838728	-0.152193
H	-0.8793251543	 1.8023340396	-0.3080138573	 0.081939
H	 0.3284969362	 3.907857378	 0.3269384813	 0.141021
H	 2.0817804153	 3.819564702	 0.8443856741	 0.149753
H	 0.9817774745	 3.1417710594	-1.9980046912	 0.135677
H	 2.8751296841	 1.2468558005	 1.3026421348	 0.132881
H	 2.5163525109	 0.1577271236	-0.0589116648	 0.147777
87.0889	166.5712	194.8464	206.1711	331.4066	359.0738	468.6603	488.345	619.8275	694.2262	751.3092	783.273	818.4001	849.1272	940.8321	970.7234	1002.8321	1025.7845	1061.1056	1074.7228	1080.4988	1099.3277	1176.5237	1214.772	1250.7504	1314.8767	1362.3901	1406.1607	1436.0907	1481.8717	1520.9703	1813.0521	1886.4673	2878.6765	3063.4764	3111.3859	3131.3007	3213.3212	3223.1503
O=CC12CC1C(=O)OC2	O=C[C@]12C[C@H]1C(=O)OC2	
InChI=1S/C6H6O3/c7-2-6-1-4(6)5(8)9-3-6/h2,4H,1,3H2	InChI=1S/C6H6O3/c7-2-6-1-4(6)5(8)9-3-6/h2,4H,1,3H2/t4-,6-/m0/s1
