15
gdb 43974	3.09916	1.71695	1.53554	4.4561	68.64	-0.2573	-0.0167	0.2406	893.3678	0.113977	-420.615256	-420.608729	-420.607785	-420.646043	26.215	
O	-0.1032035268	 0.0853896665	-0.0895161466	-0.328972
C	 0.0027402713	 1.2603895886	 0.042675999	 0.418328
O	-1.0228793775	 2.1767707848	 0.2812122551	-0.286493
C	-0.0797697905	 3.2670613391	 0.0324768329	 0.346422
C	 0.9591083377	 3.2923650627	 1.0897876091	-0.352307
C	 1.0926230867	 2.3008938368	-0.0708349383	 0.002255
C	 1.87809296	 2.6420182695	-1.3297225217	-0.358443
C	 1.0439041178	 3.7741663238	-1.9278561676	-0.048446
C	-0.0395825548	 4.0863074317	-1.2014201719	-0.173369
H	 1.6647873722	 4.116402013	 1.0692683214	 0.139506
H	 0.7121799305	 2.914861497	 2.0760906071	 0.144014
H	 2.9059818785	 2.9609468116	-1.1207439672	 0.127074
H	 1.9519782842	 1.7856273786	-2.0093577781	 0.141531
H	 1.3425621036	 4.2898694708	-2.8359377638	 0.111492
H	-0.7616146129	 4.8561408655	-1.4432321895	 0.117407
124.4392	252.6332	261.3929	409.707	445.0825	468.7903	618.7299	648.4404	683.1656	701.8184	779.0583	806.8926	853.3412	866.8542	904.5119	920.4518	944.116	947.2402	982.8345	1009.1979	1074.172	1108.856	1130.6635	1169.09	1208.8716	1268.7437	1317.9878	1349.6234	1385.1382	1468.5759	1479.7833	1638.4798	1933.5779	3039.2094	3071.4939	3133.1006	3178.3263	3217.7724	3227.8323
O=C1OC23CC12CC=C3	O=C1O[C@@]23C[C@@]12CC=C3	
InChI=1S/C7H6O2/c8-5-6-2-1-3-7(6,4-6)9-5/h1,3H,2,4H2	InChI=1S/C7H6O2/c8-5-6-2-1-3-7(6,4-6)9-5/h1,3H,2,4H2/t6-,7-/m0/s1
