18
gdb 102235	2.38843	1.01169	0.86451	2.7335	75.93	-0.2475	0.024	0.2715	1415.9016	0.14473	-439.080241	-439.069752	-439.068808	-439.117265	36.614	
C	-0.0224413825	 1.4995600398	-0.0168223729	-0.486091
C	 0.2177227225	-0.0004132677	 0.0285960868	 0.416258
O	 0.8984455349	-0.5276364437	 0.8897577203	-0.372916
N	-0.3698365487	-0.7088533004	-0.9826457951	-0.298672
C	-0.2499880337	-2.1532834087	-1.0906222866	-0.157255
C	-1.6541709366	-2.7842810312	-1.19160987	-0.079668
O	-2.3546950755	-2.2925483782	-2.319899938	-0.424359
C	 0.5462198421	-2.5495102551	-2.2597621762	 0.306011
C	 1.1287558531	-2.8922010176	-3.2546147384	-0.45805
H	 0.8886774861	 1.991401636	-0.3715762403	 0.154423
H	-0.85034788	 1.7885703801	-0.6693582206	 0.117081
H	-0.2156407488	 1.8540435518	 0.9973222985	 0.153435
H	-0.974926578	-0.2580302737	-1.6500531829	 0.252973
H	 0.2458021369	-2.4840821497	-0.1717002071	 0.149941
H	-1.5642021452	-3.8791200645	-1.2080008951	 0.106716
H	-2.2361232185	-2.492839137	-0.313022969	 0.12355
H	-1.8739571289	-2.5907470846	-3.1019758696	 0.291145
H	 1.6849593809	-3.1888314854	-4.109809254	 0.205477
37.0288	53.211	77.2077	110.3378	136.0477	199.2706	252.4962	317.7166	384.4965	413.6503	450.7739	499.8087	558.698	612.6123	643.9449	648.2428	658.1025	694.7215	847.8887	915.3613	984.0559	1001.0582	1032.8134	1051.7987	1097.716	1130.8437	1223.8311	1243.3346	1289.9973	1354.1635	1386.558	1396.8739	1421.7515	1469.1522	1486.4303	1495.6459	1519.8254	1778.1392	2228.3464	3013.3345	3050.0758	3071.9136	3100.839	3120.1542	3143.925	3500.2275	3644.0897	3780.5766
CC(=O)NC(CO)C#C	CC(=O)N[C@@H](CO)C#C	
InChI=1S/C6H9NO2/c1-3-6(4-8)7-5(2)9/h1,6,8H,4H2,2H3,(H,7,9)	InChI=1S/C6H9NO2/c1-3-6(4-8)7-5(2)9/h1,6,8H,4H2,2H3,(H,7,9)/t6-/m1/s1
