15
gdb 16543	3.27069	2.20533	1.53962	4.4593	62.38	-0.2389	0.0107	0.2496	826.3536	0.119312	-399.784817	-399.777672	-399.776727	-399.816397	25.682	
C	-0.0421589739	 1.41202467	-0.0895032162	-0.351085
N	-0.0331598549	-0.0161088163	 0.1122412861	-0.073187
C	-1.1011684838	-1.0085892629	 0.061964414	-0.052661
C	-1.4637588486	-1.5161295218	-1.3522571863	-0.094466
O	-0.3637297313	-2.4558733696	-1.343823892	-0.282747
C	-0.0007695416	-2.1011189747	 0.0087492371	-0.04451
C	 1.0121785445	-0.9213900067	 0.0400729381	 0.405002
O	 2.2014509486	-0.7687468673	-0.0277804068	-0.365349
H	 0.9974793729	 1.7479914895	-0.1001058655	 0.165958
H	-0.5096036035	 1.6862071946	-1.0437617863	 0.129858
H	-0.5732608332	 1.9255132806	 0.7195774083	 0.132284
H	-1.8781819938	-0.9174214547	 0.820767787	 0.098714
H	-2.425194107	-2.0407014949	-1.4038697401	 0.113008
H	-1.3934657968	-0.7887266596	-2.1684130223	 0.112569
H	 0.1177719025	-2.9549936661	 0.6758416949	 0.106614
121.8894	146.5973	154.6564	235.6648	263.2656	411.6982	475.01	682.2747	702.1744	778.2924	841.7851	870.2345	901.1694	967.4582	994.8725	1024.1951	1060.9008	1078.3114	1147.051	1159.2524	1175.8232	1183.1766	1268.8058	1288.6128	1297.7946	1345.0994	1400.5259	1448.3253	1484.054	1508.1625	1512.9595	1880.9317	3016.6367	3025.5703	3073.4562	3078.2448	3112.016	3124.2106	3130.9598
CN1C2COC2C1=O	CN1[C@H]2CO[C@H]2C1=O	
InChI=1S/C5H7NO2/c1-6-3-2-8-4(3)5(6)7/h3-4H,2H2,1H3	InChI=1S/C5H7NO2/c1-6-3-2-8-4(3)5(6)7/h3-4H,2H2,1H3/t3-,4+/m0/s1
