20
gdb 100276	2.1582	1.44538	1.06574	4.8072	71.13	-0.2439	0.0171	0.261	1207.9879	0.169936	-477.458766	-477.448756	-477.447812	-477.49364	37.159	
C	-0.0075408898	 1.5592471068	-0.4441798247	-0.419705
C	-0.0141102395	 0.1070371644	 0.0464772228	-0.194535
C	-1.4054277445	-0.5490782858	 0.1436306822	 0.213585
O	-2.1927625927	-0.3175979746	-1.0343899846	-0.47741
C	-1.2553560332	-2.0808934757	 0.1900819013	-0.198838
N	-2.5782438456	-2.7269044414	 0.1734256126	-0.530008
H	-2.5032677326	-3.7243809056	 0.3367703771	 0.247465
H	-3.2442528113	-1.5883380541	 1.2518779327	 0.321278
H	-3.0088610712	-2.580692333	-0.733935012	 0.261086
C	-2.2001177566	 0.0003009751	 1.3715806642	 0.37746
O	-1.9239638866	 1.0520701617	 1.8962883332	-0.340117
O	-3.23345015	-0.7349206941	 1.7741397686	-0.378778
H	 1.0194883399	 1.9327530085	-0.4924367178	 0.115491
H	-0.4226440894	 1.6373046183	-1.4550817701	 0.107444
H	-0.5754649506	 2.20216517	 0.2295297856	 0.155883
H	 0.5934618965	-0.500291751	-0.6356213713	 0.090932
H	 0.4570933824	 0.0517751608	 1.0334982562	 0.112864
H	-2.3819395899	 0.6251952583	-1.0886226001	 0.297999
H	-0.6282643955	-2.3843617316	-0.6587678941	 0.111386
H	-0.7371582698	-2.3669597871	 1.1107528882	 0.126519
43.7097	112.9543	166.3304	202.3936	250.8575	255.6802	293.3529	319.4699	340.6568	363.5407	380.7547	409.9356	442.6025	574.985	617.1239	754.1408	773.7389	789.3033	873.4793	919.1301	973.0486	992.7424	1027.3063	1037.9244	1075.4316	1106.2072	1110.0162	1171.8031	1221.286	1272.3346	1307.9747	1327.4666	1361.7238	1391.4816	1406.2002	1419.5247	1471.7245	1493.8782	1504.2293	1520.0373	1527.6054	1631.4444	1832.016	3009.449	3029.4225	3041.2976	3076.4525	3088.3706	3098.5017	3102.4814	3147.9568	3515.112	3600.3898	3816.2947
CCC(O)(C[NH3+])C([O-])=O	CC[C@@](O)(CN)C(=O)O	
InChI=1S/C5H11NO3/c1-2-5(9,3-6)4(7)8/h9H,2-3,6H2,1H3,(H,7,8)	InChI=1S/C5H11NO3/c1-2-5(9,3-6)4(7)8/h9H,2-3,6H2,1H3,(H,7,8)/t5-/m1/s1
