21
gdb 62631	2.67294	1.8466	1.60921	1.4023	79.6	-0.2279	0.089	0.3168	962.3455	0.184324	-387.096014	-387.088439	-387.087495	-387.127323	31.779	
C	-0.0970971588	 1.5586956515	-0.0123558735	-0.452401
C	-0.0028367154	 0.0282997097	-0.0155078422	 0.319192
C	-1.4092394339	-0.5821059661	-0.0877322649	-0.442481
C	 0.9334818027	-0.5364887428	-1.0909916197	-0.131079
C	 2.3492089985	-0.5775264304	-0.5038538708	-0.124123
C	 2.2603726227	-0.0635456735	 0.9292065188	-0.241107
C	 0.8227752129	-0.5713610276	 1.1683762168	 0.017999
O	 0.9327546885	-1.9622741708	 0.8095306482	-0.261093
C	 1.4754200908	-1.8102389237	-0.4919284317	 0.078388
H	 0.8767081027	 2.044272582	-0.1051153472	 0.11737
H	-0.7108431747	 1.9001335188	-0.8529519166	 0.114219
H	-0.5746279551	 1.9210945466	 0.9056669266	 0.111127
H	-1.8921467461	-0.3287745743	-1.0379099069	 0.105722
H	-1.3699752217	-1.6690924351	 0.00182276	 0.133365
H	-2.0445218808	-0.1933870718	 0.716719913	 0.104889
H	 0.7443612116	-0.4204133044	-2.1505310239	 0.081351
H	 3.2379320315	-0.4988714037	-1.1151378052	 0.086624
H	 2.9717936113	-0.5602546934	 1.595241515	 0.104736
H	 2.3697974066	 1.0170476206	 1.0323839473	 0.102981
H	 0.4020834125	-0.482328663	 2.1687560819	 0.073948
H	 1.6689529741	-2.7364525987	-1.0136231449	 0.100374
178.6318	209.5021	231.9895	266.8071	339.9698	363.9883	450.5665	532.112	553.9393	615.4735	708.5915	735.2639	802.4956	812.3579	854.1381	888.3501	928.8948	945.7719	956.6802	961.5396	970.8326	982.7025	1006.7826	1024.0035	1042.43	1055.5384	1067.2506	1082.522	1149.0205	1195.164	1212.7931	1226.9188	1231.3633	1253.4364	1279.8164	1320.8985	1347.0223	1378.796	1397.2807	1419.9449	1481.8526	1485.2504	1494.0964	1506.6248	1515.2437	3026.9819	3032.2125	3067.2323	3084.6907	3089.4628	3114.6424	3128.1224	3135.0088	3138.4176	3194.5699	3207.0826	3225.7553
CC1(C)C2C3CC1OC23	CC1(C)[C@H]2[C@H]3C[C@@H]1O[C@@H]23	
InChI=1S/C8H12O/c1-8(2)5-3-4-6(8)7(4)9-5/h4-7H,3H2,1-2H3	InChI=1S/C8H12O/c1-8(2)5-3-4-6(8)7(4)9-5/h4-7H,3H2,1-2H3/t4-,5+,6+,7-/m1/s1
