17
gdb 15971	2.91471	1.90967	1.32976	2.0239	69.63	-0.2442	-0.0301	0.2142	937.5471	0.141841	-363.830578	-363.82285	-363.821906	-363.863514	28.257	
O	 0.8129128509	-0.2399126548	-0.0355975072	-0.257645
C	 0.4359015653	 0.9035708813	-0.1018840416	 0.146172
C	 1.3406655023	 2.1021315731	-0.1549997904	-0.140622
C	 0.8042707173	 3.4039343005	-0.8224392015	-0.250676
C	 1.2457365521	 4.2305399835	 0.4201998362	-0.290654
C	 1.436969528	 2.9104204903	 1.1687463776	 0.348058
C	 0.9005047308	 2.4944234549	 2.4877150089	-0.307731
N	 2.3480559288	 2.6910541626	 2.274121504	-0.356411
H	-0.6518451069	 1.1519700928	-0.0813435682	 0.071658
H	 2.3287398506	 1.798675772	-0.5125858467	 0.097115
H	 1.2526151583	 3.6685184689	-1.7808242284	 0.114448
H	-0.2831491153	 3.3754716556	-0.9410063692	 0.110516
H	 2.1966016338	 4.7493156845	 0.2703418663	 0.117968
H	 0.5208829406	 4.9360987019	 0.8327734404	 0.1088
H	 0.4307374078	 3.2282793726	 3.1374508091	 0.122277
H	 0.5240977747	 1.4804180702	 2.5989310885	 0.126419
H	 2.8188502609	 1.7932964202	 2.1824844723	 0.240309
45.9211	73.9518	205.3663	244.5738	319.6738	367.6784	442.5341	461.8562	564.188	717.8031	820.7918	829.2638	883.274	901.8637	931.9091	956.7092	974.7764	1017.1063	1051.8449	1053.4981	1118.8079	1127.5386	1144.1272	1200.559	1232.4908	1250.6651	1254.8585	1266.618	1289.3587	1312.8045	1401.0274	1425.657	1477.7161	1494.3713	1513.0366	1817.1881	2850.4798	3059.2037	3062.2177	3073.9414	3102.9349	3110.5069	3128.5047	3188.9633	3492.9053
O=CC1CCC11CN1	O=C[C@H]1CC[C@]21CN2	
InChI=1S/C6H9NO/c8-3-5-1-2-6(5)4-7-6/h3,5,7H,1-2,4H2	InChI=1S/C6H9NO/c8-3-5-1-2-6(5)4-7-6/h3,5,7H,1-2,4H2/t5-,6-/m1/s1
