19
gdb 82770	2.80402	1.87562	1.50704	0.4519	73.28	-0.231	0.0761	0.3071	929.6715	0.162838	-423.010555	-423.003863	-423.002919	-423.041209	28.319	
O	-0.1379550102	 1.4833490302	-0.1138658667	-0.445798
C	-0.0289190398	 0.0734310794	-0.0277535351	 0.125017
C	-1.4128817086	-0.5724088295	-0.1952410069	-0.064152
C	-1.7525033417	-0.1556068488	-1.6546053929	-0.239078
C	-0.5983647789	-1.1222536027	-2.0065485088	-0.049182
C	-1.0329540825	-1.9863068539	-0.785604407	-0.039474
C	 0.2382649042	-2.6596548261	-0.2784269713	-0.115013
O	 1.2973325656	-1.8144559934	-0.7618585672	-0.275501
C	 0.6568314256	-0.6301785696	-1.2435950867	 0.061297
H	 0.7433492859	 1.8544593363	-0.0071430894	 0.283448
H	 0.4799681074	-0.2221570854	 0.8988621858	 0.069803
H	-2.1215749969	-0.454844884	 0.6242839691	 0.066134
H	-2.7180569378	-0.5478433612	-1.9829525127	 0.094632
H	-1.6611718154	 0.8995436118	-1.9110056977	 0.115262
H	-0.4430575206	-1.5409531383	-3.0004116188	 0.066566
H	-1.8930534188	-2.6383382426	-0.9364922762	 0.076904
H	 0.2810106116	-2.7416044255	 0.8161858251	 0.097691
H	 0.3681481457	-3.6641521301	-0.6996655163	 0.102738
H	 1.3920131952	-0.0305764066	-1.7819489663	 0.068708
198.5368	283.8481	294.4168	322.511	376.8538	422.4835	519.947	610.413	716.7823	740.4379	805.7664	828.6407	874.574	879.8007	925.1175	943.0707	962.2582	979.9546	993.4245	1023.4783	1042.304	1047.2083	1075.7027	1088.0379	1105.8485	1133.0728	1166.8752	1193.9722	1217.91	1229.1144	1250.8026	1259.5639	1274.1818	1286.3877	1310.0598	1331.1745	1346.1136	1379.0383	1433.2219	1503.37	1522.5491	3005.6534	3018.3431	3044.8351	3072.9699	3109.8493	3114.9653	3119.4159	3128.3981	3141.7854	3822.5196
OC1C2CC3C2COC13	O[C@H]1[C@H]2C[C@@H]3[C@H]2CO[C@H]13	
InChI=1S/C7H10O2/c8-6-3-1-4-5(3)2-9-7(4)6/h3-8H,1-2H2	InChI=1S/C7H10O2/c8-6-3-1-4-5(3)2-9-7(4)6/h3-8H,1-2H2/t3-,4+,5-,6-,7-/m0/s1
