19
gdb 42862	2.40047	1.70347	1.45702	2.8537	80.14	-0.2231	-0.0145	0.2086	1004.29	0.161728	-385.905356	-385.897897	-385.896953	-385.937084	29.831	
O	-0.0001887773	 0.0652220185	-0.2204238273	-0.31372
C	-0.0099933795	 1.2502358754	-0.0633398968	 0.420215
C	-1.1189048543	 2.292471461	 0.1723545362	-0.122554
C	-0.0130966299	 3.1783618817	 0.8298173752	-0.258253
C	 1.084154281	 2.3338355968	 0.1056430038	-0.169271
C	 1.4631450024	 2.8525269517	-1.262143121	-0.064172
C	 0.6466715463	 3.4464093532	-2.1362793131	-0.053752
C	-0.8131695034	 3.8064587273	-1.9534767312	-0.259631
C	-1.7085717545	 2.8394832628	-1.1466350763	-0.217777
H	-1.9272226215	 1.9438771524	 0.8213456638	 0.092007
H	-0.0263417184	 4.2446417846	 0.6031517229	 0.109451
H	 0.0263744688	 3.0422868193	 1.9129354711	 0.10869
H	 1.9670292575	 2.0491629784	 0.6808481207	 0.086447
H	 2.4902730306	 2.6660817377	-1.5628042773	 0.096182
H	 1.075744846	 3.7504969332	-3.0883412665	 0.092998
H	-0.8697939319	 4.8064299695	-1.5005969421	 0.11943
H	-1.2653145798	 3.9257521985	-2.9441707736	 0.107157
H	-1.9823862457	 1.9835199418	-1.7741801248	 0.122438
H	-2.6438010363	 3.3645944562	-0.9214267736	 0.104115
113.7797	172.1652	206.8553	315.1244	336.1401	386.9315	463.5006	522.2202	632.7319	664.5538	738.9768	749.4948	785.4506	824.8395	852.3992	872.6195	911.2025	950.5778	994.727	1017.482	1047.5838	1055.579	1067.8573	1095.4091	1126.2151	1155.799	1199.243	1231.0031	1232.4085	1257.0865	1276.5933	1312.7248	1326.7183	1368.5568	1382.1696	1415.4741	1475.0984	1490.8265	1501.4761	1707.2598	1889.1265	3007.8418	3030.7986	3056.6811	3068.2371	3072.5497	3079.6031	3095.5374	3136.7257	3144.7814	3171.7968
O=C1C2CC1C=CCC2	O=C1[C@H]2C[C@@H]1C=CCC2	
InChI=1S/C8H10O/c9-8-6-3-1-2-4-7(8)5-6/h1,3,6-7H,2,4-5H2	InChI=1S/C8H10O/c9-8-6-3-1-2-4-7(8)5-6/h1,3,6-7H,2,4-5H2/t6-,7+/m0/s1
