18
gdb 53405	2.60765	0.94957	0.74561	4.3917	83.81	-0.2384	0.0252	0.2635	1542.2339	0.146271	-401.934333	-401.924407	-401.923463	-401.972428	33.121	
C	-0.1216781184	 1.5044753557	 0.1321663645	-0.498719
C	-0.0577900153	 0.0515329255	 0.0826232563	 0.065468
C	-0.0111841637	-1.1513920984	 0.0419372624	 0.101254
C	 0.0518317139	-2.6026428214	-0.0076231922	-0.173371
C	 0.331039789	-3.3661919187	 1.3372368563	-0.255788
C	-1.0263370592	-4.1012981159	 1.1513296308	-0.164479
N	-1.2398576181	-3.3163238445	-0.0617788934	-0.02307
C	-2.3134495257	-3.2318499823	-0.8764768034	 0.130754
O	-3.3281019206	-3.8858373334	-0.7411511819	-0.332827
H	 0.4466346059	 1.9567786359	-0.6876693686	 0.152869
H	-1.1567102675	 1.8542093427	 0.0530352593	 0.156928
H	 0.2867397596	 1.88784974	 1.0735315606	 0.152722
H	 0.7269893239	-2.9168551128	-0.8142505335	 0.111629
H	 1.2169348172	-4.0004264344	 1.3162523943	 0.120846
H	 0.372436753	-2.7057164611	 2.2021513143	 0.12807
H	-0.9588539951	-5.1784734914	 0.9680350902	 0.124084
H	-1.7786153434	-3.9239279752	 1.9256819437	 0.130161
H	-2.1600512755	-2.4916188103	-1.6874739596	 0.073469
20.1677	21.9941	70.5478	105.1714	156.1094	193.1561	293.9203	314.3077	324.3941	453.9949	467.9492	597.7138	705.8161	800.1614	809.7312	919.9443	928.5801	971.8468	1034.3361	1050.8376	1051.4487	1070.5141	1153.2367	1158.6031	1191.2516	1210.2068	1259.331	1261.1179	1315.2103	1359.4599	1399.3092	1414.2199	1443.5643	1475.7901	1477.4061	1488.1468	1523.3993	1787.5231	2368.1541	2933.4063	3011.3706	3030.207	3046.1116	3088.3486	3092.3781	3093.5662	3100.3601	3161.4131
CC#CC1CCN1C=O	CC#C[C@H]1CCN1C=O	
InChI=1S/C7H9NO/c1-2-3-7-4-5-8(7)6-9/h6-7H,4-5H2,1H3	InChI=1S/C7H9NO/c1-2-3-7-4-5-8(7)6-9/h6-7H,4-5H2,1H3/t7-/m0/s1
