18
gdb 122692	5.19289	0.62949	0.59489	4.1067	79.32	-0.2497	-0.0416	0.2082	1834.9286	0.14596	-435.257929	-435.247515	-435.246571	-435.29491	35.661	
C	-0.038554256	 1.307690898	-0.6890558592	-0.239416
O	-1.1913058479	 0.6157704723	-0.2588907407	-0.22574
C	-1.0015914518	-0.1734316326	 0.8938112717	-0.062348
C	-0.3873568651	-1.5520757898	 0.5700194147	-0.207596
N	-0.1963156597	-2.3169603407	 1.7861156818	-0.25713
C	-1.1184033551	-3.0995002818	 2.1906952123	 0.258772
N	-2.3665279708	-3.3451834521	 1.6515871183	-0.551247
C	-0.8791774153	-3.8278721682	 3.4266798806	 0.276995
N	-0.7158127669	-4.4310187531	 4.3988072036	-0.316805
H	-0.3364941545	 1.9286178581	-1.5373713719	 0.1311
H	 0.3606253164	 1.9574270425	 0.1045235062	 0.111511
H	 0.7645940636	 0.6323583164	-1.0180717947	 0.109882
H	-0.3694060667	 0.3386949781	 1.6336728843	 0.108792
H	-1.9911270274	-0.3146365365	 1.3416449753	 0.112616
H	-1.0211563943	-2.0443369043	-0.1860260604	 0.086445
H	 0.5960297658	-1.4123603156	 0.1102667917	 0.118559
H	-2.5272211103	-3.059536253	 0.698586086	 0.270516
H	-2.8305091042	-4.1968719877	 1.9252257004	 0.275093
40.6402	48.6504	79.1497	106.3235	173.4881	184.9474	281.3481	309.4051	356.3839	374.7334	427.0492	453.3643	481.9645	558.9802	616.9247	720.5747	791.4522	835.0269	956.0402	1005.0925	1022.4903	1112.0682	1140.9567	1177.4235	1184.4539	1226.443	1270.1907	1322.3055	1323.7783	1334.3357	1403.0894	1477.8615	1490.5183	1499.1282	1509.4178	1525.8152	1636.0029	1717.7085	2359.5995	2963.0615	2981.7245	3005.5728	3031.1118	3061.7932	3083.4028	3115.7871	3588.7561	3702.6446
COCCN=C(N)C#N	COCCN=C(N)C#N	
InChI=1S/C5H9N3O/c1-9-3-2-8-5(7)4-6/h2-3H2,1H3,(H2,7,8)	InChI=1S/C5H9N3O/c1-9-3-2-8-5(7)4-6/h2-3H2,1H3,(H2,7,8)
