19
gdb 88794	2.73166	1.36883	1.05625	4.168	76.67	-0.2448	0.0379	0.2826	1178.3907	0.159996	-419.202031	-419.1932	-419.192256	-419.235933	32.641	
C	 0.1443053692	 1.5143051092	-0.3397266165	-0.426877
C	-0.0465892033	 0.0722078562	 0.0610219578	 0.005806
N	 1.1140922101	-0.8378884848	-0.0064020392	-0.334413
C	 0.4876199677	-0.5663213209	 1.2968503751	-0.035777
C	 1.3314720381	 0.0876892878	 2.3638798778	-0.179034
C	 2.3078188048	-0.8686336411	 3.1270466618	-0.170383
N	 3.3954453409	 0.0095574336	 2.7032099252	-0.310717
C	 2.6247337539	 0.8781296197	 1.9796216334	 0.445907
O	 2.8942658699	 1.8703040223	 1.3558134154	-0.360733
H	 1.0897925283	 1.9145295877	 0.0290115635	 0.179992
H	 0.1293841573	 1.6038085751	-1.4316083116	 0.112975
H	-0.6757042753	 2.1258780029	 0.0541678154	 0.105895
H	-0.9953658999	-0.3529825706	-0.2694642344	 0.078085
H	 0.8391797577	-1.7502734888	-0.3583957818	 0.227739
H	-0.1462504327	-1.3518289104	 1.7126381653	 0.080807
H	 0.704282631	 0.670125233	 3.0465566968	 0.10606
H	 2.1679044618	-0.9231702237	 4.2113605457	 0.109965
H	 2.3607937336	-1.8789067005	 2.7081074674	 0.113065
H	 4.393618407	-0.0310153567	 2.8424220431	 0.251637
60.9861	110.5982	152.9623	180.7166	217.6545	240.1163	359.7327	408.4105	470.5281	503.8913	537.8009	722.527	755.9313	767.8355	801.2274	863.5491	910.2787	934.5832	989.4249	1003.407	1024.5631	1071.4853	1076.6067	1106.8825	1148.618	1163.9658	1176.1499	1185.6804	1218.272	1264.2986	1277.7409	1299.7716	1345.2421	1399.1811	1403.3236	1433.6245	1465.9651	1504.2309	1509.596	1524.9025	1884.4949	3030.8831	3036.5125	3063.9765	3078.5015	3085.8133	3088.1249	3092.5577	3149.0884	3508.3126	3619.4257
CC1NC1C1CNC1=O	C[C@H]1N[C@H]1[C@H]1CNC1=O	
InChI=1S/C6H10N2O/c1-3-5(8-3)4-2-7-6(4)9/h3-5,8H,2H2,1H3,(H,7,9)	InChI=1S/C6H10N2O/c1-3-5(8-3)4-2-7-6(4)9/h3-5,8H,2H2,1H3,(H,7,9)/t3-,4-,5-/m1/s1
