20
gdb 107969	2.69985	1.39282	1.34348	1.4429	79.37	-0.24	0.0743	0.3142	1098.7666	0.170202	-403.06197	-403.053424	-403.052479	-403.094899	33.283	
C	-0.0561989774	 1.53319094	-0.010797537	-0.381552
C	 0.0075002442	 0.0013864942	-0.0452772328	-0.320953
C	 0.6378367061	-0.5305586912	-1.3017363072	 0.351534
C	 0.2525368951	-0.2865348613	-2.7724577982	-0.316454
C	 1.5608069081	-1.0754616987	-2.8214195937	-0.071199
N	 2.1495792924	-0.2862127273	-1.6331284693	-0.183504
C	 2.5252081597	-1.5880249375	-0.9315708327	-0.257324
C	 1.1941701501	-1.9573600647	-1.580314158	 0.302699
O	 0.42930937	-3.108985435	-1.5046211664	-0.471943
H	 0.944588387	 1.9628848671	-0.1106569774	 0.136669
H	-0.6702143809	 1.9226804401	-0.8291412347	 0.118014
H	-0.4905702134	 1.8848421186	 0.9295906045	 0.110905
H	 0.5681406218	-0.3687608343	 0.8221417067	 0.103134
H	-1.0006559459	-0.4240875578	 0.0383717089	 0.111514
H	-0.6438681182	-0.7972003598	-3.1309712752	 0.105852
H	 0.3008739726	 0.7479408919	-3.122174363	 0.10502
H	 2.1977998048	-1.3349126729	-3.6691204537	 0.076355
H	 3.4399972574	-2.0413584993	-1.3286711338	 0.094123
H	 2.5764968818	-1.5077049032	 0.1583301397	 0.103847
H	 0.9349694449	-3.842493569	-1.8721465165	 0.283263
80.6907	141.2975	196.0435	244.2793	263.6952	287.0709	322.0227	418.6954	464.5031	532.6847	619.3533	647.4765	708.2808	779.2313	803.8992	882.4478	889.9782	911.6814	928.3336	977.6312	986.7852	1010.925	1050.8382	1062.8904	1099.7772	1110.0979	1139.996	1161.6863	1170.7899	1211.8929	1227.8898	1247.222	1279.3597	1290.7333	1328.6849	1351.6281	1397.7212	1408.9299	1475.3878	1489.8239	1495.974	1508.7854	1519.9298	3026.3209	3039.9205	3040.403	3058.9436	3061.3118	3098.8558	3101.535	3108.017	3118.852	3128.1296	3800.7753
CCC12CC3N1CC23O	CC[C@@]12C[C@H]3N1C[C@@]23O	
InChI=1S/C7H11NO/c1-2-6-3-5-7(6,9)4-8(5)6/h5,9H,2-4H2,1H3	InChI=1S/C7H11NO/c1-2-6-3-5-7(6,9)4-8(5)6/h5,9H,2-4H2,1H3/t5-,6+,7+/m1/s1
