12
gdb 20414	4.93919	2.16681	1.53596	5.1746	55.49	-0.2636	-0.0422	0.2214	746.8897	0.085735	-414.606324	-414.600522	-414.599577	-414.63704	21.211	
C	 0.0380574966	 1.3769318336	-0.122077931	-0.093798
C	 1.5197318547	 1.8545314418	 0.0922800085	-0.374419
C	 2.1168496245	 0.6101447668	 0.6647224992	 0.286636
N	 3.2225500409	 0.1457102385	 1.1506804239	-0.187887
O	 2.9399888796	-1.1770952483	 1.4468655455	-0.168137
N	 1.6188856454	-1.5236489271	 1.1294592561	-0.226128
C	 1.1455945038	-0.414677653	 0.6549451089	 0.430186
O	-0.0460834621	-0.0588906667	 0.1669332546	-0.258017
H	-0.6525643311	 1.8821489085	 0.557330501	 0.141628
H	-0.3052963549	 1.5160023628	-1.148298624	 0.142637
H	 1.9920653452	 2.1416071981	-0.851319736	 0.153858
H	 1.5721692374	 2.7118422549	 0.7672681932	 0.153441
44.9664	250.3835	334.5366	481.9965	587.9832	651.3189	712.0914	728.5239	784.7525	827.727	839.6383	872.6681	939.6456	986.7785	1059.9915	1070.1352	1203.5523	1207.9651	1242.8699	1278.8946	1383.0458	1466.7878	1485.4414	1514.646	1604.5002	1689.3366	3066.7583	3075.402	3107.4429	3133.6221
C1CC2=NON=C2O1	C1Cc2nonc2O1	
InChI=1S/C4H4N2O2/c1-2-7-4-3(1)5-8-6-4/h1-2H2	InChI=1S/C4H4N2O2/c1-2-7-4-3(1)5-8-6-4/h1-2H2
