14
gdb 31429	3.15194	1.4343	0.99189	1.7661	68.53	-0.2526	-0.058	0.1947	1117.2899	0.102026	-470.040179	-470.032543	-470.031598	-470.072797	27.495	
C	-0.0365768486	 1.3752506133	-0.0216297571	-0.23531
O	 0.03177324	-0.0564605695	 0.0476910086	-0.22625
C	 0.6543141098	-0.576428884	 1.0908463926	 0.465987
N	 1.1753090857	 0.178961383	 2.0026814102	-0.372673
C	 1.8078738959	-0.4148546504	 3.0598431265	 0.435987
N	 2.3560318208	 0.1982066751	 4.0135668664	-0.522179
O	 1.8346835906	-1.8572241934	 3.0577680906	-0.211697
C	 1.2536229703	-2.4945257343	 2.0474706948	 0.15156
N	 0.6558869085	-1.9643665838	 1.0474085457	-0.31984
H	 0.9669699732	 1.8052994163	-0.0526581568	 0.152078
H	-0.5804811936	 1.5910054957	-0.9407533209	 0.140556
H	-0.5644917521	 1.7757218963	 0.8466665956	 0.15208
H	 2.7606747696	-0.4557177069	 4.6808661085	 0.231557
H	 1.3322927199	-3.5747589473	 2.1456118852	 0.158142
90.0535	142.3597	165.4813	225.818	228.32	434.1324	439.3774	518.8979	578.1879	618.3355	718.4939	726.7837	804.6556	842.2065	845.0452	953.3713	1001.9274	1051.0121	1106.2836	1176.156	1179.7321	1237.7462	1293.913	1376.6708	1416.7812	1479.9414	1486.0029	1495.9039	1611.2851	1689.2572	1785.9806	3058.1795	3137.3412	3167.0068	3178.0847	3523.7192
COC1=NC(=N)OC=N1	CO[C@@H]1N=C([NH])OC=N1	
InChI=1S/C4H5N3O2/c1-8-4-6-2-9-3(5)7-4/h2,5H,1H3	InChI=1S/C4H6N3O2/c1-8-4-6-2-9-3(5)7-4/h2,4-5H,1H3/t4-/m0/s1
