17
gdb 75776	2.42706	1.32855	1.15325	4.1203	74.86	-0.2683	0.0069	0.2753	1148.4107	0.132844	-421.827262	-421.817984	-421.81704	-421.861133	34.172	
C	-0.394070765	 1.4168555588	-0.032962492	-0.418881
C	 0.0112522007	-0.049889523	-0.0485620479	-0.235487
C	 1.2836124023	-0.4327643441	-0.8018306407	 0.452712
O	 1.7327200613	-0.2874669513	-1.8929594961	-0.324161
O	 1.8674690637	-1.065398142	 0.2650372093	-0.273168
C	 0.7428521562	-0.7104689045	 1.1709812621	 0.205752
C	 1.2439914522	 0.2016698668	 2.2822342709	-0.436285
C	 0.0994001063	-1.9065843564	 1.6887729754	 0.319183
C	-0.4543999349	-2.8787180161	 2.1267581551	-0.452303
H	 0.4281266028	 2.0719432991	 0.2650697964	 0.131892
H	-0.7077599853	 1.7158649384	-1.0370583717	 0.147389
H	-1.2341187078	 1.5840122686	 0.6476976737	 0.131141
H	-0.8240520937	-0.6731493348	-0.3786168153	 0.126976
H	 1.7747581559	 1.06061077	 1.8659478924	 0.132514
H	 0.4064657932	 0.557118958	 2.8887187096	 0.136612
H	 1.9292262648	-0.3500530356	 2.9300455229	 0.147247
H	-0.9361302025	-3.7449592819	 2.5094491959	 0.208866
74.411	139.2922	177.2177	188.8704	206.4075	225.8876	276.4738	365.5386	415.4976	447.1746	505.4965	593.8216	630.1654	635.5705	677.9704	688.9058	782.6373	826.359	848.3548	940.884	1021.698	1052.337	1073.7736	1130.5141	1180.855	1204.0359	1220.5159	1272.3575	1353.3893	1406.0783	1414.9021	1476.7061	1486.1013	1498.1352	1502.6584	1936.1951	2239.3559	3046.9198	3053.742	3082.6932	3117.7313	3125.2797	3131.3281	3138.5284	3498.9381
CC1C(=O)OC1(C)C#C	C[C@H]1C(=O)O[C@]1(C)C#C	
InChI=1S/C7H8O2/c1-4-7(3)5(2)6(8)9-7/h1,5H,2-3H3	InChI=1S/C7H8O2/c1-4-7(3)5(2)6(8)9-7/h1,5H,2-3H3/t5-,7+/m0/s1
