19
gdb 75719	2.14478	1.63948	1.32518	3.8903	75.4	-0.2293	-0.0314	0.1979	1077.8775	0.157477	-423.010075	-423.001158	-423.000214	-423.043736	33.051	
C	-0.5970546586	 1.3351256971	-0.0616521066	-0.421398
C	 0.0142615486	-0.0598070063	-0.0236352608	-0.171425
C	 1.2732823067	-0.3512220428	-0.8672745953	 0.416451
O	 1.5684471558	-0.144104178	-2.0076881099	-0.299854
C	 2.0103641108	-0.9569201858	 0.34676542	-0.065483
O	 2.7738859568	 0.0947235287	 0.9833509886	-0.286013
C	 1.7058135099	 0.371656667	 1.9209751806	-0.118965
C	 0.7568854353	-0.6313472463	 1.2359946496	 0.2721
C	 0.0150058819	-1.6304265294	 2.0949220209	-0.500638
H	 0.1318283601	 2.1057862862	 0.2046969323	 0.131633
H	-0.9504012303	 1.5559658065	-1.0731672975	 0.140897
H	-1.4492092197	 1.4180823341	 0.6206148929	 0.120373
H	-0.7429762435	-0.7975878856	-0.3277924142	 0.106883
H	 2.5467259001	-1.9071772056	 0.2763277755	 0.089258
H	 1.9947334581	 0.0787756423	 2.9387192588	 0.10394
H	 1.4175456231	 1.4282995293	 1.9239956072	 0.108528
H	-0.7980204961	-1.1454341611	 2.6485039121	 0.126028
H	-0.4309256663	-2.4250330759	 1.4870198096	 0.122399
H	 0.6798350572	-2.1005265941	 2.826958336	 0.125286
58.2614	175.7074	176.4838	191.8771	204.7027	249.2493	274.2806	329.6627	443.7809	494.76	592.7884	620.8629	650.2768	790.0242	808.4417	854.854	918.8823	978.5759	989.0992	999.9494	1025.5118	1061.1082	1074.8281	1118.3333	1141.9655	1161.2083	1178.9282	1198.3343	1253.0845	1261.7157	1292.4746	1320.5102	1381.4424	1405.9081	1416.7282	1490.7284	1492.7627	1493.8599	1496.1098	1525.6804	1890.4385	3004.794	3014.4393	3024.8864	3039.5747	3068.9707	3077.9296	3086.7904	3098.8233	3108.7488	3115.3416
CC1C(=O)C2OCC12C	C[C@H]1C(=O)[C@H]2OC[C@@]12C	
InChI=1S/C7H10O2/c1-4-5(8)6-7(4,2)3-9-6/h4,6H,3H2,1-2H3	InChI=1S/C7H10O2/c1-4-5(8)6-7(4,2)3-9-6/h4,6H,3H2,1-2H3/t4-,6+,7-/m0/s1
