21
gdb 112935	4.05886	0.68272	0.65273	1.1306	89.21	-0.2357	0.057	0.2928	1824.0971	0.180417	-387.048628	-387.038163	-387.037219	-387.08661	36.382	
C	 0.3273025371	 1.399122381	 1.0574639571	-0.240925
O	 0.6733460755	 0.288009352	 0.2617438275	-0.239004
C	 0.5724326129	-0.9334612518	 0.9406855649	 0.180821
C	-0.8355861134	-1.5532045828	 1.1706758785	-0.260746
C	-0.2419697446	-2.9398223013	 0.7373228549	-0.192208
C	 0.9547220551	-2.1577045619	 0.0912610345	-0.263076
C	 0.1305326175	-3.8047405938	 1.8428009181	 0.120072
C	 0.4453155245	-4.5140539535	 2.7648962808	 0.014925
C	 0.821013275	-5.3795019831	 3.8742316539	-0.495681
H	 0.970320299	 1.4767588345	 1.9485107295	 0.104265
H	 0.4630084629	 2.2939625126	 0.4452780977	 0.126132
H	-0.7199157947	 1.3568324498	 1.3932466348	 0.107545
H	 1.1412742709	-0.8988531316	 1.8825032893	 0.071223
H	-1.2808664732	-1.4935080156	 2.1646656261	 0.104529
H	-1.540846493	-1.1817066367	 0.4219607349	 0.106327
H	-0.8589353708	-3.4923824263	 0.0235456943	 0.098585
H	 0.7618569235	-1.9527536258	-0.9648048637	 0.112347
H	 1.9542036071	-2.5769819232	 0.2106494457	 0.108276
H	 0.4168689241	-6.3899726282	 3.7459239652	 0.146361
H	 1.9097806244	-5.4689249193	 3.9609515264	 0.145429
H	 0.4450779903	-4.993294765	 4.8284301197	 0.144805
12.662	45.9963	100.661	106.5706	152.8274	191.3356	247.0798	285.6374	306.3499	408.6451	433.0431	493.7686	529.6367	661.4193	692.7565	824.1842	887.4072	922.9529	951.0936	998.2494	1029.3929	1051.7687	1053.2592	1071.7665	1090.8142	1163.0938	1174.7794	1180.7192	1186.0664	1205.4699	1246.437	1253.0261	1267.168	1300.7384	1351.5028	1392.8838	1415.3901	1465.0652	1479.1731	1479.4061	1480.9617	1486.7325	1494.2592	1509.7562	2365.5168	2971.7552	2985.5818	3020.0082	3023.5091	3057.3014	3064.5935	3075.1653	3082.5377	3083.3479	3113.4697	3131.338	3137.7789
COC1CC(C1)C#CC	CO[C@H]1C[C@@H](C1)C#CC	
InChI=1S/C8H12O/c1-3-4-7-5-8(6-7)9-2/h7-8H,5-6H2,1-2H3	InChI=1S/C8H12O/c1-3-4-7-5-8(6-7)9-2/h7-8H,5-6H2,1-2H3/t7-,8-
