17
gdb 45421	2.64159	1.75614	1.72394	4.8746	69.03	-0.2353	0.0263	0.2616	899.2528	0.139576	-455.149148	-455.142192	-455.141248	-455.180341	27.813	
N	-0.0998888893	 1.2852364893	-0.0897777243	-0.557357
C	 0.0150102947	 0.0228659345	 0.0131778015	 0.391766
N	 1.1532450038	-0.7676574947	 0.0990621849	-0.328018
C	 0.8522204554	-2.1978425283	 0.0097239902	-0.087467
C	-0.0134904706	-2.5291835809	 1.232009249	-0.041632
O	-1.1841438387	-1.7037423326	 1.1958675772	-0.263958
C	-1.2047650313	-0.8904459259	 0.0415646244	 0.125102
O	-1.1992638361	-1.6810550181	-1.1365535837	-0.265982
C	-0.0007871782	-2.4588438623	-1.2409195213	-0.058641
H	 0.8142905308	 1.7435955684	-0.1247667394	 0.199831
H	 2.0107950965	-0.4211105257	-0.3054811806	 0.240375
H	 1.7745870635	-2.7809813111	 0.0055944763	 0.092092
H	-0.3180640099	-3.5832470784	 1.2144484864	 0.108137
H	 0.5345533965	-2.3307194024	 2.1598143276	 0.112617
H	-2.1294300809	-0.3187902017	 0.0503953931	 0.119396
H	 0.5401998769	-2.1735933297	-2.1527174504	 0.102304
H	-0.2735356231	-3.5194626405	-1.3143987107	 0.111434
117.0522	196.4562	311.558	365.4922	404.7813	408.3788	442.2934	545.0738	585.316	674.8765	752.4026	842.2474	847.9109	863.969	896.9834	923.4257	952.977	980.2508	1015.5025	1073.8213	1090.9144	1094.5158	1125.9241	1166.8856	1217.2556	1228.7711	1296.7849	1308.4436	1315.8975	1343.5213	1391.1735	1395.9837	1415.5153	1434.0128	1508.6236	1521.9749	1755.6475	3008.5806	3020.9314	3049.3131	3067.9281	3105.8786	3166.4262	3432.4852	3602.6041
N=C1NC2COC1OC2	[NH][C]1N[C@H]2CO[C@@H]1OC2	
InChI=1S/C5H8N2O2/c6-4-5-8-1-3(7-4)2-9-5/h3,5H,1-2H2,(H2,6,7)	InChI=1S/C5H8N2O2/c6-4-5-8-1-3(7-4)2-9-5/h3,5H,1-2H2,(H2,6,7)/t3-,5+
