16
gdb 78829	3.08304	1.4857	1.21412	2.368	73.66	-0.2369	0.0223	0.2592	1025.0873	0.123726	-400.629779	-400.622232	-400.621288	-400.661585	29.786	
O	 0.057151273	 1.3067656316	 0.1159785007	-0.442354
C	 0.0244003548	-0.0961958005	-0.0411826465	 0.11277
C	-1.4292765675	-0.5244265376	-0.212238678	-0.041274
C	-1.3433076394	-0.408162213	-1.6854678661	-0.050883
C	 0.2140618585	-0.56018711	-1.5156697374	-0.13662
C	-0.0668127329	-2.0765417568	-1.4360296921	-0.153485
C	 0.6937391455	-2.9210724041	-0.5315811598	 0.338068
C	 1.3327406523	-3.6217964497	 0.2080874054	-0.439699
N	-1.5055665089	-1.7561374839	-1.0695930645	-0.155889
H	 0.9798524978	 1.5800954854	 0.1291664523	 0.285928
H	 0.6338231405	-0.6024815288	 0.7176568913	 0.081884
H	-2.2623174755	-0.3449459263	 0.4536612378	 0.105875
H	-1.9960366765	-0.0030335021	-2.4455883039	 0.105017
H	 1.0110397629	-0.1433979209	-2.1293083068	 0.077587
H	-0.1009385669	-2.530722558	-2.4312971915	 0.112736
H	 1.8901618722	-4.2459652453	 0.8622800191	 0.200339
124.3883	145.9617	240.4501	288.6709	324.8021	367.1658	456.0345	541.8574	592.341	627.1201	657.6748	748.3375	780.199	808.6509	836.7007	889.9059	926.787	942.0367	966.1433	989.5736	1004.2499	1042.1407	1062.3618	1109.8581	1145.6244	1166.7624	1189.8518	1206.4414	1222.9272	1250.0331	1314.8317	1339.9859	1363.7492	1433.0946	2229.4878	3030.4131	3058.4596	3131.931	3209.7116	3223.9187	3500.7935	3818.0998
OC1C2C3C1C(C#C)N23	O[C@H]1[C@H]2[C@H]3[C@@H]1[C@@H](C#C)N23	
InChI=1S/C7H7NO/c1-2-3-4-5-6(7(4)9)8(3)5/h1,3-7,9H	InChI=1S/C7H7NO/c1-2-3-4-5-6(7(4)9)8(3)5/h1,3-7,9H/t3-,4+,5-,6-,7-,8?/m1/s1
