18
gdb 108567	3.32914	1.43927	1.2578	1.5009	70.07	-0.2396	0.0745	0.314	1031.1646	0.149327	-439.027598	-439.020175	-439.019231	-439.059682	29.199	
O	 0.0272770654	 1.2900194249	-0.318317275	-0.420297
C	-0.009114366	-0.037748986	 0.1776490664	-0.153782
C	-1.4202707463	-0.5613721666	 0.2209682007	 0.287196
C	-2.4300560415	 0.0248145278	 1.20319992	-0.148802
O	-3.4184419737	-0.995804739	 1.3928950382	-0.261767
C	-3.2864886955	-1.87261451	 0.2889884773	 0.066407
C	-3.4109764147	-1.111661151	-1.0527858946	-0.184884
N	-1.9164610857	-0.9538369361	-1.1446107835	-0.202799
C	-1.7746104973	-1.9667003724	-0.0312184021	-0.124967
H	-0.3585209231	 1.2544653576	-1.2017020874	 0.292172
H	 0.6095173099	-0.7139657135	-0.429641573	 0.098471
H	 0.4175071782	-0.0020175051	 1.185715326	 0.112009
H	-1.9620161918	 0.2478096747	 2.1680064075	 0.114649
H	-2.8884799624	 0.9482270577	 0.8269215663	 0.111589
H	-3.8869480142	-2.7636048164	 0.465461671	 0.092564
H	-3.7385632092	-1.7436999342	-1.8817499102	 0.115451
H	-3.9909788016	-0.1830996103	-1.0463385283	 0.108758
H	-1.1112193505	-2.8220984622	-0.0738900992	 0.098031
69.571	152.956	253.2376	320.4058	347.5126	420.6519	446.6426	465.9391	647.0727	662.8888	701.052	821.6782	855.1816	866.006	889.929	903.2379	966.0526	974.2756	999.9128	1009.4826	1055.0708	1065.2547	1085.3526	1115.5886	1159.4484	1187.5849	1192.258	1226.3838	1232.5761	1281.291	1299.2772	1335.3647	1348.9282	1389.554	1416.0645	1435.3431	1491.6272	1494.6875	1521.628	3002.141	3020.7315	3049.2478	3066.858	3077.2539	3109.5812	3134.5382	3187.2423	3792.6111
OCC12COC3CN1C23	OC[C@@]12CO[C@H]3CN1[C@@H]23	
InChI=1S/C6H9NO2/c8-2-6-3-9-4-1-7(6)5(4)6/h4-5,8H,1-3H2	InChI=1S/C6H9NO2/c8-2-6-3-9-4-1-7(6)5(4)6/h4-5,8H,1-3H2/t4-,5+,6-,7?/m0/s1
