16
gdb 113605	2.99355	0.85903	0.71395	5.8295	86.66	-0.2532	-0.0378	0.2154	1536.491	0.123018	-400.710722	-400.701609	-400.700664	-400.745451	32.13	
C	 0.2618683994	 0.9151603045	 0.4333122391	-0.245643
O	-0.1461623929	-0.0365329016	-0.5394280993	-0.226253
C	-1.3695977175	-0.6050048699	-0.2696762203	 0.145877
C	-1.6446583475	-1.9226367531	-0.8884505571	-0.321398
C	-1.4482815725	-1.8558616487	 0.6325055844	-0.276955
C	-0.2675806854	-2.3918754282	 1.2143500019	 0.137314
C	 0.7292943792	-2.8455714464	 1.7310215546	 0.026114
C	 1.8541030649	-3.3558746194	 2.3073496586	 0.199601
N	 2.8133846721	-3.7899418839	 2.8006118968	-0.343261
H	 1.2231159588	 1.3112735871	 0.1019373384	 0.141067
H	-0.4610917573	 1.7400513474	 0.5088430672	 0.113355
H	 0.3805321594	 0.452135482	 1.4206880345	 0.128248
H	-2.194523927	 0.0989240744	-0.1465133267	 0.102595
H	-2.6422026619	-2.1428663624	-1.2492981822	 0.134624
H	-0.8328332142	-2.364625751	-1.4534433201	 0.153091
H	-2.3437219576	-1.9501386606	 1.2400016003	 0.131624
59.8793	90.8715	128.5807	169.8247	213.5457	226.8259	278.0971	381.5641	440.0341	513.5032	562.3116	581.5776	608.8219	712.8789	753.7638	826.1302	914.0833	946.1898	1057.8845	1064.3355	1090.0688	1117.4093	1157.5045	1182.6444	1203.4975	1228.4269	1267.6889	1382.0707	1400.6743	1467.4365	1488.4489	1493.7049	1504.909	2258.6947	2385.7717	2998.7713	3063.8982	3090.2351	3137.6	3149.556	3152.261	3246.8783
COC1CC1C#CC#N	CO[C@H]1C[C@H]1C#CC#N	
InChI=1S/C7H7NO/c1-9-7-5-6(7)3-2-4-8/h6-7H,5H2,1H3	InChI=1S/C7H7NO/c1-9-7-5-6(7)3-2-4-8/h6-7H,5H2,1H3/t6-,7+/m1/s1
