15
gdb 46230	2.74421	1.36518	1.09558	6.9288	72.11	-0.2556	-0.0515	0.2041	1106.3748	0.11193	-416.791767	-416.783657	-416.782713	-416.82508	29.479	
O	-0.0122037208	 0.0358389476	-0.2186337693	-0.277832
C	-0.0448377114	 1.2083769951	-0.0054825897	 0.370341
C	-1.1398630051	 2.2143812161	 0.4110630877	-0.340575
C	-0.0387784595	 3.3142972204	 0.5468074465	-0.340023
C	 0.9987739129	 2.3227464009	-0.0147625416	 0.241202
N	 2.4134331598	 2.1672438161	 0.2699406914	-0.341522
C	 2.0248095744	 2.6005354529	-1.0790061257	-0.275389
C	 2.2737771654	 1.6850849148	-2.1669948414	 0.355878
N	 2.4658874205	 0.9935306054	-3.0726539941	-0.325949
H	-1.8683842083	 2.3942445395	-0.3842807929	 0.14682
H	-1.6773790054	 1.9473619305	 1.3236184118	 0.144062
H	-0.1969574931	 4.2185806058	-0.0429812475	 0.124484
H	 0.1626496578	 3.5952052292	 1.5837183122	 0.126615
H	 2.7644558711	 2.9611364166	 0.802313802	 0.252291
H	 2.1508434417	 3.6466416592	-1.3484945294	 0.139596
68.223	90.5284	147.777	237.5241	252.6015	321.6866	456.0439	483.7858	544.5428	571.6295	651.6215	704.4077	752.473	807.1342	895.9915	914.3301	935.2722	965.8591	1021.8438	1043.0127	1053.5631	1108.7645	1182.2293	1191.4367	1214.1823	1246.8107	1257.5118	1342.5513	1433.6853	1447.6046	1484.5732	1904.6731	2364.1888	3069.9316	3074.1603	3120.0678	3134.3265	3140.6577	3494.3161
O=C1CCC11NC1C#N	O=C1CC[C@]21N[C@H]2C#N	
InChI=1S/C6H6N2O/c7-3-4-6(8-4)2-1-5(6)9/h4,8H,1-2H2	InChI=1S/C6H6N2O/c7-3-4-6(8-4)2-1-5(6)9/h4,8H,1-2H2/t4-,6-/m0/s1
