21
gdb 51234	3.15797	1.12597	0.97388	2.7277	82.66	-0.2413	-0.0208	0.2205	1279.0734	0.182008	-387.076148	-387.067216	-387.066271	-387.111457	32.979	
O	-0.7067885355	 1.0189747026	 0.7676365708	-0.243076
C	 0.0606742658	 1.0177230782	-0.1616382628	 0.163268
C	 1.3735835277	 1.7672112776	-0.1951611408	-0.385614
C	 1.3058340264	 2.9374442765	-1.1743521233	 0.379689
C	 1.3033754891	 2.6352871644	-2.6991253527	-0.286176
C	 2.4103592417	 3.7098944231	-2.9161987367	-0.220823
C	 2.4944335003	 3.9542188616	-1.3833367663	-0.077236
C	 1.60517095	 5.1062845013	-0.8586925564	-0.21853
C	 0.3902457041	 4.1349177926	-0.7673297443	-0.28509
H	-0.1832936322	 0.4650093267	-1.0987487732	 0.074727
H	 1.5942051784	 2.1197694376	 0.8175964569	 0.11585
H	 2.1668108079	 1.0744623777	-0.5089749147	 0.106502
H	 1.649915088	 1.6238120506	-2.932661942	 0.096863
H	 0.3534671984	 2.794538899	-3.2177532214	 0.099501
H	 3.3276135922	 3.3163401024	-3.3599213788	 0.102942
H	 2.1056103115	 4.5860672762	-3.4959676928	 0.099904
H	 3.4747786709	 3.82123916	-0.9218045942	 0.061692
H	 1.9203369568	 5.4788362847	 0.1193150307	 0.103021
H	 1.4967513181	 5.9639657832	-1.5290916515	 0.096912
H	-0.4274269715	 4.3361948787	-1.4652789617	 0.098856
H	-0.0385717282	 4.0420941254	 0.2333849052	 0.11682
31.5442	56.6827	72.2324	169.1546	265.179	322.3831	355.2307	394.8297	498.4566	624.418	632.4739	742.9679	749.3048	830.9206	863.0798	870.2277	892.9445	918.8304	939.2038	958.3961	977.6209	1030.755	1036.052	1042.7468	1093.7627	1135.3176	1157.3486	1182.4173	1221.1563	1228.8441	1245.2953	1257.1297	1257.7587	1278.1578	1291.2398	1301.9019	1311.0746	1324.3093	1428.8327	1465.3504	1472.5984	1484.6733	1486.6897	1504.2745	1827.0199	2859.6057	3013.9461	3043.6248	3050.4371	3055.9181	3057.9303	3082.5167	3085.8483	3089.1874	3096.1957	3110.4223	3116.0291
O=CCC12CCC1CC2	O=CC[C@]12CC[C@H]1CC2	
InChI=1S/C8H12O/c9-6-5-8-3-1-7(8)2-4-8/h6-7H,1-5H2	InChI=1S/C8H12O/c9-6-5-8-3-1-7(8)2-4-8/h6-7H,1-5H2/t7-,8+
