16
gdb 5259	7.24019	1.12809	0.98813	1.1044	67.1	-0.2076	0.0261	0.2337	1159.766	0.130695	-383.757531	-383.749977	-383.749033	-383.789834	27.603	
C	-0.0763100518	 1.5277153569	 0.0114918733	-0.391083
C	-0.0150254419	 0.0119610731	 0.0039486481	-0.050517
O	-1.3483678332	-0.4877709407	 0.0114963781	-0.26529
C	-1.4639063044	-1.833231774	 0.0063514301	 0.327749
C	-0.5025405954	-2.8037781875	-0.0053364244	-0.155069
O	-1.1002017271	-4.0364737223	-0.0062862178	-0.150294
C	-2.4378904194	-3.8314735387	 0.0048531896	 0.022514
C	-2.7303983686	-2.5064154259	 0.0129547958	-0.309097
H	 0.9349567637	 1.944908503	 0.0058090609	 0.119895
H	-0.6088598955	 1.8961173267	-0.869560759	 0.132009
H	-0.5954949815	 1.8878577244	 0.9038624948	 0.132006
H	 0.5085098999	-0.3597644269	-0.8894225059	 0.103633
H	 0.5216627512	-0.3680927912	 0.8859348547	 0.103637
H	 0.5721591801	-2.7987291468	-0.0135415363	 0.129366
H	-3.0488706364	-4.7191744107	 0.0055732314	 0.135224
H	-3.7038630597	-2.0437847594	 0.0224284764	 0.115317
73.4315	110.7608	156.8613	248.7805	340.7843	352.369	448.7943	609.2248	643.0487	692.4773	716.2492	764.7297	823.4164	828.3542	882.2875	913.3493	1005.8945	1048.4679	1084.9961	1098.4343	1139.9089	1187.8799	1217.4383	1265.9281	1293.9124	1319.9892	1395.5816	1409.7686	1441.7234	1484.4565	1500.8909	1524.4537	1548.5401	1646.0453	2986.216	3019.5688	3047.8986	3122.7481	3126.3722	3262.2688	3284.4003	3299.7161
CCOC1=COC=C1	CCOc1cocc1	
InChI=1S/C6H8O2/c1-2-8-6-3-4-7-5-6/h3-5H,2H2,1H3	InChI=1S/C6H8O2/c1-2-8-6-3-4-7-5-6/h3-5H,2H2,1H3
