18
gdb 87842	2.88388	1.40512	1.18595	2.2716	72.18	-0.2261	0.0665	0.2926	1082.6836	0.146613	-439.001456	-438.993086	-438.992142	-439.034033	32.959	
O	-0.0256185104	 1.2984589272	-0.0822909384	-0.43979
C	 0.0322898157	-0.0927417231	-0.02137739	 0.071262
C	-0.4423018514	-0.7907681121	 1.2453161906	-0.398765
C	-1.2794371019	-0.8090718272	 0.0049702348	 0.256652
N	-2.5398870939	-0.0358275454	-0.1702212471	-0.387559
C	-3.1247095363	-1.2168418027	-0.8666525421	-0.067119
C	-2.3285789145	-1.5001088574	-2.1155496759	-0.339994
C	-1.8238112477	-1.9907817507	-0.7797260624	 0.274897
O	-1.5743737954	-3.3127536901	-0.4753830711	-0.452042
H	-0.9151271294	 1.5104232243	-0.4037560673	 0.29018
H	 0.8733590945	-0.5235439608	-0.5613884289	 0.089118
H	 0.0331292385	-1.7229693261	 1.5342163093	 0.122679
H	-0.7563070911	-0.1535634558	 2.0666654274	 0.117595
H	-2.9926816101	 0.0788097753	 0.7335837403	 0.229354
H	-4.1600063052	-1.502597357	-0.7346671971	 0.109062
H	-2.7547210989	-2.2813988643	-2.7385246546	 0.115599
H	-1.8348300551	-0.6906438652	-2.6476512737	 0.117899
H	-0.9562023675	-3.6649175591	-1.1250943838	 0.290974
112.5979	142.5246	197.4346	238.6184	290.307	337.0536	419.412	440.4026	460.7654	474.9426	533.2302	620.107	687.1364	793.4142	833.739	866.9773	874.6286	901.4515	929.0395	970.5932	990.8821	998.6956	1014.79	1035.1725	1058.5529	1081.9145	1099.2155	1164.626	1172.8192	1228.2261	1259.0162	1304.8071	1312.8372	1351.3176	1398.1087	1410.1719	1424.1156	1476.5427	1498.3335	3106.8741	3119.2932	3122.334	3198.8367	3206.2394	3213.7302	3487.425	3701.7047	3794.9164
OC1CC11NC2CC12O	O[C@H]1C[C@]21N[C@H]1C[C@@]21O	
InChI=1S/C6H9NO2/c8-4-2-5(4)6(9)1-3(6)7-5/h3-4,7-9H,1-2H2	InChI=1S/C6H9NO2/c8-4-2-5(4)6(9)1-3(6)7-5/h3-4,7-9H,1-2H2/t3-,4-,5+,6-/m0/s1
