17
gdb 53112	2.51248	1.08219	0.83146	4.2544	77.57	-0.2513	0.0084	0.2597	1406.5747	0.133731	-421.836455	-421.826828	-421.825884	-421.873119	33.063	
C	 0.0550709028	 1.5622807711	-0.1764938764	-0.498961
C	 0.0935164349	 0.1088544374	-0.1161053729	 0.067465
C	 0.1211887059	-1.0942870912	-0.074638437	 0.105381
C	 0.137536625	-2.5380635769	-0.0232744188	-0.412869
C	 0.3606696404	-3.270238684	 1.3362050751	 0.144911
C	 0.4256497921	-2.450180281	 2.601446821	-0.403682
O	-0.9418881381	-3.9394639936	 1.1790869351	-0.251421
C	-1.222205344	-3.279575991	 0.0165213936	 0.4581
O	-2.2018080326	-3.3465187914	-0.6487143767	-0.318088
H	 0.6409070249	 1.9402827554	-1.0212358526	 0.15365
H	-0.9718909369	 1.9248384598	-0.2932034141	 0.15774
H	 0.4631305276	 2.0073477876	 0.7374791692	 0.151735
H	 0.7630411737	-2.9553884083	-0.8198964095	 0.137324
H	 1.1504922878	-4.0248000752	 1.2965980224	 0.10226
H	-0.3636181972	-1.6947140952	 2.6184909367	 0.139993
H	 0.3160789384	-3.0979451871	 3.4757189831	 0.134754
H	 1.3915714953	-1.9400074262	 2.6663006618	 0.131706
15.2037	77.4206	81.4653	124.1641	211.9462	246.319	255.5593	345.8503	406.3495	424.8608	484.6559	519.3634	667.9135	733.7186	798.9323	871.7335	874.1033	947.5672	1043.6765	1049.4151	1051.8575	1054.8525	1134.0975	1142.984	1184.8949	1203.9575	1312.7977	1333.4782	1383.1499	1414.3806	1417.2587	1475.7034	1477.2888	1482.3237	1488.7612	1943.3261	2371.8909	3029.8084	3047.0313	3052.7281	3079.3953	3092.1062	3093.2824	3119.8541	3133.5714
CC#CC1C(C)OC1=O	CC#C[C@H]1[C@@H](C)OC1=O	
InChI=1S/C7H8O2/c1-3-4-6-5(2)9-7(6)8/h5-6H,1-2H3	InChI=1S/C7H8O2/c1-3-4-6-5(2)9-7(6)8/h5-6H,1-2H3/t5-,6+/m1/s1
