15
gdb 24030	4.00401	1.09219	1.00127	2.2491	78.58	-0.2522	-0.0428	0.2093	1195.13	0.113735	-379.690072	-379.68236	-379.681416	-379.723647	28.376	
C	-0.0094229897	-1.2069142627	-0.005333386	-0.466597
C	-0.0109611338	-0.0056457448	 0.0020134276	 0.3205
C	 0.0021089926	 1.4544816663	 0.0104539401	-0.406461
C	 1.4195239758	 2.0022308203	-0.0003783961	 0.347244
N	 1.9970804233	 2.2060718323	 1.1875046105	-0.267226
C	 3.2489305607	 2.6663828421	 1.165055822	 0.010939
C	 3.9263547752	 2.926557199	-0.0198556306	-0.129973
C	 3.2234238152	 2.6858674724	-1.1939526111	 0.010976
N	 1.9712687696	 2.2257718965	-1.1969377991	-0.267329
H	-0.0129835345	-2.2685130903	-0.0118509496	 0.197973
H	-0.5244018209	 1.8342107105	-0.8708276761	 0.147197
H	-0.5068364352	 1.8236764852	 0.9064336971	 0.147176
H	 3.7198046514	 2.8342070611	 2.1312678078	 0.121094
H	 4.9425421018	 3.3013813913	-0.0277542917	 0.113397
H	 3.6733302485	 2.8696791309	-2.1672187548	 0.121092
23.5112	89.0971	210.1952	320.5608	345.3202	399.8445	410.9413	510.2323	613.236	632.4666	643.9212	655.8424	804.0425	832.3872	880.9884	933.6198	966.0068	1010.2107	1010.3048	1011.3501	1096.4494	1116.7344	1194.26	1249.808	1281.539	1317.4296	1343.3074	1452.1452	1460.1771	1468.5104	1603.6026	1617.93	2241.2427	3049.8997	3097.8823	3153.887	3155.8463	3211.3708	3507.925
C#CCC1=NC=CC=N1	C#CCc1ncccn1	
InChI=1S/C7H6N2/c1-2-4-7-8-5-3-6-9-7/h1,3,5-6H,4H2	InChI=1S/C7H6N2/c1-2-4-7-8-5-3-6-9-7/h1,3,5-6H,4H2
