16
gdb 8340	4.95256	1.39417	1.32524	1.455	69.84	-0.2383	0.0458	0.2841	957.1543	0.129118	-346.501558	-346.49424	-346.493296	-346.533426	28.073	
C	-0.624650102	-0.5126841617	-1.0416576641	-0.442254
C	-0.1081736447	 0.1587395054	-0.1896585294	 0.297259
C	 0.5377297316	 0.9844119787	 0.8225228585	-0.489563
C	 1.6550815964	 1.8236619385	 0.2487201365	 0.422712
C	 3.020179105	 1.392252938	-0.3480265128	-0.245404
C	 3.012146664	 2.9228073632	-0.1329635008	 0.044541
C	 1.600036181	 3.0039454365	-0.7560782413	-0.245408
O	 2.385278359	 2.7066058631	 1.1947965797	-0.346794
H	-1.0896063284	-1.1106943664	-1.785728512	 0.199086
H	-0.193218512	 1.6537997155	 1.2933455802	 0.14536
H	 0.9501941185	 0.3563299282	 1.6221613382	 0.145369
H	 3.6637302274	 0.8322372922	 0.3317681033	 0.106102
H	 3.0355249223	 1.0109856323	-1.3714333511	 0.102246
H	 3.8349166067	 3.6344730933	-0.1855519831	 0.098403
H	 1.4854668356	 2.7701193288	-1.8168158075	 0.102245
H	 0.9996105496	 3.8556871844	-0.4337097444	 0.1061
60.6802	110.3887	287.648	303.7534	343.3979	439.2738	521.0726	593.1366	624.9008	645.999	674.7205	752.5341	769.4741	898.2322	899.9768	924.0906	971.4117	973.1357	988.3954	1005.4456	1089.6556	1091.8027	1120.9682	1149.1742	1212.515	1212.5183	1228.4741	1280.0517	1311.0517	1345.4009	1464.9716	1466.2411	1512.8186	2243.4181	3025.5011	3061.4518	3065.0954	3072.3359	3129.9279	3147.1897	3152.3652	3505.691
C#CCC12CC(C1)O2	C#CC[C@@]12C[C@@H](C1)O2	
InChI=1S/C7H8O/c1-2-3-7-4-6(5-7)8-7/h1,6H,3-5H2	InChI=1S/C7H8O/c1-2-3-7-4-6(5-7)8-7/h1,6H,3-5H2/t6-,7+
