17
gdb 51350	5.71683	0.90834	0.89376	1.7155	73.23	-0.2315	-0.0264	0.2051	1297.6117	0.135129	-417.880311	-417.872741	-417.871797	-417.913374	28.452	
O	-0.2955127264	-0.0529702304	 0.3766720314	-0.238322
C	-0.1198477413	 1.0735262196	-0.0073915467	 0.157697
C	 1.2264782572	 1.7777238567	-0.0207857237	-0.240272
N	 1.2855735138	 2.7325895006	-1.1221234556	-0.141184
C	 1.7891568514	 2.1985112529	-2.4282716944	-0.041468
C	 2.3527170496	 3.5964855919	-2.8342736555	-0.031102
N	 3.7338150432	 3.124938368	-3.1679609737	-0.344796
C	 3.3183987319	 2.2406150387	-2.0336808251	-0.043879
C	 2.5926700775	 3.429053194	-1.3095600106	 0.001668
H	-0.9536238748	 1.7088084878	-0.3818880824	 0.08765
H	 1.2913330089	 2.342641387	 0.9216519062	 0.130846
H	 2.0247914023	 1.0190264491	-0.0026436118	 0.111115
H	 1.2460304995	 1.4694924928	-3.0336622456	 0.091487
H	 1.8390407306	 4.4101757264	-3.3446473748	 0.096619
H	 3.7255488924	 2.6002861999	-4.0465452293	 0.212656
H	 3.9643587191	 1.462035829	-1.6279004856	 0.094581
H	 3.0024615253	 4.1508210059	-0.602904563	 0.096703
53.8022	84.9472	149.171	258.0453	346.0951	435.607	509.3713	606.1742	716.1343	747.3397	780.757	808.3589	817.9757	849.513	902.853	913.5242	936.7228	975.5797	1041.4419	1064.7795	1097.0577	1102.5592	1105.3181	1120.0588	1156.6121	1164.3889	1173.971	1177.8004	1215.2923	1251.9841	1295.1257	1301.6124	1331.9445	1349.8541	1406.0998	1458.8082	1838.8185	2889.0133	2979.9279	3025.7932	3094.5725	3114.5734	3123.1022	3136.7711	3405.5844
O=CCN1C2C3NC2C13	O=CCN1[C@H]2[C@@H]3N[C@H]2[C@H]13	
InChI=1S/C6H8N2O/c9-2-1-8-5-3-6(8)4(5)7-3/h2-7H,1H2	InChI=1S/C6H8N2O/c9-2-1-8-5-3-6(8)4(5)7-3/h2-7H,1H2/t3-,4+,5-,6+
