14
gdb 48187	7.50823	0.58917	0.55004	3.3783	64.81	-0.2813	-0.0994	0.1819	1826.7397	0.098207	-473.860258	-473.850878	-473.849934	-473.896692	30.501	
O	-0.2187775675	 0.1376635282	 0.0023244514	-0.192673
C	-0.0122223452	 1.3164051419	 0.0070021441	 0.085789
C	 1.4153954818	 1.8853832059	-0.0027420168	 0.349781
O	 2.4224458435	 1.2372073788	-0.0156120384	-0.314533
O	 1.3503457417	 3.2327788827	 0.0052404484	-0.239072
C	 2.6150099969	 3.9139115879	-0.0025819232	-0.068765
C	 2.2930640096	 5.4098441322	 0.0079814186	-0.34738
C	 3.509018649	 6.2183521345	 0.0014111733	 0.251683
N	 4.479275528	 6.8447504108	-0.0040436871	-0.287585
H	-0.8138680953	 2.0814012562	 0.0183948359	 0.112861
H	 3.1963383062	 3.6187958189	 0.8751431304	 0.155332
H	 3.1805813548	 3.6278217166	-0.8934882315	 0.155351
H	 1.6858052619	 5.6647851162	-0.867031458	 0.169606
H	 1.7014838846	 5.6557244292	 0.896207793	 0.169606
31.2704	54.6697	86.2801	96.1193	186.9865	204.1221	299.2172	316.5174	397.1295	447.782	566.1503	597.9125	759.3514	784.8162	912.8224	970.8529	1017.7779	1021.9921	1075.275	1085.5776	1211.4699	1233.0528	1298.9108	1308.6293	1395.2361	1419.2417	1471.0348	1511.2627	1842.1864	1851.8398	2370.9502	2942.6813	3053.6825	3069.5515	3092.6654	3122.9865
O=CC(=O)OCCC#N	O=CC(=O)OCCC#N	
InChI=1S/C5H5NO3/c6-2-1-3-9-5(8)4-7/h4H,1,3H2	InChI=1S/C5H5NO3/c6-2-1-3-9-5(8)4-7/h4H,1,3H2
