17
gdb 26853	2.94469	1.4171	0.96823	4.6736	81.47	-0.2169	-0.0541	0.1627	1187.2592	0.136217	-418.081247	-418.072503	-418.071559	-418.115481	31.53	
C	 0.0917407001	 1.5388640272	 0.0088004481	-0.500601
C	-0.0357065371	 0.0444283908	 0.011814652	 0.324342
C	-1.2112519145	-0.6586464376	-0.0414692583	 0.225744
C	-2.5703747937	-0.0066576941	-0.1122297301	-0.491013
N	-1.1971143091	-2.0330065712	-0.0320621553	-0.266999
C	-0.0747647137	-2.6812693752	 0.0272298371	-0.117362
C	 1.2442659182	-2.0555985264	 0.0880885957	 0.377599
O	 2.3248730379	-2.6165016109	 0.1447694395	-0.392916
N	 1.1366844519	-0.6614338972	 0.0738998363	-0.391621
H	 0.6842504523	 1.8793414786	-0.8488586793	 0.145978
H	-0.8844853861	 2.0191743653	-0.0423067321	 0.151595
H	 0.5971434162	 1.8901318611	 0.9164275484	 0.145996
H	-2.6903487163	 0.6159268709	-1.0060656649	 0.127148
H	-3.3260261541	-0.7928158647	-0.1451998829	 0.146098
H	-2.7775783372	 0.6256866557	 0.7584970986	 0.127165
H	-0.0951049013	-3.7684881875	 0.0331208574	 0.13013
H	 2.0197796566	-0.1682302747	 0.1139820798	 0.258716
52.8179	72.2334	112.8517	188.2096	295.1462	312.8372	332.6893	450.5172	485.03	498.0081	570.4051	586.3688	709.2606	723.6819	777.8562	780.4497	926.8354	930.3145	986.9445	1037.1256	1047.4392	1070.6783	1166.2063	1204.4546	1282.4581	1293.1811	1392.8263	1405.7464	1417.3212	1457.6418	1479.4408	1480.0309	1498.1945	1501.6969	1570.7366	1648.5843	1785.0974	3028.715	3029.6642	3078.0598	3079.8814	3140.2721	3158.9474	3162.0129	3583.4986
CC1=C(C)N=CC(=O)N1	Cc1c(C)ncc(=O)[nH]1	
InChI=1S/C6H8N2O/c1-4-5(2)8-6(9)3-7-4/h3H,1-2H3,(H,8,9)	InChI=1S/C6H8N2O/c1-4-5(2)8-6(9)3-7-4/h3H,1-2H3,(H,8,9)
