16
gdb 43061	3.28506	1.95629	1.73623	4.062	70.06	-0.2264	-0.0067	0.2197	823.4105	0.127497	-400.716483	-400.710616	-400.709672	-400.746552	24.663	
O	-0.0337735738	 0.0113567351	 0.2088724017	-0.31539
C	-0.0745448542	 1.1916163019	 0.0448842792	 0.428491
C	-1.1602044791	 2.2666606774	-0.0610093634	-0.21698
C	-1.428072912	 2.6641606999	 1.4206097677	-0.23746
C	-0.1491957656	 3.3808692195	 1.8276342207	-0.059118
C	 0.4172356234	 4.1474798844	 0.664800482	-0.104156
C	 1.1797082597	 2.9573534951	 1.2021480084	-0.052614
N	 0.9928529445	 2.1691892638	-0.060717328	-0.180374
C	-0.00115045	 3.2307052934	-0.5002041856	 0.002458
H	-2.0568290227	 2.107471911	-0.6599046423	 0.093378
H	-2.2793765184	 3.3518982388	 1.4814175466	 0.110275
H	-1.6574989145	 1.7876097221	 2.0339305423	 0.129555
H	-0.0672629034	 3.8112930338	 2.8197295527	 0.0988
H	 0.6668326727	 5.1980015525	 0.6313721172	 0.101467
H	 2.1037453623	 2.8929878121	 1.7623977863	 0.109782
H	 0.0654539812	 3.5593613592	-1.5350216956	 0.091886
146.8345	278.8093	419.0754	470.7422	583.9317	645.3169	684.3432	744.887	787.9215	821.0375	824.3869	837.961	882.7344	913.8436	938.2967	948.7089	960.4742	997.0028	1013.6579	1041.3454	1054.3159	1073.9202	1087.6947	1108.0105	1160.1878	1180.5986	1196.1091	1242.0536	1251.4181	1270.3448	1292.3533	1332.5555	1392.4719	1494.5966	1907.6757	3037.9278	3091.2592	3115.4723	3139.2232	3179.73	3194.0505	3221.4077
O=C1C2CC3C4C3N1C24	O=C1[C@H]2C[C@@H]3[C@H]4[C@@H]3N1[C@@H]24	
InChI=1S/C7H7NO/c9-7-3-1-2-4-5(2)8(7)6(3)4/h2-6H,1H2	InChI=1S/C7H7NO/c9-7-3-1-2-4-5(2)8(7)6(3)4/h2-6H,1H2/t2-,3+,4+,5-,6+/m1/s1
