20
gdb 107498	2.76598	1.3646	1.10564	2.3318	79.16	-0.2212	0.0572	0.2784	1165.2403	0.171271	-403.078973	-403.070454	-403.06951	-403.111927	33.313	
O	 0.6047220482	 0.416995193	-1.0807307802	-0.409993
C	 0.0132016569	 0.3249133764	 0.2096950858	-0.212027
C	-1.406337448	-0.1631344902	 0.143328362	 0.248367
N	-1.779630533	-1.2862643712	-0.7523444578	-0.37241
C	-2.4455743102	 0.0336583066	-0.9092342644	-0.115227
C	-3.566647184	 0.0899423094	 0.1391780755	-0.310588
C	-2.4779984086	-0.113631857	 1.2226107916	 0.347281
C	-2.5520638431	-0.9014074424	 2.4919275588	-0.313818
C	-2.395288023	 0.6049015937	 2.5374907439	-0.342756
H	 0.1682563215	 1.1379475849	-1.5467548112	 0.288176
H	 0.6367580022	-0.3836757965	 0.7684538885	 0.12101
H	 0.0555140589	 1.2868803737	 0.7420563094	 0.099669
H	-1.0411187542	-1.3119170375	-1.459027852	 0.231037
H	-2.3967459441	 0.5660103736	-1.8521775903	 0.083714
H	-4.0486989812	 1.0693770803	 0.203949185	 0.100273
H	-4.3237388336	-0.6938261221	 0.0496987613	 0.108598
H	-3.5124834572	-1.3226417452	 2.7705602839	 0.11426
H	-1.7014176264	-1.5154927854	 2.7689778161	 0.113329
H	-1.4379283264	 1.007388895	 2.8538022087	 0.110068
H	-3.2475086646	 1.2029607408	 2.8452430452	 0.111036
100.5596	125.799	176.0533	217.6784	269.5204	317.4945	370.6657	435.9375	466.5444	480.8031	596.6656	677.1373	769.0555	784.0306	851.9982	858.9392	893.4094	915.0891	934.7935	970.7184	1000.2574	1011.9647	1036.2825	1051.3742	1055.1196	1074.7843	1079.7946	1139.4377	1180.7878	1185.7684	1200.3752	1215.9542	1233.2095	1289.4072	1332.1115	1374.2362	1395.6127	1413.6903	1438.6022	1465.1237	1477.9609	1503.5749	1507.8637	2992.4869	3052.2873	3052.6848	3108.9862	3120.264	3128.5661	3177.2097	3197.8028	3214.8882	3445.323	3812.5288
OCC12NC1CC21CC1	OC[C@]12N[C@H]1CC12CC1	
InChI=1S/C7H11NO/c9-4-7-5(8-7)3-6(7)1-2-6/h5,8-9H,1-4H2	InChI=1S/C7H11NO/c9-4-7-5(8-7)3-6(7)1-2-6/h5,8-9H,1-4H2/t5-,7-/m0/s1
