13
gdb 8772	4.51721	1.26659	1.18193	3.4157	55.21	-0.3019	-0.0659	0.236	984.9846	0.093331	-435.742711	-435.734584	-435.73364	-435.775667	28.284	
O	 0.2559827149	 1.5166763748	 0.0148780744	-0.432869
C	 0.0890601219	 0.1268405124	 0.0331463546	 0.020327
C	 0.678503633	-0.4839949625	-1.2309205932	 0.139903
O	 1.1001945249	 0.2146386287	-2.1168410273	-0.245365
C	 0.8103397315	-0.4399337196	 1.281339443	-0.039024
O	 2.1399317507	 0.0091033265	 1.3101556508	-0.406666
C	 0.072728178	-0.0770872401	 2.5115571224	 0.279049
N	-0.5025976777	 0.2009105605	 3.4736750674	-0.30786
H	 0.5891710852	 1.7283605307	-0.8737984723	 0.307098
H	-0.9765036124	-0.1570344136	 0.0741526614	 0.125589
H	 0.67881127	-1.5897975159	-1.2981729152	 0.115344
H	 0.8376869006	-1.5345871605	 1.2224258111	 0.142271
H	 2.0955812894	 0.9626981486	 1.144647913	 0.302203
67.1615	108.9573	167.7351	216.91	270.3524	296.7366	346.5329	449.2476	463.5416	564.0345	580.1368	718.1909	751.3693	838.6673	889.8382	967.1531	1030.6988	1097.8834	1154.6198	1235.7539	1264.032	1330.5618	1342.5842	1395.7189	1428.0507	1432.2345	1822.8044	2360.3351	2946.5398	2974.4926	3053.2001	3663.1691	3738.3685
OC(C=O)C(O)C#N	O[C@@H](C=O)[C@@H](O)C#N	
InChI=1S/C4H5NO3/c5-1-3(7)4(8)2-6/h2-4,7-8H	InChI=1S/C4H5NO3/c5-1-3(7)4(8)2-6/h2-4,7-8H/t3-,4-/m0/s1
