16
gdb 77438	2.43875	1.52987	1.24097	1.8179	66.5	-0.2369	0.0034	0.2402	1044.4341	0.12235	-475.005535	-474.996742	-474.995798	-475.038497	32.947	
C	 0.0892548817	 1.6029405301	 0.0816979868	-0.481146
C	 0.1061937723	 0.1087947764	 0.0463848588	 0.248842
N	 0.7819906303	-0.6422079105	-1.0278525424	-0.391825
C	 1.3025438901	-1.6134314371	-0.1465009891	 0.376127
O	 1.9563093303	-2.6022553062	-0.3255633939	-0.356215
C	 0.658188865	-0.9156016214	 1.0294084996	 0.120987
O	 1.1080600562	-0.7048507244	 2.3160619866	-0.4634
C	-0.8643159126	-0.8133305292	 0.7475968351	 0.01997
O	-1.5882083714	-0.3128667409	 1.8181850345	-0.431755
H	 1.1022480406	 2.0129428461	 0.040556095	 0.135715
H	-0.4776785961	 2.0017634556	-0.7667292878	 0.129041
H	-0.39968727	 1.9431482829	 0.9975537421	 0.139973
H	 0.3246781085	-0.897093256	-1.8981740811	 0.242313
H	 1.2815526238	-1.5660710259	 2.7169026842	 0.311178
H	-1.3932936594	-1.5857538048	 0.1905934183	 0.105542
H	-0.9806713294	-0.2556683447	 2.5708814633	 0.294654
145.9819	154.5832	180.7748	217.306	222.4414	267.7302	301.5597	338.7282	441.2273	463.4185	552.3607	607.0321	627.9243	655.2732	684.5915	745.3188	795.8367	890.2599	928.6925	1008.2749	1040.3998	1090.218	1119.5447	1174.6907	1213.6472	1281.0673	1310.1395	1319.5632	1346.6222	1396.666	1417.5506	1471.5815	1486.2582	1499.2164	1894.5146	3040.0203	3103.6259	3114.6949	3133.1357	3526.929	3715.3862	3780.825
CC12NC(=O)C1(O)C2O	C[C@@]12NC(=O)[C@]1(O)[C@H]2O	
InChI=1S/C5H7NO3/c1-4-2(7)5(4,9)3(8)6-4/h2,7,9H,1H3,(H,6,8)	InChI=1S/C5H7NO3/c1-4-2(7)5(4,9)3(8)6-4/h2,7,9H,1H3,(H,6,8)/t2-,4-,5+/m0/s1
