16
gdb 30975	2.55534	1.3729	0.93955	4.953	68.76	-0.2063	0.0352	0.2415	1218.3285	0.12297	-475.069592	-475.060521	-475.059577	-475.103858	31.915	
C	-0.2904863016	 1.1618390436	 0.1549819883	-0.253582
O	 0.74276975	 0.168534579	 0.1947004402	-0.265146
C	 0.9092331073	-0.525269074	-0.9460312146	 0.266207
C	 0.6247160738	-1.8019833533	-1.236644868	 0.243126
C	-0.0029275283	-2.9006181801	-0.4692948865	-0.494734
O	 1.054612549	-2.062769379	-2.5356902461	-0.246212
C	 1.625969892	-0.924328589	-3.0662584332	 0.478415
O	 2.1163332464	-0.853292803	-4.1592404555	-0.398854
N	 1.4961394413	 0.0425767597	-2.0912648986	-0.435124
H	-0.0743445769	 1.9330735874	-0.5935654832	 0.125727
H	-1.2590962326	 0.7024677826	-0.0716640576	 0.131321
H	-0.3166143832	 1.6161997757	 1.1462217454	 0.144063
H	 0.6780132098	-3.7531996204	-0.3660815622	 0.145099
H	-0.260886142	-2.5424579627	 0.5298948732	 0.14191
H	-0.9140273869	-3.2651840886	-0.9573296321	 0.141217
H	 1.9893127919	 0.9174767222	-2.1356060394	 0.276565
61.842	130.9156	146.1947	177.701	202.0381	234.5635	244.8357	349.775	410.047	453.9996	581.2535	617.9371	640.9694	693.3145	766.6945	826.049	941.9942	985.8625	1022.1881	1069.4968	1085.3348	1172.9088	1200.3367	1250.9201	1275.7403	1299.3024	1404.0199	1428.5349	1471.3122	1481.4539	1488.1298	1496.2115	1502.1908	1782.6873	1899.6202	3020.4095	3029.6101	3079.8035	3088.2315	3131.2306	3146.4811	3685.2316
COC1=C(C)OC(=O)N1	COc1c(C)oc(=O)[nH]1	
InChI=1S/C5H7NO3/c1-3-4(8-2)6-5(7)9-3/h1-2H3,(H,6,7)	InChI=1S/C5H7NO3/c1-3-4(8-2)6-5(7)9-3/h1-2H3,(H,6,7)
