19
gdb 32991	4.72866	0.8765	0.78663	2.37	84.3	-0.2474	-0.0354	0.212	1489.9609	0.161401	-382.137226	-382.128749	-382.127805	-382.171525	30.846	
C	-0.0757726673	 1.5706872114	 0.0014465038	-0.381812
C	-0.1445045629	 0.0468935171	-0.11590055	-0.157295
C	 0.817918974	-0.5097404631	-1.1831425463	-0.277477
C	 0.7760964533	-2.0130819339	-1.25375502	 0.325568
N	 1.321251148	-2.6841024154	-0.2270442492	-0.291432
C	 1.2628587017	-4.0131178887	-0.2791019923	 0.066552
N	 0.7230909263	-4.7654820898	-1.240201103	-0.252108
C	 0.1843517609	-4.0876178668	-2.2569828362	 0.024802
C	 0.1833657951	-2.7003632552	-2.3138032333	-0.182967
H	 0.9316727042	 1.9013071504	 0.2769435219	 0.118566
H	-0.3358421428	 2.0562144341	-0.9458648796	 0.113548
H	-0.7678603163	 1.9390705484	 0.7648613241	 0.115865
H	 0.1011694397	-0.4192045934	 0.8443204411	 0.1229
H	-1.1687828752	-0.2624404608	-0.3593124504	 0.097538
H	 0.5754794304	-0.08354889	-2.1631364273	 0.09849
H	 1.8402747097	-0.203864652	-0.9325618152	 0.12107
H	 1.7089821708	-4.5474879342	 0.5570728014	 0.117331
H	-0.2603714994	-4.6799092142	-3.0540295625	 0.117305
H	-0.2583711501	-2.1720423538	-3.151196357	 0.103555
39.3275	85.3966	103.3568	241.0987	257.0332	309.91	358.1701	379.5485	534.6952	617.9083	692.1883	748.1312	797.7186	846.9789	873.0451	881.4191	909.8141	989.9536	1008.0971	1024.2832	1045.5389	1083.5844	1104.0308	1109.6463	1197.6772	1231.3966	1249.8992	1272.5105	1314.1906	1324.9709	1351.5517	1379.2818	1411.8465	1421.8139	1477.6069	1492.7207	1498.0152	1503.2403	1508.549	1594.8188	1620.7632	3026.458	3029.3429	3037.2043	3066.1765	3083.6856	3102.1258	3104.4502	3151.4557	3158.907	3195.1631
CCCC1=NC=NC=C1	CCCc1ncncc1	
InChI=1S/C7H10N2/c1-2-3-7-4-5-8-6-9-7/h4-6H,2-3H2,1H3	InChI=1S/C7H10N2/c1-2-3-7-4-5-8-6-9-7/h4-6H,2-3H2,1H3
