23
gdb 116455	2.54797	1.2884	0.99648	0.2264	81.86	-0.2309	0.0861	0.317	1303.4053	0.206167	-425.434629	-425.425213	-425.424269	-425.468488	36.04	
C	 0.0439208474	 1.6040280651	 0.0419433281	-0.385478
C	-0.0214241764	 0.0739946001	 0.0334626992	-0.203589
C	 0.6717977901	-0.5516676238	 1.2392414268	 0.131299
O	-0.045359258	-0.1604323996	 2.4103091918	-0.266923
C	 0.6204930252	-0.5903465898	 3.586606488	-0.08023
C	 0.7810891763	-2.1057355789	 3.579480774	-0.082477
O	 1.4339131436	-2.5355155283	 2.3946823051	-0.272501
C	 0.7945142719	-2.0852427564	 1.1934855339	 0.105252
C	-0.5275306023	-2.8168575664	 0.9411890949	-0.412864
H	 1.0805974234	 1.955605758	-0.0055963669	 0.111005
H	-0.4915379784	 2.0261349494	-0.813643069	 0.109247
H	-0.4033329675	 2.0001004223	 0.9570133195	 0.13496
H	-1.0672282692	-0.251965079	 0.0189142476	 0.108864
H	 0.4471228899	-0.3194953802	-0.8774962069	 0.095661
H	 1.6999568628	-0.1542660326	 1.3122672807	 0.064241
H	 1.611836902	-0.1127284473	 3.6550171238	 0.091867
H	 0.0142711891	-0.2623549493	 4.4370685243	 0.103608
H	 1.4084051764	-2.4351463867	 4.4140725327	 0.10568
H	-0.204673238	-2.5833594042	 3.6842545202	 0.094317
H	 1.50481263	-2.348214133	 0.4010094614	 0.080765
H	-1.3234812694	-2.455022264	 1.5970361349	 0.128039
H	-0.8544476731	-2.6739241571	-0.0926330276	 0.118126
H	-0.3896723558	-3.8881590784	 1.1104021334	 0.121132
100.4461	121.8061	166.3072	201.6109	237.9015	239.0368	296.3611	340.6779	355.0877	425.4812	468.5366	494.5522	580.6074	697.2294	762.5876	807.2346	869.6509	891.9272	915.2683	958.6503	968.6257	1026.822	1042.3567	1076.1402	1110.0597	1131.9047	1133.4667	1157.772	1167.3422	1180.8698	1274.7546	1292.3902	1309.8671	1316.1652	1347.3532	1364.3607	1380.2368	1396.15	1404.2299	1406.4238	1415.5503	1423.0486	1475.5958	1486.3552	1490.4659	1493.8504	1497.4939	1509.4784	1509.951	2943.5482	2972.7345	2995.5557	3029.6393	3037.5786	3042.3306	3048.3036	3073.0901	3078.7127	3080.4845	3103.4662	3118.9301	3125.7639	3126.8351
CCC1OCCOC1C	CC[C@H]1OCCO[C@H]1C	
InChI=1S/C7H14O2/c1-3-7-6(2)8-4-5-9-7/h6-7H,3-5H2,1-2H3	InChI=1S/C7H14O2/c1-3-7-6(2)8-4-5-9-7/h6-7H,3-5H2,1-2H3/t6-,7+/m0/s1
