21
gdb 64416	2.39472	1.67477	1.32707	2.2402	77.72	-0.2514	0.08	0.3314	1074.5331	0.182297	-424.222654	-424.214014	-424.21307	-424.25532	34.115	
C	 0.0666240513	 1.5009115126	-0.0027615549	-0.413349
C	-0.0196730386	-0.0264888054	 0.0106036798	 0.322863
C	-1.4846334582	-0.4948096291	 0.0461278193	-0.426299
O	 0.6128040446	-0.4369696221	-1.2090964102	-0.286444
C	 0.9514940676	-1.8082128133	-1.2933054273	-0.083843
C	 2.0519068676	-2.1861646887	-0.297193603	-0.237897
C	 1.7331656409	-1.6367302353	 1.0811017842	 0.033077
O	 2.1113081542	-0.2742928686	 1.3159992158	-0.257127
C	 0.7215466218	-0.5751250861	 1.2261430861	 0.031159
H	 1.1145394405	 1.807142272	-0.0121510602	 0.139598
H	-0.4247021577	 1.8931130085	-0.897555994	 0.118966
H	-0.4197834344	 1.9279047354	 0.8795851993	 0.108298
H	-2.0041416162	-0.1389392149	-0.8474653224	 0.12628
H	-1.5688900103	-1.5851837969	 0.0816845498	 0.115312
H	-1.997982147	-0.0953365131	 0.9262310933	 0.116478
H	 0.068534089	-2.4442026792	-1.1274331289	 0.087518
H	 1.2815227968	-1.971522598	-2.3233359022	 0.107446
H	 2.151542694	-3.2764252453	-0.2542462238	 0.097824
H	 3.0154959119	-1.779030661	-0.6208783584	 0.123554
H	 1.9228696863	-2.2932360084	 1.9301936124	 0.091163
H	 0.1774835158	-0.4851685032	 2.1678131453	 0.085424
100.1069	186.422	207.8734	242.0753	271.1983	315.7331	351.6244	381.969	398.8826	473.9835	495.8078	556.4763	663.3038	758.5919	799.8151	833.4171	884.933	922.9488	931.9117	940.6211	973.6579	1008.7711	1019.6121	1061.8075	1108.9287	1129.4776	1147.2964	1195.4663	1216.7829	1251.816	1258.4213	1288.4803	1303.0661	1364.4215	1373.3362	1391.8877	1407.2073	1419.6098	1459.7457	1470.6422	1475.9041	1484.7539	1494.9077	1505.3577	1512.6242	2987.4357	3040.7881	3042.3158	3046.9243	3080.1268	3090.3131	3091.9381	3107.3953	3111.1581	3117.2771	3123.4396	3138.4952
CC1(C)OCCC2OC12	CC1(C)OCC[C@H]2O[C@@H]12	
InChI=1S/C7H12O2/c1-7(2)6-5(9-6)3-4-8-7/h5-6H,3-4H2,1-2H3	InChI=1S/C7H12O2/c1-7(2)6-5(9-6)3-4-8-7/h5-6H,3-4H2,1-2H3/t5-,6-/m1/s1
