20
gdb 112868	3.30505	1.11321	0.88762	4.198	76.88	-0.2504	0.0189	0.2692	1330.7305	0.172049	-440.319298	-440.310499	-440.309555	-440.352934	33.393	
C	-0.0109522907	 1.5099046596	 0.1659574006	-0.401371
C	 0.0152258897	 0.0106910581	-0.061917	 0.125546
C	 0.9402886524	-0.4873009182	-1.1816886832	-0.262697
C	 1.3559986078	-1.8797897058	-0.6874466324	-0.11854
C	 2.7367682766	-2.379830374	-1.1389712597	-0.067023
O	 3.0257609083	-3.6603478675	-0.6391596967	-0.425561
C	 1.2716465368	-1.7166033004	 0.8180186809	 0.439107
N	 1.8436532655	-2.4746222408	 1.6581611856	-0.567848
O	 0.5190695256	-0.6361600261	 1.1381001964	-0.246673
H	 0.9981085956	 1.8873677162	 0.3568794293	 0.12879
H	-0.4099587748	 2.0153849683	-0.7190850029	 0.12513
H	-0.6440484777	 1.7632834634	 1.0204205678	 0.133628
H	-1.005610955	-0.361913292	-0.2220449946	 0.091874
H	 0.4441502959	-0.4975862581	-2.1542717294	 0.115813
H	 1.818128299	 0.1667065636	-1.2546407996	 0.111215
H	 0.6118706909	-2.6309619063	-0.982907616	 0.112082
H	 2.7622319786	-2.4430360273	-2.2329744357	 0.101556
H	 3.4941892431	-1.6353019201	-0.8365734033	 0.080695
H	 2.8875541069	-3.6035404914	 0.3221660884	 0.298488
H	 1.6652189956	-2.1785874712	 2.6178564645	 0.225789
72.6608	115.5457	171.3064	214.8595	240.0658	298.128	327.2943	383.0653	463.5419	488.4044	605.9869	633.0365	648.8471	679.056	778.8817	860.5761	877.6335	919.5329	933.0427	984.526	1029.1607	1064.6805	1088.39	1106.1726	1121.2651	1150.028	1152.9482	1217.5389	1227.6447	1260.0345	1293.7252	1325.653	1355.2457	1388.1308	1393.1001	1400.3239	1415.4601	1484.3203	1485.6995	1490.5969	1498.535	1509.752	1756.9679	2949.1896	3013.0334	3028.8302	3039.663	3043.6058	3057.5081	3112.2368	3117.7929	3124.0013	3486.7776	3636.6783
CC1CC(CO)C(=N)O1	C[C@H]1C[C@@H](CO)[C]([NH])O1	
InChI=1S/C6H11NO2/c1-4-2-5(3-8)6(7)9-4/h4-5,7-8H,2-3H2,1H3	InChI=1S/C6H11NO2/c1-4-2-5(3-8)6(7)9-4/h4-5,7-8H,2-3H2,1H3/t4-,5-/m0/s1
