22
gdb 104341	3.04249	1.23538	1.11256	2.3682	82.38	-0.243	0.0335	0.2765	1221.6883	0.194694	-404.378835	-404.369605	-404.368661	-404.412471	35.431	
C	 0.0632478955	 1.5592657451	 0.0900581936	-0.399318
C	-0.0519422759	 0.0323656826	 0.0465833474	-0.199827
C	-1.4777677312	-0.5229711134	-0.0979347686	 0.3686
C	-2.1801266058	-0.008812423	-1.360066844	-0.424278
C	-1.465883576	-2.0582270141	-0.0317880515	-0.251404
C	-2.8813589525	-2.6110815926	 0.161518718	-0.172331
N	-3.6382892995	-1.905612994	 1.1894451294	-0.26782
C	-3.2414616645	-0.7529006696	 1.5248447784	 0.124608
O	-2.2088262288	-0.0146896336	 1.0545498836	-0.264028
H	 1.0954700412	 1.8543509765	 0.3008598716	 0.113402
H	-0.2205307529	 2.0221985144	-0.8596648056	 0.116274
H	-0.5747835586	 1.973987722	 0.8745756726	 0.135102
H	 0.5476510156	-0.3674279772	-0.7807107576	 0.096321
H	 0.3699938169	-0.3864832467	 0.9675242696	 0.102934
H	-1.6157902977	-0.2965601083	-2.2529725689	 0.11647
H	-3.1890518515	-0.4196403256	-1.4462582901	 0.129822
H	-2.2649368777	 1.0796050624	-1.3391887851	 0.129761
H	-1.0025169409	-2.4648461977	-0.9370151353	 0.099839
H	-0.841847594	-2.3623313171	 0.8165459767	 0.106724
H	-3.4505409843	-2.5766426229	-0.7770760557	 0.11096
H	-2.8363783199	-3.6697671786	 0.4404876356	 0.109856
H	-3.7516496174	-0.2016369788	 2.3138280259	 0.118334
97.364	98.6804	186.154	205.7693	219.6887	289.4929	326.157	347.4713	409.3696	421.8727	500.7429	535.7083	565.1589	708.5831	775.4586	790.8554	861.8775	887.0064	929.2923	951.0009	970.1203	1001.522	1008.46	1029.5298	1069.2601	1088.682	1153.3067	1186.8077	1207.5204	1214.8023	1257.7503	1273.0578	1330.0503	1366.0395	1373.6348	1382.5289	1409.0994	1411.9662	1416.0383	1468.5829	1479.8503	1489.7692	1492.4601	1498.9405	1509.1277	1517.2147	1732.373	3017.0265	3026.829	3034.8327	3045.3701	3048.9906	3055.8244	3064.8781	3083.267	3108.6892	3120.0794	3126.2305	3134.2564	3148.2108
CCC1(C)CCN=CO1	CC[C@@]1(C)CCN=CO1	
InChI=1S/C7H13NO/c1-3-7(2)4-5-8-6-9-7/h6H,3-5H2,1-2H3	InChI=1S/C7H13NO/c1-3-7(2)4-5-8-6-9-7/h6H,3-5H2,1-2H3/t7-/m0/s1
