19
gdb 81650	2.84848	1.6024	1.31279	1.139	81.77	-0.2074	-0.0308	0.1765	1024.6198	0.162085	-385.882316	-385.874926	-385.873981	-385.913626	30.422	
O	-0.0885842594	 1.3970425354	-0.0090168139	-0.445065
C	 0.0240464857	-0.0118098152	-0.0114242806	 0.139199
C	 0.2668813684	-0.6052126801	 1.4188789841	-0.107248
C	-1.2870255316	-0.6029896689	 1.5755279626	-0.227385
C	-1.4116350018	-0.6082016134	 0.0173813685	-0.067118
C	-1.5018875047	-1.9880635844	-0.5732080755	-0.094832
C	-0.6803474668	-3.0126751546	-0.2939341393	-0.075446
C	 0.4511865985	-3.0066340414	 0.6352123155	-0.078397
C	 0.8728326604	-1.9800297196	 1.3919701817	-0.090104
H	 0.7714746466	 1.7621511945	 0.2240637908	 0.281389
H	 0.6917552274	-0.3671288727	-0.8053551973	 0.070533
H	 0.8188171043	 0.0522426412	 2.0956963068	 0.055324
H	-1.7366166139	-1.4346814902	 2.1190237141	 0.103716
H	-1.629928366	 0.3486653799	 1.9813622282	 0.113073
H	-2.1663930806	 0.0551955503	-0.4070645719	 0.074531
H	-2.3065040006	-2.1576093695	-1.2833040631	 0.090268
H	-0.8633869831	-3.9587933951	-0.7969607183	 0.084948
H	 0.990918527	-3.9468337011	 0.7156628148	 0.084872
H	 1.7299225199	-2.1442201253	 2.0395462528	 0.087744
172.0106	208.4709	280.6866	294.4596	320.6207	406.7345	418.151	450.1694	608.1359	611.4883	708.3202	785.0719	796.7354	832.7035	835.8577	875.5737	922.7655	947.3251	968.6679	994.6586	998.8727	1001.6531	1056.2523	1094.9908	1099.3207	1137.3287	1150.7082	1204.507	1239.1975	1245.6267	1257.53	1258.6357	1310.8934	1334.4175	1347.977	1403.2952	1416.1845	1447.7913	1476.1773	1658.2185	1698.6157	3025.8124	3066.6822	3084.2495	3098.8601	3142.8767	3148.8318	3152.6329	3167.6162	3176.5834	3806.3126
OC1C2CC1C=CC=C2	O[C@H]1[C@H]2C[C@@H]1C=CC=C2	
InChI=1S/C8H10O/c9-8-6-3-1-2-4-7(8)5-6/h1-4,6-9H,5H2	InChI=1S/C8H10O/c9-8-6-3-1-2-4-7(8)5-6/h1-4,6-9H,5H2/t6-,7+,8+
