18
gdb 126835	3.07201	1.2818	0.98449	4.3743	75.39	-0.2213	0.0183	0.2395	1234.9613	0.146893	-435.275697	-435.266107	-435.265163	-435.31113	33.503	
C	-0.0226508157	 1.5559822524	-0.015408733	-0.383848
C	-0.0406575637	 0.0287158851	 0.0629056953	-0.143162
N	-1.3831907118	-0.5222226087	-0.0225686098	 0.011129
N	-2.0661940529	-0.8965915835	 1.0925236111	-0.174619
N	-3.237048034	-1.3125160279	 0.7076596362	-0.244878
C	-3.3495899395	-1.216938553	-0.6490487936	 0.193242
C	-4.5769369623	-1.6234249391	-1.3970122607	-0.522389
C	-2.1555761646	-0.7060119427	-1.1136502602	 0.301669
O	-1.6717012017	-0.391723028	-2.3364855212	-0.433099
H	 1.0046114496	 1.9215030374	 0.0745510479	 0.123508
H	-0.4267530549	 1.9023817822	-0.9705447786	 0.135849
H	-0.617097378	 1.9884591706	 0.7937726276	 0.142169
H	 0.555742428	-0.4083039557	-0.74362278	 0.130617
H	 0.3617983936	-0.3216517147	 1.0155764746	 0.14413
H	-5.0116824538	-0.7953115798	-1.9703984622	 0.122595
H	-4.3891473406	-2.4483796337	-2.0955843513	 0.123327
H	-5.3289130055	-1.9616030922	-0.6807892746	 0.158142
H	-2.3316351722	-0.6234308588	-2.9980898976	 0.315616
47.2335	52.1987	97.3617	203.6123	227.0163	239.43	248.487	292.9375	331.9277	417.2636	505.7707	592.0878	698.6445	721.015	733.953	768.7307	806.242	971.1671	997.2486	1055.634	1062.5866	1066.9861	1108.401	1209.5111	1255.3894	1286.1572	1315.803	1361.546	1375.3073	1392.4081	1411.9917	1420.2328	1475.8468	1487.7225	1492.117	1494.1303	1505.6737	1583.5312	1635.3628	3017.8779	3046.7555	3063.0329	3065.1424	3114.4038	3122.746	3129.2411	3137.5349	3833.3151
CCN1N=NC(C)=C1O	CCn1nnc(C)c1O	
InChI=1S/C5H9N3O/c1-3-8-5(9)4(2)6-7-8/h9H,3H2,1-2H3	InChI=1S/C5H9N3O/c1-3-8-5(9)4(2)6-7-8/h9H,3H2,1-2H3
