22
gdb 91807	2.59273	1.42822	1.21134	2.9371	81.36	-0.24	0.0665	0.3066	1161.1954	0.194992	-404.34632	-404.337344	-404.3364	-404.379581	35.46	
C	 0.0059028133	 1.6017882311	-0.0559509281	-0.398882
C	 0.0489333445	 0.0774756331	-0.043448778	 0.019704
C	 0.8180336365	-0.5713328435	-1.2272696009	-0.241152
C	 1.2785639941	-1.9176698956	-0.6834877534	-0.077839
N	 2.4785631974	-1.8149058674	 0.1824008154	-0.385426
C	 1.1377716236	-1.9415784196	 0.7971447065	 0.309297
C	 0.7873661358	-3.158247349	 1.6097085873	-0.508258
C	 0.6691662427	-0.5386255208	 1.2468859353	 0.065287
O	 1.7367127686	 0.2148998621	 1.7847486736	-0.437675
H	 1.0115373726	 2.0141491326	 0.0587735947	 0.126208
H	-0.4198930974	 1.9760285397	-0.9929921176	 0.102957
H	-0.6031341517	 1.9882460205	 0.7680069262	 0.111177
H	-0.9787374826	-0.3102814895	-0.0896484315	 0.064772
H	 0.1793386624	-0.6838765297	-2.1083257561	 0.096777
H	 1.6825745921	 0.0327380905	-1.5245825793	 0.108739
H	 1.1609303982	-2.820808521	-1.2753908773	 0.08511
H	 2.9622948612	-2.7089723159	 0.223778802	 0.229238
H	 1.1366932818	-4.0756708965	 1.1229194706	 0.111223
H	 1.2397080489	-3.1082169538	 2.6067164116	 0.134134
H	-0.2968748019	-3.2424707726	 1.7421133758	 0.127195
H	-0.0875601069	-0.6113020916	 2.0359242982	 0.07139
H	 2.5207437269	-0.094664493	 1.303172095	 0.286023
64.2961	198.0917	214.2928	218.9154	248.1929	274.9568	303.9358	351.2233	442.0561	509.1267	514.1605	573.5319	614.0483	666.1133	727.6723	809.2059	863.8136	887.0135	898.1244	922.8498	956.9684	985.3803	1007.0222	1036.7064	1062.6356	1100.543	1119.402	1126.6785	1143.249	1172.1077	1222.2552	1233.5957	1283.9012	1312.7247	1324.5324	1339.1802	1358.9825	1365.796	1406.8036	1412.8538	1434.0483	1466.9288	1483.6078	1486.8656	1492.0724	1498.2016	1499.5478	2998.2176	3022.9238	3035.1054	3043.0117	3047.3153	3088.1581	3089.9734	3093.2867	3097.2795	3121.0284	3150.8978	3493.6218	3676.3553
CC1CC2NC2(C)C1O	C[C@H]1C[C@H]2N[C@@]2(C)[C@H]1O	
InChI=1S/C7H13NO/c1-4-3-5-7(2,8-5)6(4)9/h4-6,8-9H,3H2,1-2H3	InChI=1S/C7H13NO/c1-4-3-5-7(2,8-5)6(4)9/h4-6,8-9H,3H2,1-2H3/t4-,5+,6-,7+/m0/s1
