23
gdb 58879	3.02587	1.25755	1.08068	0.2211	90.41	-0.2229	0.0257	0.2486	1251.0004	0.206082	-351.162392	-351.153362	-351.152418	-351.195841	35.812	
C	-0.0569361868	 1.5674472453	 0.4702522389	-0.382243
C	-0.0195818726	 0.1024627734	 0.002447909	-0.06891
C	 0.9567134752	-0.7106768412	 0.8625547457	-0.402416
C	-1.4297585977	-0.4790740655	-0.0548624708	 0.365451
C	-2.2008780373	-0.8706991936	 1.194846265	-0.319771
C	-1.8310935614	-1.9317725245	 0.18741447	-0.110056
C	-2.8679322877	-2.3268631446	-0.8627908142	-0.281832
C	-3.1231536899	-1.0311448112	-1.6035927859	-0.085412
C	-2.3293391291	-0.0480772356	-1.1755951703	-0.142159
H	 0.9408207471	 2.0172310696	 0.4321580933	 0.105936
H	-0.7205618721	 2.1760918655	-0.1518407007	 0.112043
H	-0.4178304173	 1.6338710467	 1.5027194108	 0.114782
H	 0.3677535826	 0.0903634677	-1.0265214441	 0.072325
H	 1.0581629009	-1.7375996119	 0.5002048633	 0.115054
H	 1.9504710732	-0.2517656006	 0.8429791295	 0.110478
H	 0.638602409	-0.749548944	 1.9104984158	 0.114398
H	-1.665870029	-0.8944015179	 2.1393345068	 0.104623
H	-3.2360299671	-0.5532098233	 1.2741936794	 0.105823
H	-1.0969641005	-2.6679298185	 0.492350753	 0.081566
H	-2.48526849	-3.1047368978	-1.5380013543	 0.103836
H	-3.7828269279	-2.734922939	-0.4128912119	 0.106982
H	-3.8817064403	-0.936040039	-2.3725529458	 0.089794
H	-2.3253356413	 0.96501256	-1.5633543825	 0.089707
55.9605	162.3968	196.0906	227.521	257.8681	283.9417	308.8885	378.4615	427.1206	461.531	486.3197	619.0342	714.3077	749.9932	771.1604	819.7913	881.5704	893.9135	920.8297	926.4233	938.9805	952.4607	962.9443	975.4466	1020.7271	1034.1849	1066.8432	1090.9048	1118.3915	1135.4537	1137.8581	1172.76	1191.6226	1231.8859	1273.1023	1313.944	1343.2774	1348.7722	1377.1782	1396.9603	1404.452	1418.562	1472.4583	1483.0283	1488.3664	1492.9003	1504.2283	1512.3503	1672.549	2997.0163	3008.7109	3027.7316	3032.3255	3036.0695	3092.2095	3098.7257	3101.443	3108.2489	3116.7329	3178.2843	3178.7803	3202.7361	3204.9364
CC(C)C12CC1CC=C2	CC(C)[C@]12C[C@H]1CC=C2	
InChI=1S/C9H14/c1-7(2)9-5-3-4-8(9)6-9/h3,5,7-8H,4,6H2,1-2H3	InChI=1S/C9H14/c1-7(2)9-5-3-4-8(9)6-9/h3,5,7-8H,4,6H2,1-2H3/t8-,9+/m1/s1
