21
gdb 114245	2.87397	1.03606	0.89278	0.8544	79.25	-0.231	0.0726	0.3036	1372.3656	0.180746	-424.184959	-424.175102	-424.174158	-424.220447	36.256	
O	 0.1053156711	 0.9594024291	-0.8411734822	-0.423819
C	-0.0942808481	-0.3521803454	-0.333612606	-0.083532
C	-1.5064689281	-0.4318669923	 0.2158897969	 0.037553
C	-2.6093145138	-0.3958780252	-0.8865358759	-0.316401
C	-2.8076482605	-1.9029400611	-0.6742156237	 0.323741
C	-4.0304529408	-2.7345577374	-0.9943758633	-0.409838
C	-2.7542460611	-2.9213939724	-1.7739308212	 0.090956
O	-2.6326527062	-2.5551161908	-3.1183156089	-0.423895
C	-1.9472967968	-1.8793003606	 0.5949024207	-0.33353
H	 0.9667543251	 0.9902988372	-1.2670666662	 0.286744
H	 0.0339196013	-1.1087590481	-1.1251947405	 0.09319
H	 0.626892265	-0.586557492	 0.4669760297	 0.083355
H	-1.6243856868	 0.3146286477	 1.005054001	 0.075736
H	-3.4786692427	 0.2083345069	-0.6117531127	 0.099096
H	-2.260044247	-0.0789280667	-1.8749044183	 0.10213
H	-4.3364041447	-3.5099248246	-0.297748872	 0.112072
H	-4.8577255226	-2.2331917602	-1.4912336219	 0.105659
H	-2.182434431	-3.828211864	-1.5986960747	 0.102604
H	-3.1141542791	-1.7327958429	-3.2558856777	 0.284533
H	-1.1498731439	-2.6278313508	 0.6623241868	 0.094098
H	-2.5346775293	-1.9169338865	 1.5174565601	 0.099548
33.2299	105.0746	120.7882	148.3805	202.8294	251.0965	262.1123	301.9475	346.3918	439.7202	467.4652	496.9191	581.0236	789.3881	804.8507	823.4812	837.7618	891.1222	909.0202	928.0333	978.6789	1013.952	1020.8896	1053.5098	1080.0533	1090.6053	1103.6329	1140.4656	1153.3973	1184.2531	1194.0503	1228.4712	1246.5837	1261.5686	1283.1104	1291.6882	1317.7487	1348.106	1364.5374	1435.6018	1458.2567	1474.1828	1485.8189	1493.321	1518.0475	2957.4291	2987.2429	3034.194	3041.3649	3073.155	3085.977	3093.8878	3107.4862	3153.1569	3193.2573	3818.4987	3831.559
OCC1CC2(CC2O)C1	OC[C@H]1C[C@]2(C[C@H]2O)C1	
InChI=1S/C7H12O2/c8-4-5-1-7(2-5)3-6(7)9/h5-6,8-9H,1-4H2	InChI=1S/C7H12O2/c8-4-5-1-7(2-5)3-6(7)9/h5-6,8-9H,1-4H2/t5-,6-,7+/m1/s1
