21
gdb 56035	4.0557	0.82844	0.78468	3.41	79.69	-0.2376	0.0614	0.299	1536.0312	0.184755	-420.469077	-420.459536	-420.458592	-420.50604	34.814	
N	 0.4608946196	 1.218161169	-0.2131372574	-0.569409
C	 0.2974507202	-0.1631565139	-0.1157228024	 0.448433
O	 1.2404582857	-0.9330040217	-0.1078982354	-0.393237
N	-1.0176842192	-0.5580902072	-0.0112924401	-0.356309
C	-1.3698798521	-1.9325833295	 0.2901902117	 0.073686
C	-1.6594983051	-2.2372870622	 1.7721490372	-0.214221
C	-2.3411726395	-3.615323333	 1.7258926099	-0.203464
C	-3.1108501979	-3.6545356657	 0.3688669514	-0.205452
C	-2.6526380813	-2.4031890764	-0.4196683289	-0.218067
H	 1.3917395188	 1.4637188294	-0.5160649082	 0.258056
H	-0.2645008695	 1.7348705036	-0.6888699697	 0.243855
H	-1.6935337724	 0.146335253	 0.2443776429	 0.231391
H	-0.5144230432	-2.5310900023	-0.0342018856	 0.121131
H	-0.7570192509	-2.2146005672	 2.3881910144	 0.110351
H	-2.3490636386	-1.4779863563	 2.1666973821	 0.081676
H	-1.5818076155	-4.4037136289	 1.7482803226	 0.106105
H	-2.9967913938	-3.7866975575	 2.5835196598	 0.096595
H	-2.8782608348	-4.5719697573	-0.1788693348	 0.103534
H	-4.1938429941	-3.6496083324	 0.5188925368	 0.099152
H	-3.4084263155	-1.6099101739	-0.3486217696	 0.084067
H	-2.4931051511	-2.5946810395	-1.4838840165	 0.102125
17.0934	30.3369	81.1999	114.8566	233.4045	340.3293	352.5814	392.8589	455.8355	471.2537	569.4659	587.1479	625.1144	680.5598	774.246	779.1892	816.3948	884.5589	898.836	958.4454	961.3209	980.3634	1010.2365	1051.9674	1093.3657	1106.7658	1157.505	1201.6214	1212.1645	1226.7034	1265.2035	1290.5324	1304.3048	1322.1613	1337.1529	1343.2679	1350.5234	1400.6014	1484.4518	1493.9705	1495.5961	1517.8268	1540.819	1626.885	1800.3755	3011.6826	3019.4145	3046.7566	3059.4757	3078.8521	3084.9881	3095.2788	3098.6823	3109.6599	3567.0633	3606.8709	3679.9727	17.0932	30.3362	81.1997	114.8566	233.4044	340.3293	352.5813	392.8586	455.8354	471.2534	569.4656	587.1478	625.1145	680.5599	774.2459	779.189	816.3948	884.5589	898.836	958.4454	961.3209	980.3634	1010.2365	1051.9674	1093.3657	1106.7658	1157.505	1201.6215	1212.1644	1226.7035	1265.2035	1290.5325	1304.3049	1322.1614	1337.1529	1343.2679	1350.5234	1400.6016	1484.4518	1493.9705	1495.5961	1517.8267	1540.8193	1626.8851	1800.3754	3011.6826	3019.4145	3046.7566	3059.4757	3078.8521	3084.9881	3095.2788	3098.6823	3109.6599	3567.0632	3606.8707	3679.9726
NC(=O)NC1CCCC1	NC(=O)NC1CCCC1	
InChI=1S/C6H12N2O/c7-6(9)8-5-3-1-2-4-5/h5H,1-4H2,(H3,7,8,9)	InChI=1S/C6H12N2O/c7-6(9)8-5-3-1-2-4-5/h5H,1-4H2,(H3,7,8,9)
