17
gdb 68970	2.63984	1.64686	1.20249	1.9062	80.26	-0.2438	-0.0098	0.234	1056.99	0.133859	-384.652632	-384.644338	-384.643394	-384.685008	32.408	
C	-0.0231559953	 1.5197580607	-0.046591651	-0.482266
C	-0.0925525047	 0.0270366371	 0.1123273677	 0.313421
C	-1.3530380529	-0.7474659058	-0.2827762144	-0.331935
C	-1.3104759354	-1.9784746654	 0.5959493846	-0.078641
C	-0.2711496424	-1.9686137738	 1.4318448265	-0.162081
C	 0.5687444736	-0.7496211391	 1.2019331375	 0.1882
O	 1.1095232406	-0.6983820022	-0.1526757571	-0.329757
C	 1.3782232164	-0.1824279332	 2.238666665	 0.227491
C	 2.0426385853	 0.2729058277	 3.1314942818	-0.391251
H	 0.8932834658	 1.9092840116	 0.401540153	 0.141756
H	-0.0317426269	 1.7907105036	-1.1081190047	 0.129153
H	-0.8819833443	 2.0012014354	 0.4318908868	 0.123644
H	-2.2585473582	-0.1522843812	-0.1082702745	 0.114743
H	-1.3383301233	-1.0003252335	-1.3500329303	 0.127996
H	-2.0375809463	-2.7778792114	 0.5115386761	 0.106094
H	-0.0157891754	-2.7250172667	 2.1621401311	 0.110223
H	 2.6347655936	 0.6788102963	 3.9141630018	 0.193211
130.4018	143.8924	176.0283	221.8192	306.064	370.9327	376.9814	482.88	525.4647	536.814	585.7807	615.7038	648.9205	664.3272	708.9638	751.6886	805.5924	887.1347	929.7384	942.4194	953.5359	970.8246	1043.3523	1085.532	1142.1131	1189.9423	1207.5224	1218.6087	1313.4289	1362.0526	1403.7754	1423.424	1458.0432	1484.4143	1492.321	1664.8361	2240.1389	3027.2146	3038.6713	3063.0131	3101.1777	3133.7903	3197.1999	3229.6145	3501.0924
CC12CC=CC1(O2)C#C	C[C@]12CC=C[C@]1(O2)C#C	
InChI=1S/C8H8O/c1-3-8-6-4-5-7(8,2)9-8/h1,4,6H,5H2,2H3	InChI=1S/C8H8O/c1-3-8-6-4-5-7(8,2)9-8/h1,4,6H,5H2,2H3/t7-,8+/m0/s1
