20
gdb 58389	2.10895	1.18968	0.79646	3.1501	84.14	-0.2652	0.0168	0.282	1458.727	0.16714	-403.115384	-403.104639	-403.103695	-403.151856	38.123	
C	 0.4542506975	 1.585501214	 0.1626252857	-0.403464
C	 0.2198535669	 0.0719977871	 0.084466493	 0.018198
C	 0.8703090507	-0.6563263575	 1.2666394328	-0.402901
C	-1.2903135552	-0.2382137241	 0.0120207431	-0.073723
O	-1.8112324491	 0.4676202971	-1.1283947219	-0.18883
C	-3.1538522975	 0.5875236968	-1.2057677073	 0.130365
N	-3.6710882615	 1.1925306649	-2.1841188739	-0.441594
C	-1.5801890729	-1.6697108864	-0.0968547938	 0.338329
C	-1.8310098626	-2.8404332621	-0.20083808	-0.446585
H	 1.527002372	 1.8008374726	 0.1694986972	 0.114077
H	 0.002747637	 2.1031734837	-0.6852657525	 0.145562
H	 0.0279739846	 1.9999709794	 1.0844776824	 0.109041
H	 0.6562018722	-0.3055399651	-0.8482690635	 0.100364
H	 0.4477959265	-0.3156229072	 2.2196782066	 0.11371
H	 0.7328364838	-1.7384806672	 1.202677977	 0.131609
H	 1.9440807976	-0.4489754723	 1.2903238655	 0.119382
H	-1.7696295378	 0.1562642769	 0.9216324802	 0.105984
H	-3.6873413986	 0.1251331118	-0.3652293296	 0.0952
H	-4.6844101397	 1.2040901743	-2.0876344718	 0.229754
H	-2.052435794	-3.8753260066	-0.2940543493	 0.205524
53.9383	70.73	82.7221	143.3079	159.5291	213.523	231.6603	257.34	321.3746	338.7211	411.7852	424.0102	512.2265	524.078	635.5244	673.6304	690.4614	818.196	854.0965	906.2278	936.0043	965.1112	990.9231	1021.2813	1039.7283	1111.4432	1139.3778	1166.0538	1194.179	1284.7325	1298.9052	1340.782	1353.4536	1375.8409	1399.1595	1420.3977	1426.0311	1488.6637	1492.0002	1502.1033	1514.6867	1746.0334	2234.1696	2982.3045	3029.8999	3031.6218	3036.1931	3043.6003	3095.6435	3102.6438	3123.9316	3138.6294	3500.5185	3517.0507
CC(C)C(OC=N)C#C	CC(C)[C@@H](O[CH][NH])C#C	
InChI=1S/C7H11NO/c1-4-7(6(2)3)9-5-8/h1,5-8H,2-3H3	InChI=1S/C7H11NO/c1-4-7(6(2)3)9-5-8/h1,5-8H,2-3H3/t7-/m0/s1
