15
gdb 7215	3.77064	1.14458	0.9231	5.1819	66.16	-0.2483	0.0145	0.2628	1230.7044	0.11769	-399.804601	-399.795559	-399.794615	-399.840104	30.66	
C	 0.0382262136	 1.5055977394	 0.2016936954	-0.498569
C	 0.0209061762	 0.0537069373	 0.1061481454	 0.060101
C	 0.0298597915	-1.1468797791	 0.0197223567	 0.12165
C	-0.0204656748	-2.5992024968	-0.0905133707	-0.327072
N	-1.371653399	-3.1863328678	 0.0562409894	-0.528809
H	-1.6109651658	-3.2871416971	 1.0367062772	 0.252239
H	-2.0583297521	-2.5556870585	-0.3481884581	 0.252257
H	-0.7754028883	-4.3317963729	-1.3079901294	 0.308495
C	 0.6166923251	-3.1107081108	-1.4199679399	 0.447213
O	 1.5878883699	-2.6180740368	-1.9179950297	-0.326004
O	-0.0070195788	-4.1892605077	-1.9053659067	-0.369216
H	 1.0654789727	 1.8847829581	 0.1773765373	 0.159997
H	-0.5043681582	 1.964914863	-0.6315338545	 0.153365
H	-0.4231654442	 1.8512902502	 1.1331334665	 0.148391
H	 0.6065675221	-3.0478368105	 0.692245921	 0.145962
23.7441	56.9768	86.9343	149.4003	265.2996	298.8723	325.8237	338.4527	430.8888	467.7575	529.2573	583.0323	716.0988	809.5017	851.6951	872.8476	941.4051	1050.8569	1054.5912	1082.1076	1168.1717	1178.8649	1211.4288	1286.5601	1378.7577	1413.5745	1429.2398	1476.3857	1477.3228	1658.8338	1884.456	2373.4016	3021.7951	3030.5845	3092.155	3094.9225	3459.4456	3503.9645	3584.4162
CC#CC([NH3+])C([O-])=O	CC#C[C@@H](N)C(=O)O	
InChI=1S/C5H7NO2/c1-2-3-4(6)5(7)8/h4H,6H2,1H3,(H,7,8)	InChI=1S/C5H7NO2/c1-2-3-4(6)5(7)8/h4H,6H2,1H3,(H,7,8)/t4-/m1/s1
