19
gdb 9286	5.12209	0.87049	0.78573	3.6429	70.02	-0.2473	0.0348	0.2821	1452.2613	0.16424	-402.23055	-402.220955	-402.220011	-402.265814	33.606	
C	-0.2018736108	 1.5091855489	-0.131288214	-0.382442
C	 0.060810899	 0.0094788413	 0.0267199149	-0.193737
C	 0.7559025861	-0.6119300337	-1.1861486916	 0.120594
O	 2.0189497974	 0.0057666101	-1.4594658559	-0.436431
C	 0.9359124215	-2.1263501149	-1.0420126895	-0.165951
N	 1.6476575129	-2.6604824313	-2.1863322545	-0.275355
C	 1.284545783	-3.8008165431	-2.8255651745	 0.153375
O	 0.3761870232	-4.533395446	-2.4911169852	-0.328131
H	 0.7275670908	 2.0470704611	-0.3362699554	 0.126265
H	-0.8860267353	 1.7016287671	-0.964608341	 0.120442
H	-0.6505293896	 1.9284418794	 0.7737657938	 0.115092
H	 0.6801387413	-0.1724158101	 0.9178161443	 0.089691
H	-0.8816891527	-0.5242076398	 0.200366195	 0.109467
H	 0.1630530237	-0.4177713731	-2.0885060943	 0.098824
H	 2.5389694969	-0.0237521791	-0.6472819473	 0.280986
H	 1.4813574204	-2.3411191755	-0.1093658248	 0.097058
H	-0.0264470521	-2.6404255464	-0.9814913256	 0.145289
H	 2.3863483321	-2.0861094634	-2.5630585575	 0.252487
H	 1.9259081523	-3.9976274116	-3.707790197	 0.072477
34.2179	92.4717	111.3581	147.4716	213.062	239.2847	265.2652	329.2113	356.8747	388.5088	464.3736	539.6591	606.4232	768.4924	780.7969	873.8429	937.2365	977.9642	1006.1676	1033.6731	1054.7019	1090.2245	1117.8149	1150.925	1213.7102	1232.2124	1265.2856	1296.5978	1345.4581	1380.1074	1402.5001	1409.1729	1423.4983	1428.6499	1480.6633	1495.8424	1499.9743	1508.3819	1521.4271	1802.6074	2934.1893	2979.7257	3001.587	3040.7117	3043.4851	3057.4672	3107.1547	3110.4581	3122.124	3625.9543	3783.9191
CCC(O)CNC=O	CC[C@@H](O)CNC=O	
InChI=1S/C5H11NO2/c1-2-5(8)3-6-4-7/h4-5,8H,2-3H2,1H3,(H,6,7)	InChI=1S/C5H11NO2/c1-2-5(8)3-6-4-7/h4-5,8H,2-3H2,1H3,(H,6,7)/t5-/m1/s1
