18
gdb 37887	3.19084	2.11956	1.74255	1.5433	74.4	-0.2297	0.0912	0.3209	834.5646	0.151445	-401.870539	-401.864689	-401.863744	-401.900336	25.659	
C	-0.076046471	 1.5457674417	-0.0003312273	-0.320457
C	 1.4442418491	 1.2006363694	-0.0370000193	-0.054924
C	 1.2602602825	 0.2158140782	 1.1583134523	-0.05671
C	 1.7686544356	-1.1982019713	 0.8979892011	 0.068732
C	 2.0646510187	-1.0535421884	-0.6012943603	-0.189679
N	 1.1168544916	 0.0405709385	-0.9585302288	-0.151137
C	 0.0684258449	 0.0261015013	 0.1780705219	 0.307987
C	-0.5521559283	-1.3104085061	 0.4934092394	-0.201841
O	 0.5792971329	-2.0205356171	 1.056924037	-0.292339
H	-0.4343473451	 2.1106279606	 0.8615421738	 0.103347
H	-0.5062283131	 1.8872961086	-0.9424530302	 0.113479
H	 2.2787344543	 1.8727501144	-0.2481292722	 0.082807
H	 1.0915605927	 0.5538176193	 2.1812797344	 0.0771
H	 2.540029529	-1.6294857672	 1.5342593913	 0.077368
H	 3.0941878814	-0.7532473699	-0.8249383963	 0.100425
H	 1.8283747249	-1.9644328945	-1.156116207	 0.111933
H	-1.3529965575	-1.2527836586	 1.2395693848	 0.111252
H	-0.9248367826	-1.8348958088	-0.3944687346	 0.112656
233.1747	358.8771	402.2993	445.8183	468.4173	596.8485	685.142	715.0151	753.2973	808.272	838.8081	854.244	870.6315	908.9011	927.722	957.4692	977.1669	988.8809	1006.3689	1027.3278	1056.2678	1075.0307	1083.4899	1112.8924	1138.3525	1183.5062	1192.9147	1199.1118	1215.8102	1225.5099	1250.1672	1268.0546	1301.7399	1321.7161	1332.0437	1373.4192	1493.2424	1497.9023	1513.4453	3023.8042	3047.0044	3065.7292	3077.6122	3090.6454	3110.1601	3112.7898	3135.5967	3153.9069
C1C2C3C4CN2C13CO4	C1[C@H]2[C@@H]3[C@@H]4CN2[C@]13CO4	
InChI=1S/C7H9NO/c1-4-6-5-2-8(4)7(1,6)3-9-5/h4-6H,1-3H2	InChI=1S/C7H9NO/c1-4-6-5-2-8(4)7(1,6)3-9-5/h4-6H,1-3H2/t4-,5-,6+,7-/m0/s1
