19
gdb 125543	3.03505	1.46328	1.01238	2.5928	85.05	-0.217	0.0413	0.2583	1196.7812	0.160038	-382.071304	-382.062401	-382.061456	-382.105665	31.892	
C	-0.1561828918	 1.4911749716	-0.0025131668	-0.489451
C	 0.0425421944	 0.0078766104	 0.0302086467	 0.307285
N	 0.1699882882	-0.6796864859	-1.1220802592	-0.373902
N	 0.3248886368	-1.9303028771	-0.6728162308	 0.078137
C	 0.5247471518	-3.3442833493	-1.0075489804	-0.167137
C	 0.5096087492	-3.5831499678	 0.5594532883	-0.381911
C	 0.3040074177	-2.074165297	 0.6592082994	 0.351035
C	 0.1180184594	-0.8161752429	 1.2026799372	-0.090662
C	 0.0155337668	-0.3747231999	 2.6293626459	-0.508113
H	 0.6464320994	 2.0182675556	 0.527134106	 0.122712
H	-0.1722733908	 1.8408910699	-1.0367359341	 0.138963
H	-1.0992645443	 1.7832247564	 0.4748193008	 0.122707
H	-0.3022385319	-3.7952415488	-1.5628912862	 0.131193
H	 1.4725864295	-3.5570666661	-1.5095352226	 0.131181
H	-0.3166864384	-4.2048327949	 0.9121725404	 0.128431
H	 1.4481663273	-3.9679190143	 0.965338464	 0.128417
H	 0.7993230276	 0.3461223063	 2.8922751524	 0.125982
H	-0.9448255218	 0.1117057095	 2.8395003156	 0.125978
H	 0.1089000306	-1.2232619256	 3.3127152633	 0.119156
49.9341	79.3118	127.3498	176.417	224.853	276.0933	291.2937	301.0383	549.2367	583.4976	637.8411	652.8346	686.4469	812.2528	815.8547	854.9449	905.3925	996.5385	1048.4874	1057.2631	1070.999	1074.6328	1097.1476	1132.6627	1170.6881	1211.8306	1231.0364	1277.2864	1333.7951	1372.876	1403.267	1421.1446	1463.4397	1474.8507	1480.6495	1487.8093	1488.6427	1494.5791	1502.1334	1532.7657	1627.3605	3020.506	3024.8761	3055.9752	3064.5192	3069.6211	3070.9726	3105.991	3106.1247	3121.9458	3131.4203
CC1=NN2CCC2=C1C	Cc1nn2CCc2c1C	
InChI=1S/C7H10N2/c1-5-6(2)8-9-4-3-7(5)9/h3-4H2,1-2H3	InChI=1S/C7H10N2/c1-5-6(2)8-9-4-3-7(5)9/h3-4H2,1-2H3
