15
gdb 131532	4.96385	1.10096	0.94202	1.2111	69.33	-0.2193	0.011	0.2304	1178.7388	0.114276	-453.921599	-453.914109	-453.913165	-453.95371	28.47	
O	 0.3695853617	 1.2545486373	 0.512487481	-0.41544
C	 0.0748794506	-0.0236433198	 0.0310556557	 0.005053
C	-1.4551943898	-0.4617825651	-0.0722443194	-0.205789
N	-1.1981306446	-0.5697571762	-1.5155967525	 0.067502
N	-1.6122816842	-1.1862574411	-2.6405338762	-0.397854
C	-0.4795390958	-1.211694643	-3.358546604	 0.448609
O	-0.4690199762	-1.6856880699	-4.6200196015	-0.421863
C	 0.660953943	-0.692865274	-2.6832820303	-0.49382
C	 0.1192357956	-0.2997414957	-1.47316008	 0.320223
H	 0.0066812254	 1.9000889322	-0.1044918131	 0.289319
H	 0.6637739709	-0.7208740372	 0.6314868084	 0.122615
H	-1.6908410263	-1.4146774852	 0.410593815	 0.134444
H	-2.1908115287	 0.2986927435	 0.2042452216	 0.124747
H	-1.3682606085	-1.9745622966	-4.8207777914	 0.305624
H	 1.6676575169	-0.6309870292	-3.0578525834	 0.116629
89.6616	138.0427	248.966	304.0883	357.3747	410.5384	417.7637	453.8987	535.8558	613.612	699.3791	717.7193	774.3609	785.8813	852.9212	865.1982	994.6367	1008.7828	1056.4125	1125.9	1146.9887	1150.2962	1195.7968	1222.2144	1259.2735	1289.6618	1333.3111	1421.3152	1442.3525	1466.9758	1512.9342	1540.1815	1586.554	3051.6199	3094.3893	3112.6279	3288.1625	3793.44	3802.2314
OC1CN2N=C(O)C=C12	O[C@H]1Cn2nc(O)cc12	
InChI=1S/C5H6N2O2/c8-4-2-7-3(4)1-5(9)6-7/h1,4,8H,2H2,(H,6,9)	InChI=1S/C5H6N2O2/c8-4-2-7-3(4)1-5(9)6-7/h1,4,8H,2H2,(H,6,9)/t4-/m0/s1
