15
gdb 5791	6.09735	1.3934	1.22188	2.396	67.71	-0.2051	0.0396	0.2447	962.9126	0.120759	-362.671851	-362.66508	-362.664136	-362.703224	25.54	
C	 0.1071762456	 1.5392536569	 0.0180209296	-0.171209
O	 1.1996700252	 0.6261538987	-0.0779425049	-0.234783
C	-0.1209001946	 0.0808263657	 0.0274770216	-0.041663
C	-0.4327867043	-0.669853999	 1.2608869592	 0.281514
C	 0.3637202045	-0.7431642022	 2.3835841326	-0.176113
N	-0.2826892694	-1.5261365464	 3.3042020579	-0.238786
C	-1.4779203557	-1.9618215835	 2.791615863	-0.065747
C	-1.5993388188	-1.4487160645	 1.522202249	-0.271
H	 0.0348277702	 2.0843175553	 0.9577856007	 0.110798
H	-0.0978938231	 2.1189886941	-0.8818969433	 0.109992
H	-0.4916631454	-0.3626549451	-0.8981005556	 0.090705
H	 1.3355179849	-0.32028367	 2.5753775598	 0.132255
H	 0.0804494275	-1.7684227314	 4.2090077487	 0.262407
H	-2.133598577	-2.5953627591	 3.3667538473	 0.119964
H	-2.4313461097	-1.6051525296	 0.8523234644	 0.091666
67.2282	165.0008	181.8021	398.0592	446.4123	487.987	638.4357	654.9348	675.2352	694.7836	784.7949	825.3255	853.5106	885.884	906.5027	967.3985	1019.9173	1082.2488	1094.0161	1097.2955	1147.8818	1160.8471	1171.7693	1245.7013	1270.4069	1304.2969	1394.4118	1442.5163	1467.2486	1513.9154	1531.3077	1610.4772	3076.5489	3093.9987	3169.8448	3243.0602	3270.3027	3279.0974	3686.8205
C1OC1C1=CNC=C1	C1O[C@H]1c1c[nH]cc1	
InChI=1S/C6H7NO/c1-2-7-3-5(1)6-4-8-6/h1-3,6-7H,4H2	InChI=1S/C6H7NO/c1-2-7-3-5(1)6-4-8-6/h1-3,6-7H,4H2/t6-/m1/s1
