21
gdb 105272	2.58727	1.21289	1.04548	2.3742	78.32	-0.2486	0.0649	0.3134	1251.1108	0.182079	-424.186831	-424.17757	-424.176625	-424.220819	35.864	
O	-0.2746809581	 1.7321143372	 0.8053400758	-0.428091
C	-0.1058971927	 0.3310761062	 0.796390489	-0.117095
C	-1.2806262879	-0.4643094947	 0.2111467862	 0.257914
C	-2.6510334146	 0.1868086056	 0.2589841343	-0.363436
C	-1.9209244968	 0.0371998452	-1.0520816172	 0.041182
O	-1.3326006331	 1.1582993541	-1.6787328787	-0.432679
C	-1.137510877	-1.9389648345	 0.4668100819	-0.047317
C	-1.7260982995	-3.0178344157	-0.4068434248	-0.290968
C	-0.2345314207	-2.8014311693	-0.3856852684	-0.261571
H	-0.4232294083	 1.9798158937	-0.1174474224	 0.284933
H	 0.8117157495	 0.0386492006	 0.2606965366	 0.092387
H	 0.0269012413	 0.0297196435	 1.8425803241	 0.1029
H	-3.5226714991	-0.4358501941	 0.429957319	 0.10964
H	-2.6824755577	 1.1805588998	 0.6923854162	 0.127442
H	-2.3078342504	-0.689117837	-1.7640236838	 0.089939
H	-2.0434805714	 1.7066305044	-2.0285190226	 0.293596
H	-1.1291724563	-2.1752506844	 1.5291908745	 0.085976
H	-2.1264971964	-3.8964919385	 0.0868304357	 0.111865
H	-2.2651416044	-2.739303431	-1.3054392475	 0.1131
H	 0.2116806605	-2.3389720625	-1.2599308922	 0.117529
H	 0.394410823	-3.5394946288	 0.0993924842	 0.112755
56.9178	132.5544	163.7015	199.4837	250.8781	261.6686	333.8599	383.9537	404.2702	473.2377	492.18	538.56	598.8784	697.4296	782.1078	808.3653	832.2643	840.8056	910.2677	926.5241	948.6939	1006.713	1035.1106	1056.1546	1059.2117	1075.8128	1081.5504	1094.7264	1133.4892	1142.3529	1177.4234	1198.3592	1206.6688	1240.5379	1259.33	1290.316	1322.8445	1378.8678	1402.2872	1424.7328	1465.2171	1469.1107	1491.6998	1505.4639	1506.9679	2972.1432	3048.4406	3117.3728	3119.4016	3131.5135	3131.9558	3137.2307	3209.1544	3224.0612	3226.7554	3744.583	3799.439
OCC1(CC1O)C1CC1	OC[C@]1(C[C@H]1O)C1CC1	
InChI=1S/C7H12O2/c8-4-7(3-6(7)9)5-1-2-5/h5-6,8-9H,1-4H2	InChI=1S/C7H12O2/c8-4-7(3-6(7)9)5-1-2-5/h5-6,8-9H,1-4H2/t6-,7-/m1/s1
