17
gdb 127924	4.93467	1.05807	0.88082	1.7173	83.71	-0.2163	-0.0653	0.151	1311.042	0.136417	-414.196517	-414.187931	-414.186987	-414.229771	31.434	
C	 0.2318037728	 1.4083814062	 0.1698284768	-0.344028
N	 0.2045792603	-0.0402727103	 0.1353570842	-0.318516
C	 0.4389012053	-0.6087926378	-0.989909373	 0.386892
N	 0.7212289365	 0.0061749268	-2.2032166752	-0.320271
N	 0.9641979932	-0.6285688957	-3.3763908255	-0.224827
C	 0.927415822	-1.9235632567	-3.3515229769	 0.373752
C	 1.1882882229	-2.6775509567	-4.6185774269	-0.453812
N	 0.6593337212	-2.6939817403	-2.2189185896	-0.276274
C	 0.4326695056	-2.0620784039	-1.1207562451	-0.010122
H	 1.2145452198	 1.8216994216	-0.1165048287	 0.109109
H	-0.5188194726	 1.8634732804	-0.4995568136	 0.109066
H	 0.0160833404	 1.7533402311	 1.1835910745	 0.130827
H	 0.7599338375	 1.0101898493	-2.2693962105	 0.273499
H	 2.0459014357	-3.3466557417	-4.4915097133	 0.14124
H	 0.3283088147	-3.3079945442	-4.8680960673	 0.141243
H	 1.3840892324	-1.9879777009	-5.4401632543	 0.138623
H	 0.2190173824	-2.6225739673	-0.2122760557	 0.143597
74.5453	153.1522	177.4639	197.9717	199.3452	326.5251	337.5711	392.352	437.9965	495.117	565.3591	631.923	634.1373	758.5595	773.1348	817.6133	976.1696	987.5575	1026.6646	1047.9223	1069.0049	1101.2637	1157.0084	1220.3872	1272.3717	1328.3455	1381.1702	1410.1562	1428.2264	1453.9063	1473.553	1478.227	1500.1812	1502.6643	1593.1533	1665.0361	1705.4259	2942.4293	2982.1613	3042.4335	3096.7092	3104.3925	3153.1498	3157.2575	3650.5087
CN=C1NN=C(C)N=C1	CN=c1[nH]nc(C)nc1	
InChI=1S/C5H8N4/c1-4-7-3-5(6-2)9-8-4/h3H,1-2H3,(H,6,9)	InChI=1S/C5H8N4/c1-4-7-3-5(6-2)9-8-4/h3H,1-2H3,(H,6,9)
