18
gdb 91162	2.70425	1.64897	1.52729	3.1712	76.72	-0.2098	-0.0028	0.2071	968.7599	0.14923	-401.949043	-401.941603	-401.940659	-401.9807	29.474	
C	-0.2545221681	 1.4454974082	-0.0232968651	-0.324665
N	 0.0755230117	 0.0331590487	 0.006056194	-0.06235
C	 0.8355879379	-0.4514290086	-1.1667624997	-0.16774
C	 1.9168877777	-1.380986891	-0.5403718401	-0.183397
C	 2.8841403162	-0.4969479972	 0.2162756648	-0.085289
C	 2.2342679741	 0.0740675116	 1.24801789	-0.086954
C	 0.8074721839	-0.4355797937	 1.2129182381	-0.155656
C	 1.1170245391	-1.865909316	 0.7014917101	 0.449136
O	 0.8685330409	-2.9512856839	 1.1241661181	-0.322546
H	 0.6294089159	 2.1060989441	-0.0687999845	 0.09843
H	-0.875723677	 1.6546605912	-0.9003673788	 0.124075
H	-0.8359390716	 1.7073710018	 0.866651677	 0.120199
H	 0.1824092936	-1.0009833521	-1.855271921	 0.112277
H	 1.3086050379	 0.3712673988	-1.7220482877	 0.093083
H	 2.3319375333	-2.1402934475	-1.1990772378	 0.087745
H	 3.9221838785	-0.362731719	-0.0600028674	 0.109341
H	 2.6427918702	 0.7673425663	 1.9720382967	 0.108979
H	 0.203508776	-0.3474209618	 2.1137194133	 0.08533
116.7604	171.1367	217.8719	287.677	357.7707	408.9531	422.2033	532.0106	610.2885	621.8875	732.0865	747.0608	794.0255	837.4308	856.3548	893.0743	944.6724	954.2467	976.3652	1003.5578	1050.5663	1082.6867	1122.1385	1140.6689	1149.4738	1164.3339	1200.4161	1221.5815	1241.797	1285.4321	1305.2739	1345.5262	1368.1428	1454.9114	1486.389	1504.2324	1521.7726	1607.4739	1907.6046	2947.8653	2991.9373	3040.8625	3060.1539	3100.7287	3143.1767	3149.06	3200.8637	3224.0065
CN1CC2C=CC1C2=O	CN1C[C@H]2C=C[C@@H]1C2=O	
InChI=1S/C7H9NO/c1-8-4-5-2-3-6(8)7(5)9/h2-3,5-6H,4H2,1H3	InChI=1S/C7H9NO/c1-8-4-5-2-3-6(8)7(5)9/h2-3,5-6H,4H2,1H3/t5-,6-/m1/s1
