15
gdb 17703	5.15479	2.07544	2.01579	0.2384	63.1	-0.2179	0.0709	0.2887	708.1332	0.120361	-362.554619	-362.548958	-362.548014	-362.583925	23.793	
O	-0.1301999542	 1.421248743	 0.0319301204	-0.456984
C	 0.0261310578	 0.0621711501	 0.0357430523	 0.380122
C	-1.0185618302	-1.0204132474	 0.1397345805	-0.140274
C	 0.0031386914	-0.988645884	-1.0330629313	-0.126484
N	 1.1626031957	-1.764384277	-0.5039357369	-0.151189
C	 0.5297673083	-2.9239764706	 0.2324388442	-0.178674
C	-0.1947769319	-1.8900767	 1.1157874702	-0.064711
C	 0.9864644857	-0.9155559774	 0.7763380093	-0.105946
H	 0.5762475188	 1.8087716001	-0.4981522544	 0.292555
H	-2.0867676612	-0.9637675038	-0.0162049153	 0.09559
H	-0.2777937677	-0.960771935	-2.0778325644	 0.094663
H	-0.0564960839	-3.6084457164	-0.3877756395	 0.101714
H	 1.3076671427	-3.4751079071	 0.7691065012	 0.106848
H	-0.5797229221	-2.0878598281	 2.1154205382	 0.071878
H	 1.8589949308	-0.7093563665	 1.3936893854	 0.080893
258.4967	298.436	353.7669	458.4626	591.6299	595.3405	713.5972	764.4741	788.4958	822.7784	836.8886	865.1919	887.5704	902.8574	925.3316	958.5235	1010.9204	1021.5797	1043.1549	1060.9533	1109.8224	1123.8441	1149.5715	1189.0386	1202.2468	1213.3115	1227.5583	1251.1921	1283.1833	1317.7355	1488.7313	1501.2341	3049.2655	3107.9657	3121.8868	3134.7493	3199.396	3218.7572	3784.2597
OC12C3C1N1CC3C21	O[C@@]12[C@H]3[C@@H]1N1C[C@H]3[C@H]21	
InChI=1S/C6H7NO/c8-6-3-2-1-7(4(2)6)5(3)6/h2-5,8H,1H2	InChI=1S/C6H7NO/c8-6-3-2-1-7(4(2)6)5(3)6/h2-5,8H,1H2/t2-,3-,4-,5+,6-/m1/s1
