14
gdb 124226	4.9218	1.00325	0.91964	3.518	65.27	-0.2729	-0.056	0.2169	1238.6053	0.099226	-469.97772	-469.969589	-469.968645	-470.012709	28.45	
C	-0.1526934274	 1.2657429246	-0.4536732532	-0.44757
C	 0.0182183833	-0.1112032171	 0.1060219428	 0.397285
N	 1.0827161804	-0.5397523546	 0.6170174489	-0.487896
O	-1.194683388	-0.8051385438	-0.0401236789	-0.275448
C	-1.2889287575	-2.0776025374	 0.390238649	 0.288007
C	-2.1438985833	-2.6087369422	 1.3044101248	-0.038902
O	-1.953788525	-3.9246645067	 1.3330615851	-0.155014
N	-0.9145877554	-4.2079716353	 0.3946490755	 0.005577
N	-0.560811741	-3.1207177332	-0.1324710951	-0.161932
H	 0.7761583913	 1.8212624751	-0.3363722386	 0.157139
H	-0.419423045	 1.2087718444	-1.5135082646	 0.151206
H	-0.9666791727	 1.7871582116	 0.0591330923	 0.144336
H	 1.0289968334	-1.5099870822	 0.9248511115	 0.239972
H	-2.8952265132	-2.1865205932	 1.9494234304	 0.183239
13.7634	71.1391	136.2921	152.9019	341.9971	365.6262	422.1313	540.7523	565.9364	635.2614	638.1341	700.4856	766.387	838.8985	878.1501	885.0462	975.0442	1007.9799	1057.3121	1075.4687	1084.3234	1143.1941	1272.718	1293.8999	1326.1127	1408.0969	1458.6395	1473.5886	1475.9465	1631.9165	1778.368	3053.7178	3112.4385	3175.0821	3296.2554	3502.191
CC(=N)OC1=CON=N1	C[C]([NH])Oc1conn1	
InChI=1S/C4H5N3O2/c1-3(5)9-4-2-8-7-6-4/h2,5H,1H3	InChI=1S/C4H5N3O2/c1-3(5)9-4-2-8-7-6-4/h2,5H,1H3
