18
gdb 31000	1.71878	1.08682	0.67092	2.2072	83.87	-0.2153	-0.0637	0.1516	1651.0187	0.140769	-439.109297	-439.097172	-439.096228	-439.148071	40.782	
C	-1.5520510586	 1.186143909	-0.1170700813	-0.520429
C	-1.1005380641	-0.2546587178	-0.06586674	 0.334944
C	-0.8884870265	-0.9495316355	 1.2409990453	 0.290842
C	-1.0903202937	-0.3223398876	 2.4141086517	-0.428282
N	-1.4758451369	 0.9916027342	-3.583787302	-0.728703
H	-0.6847663625	 1.1879071708	-4.1913437195	 0.232017
H	-1.2205472218	 0.1693042204	-3.038800807	 0.262556
H	-2.2321494354	 0.7026713451	-4.1985953805	 0.232016
C	-0.4559126094	-2.3276357089	 1.1148258667	-0.486228
C	-0.2502185884	-2.9677190709	-0.0311739134	 0.488687
O	-0.0192532409	-3.6922044136	-0.9081137954	-0.22403
O	-0.8955277532	-0.894059262	-1.0868466599	-0.31971
H	-0.8323711097	 1.8283743539	 0.4007030814	 0.145636
H	-1.6453888424	 1.4989688281	-1.1590217101	 0.18996
H	-2.5137940277	 1.3012310346	 0.3930857674	 0.145644
H	-0.9368477394	-0.8253576731	 3.3621996481	 0.120328
H	-1.4137314104	 0.7086039367	 2.4583706686	 0.12269
H	-0.273030769	-2.9236379435	 2.0020749299	 0.14206
33.0098	69.2357	87.4045	115.2074	119.8629	132.5222	165.6872	168.2918	216.7642	306.6051	350.1461	367.3074	374.8965	426.2046	529.0379	569.0872	578.9597	640.7237	684.4389	723.7781	734.2548	907.5024	953.4802	993.1518	1056.844	1118.7493	1127.7363	1180.2884	1335.8494	1384.1488	1400.0298	1464.3851	1482.1037	1492.0796	1667.4483	1675.9194	1701.63	1741.5668	2209.0641	3038.6247	3107.6343	3141.5923	3169.8829	3190.7939	3260.8302	3450.8744	3564.9902	3580.0403
CC1=C(C[NH3+])C=C([O-])O1	CC(=O)C(=C[C][O])[CH2].N	
InChI=1S/C6H9NO2/c1-4-5(3-7)2-6(8)9-4/h2,8H,3,7H2,1H3	InChI=1S/C6H6O2.H3N/c1-5(3-4-7)6(2)8;/h3H,1H2,2H3;1H3
