21
gdb 110827	3.23811	1.06945	0.96701	1.8226	78.54	-0.2457	0.0715	0.3171	1296.5412	0.181129	-424.185736	-424.176294	-424.17535	-424.219621	36.468	
C	 0.8102801065	 0.6599471419	-1.7714399059	-0.46422
C	 1.2694796936	-0.6661480981	-1.1783463605	 0.416053
O	 0.4353268812	-1.7175972108	-1.6603435277	-0.475293
C	 2.7826468229	-1.0862201541	-1.2585491819	-0.30376
C	 2.7602014145	-1.3866918696	 0.2492918442	-0.084248
C	 2.4406056365	-0.1575340034	 1.0593383152	-0.038032
C	 3.0166674576	 1.2231086967	 0.8279455768	-0.09939
O	 4.2474277526	 1.3847223308	 1.5226874064	-0.420501
C	 1.3194879797	-0.8636343833	 0.3425460603	-0.109049
H	 1.3886867633	 1.5100275085	-1.4044538616	 0.124715
H	 0.9090481293	 0.6429230487	-2.8649554799	 0.104107
H	-0.244043515	 0.8280614607	-1.5311655422	 0.126726
H	 0.4522782123	-1.6852184969	-2.6232885545	 0.272642
H	 2.8863626772	-1.9855707048	-1.8681073043	 0.104967
H	 3.5032444775	-0.3367942212	-1.6029599129	 0.088303
H	 3.1773313568	-2.2777922874	 0.7023478435	 0.086766
H	 2.4061139717	-0.3763092063	 2.126207871	 0.097777
H	 3.1456871236	 1.4389484681	-0.2405573671	 0.087194
H	 2.3463655326	 1.988220752	 1.2346826978	 0.111785
H	 4.8306694514	 0.6751158726	 1.232863169	 0.281375
H	 0.4807322743	-1.281211104	 0.8873276244	 0.092082
69.7761	138.4375	181.6453	215.2624	240.7317	284.952	296.3231	340.7097	367.7678	391.4078	456.9098	500.7918	599.6021	633.6649	746.6657	786.6998	840.0842	854.3633	913.3487	948.2495	963.2763	989.8235	1001.4087	1009.2506	1044.6961	1071.1362	1086.3393	1116.8816	1137.1367	1176.2241	1203.7664	1223.2925	1238.264	1253.7525	1278.624	1331.2996	1364.86	1387.6392	1408.7863	1412.0074	1455.9708	1472.8519	1490.2736	1492.9013	1513.9638	3014.6523	3022.1574	3042.8878	3067.8455	3092.6573	3116.1161	3119.9266	3131.1087	3176.2814	3187.0349	3797.7288	3806.334
CC1(O)CC2C(CO)C12	C[C@@]1(O)C[C@H]2[C@@H](CO)[C@@H]12	
InChI=1S/C7H12O2/c1-7(9)2-4-5(3-8)6(4)7/h4-6,8-9H,2-3H2,1H3	InChI=1S/C7H12O2/c1-7(9)2-4-5(3-8)6(4)7/h4-6,8-9H,2-3H2,1H3/t4-,5+,6-,7+/m0/s1
