21
gdb 63061	3.11682	1.63487	1.40064	1.2557	81.38	-0.2501	0.0762	0.3264	1012.2997	0.18417	-387.057857	-387.050286	-387.049342	-387.089169	32.03	
C	-0.1959383629	 1.6160732104	-0.0340118496	-0.478155
C	 0.02072019	 0.1090829966	-0.0064991397	 0.440789
O	-1.2412562482	-0.5534382982	-0.0975393153	-0.488612
C	 1.0926228306	-0.593835173	-0.9053582614	-0.115282
C	 2.3900662895	 0.1379147663	-0.5231824561	-0.224282
C	 2.3539321575	-0.3087682867	 0.9606283191	-0.05373
C	 2.5377443475	-1.8412586434	 0.796337024	-0.242773
C	 1.1344215149	-1.7675415427	 0.1780676445	-0.019231
C	 0.7940725969	-0.5751177546	 1.1293917317	-0.050245
H	 0.7044753102	 2.1842226705	 0.2087309338	 0.120211
H	-0.542507885	 1.9453858038	-1.02238962	 0.103359
H	-0.9686950897	 1.8779274158	 0.6951518452	 0.125177
H	-1.6240238627	-0.3291379823	-0.9526537954	 0.272579
H	 0.8873128601	-0.7855898048	-1.9599811942	 0.048654
H	 3.2771253924	-0.2431612843	-1.0381811418	 0.091802
H	 2.3456849194	 1.2163867048	-0.6854098631	 0.090742
H	 2.9269444046	 0.2652244202	 1.6883145021	 0.058642
H	 3.3890419262	-2.1945617549	 0.2043297092	 0.084332
H	 2.5070607447	-2.3739472498	 1.7517047725	 0.09502
H	 0.479947655	-2.621118687	 0.0304075833	 0.07565
H	 0.3906493891	-0.6987614666	 2.1338209311	 0.065352
175.903	202.3484	254.4616	289.3432	342.3759	393.9131	454.0838	494.3951	524.3621	592.7957	680.2256	742.9533	819.8506	829.8328	841.1195	879.1199	921.1377	931.431	940.3519	961.7054	966.9703	982.6132	1007.1725	1035.9937	1063.1064	1083.3492	1114.547	1132.567	1147.8074	1159.9584	1178.4019	1198.8831	1218.5973	1224.9867	1245.2422	1265.2576	1281.5591	1304.8442	1321.5604	1387.5299	1407.6007	1488.4041	1489.3241	1499.4287	1526.3086	3023.5439	3036.4606	3056.7358	3092.6255	3093.4917	3097.6643	3105.9532	3114.4646	3125.1164	3128.6776	3163.1635	3799.4921
CC1(O)C2CC3CC2C13	C[C@@]1(O)[C@H]2C[C@@H]3C[C@H]2[C@H]13	
InChI=1S/C8H12O/c1-8(9)6-3-4-2-5(6)7(4)8/h4-7,9H,2-3H2,1H3	InChI=1S/C8H12O/c1-8(9)6-3-4-2-5(6)7(4)8/h4-7,9H,2-3H2,1H3/t4-,5+,6-,7+,8+/m0/s1
