19
gdb 117090	2.99637	0.92821	0.71901	0.8744	77.13	-0.237	-0.031	0.206	1596.2256	0.15708	-456.384664	-456.37415	-456.373206	-456.42095	36.693	
C	 0.0117728565	 1.4801733048	-0.1302495846	-0.39064
C	-0.0316661367	-0.0341998089	-0.0796516757	-0.046437
O	 0.6274296992	-0.5254236908	-1.2658234054	-0.218759
C	 0.6899401033	-1.8465301256	-1.3854045184	 0.452433
O	 0.2329393729	-2.6353772773	-0.5858045161	-0.391672
C	 1.407481815	-2.3031042139	-2.6398725629	 0.226847
N	 1.3138048706	-3.6639684265	-2.7982292902	-0.549073
N	 1.9769600449	-1.4526346477	-3.4011105786	-0.264392
C	 2.6433508843	-1.9722150247	-4.5803838747	-0.339904
H	 1.0441843393	 1.8389181662	-0.15477611	 0.135573
H	-0.5033560163	 1.8548543766	-1.0188219992	 0.135106
H	-0.4790181306	 1.8938526743	 0.7557591733	 0.121623
H	 0.4832132281	-0.4332962858	 0.8000211582	 0.123409
H	-1.0565829296	-0.4181681137	-0.0618113331	 0.123903
H	 0.9839810346	-4.1682734857	-1.9888766946	 0.271143
H	 1.979839618	-4.1295495411	-3.3906110458	 0.257886
H	 3.052066422	-1.144974438	-5.1651820162	 0.127438
H	 3.4819669019	-2.6415715024	-4.3243636094	 0.108035
H	 1.9580813025	-2.5429359296	-5.2268981866	 0.117481
49.1936	83.8151	112.7684	119.4984	153.3664	214.1138	250.5808	263.3522	334.2318	348.8045	381.2726	420.4452	518.1696	549.4417	603.2598	719.7364	805.3676	821.4936	877.7595	910.3766	1003.4225	1055.4832	1097.6776	1109.1352	1135.4196	1181.6525	1202.7271	1262.5018	1293.1709	1367.9829	1406.9829	1426.3889	1435.2145	1485.3724	1490.4172	1495.7397	1503.5945	1518.3601	1606.9842	1734.8325	1784.2625	2958.8595	3007.0767	3048.863	3051.1006	3090.2655	3104.9011	3122.7949	3131.1	3585.976	3714.8147
CCOC(=O)C(N)=NC	CCOC(=O)C(=NC)N	
InChI=1S/C5H10N2O2/c1-3-9-5(8)4(6)7-2/h3H2,1-2H3,(H2,6,7)	InChI=1S/C5H10N2O2/c1-3-9-5(8)4(6)7-2/h3H2,1-2H3,(H2,6,7)
