23
gdb 102306	1.73906	1.19957	0.85273	0.8008	88.76	-0.2571	0.0409	0.298	1517.2038	0.201408	-388.262574	-388.251131	-388.250187	-388.29973	41.321	
C	 0.1547256509	 1.1867909857	 0.608792879	-0.389981
C	 0.1279653466	-0.2774902474	 0.1679340833	-0.179637
C	 0.6206693977	-0.471117626	-1.2751575554	-0.06217
O	 1.972836315	-0.0421856797	-1.316235727	-0.262969
C	 2.5720192567	 0.0479903667	-2.6129199428	 0.153043
C	 2.1471451362	 1.3288433816	-3.335500471	-0.393259
C	 4.0783848839	-0.0143759317	-2.3876464622	-0.38964
C	 0.474630591	-1.8696959939	-1.7066569139	 0.338372
C	 0.3507453907	-3.0165259718	-2.0463712924	-0.464805
H	 1.1649977817	 1.5942310091	 0.5296259011	 0.134918
H	-0.5072920349	 1.8005543745	-0.0127461191	 0.109861
H	-0.1779448816	 1.2853506711	 1.6463084384	 0.111108
H	 0.7621790415	-0.8866843585	 0.8207923686	 0.115564
H	-0.8865473318	-0.6841663589	 0.2361961421	 0.106293
H	 0.0019266434	 0.1563772397	-1.93805946	 0.089687
H	 2.2627701755	-0.8250986019	-3.2058027805	 0.081727
H	 2.6198629436	 1.3844923844	-4.3214433901	 0.11466
H	 1.0645748729	 1.3718314099	-3.4881761983	 0.115294
H	 2.4473419915	 2.2088259045	-2.7574762479	 0.12081
H	 4.3493426359	-0.9440440631	-1.8809841839	 0.123457
H	 4.6138536152	 0.0358988598	-3.3404618041	 0.111056
H	 4.4043977323	 0.8240481326	-1.7634695841	 0.120253
H	 0.2413517361	-4.0285336666	-2.3495376698	 0.196358
34.0709	81.6144	98.2972	136.1468	166.2556	207.5769	214.6887	235.3308	272.3753	300.7914	350.8886	412.5845	454.5284	460.4112	528.0683	603.1522	624.7371	670.9737	761.5658	839.3004	875.2998	922.9257	927.1728	945.9442	979.3267	1025.7276	1075.8615	1127.2557	1133.4387	1147.2443	1176.0715	1204.2154	1287.5216	1315.8812	1349.578	1372.393	1381.0233	1392.9955	1404.3352	1409.2175	1415.3911	1476.8064	1480.6152	1485.2646	1495.1912	1495.8049	1508.685	1510.0439	2227.8901	2962.4834	3002.4505	3035.79	3037.2215	3041.7999	3047.4686	3085.4735	3103.8373	3105.9082	3109.5499	3115.3003	3124.221	3131.4941	3502.4489
CCC(OC(C)C)C#C	CC[C@@H](OC(C)C)C#C	
InChI=1S/C8H14O/c1-5-8(6-2)9-7(3)4/h1,7-8H,6H2,2-4H3	InChI=1S/C8H14O/c1-5-8(6-2)9-7(3)4/h1,7-8H,6H2,2-4H3/t8-/m0/s1
