20
gdb 72748	2.53987	1.71152	1.48497	1.8146	78.45	-0.2072	0.0648	0.2721	1002.1212	0.171558	-403.087769	-403.079836	-403.078892	-403.120065	31.792	
O	 0.1518261041	 1.3177183615	-0.5033320167	-0.473598
C	-0.0117180174	-0.0007859895	-0.0777608682	 0.351009
C	 0.2913806351	-0.3568466529	 1.4094226316	-0.297316
C	-1.1120020984	-1.0325645489	 1.5504452415	-0.310354
C	-1.3613114186	-0.8086447166	 0.0556639412	 0.320804
C	-2.6314365001	-0.6372341943	-0.7732253169	-0.358579
C	-1.9328585631	-1.5207582868	-1.8429063303	-0.165424
N	-0.8141576999	-1.8551173203	-0.8963969725	-0.150462
C	 0.4281441894	-1.0457766689	-1.1219937032	-0.229453
H	-0.0879328446	 1.9089964833	 0.218251773	 0.277604
H	 1.1555376829	-1.0079200376	 1.5638347857	 0.109722
H	 0.4186738675	 0.5307892956	 2.0377980398	 0.091637
H	-1.1235285791	-2.0785983683	 1.8647593865	 0.110415
H	-1.790905176	-0.4614407268	 2.1913847088	 0.098537
H	-3.5117694117	-1.1045693356	-0.32348897	 0.108653
H	-2.8832141965	 0.38671697	-1.0606153921	 0.10625
H	-2.4836746654	-2.4075743856	-2.1692828077	 0.104045
H	-1.6010503562	-0.9700241966	-2.7305950177	 0.102031
H	 0.4933995276	-0.6194164395	-2.1293829889	 0.106865
H	 1.3514138802	-1.5944815821	-0.9082539039	 0.097615
72.5446	160.9265	202.8622	295.1374	332.6383	382.825	414.8939	471.3385	510.7109	612.9948	677.0935	711.989	747.5612	791.8119	815.398	875.6499	917.0896	926.4315	943.8968	954.221	977.3167	1046.7756	1063.6096	1086.8441	1134.3085	1148.8961	1171.3641	1188.1825	1199.0277	1211.3567	1229.2992	1239.5616	1262.3673	1271.9043	1297.5493	1317.3741	1334.3402	1387.2888	1463.4219	1473.8336	1479.0423	1490.4378	1512.2369	3026.4641	3031.2073	3044.2133	3054.233	3057.4429	3077.9415	3080.8585	3098.6068	3109.4744	3117.3043	3803.2748
OC12CCC11CCN1C2	O[C@@]12CC[C@]31CCN3C2	
InChI=1S/C7H11NO/c9-7-2-1-6(7)3-4-8(6)5-7/h9H,1-5H2	InChI=1S/C7H11NO/c9-7-2-1-6(7)3-4-8(6)5-7/h9H,1-5H2/t6-,7-/m1/s1
