17
gdb 84864	2.56307	1.60598	1.0681	3.9007	76.65	-0.2444	-0.0626	0.1818	1103.2476	0.136383	-421.851122	-421.84324	-421.842296	-421.883683	30.456	
O	 0.5911026898	 0.3174915723	 0.9745379849	-0.441117
C	-0.0302764702	-0.335875238	-0.0944625067	-0.012029
C	-1.5049241923	 0.0012735822	-0.1652819266	-0.079549
C	-2.3629157061	-0.5758299594	-0.9982269473	-0.068406
C	-1.9838933286	-1.6379411873	-2.0074985932	-0.325894
C	-0.8294286724	-1.3197165562	-2.9217216345	-0.04175
C	 0.2686205108	-0.5907373824	-2.675038828	-0.12334
C	 0.6773106073	 0.0330766641	-1.4070452938	 0.338585
O	 1.6193693789	 0.8060180407	-1.3553409813	-0.351624
H	 1.3085059247	 0.8316640935	 0.5646011381	 0.292719
H	 0.0759765559	-1.4314165334	 0.0174586608	 0.099113
H	-1.8190279241	 0.7664351083	 0.5372938915	 0.115819
H	-3.4111163141	-0.2945703958	-0.96788037	 0.104024
H	-1.7470978838	-2.5778207279	-1.4772318506	 0.144292
H	-2.8514030653	-1.8802659979	-2.6282880361	 0.121523
H	-0.9171752363	-1.7419782795	-3.9213605844	 0.114688
H	 0.9843806259	-0.4242805834	-3.4755211127	 0.112945
79.5832	105.4251	251.4625	320.6746	339.8852	379.3417	399.0288	470.3018	501.6674	557.8515	632.7247	662.4011	675.87	763.2559	804.6712	884.9448	904.0516	954.2797	984.3097	987.5459	1030.1788	1073.1803	1137.0303	1182.8656	1198.9914	1214.0921	1235.8478	1286.6056	1329.7328	1372.6454	1392.5055	1421.7841	1435.1512	1456.9865	1688.2847	1722.0394	1751.5751	2921.5708	2959.0514	3075.2815	3141.2249	3168.8165	3174.8263	3194.8447	3640.976
OC1C=CCC=CC1=O	O[C@H]1C=CCC=CC1=O	
InChI=1S/C7H8O2/c8-6-4-2-1-3-5-7(6)9/h2-6,8H,1H2	InChI=1S/C7H8O2/c8-6-4-2-1-3-5-7(6)9/h2-6,8H,1H2/t6-/m0/s1
