15
gdb 19602	4.69042	1.87137	1.61037	4.375	64.2	-0.247	0.0031	0.25	809.6109	0.119207	-362.621432	-362.614945	-362.614	-362.651882	25.153	
C	-0.2039638227	 1.4328468327	 0.0615595074	-0.415012
C	 0.0772216803	-0.0638683991	 0.0482000283	-0.000847
C	 0.9345255208	-0.5125422906	-1.1459673042	-0.037543
C	 2.1822822325	-0.4117690387	-0.3824960833	-0.048898
C	 1.2990855279	-0.5062904395	 0.9224827024	-0.218402
C	 1.3492664283	-1.9954213308	 0.619338057	 0.439564
O	 1.3270778685	-3.0124194282	 1.2351765352	-0.31558
N	 1.6671150511	-1.7880581489	-0.7962344187	-0.210012
H	 0.7145472907	 2.0113919957	-0.0835886398	 0.122932
H	-0.9031278714	 1.7034345665	-0.7371452905	 0.124917
H	-0.6509967898	 1.7367835134	 1.0130900203	 0.126925
H	-0.8445703645	-0.6309859733	 0.2248855964	 0.091095
H	 0.7532065314	-0.3627682169	-2.203114832	 0.11376
H	 3.198434081	-0.1103163224	-0.5861301909	 0.126804
H	 1.4815056959	-0.0954572099	 1.9116856025	 0.100297
141.6827	229.3122	240.791	265.6388	450.5908	505.8091	622.8188	723.1409	742.1586	779.3798	833.9082	858.3011	879.4146	893.9305	907.7137	987.7985	1022.6272	1049.8504	1065.841	1072.1539	1121.2109	1151.2836	1169.2583	1197.4673	1224.9457	1277.445	1331.5937	1378.1179	1411.7436	1493.5157	1496.817	1923.561	3031.4511	3037.5604	3099.6084	3107.0009	3162.9452	3195.9918	3241.558
CC1C2C3C1C(=O)N23	C[C@H]1[C@H]2[C@H]3[C@@H]1C(=O)N23	
InChI=1S/C6H7NO/c1-2-3-5-4(2)7(5)6(3)8/h2-5H,1H3	InChI=1S/C6H7NO/c1-2-3-5-4(2)7(5)6(3)8/h2-5H,1H3/t2-,3-,4+,5-,7?/m1/s1
