21
gdb 86243	2.56798	1.20626	0.93689	2.511	79.73	-0.245	-0.0221	0.2229	1318.5751	0.1813	-424.254193	-424.24465	-424.243705	-424.289244	34.991	
C	 0.0652498168	 1.5543293654	 0.0482789075	-0.412222
C	 0.1102892459	 0.0381388684	-0.002777865	 0.159592
C	 0.794666524	-0.5661202774	-1.2532459465	-0.278303
C	 1.5462793649	-1.8149414682	-0.7194963346	-0.097158
C	 3.0340846096	-1.6884837802	-0.9559418482	 0.160634
O	 3.7302074831	-2.5425409436	-1.4419634474	-0.26031
C	 1.1822396737	-1.800291595	 0.8052102834	 0.118819
C	 2.2345588187	-2.3066896238	 1.7781819282	-0.421313
O	 0.8761183612	-0.4474899072	 1.0932354351	-0.260938
H	 1.0767868554	 1.9675624951	-0.0143273753	 0.123282
H	-0.5240280523	 1.9470039899	-0.7859862788	 0.118978
H	-0.3899882935	 1.8957989836	 0.9818431196	 0.128729
H	-0.9147169821	-0.3647011317	 0.0716605472	 0.066608
H	 0.079589785	-0.8194045153	-2.0386516653	 0.114052
H	 1.4996533084	 0.1594599911	-1.6762411923	 0.107039
H	 1.219192809	-2.7478507717	-1.183301893	 0.091455
H	 3.4636661159	-0.707372469	-0.6438395261	 0.078809
H	 0.2689824747	-2.4104509766	 0.9147599604	 0.072805
H	 3.1404281493	-1.6954898859	 1.7393137622	 0.129635
H	 1.8459569019	-2.2713064416	 2.7992397467	 0.128377
H	 2.5042279602	-3.3408652764	 1.5453042222	 0.131429
41.9985	73.2816	136.9537	216.445	224.8476	242.0834	280.9612	338.2835	380.6612	419.107	467.6345	496.5551	610.3836	681.9529	825.3722	861.7552	880.8034	894.9441	956.4531	965.0627	1004.359	1037.6509	1076.1049	1119.8057	1135.7943	1141.3531	1162.436	1186.5608	1226.2834	1268.177	1287.2269	1320.9691	1341.1542	1378.8981	1381.007	1400.9901	1410.6721	1426.6661	1429.4989	1481.4133	1483.9715	1492.1171	1499.0029	1503.9745	1829.0979	2853.7892	2943.0051	2949.9635	3037.7869	3042.0258	3048.4223	3091.0675	3110.063	3115.8402	3121.078	3123.5097	3124.3514
CC1CC(C=O)C(C)O1	C[C@H]1C[C@@H](C=O)[C@@H](C)O1	
InChI=1S/C7H12O2/c1-5-3-7(4-8)6(2)9-5/h4-7H,3H2,1-2H3	InChI=1S/C7H12O2/c1-5-3-7(4-8)6(2)9-5/h4-7H,3H2,1-2H3/t5-,6+,7-/m0/s1
