22
gdb 89184	2.42384	1.39652	1.16102	1.7464	83.89	-0.1973	0.0702	0.2675	1206.5733	0.191716	-404.297658	-404.2878	-404.286856	-404.331318	38.044	
C	-0.2098525162	 1.3853281609	-0.0041091816	-0.320739
N	 0.0531983489	-0.0387606508	 0.0679333308	-0.086705
C	 1.1079195597	-0.5273746957	-0.8733610908	-0.256678
C	 1.9090615069	-1.1082261823	 0.29627555	 0.311482
O	 3.2868042997	-1.228656882	 0.3087942886	-0.449822
C	 0.8714580579	-0.4622116107	 1.2220326724	-0.1454
C	 1.0596663079	-1.9713394725	 1.1961994257	 0.27241
C	-0.0184173377	-2.9011539471	 0.6724359459	-0.464172
C	 1.8134787451	-2.5057506646	 2.4044599702	-0.447394
H	 0.6998447844	 2.0127206953	 0.0707905565	 0.081399
H	-0.7028564926	 1.6177852503	-0.9537195503	 0.12062
H	-0.8872888079	 1.6750646628	 0.8062321806	 0.120893
H	 0.7516943059	-1.2069239065	-1.6554019881	 0.10502
H	 1.6507034656	 0.3065115914	-1.3411963106	 0.086016
H	 3.6695191909	-0.3617307006	 0.1335062221	 0.282682
H	 0.9395866282	 0.1357569692	 2.1248016515	 0.087395
H	-0.6423339557	-2.4067619456	-0.0743765084	 0.134857
H	 0.4196382056	-3.8033266881	 0.2305476416	 0.110525
H	-0.6745401921	-3.2190511842	 1.4908228527	 0.10933
H	 1.1141348475	-2.7362461949	 3.215594841	 0.10955
H	 2.3514215022	-3.4254121021	 2.1513116979	 0.121916
H	 2.5514839557	-1.7902058924	 2.7752557423	 0.116816
129.7147	174.5838	186.7628	195.2004	228.6513	248.505	265.3032	316.5239	328.0211	362.2678	396.4272	437.674	468.5797	529.4922	641.0962	683.712	726.0704	860.1968	920.9786	943.1873	964.2496	974.1022	991.2531	1022.2958	1036.687	1091.8869	1120.9892	1138.9979	1160.7705	1174.1625	1216.8756	1238.1892	1251.4008	1304.6882	1309.1721	1331.039	1401.4604	1418.4495	1446.4135	1461.1433	1480.5559	1485.3344	1487.2103	1496.1256	1502.1653	1512.0701	1516.2519	2913.0972	2999.1687	3028.5304	3033.7754	3055.8558	3063.1808	3084.2686	3093.7978	3099.153	3117.2146	3130.3869	3167.7612	3790.5998
CN1CC2(O)C1C2(C)C	CN1C[C@@]2(O)[C@@H]1C2(C)C	
InChI=1S/C7H13NO/c1-6(2)5-7(6,9)4-8(5)3/h5,9H,4H2,1-3H3	InChI=1S/C7H13NO/c1-6(2)5-7(6,9)4-8(5)3/h5,9H,4H2,1-3H3/t5-,7+/m0/s1
