19
gdb 112521	2.26557	1.24059	1.09864	3.2939	75.54	-0.2569	0.0006	0.2575	1232.0299	0.159049	-419.199079	-419.189555	-419.188611	-419.233918	34.464	
C	-0.3997455912	 1.3721520744	 0.3588155429	-0.387703
C	-0.2085771847	-0.1407406536	 0.214356631	-0.192321
C	 0.9414400665	-0.6509269042	 1.0666335937	 0.14029
O	 0.6807876711	-0.5120603715	 2.4977225667	-0.289189
C	 0.6206187434	-1.9284071538	 2.6994609445	-0.054143
C	-0.7344479949	-2.4169273944	 2.9700259726	 0.283172
N	-1.8030563602	-2.8332872428	 3.1195141125	-0.328387
C	 1.1124061608	-2.1875189758	 1.219179225	-0.060778
N	 0.4220736575	-3.0426542326	 0.2997466302	-0.507156
H	 0.4903438986	 1.9175473937	 0.025978642	 0.114859
H	-1.2481447905	 1.7191212626	-0.2375583969	 0.11738
H	-0.586237933	 1.6374008458	 1.4033037112	 0.138816
H	-1.1337098983	-0.6562318194	 0.4989237475	 0.106701
H	-0.0023968539	-0.4096620475	-0.8283127298	 0.11512
H	 1.8654240949	-0.1194492409	 0.8068956701	 0.084985
H	 1.2910700935	-2.2606500833	 3.5001118587	 0.120904
H	 2.1665424177	-2.4709738124	 1.2346228327	 0.105988
H	 0.6776814678	-4.0145079678	 0.4316265178	 0.241535
H	-0.5859268052	-2.9772762865	 0.3984296873	 0.249927
48.7685	98.4401	135.1285	169.5802	213.2398	240.6907	263.2894	303.718	372.0008	449.9234	519.685	557.8269	607.4235	742.9724	772.1802	820.6877	835.2002	886.2277	920.0553	976.0296	998.8008	1039.0913	1066.1968	1089.2199	1114.3683	1179.8606	1195.7427	1244.5089	1259.7956	1281.6409	1312.3929	1335.7795	1355.9987	1407.1312	1414.8954	1438.3513	1477.0716	1498.3951	1509.2605	1668.9899	2344.6095	3025.3437	3034.2884	3038.3149	3046.1862	3073.6125	3095.2956	3106.7298	3120.7637	3514.0399	3594.6166
CCC1OC(C#N)C1N	CC[C@H]1O[C@@H](C#N)[C@H]1N	
InChI=1S/C6H10N2O/c1-2-4-6(8)5(3-7)9-4/h4-6H,2,8H2,1H3	InChI=1S/C6H10N2O/c1-2-4-6(8)5(3-7)9-4/h4-6H,2,8H2,1H3/t4-,5+,6+/m1/s1
