21
gdb 111521	4.73722	0.90153	0.85488	2.2139	84.17	-0.2216	0.0712	0.2928	1446.5466	0.182918	-383.198106	-383.189391	-383.188447	-383.231573	33.518	
C	-0.0547025003	 1.422993798	 0.2968869562	-0.376547
C	-0.0852478381	 0.0012303172	-0.2740923969	-0.212698
C	-1.4630339497	-0.6166976666	-0.2002074297	 0.025321
C	-1.6237198482	-2.0820477728	-0.0615099423	-0.15631
N	-1.8284452823	-1.1505164598	 1.1266646174	-0.140612
C	-3.3057247096	-1.462123977	 1.0668133576	-0.240893
C	-3.0851878331	-2.4619212894	-0.0720926878	 0.358181
C	-3.9261878115	-2.9330078243	-1.1932726582	-0.312267
N	-3.626064394	-3.8134840078	-0.0408148263	-0.368322
H	 0.9530198898	 1.8464565166	 0.2501074318	 0.111512
H	-0.7220764491	 2.0892493466	-0.261202614	 0.110517
H	-0.3778669493	 1.4200825003	 1.3418034963	 0.135495
H	 0.2472927333	 0.0049100962	-1.3200911937	 0.09638
H	 0.6143248625	-0.6354077557	 0.2793622256	 0.105876
H	-2.2386961774	-0.0758272562	-0.7459542632	 0.079963
H	-0.7867281297	-2.7745903955	-0.1101140022	 0.092006
H	-3.6315505225	-1.9464068332	 1.9896589595	 0.125053
H	-3.9309590461	-0.5855189274	 0.8655132187	 0.103587
H	-4.9655797138	-2.6240725427	-1.2672972712	 0.120472
H	-3.4425776174	-3.130731574	-2.1471181443	 0.111846
H	-2.9079709234	-4.4892368827	-0.2933068333	 0.23144
72.7285	126.9232	149.3525	209.5449	260.9935	292.8525	333.9845	409.9708	450.0262	491.7111	577.2988	726.2241	807.5662	809.7435	844.1089	862.0402	897.8514	929.595	946.6008	970.1546	995.2408	1029.5242	1035.7224	1040.126	1063.5226	1101.5527	1123.9582	1136.9187	1141.8995	1186.1138	1213.3822	1258.2684	1271.3856	1292.577	1294.6817	1304.93	1353.6712	1406.7941	1422.612	1451.3795	1477.5722	1491.556	1498.126	1508.3499	1514.8966	3026.3539	3034.8416	3044.1252	3064.5572	3086.9944	3101.2421	3102.487	3116.3252	3118.198	3138.7582	3186.365	3487.6129
CCC1C2N1CC21CN1	CC[C@H]1[C@H]2N1C[C@]12CN1	
InChI=1S/C7H12N2/c1-2-5-6-7(3-8-7)4-9(5)6/h5-6,8H,2-4H2,1H3	InChI=1S/C7H12N2/c1-2-5-6-7(3-8-7)4-9(5)6/h5-6,8H,2-4H2,1H3/t5-,6+,7-,9?/m0/s1
