16
gdb 50456	4.41494	1.03078	0.87298	2.7524	72.46	-0.2476	-0.051	0.1966	1254.5836	0.125159	-437.936723	-437.928769	-437.927824	-437.969716	29.343	
O	-0.6318411866	 0.8346317317	-0.7276909931	-0.234386
C	 0.0703225187	 1.0451172797	 0.2252382655	 0.150688
C	 1.344705486	 1.8725359368	 0.1881372684	-0.138981
C	 1.547422681	 2.5538962309	-1.1673320434	-0.175248
N	 2.6527169435	 3.4997987856	-1.0877447788	-0.348618
C	 2.7837951084	 4.3959000971	-0.0527514194	 0.397217
O	 3.504319799	 5.3761486083	-0.1167759436	-0.375112
C	 2.022610077	 4.0427910202	 1.1763494076	-0.158714
C	 1.3840655908	 2.8797235572	 1.3120751109	-0.078475
H	-0.1689539795	 0.6198891398	 1.2267665459	 0.091474
H	 2.1572801009	 1.1450830663	 0.370092156	 0.1303
H	 1.7692408482	 1.8096786622	-1.9352560963	 0.128972
H	 0.607657604	 3.0446680199	-1.458010484	 0.125946
H	 3.069336201	 3.8140063622	-1.9523568082	 0.249808
H	 2.0772014525	 4.7743225557	 1.9739753612	 0.122786
H	 0.8935614151	 2.6183075363	 2.2474098715	 0.112341
66.516	120.5686	199.1986	207.5279	275.3386	368.1366	435.8171	458.6643	548.6984	603.1091	642.199	695.9611	762.5842	790.7689	841.2123	879.9966	949.3324	1007.8432	1048.8004	1059.8411	1095.892	1135.7296	1180.9897	1243.9584	1271.4229	1286.3426	1343.4696	1387.0913	1406.2973	1426.7775	1473.0721	1510.4032	1689.4927	1786.9591	1836.3515	2873.2936	2947.7222	3008.5757	3101.3582	3149.98	3211.2042	3609.8387
O=CC1CNC(=O)C=C1	O=C[C@H]1CNC(=O)C=C1	
InChI=1S/C6H7NO2/c8-4-5-1-2-6(9)7-3-5/h1-2,4-5H,3H2,(H,7,9)	InChI=1S/C6H7NO2/c8-4-5-1-2-6(9)7-3-5/h1-2,4-5H,3H2,(H,7,9)/t5-/m1/s1
