12
gdb 23661	3.91927	1.982	1.31683	4.9146	59.24	-0.2432	-0.025	0.2182	830.3334	0.086024	-418.880429	-418.874174	-418.87323	-418.910734	23.778	
N	-0.0490570274	 1.3532118411	-0.099193869	-0.565585
C	 0.0170267933	-0.0042106505	-0.040436363	 0.416106
N	-1.1535583072	-0.6594852972	-0.0220099865	-0.374541
C	-1.0681345596	-1.975485786	-0.0033444509	 0.344942
F	-2.2307306805	-2.6041386413	 0.0126632306	-0.061407
N	-0.0039835352	-2.7532676918	 0.006053494	-0.329211
C	 1.1582804049	-2.079209344	-0.0083838607	 0.022417
C	 1.2405033345	-0.7031977985	-0.0324975093	-0.204421
H	 0.7647613185	 1.9022015087	 0.1155324371	 0.263653
H	-0.9502636642	 1.7703857	 0.0678648517	 0.269165
H	 2.0600587477	-2.6862351571	 0.0004475872	 0.121348
H	 2.1929011052	-0.1882273735	-0.0481228812	 0.097533
194.9999	226.2358	311.2938	342.9143	458.6711	502.6829	528.0626	559.899	595.5841	730.8884	792.7468	809.4938	836.5949	995.4981	1001.763	1005.1028	1117.2913	1130.4844	1301.3999	1336.098	1401.2537	1462.6085	1512.4317	1607.5818	1627.3749	1656.8476	3164.0377	3207.1644	3607.6449	3735.6285
NC1=NC(F)=NC=C1	Nc1nc(F)ncc1	
InChI=1S/C4H4FN3/c5-4-7-2-1-3(6)8-4/h1-2H,(H2,6,7,8)	InChI=1S/C4H4FN3/c5-4-7-2-1-3(6)8-4/h1-2H,(H2,6,7,8)
