16
gdb 29707	2.41013	1.64765	0.98778	1.7554	68.53	-0.1612	0.0544	0.2156	1136.6561	0.123941	-471.232213	-471.222463	-471.221519	-471.266548	34.308	
C	-0.0834917093	 1.4631095661	 0.0046600094	-0.347049
N	 0.0219393011	 0.0201862457	 0.0152946172	-0.074825
C	-0.0023834275	-0.8286429742	-1.0565773568	 0.339978
N	-0.1619748379	-0.3465388372	-2.3625438238	-0.598965
N	 0.0464235543	-2.0918933278	-0.6887479723	-0.4023
C	 0.1059394204	-2.0680227602	 0.6822570849	 0.204579
O	 0.1630460404	-3.2000868878	 1.4410854053	-0.463431
C	 0.1092264885	-0.7870327451	 1.1423647991	 0.246751
O	 0.1744204042	-0.2040040568	 2.3725795657	-0.457858
H	 0.8992216534	 1.9461276282	 0.0575432468	 0.133051
H	-0.5828408716	 1.764719228	-0.9181734981	 0.153522
H	-0.673389013	 1.790722843	 0.8632513339	 0.154071
H	 0.6603733942	 0.1402768183	-2.7078494259	 0.246425
H	-0.3452832595	-1.1323780085	-2.9756735518	 0.25634
H	 0.1946679908	-3.9370637402	 0.8210924834	 0.297452
H	 0.2238056815	-0.9126727115	 3.0226448629	 0.312258
105.7519	121.2205	135.399	200.6065	212.5098	220.3374	258.2613	276.6545	291.4601	316.3795	359.8168	579.3125	620.4546	639.4962	650.72	686.8477	749.8013	845.9072	911.4794	1055.5678	1137.1736	1154.0485	1165.982	1236.8947	1285.2225	1329.9993	1381.0965	1441.5783	1484.9763	1491.8993	1526.3544	1543.9079	1573.0725	1650.699	1734.3151	3032.1672	3105.2746	3146.1018	3490.3533	3597.2751	3821.3958	3836.1102
CN1C(N)=NC(O)=C1O	Cn1c(N)nc(O)c1O	
InChI=1S/C4H7N3O2/c1-7-3(9)2(8)6-4(7)5/h8-9H,1H3,(H2,5,6)	InChI=1S/C4H7N3O2/c1-7-3(9)2(8)6-4(7)5/h8-9H,1H3,(H2,5,6)
