19
gdb 115553	2.59198	1.15088	1.08248	2.2953	78.54	-0.2523	0.026	0.2783	1252.7652	0.15544	-422.960303	-422.950296	-422.949352	-422.995666	35.904	
C	-0.0573197817	 1.4577205359	 0.1769588787	-0.241139
O	 0.499201647	 0.1788847277	-0.0469466888	-0.237458
C	 0.7231376877	-0.5400862081	 1.1291129902	 0.037675
C	-0.4671493589	-1.3093069144	 1.7431024037	-0.106373
O	 0.2034903336	-2.5725638473	 1.5661715515	-0.310051
C	 1.3387638088	-1.9559522948	 0.8846745268	 0.180042
C	 1.4189233144	-2.4054283296	-0.5705598698	-0.422963
C	 2.587487864	-2.2021632679	 1.5981057223	 0.320444
C	 3.6215012222	-2.3894918268	 2.1818859534	-0.465054
H	 0.5913853133	 2.0716055029	 0.8201846466	 0.112384
H	-0.1548102431	 1.9418461152	-0.7970727579	 0.134374
H	-1.0517825776	 1.3981222123	 0.6436443986	 0.112198
H	 1.2898154787	 0.0582362873	 1.8538158633	 0.086142
H	-0.6916544208	-1.1084908898	 2.7967097298	 0.106416
H	-1.3881602736	-1.2423287765	 1.1500756104	 0.10317
H	 0.4858917574	-2.1748212165	-1.0867261768	 0.129062
H	 2.239769028	-1.8990492881	-1.0847544329	 0.131133
H	 1.594681032	-3.4838404822	-0.6013821602	 0.13106
H	 4.5322915986	-2.5630922796	 2.6999759413	 0.198936
45.731	83.3934	139.8199	173.8141	184.8552	203.9389	217.6856	315.2979	379.2282	388.8953	451.447	536.6245	575.2766	621.1461	632.1787	663.4196	811.0739	874.3239	925.7589	938.9082	1020.1225	1043.6746	1058.0622	1116.1412	1155.7473	1173.4101	1183.1561	1188.3781	1206.1738	1250.7418	1282.5767	1331.0124	1392.9643	1406.4261	1477.1709	1479.5607	1484.073	1490.0053	1508.1635	1513.5732	2232.6734	2980.384	3015.5684	3022.4304	3030.9653	3054.6106	3068.5541	3122.72	3130.6847	3147.4215	3500.1401
COC1COC1(C)C#C	CO[C@H]1CO[C@]1(C)C#C	
InChI=1S/C7H10O2/c1-4-7(2)6(8-3)5-9-7/h1,6H,5H2,2-3H3	InChI=1S/C7H10O2/c1-4-7(2)6(8-3)5-9-7/h1,6H,5H2,2-3H3/t6-,7+/m0/s1
