19
gdb 78709	3.08934	1.59204	1.24117	1.4347	79.34	-0.2185	0.0166	0.2351	1047.3544	0.159625	-385.856834	-385.84922	-385.848276	-385.888225	31.542	
C	-0.1390237546	 1.4410278188	 0.0112872315	-0.401626
C	 0.0300158924	-0.0737980961	-0.0296995051	 0.010402
C	 0.8439498442	-0.5542353662	-1.2267458048	-0.12732
C	 2.0984096412	-0.6600964824	-0.3816687175	-0.105609
C	 1.2102299457	-0.5926877106	 0.9034466936	-0.118647
C	 0.9138881171	-2.0359075578	 1.2486475929	-0.095383
C	 1.0374864974	-2.7795396868	 0.1452801445	-0.166325
C	 1.5430835376	-1.920326044	-0.9691143166	 0.370027
O	 2.2188995786	-2.4762330564	-2.0529190161	-0.483061
H	 0.8179919703	 1.95002224	-0.1467767013	 0.116888
H	-0.8320491597	 1.7845005695	-0.7647624239	 0.11224
H	-0.5378340446	 1.7607238104	 0.9805292538	 0.110967
H	-0.9346421019	-0.566732774	 0.1433716794	 0.061078
H	 0.747941848	-0.2116404512	-2.2518156777	 0.080009
H	 3.1062183731	-0.2990376972	-0.545052322	 0.092593
H	 1.4899890283	 0.0685396482	 1.7232415526	 0.06739
H	 0.5015754693	-2.3525293914	 2.1988264684	 0.097347
H	 0.7899904341	-3.8266475264	 0.0220553167	 0.094563
H	 1.5654602633	-2.7909412064	-2.6861764684	 0.284465
184.4945	228.2614	252.54	283.4937	311.0179	377.3857	400.7116	410.1659	590.204	604.7039	717.4018	721.6781	750.1506	805.6437	840.9814	854.1757	887.1663	916.9835	930.1086	931.3766	964.2572	983.4822	1036.0063	1056.335	1076.519	1091.5359	1122.6306	1156.8364	1170.2286	1218.0333	1239.232	1265.7931	1279.2949	1304.9514	1359.898	1364.639	1404.1652	1414.8473	1493.746	1499.0989	1643.4198	3021.9826	3025.0444	3089.7059	3097.4975	3111.3831	3164.5631	3190.8233	3196.3041	3221.495	3805.0838
CC1C2C3C1C=CC23O	C[C@H]1[C@H]2[C@H]3[C@@H]1C=C[C@@]23O	
InChI=1S/C8H10O/c1-4-5-2-3-8(9)6(4)7(5)8/h2-7,9H,1H3	InChI=1S/C8H10O/c1-4-5-2-3-8(9)6(4)7(5)8/h2-7,9H,1H3/t4-,5-,6+,7-,8-/m1/s1
