20
gdb 18044	3.06	2.26669	1.69822	0.2979	78.29	-0.2358	0.0267	0.2625	859.6877	0.180235	-311.875439	-311.868467	-311.867522	-311.906717	27.915	
C	-0.1057097576	 1.3788640155	-0.3794275175	-0.217266
C	 1.1980688339	 1.6954265634	 0.4000548594	-0.217262
C	 1.3785207871	 0.1831052347	 0.7309697699	 0.011215
C	 1.3674685265	-0.175509397	 2.2241684661	-0.272737
C	 0.0088484735	 0.0163151072	 2.8514215993	-0.053066
C	-1.1110808648	-0.2560764943	 2.1811364981	-0.053082
C	-1.0739645557	-0.7692121488	 0.7628927642	-0.272735
C	 0.0594112196	-0.1373241637	-0.0583629768	 0.011265
H	-1.0062681052	 1.8255532062	 0.0514410953	 0.09605
H	-0.0796041023	 1.6226761828	-1.4444851842	 0.092065
H	 2.0029495274	 2.1277462082	-0.199732638	 0.092078
H	 1.0525322904	 2.3258657416	 1.2818488948	 0.096029
H	 2.2679166001	-0.2476819363	 0.2627272685	 0.059801
H	 1.6761983273	-1.2246907985	 2.349056759	 0.104727
H	 2.1239398391	 0.4205069337	 2.74902554	 0.097836
H	-0.037154926	 0.3600304775	 3.8813622903	 0.081363
H	-2.0799518108	-0.1368069632	 2.6587300796	 0.081361
H	-0.9461314116	-1.8624106848	 0.7792783198	 0.104723
H	-2.0327551104	-0.5904074416	 0.2611851095	 0.097836
H	 0.2368955394	-0.7406610427	-0.9529802274	 0.059798
69.373	137.2957	302.9724	330.1573	408.0203	511.4375	517.3122	690.3268	694.2203	739.1545	780.2186	781.6345	858.9227	889.3912	915.1654	936.8825	967.6483	986.8236	996.3229	1032.1406	1072.3014	1087.5707	1088.0006	1118.2655	1165.9259	1215.2017	1233.5477	1237.0394	1239.7464	1271.3674	1278.3454	1306.9468	1319.5069	1337.7157	1349.1394	1381.8584	1416.5038	1472.6745	1476.6492	1480.0317	1493.7025	1712.1003	2987.4564	2989.5711	3043.8758	3045.1633	3048.1558	3050.9827	3055.3782	3066.4203	3093.5028	3113.6015	3148.2575	3172.1015
C1CC2CC=CCC12	C1C[C@H]2CC=CC[C@@H]12	
InChI=1S/C8H12/c1-2-4-8-6-5-7(8)3-1/h1-2,7-8H,3-6H2	InChI=1S/C8H12/c1-2-4-8-6-5-7(8)3-1/h1-2,7-8H,3-6H2/t7-,8+
