20
gdb 39298	2.61375	2.03696	1.83587	0.1843	76.4	-0.2084	0.0835	0.2919	885.0759	0.175961	-403.125137	-403.118777	-403.117833	-403.155448	27.532	
C	 0.0419544027	 1.4559975817	 0.1800008768	-0.211644
C	 1.570687445	 1.3363829412	 0.0077620882	 0.098752
O	 2.2010485051	 0.9994962088	 1.2363870205	-0.27365
C	 1.3610561957	 0.1897374147	 2.0656808406	-0.093306
C	 0.4577605315	-0.7432412263	 1.2277944723	-0.006158
C	 1.2498851885	-1.9069150704	 0.6128896368	-0.203813
C	 2.0474955201	-1.2264621268	-0.5284356242	-0.247034
C	 1.2352397337	 0.0423416065	-0.7937194045	 0.018747
N	-0.0559431268	-0.0377226682	 0.012615292	-0.139435
H	-0.3599808402	 1.8738154096	 1.1057820396	 0.106759
H	-0.4399644915	 1.946468556	-0.6701023618	 0.108036
H	 2.1614594304	 2.1388932497	-0.4427058653	 0.071907
H	 2.0239135214	-0.3799521482	 2.7243321294	 0.106163
H	 0.7426727234	 0.835042734	 2.7049524231	 0.097115
H	-0.3774086023	-1.0879449209	 1.8473366219	 0.07265
H	 1.8823876692	-2.4166016449	 1.3441141203	 0.096516
H	 0.5512098786	-2.6410313768	 0.2012707545	 0.10847
H	 3.0594515359	-0.9691424599	-0.2046754055	 0.117127
H	 2.1253213395	-1.8599604593	-1.4147260372	 0.100381
H	 1.0199733302	 0.2417034395	-1.8472517373	 0.072416
183.6862	272.1723	373.2248	400.0747	448.3289	530.2569	546.8092	672.5989	706.6351	770.552	799.1575	819.4514	845.2049	883.7909	930.6513	931.1615	952.6272	962.9263	982.1931	1011.8623	1024.8211	1058.1755	1085.5862	1114.8744	1144.5426	1174.3118	1193.4544	1219.6767	1234.638	1247.498	1250.1978	1278.7793	1299.0468	1320.3939	1326.7329	1343.0303	1357.4995	1362.9884	1402.4912	1478.887	1494.799	1498.5095	1526.9645	3000.0487	3044.7276	3058.3251	3060.2418	3060.8219	3068.5408	3074.1425	3077.1215	3100.0905	3114.4985	3117.9545
C1C2OCC3CCC2N13	C1[C@H]2OC[C@@H]3CC[C@H]2N13	
InChI=1S/C7H11NO/c1-2-6-7-3-8(6)5(1)4-9-7/h5-7H,1-4H2	InChI=1S/C7H11NO/c1-2-6-7-3-8(6)5(1)4-9-7/h5-7H,1-4H2/t5-,6+,7+/m0/s1
