21
gdb 104206	2.5053	1.28058	1.20466	0.3945	78.16	-0.2546	0.0696	0.3242	1175.1276	0.180685	-424.192094	-424.182564	-424.18162	-424.226145	36.026	
C	-0.3832013023	 1.5933628416	 0.1563358834	-0.469146
C	-0.0305810682	 0.1137968626	 0.0530351836	 0.236869
C	-1.2538381536	-0.72543953	-0.3171180455	-0.108761
O	-1.7047800651	-0.3079571053	-1.5991661421	-0.429432
C	 1.2132843765	-0.2567524329	-0.8246027377	-0.260752
C	 1.7555625068	-1.1679202476	 0.3173185117	-0.325901
C	 0.7157640227	-0.5315245928	 1.2389614	 0.413728
C	 0.8764866178	-0.0321211996	 2.6050758185	-0.263631
O	 0.0795119647	-1.1922356529	 2.3231572896	-0.278491
H	 0.4969469582	 2.1925979314	 0.4100840296	 0.105638
H	-0.7867040282	 1.9542364414	-0.7934982564	 0.137239
H	-1.143681212	 1.765153372	 0.927501682	 0.111746
H	-0.9884318236	-1.7939552762	-0.3210361206	 0.087186
H	-2.0317881084	-0.5870618109	 0.4486888388	 0.095912
H	-2.4867081319	-0.8201990074	-1.8234397396	 0.288229
H	 0.9851793271	-0.7389166317	-1.7759160097	 0.11362
H	 1.8550515277	 0.6070317216	-1.0127198155	 0.100117
H	 1.5566618732	-2.2303048871	 0.1514342462	 0.115662
H	 2.8048681015	-1.0504535816	 0.5978262888	 0.104338
H	 1.8049558037	-0.2257332877	 3.1417748739	 0.111886
H	 0.3226409634	 0.8440877532	 2.939234681	 0.113943
75.6376	114.275	159.0076	227.449	244.2616	247.0494	280.7969	309.0288	351.8392	378.8155	473.8243	496.2679	577.9571	692.0337	746.9267	855.9858	876.299	883.984	914.4596	936.8324	961.3972	971.5335	1014.2225	1066.9645	1115.0779	1124.8517	1132.8323	1159.5154	1170.5712	1198.5216	1210.201	1238.7964	1247.4132	1267.4474	1280.9961	1332.3195	1399.7571	1423.4954	1455.0092	1475.021	1490.2192	1496.781	1501.5961	1518.334	1535.1747	2976.6414	3009.529	3028.3911	3060.7997	3073.39	3078.8859	3092.3538	3108.9674	3118.4031	3134.1058	3164.9695	3834.3137
CC1(CO)CCC11CO1	C[C@@]1(CO)CC[C@]21CO2	
InChI=1S/C7H12O2/c1-6(4-8)2-3-7(6)5-9-7/h8H,2-5H2,1H3	InChI=1S/C7H12O2/c1-6(4-8)2-3-7(6)5-9-7/h8H,2-5H2,1H3/t6-,7+/m0/s1
