19
gdb 91411	2.53219	1.78597	1.30273	2.3336	75.	-0.2383	-0.016	0.2222	1023.5023	0.160084	-423.036401	-423.02856	-423.027616	-423.068866	30.747	
C	 0.3307982028	 1.5473085238	-0.085782955	-0.393995
C	 0.0706336325	 0.0493455642	 0.0195426544	 0.027576
O	 0.4791789028	-0.5849628334	-1.1980651022	-0.28934
C	 1.1571856405	-1.819396157	-1.0513302714	 0.133932
C	 0.524212902	-2.7072067962	 0.0512986438	-0.264787
C	 1.3927521533	-1.8851990053	 1.0565625194	-0.126356
C	 2.3934846061	-1.6705256972	-0.1280963618	-0.254633
C	 0.7047653594	-0.5618097302	 1.2872701721	 0.389096
O	 0.6155199853	-0.0130049443	 2.3592356834	-0.336211
H	 1.3981359444	 1.7427123054	-0.2244010277	 0.121919
H	-0.209148298	 1.9623274626	-0.9403498587	 0.12458
H	-0.0016103162	 2.0416636638	 0.8292589675	 0.14021
H	-1.0133715175	-0.1119144772	 0.1423615305	 0.108767
H	 1.2825784663	-2.2169293834	-2.0594230138	 0.083648
H	-0.5629896203	-2.6972112988	 0.1598994643	 0.111392
H	 0.8770371862	-3.738850293	-0.0140085229	 0.113556
H	 1.7316157601	-2.3262317901	 1.9937525231	 0.085424
H	 3.0785790591	-2.5171065835	-0.2166552634	 0.112418
H	 2.9523391212	-0.7332704102	-0.1813323714	 0.112804
59.9274	161.795	210.5764	267.5927	376.459	399.0491	426.8477	455.5255	469.6427	558.6448	657.7496	761.756	811.5874	830.8433	870.4103	886.4886	922.1038	946.6988	977.3046	1012.9079	1032.3735	1061.0425	1088.0849	1118.1839	1135.2553	1141.8802	1174.776	1240.3253	1245.1962	1265.8535	1269.0683	1318.6461	1328.3392	1345.624	1377.2243	1398.3043	1472.6183	1485.6189	1495.3761	1503.3329	1821.1774	2964.7437	3050.5958	3063.5145	3066.7958	3104.4554	3118.4312	3122.996	3124.9475	3126.2425	3143.6765
CC1OC2CC(C2)C1=O	C[C@H]1O[C@@H]2C[C@@H](C2)C1=O	
InChI=1S/C7H10O2/c1-4-7(8)5-2-6(3-5)9-4/h4-6H,2-3H2,1H3	InChI=1S/C7H10O2/c1-4-7(8)5-2-6(3-5)9-4/h4-6H,2-3H2,1H3/t4-,5-,6+/m1/s1
