20
gdb 111991	4.11885	1.10266	0.9746	2.1349	81.49	-0.2254	0.0075	0.2329	1285.0934	0.170412	-403.114314	-403.105422	-403.104477	-403.147834	33.593	
C	-0.1023594119	 1.3916955918	 0.0168249246	-0.23102
O	 0.1653111163	 0.0155403732	-0.108258985	-0.239099
C	 0.7076888275	-0.5726658539	 1.0599562616	 0.12155
C	-0.3006673597	-0.8451909176	 2.173631701	-0.120926
C	-0.2920211841	-2.1220727925	 2.5520734214	-0.098426
C	 0.6767442152	-2.9266101077	 1.7303043743	 0.295722
C	 1.4086724531	-4.1008123349	 2.3230848363	-0.496027
N	 0.2369861838	-2.939086568	 0.3052579676	-0.349829
C	 1.2563626011	-1.9630435817	 0.7612695304	-0.1462
H	 0.7976884763	 1.9588370291	 0.306059988	 0.098749
H	-0.4403365151	 1.7435785775	-0.9611027704	 0.127526
H	-0.8912994542	 1.6047890735	 0.7538786714	 0.10449
H	 1.5241632759	 0.0717079268	 1.4349517877	 0.062885
H	-0.9531828175	-0.0752102758	 2.5681996051	 0.098931
H	-0.9190590633	-2.5642242227	 3.3189199061	 0.096825
H	 0.7149375383	-4.9126563476	 2.5711306446	 0.12645
H	 2.1515523665	-4.4969095481	 1.6230713287	 0.115803
H	 1.9300472747	-3.8174710666	 3.2439160535	 0.127043
H	 0.7305454664	-3.6893140193	-0.1790930167	 0.221183
H	 2.2709159909	-2.0614126053	 0.39074179	 0.084368
76.9407	117.262	170.7609	210.2369	232.4682	257.2121	324.2387	369.0415	419.5047	510.514	544.8518	623.2835	720.9318	757.5517	823.8253	852.6735	906.5897	923.0547	951.2542	967.5611	996.7659	1029.2212	1055.4525	1060.69	1112.9959	1131.1553	1153.5624	1169.1658	1181.859	1221.3432	1287.0542	1315.7665	1333.4707	1370.5996	1377.9189	1414.7364	1443.1807	1477.9841	1485.0414	1490.0269	1500.2825	1509.303	1677.074	2927.3981	2967.6236	3014.998	3024.9246	3086.8854	3099.5117	3111.1018	3167.316	3181.8283	3210.3959	3455.9765
COC1C=CC2(C)NC12	CO[C@H]1C=C[C@@]2(C)N[C@@H]12	
InChI=1S/C7H11NO/c1-7-4-3-5(9-2)6(7)8-7/h3-6,8H,1-2H3	InChI=1S/C7H11NO/c1-7-4-3-5(9-2)6(7)8-7/h3-6,8H,1-2H3/t5-,6-,7+/m0/s1
