19
gdb 95883	2.19797	1.57684	1.15808	2.2004	72.17	-0.2365	-0.0279	0.2086	1130.965	0.15848	-460.167811	-460.159176	-460.158232	-460.201084	32.246	
C	 0.0593901275	 1.5706198073	 0.011897298	-0.407627
C	 0.0198698571	 0.0550128762	-0.0750221927	 0.116197
C	 0.7842068614	-0.4926106019	-1.2778448799	-0.08735
O	 0.828105899	-1.9143321985	-1.2481323321	-0.250819
C	 1.4693976951	-2.3708201367	-0.0756977998	-0.107813
C	 0.7392993788	-1.8482671474	 1.1724980202	 0.002175
O	 0.6091946467	-0.4477256712	 1.137183502	-0.271681
C	-0.5816563785	-2.5826200174	 1.3844272239	 0.157467
O	-1.6623769053	-2.0641891229	 1.4622143331	-0.236513
H	 1.091640026	 1.9298439856	 0.0712261471	 0.121816
H	-0.4178778009	 2.0183651214	-0.8652619693	 0.11841
H	-0.472885547	 1.9077571903	 0.904647786	 0.135661
H	-1.0181094126	-0.2941522511	-0.131287092	 0.106139
H	 0.2871653379	-0.215338258	-2.2116495823	 0.113444
H	 1.8090569218	-0.0845649604	-1.2865775807	 0.08935
H	 1.4676620498	-3.4649513605	-0.1104626675	 0.114369
H	 2.5141430077	-2.0231874841	-0.0433615801	 0.10243
H	 1.3546874225	-2.0851014296	 2.054243461	 0.107953
H	-0.4563173971	-3.688105261	 1.4827694849	 0.076395
94.4102	137.587	160.3834	209.6708	257.9269	288.9468	305.8732	387.4396	437.9456	476.1859	512.6026	655.8936	730.9967	817.0608	847.5641	897.3963	909.5617	928.784	966.4567	1009.8415	1072.1823	1127.7217	1140.2468	1156.8364	1162.3433	1183.5399	1254.7099	1284.4002	1319.8202	1341.1351	1364.9135	1378.9047	1386.41	1410.8072	1417.0726	1428.3155	1478.5966	1483.9326	1492.9119	1500.3589	1843.9027	2841.8587	2968.302	2981.434	3004.84	3042.3612	3047.3369	3081.2161	3093.7024	3115.4842	3126.6254
CC1COCC(O1)C=O	C[C@H]1COC[C@@H](O1)C=O	
InChI=1S/C6H10O3/c1-5-3-8-4-6(2-7)9-5/h2,5-6H,3-4H2,1H3	InChI=1S/C6H10O3/c1-5-3-8-4-6(2-7)9-5/h2,5-6H,3-4H2,1H3/t5-,6-/m0/s1
