17
gdb 30869	2.41117	1.43662	0.94338	1.8087	73.26	-0.191	0.0388	0.2298	1239.0199	0.135481	-455.175605	-455.16636	-455.165416	-455.209777	33.101	
C	 0.0639889222	 1.2497626072	 0.2950219742	-0.252902
O	-0.2225590764	 0.1694623682	-0.6030353414	-0.266201
C	-1.2576667245	-0.5999288693	-0.254944396	 0.306355
C	-1.392926168	-1.9063700942	 0.0551817454	 0.145501
C	-0.3392487213	-2.9489424545	 0.1972306971	-0.497107
N	-2.7595819818	-2.1894017449	 0.2171182339	-0.385605
C	-3.3460197654	-1.0536023814	 0.0183853061	 0.443477
N	-4.6829443759	-0.7552898434	 0.1525223201	-0.587829
O	-2.5268455018	-0.0200995785	-0.2832810805	-0.222495
H	 0.9541383741	 1.7456266259	-0.0950554381	 0.135991
H	-0.7681150763	 1.9605318316	 0.3283784821	 0.135252
H	 0.2602037359	 0.8697903585	 1.3042965691	 0.124842
H	-0.3543619937	-3.3907915787	 1.1996947846	 0.131728
H	-0.4951532148	-3.7650205403	-0.5170654263	 0.133363
H	 0.6499349943	-2.5197981217	 0.0197998112	 0.126617
H	-5.2564164394	-1.5867410178	 0.148794045	 0.267968
H	-5.0173229773	-0.0458730968	-0.4845841365	 0.261046
70.6963	145.9614	155.3247	158.5551	207.6162	247.886	270.996	308.1812	353.8767	447.2908	552.0958	620.7907	632.7858	653.6692	695.86	757.7533	822.6499	980.162	1011.1523	1026.3778	1067.5418	1092.4704	1145.1352	1173.6116	1205.6465	1265.9882	1338.905	1415.7949	1438.8128	1474.8842	1477.6079	1486.8941	1495.9328	1503.8863	1606.4422	1679.6737	1741.9074	3023.908	3032.296	3083.8186	3096.9003	3123.7911	3142.6624	3564.1801	3670.7773
COC1=C(C)N=C(N)O1	COc1c(C)nc(N)o1	
InChI=1S/C5H8N2O2/c1-3-4(8-2)9-5(6)7-3/h1-2H3,(H2,6,7)	InChI=1S/C5H8N2O2/c1-3-4(8-2)9-5(6)7-3/h1-2H3,(H2,6,7)
