22
gdb 75485	2.51477	1.47617	1.10681	1.5047	88.66	-0.216	0.0242	0.2402	1210.11	0.195287	-367.220019	-367.21121	-367.210265	-367.252788	34.977	
C	 0.0953014427	 1.5027650063	 0.0940616504	-0.493383
C	 0.0030289204	 0.0055991244	-0.0142169017	 0.392459
C	-0.0388462242	-0.6485959151	-1.1784977459	-0.177536
C	-0.1177820991	-2.1510738281	-1.2646449901	-0.262703
C	-0.8950997568	-2.7659262632	-0.0859053105	-0.253306
C	-0.4967486884	-2.1854966976	 1.2604144283	 0.331894
C	-1.2596910365	-2.7193676239	 2.4525867179	-0.473521
N	 0.9370416703	-1.8890414603	 1.4112500051	-0.370434
C	-0.0385389657	-0.7660236624	 1.261319194	-0.185705
H	 1.0080551055	 1.8078687807	 0.6222698372	 0.124846
H	 0.0998012474	 1.9760804519	-0.8914225143	 0.119384
H	-0.7472357248	 1.9161761118	 0.6641570159	 0.118508
H	 0.0117304906	-0.0904255029	-2.1104177516	 0.075298
H	-0.5896065506	-2.4526037018	-2.2065198294	 0.091983
H	 0.8964969717	-2.5681157199	-1.2799008991	 0.128244
H	-1.9689037526	-2.5813726073	-0.2221573548	 0.096799
H	-0.7603447702	-3.8544421384	-0.0774670388	 0.094161
H	-1.0663597138	-3.7897042713	 2.5933555833	 0.120457
H	-0.9726697931	-2.2001723884	 3.3734233872	 0.109469
H	-2.3401659232	-2.5947938491	 2.3196307747	 0.122773
H	 1.2012278528	-1.9724055391	 2.391011607	 0.221372
H	-0.2425381224	-0.1841649863	 2.1581222453	 0.06894
130.6002	168.9767	194.492	228.3422	263.5775	285.7568	334.975	385.9667	389.0821	467.5417	499.365	583.788	627.808	708.3174	793.7788	831.5455	853.5275	894.534	916.4277	938.5519	981.751	1006.3786	1027.8115	1033.3951	1070.8153	1080.0688	1089.5579	1121.9854	1181.0603	1190.9053	1222.5106	1240.7067	1299.4341	1325.7051	1350.0305	1369.6041	1398.0897	1412.831	1415.6287	1456.8777	1473.7268	1478.8722	1484.5916	1487.2771	1492.9727	1505.1276	1731.6752	3011.2764	3015.8321	3021.7026	3029.0036	3053.5302	3056.205	3066.2392	3083.5987	3094.1152	3109.372	3121.9963	3151.4118	3480.6416
CC1=CCCC2(C)NC12	CC1=CCC[C@@]2(C)N[C@@H]12	
InChI=1S/C8H13N/c1-6-4-3-5-8(2)7(6)9-8/h4,7,9H,3,5H2,1-2H3	InChI=1S/C8H13N/c1-6-4-3-5-8(2)7(6)9-8/h4,7,9H,3,5H2,1-2H3/t7-,8+/m0/s1
