19
gdb 65053	2.30776	1.50606	1.2133	0.9947	81.21	-0.2454	0.0454	0.2909	1120.2933	0.156336	-385.827937	-385.818673	-385.817729	-385.861648	35.463	
C	-0.0166142171	 1.3502607478	-0.7690146865	-0.469558
C	-0.0133235548	 0.0056515964	-0.0781611076	 0.303616
C	 1.2251559288	-0.7780151524	 0.0237133611	-0.216437
O	 0.7199600979	-0.0467318262	 1.150366257	-0.277531
C	-1.3502338347	-0.7166093174	-0.0440261777	 0.120939
C	-1.6354447161	-1.6688937572	 1.1055891514	-0.309719
C	-2.3229845437	-0.3367496578	 1.0665400554	-0.299675
C	-1.890158346	-1.0376261041	-1.3381842821	 0.268412
C	-2.3239529717	-1.3027042615	-2.4289758646	-0.45311
H	 0.9794650484	 1.7980231487	-0.741634771	 0.123666
H	-0.3323024976	 1.2439584177	-1.8106415052	 0.138767
H	-0.7160530432	 2.0309135575	-0.272539698	 0.127366
H	 1.1692406497	-1.8615197182	 0.1116334278	 0.115706
H	 2.1484165852	-0.3892513243	-0.4027446838	 0.115402
H	-2.2120237165	-2.5563848657	 0.8752090504	 0.124073
H	-0.8384956272	-1.7941562638	 1.8284605476	 0.138733
H	-1.9824960176	 0.4206941636	 1.7640208383	 0.13162
H	-3.376056261	-0.297550853	 0.8159975078	 0.126603
H	-2.7115500127	-1.5389841501	-3.3887146101	 0.191126
62.0512	138.2126	190.0819	196.1205	221.2806	254.6721	340.0507	374.9248	415.0677	471.9374	526.0527	567.3843	586.5723	592.7632	651.3818	785.7007	802.7123	859.1095	894.4768	912.6493	924.2576	955.3194	989.3546	1033.5019	1067.8719	1095.6378	1106.9344	1135.3161	1163.3089	1188.6154	1202.5428	1297.7374	1319.5932	1391.1048	1415.1194	1451.2504	1481.0085	1484.4332	1496.398	1528.0222	2231.2689	3043.4039	3087.8773	3111.6929	3131.0382	3140.7523	3148.8755	3176.8501	3230.7854	3247.483	3503.1904
CC1(CO1)C1(CC1)C#C	C[C@]1(CO1)C1(CC1)C#C	
InChI=1S/C8H10O/c1-3-8(4-5-8)7(2)6-9-7/h1H,4-6H2,2H3	InChI=1S/C8H10O/c1-3-8(4-5-8)7(2)6-9-7/h1H,4-6H2,2H3/t7-/m0/s1
