20
gdb 82517	3.18732	1.38945	1.28223	2.6476	77.9	-0.218	0.0715	0.2895	1075.5237	0.171799	-403.096618	-403.088589	-403.087645	-403.128543	32.764	
C	-0.0402283824	 1.5986539234	 0.047077261	-0.431988
C	 0.0335857987	 0.0857155576	-0.0217463997	 0.026719
C	 0.4831091854	-0.708743718	-1.2011965841	-0.049142
C	 1.4029245099	-0.1086125856	-2.2670479362	-0.333556
C	 2.788652129	 0.0086747179	-1.5987668499	 0.393768
O	 3.8862877307	-0.4918692066	-2.3018322977	-0.462005
C	 3.0022598326	 1.069225174	-0.5524827515	-0.368691
C	 2.5793145372	-0.3450271218	-0.1532119336	-0.045814
N	 1.2192894011	-0.7929723279	 0.0830246748	-0.123012
H	 0.3957884853	 2.1045288487	-0.8166219107	 0.124835
H	-1.0961901349	 1.8854943521	 0.0858875861	 0.119859
H	 0.4365699589	 1.9887628478	 0.952126836	 0.132623
H	-0.781847704	-0.368416725	 0.5413649925	 0.09169
H	-0.0845634179	-1.5910653148	-1.4899737242	 0.08812
H	 1.4975839944	-0.7985351381	-3.1093340831	 0.118973
H	 1.0380554025	 0.8450050956	-2.6657323784	 0.102514
H	 4.2482261888	 0.2209206582	-2.8389364111	 0.281357
H	 4.042468451	 1.2854838555	-0.3263407734	 0.112192
H	 2.3452313646	 1.919924709	-0.4659454035	 0.114788
H	 3.3223626091	-0.9277547319	 0.3797067168	 0.106772
137.4254	176.444	247.5276	284.5361	302.0597	354.1158	396.7359	422.9819	474.1702	580.4077	611.8253	655.0851	713.7718	742.8727	780.744	842.3171	893.9948	897.1844	938.8814	971.6301	981.4819	1003.2668	1037.5881	1069.0412	1071.7748	1100.518	1135.8409	1152.7111	1166.9074	1176.464	1243.9898	1278.1259	1284.0822	1324.13	1334.4915	1382.6565	1396.5426	1420.6566	1431.5944	1475.7425	1491.6921	1505.7471	1518.4355	3040.0914	3041.5686	3088.8464	3098.6737	3100.504	3120.6961	3126.2416	3143.8493	3173.0361	3269.9934	3799.5054
CC1C2CC3(O)CC3N12	C[C@H]1[C@H]2C[C@@]3(O)C[C@H]3N12	
InChI=1S/C7H11NO/c1-4-5-2-7(9)3-6(7)8(4)5/h4-6,9H,2-3H2,1H3	InChI=1S/C7H11NO/c1-4-5-2-7(9)3-6(7)8(4)5/h4-6,9H,2-3H2,1H3/t4-,5+,6+,7+,8?/m0/s1
