16
gdb 126448	2.7759	1.49516	0.98335	2.7469	76.7	-0.242	-0.0628	0.1792	1158.0543	0.125057	-430.205283	-430.197027	-430.196083	-430.239008	30.018	
C	-0.0484635226	 1.5538384437	 0.0736227039	-0.386181
C	 0.0279495852	 0.0335641649	-0.0473909213	-0.258044
C	 0.7247828031	-0.4766214313	-1.2703692366	 0.338279
N	 1.2079545074	 0.3583874975	-2.1349539434	-0.264089
N	 1.8169484302	-0.2013193967	-3.2021372271	-0.103249
N	 1.9826540794	-1.4968710939	-3.4693403669	-0.049881
N	 1.527760175	-2.3535665716	-2.6539162576	-0.257924
C	 0.8539772124	-1.9258024162	-1.478035061	 0.307817
N	 0.3778556149	-2.7571947097	-0.6331294055	-0.50731
H	 0.9481171273	 2.0030068859	 0.0991858219	 0.127313
H	-0.5844550618	 1.9953060988	-0.7709857931	 0.127416
H	-0.5718793967	 1.8289815636	 0.9930877182	 0.116528
H	 0.5300736026	-0.4140100186	 0.8203321403	 0.142166
H	-0.9712093239	-0.4213399543	-0.0320846094	 0.142221
H	 2.2007694377	 0.4316726508	-3.8853995611	 0.296863
H	 0.57002896	-3.7084369829	-0.9579352815	 0.228076
45.9651	76.4178	192.144	207.8649	297.1605	334.2855	394.0705	472.9075	512.0616	546.5728	615.7067	621.5896	750.957	753.1468	830.0371	903.7435	920.3589	1005.7533	1027.4976	1071.1486	1098.9289	1106.2199	1181.1769	1215.3096	1269.3838	1347.0823	1399.702	1417.1567	1442.5421	1452.4582	1495.0438	1501.4807	1560.2539	1645.6691	1699.9511	3033.7278	3049.6386	3051.6291	3120.7884	3122.1431	3447.7236	3656.1001
CCC1=NNN=NC1=N	CCc1n[nH]nnc1[NH]	
InChI=1S/C4H7N5/c1-2-3-4(5)7-9-8-6-3/h2H2,1H3,(H2,5,7,8)	InChI=1S/C4H12N5/c1-2-3-4(5)7-9-8-6-3/h3-9H,2H2,1H3
