18
gdb 105213	2.26477	1.51497	1.09584	3.5791	68.85	-0.2342	0.023	0.2572	1136.2392	0.145665	-476.222745	-476.213083	-476.212139	-476.256863	35.837	
C	-0.6616744566	 0.3722974556	 0.1680965847	-0.279927
O	 0.6509301354	-0.1264489659	-0.127411581	-0.312298
C	 0.6935602347	-0.9670532277	-1.2467633587	 0.244454
C	 1.646919803	-2.1527204718	-1.1252614104	-0.380262
C	 0.1715530757	-2.3867992694	-1.0684381761	 0.10156
O	-0.4606133617	-2.7419287191	 0.1220559709	-0.42437
C	 0.6186691654	-0.3364695767	-2.6104045944	 0.34378
N	 0.737049366	 1.0247107349	-2.614325826	-0.537945
O	 0.4731414166	-1.0051967705	-3.6181782634	-0.375743
H	-1.0279751905	 1.0261425067	-0.6317314211	 0.125536
H	-1.3683512897	-0.4493532617	 0.3152574629	 0.143512
H	-0.5682389951	 0.9502992158	 1.0903664655	 0.127152
H	 2.1868371501	-2.44230212	-2.0188678679	 0.141716
H	 2.2023035725	-2.2035452117	-0.1938074485	 0.121513
H	-0.3127089727	-2.8371146199	-1.9262190411	 0.140941
H	 0.0266236742	-2.3352755561	 0.8476346161	 0.290393
H	 1.0923740218	 1.4839947393	-1.7914961511	 0.268007
H	 0.8603938609	 1.4714547084	-3.5089786004	 0.261981
79.6453	145.5761	159.5475	188.6518	208.9722	244.4645	271.8526	345.1121	354.7895	412.0624	438.2399	491.9486	519.1689	594.5291	620.2806	716.4031	752.2552	837.8647	888.1516	923.984	1000.0634	1046.3308	1066.8843	1095.1989	1106.3075	1130.578	1184.3631	1187.4783	1231.8192	1282.1219	1326.4163	1383.7287	1422.3859	1464.2262	1475.6811	1492.386	1520.2341	1600.2202	1786.1802	3028.2293	3102.0703	3131.8083	3132.5002	3202.1329	3233.7793	3586.7347	3720.4829	3805.6824
COC1(CC1O)C(N)=O	CO[C@]1(C[C@H]1O)C(=O)N	
InChI=1S/C5H9NO3/c1-9-5(4(6)8)2-3(5)7/h3,7H,2H2,1H3,(H2,6,8)	InChI=1S/C5H9NO3/c1-9-5(4(6)8)2-3(5)7/h3,7H,2H2,1H3,(H2,6,8)/t3-,5+/m1/s1
