17
gdb 46964	2.93321	1.71588	1.15563	3.6709	73.97	-0.2421	-0.0149	0.2271	1027.0092	0.139604	-418.066488	-418.059423	-418.058478	-418.098268	27.149	
O	 0.12030625	 0.0134940601	 0.2547273223	-0.354627
C	-0.0010510948	 1.1910080895	 0.0240380093	 0.393127
C	-1.2834687635	 2.0326869598	-0.009280181	-0.332536
C	-0.7925765985	 3.465946182	 0.2896885846	-0.248952
C	 0.6112941275	 3.4832496946	-0.3455369242	 0.022011
C	 1.8001799369	 4.2168070837	 0.3335858161	-0.196732
N	 2.8353813513	 3.1887658954	 0.5863693319	-0.240019
C	 2.3390357887	 2.060468883	 0.2715079441	 0.056883
N	 1.0399945415	 2.0780935909	-0.2457468432	-0.100943
H	-1.7252590431	 1.9637860379	-1.0110127386	 0.13546
H	-2.0107013973	 1.6360975735	 0.7006830786	 0.137918
H	-1.4479179674	 4.2424059398	-0.1103248077	 0.114141
H	-0.7117574061	 3.6162004313	 1.3723123058	 0.117605
H	 0.5380992384	 3.7639388328	-1.4035732694	 0.094454
H	 2.2105263211	 5.00611904	-0.3010609519	 0.124567
H	 1.5253506351	 4.6801254622	 1.2900269105	 0.118539
H	 2.8402353802	 1.1075156435	 0.3946177529	 0.159104
105.7016	146.8699	169.884	304.901	425.5314	490.4061	556.7361	584.556	620.6211	662.6145	728.607	826.5371	876.3266	932.6844	937.7126	968.173	978.8502	982.9402	1042.0869	1070.9755	1081.4886	1161.089	1207.6767	1215.7766	1237.9293	1285.261	1299.4488	1307.0881	1324.3398	1335.1897	1350.0018	1394.5112	1466.5734	1490.5765	1500.6719	1686.0517	1833.6978	3016.5021	3026.9316	3043.4162	3048.9897	3093.5892	3112.125	3127.3873	3220.2484
O=C1CCC2CN=CN12	O=C1CC[C@H]2CN=CN12	
InChI=1S/C6H8N2O/c9-6-2-1-5-3-7-4-8(5)6/h4-5H,1-3H2	InChI=1S/C6H8N2O/c9-6-2-1-5-3-7-4-8(5)6/h4-5H,1-3H2/t5-/m0/s1
