19
gdb 89452	2.3699	1.72018	1.24866	2.3557	75.46	-0.2401	0.0105	0.2506	1047.9256	0.159471	-423.021724	-423.01357	-423.012626	-423.054185	32.562	
O	 0.5980477775	 0.6926817939	-0.8864967001	-0.432858
C	 0.0674134616	-0.3051766569	-0.0532587365	 0.151863
C	 0.1209188513	-0.1061367505	 1.4891119791	-0.333116
C	-1.3637839267	-0.5787059417	 1.593811596	 0.41237
O	-1.5257921606	-1.903125635	 2.05226899	-0.494891
C	-2.3530170699	 0.4453094246	 2.1958151009	-0.335499
C	-2.7402000896	 1.2842620636	 1.0008464071	-0.063466
C	-2.2830686282	 0.7856187552	-0.1514642097	-0.105463
C	-1.4845760029	-0.4733593555	 0.039196228	-0.129724
H	 0.1463916651	 1.5173777023	-0.6722810308	 0.276655
H	 0.5486407087	-1.2369621811	-0.359041067	 0.096879
H	 0.849400834	-0.7124777536	 2.0333741462	 0.098774
H	 0.2549835398	 0.94443956	 1.7650557248	 0.092235
H	-1.2554546295	-1.9342130011	 2.9763970104	 0.275762
H	-3.225144688	-0.0698042447	 2.6210864748	 0.111855
H	-1.9034259328	 1.037121492	 3.0040907494	 0.098325
H	-3.3536732955	 2.1748604798	 1.0907452069	 0.096531
H	-2.4728415771	 1.2139741332	-1.130104286	 0.101425
H	-1.8995175075	-1.3365237544	-0.4893600034	 0.082343
70.6333	185.5529	258.9078	289.7174	307.8224	346.1597	372.0856	416.3296	450.6191	541.8784	582.0389	648.7996	744.4947	774.1882	782.6554	852.7883	911.0263	920.6413	953.2938	965.981	983.3293	1025.5267	1046.6421	1053.1331	1096.5977	1123.5575	1145.9099	1173.6553	1199.1681	1214.4707	1253.2193	1264.4367	1285.215	1306.5277	1324.1379	1361.8242	1390.9188	1436.2841	1459.8961	1479.3155	1669.9664	3010.5661	3043.4476	3050.3015	3065.3693	3086.7609	3112.4268	3175.2855	3199.7854	3785.8206	3800.7674
OC1CC2(O)CC=CC12	O[C@H]1C[C@@]2(O)CC=C[C@@H]12	
InChI=1S/C7H10O2/c8-6-4-7(9)3-1-2-5(6)7/h1-2,5-6,8-9H,3-4H2	InChI=1S/C7H10O2/c8-6-4-7(9)3-1-2-5(6)7/h1-2,5-6,8-9H,3-4H2/t5-,6-,7-/m0/s1
