19
gdb 107599	2.6676	1.53575	1.12459	3.7446	75.2	-0.2476	-0.0213	0.2263	1110.8939	0.16046	-423.04968	-423.041512	-423.040567	-423.082354	31.712	
O	 0.001144064	 1.397159786	 0.4508013496	-0.4222
C	 0.0537904379	 0.0330006909	 0.0844288777	-0.164628
C	-1.3285978866	-0.5613214153	-0.0725109846	 0.216455
C	-2.0948406246	-1.1266370445	 1.1197713499	-0.318756
C	-1.6999052783	-2.0368707721	 0.0032921894	-0.094746
C	-2.7612125894	-2.3379851418	-1.057266785	-0.230724
C	-3.3001370757	-0.9617352978	-1.5045709551	-0.338078
C	-2.205789676	 0.0399741237	-1.1209750897	 0.376013
O	-2.0336839541	 1.1304935306	-1.623420096	-0.354801
H	-0.5182838367	 1.8296203487	-0.2411754807	 0.296181
H	 0.6156238437	-0.1071346595	-0.8535839522	 0.090758
H	 0.6032486768	-0.4914483926	 0.8740217157	 0.101397
H	-1.5244459397	-1.1762767057	 2.0409990704	 0.130536
H	-3.1384643812	-0.8629244259	 1.2593122392	 0.119919
H	-0.9287382594	-2.7770854926	 0.1874293422	 0.097342
H	-2.2928064588	-2.8490700233	-1.9046909475	 0.11448
H	-3.5476477006	-2.9970698209	-0.6765416046	 0.110103
H	-3.5136945831	-0.8929823072	-2.5728989711	 0.134962
H	-4.2233337381	-0.6837258408	-0.9822877278	 0.135787
107.767	121.2606	171.269	243.1762	266.769	359.8421	410.69	481.2696	534.266	554.296	627.3413	652.3569	693.0897	807.5047	834.7785	872.4085	910.0976	944.9143	956.425	1004.8123	1034.8236	1055.5482	1065.8389	1084.6992	1089.0091	1113.8075	1173.907	1206.7552	1232.1083	1268.355	1293.1504	1328.5429	1344.3173	1385.2241	1402.3111	1453.4631	1458.917	1488.2995	1500.8955	1507.9393	1800.2051	2969.6203	3046.5468	3049.4307	3062.1596	3085.2997	3118.1876	3128.2579	3169.774	3213.721	3748.3603
OCC12CC1CCC2=O	OC[C@]12C[C@H]1CCC2=O	
InChI=1S/C7H10O2/c8-4-7-3-5(7)1-2-6(7)9/h5,8H,1-4H2	InChI=1S/C7H10O2/c8-4-7-3-5(7)1-2-6(7)9/h5,8H,1-4H2/t5-,7-/m1/s1
