20
gdb 121491	3.53515	0.76758	0.65499	2.3506	81.14	-0.2382	-0.0138	0.2243	1749.188	0.167008	-440.302391	-440.291618	-440.290674	-440.339863	36.839	
C	-0.427425033	 0.7827711895	-1.2049462341	-0.381535
C	 0.177998855	-0.0262602832	-0.0657834161	-0.071732
O	 1.3129615043	-0.7815129377	-0.5038324583	-0.198383
C	 1.0414662055	-1.9506736296	-1.1056703983	 0.15214
N	 1.9462269142	-2.5802296975	-1.7200077637	-0.222571
C	 1.5549665531	-3.8065261738	-2.3663677889	-0.276258
C	 0.6437832747	-3.5984616172	-3.5906153826	 0.385762
C	 0.6749087415	-4.707199922	-4.6240054987	-0.475074
O	-0.066122567	-2.6278164918	-3.7000634747	-0.290064
H	 0.317099171	 1.4630151796	-1.6274778422	 0.136208
H	-0.7807336296	 0.1241586858	-2.0043725653	 0.147892
H	-1.2739113115	 1.3740556842	-0.8409670898	 0.117037
H	 0.555119912	 0.6241687606	 0.7274285367	 0.120683
H	-0.5667089289	-0.700884415	 0.3786452437	 0.105205
H	 0.0036957864	-2.2908068849	-0.9816603833	 0.082108
H	 2.4480810812	-4.3601536417	-2.6755241472	 0.118494
H	 0.9907314725	-4.493715775	-1.708641751	 0.118847
H	 0.6547041399	-5.6922421316	-4.145414882	 0.135783
H	-0.1640496814	-4.6043167381	-5.3131528278	 0.143874
H	 1.61339564	-4.6466398507	-5.1880386165	 0.151584
45.2458	55.5913	60.44	112.9357	135.6296	174.8926	221.0456	265.8474	318.4827	348.0572	402.5431	459.1222	481.5341	548.8114	661.7031	790.5807	805.611	866.35	905.3504	965.2325	995.9846	1054.3354	1073.7103	1098.0644	1116.504	1178.3997	1181.9758	1224.9081	1264.7228	1337.3068	1346.7344	1381.115	1396.9228	1413.5297	1431.203	1462.5114	1471.8196	1477.0445	1486.096	1494.7765	1514.241	1760.1872	1819.3103	2940.8983	3011.4705	3021.4343	3035.4452	3041.0702	3063.623	3094.6633	3097.0281	3116.619	3126.9933	3152.1731
CCOC=NCC(C)=O	CCOC=NCC(=O)C	
InChI=1S/C6H11NO2/c1-3-9-5-7-4-6(2)8/h5H,3-4H2,1-2H3	InChI=1S/C6H11NO2/c1-3-9-5-7-4-6(2)8/h5H,3-4H2,1-2H3
