20
gdb 76868	2.42293	1.76265	1.39116	1.667	78.67	-0.2106	0.007	0.2176	1018.0968	0.172319	-403.127957	-403.119889	-403.118945	-403.160436	32.057	
C	 0.4922221952	 1.6187492105	-0.0964463362	-0.419085
C	 0.1127671193	 0.1463972202	 0.0134373204	 0.005289
C	 0.7037688826	-0.7967282868	-1.0869766484	 0.100168
O	 1.4447359023	-0.2324329946	-2.1377584665	-0.424161
C	 1.4784019771	-1.5119490157	 0.0572197978	-0.059611
C	 2.9286758298	-1.147196289	 0.2457887514	-0.114876
C	 3.0749850793	-0.3688149127	 1.3187990055	-0.07049
C	 1.7390140005	-0.1020653673	 1.9819799092	-0.223439
N	 0.7466340367	-0.703798672	 1.0787923226	-0.110596
H	 1.5740341293	 1.7790675769	-0.1380070831	 0.11051
H	 0.0600924607	 2.0291030865	-1.0140359367	 0.131063
H	 0.0967426585	 2.1960839554	 0.7449667575	 0.122003
H	-0.9796272126	 0.0783312807	 0.0835977637	 0.077797
H	-0.0517683393	-1.4261087084	-1.5620769007	 0.091195
H	 2.2098329054	 0.2112787435	-1.7540947561	 0.282323
H	 1.3187548051	-2.5970318948	 0.1216663553	 0.076464
H	 3.7277054624	-1.5328516944	-0.3767327863	 0.107187
H	 4.0162824766	-0.0053620348	 1.7164403241	 0.100924
H	 1.6993126788	-0.5694069137	 2.9780574559	 0.107777
H	 1.5439709222	 0.9646845404	 2.1387610104	 0.109556
64.2029	181.0182	227.955	261.2797	285.9628	360.2514	386.2303	475.7774	504.8668	554.9933	656.0872	724.6476	735.994	799.4915	804.3427	849.3681	883.2401	926.3494	952.5332	968.1368	1027.8126	1034.2056	1050.4337	1071.6801	1118.2959	1126.4518	1150.4784	1174.6783	1223.2309	1239.8647	1255.229	1274.7101	1294.751	1319.5328	1338.0366	1352.6173	1383.2629	1402.5339	1442.2018	1488.923	1493.2927	1510.3402	1664.0082	2982.6364	3001.9682	3018.7835	3037.6053	3059.038	3089.7157	3106.1759	3112.2246	3187.6416	3213.2411	3790.7532
CC1C(O)C2C=CCN12	C[C@H]1[C@@H](O)[C@H]2C=CCN12	
InChI=1S/C7H11NO/c1-5-7(9)6-3-2-4-8(5)6/h2-3,5-7,9H,4H2,1H3	InChI=1S/C7H11NO/c1-5-7(9)6-3-2-4-8(5)6/h2-3,5-7,9H,4H2,1H3/t5-,6+,7+/m0/s1
