19
gdb 116900	4.48451	0.51761	0.49197	3.279	79.42	-0.2556	0.0204	0.276	2241.1599	0.156122	-460.105291	-460.094394	-460.09345	-460.143313	37.143	
C	-0.3030152424	 1.3838402003	-0.3688543035	-0.220777
O	-0.3566181287	-0.0115860485	-0.5609930928	-0.229074
C	-0.9566011895	-0.6746900279	 0.5335682831	-0.205517
C	-0.9888619732	-2.1111235665	 0.2949768442	 0.029513
C	-1.0331123483	-3.3042026719	 0.1363085319	 0.10688
C	-1.0642412777	-4.7367805049	-0.1327356723	-0.073436
O	-2.236821032	-5.1367487634	-0.857195868	-0.430505
C	 0.1833768154	-5.2064296281	-0.906109469	-0.054761
O	 0.0828534369	-6.579831984	-1.1956810244	-0.417889
H	 0.170049093	 1.8128044154	-1.2546289826	 0.133976
H	-1.3079483923	 1.8203610221	-0.2537238297	 0.10679
H	 0.2914160351	 1.6524527604	 0.5188674667	 0.107484
H	-0.3996229579	-0.4688042323	 1.464644574	 0.12027
H	-1.9834754232	-0.302261012	 0.6959083721	 0.119107
H	-1.1126000257	-5.2995686307	 0.8068144618	 0.124986
H	-2.3906057981	-4.4735725214	-1.5403018193	 0.289809
H	 0.2832534727	-4.59432053	-1.8183761488	 0.087947
H	 1.0814507274	-5.0531059759	-0.3001063492	 0.118163
H	-0.8202877815	-6.7086323707	-1.5148471041	 0.287033
25.6007	57.4664	67.7339	109.6386	148.7876	205.2237	231.8372	301.1293	307.5709	337.1614	345.9339	395.1455	508.6612	520.2139	543.5675	603.237	823.4408	887.712	978.489	1026.2125	1044.0371	1065.5134	1094.673	1139.2205	1172.7153	1182.8814	1203.2657	1220.3603	1254.5488	1270.7004	1296.0363	1375.6836	1408.5247	1418.3466	1436.1292	1477.6732	1485.2448	1493.6333	1502.7933	1515.3417	2364.1885	2945.3218	2963.3152	2965.4835	2970.8757	3014.6787	3049.8611	3087.4206	3123.6279	3763.2952	3799.336
COCC#CC(O)CO	COCC#C[C@@H](O)CO	
InChI=1S/C6H10O3/c1-9-4-2-3-6(8)5-7/h6-8H,4-5H2,1H3	InChI=1S/C6H10O3/c1-9-4-2-3-6(8)5-7/h6-8H,4-5H2,1H3/t6-/m1/s1
