17
gdb 60684	1.91694	1.52038	1.20397	1.2557	68.63	-0.2544	-0.047	0.2074	1117.2624	0.131706	-458.948911	-458.939244	-458.9383	-458.984405	33.374	
C	 0.1676058182	 1.4905117886	-0.2041122032	-0.435059
C	-0.0813559948	-0.0322130685	-0.0010895775	 0.011673
C	 0.3035726223	-0.3715116477	 1.4368410317	 0.143769
O	 1.3108032429	-0.9603669577	 1.7338820101	-0.254896
C	-1.5821272463	-0.2439489156	-0.205881653	 0.116292
O	-2.4025015998	-0.0565999237	 0.6569554845	-0.264326
C	 0.770350402	-0.8260889458	-0.9797990902	 0.079453
C	 0.3676333939	-2.1191566958	-1.5378774534	-0.193938
O	 0.284104851	-0.9211437338	-2.320536964	-0.246208
H	 1.2308866001	 1.7148518024	-0.0777480774	 0.141123
H	-0.1313173313	 1.7867497882	-1.2138505297	 0.150829
H	-0.4078925137	 2.0768976467	 0.51681149	 0.145138
H	-0.4175321385	-0.0115416789	 2.1969994265	 0.117467
H	-1.8706313736	-0.5351156285	-1.2355884614	 0.120857
H	 1.8367613172	-0.6210352159	-0.9012806675	 0.115075
H	 1.1292061215	-2.8293038712	-1.8523881792	 0.133023
H	-0.5881926612	-2.5611896129	-1.2581489763	 0.119727
42.1297	69.8439	101.934	183.6147	212.5673	231.2035	252.4286	281.2653	308.0567	395.1162	464.4917	577.6057	626.4442	724.7252	871.6682	895.6732	917.2503	947.7658	987.4382	1004.5177	1027.6592	1096.8462	1128.2823	1160.5016	1171.7006	1210.736	1243.7604	1301.4186	1388.5892	1405.599	1416.366	1437.7431	1493.2595	1497.1262	1533.5636	1808.3555	1829.2454	2939.5919	2946.7833	3040.1064	3089.1295	3118.2307	3125.2006	3127.587	3179.1722
CC(C=O)(C=O)C1CO1	CC(C=O)(C=O)[C@H]1CO1	
InChI=1S/C6H8O3/c1-6(3-7,4-8)5-2-9-5/h3-5H,2H2,1H3	InChI=1S/C6H8O3/c1-6(3-7,4-8)5-2-9-5/h3-5H,2H2,1H3/t5-/m1/s1
