15
gdb 133122	2.5398	1.64223	1.00364	1.1555	72.34	-0.229	-0.0197	0.2093	1111.1039	0.113247	-461.965711	-461.958116	-461.957172	-461.998026	28.153	
C	 0.014262603	 1.3916286177	 0.0073606575	-0.232367
O	-0.012567675	-0.0358785412	 0.0027911856	-0.255563
C	-1.2235997477	-0.6166127031	 0.0105296355	 0.335575
N	-2.3266363287	 0.1085065882	 0.0218540434	-0.359323
C	-3.5107360143	-0.5245613017	 0.0292482842	-0.013201
C	-3.637832922	-1.9018065195	 0.0256381145	-0.131046
C	-2.4691057875	-2.673504434	 0.0136568667	-0.197752
C	-1.2567133833	-2.0258587834	 0.0060873324	 0.172605
F	-0.1116325489	-2.7075962424	-0.0053737264	-0.061205
H	 1.0711089463	 1.6602350483	-0.0004794246	 0.131444
H	-0.4892195544	 1.7970386581	-0.8747631111	 0.136066
H	-0.4745063666	 1.7910715657	 0.9004214556	 0.136051
H	-4.3884848325	 0.1154783254	 0.0384672928	 0.11142
H	-4.6144144585	-2.3702546714	 0.0319142373	 0.105295
H	-2.4922494299	-3.7573540667	 0.0102144367	 0.121999
112.07	154.2914	195.4747	212.0514	325.3763	333.8026	482.8195	520.5163	548.9887	590.0342	609.7964	778.0339	784.4644	817.2886	873.9071	948.2012	969.7612	1048.803	1079.6318	1127.1572	1178.3645	1204.0984	1236.0391	1296.8238	1315.0163	1360.3065	1454.3498	1479.4248	1488.3581	1498.4107	1528.6825	1621.1508	1646.9167	3043.8149	3114.8535	3151.4804	3167.0348	3198.4158	3213.4806
COC1=NC=CC=C1F	COc1ncccc1F	
InChI=1S/C6H6FNO/c1-9-6-5(7)3-2-4-8-6/h2-4H,1H3	InChI=1S/C6H6FNO/c1-9-6-5(7)3-2-4-8-6/h2-4H,1H3
