19
gdb 105415	2.53235	1.22861	0.98247	1.2683	71.59	-0.2509	-0.0288	0.2221	1241.2512	0.156344	-460.131384	-460.121741	-460.120797	-460.166768	33.725	
C	-1.3516284157	 0.4297222871	-0.3026350493	-0.270596
O	 0.0320448555	 0.207580252	-0.0788899548	-0.283042
C	 0.6565722034	-0.68449725	-0.9676004119	 0.345519
C	 0.6020982009	-0.2091951936	-2.4289525003	-0.354655
C	 1.0652358697	 1.2254311655	-2.5620352531	 0.170438
O	 0.3884503378	 2.1173264229	-3.0052720771	-0.242441
C	 2.0599002457	-1.0841406014	-0.4614221632	-0.122823
O	 1.7448087353	-2.4848043747	-0.5882974579	-0.271976
C	 0.3469428812	-2.1971313693	-0.7909603949	-0.123701
H	-1.5345008619	 1.0038495591	-1.2191373359	 0.135949
H	-1.912100621	-0.5148846886	-0.3520874969	 0.110556
H	-1.7144215646	 1.0062814216	 0.5506965685	 0.136983
H	 1.2611770519	-0.8566875719	-3.0215926036	 0.13478
H	-0.4079914552	-0.2885984303	-2.8404535648	 0.123688
H	 2.1031977594	 1.4188344227	-2.2081785646	 0.083006
H	 2.9269401512	-0.8005480195	-1.0677836492	 0.103622
H	 2.2184250103	-0.7815096636	 0.5806076577	 0.115033
H	-0.2540371764	-2.4044869974	 0.1043602168	 0.104533
H	-0.0642305174	-2.7392871005	-1.6495296457	 0.105128
56.9577	89.2526	96.7223	131.2364	176.6708	203.1829	269.0589	333.3252	350.6134	429.8882	499.719	510.391	683.8293	789.9486	859.6886	908.4967	952.2811	954.9137	1007.662	1019.8004	1031.8653	1087.9736	1123.6809	1156.3337	1163.5681	1171.7518	1186.1682	1214.6896	1263.3416	1280.8742	1301.5669	1311.3184	1382.843	1430.5142	1461.7133	1483.1492	1497.5987	1499.6779	1511.5695	1525.8948	1831.3905	2876.3912	2997.1076	3009.4414	3026.2042	3036.3199	3064.2423	3070.4765	3077.7161	3101.8335	3126.3799
COC1(CC=O)COC1	COC1(CC=O)COC1	
InChI=1S/C6H10O3/c1-8-6(2-3-7)4-9-5-6/h3H,2,4-5H2,1H3	InChI=1S/C6H10O3/c1-8-6(2-3-7)4-9-5-6/h3H,2,4-5H2,1H3
