17
gdb 65755	2.62794	1.24242	1.10786	2.6849	71.81	-0.2636	0.0029	0.2664	1167.8515	0.134756	-455.136083	-455.127149	-455.126205	-455.170072	32.208	
C	-0.0222251069	 1.6469952429	 0.0043415488	-0.444036
C	-0.0274357974	 0.1265749344	-0.0006914287	 0.238884
C	 0.7689591467	-0.576684452	-1.121246752	-0.121616
O	 1.7101277135	-1.1051500513	-0.1306588558	-0.251776
C	 1.003568728	-0.5508135061	 0.907910029	 0.409222
N	 1.1725662258	-0.5986519817	 2.1487647169	-0.547375
O	-1.3478479965	-0.3964644296	 0.0665550798	-0.235517
C	-1.9818889092	-0.3461382223	 1.2683898984	 0.098478
N	-3.2051869819	-0.6473115427	 1.3206088202	-0.438478
H	 0.9916077077	 2.0334284764	-0.1323864554	 0.133629
H	-0.6595825705	 2.0213298678	-0.8019824687	 0.1411
H	-0.4030063443	 2.0260169426	 0.9566924315	 0.143525
H	 0.2231623494	-1.3800265496	-1.6174772741	 0.143907
H	 1.2782922998	 0.0677670245	-1.8400961996	 0.125843
H	 1.9793426398	-1.1705520096	 2.4051600442	 0.236453
H	-1.3293229041	-0.0676643742	 2.101096679	 0.135823
H	-3.5297026099	-0.5928916694	 2.2843053266	 0.231933
74.7503	112.4956	152.2114	159.0297	227.8101	238.5995	313.7039	342.0157	406.481	501.3698	553.7552	689.4791	761.2357	765.093	830.1734	869.8569	921.9571	926.603	961.8374	977.4941	1023.8488	1056.7944	1093.0094	1152.952	1172.333	1220.009	1244.7712	1247.6393	1291.2487	1373.7348	1410.4234	1430.8281	1484.0638	1488.5421	1507.6436	1740.7607	1823.2408	3045.0979	3079.0824	3090.1346	3124.2848	3125.7611	3149.861	3475.2886	3513.5493
CC1(COC1=N)OC=N	C[C@]1(CO[C]1[NH])O[CH][NH]	
InChI=1S/C5H8N2O2/c1-5(9-3-6)2-8-4(5)7/h3,6-7H,2H2,1H3	InChI=1S/C5H8N2O2/c1-5(9-3-6)2-8-4(5)7/h3,6-7H,2H2,1H3/t5-/m1/s1
