21
gdb 102319	2.38314	0.90361	0.76943	3.2954	75.49	-0.2436	-0.0213	0.2223	1567.4436	0.179003	-461.366971	-461.356011	-461.355067	-461.403659	38.826	
C	 0.2093812793	 1.4245187611	 0.0729248777	-0.408591
C	 0.0847567378	-0.0948133253	 0.155401075	 0.1286
O	 0.4718172449	-0.5771458111	 1.4447932392	-0.430907
C	-1.3253975675	-0.5825179367	-0.2145220335	-0.217921
C	-1.4560113462	-2.1090730725	-0.1882022172	-0.10922
C	-2.9149196297	-2.5869475028	-0.0127109363	-0.094535
O	-3.0283552818	-3.9921113541	 0.1319333431	-0.412565
C	-0.8499285884	-2.76715853	-1.4148729882	 0.160508
O	-0.2506753401	-2.1810915934	-2.2836336444	-0.255818
H	 1.2156071125	 1.7395113876	 0.3620826739	 0.125456
H	 0.011620296	 1.781638085	-0.9424761505	 0.124962
H	-0.5095271436	 1.9131325293	 0.7439608301	 0.102224
H	 0.79968922	-0.5521886744	-0.5349557816	 0.114659
H	-0.0446946004	-0.0958567235	 2.1012891059	 0.274209
H	-2.0432760126	-0.140966245	 0.4919960529	 0.076267
H	-1.5835371759	-0.2083819482	-1.2109833408	 0.114766
H	-0.8905563357	-2.4882076023	 0.6784140415	 0.105337
H	-3.3622075825	-2.0550253158	 0.8405111559	 0.096242
H	-3.5078786335	-2.3305063168	-0.8977468497	 0.122797
H	-2.6086519936	-4.2397860709	 0.9623509355	 0.285655
H	-1.012516539	-3.86360344	-1.4706209886	 0.097876
56.8911	75.4069	100.5793	112.5687	157.9822	213.4065	249.4095	294.8172	306.6182	323.7683	336.386	378.774	443.5382	472.1636	512.0054	653.218	822.8975	847.3486	883.7961	904.7584	941.3299	1017.8675	1034.4966	1064.6515	1077.9707	1107.3708	1139.9448	1159.479	1187.9358	1210.3382	1267.4668	1323.4359	1333.4286	1359.8159	1387.2947	1396.5108	1403.1883	1412.4832	1420.1175	1428.6111	1464.9638	1492.6102	1496.7996	1509.8264	1816.5849	2922.7818	2986.5716	2990.4649	3004.2514	3020.8214	3069.5092	3073.8756	3079.3474	3099.9028	3120.6508	3791.1287	3812.9887
CC(O)CC(CO)C=O	C[C@@H](O)C[C@@H](CO)C=O	
InChI=1S/C6H12O3/c1-5(9)2-6(3-7)4-8/h3,5-6,8-9H,2,4H2,1H3	InChI=1S/C6H12O3/c1-5(9)2-6(3-7)4-8/h3,5-6,8-9H,2,4H2,1H3/t5-,6-/m1/s1
