16
gdb 49889	2.36268	1.68393	1.31475	4.3014	72.23	-0.2504	-0.0435	0.2069	1008.4339	0.124117	-437.904493	-437.896544	-437.895599	-437.93756	29.336	
N	-0.126571914	 1.0406506734	-0.9452647223	-0.516189
C	 0.0295286646	 0.0858106778	-0.1326680583	 0.413975
C	-1.1500794724	-0.5111937886	 0.6059690221	-0.34782
C	-0.9586373439	-1.9703336601	 0.9141051269	-0.060487
C	 0.2631480722	-2.4472665252	 1.1337265504	-0.097729
C	 1.4297994229	-1.4895301993	 1.056845606	-0.034434
O	 1.2602436113	-0.4701404236	 0.0844823413	-0.242078
C	 1.6238358953	-0.8888087559	 2.4528897687	 0.155418
O	 1.3161763157	 0.2349409887	 2.7448562938	-0.233476
H	 0.7735499369	 1.3218586497	-1.3387150044	 0.221202
H	-1.2765375055	 0.0479254886	 1.5442879556	 0.161919
H	-2.0438442498	-0.3231542586	 0.0095335007	 0.146217
H	-1.8321770748	-2.6133175755	 0.9525692579	 0.114889
H	 0.4607184302	-3.4840307994	 1.3801564152	 0.112661
H	 2.3490703589	-2.0172960537	 0.7770447037	 0.117488
H	 2.0377186222	-1.6036893485	 3.1987422528	 0.088444
74.0194	87.5092	133.738	260.2695	283.0779	426.0286	443.7673	481.4954	532.9307	578.2764	692.1541	717.1488	789.1909	851.4796	888.5069	905.1155	952.537	958.6491	986.8927	997.6322	1037.0368	1081.4814	1140.3422	1203.6607	1207.0174	1264.6383	1298.2502	1329.7109	1386.2236	1390.0498	1417.3292	1457.4838	1711.1116	1757.6028	1836.2362	2884.3321	3016.8455	3048.4652	3121.6654	3178.2636	3203.7714	3469.1836
N=C1CC=CC(O1)C=O	[NH][C]1CC=C[C@@H](O1)C=O	
InChI=1S/C6H7NO2/c7-6-3-1-2-5(4-8)9-6/h1-2,4-5,7H,3H2	InChI=1S/C6H7NO2/c7-6-3-1-2-5(4-8)9-6/h1-2,4-5,7H,3H2/t5-/m1/s1
