18
gdb 54611	2.44851	1.45107	0.9366	14.4858	78.07	-0.1736	-0.0219	0.1517	1219.9765	0.148859	-439.069339	-439.060508	-439.059564	-439.10341	31.975	
C	 0.0063007424	 1.5336886164	 0.1462500911	-0.511129
C	 0.0510629716	 0.0438080985	 0.038063935	 0.175308
C	 0.0488966166	-0.685471267	-1.084298583	 0.150877
C	 0.0554186577	-2.1560842846	-0.8038007719	-0.29291
N	 0.4205599613	-2.1989376073	 0.6995346864	-0.272519
H	-0.032922194	-2.9641779178	 1.1981257216	 0.301857
H	 1.4272741527	-2.333549176	 0.7803105535	 0.313655
C	 0.057494931	-0.8327057885	 1.2675099391	-0.292615
C	-0.0169367818	-0.301033248	-2.5812035211	 0.297018
O	 0.019982862	 0.9068323511	-2.8524597085	-0.456226
O	-0.1057965308	-1.3279591649	-3.2903650574	-0.479932
H	 0.8607895541	 1.9213476439	 0.7164295873	 0.108137
H	 0.019279622	 1.9351863186	-0.8702957262	 0.204703
H	-0.9017919306	 1.8705595461	 0.6636513506	 0.115129
H	-0.9209462221	-2.6336624963	-0.9236860968	 0.164445
H	 0.7920664171	-2.7185520031	-1.3755778877	 0.176158
H	 0.7908900181	-0.5637166205	 2.0349991699	 0.146177
H	-0.9222305472	-0.9245371804	 1.754448388	 0.151866
57.1855	111.4948	152.3795	197.4156	208.7858	250.0301	296.0096	382.8211	459.1914	500.3592	596.5616	681.3229	771.4113	780.3505	787.9874	860.0168	893.1043	930.6465	963.7382	1002.912	1074.3185	1087.6742	1126.5441	1134.0307	1202.5522	1235.7611	1258.4985	1307.0528	1332.5759	1346.9443	1365.5044	1398.9148	1470.4841	1479.7429	1502.3042	1506.0952	1632.3865	1713.5158	1762.9382	3005.1895	3023.6376	3055.319	3075.4314	3081.7633	3124.0325	3159.6202	3462.204	3532.9841
CC1=C(C[NH2+]C1)C([O-])=O	CC1=C(C[NH2]C1)C(=O)[O]	
InChI=1S/C6H9NO2/c1-4-2-7-3-5(4)6(8)9/h7H,2-3H2,1H3,(H,8,9)	InChI=1S/C6H9NO2/c1-4-2-7-3-5(4)6(8)9/h2-3,7H2,1H3
