20
gdb 58827	3.28513	1.26429	1.096	1.4097	78.16	-0.2062	0.0708	0.277	1169.381	0.170223	-403.056986	-403.048401	-403.047457	-403.09002	33.923	
C	 0.0360879208	 1.534497641	 0.1533355423	-0.405511
C	-0.0181532274	 0.0151849117	-0.0278239672	 0.006835
O	 0.7804622629	-0.6534668753	 0.9433332311	-0.425858
C	-1.4375616188	-0.5029867971	-0.0364688678	 0.372874
C	-2.2011677031	-0.9538933822	 1.1811733649	-0.355576
C	-1.9386512947	-1.9343977228	 0.0619924533	-0.125481
C	-2.8541333635	-1.6830862394	-1.1702616135	-0.050673
N	-3.7882800557	-0.5683187163	-0.8617569636	-0.340646
C	-2.3852450052	-0.2890006618	-1.2639599284	-0.132852
H	 1.0720091546	 1.8844189712	 0.1314374854	 0.120325
H	-0.5216526213	 2.0484198864	-0.636186604	 0.118953
H	-0.4120877888	 1.8216608343	 1.11234069	 0.112821
H	 0.4496451819	-0.2418708903	-0.9883147506	 0.084647
H	 0.5397345151	-0.300774868	 1.8068652444	 0.279702
H	-1.5859599527	-1.1337427383	 2.0572679798	 0.095051
H	-3.2021047145	-0.5926108945	 1.3783348055	 0.138978
H	-1.3501875148	-2.8315358172	 0.2006105502	 0.09708
H	-3.0772722801	-2.4006294819	-1.9489364091	 0.093202
H	-4.3652900994	-0.4288049992	-1.6910917585	 0.228274
H	-2.1587131553	 0.3218968897	-2.1289688542	 0.087855
68.6767	141.6899	191.0397	250.0213	299.2261	307.8915	343.7685	428.3959	461.9649	485.5578	579.2771	671.538	734.5322	793.5949	805.1997	847.1549	848.5565	896.9625	913.5588	928.4109	954.7814	975.5994	999.3665	1044.6452	1059.1453	1074.54	1098.2451	1102.7617	1124.6772	1126.3483	1183.4253	1226.5837	1277.9238	1296.5102	1309.8489	1353.2065	1361.3026	1391.6695	1400.6504	1420.2882	1469.1588	1489.4901	1493.9333	3011.5063	3027.5179	3096.1379	3115.7772	3139.0787	3184.2051	3197.7458	3206.5105	3233.6362	3471.0856	3804.7499
CC(O)C12CC1C1NC21	C[C@@H](O)[C@]12C[C@H]1[C@H]1N[C@@H]21	
InChI=1S/C7H11NO/c1-3(9)7-2-4(7)5-6(7)8-5/h3-6,8-9H,2H2,1H3	InChI=1S/C7H11NO/c1-3(9)7-2-4(7)5-6(7)8-5/h3-6,8-9H,2H2,1H3/t3-,4+,5-,6-,7-/m1/s1
