21
gdb 92357	2.12753	1.89484	1.52086	1.7117	76.57	-0.2483	0.0703	0.3185	1011.1516	0.18427	-424.249473	-424.241277	-424.240333	-424.281701	33.079	
C	-0.0255092	 1.4556087272	 0.0177647617	-0.492023
C	 0.0543471589	-0.052896404	-0.0139017532	 0.393138
C	 0.6384387026	-0.6838054846	-1.3035231759	-0.255227
C	-0.0441371519	-2.0812290062	-1.3087928858	-0.219939
C	-0.8428333726	-2.0213169296	 0.0101626554	 0.078309
C	 0.1170102711	-2.1282793152	 1.2146074643	-0.264568
C	 0.7470537565	-0.7019075351	 1.2170544219	 0.091882
O	 2.1567158066	-0.6568465795	 1.0680409612	-0.437331
O	-1.254010056	-0.6461726145	 0.0674406581	-0.297468
H	 0.9832062085	 1.8793482928	 0.0191972256	 0.130334
H	-0.5623996757	 1.8369317243	-0.8554460557	 0.120151
H	-0.5449679734	 1.7965329234	 0.9186053735	 0.119334
H	 0.3472221516	-0.0902028174	-2.1734384127	 0.09425
H	 1.7267598389	-0.7360471565	-1.2690704847	 0.123475
H	-0.7210912239	-2.1924421597	-2.1593324131	 0.10073
H	 0.667102394	-2.9109351676	-1.3322052268	 0.096656
H	-1.7207623003	-2.6663827161	 0.054437082	 0.070956
H	-0.4324586238	-2.3280652839	 2.1378651288	 0.098027
H	 0.8828952743	-2.8988763975	 1.089469922	 0.095856
H	 0.4450116278	-0.1505468879	 2.1174770387	 0.066672
H	 2.5562071969	-0.9867515926	 1.8778960048	 0.286787
98.6503	202.6028	236.0263	257.0989	284.8984	317.8182	369.0353	424.715	521.0647	538.5064	588.9364	610.0721	749.1116	811.0622	828.9534	859.8063	870.1932	896.763	939.2096	957.5542	975.3092	1011.5416	1025.1665	1056.0317	1090.4493	1121.6052	1140.1491	1185.1349	1198.0421	1211.2035	1238.8216	1258.8055	1275.458	1315.6212	1322.935	1335.3768	1340.2954	1364.4015	1411.0336	1425.2403	1477.861	1483.483	1488.2727	1495.5647	1507.3087	3004.2842	3040.6757	3057.4512	3061.2301	3073.9009	3103.9188	3107.3889	3112.7598	3117.1118	3118.6716	3138.499	3832.0736
CC12CCC(CC1O)O2	C[C@@]12CC[C@@H](C[C@H]1O)O2	
InChI=1S/C7H12O2/c1-7-3-2-5(9-7)4-6(7)8/h5-6,8H,2-4H2,1H3	InChI=1S/C7H12O2/c1-7-3-2-5(9-7)4-6(7)8/h5-6,8H,2-4H2,1H3/t5-,6+,7+/m0/s1
