18
gdb 48851	3.06096	1.36099	1.10567	2.2456	72.48	-0.2493	-0.0271	0.2222	1107.57	0.149242	-439.07644	-439.068703	-439.067759	-439.108774	29.713	
O	-0.4548752589	 0.5957313339	 0.7044906171	-0.268713
C	 0.2326853071	 0.9497934391	-0.2205175836	 0.134131
C	 1.3911347032	 1.8857356194	-0.1082402585	 0.207897
C	 1.9132451421	 2.1855425288	 1.2885795596	-0.321482
C	 2.2848818461	 3.659541913	 1.4609625415	-0.084845
O	 2.9810370855	 4.1581006421	 0.3233703639	-0.245664
C	 2.1202686411	 4.2701923786	-0.7901066776	-0.12027
C	 1.5096527227	 2.9374312066	-1.1824255883	-0.060242
N	 2.3378801089	 1.7463940997	-1.2485360094	-0.363241
H	 0.0488946594	 0.6050081699	-1.2615989704	 0.08844
H	 1.1409593784	 1.9000024263	 2.0093766605	 0.137239
H	 2.7854596616	 1.5515577657	 1.4881720042	 0.114686
H	 1.3796798099	 4.264493392	 1.6282873002	 0.098691
H	 2.9493361935	 3.8015591912	 2.3168676422	 0.115858
H	 1.3118280289	 4.9925209303	-0.587176963	 0.102512
H	 2.7262599111	 4.663692294	-1.613640035	 0.122613
H	 0.7410326915	 2.9996497753	-1.9516251079	 0.100204
H	 3.2717426278	 1.9717873042	-0.9063776355	 0.242184
98.4102	134.8669	234.9668	249.67	322.9753	373.1597	406.4168	445.6744	530.1816	573.3274	710.0469	747.8845	782.7631	848.9626	858.7924	945.0451	975.9473	999.8551	1032.0916	1041.0255	1073.3144	1116.1191	1137.807	1151.1559	1185.6099	1223.2407	1270.6291	1312.4352	1324.4293	1338.0132	1366.1283	1392.3918	1403.5547	1422.3559	1438.4582	1484.6597	1488.7864	1505.356	1819.5755	2901.4596	2969.2217	2983.6217	3035.332	3067.7559	3092.5442	3099.659	3119.2057	3474.8272
O=CC12CCOCC1N2	O=C[C@]12CCOC[C@H]1N2	
InChI=1S/C6H9NO2/c8-4-6-1-2-9-3-5(6)7-6/h4-5,7H,1-3H2	InChI=1S/C6H9NO2/c8-4-6-1-2-9-3-5(6)7-6/h4-5,7H,1-3H2/t5-,6-/m1/s1
