14
gdb 18340	3.51988	2.32207	1.61762	5.1621	56.5	-0.2537	-0.0098	0.244	769.777	0.109015	-419.689197	-419.682891	-419.681946	-419.720172	23.052	
O	 0.0086461765	 0.0350026624	 0.0708379184	-0.326319
C	 0.0250352969	 1.2278739246	 0.1229114056	 0.431848
O	-1.0664137751	 1.9653326759	 0.476466857	-0.221981
C	-0.8568726126	 3.3755739225	 0.2918431394	-0.09719
C	 0.6483513217	 3.5834474588	 0.0909513728	-0.108961
C	 1.536877008	 3.5802217122	 1.353765715	-0.080987
O	 2.0365557339	 2.254160432	 1.0566234556	-0.27938
C	 1.2097568833	 2.1690824516	-0.1232139136	-0.01364
H	-1.4320276508	 3.6945086939	-0.5840220938	 0.124414
H	-1.2492870116	 3.8917690964	 1.1725659992	 0.127903
H	 0.8781097823	 4.3500145719	-0.6471571238	 0.10156
H	 2.3456144758	 4.3186665907	 1.362990291	 0.116534
H	 1.0020034271	 3.6159727524	 2.3108056819	 0.115234
H	 1.7734802746	 1.8985793947	-1.0188631847	 0.110965
83.997	138.3872	249.1286	350.9613	461.6863	614.8962	696.3938	733.9506	794.741	851.0899	887.9621	909.3446	950.8541	993.5786	1022.4613	1030.7182	1095.9223	1130.2256	1162.5901	1179.9524	1211.2385	1249.0739	1263.3899	1305.1969	1332.4238	1354.5292	1408.0821	1516.6873	1525.4228	1888.9445	3023.5988	3045.2367	3073.7808	3091.5515	3094.6114	3129.2258
O=C1OCC2COC12	O=C1OC[C@H]2CO[C@@H]12	
InChI=1S/C5H6O3/c6-5-4-3(1-7-4)2-8-5/h3-4H,1-2H2	InChI=1S/C5H6O3/c6-5-4-3(1-7-4)2-8-5/h3-4H,1-2H2/t3-,4-/m1/s1
