17
gdb 37605	2.6519	1.53862	1.081	2.5599	84.53	-0.2217	-0.0381	0.1836	1116.7353	0.13515	-384.673231	-384.66531	-384.664366	-384.706041	30.149	
C	 0.0191884298	 1.6566206044	-0.2604287277	-0.35942
C	 1.4282887097	 1.0619441953	 0.0663906724	-0.062541
C	 0.7559191699	-0.1747081004	 0.7872853943	-0.280214
C	 1.3464637244	-1.0087602085	-0.3509629907	 0.347173
C	 1.2097200618	-2.4110058086	-0.6671259377	-0.095776
C	 0.4665212764	-3.2688637722	 0.0387665738	-0.329374
O	-1.7433998632	 0.0697747073	 0.6072710968	-0.296443
C	-0.6167803842	 0.4161339632	 0.4040793263	 0.412152
C	 1.9266548898	 0.0542656924	-0.9470513413	-0.226037
H	-0.2245643468	 2.5509986367	 0.3237590726	 0.13255
H	-0.2194920455	 1.8474452921	-1.308342453	 0.128835
H	 2.1373857712	 1.7080744369	 0.5824388891	 0.087478
H	 0.9277522301	-0.4687170534	 1.8237906684	 0.096636
H	 1.7554906409	-2.7575837331	-1.5429692942	 0.094144
H	 0.3855149145	-4.3137579624	-0.2375426235	 0.121291
H	-0.0982573265	-2.9464731986	 0.9078329841	 0.124982
H	 2.4649551777	 0.170702939	-1.8814337098	 0.104563
82.261	96.3095	177.8702	201.5176	369.9995	387.8132	442.4979	504.1249	535.2202	615.9099	684.0106	730.4786	808.4949	838.7483	857.5155	881.0426	939.4725	950.4435	980.6523	997.8119	1018.4593	1032.9051	1041.028	1097.6972	1120.1516	1156.1936	1189.7075	1206.8228	1227.5487	1281.7734	1301.9159	1321.4569	1436.4232	1448.0131	1634.8491	1706.5495	1884.8072	3054.1925	3107.3827	3118.662	3122.9313	3144.9545	3156.3059	3189.6312	3241.4111
C1C2C3C4=CCOC13C24	C1[C@H]2[C@H](C(=C2)C=C)C1=O	
InChI=1S/C8H8O/c1-2-9-8-3-5-6(8)4(1)7(5)8/h1,5-7H,2-3H2	InChI=1S/C8H8O/c1-2-5-3-6-4-7(9)8(5)6/h2-3,6,8H,1,4H2/t6-,8-/m0/s1
