16
gdb 19413	3.22512	2.15639	1.65995	1.8872	64.23	-0.2491	0.0795	0.3286	814.9198	0.130202	-383.676922	-383.669976	-383.669032	-383.707878	27.195	
O	 0.1531999813	 1.3784300443	-0.0709808806	-0.431534
C	 0.0314279615	-0.0146383462	-0.0428400939	 0.031256
C	 0.304256975	-0.7108886218	 1.3099280229	-0.009404
O	-0.668473194	-0.1760268826	 2.2212358722	-0.261178
C	-1.0629620547	-1.2565890609	 1.3480455043	-0.07975
C	-1.4024270506	-0.6297084778	 0.0161550344	 0.334646
C	-2.6800096624	 0.0084819801	-0.4289997484	-0.319876
C	-2.1621399791	-1.229601039	-1.1273902267	-0.342993
H	-0.2932044967	 1.6963405587	 0.7249999797	 0.290231
H	 0.6290213785	-0.4140903925	-0.8668482578	 0.094879
H	 1.2337485397	-1.0770088441	 1.7303011648	 0.106814
H	-1.4435606121	-2.1569427957	 1.8154087572	 0.109584
H	-3.5565003452	-0.0839271643	 0.2036857803	 0.117358
H	-2.592603274	 0.9583704164	-0.9467365433	 0.126504
H	-1.7470959429	-1.1243065747	-2.1248506562	 0.118713
H	-2.6861607544	-2.1656062798	-0.9604759291	 0.11475
120.8376	197.4567	231.2508	257.9686	405.4568	481.0137	500.4069	597.7885	663.195	768.0652	781.3381	846.7437	861.4584	878.3933	890.3282	944.6751	977.165	995.2182	999.3056	1050.4393	1057.1308	1079.1433	1120.4587	1187.5626	1198.6099	1210.4821	1223.413	1266.6921	1284.231	1362.7411	1403.0824	1435.5058	1464.8252	1505.2226	3082.5087	3122.8757	3129.3808	3182.0666	3198.0247	3202.0886	3218.625	3768.8627
OC1C2OC2C11CC1	O[C@H]1[C@H]2O[C@H]2C21CC2	
InChI=1S/C6H8O2/c7-4-3-5(8-3)6(4)1-2-6/h3-5,7H,1-2H2	InChI=1S/C6H8O2/c7-4-3-5(8-3)6(4)1-2-6/h3-5,7H,1-2H2/t3-,4+,5-/m1/s1
