16
gdb 61688	2.24647	1.18187	0.96433	3.2503	75.65	-0.2664	-0.0445	0.2219	1255.6283	0.120045	-400.730167	-400.72021	-400.719266	-400.76551	34.872	
C	-0.1009080952	 1.5930867876	-0.0927633726	-0.40453
C	-0.0248443661	 0.0436231127	-0.0334799215	-0.147537
C	 0.7517914893	-0.4200126967	 1.2411553867	-0.289261
C	 2.1840217712	 0.0808180823	 1.3025424139	 0.141644
O	 2.6598699131	 0.6171715713	 2.2686072482	-0.235141
C	-1.3759476758	-0.5266242757	-0.0038611147	 0.336334
C	-2.488041757	-0.9743398521	 0.0552858129	-0.423817
C	 0.6749403856	-0.4518307259	-1.238666991	 0.296922
N	 1.2441952716	-0.8250158451	-2.1721997491	-0.337778
H	 0.9025501493	 2.0247880213	-0.1311701192	 0.146427
H	-0.6567042753	 1.914259908	-0.975136081	 0.152616
H	-0.6112639693	 1.9605012511	 0.8004296201	 0.145668
H	 0.2171024278	-0.07779112	 2.1297485393	 0.142919
H	 0.7762707592	-1.516494662	 1.2530866412	 0.151479
H	 2.7863296085	-0.1017937208	 0.386050693	 0.111083
H	-3.4706293769	-1.3771408759	 0.0939448837	 0.212973
58.898	82.4528	126.3798	140.4942	179.0604	222.7355	240.7132	293.1028	362.4347	441.0632	475.027	508.3062	580.1005	593.4589	656.2309	669.8959	688.5457	810.5955	920.6752	947.6297	982.6183	1052.9014	1120.3613	1163.1717	1185.276	1260.5816	1311.0883	1411.4143	1427.8832	1455.4415	1483.3854	1495.3024	1833.4533	2245.218	2357.7283	2902.9617	3045.7199	3055.1321	3123.5858	3135.6237	3148.5729	3498.5598
CC(CC=O)(C#C)C#N	C[C@@](CC=O)(C#C)C#N	
InChI=1S/C7H7NO/c1-3-7(2,6-8)4-5-9/h1,5H,4H2,2H3	InChI=1S/C7H7NO/c1-3-7(2,6-8)4-5-9/h1,5H,4H2,2H3/t7-/m0/s1
