18
gdb 47862	2.42913	1.63484	1.02053	5.3926	75.51	-0.2304	-0.032	0.1984	1143.8799	0.151888	-435.304767	-435.296732	-435.295788	-435.337911	30.478	
N	-0.1282578286	 1.1072944708	-0.8757128472	-0.480345
C	-0.0565084076	 0.0568209084	-0.1549904658	 0.238972
N	-1.2173076878	-0.6634232114	 0.087087069	-0.327125
C	-1.6085027557	-1.271509679	 1.3524364162	-0.167984
C	-0.711286791	-2.4298727019	 1.7724999035	-0.181047
C	 0.6751937144	-1.9786013511	 2.2142347673	-0.163023
N	 1.5232644407	-1.4759977939	 1.1385822544	-0.325987
C	 1.3385855844	-0.4541127285	 0.2500481982	 0.35485
O	 2.3036339006	 0.0568966764	-0.2945199251	-0.362076
H	 0.8248050163	 1.4148668489	-1.0807017465	 0.24097
H	-1.9810013854	-0.1696587495	-0.3589416206	 0.244877
H	-1.6564559645	-0.5343307251	 2.1723497747	 0.101423
H	-2.6265889582	-1.6442852467	 1.2072557048	 0.115323
H	-1.1819262172	-2.938331349	 2.6215545458	 0.107348
H	-0.6272917589	-3.1510071755	 0.9527457607	 0.119896
H	 0.5753957812	-1.232717153	 3.018239249	 0.113787
H	 1.2113928535	-2.8298451723	 2.6429469092	 0.119745
H	 2.513457754	-1.6379274477	 1.2653180425	 0.250397
53.0268	105.252	184.4967	309.1689	343.8594	346.261	432.7438	437.3995	543.5803	569.1334	603.8404	658.4542	712.3986	761.1931	813.6442	844.1322	903.1778	945.3328	965.676	991.296	1098.4357	1124.8649	1141.2653	1214.0114	1233.8415	1272.0389	1317.3097	1331.3541	1390.4559	1394.9653	1411.5213	1463.1963	1467.2343	1482.1873	1486.8506	1506.2922	1516.6077	1689.7899	1755.3414	2954.9742	2983.4633	3041.672	3079.5077	3083.9369	3093.5934	3464.4364	3560.8652	3587.1837
N=C1NCCCNC1=O	[NH][C]1NCCCNC1=O	
InChI=1S/C5H9N3O/c6-4-5(9)8-3-1-2-7-4/h1-3H2,(H2,6,7)(H,8,9)	InChI=1S/C5H9N3O/c6-4-5(9)8-3-1-2-7-4/h1-3H2,(H2,6,7)(H,8,9)
