17
gdb 128324	3.25573	1.22306	0.90009	1.8386	73.09	-0.1863	0.048	0.2343	1261.8505	0.136999	-451.325742	-451.316178	-451.315234	-451.359806	34.577	
C	-0.0805810233	 1.4126085075	 0.0764253808	-0.310016
N	-0.0207980903	-0.0207393402	-0.1680808629	-0.389075
C	-1.2059608846	-0.7367110183	-0.093178331	 0.351976
N	-2.4008608793	-0.1612678185	-0.0732097044	-0.335872
N	-3.27954609	-1.2191526717	-0.0182044531	-0.282859
C	-2.6569707829	-2.4230503726	-0.0329278607	 0.330444
N	-3.3417332009	-3.6398628197	-0.0620768762	-0.613123
C	-1.3053146806	-2.1545294869	-0.0697625907	 0.039543
O	-0.2865809702	-3.0809985201	 0.0114170083	-0.461371
H	 0.9242198658	 1.8308277668	-0.0229239166	 0.110479
H	-0.7280075321	 1.878345606	-0.670540784	 0.144907
H	-0.4830904619	 1.6704053702	 1.0671203983	 0.114387
H	 0.7277092463	-0.4881210737	 0.3255262647	 0.234251
H	-4.2539866402	-1.0448497066	-0.1871299711	 0.263725
H	-4.0089628522	-3.7354765203	 0.6959759371	 0.249272
H	-2.6784174682	-4.4045702596	-0.0085666981	 0.255916
H	 0.1630042746	-3.1171400222	-0.8407478606	 0.297417
86.223	148.7718	178.6638	185.9043	212.0405	233.616	261.2905	303.8298	322.3624	343.0768	433.0697	548.019	577.7185	649.1896	685.1436	736.3458	772.2706	802.1214	824.0273	1021.1293	1095.2762	1107.0865	1153.6342	1168.1414	1196.4301	1232.0666	1293.6103	1362.8366	1406.1074	1452.0567	1479.6065	1497.4531	1517.6505	1568.1404	1592.9157	1640.858	1687.3572	2996.2413	3085.5013	3127.3349	3511.7808	3575.2057	3600.413	3689.7607	3773.1229
CNC1=NNC(N)=C1O	CNc1n[nH]c(N)c1O	
InChI=1S/C4H8N4O/c1-6-4-2(9)3(5)7-8-4/h9H,1H3,(H4,5,6,7,8)	InChI=1S/C4H8N4O/c1-6-4-2(9)3(5)7-8-4/h9H,1H3,(H4,5,6,7,8)
