20
gdb 104253	2.23216	1.3016	1.10292	2.8315	79.24	-0.2649	0.0167	0.2816	1225.7782	0.169491	-403.157471	-403.147775	-403.146831	-403.192162	35.339	
C	-0.2344065828	 1.538868574	 0.065437055	-0.400774
C	 0.267409075	 0.1007432163	-0.1004075353	-0.216174
C	 0.8425661729	-0.4934765482	 1.1869917182	 0.425013
C	 2.0840853845	 0.2192865479	 1.6971283472	-0.445696
O	-0.1802589607	-0.5581517724	 2.2264981925	-0.31466
C	-0.2809970653	-1.9850280127	 2.1383482672	-0.081875
C	 0.9478873107	-2.0640719788	 1.1979177768	-0.274064
C	 0.8104271042	-2.7949073475	-0.04734387	 0.287707
N	 0.6935893939	-3.3780789815	-1.0390876591	-0.335487
H	 0.5824395927	 2.2421218853	 0.2527374092	 0.118153
H	-0.7498941847	 1.8684265957	-0.8408480479	 0.119505
H	-0.9379529829	 1.6017552811	 0.9003674334	 0.138465
H	-0.5617717588	-0.5333419247	-0.4329099378	 0.113914
H	 1.0302966572	 0.0442297667	-0.8865185848	 0.110476
H	 1.8603615314	 1.2648051875	 1.9241960186	 0.138262
H	 2.449217845	-0.2515940216	 2.6139140495	 0.121624
H	 2.8805030661	 0.1921893339	 0.9458668099	 0.1265
H	-0.1637872118	-2.4736992247	 3.1107045005	 0.119189
H	-1.2189900349	-2.3138606126	 1.6760604523	 0.121534
H	 1.8486554784	-2.4031646239	 1.7141384546	 0.128387
67.889	96.9998	124.9043	182.8933	209.9535	227.1986	263.3623	327.3286	353.3873	389.2842	459.5078	530.4071	589.91	652.4515	737.1382	787.584	876.8829	894.8991	946.573	1000.4598	1017.214	1023.3784	1057.1651	1068.7825	1088.4544	1156.3759	1171.142	1182.1882	1218.4284	1254.9611	1313.1613	1346.9495	1363.5548	1379.764	1407.9791	1408.9254	1471.2206	1485.3959	1492.9477	1506.4409	1510.6225	1527.906	2353.927	3029.7579	3035.192	3042.0571	3045.6573	3072.5359	3077.2057	3093.7568	3112.4783	3114.5125	3122.7778	3125.9981
CCC1(C)OCC1C#N	CC[C@@]1(C)OC[C@H]1C#N	
InChI=1S/C7H11NO/c1-3-7(2)6(4-8)5-9-7/h6H,3,5H2,1-2H3	InChI=1S/C7H11NO/c1-3-7(2)6(4-8)5-9-7/h6H,3,5H2,1-2H3/t6-,7-/m1/s1
