19
gdb 16369	2.60058	2.05809	1.38897	2.9995	71.25	-0.2367	0.0707	0.3074	955.2379	0.165351	-365.023853	-365.015651	-365.014707	-365.056116	31.464	
C	-0.7879130544	 1.2424262705	-0.0324577253	-0.410776
C	 0.0266387905	-0.0418793618	-0.0840136711	-0.047055
C	 1.3919443976	-0.0437001043	-0.8373530944	-0.286359
C	 1.9939696725	-0.9234669473	 0.2989438718	 0.103315
O	 3.2995123259	-0.6826846111	 0.7541726936	-0.428674
C	 0.7935766881	-0.5175975889	 1.1632519288	 0.299416
C	 0.8507315638	 0.1422420477	 2.4880164396	-0.314181
N	 0.3148753507	-1.2292459296	 2.3386819031	-0.369779
H	-0.1758251762	 2.0865630967	 0.3024976785	 0.113775
H	-1.1908420966	 1.4914020787	-1.0199184396	 0.120397
H	-1.6385072329	 1.1518301485	 0.6536224983	 0.112348
H	-0.6003763508	-0.8624004584	-0.4550679884	 0.079216
H	 1.4163148297	-0.4396669834	-1.8543239379	 0.103542
H	 1.8448460134	 0.9544042659	-0.8353442298	 0.091855
H	 1.9559705608	-1.9888067188	 0.0515894047	 0.098508
H	 3.3599172859	 0.2483584434	 0.9942268477	 0.276352
H	 1.7950743963	 0.1965582524	 3.0238534637	 0.119573
H	 0.1604667267	 0.9564827884	 2.6934976002	 0.111704
H	-0.702995131	-1.2055703686	 2.3687831764	 0.226824
84.4013	205.9513	211.7553	221.9317	250.4506	317.4814	322.1599	443.3221	483.8856	525.1367	554.2259	682.1896	811.3408	842.8431	872.5928	921.8811	939.3154	957.525	978.232	1004.1386	1062.6371	1065.4559	1117.3966	1130.856	1153.287	1166.8684	1216.8142	1229.0949	1265.3885	1277.9117	1294.9242	1321.8349	1373.0101	1399.8135	1413.399	1441.4295	1483.3816	1495.1397	1496.1265	1509.6328	3023.2673	3025.0507	3043.6748	3070.3705	3087.4454	3098.7101	3102.9006	3116.0137	3187.8138	3476.6365	3803.689
CC1CC(O)C11CN1	C[C@H]1C[C@@H](O)[C@]21CN2	
InChI=1S/C6H11NO/c1-4-2-5(8)6(4)3-7-6/h4-5,7-8H,2-3H2,1H3	InChI=1S/C6H11NO/c1-4-2-5(8)6(4)3-7-6/h4-5,7-8H,2-3H2,1H3/t4-,5+,6+/m0/s1
