21
gdb 63634	2.73057	1.11717	1.06365	2.9229	78.53	-0.2475	0.0698	0.3173	1269.6157	0.179205	-424.191377	-424.181498	-424.180553	-424.225998	37.576	
C	-0.0466219535	 1.5422586024	-0.3231870816	-0.454591
C	-0.0540385738	 0.060313839	-0.0236991492	 0.403188
O	-1.312599208	-0.5418550391	-0.2100962438	-0.465747
C	 1.1604492782	-0.794428403	-0.2943486794	-0.374116
C	 0.7039308914	-0.5345429355	 1.1324828974	-0.110499
C	 1.4943244429	 0.2586172119	 2.1462664478	 0.39714
C	 2.8649372307	 0.775545469	 1.7678096377	-0.47248
C	 0.7566603176	 0.9027807788	 3.2485745699	-0.218011
O	 1.4527334442	-0.324720783	 3.4632049306	-0.280048
H	 0.9304966217	 1.9961490835	-0.1422266403	 0.1208
H	-0.3018002309	 1.7203930438	-1.3752576454	 0.108773
H	-0.78793872	 2.0603795893	 0.2933522086	 0.1282
H	-1.5095238912	-0.5243026985	-1.1537584289	 0.278627
H	 0.9975706065	-1.7895445757	-0.6928608552	 0.11443
H	 2.0631275724	-0.304644738	-0.6447048137	 0.109067
H	 0.1775476334	-1.3609913242	 1.5988611604	 0.115065
H	 2.8240560842	 1.4761530147	 0.9277780501	 0.121435
H	 3.3186651134	 1.2881136363	 2.619230481	 0.126546
H	 3.5171748921	-0.0547047098	 1.4783842551	 0.132561
H	 1.1783676246	 1.7751700944	 3.7480158689	 0.105206
H	-0.3302987957	 0.8344747038	 3.27667281	 0.114454
41.6618	141.8495	157.5183	210.5614	224.6841	289.1455	312.289	333.2041	341.8158	375.9398	423.969	428.8781	460.3305	544.351	704.7527	721.9284	810.1408	878.0013	899.1352	920.3572	921.5226	950.9289	980.4509	1029.5111	1053.5626	1072.6187	1090.2583	1104.5886	1122.2295	1137.4889	1166.1559	1238.9484	1281.3528	1298.9232	1332.6535	1378.7927	1409.942	1416.4315	1424.1793	1474.4255	1483.558	1488.3536	1497.2034	1508.3516	1526.9826	3027.1453	3040.2324	3073.8286	3089.3202	3103.3665	3124.766	3126.8449	3131.3367	3159.96	3168.0682	3220.9402	3786.0746
CC1(O)CC1C1(C)CO1	C[C@@]1(O)C[C@H]1[C@@]1(C)CO1	
InChI=1S/C7H12O2/c1-6(8)3-5(6)7(2)4-9-7/h5,8H,3-4H2,1-2H3	InChI=1S/C7H12O2/c1-6(8)3-5(6)7(2)4-9-7/h5,8H,3-4H2,1-2H3/t5-,6-,7-/m1/s1
