18
gdb 17077	5.50605	1.12443	1.01316	3.1392	67.62	-0.2405	0.0809	0.3215	1158.3948	0.153726	-384.889939	-384.881983	-384.881039	-384.923644	28.071	
C	 0.0169725254	 1.515934809	 0.3997032118	-0.253172
C	-0.0874697326	 0.0169903277	 0.2481937964	 0.100475
C	-1.2716496689	-0.6398992219	-0.3168759428	-0.181601
O	-0.0791132106	-0.4931100178	-1.090770174	-0.231806
C	 1.4227868463	 2.0365199693	 0.1133687725	-0.015488
C	 1.8860018284	 2.0729935553	-1.3627762656	-0.074738
O	 2.0976119587	 3.500863643	-1.3070615938	-0.272755
C	 1.6151902123	 3.5685172015	 0.047703774	-0.090993
H	-0.7001203652	 1.9960034906	-0.2772851329	 0.106507
H	-0.2752270416	 1.7873813236	 1.4235384457	 0.10389
H	 0.5292672377	-0.5647493339	 0.9369187237	 0.092383
H	-1.5184385974	-1.660471372	-0.0278461658	 0.116209
H	-2.1162460126	-0.0330334334	-0.6411735143	 0.115067
H	 2.1459773077	 1.5472125047	 0.7726631931	 0.078835
H	 2.8097243349	 1.530614051	-1.5955838352	 0.101464
H	 1.1170077254	 1.7942657172	-2.0923291558	 0.113658
H	 0.6878698284	 4.153890036	 0.1268522019	 0.093394
H	 2.3595445836	 3.9959634902	 0.731086621	 0.098669
53.6026	73.4754	86.9373	165.908	299.5363	355.8318	416.6682	477.2932	758.6402	790.6493	858.0742	875.9313	895.1909	902.8303	956.4364	982.1287	1037.8634	1040.7459	1048.4424	1103.3911	1122.3358	1152.0418	1159.4384	1162.5081	1169.0599	1191.5707	1250.7118	1271.5368	1295.4875	1309.653	1324.3538	1370.5594	1401.181	1448.9385	1471.8311	1514.8367	1529.9404	1540.3749	2993.8007	3016.0308	3025.9441	3038.0903	3054.3075	3063.7108	3076.2723	3082.7693	3091.5385	3169.4044
C(C1CO1)C1COC1	C([C@H]1CO1)C1COC1	
InChI=1S/C6H10O2/c1(6-4-8-6)5-2-7-3-5/h5-6H,1-4H2	InChI=1S/C6H10O2/c1(6-4-8-6)5-2-7-3-5/h5-6H,1-4H2/t6-/m0/s1
