16
gdb 21960	6.6014	1.10784	1.02091	1.0263	66.92	-0.2399	0.021	0.261	1129.0027	0.132427	-379.933044	-379.925419	-379.924475	-379.966024	27.175	
O	 0.1000477132	 1.3851904223	 0.1488565764	-0.408001
C	 0.0550504819	-0.0278689637	 0.2147568004	-0.068148
C	-1.3531679314	-0.5562182235	-0.0980531743	-0.178971
N	-1.4219246214	-2.0019704152	-0.0319794759	 0.065481
C	-1.9277613689	-2.7743281853	 0.9625567646	-0.031406
C	-1.7020260592	-4.0875139066	 0.6055253205	-0.233174
C	-1.0407299414	-4.0010756876	-0.6358480648	 0.000934
N	-0.8692930419	-2.7380047554	-1.019311425	-0.2715
H	 0.071093149	 1.6419782655	-0.7781968289	 0.289156
H	 0.7764219978	-0.5046588196	-0.4615856219	 0.121465
H	 0.3290119699	-0.3006538346	 1.2390798987	 0.119108
H	-2.0717357351	-0.1405993436	 0.6127795082	 0.127247
H	-1.6505749485	-0.2471710827	-1.105395827	 0.122089
H	-2.4050636869	-2.3350673484	 1.8245094787	 0.130018
H	-1.981778202	-4.9708907518	 1.1557934526	 0.10456
H	-0.6889812851	-4.8030179196	-1.2684279425	 0.111143
49.3346	94.1564	108.1557	290.0503	321.6711	365.9492	378.4178	632.32	676.4345	765.2237	772.1429	786.5665	830.0444	891.8292	933.6918	987.0062	1031.0471	1052.7099	1071.002	1089.2955	1112.2701	1152.2261	1244.8978	1291.7252	1320.3437	1341.2914	1375.6023	1400.4304	1417.8672	1429.233	1478.7758	1487.8768	1511.6349	1558.0799	3024.7879	3054.8029	3083.0682	3118.8585	3243.379	3255.8053	3278.5549	3820.2966
OCCN1C=CC=N1	OCCn1cccn1	
InChI=1S/C5H8N2O/c8-5-4-7-3-1-2-6-7/h1-3,8H,4-5H2	InChI=1S/C5H8N2O/c8-5-4-7-3-1-2-6-7/h1-3,8H,4-5H2
