20
gdb 12884	2.42474	2.37017	1.71505	1.3101	74.47	-0.228	0.0824	0.3104	898.1355	0.17735	-349.003619	-348.995499	-348.994554	-349.035668	31.032	
C	-0.0548658612	 1.578826177	 0.0829039608	-0.411535
C	 0.0403098494	 0.0713176908	 0.0401088759	-0.065352
C	 1.3100797783	-0.6823308204	-0.3528580607	-0.131952
C	 2.6436633861	 0.0621085276	-0.3256258422	-0.252277
C	 2.9533882039	 0.1431154558	 1.1848037123	-0.073709
O	 1.698888192	 0.0402342136	 1.862611971	-0.297388
C	 0.8123884623	-0.7250269024	 1.0684505444	 0.416957
C	 0.2529817198	-1.9335691773	 1.7685278381	-0.46209
H	 0.7858960898	 2.0166052697	 0.6250770139	 0.127786
H	-0.0819056258	 2.0097565103	-0.924233385	 0.111117
H	-0.969415106	 1.8881187035	 0.6001765509	 0.116449
H	-0.866828809	-0.4197389644	-0.3072247792	 0.077312
H	 1.2097758702	-1.5424250862	-1.0055807185	 0.083491
H	 3.4185377432	-0.4880999712	-0.8661955103	 0.102643
H	 2.5756632629	 1.057438669	-0.7764830345	 0.106998
H	 3.6137471156	-0.6834147627	 1.4897667012	 0.09192
H	 3.4211586375	 1.0838070144	 1.4904810166	 0.103706
H	-0.3176665361	-1.6390382514	 2.655778711	 0.125654
H	-0.415978331	-2.489489848	 1.1047076466	 0.113213
H	 1.0551220782	-2.6060933278	 2.0915645176	 0.117057
121.8089	158.6047	207.5988	209.3921	224.2663	266.0597	340.1188	492.4387	535.8477	626.3917	641.4295	734.7108	781.7733	841.6277	872.4165	918.5914	934.9388	963.4166	999.0278	1029.7668	1048.9895	1093.4316	1125.0847	1127.861	1134.6533	1161.528	1221.3901	1229.9551	1239.9747	1268.0022	1315.5042	1342.3507	1389.2192	1411.7088	1413.0884	1453.9466	1479.7993	1488.4559	1496.8873	1503.1116	1506.887	1521.3912	2982.0442	3030.037	3033.0437	3048.4561	3078.2053	3088.1403	3094.1976	3096.3807	3107.9968	3117.1658	3132.0318	3166.4354
CC1C2CCOC12C	C[C@H]1[C@H]2CCO[C@@]12C	
InChI=1S/C7H12O/c1-5-6-3-4-8-7(5,6)2/h5-6H,3-4H2,1-2H3	InChI=1S/C7H12O/c1-5-6-3-4-8-7(5,6)2/h5-6H,3-4H2,1-2H3/t5-,6+,7-/m0/s1
