18
gdb 47671	2.17866	1.6761	1.06935	4.4154	73.96	-0.2483	-0.0298	0.2185	1128.2009	0.148561	-439.114829	-439.106561	-439.105617	-439.148494	30.862	
N	-0.1106905356	 1.3222514698	 0.1006328817	-0.4713
C	 0.003276041	 0.0712807632	-0.0519495477	 0.353993
C	-1.2397707187	-0.8001963745	-0.0396648424	-0.349469
C	-1.4528337332	-1.6417753176	-1.3005378621	 0.36737
O	-2.241430336	-1.3090939226	-2.1502570219	-0.290908
C	-0.6487866957	-2.9317877116	-1.4146615208	-0.300538
C	 0.7132599511	-2.9041051136	-0.7064901828	-0.233517
C	 1.5172768422	-1.6275422382	-0.9697627514	-0.078608
O	 1.2322091639	-0.5266743996	-0.0957870333	-0.250472
H	 0.8165191468	 1.7538570235	 0.0965353609	 0.222296
H	-1.1772627577	-1.4673769166	 0.8294666788	 0.126764
H	-2.0922006581	-0.1324707603	 0.0717342351	 0.156637
H	-1.2731202777	-3.7360183382	-1.0025454309	 0.13403
H	-0.5376153312	-3.1463916778	-2.4819643495	 0.133632
H	 0.6090479585	-3.0312344034	 0.3766695748	 0.119944
H	 1.3060974538	-3.7552618571	-1.0581023199	 0.116892
H	 2.5802001362	-1.8136352853	-0.8010525438	 0.12595
H	 1.3983694804	-1.3045571699	-2.0138852949	 0.117302
45.0293	97.8381	133.8002	273.2656	310.0207	336.5061	452.0912	459.9089	481.4348	552.9324	558.6754	646.0661	765.0423	816.5841	849.1225	900.3869	925.195	951.1802	978.9748	1003.3012	1069.4244	1076.2011	1126.0943	1154.2341	1207.4816	1237.8254	1247.5471	1291.7303	1305.7458	1323.1105	1355.4308	1378.6854	1427.5912	1453.3691	1456.4331	1483.9825	1505.5952	1734.8026	1822.2857	3009.5571	3028.8833	3035.0313	3046.9329	3077.5778	3096.4077	3104.1802	3158.2726	3458.7968
N=C1CC(=O)CCCO1	[NH][C]1CC(=O)CCCO1	
InChI=1S/C6H9NO2/c7-6-4-5(8)2-1-3-9-6/h7H,1-4H2	InChI=1S/C6H9NO2/c7-6-4-5(8)2-1-3-9-6/h7H,1-4H2
