19
gdb 103787	4.90892	0.71612	0.67914	2.3746	82.45	-0.2458	0.0248	0.2706	1700.8287	0.155605	-422.983824	-422.973164	-422.97222	-423.021117	36.954	
C	 0.2035569605	 1.4606198991	 0.2366130702	-0.502862
C	 0.0582870571	 0.0165785096	 0.1365744757	 0.148856
C	-0.0671601738	-1.1792369025	 0.0615968955	 0.061636
C	-0.1747473788	-2.607877125	-0.0519599797	-0.246113
O	-0.8226486067	-3.3237786855	 1.0225535854	-0.290744
C	-1.4640933948	-3.3075102995	-0.2660249808	 0.362612
C	-2.7691241025	-2.5535593678	-0.3398074557	-0.463682
C	-1.4430318554	-4.6752814775	-0.9253330912	-0.113795
O	-2.3054599222	-5.5739109849	-0.2491147817	-0.415563
H	 1.2544343723	 1.7600882526	 0.1605258003	 0.153215
H	-0.3487073786	 1.9730911599	-0.558725754	 0.152128
H	-0.1781582932	 1.8271447302	 1.19576041	 0.156274
H	 0.7258224034	-3.1040294567	-0.4159679632	 0.106096
H	-2.7253071283	-1.6437532266	 0.2601250933	 0.136137
H	-2.993416237	-2.2809572172	-1.3766484178	 0.121492
H	-3.5794379257	-3.190763198	 0.0251906653	 0.13767
H	-1.8089636369	-4.6116850852	-1.9555478214	 0.111807
H	-0.4107524024	-5.0545843569	-0.9525386446	 0.090685
H	-2.0011306569	-5.605457758	 0.6656587945	 0.294153
22.7389	60.825	80.2968	105.3856	178.5957	210.2077	251.5305	299.4079	328.1455	358.4457	396.795	430.8546	450.4019	526.0475	634.8746	718.662	809.2319	854.3957	891.8236	937.5688	1030.2405	1050.5395	1053.2555	1062.2436	1093.7039	1112.9007	1191.8105	1205.0456	1268.6029	1327.5525	1384.7941	1412.2167	1413.964	1425.5931	1445.5915	1475.3985	1476.9448	1481.0885	1493.4583	1500.0961	2369.3826	2993.9684	3029.2108	3045.198	3077.5406	3090.8168	3092.9185	3097.9242	3112.1169	3148.2939	3794.2208
CC#CC1OC1(C)CO	CC#C[C@H]1O[C@]1(C)CO	
InChI=1S/C7H10O2/c1-3-4-6-7(2,5-8)9-6/h6,8H,5H2,1-2H3	InChI=1S/C7H10O2/c1-3-4-6-7(2,5-8)9-6/h6,8H,5H2,1-2H3/t6-,7-/m1/s1
