22
gdb 22281	4.07926	0.78794	0.68559	1.0692	87.35	-0.2392	0.0106	0.2498	1671.6705	0.191951	-404.308049	-404.297935	-404.296991	-404.34329	37.817	
C	 0.0759861855	 1.4303451403	-0.2409642775	-0.390681
C	 0.0094720949	-0.0822246528	 0.0110814879	 0.020015
C	 0.8199746006	-0.4679896045	 1.2560223086	-0.390672
C	-1.4378040471	-0.5593741513	 0.1263152103	 0.058651
C	-2.3488672266	-0.4478891272	-1.1462153042	-0.344478
C	-2.7508414893	-1.8863896031	-0.9065236474	 0.419065
C	-1.701488583	-2.1031845104	 0.1626496531	-0.347864
N	-3.708412239	-2.5559712627	-1.3933549918	-0.235758
O	-3.7468552578	-3.8521686397	-0.8383563737	-0.396682
H	 1.111316439	 1.7639485042	-0.3655459561	 0.111647
H	-0.4770774538	 1.7157258682	-1.1414963736	 0.115883
H	-0.3516062329	 1.9851271088	 0.6028458506	 0.112453
H	 0.4552206222	-0.5922002286	-0.8567083582	 0.067858
H	 0.7998477956	-1.5479604684	 1.4330714669	 0.116571
H	 1.8672673431	-0.165537686	 1.1535928337	 0.111492
H	 0.4186847496	 0.0241696904	 2.1500678262	 0.112376
H	-1.9166073882	-0.0703342012	 0.9821510289	 0.073219
H	-3.1502239273	 0.2947050191	-1.1349431399	 0.11983
H	-1.7689383589	-0.3177471341	-2.0676379959	 0.116943
H	-0.8514155777	-2.697330863	-0.193338269	 0.120321
H	-2.0558171921	-2.5421240921	 1.0984128275	 0.125137
H	-4.5165950666	-4.233501136	-1.2736139764	 0.304674
46.0929	92.1564	138.3997	221.0936	232.9093	241.0397	268.7097	303.6139	327.3704	365.421	425.4533	444.1143	474.7165	551.1522	678.1332	762.8618	793.3235	877.924	924.9362	929.6185	949.0256	966.0721	979.7006	991.5327	1038.4002	1043.0417	1136.0065	1142.7528	1186.0276	1192.2386	1215.498	1232.0736	1254.544	1272.1057	1310.8796	1351.2583	1388.1833	1399.5343	1403.9818	1420.8534	1451.8351	1472.3997	1486.9337	1493.4434	1505.7707	1510.4381	1785.7658	2986.4465	3024.4149	3028.3152	3036.9525	3040.542	3045.682	3089.3084	3095.0196	3100.8293	3102.64	3103.0681	3104.218	3819.7811
CC(C)C1CC(C1)=NO	CC(C)[C@H]1CC(=NO)C1	
InChI=1S/C7H13NO/c1-5(2)6-3-7(4-6)8-9/h5-6,9H,3-4H2,1-2H3	InChI=1S/C7H13NO/c1-5(2)6-3-7(4-6)8-9/h5-6,9H,3-4H2,1-2H3/t6-
