22
gdb 97442	4.79509	0.64654	0.62355	2.7156	88.71	-0.2451	0.0282	0.2733	1903.1237	0.191598	-404.334688	-404.324102	-404.323157	-404.371986	37.586	
C	-0.0513105716	 1.3762364015	 0.0754309703	-0.313807
N	-0.1221268246	-0.0043671509	 0.5039599305	-0.206278
C	-1.0549170166	-0.7062998776	 0.0357445446	 0.137514
O	-1.1728842765	-2.0068875967	 0.3637126049	-0.210208
C	-2.3429377125	-2.6832913293	-0.1126334176	-0.144859
C	-2.1063706172	-4.1700812417	-0.0378639222	 0.367125
C	-0.9877713475	-4.6822551075	-0.9236614267	-0.467538
C	-2.3430585934	-4.8369890024	 1.2955239571	-0.285221
C	-3.3297565255	-5.0325698752	 0.170620978	-0.316306
H	 0.9127530591	 1.5629007101	-0.411949788	 0.126429
H	-0.8523388112	 1.67233759	-0.6225453895	 0.093199
H	-0.0969291197	 2.0362952249	 0.9493783365	 0.12625
H	-1.8227346039	-0.3404175039	-0.6659999421	 0.068595
H	-3.2054591969	-2.3980503081	 0.5045482651	 0.100758
H	-2.5483069326	-2.3767873469	-1.1487128342	 0.102165
H	-0.0411235753	-4.1955615064	-0.6711416256	 0.140953
H	-0.8573425038	-5.7620636152	-0.8064258438	 0.113423
H	-1.1980325991	-4.4844335088	-1.9818595143	 0.110765
H	-1.6998043442	-5.6676490833	 1.5638953722	 0.115307
H	-2.6376702937	-4.2157772886	 2.134329306	 0.117448
H	-4.2989628281	-4.5506350802	 0.2502234497	 0.110156
H	-3.3553480252	-5.9939014839	-0.330861391	 0.114132
17.3754	60.2629	92.3377	150.277	205.2183	210.8335	226.4542	302.5803	309.3494	343.0436	358.9483	426.5885	452.7595	626.1535	742.0629	783.4401	873.334	918.5811	951.2749	958.601	984.1671	1001.3485	1022.9798	1051.2697	1079.6365	1082.5703	1089.3364	1131.7921	1141.2609	1153.5808	1187.2573	1241.2966	1263.5947	1334.1205	1362.779	1393.486	1413.5316	1436.0375	1450.8813	1470.1632	1480.2246	1485.8872	1499.8676	1505.0722	1508.4351	1514.5948	1779.0176	2961.6028	2974.9994	2994.4948	3026.6155	3037.4321	3055.1294	3074.4121	3091.6944	3113.7415	3129.3659	3136.7262	3208.0994	3223.6501
CN=COCC1(C)CC1	CN=COCC1(C)CC1	
InChI=1S/C7H13NO/c1-7(3-4-7)5-9-6-8-2/h6H,3-5H2,1-2H3	InChI=1S/C7H13NO/c1-7(3-4-7)5-9-6-8-2/h6H,3-5H2,1-2H3
