17
gdb 80853	2.11208	1.79161	1.64435	2.8202	68.49	-0.2243	0.0237	0.248	946.458	0.13683	-455.121882	-455.11381	-455.112866	-455.153831	32.243	
N	-0.0104874572	 1.2531162426	-0.0565336312	-0.622174
C	-0.0262514476	-0.1009831468	-0.0098574861	 0.332232
N	-1.0394995677	-0.9027034277	 0.0253057398	-0.312185
C	-0.303427138	-2.2202113977	 0.0134528043	-0.053263
C	 0.8076862057	-2.0125735632	-1.0524621626	-0.293684
C	 1.2531836678	-0.9322848837	-0.0118905084	 0.240191
O	 2.4858114466	-0.2857769898	 0.0317613652	-0.483841
C	 0.8094088047	-1.9845898698	 1.0855204717	 0.144278
O	 0.4632617255	-1.5903532146	 2.3702853143	-0.441616
H	 0.8478058423	 1.6958932642	 0.2336428476	 0.264586
H	-0.866689433	 1.741752566	 0.1568674725	 0.262506
H	-0.9601805938	-3.0859806657	 0.0195648711	 0.078813
H	 1.5145255038	-2.8425131846	-1.138336328	 0.105022
H	 0.480805218	-1.6570879571	-2.0315025018	 0.10828
H	 2.752183478	-0.0720385439	-0.8688136227	 0.289559
H	 1.5378090351	-2.7952190212	 1.167072967	 0.093086
H	-0.3436774201	-1.063635927	 2.2848205672	 0.28821
157.9178	166.1525	235.0493	240.1718	297.1009	402.0552	436.0093	469.3134	491.8858	496.0448	535.7583	614.7653	625.648	708.8619	749.2359	791.3366	817.3193	869.601	900.637	955.7624	981.0049	1036.8985	1108.0931	1120.3105	1136.5285	1172.0702	1209.8113	1226.403	1250.3761	1269.2616	1303.2826	1338.598	1432.4625	1448.2472	1500.7276	1604.0298	1693.4492	3061.6758	3094.5594	3134.2613	3155.752	3574.9714	3693.7238	3742.8771	3811.5626
NC1=NC2CC1(O)C2O	N[C]1[N][C@H]2C[C@]1(O)[C@H]2O	
InChI=1S/C5H8N2O2/c6-4-5(9)1-2(7-4)3(5)8/h2-3,8-9H,1H2,(H2,6,7)	InChI=1S/C5H8N2O2/c6-4-5(9)1-2(7-4)3(5)8/h2-3,8-9H,1H2,(H2,6,7)/t2-,3-,5-/m0/s1
