27
gdb 123140	5.68005	0.42414	0.40741	1.3982	94.6	-0.2612	0.0737	0.3349	2800.539	0.249714	-390.709835	-390.697658	-390.696713	-390.748445	43.43	
C	-0.0676595369	 1.6014888295	 0.0630466653	-0.378769
C	-0.0195663712	 0.0718637843	 0.0148496677	-0.162488
C	 0.7017877484	-0.4714061366	-1.2233055049	-0.157684
C	 0.753825008	-2.001678427	-1.2812011894	-0.180668
C	 1.4741140581	-2.5401287736	-2.5215808406	-0.18175
C	 1.5221743354	-4.0704071465	-2.5748953519	-0.166339
C	 2.2160060446	-4.620081339	-3.8206702981	 0.130167
C	 2.3141662382	-6.1461164905	-3.8072175733	-0.401875
O	 1.4621493189	-4.1659845274	-4.9447780558	-0.433477
H	 0.9412717067	 2.0291628478	 0.0729373848	 0.111627
H	-0.5882379281	 2.008423895	-0.8111533789	 0.112511
H	-0.5890377747	 1.9590887633	 0.9566888095	 0.108533
H	 0.4763830295	-0.3080796612	 0.9180651528	 0.091506
H	-1.0421193883	-0.327828124	 0.0417655008	 0.092636
H	 0.2066064612	-0.0909453434	-2.1277133567	 0.091474
H	 1.7253098173	-0.0712530609	-1.2506267483	 0.088229
H	 1.2479843688	-2.3823448488	-0.3757710154	 0.086206
H	-0.2702347174	-2.4000826312	-1.2546377879	 0.090811
H	 0.9817906066	-2.1707759687	-3.4277583257	 0.114724
H	 2.4995926899	-2.1445366646	-2.5462479998	 0.083866
H	 2.0408290533	-4.4589434072	-1.6890648284	 0.087391
H	 0.5014235238	-4.474793846	-2.54643764	 0.097862
H	 3.2362021479	-4.199765773	-3.864310808	 0.059285
H	 1.3155753132	-6.5917865016	-3.7551550115	 0.122854
H	 2.8044519388	-6.5151413393	-4.7159166361	 0.100566
H	 2.8986324212	-6.497282102	-2.9503202239	 0.113452
H	 1.8925426371	-4.4900886176	-5.7418678665	 0.279351
47.0483	52.6811	76.323	112.7559	127.931	165.4162	189.3013	241.6457	246.0973	249.9141	284.4335	326.8237	406.108	442.3764	495.2671	501.4467	732.2432	744.5742	794.8683	848.4846	884.3062	897.7393	944.0299	977.4229	1008.5604	1029.8372	1038.0909	1063.25	1072.7496	1088.7133	1106.555	1155.6094	1167.9374	1222.2826	1251.8197	1266.8914	1301.3497	1309.6675	1325.5082	1332.7217	1337.6485	1358.5535	1383.2986	1398.4552	1401.5098	1406.463	1414.0237	1429.2216	1472.4479	1483.2571	1484.788	1492.4099	1495.3272	1499.0819	1500.4824	1506.8543	1515.0069	2944.0429	2998.0487	3001.9535	3008.0594	3015.0043	3017.8432	3022.1411	3025.8053	3028.0305	3035.3099	3052.7553	3056.2161	3082.072	3090.5818	3094.2935	3099.1063	3110.2224	3820.6787
CCCCCCC(C)O	CCCCCC[C@@H](C)O	
InChI=1S/C8H18O/c1-3-4-5-6-7-8(2)9/h8-9H,3-7H2,1-2H3	InChI=1S/C8H18O/c1-3-4-5-6-7-8(2)9/h8-9H,3-7H2,1-2H3/t8-/m1/s1
