17
gdb 48165	5.43401	0.67064	0.61088	3.0273	73.42	-0.2417	-0.0702	0.1715	1736.2405	0.134713	-455.125203	-455.115913	-455.114968	-455.160977	32.251	
N	 0.0712462658	 1.3151703623	 0.5193266181	-0.516151
C	-0.0541203709	 0.1245527139	 0.071269506	 0.292768
N	-1.2624847783	-0.4926758686	-0.1003188743	-0.33105
C	-2.5162173572	 0.2221594598	 0.0571420291	-0.165299
C	-3.620686271	-0.755992773	 0.362065258	 0.07219
C	-4.9380013189	-0.6588699031	-0.2737190324	-0.174243
O	-3.9830030987	-1.6223989394	-0.7234431404	-0.243837
C	 1.1316240802	-0.7515441705	-0.2778710278	 0.107558
O	 2.2683004442	-0.3781439008	-0.162309982	-0.233354
H	 1.0684678242	 1.5189075306	 0.6081680929	 0.235864
H	-1.29616907	-1.3134442787	-0.6862832297	 0.255089
H	-2.3885906451	 0.9384890419	 0.8733857582	 0.152623
H	-2.764644277	 0.7977688665	-0.8461221947	 0.113543
H	-3.5431676953	-1.2651609969	 1.3230789089	 0.105892
H	-5.8107499139	-1.067354624	 0.2325129795	 0.123428
H	-5.1411462235	 0.1563669517	-0.9665757255	 0.121513
H	 0.8903030656	-1.7725414415	-0.6518594337	 0.083465
38.0506	56.2485	89.2744	150.9039	202.3516	257.7785	284.8501	370.3077	443.9101	461.2652	530.951	579.2701	730.1185	799.9506	864.7884	871.8978	921.2043	950.191	994.1177	1025.0619	1071.3018	1107.2677	1139.0185	1160.7536	1173.4254	1182.0143	1254.9849	1293.2614	1314.7908	1366.1695	1430.6119	1456.467	1492.3926	1529.1242	1550.853	1701.8776	1834.9015	2875.1977	3005.8436	3089.3337	3100.147	3115.3941	3177.463	3469.8117	3617.1505
N=C(NCC1CO1)C=O	N=C(NC[C@H]1CO1)C=O	
InChI=1S/C5H8N2O2/c6-5(2-8)7-1-4-3-9-4/h2,4H,1,3H2,(H2,6,7)	InChI=1S/C5H8N2O2/c6-5(2-8)7-1-4-3-9-4/h2,4H,1,3H2,(H2,6,7)/t4-/m0/s1
