19
gdb 60691	4.98143	0.78724	0.72501	2.6612	82.8	-0.2415	-0.0613	0.1803	1563.103	0.158917	-419.213506	-419.204336	-419.203392	-419.248072	33.743	
N	 0.0231055188	 1.075727843	 0.5999888846	-0.556558
C	-0.0783436208	-0.118541509	-0.0594597038	 0.268174
C	 1.2377594903	-0.7082719396	-0.463788614	 0.138022
O	 2.3005242707	-0.214713972	-0.1691337828	-0.271707
N	-1.1239036943	-0.7773577262	-0.3995387883	-0.277013
C	-2.4131087371	-0.2487416772	-0.0373303348	 0.056131
C	-3.652126702	-1.0637688312	-0.4803232785	-0.233961
C	-4.314557653	-0.7449137689	 0.8867051505	-0.215993
C	-2.9098407419	-0.3949113939	 1.4443440785	-0.236493
H	 0.9578145874	 1.3287442854	 0.886402854	 0.269568
H	-0.7362530852	 1.3930072266	 1.1770901836	 0.264181
H	 1.1357617621	-1.6399240453	-1.0503781105	 0.107998
H	-2.5079634694	 0.8019900996	-0.3549082898	 0.075344
H	-4.1681598666	-0.7513667484	-1.3910647762	 0.096585
H	-3.3849516888	-2.1203676838	-0.5673686304	 0.111194
H	-4.9611421277	 0.1355447718	 0.8347873596	 0.10282
H	-4.8631638695	-1.5477370607	 1.3829683754	 0.102237
H	-2.432394548	-1.2580900044	 1.9164227842	 0.112982
H	-2.8217063051	 0.4677134642	 2.1118641587	 0.08649
58.3888	81.4736	119.5224	164.3567	238.8114	281.7902	362.1316	369.5911	388.0339	487.8571	541.5415	643.3426	656.9527	700.0592	774.4956	786.9468	891.87	925.9115	933.6416	948.3623	976.7112	1027.6391	1045.5439	1076.163	1144.7193	1162.047	1199.8469	1237.7593	1248.7734	1256.4179	1274.3077	1281.9945	1358.6482	1377.0407	1380.0032	1474.8413	1487.5446	1509.0911	1607.7585	1715.7799	1803.4275	2969.8505	2977.2055	3045.9393	3061.1214	3065.7312	3099.818	3112.1616	3126.2257	3581.1431	3716.3322
NC(C=O)=NC1CCC1	NC(=NC1CCC1)C=O	
InChI=1S/C6H10N2O/c7-6(4-9)8-5-2-1-3-5/h4-5H,1-3H2,(H2,7,8)	InChI=1S/C6H10N2O/c7-6(4-9)8-5-2-1-3-5/h4-5H,1-3H2,(H2,7,8)
