16
gdb 66909	2.769	1.98718	1.35054	4.231	77.32	-0.2363	-0.083	0.1533	931.8775	0.123391	-400.640456	-400.633094	-400.63215	-400.671998	29.032	
C	 0.0532871592	 1.4923223498	-0.0544376378	-0.48785
C	-0.0650572153	 0.0029998946	 0.147186375	 0.20118
C	-0.8504298081	-0.8057143186	-0.9834683884	-0.057954
N	-0.7012234892	-2.3462446552	-0.9652399203	-0.356372
C	-0.749496863	-2.0985647476	 0.4896092676	 0.094498
C	 0.4207582756	-2.1073504316	 1.167022148	-0.219903
C	 0.923008817	-0.6893677525	 1.0801933729	 0.340819
O	 1.9693141782	-0.2297053371	 1.464823775	-0.328164
C	-1.3872901326	-0.7178181973	 0.3842152217	-0.187696
H	 0.9901802572	 1.7288725529	-0.5676805169	 0.146844
H	-0.7749587494	 1.8946571813	-0.6446836661	 0.116553
H	 0.0708520986	 2.0085135755	 0.9103816977	 0.139505
H	-1.1295177643	-0.3127890538	-1.910538872	 0.115897
H	-1.6183878416	-2.6479715875	-1.3103129297	 0.233013
H	 1.1470753468	-2.9098886133	 1.099923991	 0.132753
H	-2.284346319	-0.3033547697	 0.8257598922	 0.116879
123.0716	150.4774	251.4178	270.1143	375.9708	425.253	447.6083	552.661	624.0377	636.755	701.3119	758.3953	770.078	837.6413	838.9542	859.0857	886.6671	911.3156	983.145	992.2126	1053.6615	1077.8394	1086.0012	1101.3458	1153.5523	1201.6624	1248.307	1255.5885	1287.7854	1346.2074	1414.352	1481.1099	1491.3089	1566.7124	1800.3444	3041.3769	3109.7344	3115.1388	3155.6934	3197.155	3198.1319	3383.0788
CC12C3NC(=CC1=O)C23	C[C@@]12[C@H]3N[C]([CH]C1=O)[C@@H]23	
InChI=1S/C7H7NO/c1-7-4(9)2-3-5(7)6(7)8-3/h2,5-6,8H,1H3	InChI=1S/C7H7NO/c1-7-4(9)2-3-5(7)6(7)8-3/h2,5-6,8H,1H3/t5-,6+,7-/m1/s1
