16
gdb 69156	2.81782	1.67029	1.30591	3.0917	68.14	-0.2475	-0.0168	0.2307	971.5076	0.124744	-437.861672	-437.854431	-437.853487	-437.893085	28.99	
O	-0.1096445832	 1.3745934124	 0.0293975449	-0.465966
C	 0.0196063754	-0.0064775954	 0.0363620987	 0.419054
C	-0.5122959028	-0.7401134952	 1.2112469238	-0.330231
C	 0.9917295223	-0.7744227815	 0.9153508769	-0.238913
C	 1.4915076415	-1.9388372147	 0.0968588387	 0.380092
O	 2.2072378772	-2.8283277772	 0.4663290621	-0.31348
N	 1.0396877962	-1.8071876494	-1.2711437041	-0.128541
C	-0.3897980392	-2.1094358105	-1.5211907377	-0.258088
C	 0.0663062759	-0.710215136	-1.3175793188	-0.114228
H	 0.6632185284	 1.7514265209	-0.4071192961	 0.289634
H	-0.7766504593	-0.1189433602	 2.0597948364	 0.140035
H	-1.1224579214	-1.6281180059	 1.0993093896	 0.128927
H	 1.6567095477	-0.3250989158	 1.6425158966	 0.119454
H	-0.6042377819	-2.46604017	-2.5247961526	 0.134834
H	-0.9511661199	-2.6118105091	-0.7404380545	 0.135371
H	 0.1338281431	-0.0450258522	-2.1754384339	 0.102046
122.595	205.7869	295.7967	319.1964	355.6174	399.3621	447.6818	496.3245	594.6081	627.0274	671.7377	743.0736	766.7367	849.4087	865.3513	917.9112	925.4687	970.8937	990.6241	1033.0322	1061.1506	1065.6929	1081.0442	1115.3798	1140.8956	1160.3866	1224.1717	1243.4333	1275.915	1296.2257	1373.1567	1429.3135	1495.0124	1518.3886	1851.1197	3120.9532	3136.0855	3144.8802	3194.4626	3208.8183	3231.8207	3789.7777
OC12CC1C(=O)N1CC21	O[C@]12C[C@H]1C(=O)N1C[C@@H]21	
InChI=1S/C6H7NO2/c8-5-3-1-6(3,9)4-2-7(4)5/h3-4,9H,1-2H2	InChI=1S/C6H7NO2/c8-5-3-1-6(3,9)4-2-7(4)5/h3-4,9H,1-2H2/t3-,4-,6+,7?/m0/s1
