19
gdb 62132	2.18199	0.90841	0.66906	2.9739	78.36	-0.2555	-0.0273	0.2281	1645.7592	0.153886	-422.991531	-422.980754	-422.97981	-423.02908	37.04	
C	-0.0498743287	 1.5430419628	 0.1310080057	-0.40789
C	 0.003555787	 0.0182879576	 0.0250913993	 0.144996
C	-1.4057013487	-0.5959717378	-0.0377968545	-0.365246
C	-1.400985695	-2.0519127355	 0.0207618779	 0.304411
C	-1.3906984187	-3.2514789846	 0.088936224	-0.439931
O	 0.6734950794	-0.4048140204	-1.1550541469	-0.25425
C	 2.0754127595	-0.3548417602	-1.1122083375	-0.153725
C	 2.6090679736	-1.1237608515	-2.3104027357	 0.141854
O	 3.7624447029	-1.1134193022	-2.6482115632	-0.23825
H	 0.9552463647	 1.9730711079	 0.1574263148	 0.122989
H	-0.5810327509	 1.967213499	-0.7269962339	 0.12849
H	-0.5650834478	 1.8490998556	 1.0467769148	 0.121555
H	 0.5268455148	-0.3943238334	 0.902069496	 0.081941
H	-2.0031686752	-0.1928213993	 0.7886744747	 0.13031
H	-1.8820374132	-0.2580539689	-0.9666767923	 0.139524
H	-1.387168429	-4.3119461279	 0.1404485404	 0.196224
H	 2.4765440677	 0.6695740713	-1.142573091	 0.123238
H	 2.4712125066	-0.8321700713	-0.1985346495	 0.123329
H	 1.829042941	-1.7116912611	-2.841490953	 0.100431
39.7175	57.3079	73.9897	94.3786	154.2039	158.8202	223.7385	292.1191	335.8882	344.5432	421.9288	440.6661	532.8542	579.0312	617.9202	644.9649	744.547	846.0459	890.8786	918.2316	986.8891	1038.2334	1091.8816	1110.1028	1124.3146	1127.1748	1173.11	1238.8102	1256.3942	1311.7037	1342.2787	1379.2003	1387.0365	1407.2632	1413.2936	1457.842	1480.4043	1490.4257	1499.4568	1844.579	2242.5616	2906.1631	2960.4952	2981.919	3009.2166	3029.3404	3041.0549	3067.59	3113.8247	3116.6732	3507.039
CC(CC#C)OCC=O	C[C@@H](CC#C)OCC=O	
InChI=1S/C7H10O2/c1-3-4-7(2)9-6-5-8/h1,5,7H,4,6H2,2H3	InChI=1S/C7H10O2/c1-3-4-7(2)9-6-5-8/h1,5,7H,4,6H2,2H3/t7-/m0/s1
