18
gdb 83674	2.5332	1.61736	1.32246	4.185	75.3	-0.2262	0.0067	0.2329	1022.6185	0.149535	-398.083024	-398.074804	-398.07386	-398.116419	30.849	
N	 0.3021510555	 1.3396568223	 0.3217751666	-0.499693
C	 0.0503578237	-0.0739896683	 0.1204428831	-0.041179
C	-1.4529973235	-0.4821372375	 0.0602878021	 0.031897
C	-2.4833430935	 0.620324213	-0.2447015336	-0.240778
C	-2.2309320691	 0.3245267165	-1.7464624706	-0.180444
N	-1.3436998427	-0.8466865418	-1.4122942575	-0.146001
C	 0.1252388486	-0.5341625795	-1.3777062275	-0.113901
C	 0.6429658694	 0.4237234961	-2.3442474956	 0.295555
N	 1.0733201849	 1.1808349239	-3.1054165099	-0.34136
H	 0.2444380092	 1.573636874	 1.3082776115	 0.236085
H	 1.238371877	 1.5828761553	 0.0115412099	 0.245524
H	 0.6392534957	-0.7393822977	 0.7681545066	 0.069747
H	-1.7450814666	-1.2826602586	 0.7450007878	 0.077446
H	-3.4915786063	 0.3788285569	 0.0969809794	 0.105808
H	-2.2086820024	 1.6200248683	 0.0921657469	 0.123688
H	-3.1035522255	 0.001703715	-2.3199885194	 0.113025
H	-1.7269278267	 1.1219409237	-2.2992124885	 0.13625
H	 0.6944796223	-1.4627909415	-1.4921629812	 0.128332
38.3119	132.2973	174.9661	199.5649	268.6793	346.1574	378.773	494.3583	539.611	582.1265	709.114	734.6448	770.8691	801.8686	832.2081	870.0898	900.1171	928.4551	987.0698	1018.0238	1029.9756	1065.5582	1093.7242	1160.3818	1164.4283	1194.6222	1216.5287	1236.2883	1255.7266	1272.3568	1310.8506	1329.534	1332.4689	1350.5879	1387.6323	1471.8501	1509.9847	1649.6395	2346.953	2980.5012	3049.534	3056.9926	3067.7975	3082.5989	3104.7556	3142.5672	3493.3109	3573.7824
NC1C2CCN2C1C#N	N[C@H]1[C@H]2CCN2[C@H]1C#N	
InChI=1S/C6H9N3/c7-3-5-6(8)4-1-2-9(4)5/h4-6H,1-2,8H2	InChI=1S/C6H9N3/c7-3-5-6(8)4-1-2-9(4)5/h4-6H,1-2,8H2/t4-,5+,6+/m1/s1
