15
gdb 73082	2.50643	1.93103	1.36912	1.7689	66.79	-0.2591	-0.0691	0.19	927.1672	0.112924	-457.766362	-457.759102	-457.758158	-457.798021	27.953	
O	 0.2264437481	 1.3566411343	-0.2407031005	-0.476107
C	 0.035113459	-0.0044858725	-0.0326886825	 0.25214
C	 0.1426514944	-0.9171783415	-1.291968031	-0.129559
O	-1.2223431	-1.3667200267	-1.150270469	-0.29033
C	-1.3896646787	-0.5944431133	 0.0660459019	 0.019486
C	-1.3327507253	-1.5009506771	 1.2716854811	-0.061666
C	-0.1459217492	-1.4589114478	 1.8964318091	-0.177879
C	 0.7443119407	-0.4830038392	 1.2351655008	 0.311915
O	 1.8050936788	-0.0349422543	 1.6128758843	-0.350981
H	 1.0325437167	 1.5883007113	 0.24522274	 0.29549
H	 0.2807539488	-0.3212886203	-2.1998923102	 0.126453
H	 0.8636151765	-1.742132284	-1.2643068985	 0.111332
H	-2.2494955063	 0.0796781645	 0.023841394	 0.105927
H	-2.1608336104	-2.1489821485	 1.5376981347	 0.132386
H	 0.1495290868	-2.0237230349	 2.7716343458	 0.131392
98.5602	201.9027	246.6556	296.6677	318.3678	412.8967	443.8284	500.0982	581.9284	676.3649	709.6772	749.4239	820.4348	853.9492	913.1978	970.7638	997.3724	999.7798	1013.2464	1047.1176	1070.5618	1104.0898	1152.0565	1175.0246	1216.9302	1270.1563	1313.2024	1348.7723	1365.954	1420.7991	1502.0709	1631.0848	1806.6917	3029.7078	3080.2023	3091.1712	3196.3204	3225.5557	3715.2216
OC12COC1C=CC2=O	O[C@]12CO[C@H]1C=CC2=O	
InChI=1S/C6H6O3/c7-4-1-2-5-6(4,8)3-9-5/h1-2,5,8H,3H2	InChI=1S/C6H6O3/c7-4-1-2-5-6(4,8)3-9-5/h1-2,5,8H,3H2/t5-,6-/m0/s1
