18
gdb 47601	2.33521	1.95417	1.15176	3.7305	72.66	-0.2325	0.0231	0.2556	1047.2963	0.15027	-439.099856	-439.092372	-439.091428	-439.131964	28.709	
O	 0.0804707309	 0.0577282195	 0.2677746958	-0.374895
C	 0.0435046876	 1.2371926676	-0.03049287	 0.325054
C	-1.2786621011	 2.0109702603	-0.0900328236	-0.1767
O	-1.1694225971	 3.4196562755	-0.2442149367	-0.249761
C	-0.0797571418	 3.9674148419	 0.4815124227	-0.112626
C	 1.1971865863	 3.462079945	-0.168275105	 0.047157
C	 2.5259657078	 3.3127017201	 0.6245404399	-0.274793
C	 2.4792862774	 1.7889642063	 0.2960430619	-0.17015
N	 1.1456776533	 1.9899878215	-0.2975557073	-0.081368
H	-1.8715308378	 1.6435074224	-0.9325413803	 0.142833
H	-1.8198930866	 1.7556091949	 0.8334463961	 0.125527
H	-0.1725461073	 5.0551998531	 0.421837151	 0.117884
H	-0.1191898187	 3.6692175302	 1.542837469	 0.093095
H	 1.3238821691	 3.9440265817	-1.1447624063	 0.095183
H	 3.3794466003	 3.8670539098	 0.2334962741	 0.117338
H	 2.4174156255	 3.5250924494	 1.6906626971	 0.117684
H	 3.2245862799	 1.4507394423	-0.4299608275	 0.122057
H	 2.4656947122	 1.0967859784	 1.1414346092	 0.136481
114.901	124.8342	203.9729	265.8108	318.6936	426.3367	477.5289	489.545	582.7656	629.9097	673.5391	748.7275	829.4382	912.5068	943.4056	948.9381	1002.7623	1015.8705	1046.7749	1091.4401	1120.8984	1142.3208	1166.6303	1194.4553	1216.213	1240.1707	1260.0437	1283.574	1299.7597	1318.8609	1346.9928	1365.1759	1406.3184	1424.035	1472.7127	1485.361	1496.2068	1520.2606	1778.381	2967.2466	3003.3671	3035.1348	3055.4575	3077.4224	3092.9084	3095.1936	3108.3195	3139.8072
O=C1COCC2CCN12	O=C1COC[C@H]2CCN12	
InChI=1S/C6H9NO2/c8-6-4-9-3-5-1-2-7(5)6/h5H,1-4H2	InChI=1S/C6H9NO2/c8-6-4-9-3-5-1-2-7(5)6/h5H,1-4H2/t5-/m1/s1
