19
gdb 40404	4.14399	1.24875	1.09918	1.7345	79.58	-0.2404	0.003	0.2434	1143.8426	0.159963	-385.867342	-385.859691	-385.858747	-385.899577	30.47	
C	-0.3695026755	 1.2262446582	-0.2837212417	-0.270633
C	 1.028926962	 1.2358366314	 0.277816969	-0.263697
C	 0.3100298528	-0.0754348438	 0.0492647632	-0.108284
C	-0.1339914617	-0.8843871889	 1.2223373492	 0.414415
C	 0.7649917946	-1.9930209851	 1.7813889175	-0.331692
C	-0.2133226988	-2.9505804032	 2.429075072	-0.078481
C	-1.4811617109	-2.5609934726	 2.2702988113	-0.076878
C	-1.5285304267	-1.2617258601	 1.538999664	-0.069202
O	-0.8526568801	-0.1862835764	 2.2454530284	-0.300348
H	-1.1651738048	 1.5465042828	 0.3785154143	 0.128269
H	-0.5117458761	 1.4733216236	-1.3296660675	 0.10688
H	 1.8542761586	 1.4898803621	-0.3776502069	 0.109261
H	 1.1456517805	 1.5635875051	 1.3048028079	 0.124625
H	 0.6586281437	-0.6754522298	-0.7870320868	 0.084012
H	 1.3436848437	-2.4776390178	 0.983908339	 0.109067
H	 1.4901112472	-1.590762147	 2.4987363161	 0.125432
H	 0.1107309309	-3.8290920863	 2.9757817287	 0.101158
H	-2.3604899811	-3.0761775279	 2.6362343176	 0.101222
H	-2.3825373283	-0.9472512143	 0.9472014947	 0.094872
73.0147	149.5011	189.9521	284.1955	363.6146	385.6904	462.365	529.307	633.4299	711.6283	738.609	790.5334	807.9642	826.1721	869.5926	889.6378	916.4859	929.9103	949.001	956.3213	981.4395	1004.4602	1056.949	1063.8024	1089.5687	1112.5888	1132.3159	1140.3599	1150.6352	1191.1497	1205.6098	1226.669	1268.7035	1306.3204	1368.1765	1392.7161	1444.9505	1457.3581	1463.3156	1500.2302	1660.8169	3024.634	3064.1034	3136.4565	3139.1328	3145.1576	3165.8235	3190.7639	3219.385	3219.9979	3235.0714
C1CC1C12CC=CC1O2	C1CC1[C@]12CC=C[C@H]1O2	
InChI=1S/C8H10O/c1-2-7-8(5-1,9-7)6-3-4-6/h1-2,6-7H,3-5H2	InChI=1S/C8H10O/c1-2-7-8(5-1,9-7)6-3-4-6/h1-2,6-7H,3-5H2/t7-,8-/m1/s1
