16
gdb 67320	3.24504	1.46314	1.23178	1.852	75.98	-0.2453	0.0267	0.272	1025.789	0.122965	-400.612172	-400.604511	-400.603567	-400.644038	30.207	
O	-0.0782256903	 1.3835391871	-0.0356046769	-0.459081
C	 0.0189882939	 0.0098963835	-0.0388226256	 0.352126
C	 0.4049135346	-0.9821931741	 1.1120541198	-0.074291
C	-1.0199909717	-1.0298417335	 1.6720063151	-0.269804
C	-1.1777433667	-0.9532354087	 0.1495098987	-0.038654
N	 0.0226863654	-1.9197886532	-0.0568494081	-0.155582
C	 0.6567128978	-0.9446470061	-1.0671170123	-0.256287
C	 0.1448389539	-0.9969251139	-2.4184047582	 0.330772
C	-0.2839778668	-1.0191456463	-3.5417000991	-0.421619
H	 0.808164682	 1.7619231797	-0.0169602672	 0.287445
H	 1.3686267396	-1.0967498515	 1.6117974631	 0.083186
H	-1.3220385553	-1.9693986146	 2.1406918699	 0.112238
H	-1.3534479332	-0.161323478	 2.2427535562	 0.11352
H	-2.0643416211	-1.0391246141	-0.4770558275	 0.101181
H	 1.7510672035	-1.0120134393	-1.0504279691	 0.096513
H	-0.6630357055	-1.0453031669	-4.5334686987	 0.198337
128.5281	130.196	246.0788	300.759	327.6695	384.4301	396.6723	517.7842	564.9132	621.8966	646.7049	657.0095	758.8916	816.3328	855.9684	886.356	896.4868	930.0749	951.7825	978.5982	1026.8726	1038.545	1071.2675	1106.2046	1142.3446	1167.7655	1179.2243	1206.5165	1225.4025	1263.9671	1301.0496	1342.1404	1405.0106	1487.4286	2232.6999	3038.5448	3068.7172	3100.7035	3134.0538	3136.8349	3502.6663	3800.4244
OC12C3CC1N3C2C#C	O[C@@]12[C@H]3C[C@@H]1N3[C@H]2C#C	
InChI=1S/C7H7NO/c1-2-4-7(9)5-3-6(7)8(4)5/h1,4-6,9H,3H2	InChI=1S/C7H7NO/c1-2-4-7(9)5-3-6(7)8(4)5/h1,4-6,9H,3H2/t4-,5-,6+,7+/m0/s1
