20
gdb 100867	2.43658	1.01176	0.74884	2.786	75.68	-0.2791	0.0257	0.3048	1496.1036	0.168867	-440.291337	-440.280566	-440.279622	-440.327569	37.969	
C	-0.085547301	 1.5696268533	 0.0890493427	-0.418384
C	-0.0313312652	 0.0384508734	 0.001825222	 0.020694
C	-1.4450693297	-0.5534189278	 0.0267501097	-0.09401
O	-2.0491036536	-0.1749542926	 1.2531473354	-0.420026
C	 0.739212552	-0.4393637799	-1.2561103407	-0.16515
C	 2.1960756467	 0.0916812807	-1.3325555636	-0.075443
O	 2.8782909968	-0.3656189012	-2.4761232656	-0.416628
C	 0.7992564163	-1.9034749755	-1.3351193393	 0.266147
N	 0.9117188742	-3.0528611305	-1.4018422334	-0.341338
H	 0.8973585681	 2.0099578096	 0.2742456429	 0.122103
H	-0.4832703565	 2.0020813979	-0.8372192767	 0.114513
H	-0.7461080622	 1.8592187476	 0.9081428666	 0.14845
H	 0.489321777	-0.3490050792	 0.8868881974	 0.102338
H	-2.0172549634	-0.1709298927	-0.8359147968	 0.087087
H	-1.3934337244	-1.64731483	-0.0668831928	 0.11475
H	-2.92740257	-0.5640045109	 1.2903648839	 0.292448
H	 0.2170906484	-0.0882238496	-2.1561340112	 0.130434
H	 2.1706279532	 1.1802273126	-1.4103828611	 0.126405
H	 2.7214847986	-0.1707797883	-0.4016398811	 0.10684
H	 2.9791211746	-1.322238617	-2.406552538	 0.29877
53.5663	94.7853	114.1951	143.2746	162.7673	215.502	232.1348	254.1337	299.9162	344.3833	353.7867	395.953	423.6157	478.4053	566.8513	627.75	816.4803	867.8382	933.5239	944.738	1018.6735	1037.3267	1075.5887	1085.6348	1112.7859	1137.1113	1169.7803	1200.7149	1233.0249	1264.9696	1289.6869	1326.6174	1347.2583	1376.9794	1387.6925	1406.1953	1424.9293	1463.1138	1494.1791	1503.8026	1512.09	1523.2188	2345.3016	2957.9255	2991.9973	3017.1767	3026.9524	3033.0119	3043.6567	3105.325	3117.0509	3140.3155	3793.5823	3836.767
CC(CO)C(CO)C#N	C[C@@H](CO)[C@@H](CO)C#N	
InChI=1S/C6H11NO2/c1-5(3-8)6(2-7)4-9/h5-6,8-9H,3-4H2,1H3	InChI=1S/C6H11NO2/c1-5(3-8)6(2-7)4-9/h5-6,8-9H,3-4H2,1H3/t5-,6+/m0/s1
