22
gdb 117647	2.80484	0.99942	0.88667	2.3948	79.13	-0.2417	0.0347	0.2764	1429.9182	0.190583	-441.51603	-441.504285	-441.503341	-441.554345	40.861	
C	-0.0139102102	 1.3881597808	 0.0124194464	-0.226174
O	-0.0028902124	-0.0181249596	-0.0063857053	-0.24838
C	 0.6646267327	-0.5745842054	 1.1097788528	-0.061747
C	 0.6222336029	-2.1081358669	 0.9922536188	 0.095682
C	-0.84598069	-2.5840389244	 0.9822662541	-0.415462
C	 1.3363158346	-2.545909639	-0.3041970074	-0.415143
C	 1.3585625473	-2.6723229806	 2.2229109201	 0.403674
N	 1.4244636084	-4.032776652	 2.3016990842	-0.524651
O	 1.8552917358	-1.9612913046	 3.0782816782	-0.374537
H	 1.0055749241	 1.8050087019	-0.0019743891	 0.105402
H	-0.5461765844	 1.7248241779	-0.8808643633	 0.122997
H	-0.529072882	 1.7809247721	 0.9033067698	 0.105379
H	 1.7078261777	-0.2290533538	 1.149911462	 0.098946
H	 0.1856552355	-0.2556197889	 2.0469280324	 0.098706
H	-1.3854740278	-2.0799283196	 0.1773436288	 0.140677
H	-0.9260301248	-3.6639567965	 0.822505882	 0.0966
H	-1.3438723893	-2.3465493089	 1.9279408342	 0.12215
H	 2.3979751045	-2.2797987899	-0.2785762876	 0.122209
H	 1.2646697517	-3.6259702731	-0.4667899666	 0.096676
H	 0.8792897591	-2.041577975	-1.1585172506	 0.140556
H	 1.0231756946	-4.6412035568	 1.6117617318	 0.25728
H	 1.8981095919	-4.4372240576	 3.0922243843	 0.259162
18.6861	60.8952	81.3699	113.6937	146.2478	199.5394	237.2936	245.8507	269.2531	282.1315	322.9633	366.3405	370.6659	376.9008	526.8378	567.5403	593.7227	740.2721	775.1323	864.1209	937.8413	969.0984	987.909	1004.9368	1046.8395	1084.624	1157.8268	1172.388	1190.1678	1200.758	1235.6899	1256.1795	1288.2629	1350.174	1397.677	1406.6264	1429.8494	1477.2877	1481.1646	1484.1613	1493.2515	1496.5062	1504.7605	1514.3868	1520.6402	1614.0868	1778.68	2969.2303	2993.4536	3014.2507	3027.3477	3036.1503	3040.5454	3100.352	3103.9428	3110.5438	3127.7059	3130.4314	3611.2776	3749.6252
COCC(C)(C)C(N)=O	COCC(C)(C)C(=O)N	
InChI=1S/C6H13NO2/c1-6(2,4-9-3)5(7)8/h4H2,1-3H3,(H2,7,8)	InChI=1S/C6H13NO2/c1-6(2,4-9-3)5(7)8/h4H2,1-3H3,(H2,7,8)
