18
gdb 126218	1.76432	1.67951	0.95192	2.1102	74.49	-0.2477	-0.0139	0.2338	1251.5312	0.147414	-439.081173	-439.072065	-439.071121	-439.116172	32.391	
C	-0.3287878567	 1.4437500957	 0.0232042828	-0.368044
C	 0.127481277	-0.024612056	 0.0765112324	-0.319563
C	 0.8012389079	-0.4802247787	-1.1851048524	 0.0817
C	 2.129349621	-0.6883904532	-1.4271937021	 0.298899
C	 3.3598975044	-0.5950855507	-0.5749020143	-0.182277
O	 3.1899312074	-1.1797129966	 0.7076700385	-0.399116
O	 2.3153971643	-1.0769346391	-2.7054808705	-0.210437
N	 1.0877934149	-1.1272617495	-3.354319706	-0.144331
C	 0.20999128	-0.7765046512	-2.4477363429	-0.033689
H	 0.5224535042	 2.1139951881	-0.1309895193	 0.121715
H	-1.0349866534	 1.6118469457	-0.7962985908	 0.119555
H	-0.8219282792	 1.7295536286	 0.9573127061	 0.117349
H	 0.8169960782	-0.1700449106	 0.9124206767	 0.129745
H	-0.7427626354	-0.6629717638	 0.2733844834	 0.108494
H	 4.1992354785	-1.0386943088	-1.1285037847	 0.124565
H	 3.6140298654	 0.4530016138	-0.3837432369	 0.136915
H	 2.9524140206	-2.1044537931	 0.5793930184	 0.29007
H	-0.836878279	-0.7469961607	-2.7195785384	 0.12845
47.6985	55.7675	156.0567	161.7125	200.2333	251.6571	340.017	350.5571	423.4603	428.2722	637.6683	660.904	681.1029	764.18	797.3857	917.2218	930.5238	955.2946	969.5919	978.5572	1055.7705	1072.9071	1083.2035	1175.6926	1193.2455	1207.0351	1260.362	1297.0826	1357.6588	1376.8417	1404.6012	1413.3272	1429.0509	1491.4069	1495.7514	1496.5429	1504.7285	1510.7159	1663.7547	3014.0396	3031.1769	3036.7001	3071.8611	3089.6093	3110.6759	3113.6358	3232.1366	3809.7224
CCC1=C(CO)ON=C1	CCc1c(CO)onc1	
InChI=1S/C6H9NO2/c1-2-5-3-7-9-6(5)4-8/h3,8H,2,4H2,1H3	InChI=1S/C6H9NO2/c1-2-5-3-7-9-6(5)4-8/h3,8H,2,4H2,1H3
