15
gdb 54823	3.1642	1.85732	1.62773	3.1328	63.34	-0.2435	0.011	0.2545	840.4666	0.117427	-453.97025	-453.964361	-453.963417	-454.000429	24.582	
O	 0.3010804318	 0.3854824224	-0.5859038726	-0.350644
C	-0.1124843105	 1.1965758611	 0.1980127572	 0.442536
O	 0.6497864242	 1.5750961244	 1.2725584901	-0.26042
C	-1.4315489743	 1.8722179953	 0.128937311	-0.245876
C	-2.0962069331	 2.2297031456	 1.4768607132	-0.039902
N	-1.2462941181	 2.093347481	 2.637956946	-0.277174
C	 0.0278540186	 2.5700127133	 2.1496303702	 0.090625
N	-0.3305532921	 3.7545353069	 1.402920355	-0.277173
H	 0.4375072214	 4.0426247599	 0.8044206619	 0.242157
C	-1.4958390074	 3.3188136218	 0.6671549309	-0.039921
H	-2.0571547547	 1.5939658272	-0.7091516964	 0.116157
H	-3.1598736419	 2.0854428299	 1.6098760353	 0.121521
H	-1.1649589328	 1.1356802891	 2.9656339187	 0.24216
H	 0.7643661215	 2.7452414588	 2.9314321108	 0.114442
H	-2.0669279026	 4.0681118831	 0.1358359985	 0.121513
142.539	379.4579	426.1485	447.5556	499.658	558.0869	649.0568	670.6424	765.8443	781.6779	822.2034	836.3567	844.0084	876.003	897.01	929.4453	990.1305	1003.489	1027.7821	1059.4469	1081.4677	1098.8213	1145.8916	1165.7376	1196.724	1249.5099	1333.8803	1353.2959	1354.9425	1396.7695	1420.5789	1457.1674	1847.5101	3146.6268	3204.4764	3205.5351	3216.1694	3531.102	3531.569
[O-]C(=O)C1C2NC=[NH+]C12	O=C1O[C@@H]2N[C@@H]3[C@H]1[C@@H]3N2	
InChI=1S/C5H6N2O2/c8-5(9)2-3-4(2)7-1-6-3/h1-4H,(H,6,7)(H,8,9)	InChI=1S/C5H6N2O2/c8-4-1-2-3(1)7-5(6-2)9-4/h1-3,5-7H/t1-,2+,3-,5+
