23
gdb 63165	2.28172	1.60439	1.28514	1.3058	85.63	-0.2259	0.0804	0.3064	1144.8746	0.204849	-388.29384	-388.284213	-388.283269	-388.327456	37.085	
C	-0.0651264077	 1.5319571681	 0.0875886288	-0.456345
C	 0.0083451572	 0.018847125	 0.0188143102	 0.264785
C	-1.2565970512	-0.6112908555	-0.541456889	-0.462266
C	 1.3161076207	-0.6913751287	-0.3448367994	-0.161623
C	 2.6340914059	 0.0779343711	-0.3052120305	-0.26289
C	 2.916753384	 0.1776873623	 1.2087932184	-0.075072
O	 1.6509712927	 0.0649373881	 1.8636033841	-0.297776
C	 0.7979824642	-0.7446028671	 1.07142618	 0.384448
C	 0.313187419	-1.9654359585	 1.8095238495	-0.467808
H	 0.7596131632	 1.9603288848	 0.6581172128	 0.128398
H	-0.0650402078	 1.9730542898	-0.9163751387	 0.107716
H	-0.9948896083	 1.8400008373	 0.5796605335	 0.112344
H	-1.4910315595	-0.1818030046	-1.5227723477	 0.115019
H	-1.1628929426	-1.6924078536	-0.6738816996	 0.112532
H	-2.1163926639	-0.4261602721	 0.1130592847	 0.115994
H	 1.2428126674	-1.5575149225	-0.9943688325	 0.079891
H	 3.4271864576	-0.4639133556	-0.8278291343	 0.101623
H	 2.5554998536	 1.0672008584	-0.7673414388	 0.106673
H	 3.5823568534	-0.637445273	 1.5325887201	 0.091674
H	 3.3665158617	 1.1270284324	 1.5147064587	 0.103513
H	-0.2510552492	-1.6743262988	 2.7021277142	 0.125603
H	-0.3336311687	-2.5885000424	 1.1881881899	 0.11578
H	 1.1623290083	-2.5753327548	 2.1360937156	 0.117786
122.2799	161.745	175.5326	187.9053	190.9267	224.1888	282.0529	305.3841	353.3526	363.9547	472.1205	504.118	609.5132	650.6569	712.6444	738.9204	840.9587	886.349	912.3402	937.4691	967.8198	972.328	980.2055	1027.5822	1050.953	1062.7484	1111.9594	1122.8896	1152.9182	1169.3824	1203.4545	1223.4278	1249.7004	1259.9232	1304.3315	1314.6518	1384.5577	1402.7683	1408.5176	1425.1559	1434.0001	1478.289	1484.5926	1489.7156	1493.4183	1498.093	1508.6247	1514.7014	1520.3136	2981.0389	3021.758	3027.7758	3035.2892	3049.6322	3077.5312	3078.2187	3080.5237	3093.3334	3095.648	3106.0048	3126.8669	3136.9546	3158.418
CC1(C)C2CCOC12C	CC1(C)[C@H]2CCO[C@@]12C	
InChI=1S/C8H14O/c1-7(2)6-4-5-9-8(6,7)3/h6H,4-5H2,1-3H3	InChI=1S/C8H14O/c1-7(2)6-4-5-9-8(6,7)3/h6H,4-5H2,1-3H3/t6-,8-/m1/s1
