20
gdb 62072	4.21421	0.66739	0.61662	4.3891	77.98	-0.242	0.0306	0.2726	1799.5928	0.169594	-440.283984	-440.273999	-440.273055	-440.320548	34.508	
C	 0.049554775	 1.3838046255	 0.0354017616	-0.349953
N	-0.0140042123	-0.0657712595	-0.0289397246	-0.029821
C	-0.1135085597	-0.8242583079	 1.2034998896	-0.175214
C	-1.4882308392	-0.7286210366	 1.8890669032	-0.230851
C	-1.5248823231	-1.5472082128	 3.1561000023	 0.100906
C	-2.6939597659	-2.3427906325	 3.5479184967	-0.17901
O	-1.5388355132	-2.9690696833	 2.9868365992	-0.235908
C	 0.0473945678	-0.6899328327	-1.2417200931	 0.149249
O	 0.1272276439	-0.1367650695	-2.3183439328	-0.342372
H	 0.8696775985	 1.7032477276	 0.6897670865	 0.122484
H	 0.2235047828	 1.7516608718	-0.9758725925	 0.170577
H	-0.8839016417	 1.8153832125	 0.4146733611	 0.126051
H	 0.0893951101	-1.8753819392	 0.9765252964	 0.138567
H	 0.6703274263	-0.4881504594	 1.8970563017	 0.106847
H	-1.7219823966	 0.3151470769	 2.1313869879	 0.108675
H	-2.2588660065	-1.0859067634	 1.1976344192	 0.114077
H	-0.8561857507	-1.2103408563	 3.9513473984	 0.094348
H	-2.8776998944	-2.5563952287	 4.5998440097	 0.118597
H	-3.5793315852	-2.3408378487	 2.9134053937	 0.117431
H	 0.0180689642	-1.7919764437	-1.1331943943	 0.075323
49.0935	55.7056	84.2635	105.9464	146.2901	203.5532	294.5634	333.4995	348.2468	395.3619	437.2556	460.1642	705.427	767.4484	812.9166	869.5352	888.5702	949.0765	1004.2282	1030.5544	1041.9291	1090.2761	1101.6742	1130.7325	1159.6366	1161.6811	1172.2966	1220.0864	1277.9231	1292.0202	1303.7341	1321.053	1404.5343	1431.0014	1439.7114	1441.7073	1447.7904	1474.3486	1495.0787	1499.0458	1520.7599	1531.7063	1795.4184	2939.8887	3005.9837	3021.1295	3037.3602	3070.9776	3074.4446	3083.8936	3087.4313	3099.5624	3155.3862	3171.1993
CN(CCC1CO1)C=O	CN(CC[C@H]1CO1)C=O	
InChI=1S/C6H11NO2/c1-7(5-8)3-2-6-4-9-6/h5-6H,2-4H2,1H3	InChI=1S/C6H11NO2/c1-7(5-8)3-2-6-4-9-6/h5-6H,2-4H2,1H3/t6-/m0/s1
