21
gdb 67210	2.5881	1.6757	1.29569	1.2245	81.91	-0.231	0.0734	0.3044	1068.5222	0.181867	-387.039499	-387.030975	-387.030031	-387.071692	34.718	
C	 0.016344714	 1.5581623352	-0.0295064021	-0.462469
C	 0.0472273433	 0.0308846386	 0.0124756652	 0.341567
C	-1.3640433315	-0.5294323786	 0.2148676159	-0.44222
C	 0.7827407904	-0.7165814942	-1.1081767954	-0.138211
C	 2.2960480084	-0.7938427803	-0.7275926862	-0.169283
C	 2.4599533373	-0.117626408	 0.6323296682	-0.250639
C	 1.0577646285	-0.6822585976	 0.9807187912	-0.168823
C	 1.2828062848	-1.7680075812	-0.1775463048	 0.379725
O	 1.1275983603	-3.1274398158	-0.254049903	-0.461434
H	 0.988395697	 1.9896715114	-0.2783315469	 0.115557
H	-0.6959757353	 1.9024200931	-0.7884180751	 0.109884
H	-0.3057344937	 1.9734269667	 0.9329863228	 0.108892
H	-2.0229602366	-0.2470623359	-0.6142806784	 0.107053
H	-1.3530626057	-1.6218738495	 0.2783866734	 0.12756
H	-1.8085532638	-0.1386229543	 1.1378053756	 0.105355
H	 0.4799493299	-0.8453809013	-2.1408151377	 0.080785
H	 3.0376469273	-0.9626692561	-1.4984089311	 0.084464
H	 3.2438309583	-0.6057035686	 1.2199399332	 0.089982
H	 2.6001299544	 0.9661986792	 0.6838465377	 0.091298
H	 0.7696095803	-0.8768993522	 2.0133806313	 0.062097
H	 1.8625422524	-3.5476887005	 0.2073487863	 0.28886
150.9707	192.8963	217.0752	258.5021	312.4228	321.8243	340.2109	370.0151	391.9198	479.1272	545.3511	588.8108	641.9513	736.9908	769.5177	836.2719	895.7465	912.9683	930.3432	950.9544	957.8268	971.1794	994.3678	1016.4379	1022.317	1042.8719	1091.5199	1108.706	1128.8486	1170.27	1197.4194	1211.9374	1236.7258	1252.5305	1276.5649	1299.7809	1342.5272	1402.0639	1421.5494	1482.3663	1484.1029	1489.3615	1503.2301	1504.6629	1520.8343	3021.0328	3027.1001	3045.8349	3080.2576	3085.2148	3090.7502	3105.0728	3118.9759	3120.2074	3183.4061	3196.8548	3781.8534
CC1(C)C2C3CC1C23O	CC1(C)[C@H]2[C@H]3C[C@@H]1[C@@]23O	
InChI=1S/C8H12O/c1-7(2)5-3-4-6(7)8(4,5)9/h4-6,9H,3H2,1-2H3	InChI=1S/C8H12O/c1-7(2)5-3-4-6(7)8(4,5)9/h4-6,9H,3H2,1-2H3/t4-,5+,6-,8-/m1/s1
