16
gdb 49405	4.55147	1.29217	1.26871	1.1232	70.75	-0.2329	-0.0322	0.2007	995.5161	0.125426	-400.663094	-400.656562	-400.655618	-400.694503	25.656	
O	-0.0619670034	-0.0850342219	-0.2558357759	-0.251436
C	-0.0258503018	 1.1036836561	-0.0558867281	 0.148221
C	 1.2282433139	 1.9284446181	-0.0263564148	-0.095259
C	 1.3026354134	 3.2408142688	-0.8719058439	-0.101845
C	 0.2512103001	 4.2177211071	-0.305783394	-0.046942
C	 0.3811542408	 3.9675175105	 1.1561256815	-0.046923
C	 1.4848991114	 2.8898215437	 1.1790631369	-0.101855
C	 2.2064563433	 3.8900479715	 0.2224751552	 0.018755
N	 1.2212769356	 5.0309599093	 0.5052916189	-0.176215
H	-0.9619613531	 1.6804918175	 0.1258841706	 0.074704
H	 2.0962327207	 1.2895640721	-0.2127759625	 0.097091
H	 1.5143305039	 3.2337404288	-1.938245662	 0.089991
H	-0.6086231521	 4.6649834789	-0.7879760919	 0.105175
H	-0.3698184945	 4.2052572497	 1.8986794271	 0.105177
H	 1.875941321	 2.5373192429	 2.1302507657	 0.090003
H	 3.2759750708	 4.0744431069	 0.1589990272	 0.091359
73.0598	144.3516	249.6243	420.2774	493.7221	565.7304	754.1794	785.1421	790.0272	795.818	828.7405	833.2449	856.1453	886.4599	915.7187	925.3654	976.0676	996.7161	1038.3474	1039.4122	1053.6047	1104.8605	1119.057	1144.5422	1147.9752	1176.3014	1206.4256	1224.2466	1235.5775	1257.4115	1302.7374	1315.2725	1352.3877	1428.8637	1822.7529	2866.915	3083.7537	3143.4408	3149.9566	3156.7282	3191.7925	3203.0277
O=CC1C2C3C4C1C2N34	O=C[C@H]1[C@H]2[C@H]3[C@H]4[C@@H]1[C@@H]2N34	
InChI=1S/C7H7NO/c9-1-2-3-5-4(2)7-6(3)8(5)7/h1-7H	InChI=1S/C7H7NO/c9-1-2-3-5-4(2)7-6(3)8(5)7/h1-7H/t2-,3+,4-,5+,6-,7+,8?
