17
gdb 78093	2.80956	1.22633	1.01072	1.6892	75.	-0.2473	0.0496	0.2969	1193.3262	0.133522	-421.748763	-421.739889	-421.738945	-421.781982	34.037	
O	-0.1520114388	 1.4132003704	 0.0794119552	-0.419987
C	-0.1240855986	 0.0150307839	 0.0229737232	 0.002862
C	-0.4885415615	-0.8742676573	 1.1902832164	-0.179381
C	-1.5700281998	-0.1771104502	 2.0463574353	-0.170037
C	-2.5042709159	-0.1221723088	 0.7797541083	-0.311923
C	-1.3903587235	-0.7667503502	-0.0505790885	 0.368836
O	-1.6141295312	-1.7300295083	-1.0172209573	-0.459042
C	-2.0764816879	-0.9638663083	 3.1528421468	 0.298764
C	-2.4923097787	-1.6248755387	 4.0674447683	-0.431758
H	 0.6089208184	 1.7079694579	 0.5915650006	 0.29027
H	 0.6661309997	-0.4064329307	-0.6002198283	 0.094126
H	 0.150033759	-1.678564221	 1.533629305	 0.103997
H	-1.2663451172	 0.8144511343	 2.396227103	 0.097387
H	-3.3531330182	-0.7975212146	 0.889734695	 0.126519
H	-2.8441290777	 0.8692149774	 0.471177775	 0.109676
H	-1.6722048855	-1.2931337529	-1.874423337	 0.288366
H	-2.8624672227	-2.2027397729	 4.877381469	 0.191324
87.9015	148.3154	193.346	231.7948	253.7022	288.3515	330.7278	367.8023	449.5763	505.469	519.6764	594.7677	614.2477	624.4984	633.6349	755.5758	804.2671	856.9046	918.6946	957.6485	990.7152	1029.8386	1036.574	1070.964	1130.8277	1138.7164	1211.4673	1213.0893	1229.8757	1268.6625	1288.2581	1306.5919	1340.3965	1357.6725	1461.1264	1498.8761	2236.0172	3053.5152	3072.1231	3099.5743	3142.9181	3195.7204	3505.9175	3792.3505	3800.5907
OC1C2C(CC12O)C#C	O[C@H]1[C@H]2[C@@H](C[C@@]12O)C#C	
InChI=1S/C7H8O2/c1-2-4-3-7(9)5(4)6(7)8/h1,4-6,8-9H,3H2	InChI=1S/C7H8O2/c1-2-4-3-7(9)5(4)6(7)8/h1,4-6,8-9H,3H2/t4-,5-,6+,7+/m1/s1
