20
gdb 71291	2.61739	1.92208	1.46449	0.5533	77.79	-0.23	0.0891	0.3191	972.4129	0.173035	-403.113861	-403.106435	-403.105491	-403.145119	30.532	
C	-0.0099179087	 1.4873079913	 0.0455672112	-0.455788
C	 0.0410149283	-0.0266155268	-0.0134316279	 0.31076
C	 0.3008458884	-0.6501320512	-1.4167393828	-0.295129
C	-1.0367325049	-1.3584497807	-1.2557180117	-0.047193
C	-1.2098574146	-2.060093752	 0.0352799647	-0.016632
C	-0.1417880105	-2.7073930914	 0.8920610956	-0.113864
O	 1.090025536	-2.0143171247	 0.9052151761	-0.245071
C	 0.9098666698	-0.6204184254	 1.0877571414	-0.119588
N	-1.3822056326	-0.5930224475	 0.0202185161	-0.190127
H	 0.9772369387	 1.9199053982	-0.151643149	 0.112651
H	-0.71380656	 1.8730291555	-0.697168701	 0.124504
H	-0.3478743667	 1.8262053182	 1.0309461225	 0.121578
H	 0.2687035922	 0.1064743681	-2.2041067559	 0.10339
H	 1.1894495632	-1.2712290406	-1.5426703968	 0.114302
H	-1.7718496562	-1.4708195148	-2.047740639	 0.090656
H	-2.1730911022	-2.5581677612	 0.1431927336	 0.094178
H	-0.5396349765	-2.7885965878	 1.9192320217	 0.095419
H	 0.0739690824	-3.7211632199	 0.5380577696	 0.114447
H	 1.9121603233	-0.1805359773	 1.0712613136	 0.107965
H	 0.4537086607	-0.40869228	 2.070164898	 0.093541
178.9327	217.6951	269.5921	280.927	343.5631	376.1339	387.2442	476.8017	545.8397	620.8156	707.0382	769.0124	787.9083	822.5996	856.3016	896.2818	923.0654	963.1813	971.4548	1002.4494	1036.5806	1049.8355	1063.9233	1107.9204	1143.0438	1149.5139	1184.6699	1216.9618	1234.5456	1267.0386	1273.3591	1287.5836	1326.861	1357.2792	1382.3106	1408.9394	1419.783	1449.9794	1480.1607	1485.2546	1487.8003	1494.002	1497.66	2950.2187	2964.4522	3030.0547	3067.3177	3068.1132	3076.4539	3099.2916	3111.5781	3113.6545	3122.1684	3148.4853
CC12CC3C(COC1)N23	C[C@@]12C[C@H]3[C@@H](COC1)N23	
InChI=1S/C7H11NO/c1-7-2-5-6(8(5)7)3-9-4-7/h5-6H,2-4H2,1H3	InChI=1S/C7H11NO/c1-7-2-5-6(8(5)7)3-9-4-7/h5-6H,2-4H2,1H3/t5-,6+,7+,8?/m0/s1
