15
gdb 30608	4.76946	1.07877	0.88468	1.7791	72.12	-0.2384	-0.0351	0.2033	1255.4018	0.114189	-454.017042	-454.008991	-454.008047	-454.050381	28.382	
C	-0.0083808748	 1.3732888197	-0.0049329831	-0.241394
O	 0.014213986	-0.0593347842	-0.0194122982	-0.215323
C	 0.619574361	-0.6068793983	-1.0768457163	 0.406032
O	 1.1281958659	 0.0177886526	-1.985199501	-0.410522
C	 0.6148513803	-2.0763237276	-1.0439669801	 0.227276
N	 0.1144723737	-2.9076692949	-0.1476281665	-0.291541
C	 0.3952711912	-4.1566504267	-0.6218546513	-0.089877
C	 1.0745836623	-4.0822522943	-1.8208039151	-0.092156
N	 1.2059662165	-2.7492476496	-2.0753040159	-0.255348
H	 1.0082008844	 1.7749143097	-0.0001959019	 0.141785
H	-0.5349140916	 1.759559097	-0.8814350179	 0.141891
H	-0.5331140192	 1.6488400362	 0.9093540739	 0.139673
H	 0.099102796	-5.0448261441	-0.0846156162	 0.115999
H	 1.4597492088	-4.8361696331	-2.4870913109	 0.13975
H	 1.6460863694	-2.2941655225	-2.8594927894	 0.283755
87.3242	103.2368	129.8883	153.2064	237.594	316.3534	396.7118	511.0346	614.1267	675.1198	684.072	767.8904	802.0259	818.2553	871.0539	928.3799	972.3498	1018.9749	1103.5495	1124.5926	1178.2043	1190.5322	1202.5401	1228.5194	1328.1953	1427.6609	1442.6453	1478.7458	1479.6735	1481.6851	1496.743	1569.6722	1775.5224	3051.5405	3125.1677	3163.7862	3250.556	3280.8154	3655.3684
COC(=O)C1=NC=CN1	COC(=O)c1ncc[nH]1	
InChI=1S/C5H6N2O2/c1-9-5(8)4-6-2-3-7-4/h2-3H,1H3,(H,6,7)	InChI=1S/C5H6N2O2/c1-9-5(8)4-6-2-3-7-4/h2-3H,1H3,(H,6,7)
