21
gdb 114642	2.83479	1.25169	1.10482	2.8829	82.01	-0.2311	-0.0013	0.2298	1217.0334	0.183893	-387.10376	-387.09544	-387.094495	-387.136718	32.504	
C	-0.0180938683	 1.5534068018	 0.0134348533	-0.385405
C	-0.0033139017	 0.022356154	 0.0646325579	-0.200695
C	-1.4009268194	-0.5993587051	-0.0056871801	 0.039123
C	-2.1213888436	-0.4529683125	-1.4026515307	-0.239476
C	-2.3852465324	-1.9381073402	-1.735319137	-0.13624
C	-2.8715345484	-2.4866730542	-0.3515822278	-0.257445
C	-1.4205111142	-2.1438190127	 0.1255008309	-0.153593
C	-1.0427686577	-2.5636734431	-1.3083100166	 0.441589
O	-0.1879829831	-3.2189647569	-1.826211789	-0.332517
H	 0.9960622553	 1.9600049363	 0.0697247693	 0.116545
H	-0.4711031785	 1.9214910134	-0.9132216652	 0.118608
H	-0.5911535382	 1.9700413301	 0.8493994514	 0.113964
H	 0.61174592	-0.3719962782	-0.7548616361	 0.109851
H	 0.4840887392	-0.3036857864	 0.9925278506	 0.097293
H	-2.0210536135	-0.1628019062	 0.7860682194	 0.071656
H	-3.0509214342	 0.118866322	-1.3389155745	 0.104308
H	-1.4811482049	 0.0277857462	-2.1484188922	 0.110224
H	-2.8717003429	-2.184816285	-2.6767144385	 0.081701
H	-3.6800061776	-1.9313211478	 0.1304508292	 0.104853
H	-3.0858146135	-3.5567273325	-0.3587715509	 0.116463
H	-0.9646079926	-2.5901047129	 1.0073739365	 0.079195
93.0433	121.7454	173.933	203.7394	249.4482	381.0983	404.0469	434.0101	468.1623	619.16	641.3853	763.7849	786.8463	813.5999	829.8842	854.0813	909.1427	931.7507	966.384	970.2832	1004.3118	1008.8404	1047.824	1052.3272	1061.912	1099.3939	1119.3356	1161.2966	1177.031	1207.0221	1222.4033	1248.1841	1249.2733	1294.5988	1309.8345	1320.2672	1355.7028	1393.5659	1411.8618	1484.8863	1494.0793	1500.1007	1505.851	1507.6035	1898.0733	3017.6466	3026.3866	3032.1127	3052.8093	3054.1166	3065.4908	3096.3875	3099.8872	3106.1567	3132.9287	3139.6503	3145.0289
CCC1CC2CC1C2=O	CC[C@H]1C[C@@H]2C[C@H]1C2=O	
InChI=1S/C8H12O/c1-2-5-3-6-4-7(5)8(6)9/h5-7H,2-4H2,1H3	InChI=1S/C8H12O/c1-2-5-3-6-4-7(5)8(6)9/h5-7H,2-4H2,1H3/t5-,6+,7+/m0/s1
