18
gdb 9880	5.17653	0.98224	0.92411	2.0185	74.12	-0.2407	0.0593	0.3	1277.7399	0.150675	-347.753754	-347.74453	-347.743585	-347.787936	33.602	
O	-0.0578000183	 1.4258369681	-0.2120278291	-0.473757
C	-0.0134573989	 0.0273443317	-0.0586715792	 0.445031
C	 1.1034081705	-0.5350913174	-0.9069506292	-0.223183
C	 2.4880600742	-0.0067952458	-0.4739012357	-0.355167
C	 3.5726493212	-0.5262483767	-1.2962434438	 0.295977
C	 4.4473177933	-0.9726718904	-1.9899106503	-0.444438
C	-0.3337436786	-0.5890409897	 1.2772555541	-0.332707
C	-1.2950083608	-0.7427752114	 0.1056777957	-0.338489
H	-0.6297315674	 1.7979712659	 0.4656167817	 0.282277
H	 1.0902739681	-1.6276211638	-0.8496752928	 0.107451
H	 0.9275448191	-0.2652706059	-1.9540641196	 0.119682
H	 2.4736161166	 1.0875511175	-0.5171559509	 0.148094
H	 2.664129736	-0.2701464284	 0.5770625812	 0.125167
H	 5.2297319944	-1.3558273876	-2.5963664409	 0.190259
H	 0.2277564662	-1.4577895959	 1.6051178918	 0.119038
H	-0.6302644366	 0.0714060144	 2.0872590645	 0.106859
H	-2.2173426348	-0.1714517514	 0.1378766065	 0.110053
H	-1.3910325342	-1.7166715533	-0.3626609239	 0.117853
61.9232	99.1507	117.524	121.7463	217.3952	318.7249	328.5023	359.6612	418.6496	494.1676	516.4968	612.5785	634.0908	734.2033	768.5919	778.6259	866.7915	930.4522	938.139	970.0032	987.6582	1034.9579	1040.7936	1053.0235	1065.6815	1163.6047	1182.9286	1192.2399	1278.1897	1290.3672	1349.1032	1369.6441	1435.0568	1459.6215	1473.8741	1487.0681	1502.1841	2237.98	3027.0433	3049.5429	3070.7125	3099.1632	3118.3505	3127.1257	3198.501	3216.1973	3508.054	3832.6272
OC1(CCC#C)CC1	OC1(CCC#C)CC1	
InChI=1S/C7H10O/c1-2-3-4-7(8)5-6-7/h1,8H,3-6H2	InChI=1S/C7H10O/c1-2-3-4-7(8)5-6-7/h1,8H,3-6H2
