23
gdb 119971	3.08753	0.85362	0.82615	2.0891	83.49	-0.2484	0.0704	0.3187	1576.878	0.204504	-425.399321	-425.3888	-425.387856	-425.435281	38.243	
C	-0.4963778038	 1.5009680042	 0.2706624082	-0.379758
C	 0.0957335621	 0.1309743458	-0.0831993373	-0.191599
C	 0.8423309653	-0.4759740873	 1.0873774352	-0.043406
C	 0.1528163955	-1.4133770699	 2.0443801355	 0.103305
O	-1.1597659263	-1.7946752121	 1.7552609987	-0.430424
C	 1.2586751246	-1.9425660261	 1.1575657709	-0.121285
C	 0.8928999216	-2.9410212215	 0.0876991896	-0.099331
O	 0.2425271696	-4.0502554337	 0.7122942614	-0.242851
C	-0.092316065	-5.0708404717	-0.20176308	-0.22991
H	 0.2852064847	 2.206679834	 0.5740078882	 0.108798
H	-1.0239683759	 1.9354858092	-0.5842055121	 0.10744
H	-1.2074631493	 1.4127411017	 1.0978417803	 0.130181
H	-0.7164560406	-0.5361514475	-0.3834204141	 0.113766
H	 0.7694089804	 0.231315631	-0.9442308227	 0.088064
H	 1.5565447083	 0.2034019815	 1.5478869539	 0.08021
H	 0.3653193775	-1.3104189093	 3.1081323296	 0.08154
H	-1.1354821648	-2.7524966665	 1.6235030461	 0.292851
H	 2.2042025222	-2.1468623662	 1.6507507673	 0.087167
H	 0.2252287388	-2.5075769985	-0.6688858165	 0.101303
H	 1.7933711374	-3.2936874939	-0.4388363452	 0.095326
H	-0.5811271335	-5.8691097254	 0.3617791733	 0.129849
H	-0.7799491984	-4.7117128865	-0.9832823539	 0.109194
H	 0.8035213096	-5.4791270913	-0.6940115965	 0.109569
62.1859	72.9129	115.0028	137.6048	185.2268	225.1551	245.1818	271.3971	289.2438	297.3073	403.1406	505.6278	538.5072	583.5598	641.3729	758.2001	802.3316	820.6956	879.1778	961.2093	966.607	990.0961	1032.9904	1050.2469	1071.1608	1113.0449	1131.8603	1146.7745	1170.7083	1189.4306	1192.9292	1221.5064	1258.4667	1273.6636	1303.7886	1335.016	1360.9425	1388.0271	1400.9965	1411.05	1427.1365	1452.628	1480.8089	1483.805	1486.8347	1498.3573	1504.5349	1506.4081	1525.5743	2973.8169	2985.5149	3021.2125	3023.2768	3030.7188	3031.614	3084.2938	3097.9289	3102.9688	3110.9228	3116.5007	3127.7646	3150.4325	3739.4025
CCC1C(O)C1COC	CC[C@H]1[C@@H](O)[C@H]1COC	
InChI=1S/C7H14O2/c1-3-5-6(4-9-2)7(5)8/h5-8H,3-4H2,1-2H3	InChI=1S/C7H14O2/c1-3-5-6(4-9-2)7(5)8/h5-8H,3-4H2,1-2H3/t5-,6+,7-/m1/s1
