18
gdb 62021	3.93372	0.71754	0.66273	3.4213	69.97	-0.2552	-0.0302	0.225	1666.3421	0.144883	-476.277066	-476.266613	-476.265669	-476.315347	35.546	
C	 0.0633924457	 1.4994008713	 0.1144259999	-0.408111
C	 0.0282498151	-0.034942072	 0.0090002178	-0.082578
C	 0.7769658985	-0.7024735257	 1.1673588021	-0.074614
O	 2.1429058624	-0.2733715195	 1.1150393825	-0.263953
C	 2.8447746641	-0.4110965089	 2.2731161906	 0.497609
N	 4.1173083395	 0.0499875436	 2.0944165241	-0.562382
O	 2.3926020312	-0.8443871951	 3.3055284697	-0.392062
C	-1.4142316058	-0.5107644323	 0.0265379658	 0.154192
O	-1.9413301169	-1.1524640345	-0.8435422969	-0.24057
H	 1.0966330886	 1.8484914771	 0.1655760372	 0.140211
H	-0.4181289826	 1.9626761058	-0.7511402804	 0.130332
H	-0.4540346301	 1.8435700782	 1.0173492549	 0.124105
H	 0.4659942795	-0.3625603676	-0.9390232821	 0.104326
H	 0.3501759961	-0.43068664	 2.1375654682	 0.134408
H	 0.7425389115	-1.7942015586	 1.0780627252	 0.124756
H	 4.4611172228	 0.1800888348	 1.1582992961	 0.26605
H	 4.7793796017	-0.183877372	 2.8139072478	 0.271641
H	-1.9824123214	-0.2014609246	 0.9365008274	 0.076642
12.6777	46.1944	55.4883	111.5632	191.6857	217.5594	267.83	294.2156	344.1226	353.495	369.226	492.111	533.7954	562.7438	673.9369	781.5676	864.5102	909.618	928.963	933.5129	974.3265	1094.5774	1112.2713	1131.6565	1154.9171	1172.1279	1271.1294	1284.8224	1340.4854	1359.8618	1398.0656	1424.3895	1430.0758	1494.7037	1502.6562	1517.7663	1612.8377	1837.6498	1839.8996	2847.6579	3038.4036	3040.8484	3068.8128	3096.325	3109.6964	3134.7279	3615.7167	3745.0678
CC(COC(N)=O)C=O	C[C@@H](COC(=O)N)C=O	
InChI=1S/C5H9NO3/c1-4(2-7)3-9-5(6)8/h2,4H,3H2,1H3,(H2,6,8)	InChI=1S/C5H9NO3/c1-4(2-7)3-9-5(6)8/h2,4H,3H2,1H3,(H2,6,8)/t4-/m1/s1
