15
gdb 33708	3.94522	1.50472	1.26609	1.1019	77.15	-0.2204	-0.0102	0.2102	969.533	0.112121	-383.406585	-383.39971	-383.398765	-383.437525	28.22	
C	 0.1169217654	-1.1515122839	-0.0011196682	-0.377157
C	-0.008223697	 0.045853891	-0.0171840637	 0.13337
C	-0.1277987881	 1.4658820924	-0.034047613	 0.159499
C	-1.2366991451	 2.2054069072	 0.6156676552	-0.153308
C	-1.2833621694	 3.4662636693	 0.1612661337	-0.100043
C	-0.093558865	 3.6758224831	-0.7302682969	 0.00539
O	 1.0939353041	 3.644183504	 0.1909596766	-0.290397
C	 1.2665881971	 2.3005856408	-0.1280300379	 0.069274
C	 0.3146228896	 2.2676804765	-1.2537988665	-0.198204
H	 0.2159197894	-2.2083479318	 0.0137223811	 0.184308
H	-1.8429505066	 1.7730443177	 1.4010165395	 0.113674
H	-1.9189322175	 4.2636855597	 0.5211244406	 0.111296
H	-0.0443381204	 4.5483179992	-1.3780562095	 0.094141
H	 2.2022981444	 1.8117219979	 0.1098012639	 0.132291
H	 0.3594522592	 1.8880993769	-2.2664079448	 0.115867
144.954	155.2683	378.5144	399.5563	468.3471	490.3226	525.1829	558.5374	600.207	631.2858	665.3072	722.0832	761.9685	806.9246	815.9069	858.1307	879.2571	919.4452	932.8281	974.1584	992.5007	1074.2583	1093.1706	1101.0988	1177.7469	1206.613	1226.7329	1251.2654	1304.5385	1354.4446	1380.0715	1624.3916	2231.7201	3144.7503	3193.4988	3213.8523	3214.5456	3237.7326	3504.1397
C#CC12C=CC3OC1C23	C#C[C@@]12C=C[C@H]3O[C@@H]1[C@@H]23	
InChI=1S/C8H6O/c1-2-8-4-3-5-6(8)7(8)9-5/h1,3-7H	InChI=1S/C8H6O/c1-2-8-4-3-5-6(8)7(8)9-5/h1,3-7H/t5-,6+,7-,8+/m1/s1
