20
gdb 9777	3.75443	1.45871	1.3818	2.1435	70.35	-0.2526	0.0646	0.3172	1002.2004	0.177772	-386.154689	-386.146264	-386.14532	-386.18756	32.226	
O	-0.1317523275	 1.439978518	 0.1185306088	-0.437025
C	-0.0156206429	 0.0198842638	 0.0416457583	-0.154568
C	-1.4344414657	-0.5346776785	-0.0358455822	 0.431937
O	-2.1591477651	-0.08021096	 1.1096624424	-0.490317
C	-2.1904673249	-0.1444224253	-1.3267007586	-0.226277
C	-3.3097194463	-1.1907860016	-1.3970229627	-0.201453
C	-2.5862026223	-2.5013735896	-1.0282698138	-0.202754
C	-1.4832139785	-2.0816126064	-0.019022734	-0.24689
H	 0.708699564	 1.8037717165	 0.4092922618	 0.293636
H	 0.564656256	-0.2848123486	-0.8423228333	 0.086368
H	 0.4792778344	-0.3816555476	 0.9377038251	 0.093985
H	-1.963963002	 0.8636706931	 1.1757363803	 0.27989
H	-2.5415630327	 0.8897581928	-1.2961898334	 0.096712
H	-1.5232807003	-0.2454311874	-2.1930951913	 0.084644
H	-4.0671503804	-0.9537876794	-0.6428970314	 0.111215
H	-3.8061321507	-1.2344219693	-2.3703913478	 0.085227
H	-3.2619085704	-3.2561321829	-0.6175683269	 0.096229
H	-2.130311009	-2.9377033672	-1.9241574785	 0.093651
H	-0.5115206155	-2.5077787028	-0.2892315659	 0.089535
H	-1.7071680201	-2.4012780876	 1.0010896629	 0.116255
54.955	130.355	217.389	220.3975	251.4935	353.6945	386.5653	402.3011	467.5077	480.9359	574.2537	669.1642	747.7786	804.6069	861.6106	896.9006	913.4076	929.5299	967.2396	1010.7367	1032.408	1055.7674	1060.4956	1097.2377	1133.7249	1190.9643	1221.4413	1236.4513	1245.7751	1270.4921	1294.0007	1311.7985	1336.5858	1345.4026	1350.9681	1408.1264	1447.4533	1478.0833	1480.6792	1488.6366	1507.3146	1510.6653	2982.0112	3021.2024	3026.805	3037.324	3051.5216	3054.273	3085.847	3098.5148	3104.419	3113.3352	3768.5398	3843.713
OCC1(O)CCCC1	OCC1(O)CCCC1	
InChI=1S/C6H12O2/c7-5-6(8)3-1-2-4-6/h7-8H,1-5H2	InChI=1S/C6H12O2/c7-5-6(8)3-1-2-4-6/h7-8H,1-5H2
