16
gdb 49404	4.21556	1.45875	1.28425	4.0805	73.52	-0.2276	0.0288	0.2564	970.4037	0.126207	-400.713126	-400.706693	-400.705749	-400.744657	25.824	
O	-0.0303739786	-0.0120765085	-0.2195217439	-0.344799
C	 0.03037753	 1.1970778474	-0.1285825272	 0.139573
N	 1.1732236224	 1.9103923452	 0.0205821892	-0.002077
C	 2.5062587948	 1.3974230632	 0.1006732756	-0.029168
C	 3.4766091077	 2.3982878124	-0.5076358087	-0.110212
C	 3.3442461814	 2.2899315149	 1.0034423773	-0.110168
C	 2.5514613846	 3.6178057122	 1.029350978	-0.114455
C	 2.683765587	 3.7262821393	-0.4818571548	-0.114448
C	 1.3536461649	 3.3240043611	 0.1379561652	-0.035995
H	-0.8596045955	 1.8563335161	-0.158884548	 0.068476
H	 2.6336616921	 0.3276380534	 0.0352105571	 0.137784
H	 4.29378545	 2.1367758004	-1.1642783274	 0.099912
H	 4.0386567696	 1.9275440939	 1.7476263437	 0.09992
H	 2.574516831	 4.3805297004	 1.7945123586	 0.099002
H	 2.829766578	 4.5892344856	-1.1156959118	 0.098999
H	 0.4805736607	 3.9612619531	 0.1072838069	 0.117656
41.2322	207.9509	287.7809	483.3037	560.5443	606.8189	700.9366	710.4841	755.4176	767.6962	796.0905	820.8038	835.5376	896.2572	908.1655	911.2993	972.9201	991.0997	999.7382	1010.5079	1024.0632	1035.5258	1042.8778	1061.2722	1100.0136	1200.3401	1228.4869	1240.7802	1262.791	1264.66	1314.4869	1375.0497	1431.618	1485.6837	1788.2716	2935.6142	3208.5875	3214.6305	3217.8898	3221.3618	3228.7726	3251.055
O=CN1C2C3C2C2C3C12	O=CN1[C@H]2[C@@H]3[C@H]2[C@H]2[C@@H]3[C@@H]12	
InChI=1S/C7H7NO/c9-1-8-6-2-3(6)5-4(2)7(5)8/h1-7H	InChI=1S/C7H7NO/c9-1-8-6-2-3(6)5-4(2)7(5)8/h1-7H/t2-,3+,4-,5+,6+,7-
