17
gdb 26343	4.03895	1.09251	0.87645	2.0589	72.18	-0.1855	0.0366	0.2221	1290.7446	0.135621	-455.166652	-455.157756	-455.156812	-455.200214	32.462	
C	 0.0195150231	 1.3783688106	 0.013929387	-0.333081
N	 0.2475373655	-0.0508547616	 0.0113772261	-0.155645
C	-0.1848166738	-0.7672390524	 1.2021587074	-0.340987
C	 0.0977175461	-0.678226875	-1.2074246203	 0.359167
C	-0.0987243576	-0.1416141881	-2.4440002299	-0.185083
O	-0.0933993145	-1.2099283154	-3.3530604282	-0.20886
C	 0.079556831	-2.2854513157	-2.5746800148	 0.484021
O	 0.1122066033	-3.476110256	-3.1710989693	-0.404248
N	 0.1993381741	-2.0682118649	-1.3097479266	-0.414283
H	 0.6324740684	 1.8519614195	-0.760012295	 0.129738
H	-1.0352296314	 1.647848007	-0.1689242586	 0.107638
H	 0.3164002417	 1.7900280958	 0.981989921	 0.124906
H	-1.2743241047	-0.7065251392	 1.3619545627	 0.104659
H	 0.092586201	-1.8165994406	 1.1091777113	 0.165386
H	 0.3142851518	-0.3406098368	 2.0776733635	 0.116845
H	-0.2348538939	 0.8371417327	-2.8607459094	 0.133514
H	-0.00505237	-3.34169468	-4.1193433569	 0.316315
80.1067	132.4797	184.6553	195.5908	228.9647	279.1816	349.9924	355.0819	377.0423	415.2645	544.0287	557.115	595.8781	694.2026	752.4419	760.7323	934.8746	998.172	1034.8744	1083.7014	1087.4072	1130.5383	1176.5354	1196.32	1231.6877	1250.5395	1308.5657	1396.8521	1441.4984	1444.7908	1468.0605	1484.2622	1494.2607	1506.2938	1517.4747	1661.9253	1704.1077	2956.1646	2967.639	3063.3893	3074.5853	3113.5669	3158.5944	3325.4214	3816.0342
CN(C)C1=COC(O)=N1	CN(C)c1coc(O)n1	
InChI=1S/C5H8N2O2/c1-7(2)4-3-9-5(8)6-4/h3H,1-2H3,(H,6,8)	InChI=1S/C5H8N2O2/c1-7(2)4-3-9-5(8)6-4/h3H,1-2H3,(H,6,8)
