16
gdb 79620	2.43647	1.82941	1.47236	4.4284	68.37	-0.233	-0.0332	0.1998	930.6666	0.126116	-437.857181	-437.850385	-437.849441	-437.888323	27.647	
O	 0.2776376205	 1.342850339	 0.1434956659	-0.414105
C	 0.0144638339	 0.0000781188	 0.0259105968	 0.12915
C	-1.3416657977	-0.6483331112	 0.05276222	-0.131629
C	-2.5674387919	 0.1945432354	-0.2779070492	-0.036866
N	-2.2625120929	 1.6002615763	-0.6407856846	-0.362844
C	-2.5280504118	 0.5960243164	-1.7056981813	-0.167994
C	-1.2693748133	-0.0160182978	-2.3129581203	 0.447738
O	-1.0303914932	-0.0457790067	-3.4945870775	-0.325712
C	-0.4998034879	-0.7238678968	-1.2339358489	-0.247274
H	-0.5353607918	 1.8088074931	-0.1369396021	 0.306588
H	 0.7966357708	-0.5766772996	 0.5129520099	 0.116624
H	-1.510275187	-1.5232982987	 0.6706312681	 0.09759
H	-3.4978102615	-0.010830547	 0.2377639458	 0.108871
H	-3.0847416675	 2.1855331976	-0.5211464338	 0.250776
H	-3.3951411506	 0.7281276933	-2.341473132	 0.116648
H	 0.0395886319	-1.6088052821	-1.5501688269	 0.112437
114.3802	197.6995	289.01	400.2414	425.6766	472.3327	582.3901	623.9178	673.2785	706.6856	721.8964	762.2132	788.6551	821.8018	859.7099	861.4976	919.5469	937.9007	966.5592	1026.3879	1052.2184	1070.55	1114.2661	1121.8708	1146.162	1188.7268	1236.4073	1256.2699	1310.6044	1344.3878	1353.9207	1361.9539	1415.5748	1513.1035	1825.5844	3143.3303	3167.5349	3185.2965	3187.7009	3197.3957	3500.9509	3513.0747
OC1C2C3NC3C(=O)C12	O[C@H]1[C@H]2[C@H]3N[C@H]3C(=O)[C@@H]12	
InChI=1S/C6H7NO2/c8-5-1-2(5)6(9)4-3(1)7-4/h1-5,7-8H	InChI=1S/C6H7NO2/c8-5-1-2(5)6(9)4-3(1)7-4/h1-5,7-8H/t1-,2-,3-,4-,5+/m1/s1
