20
gdb 5802	3.349	1.38152	1.25138	3.3992	71.92	-0.2426	0.0578	0.3004	1086.0078	0.175617	-382.376735	-382.367034	-382.36609	-382.410296	36.65	
C	-0.0584972369	 1.5647230983	 0.0878132411	-0.396272
C	 0.012372392	 0.028706767	 0.0430450384	 0.288423
C	 0.7022029083	-0.516201077	 1.3081540205	-0.40101
C	-1.4046927761	-0.5511232804	-0.0736657578	-0.424007
N	 0.7311921043	-0.3992087999	-1.1762751597	-0.362349
C	 2.0527963098	-0.1155573007	-1.4265988518	 0.450975
N	 2.5652273622	-0.791474116	-2.5358387	-0.561659
O	 2.7430157455	 0.630804896	-0.7532940094	-0.397106
H	 0.9443667224	 1.9902864759	 0.1282290184	 0.154403
H	-0.5675799464	 1.9508769204	-0.8008707805	 0.104484
H	-0.6173989164	 1.8874937648	 0.9719538524	 0.103846
H	 0.1540677647	-0.2084853929	 2.2047099549	 0.105505
H	 0.7347926936	-1.6109271329	 1.289491008	 0.100107
H	 1.7238108	-0.1386355463	 1.3736037073	 0.152361
H	-1.9041907702	-0.1888088243	-0.9781168713	 0.115945
H	-1.3849174491	-1.6473000499	-0.1037371328	 0.108188
H	-2.006193274	-0.255204728	 0.7899029041	 0.1238
H	 0.3708101728	-1.2335845445	-1.6132159288	 0.232366
H	 1.9314101499	-0.965330864	-3.3023836814	 0.2443
H	 3.4502075237	-0.4048819057	-2.8293787615	 0.2577
83.257	119.1793	192.1401	220.0111	271.0966	278.6745	321.4437	339.526	342.7077	373.2212	418.2134	438.4725	460.3141	507.53	581.5243	656.8948	779.6587	789.3829	913.8376	922.3599	932.9467	962.8928	1042.8869	1053.4305	1072.6654	1113.8893	1238.039	1251.0611	1263.2885	1338.5084	1390.3198	1393.6235	1422.911	1470.7101	1489.7133	1491.4562	1493.3359	1505.5598	1526.7058	1535.8695	1625.9474	1790.3719	3024.9633	3034.4053	3042.644	3091.4708	3098.737	3105.7673	3119.343	3143.1241	3153.5187	3566.1685	3612.6602	3678.5039
CC(C)(C)NC(N)=O	CC(C)(C)NC(=O)N	
InChI=1S/C5H12N2O/c1-5(2,3)7-4(6)8/h1-3H3,(H3,6,7,8)	InChI=1S/C5H12N2O/c1-5(2,3)7-4(6)8/h1-3H3,(H3,6,7,8)
