17
gdb 54360	2.10685	1.73761	1.19665	1.5409	69.3	-0.2413	-0.046	0.1952	1064.1699	0.136019	-455.165913	-455.157157	-455.156213	-455.199624	32.104	
N	 0.6537756369	 0.3523933394	-0.9523403839	-0.526191
C	-0.0156561838	 0.2276160552	 0.219703509	 0.335662
O	 0.3740332509	 0.6629833678	 1.2879968392	-0.368142
C	-1.3239210231	-0.590141912	 0.1440475634	 0.130948
C	-1.0493893383	-2.1396283135	 0.2260273846	-0.275065
C	-1.4801573847	-2.0177727564	 1.7060863353	-0.152024
N	-2.0322399222	-0.6640801705	 1.4303350208	-0.348629
C	-2.2257043104	-0.2123187664	-1.0159491381	 0.106136
O	-1.8587395034	-0.0395259963	-2.1554657672	-0.272552
H	 1.4608971688	 0.9564987519	-0.9605438543	 0.260975
H	 0.1532462649	 0.1801528402	-1.81482018	 0.278384
H	-1.7353866348	-2.7242414453	-0.3901801678	 0.123258
H	-0.0250845417	-2.4455274969	 0.0146200817	 0.132267
H	-2.2242513576	-2.7365986904	 2.0616774808	 0.108101
H	-0.6266139978	-2.0150858909	 2.3922717822	 0.118367
H	-1.6842175234	 0.0436753403	 2.072744488	 0.23595
H	-3.2957687005	-0.1538042562	-0.7276290037	 0.112556
77.1821	98.7663	129.2968	206.8469	250.4249	268.6425	332.6237	413.1229	474.08	496.6784	602.2743	642.3111	678.1626	738.5276	776.0531	787.4876	897.87	929.6576	972.6545	977.4954	1037.8453	1101.4682	1120.5574	1147.7985	1165.6979	1210.8894	1226.2428	1256.4932	1328.2544	1344.6402	1388.0959	1422.6718	1486.3676	1517.7367	1617.8924	1789.0399	1799.3554	2928.7764	3038.6876	3078.5858	3087.3163	3145.1904	3502.133	3531.0782	3682.5707
NC(=O)C1(CCN1)C=O	NC(=O)[C@]1(CCN1)C=O	
InChI=1S/C5H8N2O2/c6-4(9)5(3-8)1-2-7-5/h3,7H,1-2H2,(H2,6,9)	InChI=1S/C5H8N2O2/c6-4(9)5(3-8)1-2-7-5/h3,7H,1-2H2,(H2,6,9)/t5-/m0/s1
