19
gdb 72214	3.27978	1.64757	1.36806	1.4508	80.52	-0.2137	0.0229	0.2366	1001.3793	0.160725	-385.872749	-385.865443	-385.864499	-385.903974	29.973	
C	-0.0282201873	 1.5091993081	-0.0816171519	-0.493278
C	-0.0538479508	 0.0178493798	-0.0228956656	 0.463324
O	 0.7233496839	-0.699417187	-0.9792616722	-0.330834
C	-0.2661011729	-1.7786412521	-0.9927586916	 0.095997
C	 0.3687269499	-3.0842171255	-0.5368120633	-0.272915
C	 0.9224407101	-2.9614731414	 0.8617573576	-0.0794
C	 0.6479297729	-1.9238841886	 1.654742424	-0.035047
C	-0.259585649	-0.8279512455	 1.2416396135	-0.150664
C	-1.1375764783	-1.0210995313	 0.0194271974	-0.22965
H	 0.9818661384	 1.8829943521	 0.1200013706	 0.134203
H	-0.3309084544	 1.8660298826	-1.0714912702	 0.127942
H	-0.7034784801	 1.9355279032	 0.6656135333	 0.123158
H	-0.7161489242	-1.8595710357	-1.9874667216	 0.079347
H	-0.359088979	-3.9068427554	-0.6090254128	 0.104659
H	 1.1761156273	-3.3356610336	-1.2371792618	 0.116558
H	 1.5777603831	-3.755631549	 1.2083212711	 0.08536
H	 1.0898596143	-1.8603813338	 2.6450877842	 0.084322
H	-0.732748072	-0.2649355174	 2.041271569	 0.084826
H	-2.217046782	-0.9473010594	 0.0165465005	 0.092092
186.3967	193.8045	222.858	260.5573	373.2121	401.4738	495.6765	532.347	623.6162	638.7712	696.717	761.3938	789.6296	859.2445	878.0986	907.6443	926.5493	934.4103	978.6419	982.7237	989.4635	1011.1036	1036.3592	1051.7917	1096.6883	1108.0648	1177.0871	1196.8891	1200.5164	1252.613	1312.3722	1318.0838	1329.6808	1376.167	1407.0426	1420.5062	1460.6422	1467.3935	1476.9102	1498.4757	1710.4514	2996.4715	3032.5279	3036.6768	3053.8913	3096.0427	3115.5672	3148.2466	3157.005	3177.4937	3194.0695
CC12OC3CC=CC1C23	C[C@@]12O[C@H]3CC=C[C@@H]1[C@@H]23	
InChI=1S/C8H10O/c1-8-5-3-2-4-6(9-8)7(5)8/h2-3,5-7H,4H2,1H3	InChI=1S/C8H10O/c1-8-5-3-2-4-6(9-8)7(5)8/h2-3,5-7H,4H2,1H3/t5-,6+,7-,8-/m1/s1
