20
gdb 87045	2.34205	1.38924	0.99998	1.8448	85.83	-0.2392	0.0437	0.2829	1257.8159	0.169111	-365.939984	-365.930532	-365.929588	-365.974094	35.97	
C	-0.0372892836	 1.3325575251	-0.22059036	-0.404916
C	 0.2108746925	-0.1201641316	 0.0944311078	-0.022483
N	 1.6089953928	-0.5596759028	 0.1733968948	-0.36358
C	 0.7769425032	-0.6036963616	 1.4002420978	 0.049728
C	 1.1444455283	 0.353275435	 2.4195640355	 0.344148
C	 1.41077318	 1.1267384324	 3.3008623956	-0.438023
C	 0.2992150534	-1.9190364687	 1.9704226705	-0.055001
C	 0.2963964988	-3.2016496732	 1.181144569	-0.297654
C	 1.2739177959	-3.0155513833	 2.3162078571	-0.258886
H	 0.6763502784	 1.9685864196	 0.3067648705	 0.140158
H	 0.0677173867	 1.5132053357	-1.295723743	 0.118794
H	-1.0501549224	 1.6253347588	 0.0757905585	 0.117111
H	-0.4931550196	-0.8189147159	-0.3566518419	 0.087267
H	 1.7178306958	-1.495797224	-0.2097598553	 0.228787
H	 1.6621676896	 1.8153394796	 4.0689670958	 0.191479
H	-0.5288735075	-1.7904073585	 2.6615973075	 0.097694
H	-0.5425142411	-3.8742500035	 1.320598138	 0.116429
H	 0.6876474833	-3.2060018559	 0.1684516577	 0.108516
H	 2.3151016197	-2.8559476554	 2.0568172562	 0.122971
H	 1.1225860157	-3.5742820719	 3.2325957979	 0.117462
70.1162	136.191	145.4904	167.9815	188.8657	244.7465	298.0356	365.6375	454.2839	476.4597	544.2806	600.286	613.2515	632.6952	646.6901	773.6345	804.4961	829.5072	870.3481	892.0775	930.0584	962.89	1019.0697	1031.0699	1059.1522	1077.3441	1081.1389	1115.5818	1137.5406	1153.5822	1195.7228	1221.8907	1232.5681	1258.9041	1317.8756	1404.9367	1409.155	1447.2029	1471.4172	1487.5328	1494.3606	1508.4025	2235.8351	3037.4977	3098.7484	3108.5795	3126.458	3137.583	3138.5026	3147.5145	3205.0571	3225.4851	3493.9004	3503.5691
CC1NC1(C#C)C1CC1	C[C@H]1N[C@]1(C#C)C1CC1	
InChI=1S/C8H11N/c1-3-8(6(2)9-8)7-4-5-7/h1,6-7,9H,4-5H2,2H3	InChI=1S/C8H11N/c1-3-8(6(2)9-8)7-4-5-7/h1,6-7,9H,4-5H2,2H3/t6-,8+/m1/s1
