16
gdb 68774	2.54462	1.74286	1.26355	2.2253	64.87	-0.2485	0.0145	0.263	986.525	0.123797	-475.042146	-475.033696	-475.032752	-475.074964	31.849	
O	 0.1003113897	 1.3636937005	 0.1375673698	-0.469303
C	 0.0473849078	-0.0180672972	 0.0370876261	 0.328699
C	-0.2633331349	-0.8495668659	 1.2590113409	-0.382184
C	-1.2418763647	-0.7977179484	 0.1013811912	 0.245793
O	-2.483903712	-0.2031200679	 0.2299417803	-0.477334
C	-1.1342727076	-1.8822971278	-0.9320054657	 0.361358
O	-2.0617837095	-2.5757182048	-1.3023826899	-0.40112
N	 0.1531636518	-1.8809676489	-1.3888736838	-0.333051
C	 0.9207678444	-0.6899390821	-1.0265950585	-0.23023
H	-0.7309692618	 1.7144781531	-0.2043827836	 0.300483
H	 0.2937255738	-1.7576622754	 1.4697289106	 0.119834
H	-0.5772355366	-0.2713973641	 2.1214238018	 0.135579
H	-3.1051533154	-0.8268337503	-0.1758710524	 0.301254
H	 0.425067358	-2.4948555995	-2.1403538157	 0.258111
H	 1.0451113239	-0.0129865402	-1.8813419337	 0.119796
H	 1.9138341831	-0.9544143412	-0.6461705972	 0.122316
96.228	130.8783	195.1766	223.0094	277.1656	333.8235	349.2933	422.8631	473.0499	498.2234	505.322	611.6117	688.6802	706.0206	737.7188	822.2167	868.3201	918.0952	952.6082	1035.8954	1047.6187	1065.5644	1097.8763	1198.3848	1206.0251	1223.5239	1283.8461	1316.5903	1356.5158	1398.3252	1434.738	1440.4408	1501.61	1525.033	1817.2231	3022.1525	3064.747	3121.1987	3224.2615	3641.9468	3723.2447	3783.5883
OC12CC1(O)C(=O)NC2	O[C@@]12C[C@]1(O)C(=O)NC2	
InChI=1S/C5H7NO3/c7-3-5(9)1-4(5,8)2-6-3/h8-9H,1-2H2,(H,6,7)	InChI=1S/C5H7NO3/c7-3-5(9)1-4(5,8)2-6-3/h8-9H,1-2H2,(H,6,7)/t4-,5+/m1/s1
