18
gdb 95438	2.60967	1.39525	0.96851	14.4512	76.99	-0.1743	-0.0162	0.1581	1200.4065	0.148863	-439.067423	-439.058781	-439.057837	-439.10134	31.741	
C	 0.033554446	 1.6078680838	-0.0424135667	-0.421429
C	 0.0306014	 0.0953595034	 0.0951633153	-0.088674
N	 0.6837489452	-0.5654888528	-1.1568079719	-0.27314
H	 0.0037598715	-0.7899812296	-1.8830343664	 0.299043
H	 1.3334938899	 0.1170900099	-1.547932538	 0.303643
C	 1.4617252202	-1.7849366925	-0.6793566963	-0.250496
C	 1.6389436244	-1.4802431867	 0.778389429	-0.186943
C	 0.8655601761	-0.4827011227	 1.2061832156	 0.22937
C	 0.6598728715	-0.0054183628	 2.6736056304	 0.294886
O	 1.4589187282	-0.4794025058	 3.484678704	-0.453882
O	-0.3178140745	 0.7688715624	 2.7829529023	-0.483221
H	 1.0536477385	 1.9889507743	-0.1735308389	 0.118658
H	-0.5966425433	 1.9548174879	-0.8680672933	 0.105101
H	-0.3472679472	 1.9773505684	 0.9140154929	 0.220796
H	-0.9971214513	-0.2811966533	 0.1380694026	 0.140462
H	 0.8467029731	-2.671050402	-0.8811442253	 0.154164
H	 2.3782599538	-1.8697576016	-1.2717338981	 0.149075
H	 2.2918370177	-2.0529277902	 1.4229315429	 0.142584
57.0246	87.1184	164.5077	203.0106	267.7035	278.5781	335.0469	368.1665	492.8554	525.5527	622.4214	729.8066	768.192	778.2226	801.3985	856.3568	874.1136	888.2331	979.7455	1003.2818	1024.7014	1051.4557	1109.4032	1117.5133	1189.5474	1229.2543	1251.9034	1298.8868	1321.9112	1338.4719	1363.4069	1367.4162	1385.1565	1477.7647	1507.6389	1510.433	1629.5349	1688.5229	1779.4915	3018.421	3028.4001	3060.4602	3079.1178	3096.2997	3126.8556	3237.497	3450.7243	3521.814
CC1[NH2+]CC=C1C([O-])=O	C[C@H]1[NH2]CC=C1C(=O)[O]	
InChI=1S/C6H9NO2/c1-4-5(6(8)9)2-3-7-4/h2,4,7H,3H2,1H3,(H,8,9)	InChI=1S/C6H9NO2/c1-4-5(6(8)9)2-3-7-4/h2,4H,3,7H2,1H3/t4-/m1/s1
