15
gdb 44531	4.68452	1.15361	0.9706	4.3177	79.57	-0.2259	-0.0515	0.1744	1159.4668	0.114775	-416.804417	-416.796958	-416.796014	-416.836256	28.827	
O	 0.1570134485	-0.0534427604	-0.1733885166	-0.356006
C	 0.0259859404	 1.1396332406	-0.0617730919	 0.430439
N	-1.1750091131	 1.8468729824	-0.4142633104	-0.505298
C	-0.9758631224	 3.1676244518	-0.1638198003	 0.417855
C	-1.3125045061	 4.4783770277	-0.0803257911	-0.304656
N	 0.2823732607	 5.4406798484	 1.7775021294	-0.498924
H	 0.0834618129	 6.4357282245	 1.7678694573	 0.232421
H	-0.3583980078	 5.00870119	 2.4367451901	 0.227834
C	 0.1109689619	 4.8733445295	 0.4572045226	-0.154089
C	 0.3674820791	 3.3550148597	 0.335412968	 0.413893
C	 0.9980073809	 2.1764186525	 0.4336910945	-0.506962
H	-1.9856717838	 1.3739479492	-0.7762977058	 0.263567
H	-2.2044970055	 5.057504236	-0.2834010488	 0.108795
H	 0.7056384701	 5.4724829738	-0.2418032835	 0.103307
H	 1.9860257441	 1.9071316244	 0.7746142166	 0.127822
112.7479	160.0004	228.7148	297.1915	316.4351	430.9344	444.6911	503.6211	584.3831	613.2376	715.9193	747.982	787.5448	797.1139	804.6831	845.2759	861.6193	884.1277	914.0548	997.6211	1112.9309	1136.8968	1185.6336	1208.5509	1219.1625	1248.7284	1295.315	1383.6358	1417.6852	1651.6017	1665.3134	1720.5537	1833.109	3045.0074	3209.5249	3254.1852	3494.7506	3580.489	3669.4509
O=C1N[C-]2C3[NH2+]C3C2=C1	O=C1NC2=C[C@@H](N)C2=C1	
InChI=1S/C6H5N2O/c9-3-1-2-4(7-3)6-5(2)8-6/h1,5-6,8H,(H,7,9)/q-1/p+1	InChI=1S/C6H6N2O/c7-4-2-5-3(4)1-6(9)8-5/h1-2,4H,7H2,(H,8,9)/t4-/m1/s1
