19
gdb 112293	2.82401	1.30674	0.99502	4.3103	76.17	-0.2309	0.022	0.253	1223.2299	0.160988	-419.227643	-419.21924	-419.218296	-419.260873	31.973	
C	 0.0790399417	 1.5596642282	 0.0189056219	-0.395873
C	 0.0273980957	 0.0319489489	 0.1092820445	-0.172506
C	-1.389949427	-0.5456019536	 0.0127740343	 0.03807
N	-2.0565246503	-0.2664711201	-1.2566210865	-0.329776
C	-2.6165867191	-1.3377649768	-1.9045828164	 0.456789
O	-3.3118633687	-1.2994035835	-2.8954291308	-0.387726
C	-2.2028178548	-2.5578441633	-1.1100212869	-0.175286
N	-0.7217229226	-2.6988659301	-1.0649474686	-0.326381
C	-1.4360291882	-2.074404563	 0.0607579064	-0.063867
H	 1.1026724317	 1.9235309039	 0.1466436554	 0.122376
H	-0.2701933932	 1.9193035031	-0.9551925179	 0.116552
H	-0.5393265263	 2.0297043638	 0.7923295634	 0.115088
H	 0.6328315931	-0.422813858	-0.6803617734	 0.127743
H	 0.4529248156	-0.2908100737	 1.0681364108	 0.095125
H	-1.9933834141	-0.1514130852	 0.8457336887	 0.079853
H	-2.1698438503	 0.6628533947	-1.6267911191	 0.251691
H	-2.8360971539	-3.4356087476	-1.1187620512	 0.111544
H	-0.5015173762	-3.6628825704	-0.8221419998	 0.238404
H	-1.462010353	-2.5693609675	 1.0246777552	 0.098181
90.556	104.4307	155.9463	215.6515	251.495	332.4508	412.7404	463.3628	478.5972	508.1863	617.5871	707.3057	763.2299	816.1695	829.3373	858.6226	878.9804	899.5647	929.3236	968.2168	1020.7692	1055.0884	1065.4584	1123.0932	1129.5402	1137.9088	1174.9215	1251.3468	1261.5792	1287.8177	1311.102	1348.5123	1372.997	1395.0051	1409.3661	1415.7352	1440.2111	1483.7068	1501.1826	1508.0415	1833.8107	2974.9328	3028.8158	3030.7139	3082.3138	3103.532	3106.9892	3179.2385	3205.1183	3488.9044	3656.263
CCC1NC(=O)C2NC12	CC[C@H]1NC(=O)[C@H]2N[C@@H]12	
InChI=1S/C6H10N2O/c1-2-3-4-5(8-4)6(9)7-3/h3-5,8H,2H2,1H3,(H,7,9)	InChI=1S/C6H10N2O/c1-2-3-4-5(8-4)6(9)7-3/h3-5,8H,2H2,1H3,(H,7,9)/t3-,4+,5+/m1/s1
