15
gdb 30522	2.71724	1.6136	1.01883	3.8027	73.93	-0.2319	-0.0433	0.1886	1110.8178	0.111943	-453.944996	-453.936652	-453.935708	-453.979533	29.467	
C	-0.1533799279	 1.4215474457	 0.0944814822	-0.324106
N	-0.1828190638	-0.0304754661	 0.1385387174	-0.243398
C	 0.6296924781	-0.6318973832	 0.8863018814	 0.335171
O	 1.5361997398	 0.0646077171	 1.658474035	-0.238241
C	 2.4193143378	-0.6260402651	 2.4447421786	-0.035856
C	 2.4333959713	-1.9493427168	 2.5061926858	-0.03409
O	 1.5648493752	-2.730676279	 1.7890964181	-0.225971
C	 0.6368771585	-2.1341606641	 0.9643696771	 0.319303
N	-0.1773685225	-2.8277544518	 0.2977706937	-0.464826
H	 0.8458246096	 1.8054363107	-0.1471996725	 0.128136
H	-0.8598901243	 1.7681894241	-0.6618866122	 0.129595
H	-0.4379333971	 1.8537358999	 1.0625677634	 0.130953
H	 3.0880179344	 0.0166501733	 2.9972200103	 0.144669
H	 3.1149317274	-2.5245146672	 3.1142407526	 0.145875
H	-0.0192997264	-3.8208971375	 0.4807232492	 0.232787
28.5187	61.9741	138.558	203.8098	206.8015	364.9698	498.4937	512.7113	520.4875	525.6698	577.5682	740.5736	761.4725	762.9407	851.6086	903.7743	926.293	959.6522	1046.0113	1069.2928	1101.2257	1143.9807	1153.9039	1190.8566	1282.4574	1353.5372	1400.3551	1433.5222	1482.0555	1498.4819	1739.0119	1749.7567	1764.2709	3011.1311	3064.6229	3120.6345	3246.1355	3266.9077	3473.4503
CN=C1OC=COC1=N	C[N]C1=C(OC=CO1)[NH]	
InChI=1S/C5H6N2O2/c1-7-5-4(6)8-2-3-9-5/h2-3,6H,1H3	InChI=1S/C5H6N2O2/c1-7-5-4(6)8-2-3-9-5/h2-3,6H,1H3
