18
gdb 53197	3.90579	0.96476	0.86766	1.3508	85.83	-0.2252	0.0115	0.2366	1392.1493	0.148011	-364.763295	-364.754668	-364.753724	-364.798591	31.515	
C	 0.0190745523	 1.5460357423	-0.0817173901	-0.49696
C	-0.0120545707	 0.0906679261	-0.0567181473	 0.032628
C	-0.0467730487	-1.1122774397	-0.0275806027	 0.117098
C	-0.0722960924	-2.5721722792	-0.002249841	-0.213343
C	 0.6864455189	-3.1909188543	 1.1739597032	-0.078065
C	-0.0457866836	-4.0846995779	 1.8378268326	-0.055112
C	-1.426412101	-4.1620091521	 1.2746484608	-0.090618
N	-2.1530288247	-2.8652663812	 1.4119580278	-0.318959
C	-1.471335934	-3.1934408872	 0.1483528258	-0.052926
H	 0.4218660357	 1.9514879049	 0.8532042336	 0.146994
H	 0.64306497	 1.9206259891	-0.9010075971	 0.142722
H	-0.9857632469	 1.9624468731	-0.2146331873	 0.146335
H	 0.3674583143	-2.9403739255	-0.9424824705	 0.10452
H	 1.6956832611	-2.8807806626	 1.4159634086	 0.106197
H	 0.2807082034	-4.6552103383	 2.6989831163	 0.100758
H	-1.9939659917	-5.0863347919	 1.2803869811	 0.089578
H	-3.1498664095	-3.0328003983	 1.2830425005	 0.227731
H	-2.0657854825	-3.3611961674	-0.7426180141	 0.091422
14.1409	79.9876	93.1995	217.6232	265.0986	342.4284	378.9646	447.17	485.1911	540.4876	699.5182	744.3093	782.8975	820.7568	848.6317	862.5676	918.1504	929.955	947.6146	978.0874	1009.6855	1052.7733	1054.387	1077.104	1114.8614	1147.6285	1166.1046	1182.259	1237.4643	1274.8719	1314.5587	1319.7489	1388.7608	1409.2104	1415.2323	1478.8499	1479.3842	1669.3921	2373.3175	2978.0202	3024.6112	3083.7493	3085.0362	3165.7487	3175.9033	3196.7289	3221.5008	3475.4593
CC#CC1C=CC2NC12	CC#C[C@H]1C=C[C@H]2N[C@@H]12	
InChI=1S/C8H9N/c1-2-3-6-4-5-7-8(6)9-7/h4-9H,1H3	InChI=1S/C8H9N/c1-2-3-6-4-5-7-8(6)9-7/h4-9H,1H3/t6-,7+,8-/m0/s1
