19
gdb 57067	2.54382	1.30534	1.03595	4.5621	76.38	-0.2462	0.0236	0.2698	1204.7928	0.15921	-419.194038	-419.184912	-419.183967	-419.228103	33.479	
C	-0.0152059751	 1.5034452615	-0.0035587346	-0.342342
N	 0.0104301803	 0.0562906177	 0.1141896934	-0.087849
C	-1.2409262948	-0.657828939	 0.452154755	-0.161478
C	-0.4193606381	-1.6293045022	 1.3327963601	-0.274711
C	 0.7114239952	-0.5735955174	 1.2537732138	 0.024195
C	 2.1133803499	-1.0777545469	 0.8563199306	-0.030545
O	 2.0669289411	-1.7183852121	-0.3925957003	-0.409275
C	 3.0777281831	 0.0497756486	 0.84754192	 0.269638
N	 3.8076315683	 0.9461060662	 0.8394151881	-0.330947
H	 1.0013757887	 1.8840104624	-0.1330688578	 0.153595
H	-0.6011372033	 1.7886226496	-0.883076525	 0.128037
H	-0.4597375667	 1.9922407647	 0.8809575796	 0.102204
H	-1.9305025195	-0.0390123754	 1.0460583456	 0.097723
H	-1.7818721299	-1.0660733123	-0.4069931173	 0.112107
H	-0.8102376823	-1.8535712524	 2.3246031758	 0.115307
H	-0.1539851682	-2.5530203476	 0.8171717249	 0.131061
H	 0.7696442565	 0.0635548393	 2.1478400466	 0.083574
H	 2.4605283828	-1.807001635	 1.5979704855	 0.133817
H	 1.4170538121	-1.1984143094	-0.899014774	 0.28589
71.2008	104.4174	158.8106	189.1551	222.3041	251.3518	279.4979	349.5438	386.3016	461.7244	573.7343	602.2189	648.0872	726.951	757.3448	838.5788	925.5998	955.1155	960.9307	994.6337	1008.6839	1088.5217	1118.2993	1147.2247	1165.0257	1202.9652	1212.3147	1238.8908	1251.936	1271.7343	1293.9984	1310.5448	1347.4844	1371.8671	1445.5635	1458.1281	1483.5521	1490.884	1500.8335	1524.9377	2348.6848	2956.6914	2990.2823	3004.6005	3050.6053	3071.7418	3073.3812	3095.1854	3121.1175	3155.1956	3626.7842
CN1CCC1C(O)C#N	CN1CC[C@H]1[C@@H](O)C#N	
InChI=1S/C6H10N2O/c1-8-3-2-5(8)6(9)4-7/h5-6,9H,2-3H2,1H3	InChI=1S/C6H10N2O/c1-8-3-2-5(8)6(9)4-7/h5-6,9H,2-3H2,1H3/t5-,6-/m0/s1
