18
gdb 71967	2.74625	1.675	1.21198	4.4478	81.51	-0.2636	0.0224	0.286	1043.7222	0.148586	-364.789584	-364.781845	-364.780901	-364.821514	30.463	
C	-0.054019679	 1.483170778	 0.0046252073	-0.510451
C	 0.0266348569	-0.0130981054	-0.0187174869	 0.29207
C	 0.9076336411	-0.8904556034	-0.9105095133	-0.279463
C	 0.0324871148	-2.0847090883	-0.4421032795	-0.079699
C	 0.3938849259	-2.2461445683	 1.0567239184	-0.289825
C	-0.2636120087	-0.8763641851	 1.2504652706	 0.189182
C	-0.6766086538	-0.2781698041	 2.4729602643	 0.172939
N	-1.0062574532	 0.2050304258	 3.472961546	-0.36465
C	-1.0776840052	-1.0334412502	-0.0351018678	-0.156525
H	 0.8869863652	 1.9221500139	 0.3539992662	 0.132433
H	-0.2562968597	 1.8738346249	-0.9983338569	 0.12415
H	-0.8486803893	 1.8307806605	 0.6712591106	 0.14377
H	 0.7360996915	-0.649536693	-1.9637205205	 0.107812
H	 1.9841996451	-0.9410882594	-0.7126253011	 0.097458
H	-0.1163933252	-2.9555329587	-1.074580512	 0.085238
H	-0.1949639012	-3.0282151807	 1.5417885375	 0.118925
H	 1.4516128037	-2.3584087878	 1.3162949797	 0.105426
H	-2.145172279	-0.9589768788	-0.1840400326	 0.11121
133.9715	147.2918	199.7468	256.6867	307.5369	410.4176	429.4242	509.9033	544.9436	569.9566	641.9812	698.8856	762.6449	814.1007	890.2922	903.6157	911.6819	949.1204	972.7393	986.9446	1032.7082	1059.1054	1101.1067	1122.9553	1132.1893	1160.462	1173.9551	1221.9886	1240.2081	1257.0318	1277.5079	1345.2218	1391.7432	1426.7598	1485.2659	1491.9484	1496.4882	1509.4387	2339.0214	3032.105	3036.8259	3048.1066	3094.1568	3097.3084	3111.697	3112.5455	3155.1096	3226.9464
CC12CC3CC1(C#N)C23	C[C@@]12C[C@H]3C[C@]1(C#N)[C@@H]23	
InChI=1S/C8H9N/c1-7-2-5-3-8(7,4-9)6(5)7/h5-6H,2-3H2,1H3	InChI=1S/C8H9N/c1-7-2-5-3-8(7,4-9)6(5)7/h5-6H,2-3H2,1H3/t5-,6+,7-,8-/m0/s1
