21
gdb 109972	2.09293	1.38854	0.95483	4.5373	83.26	-0.249	0.0187	0.2677	1304.5973	0.182638	-383.270847	-383.261175	-383.26023	-383.305399	35.725	
C	 0.1064968284	 1.7058878452	 0.066288056	-0.398781
C	 0.0459395999	 0.1739372711	 0.0453374197	-0.187571
C	 0.7162258364	-0.4366464122	-1.1833639621	-0.020604
C	 0.7509939011	-1.9980545868	-1.2784671994	 0.04633
C	 0.5570910454	-2.863320778	-0.0461484786	-0.400622
N	-0.4150438047	-1.9359464319	-2.1939923311	-0.312848
C	-0.1472769185	-0.5170494722	-2.4930546861	-0.133318
C	-1.3439146053	 0.3164694746	-2.6292357896	 0.308463
N	-2.2831006103	 0.9801940653	-2.7478366006	-0.339109
H	 1.1443722216	 2.0574476619	 0.0468377672	 0.110224
H	-0.4149891085	 2.1425469555	-0.7898652986	 0.142794
H	-0.3618008384	 2.0998472104	 0.9731023766	 0.117936
H	 0.5476373511	-0.217225339	 0.9389879366	 0.099921
H	-0.9959519534	-0.1601438617	 0.104979215	 0.124011
H	 1.6875395583	 0.0368542341	-1.3464166813	 0.080102
H	 1.6734165168	-2.3071299642	-1.7952918962	 0.065699
H	-0.3491227425	-2.5863153611	 0.4975431248	 0.130796
H	 0.4659329015	-3.9154661616	-0.3371081808	 0.117665
H	 1.4155381094	-2.7797498073	 0.6292015167	 0.116717
H	-0.4038258172	-2.5600929908	-2.9938493351	 0.224346
H	 0.4795666089	-0.3468439912	-3.3804018131	 0.107849
65.8797	123.3622	144.4649	177.3324	210.3888	232.945	251.1081	290.1282	362.5527	403.8811	470.7329	566.1298	569.0419	662.7231	766.9464	793.2283	815.4393	876.0893	943.6885	970.7445	998.6492	1022.8249	1053.0848	1069.6158	1098.0276	1103.9003	1168.2993	1174.6483	1193.0538	1257.1846	1281.2778	1319.573	1339.0502	1349.8142	1384.743	1395.8436	1406.4751	1415.3986	1422.6795	1485.1411	1487.8442	1499.7992	1502.6391	1509.0624	2351.7611	2965.9694	2993.2032	3029.7594	3035.497	3036.6322	3064.7566	3081.0877	3098.0741	3103.62	3121.2639	3127.855	3523.9405
CCC1C(C)NC1C#N	CC[C@H]1[C@@H](C)N[C@H]1C#N	
InChI=1S/C7H12N2/c1-3-6-5(2)9-7(6)4-8/h5-7,9H,3H2,1-2H3	InChI=1S/C7H12N2/c1-3-6-5(2)9-7(6)4-8/h5-7,9H,3H2,1-2H3/t5-,6+,7+/m1/s1
