22
gdb 98416	2.2295	1.22732	1.08551	3.193	83.85	-0.237	0.0341	0.2711	1305.2889	0.192304	-404.37854	-404.367723	-404.366779	-404.414952	38.752	
C	 0.5337653387	 1.4696423224	 0.0546224148	-0.333867
N	 0.7814960224	 0.0454706075	 0.1661284151	-0.308532
C	 0.1133881421	-0.7428866105	 1.0590095902	 0.334943
O	-0.6992097797	-0.2996330809	 1.8543882337	-0.391361
C	 0.4227896142	-2.2267509099	 1.0066578068	 0.233035
C	-0.8296789947	-3.0575103943	 0.7818444718	-0.452901
C	 1.7473274032	-2.7537658869	 0.4951822804	-0.362596
C	 1.4564059851	-2.7607453834	 1.9783845833	 0.000053
C	 2.2165675209	-1.852387581	 2.9188052616	-0.4124
H	 1.4744269881	 2.0295940428	 0.0369419251	 0.122362
H	-0.0367772026	 1.7153810267	-0.8493796987	 0.12416
H	-0.0496938218	 1.7668263342	 0.9266707005	 0.170458
H	 1.3358464375	-0.4084258989	-0.5394743288	 0.246471
H	-1.2516512	-2.884264091	-0.2149204507	 0.112795
H	-0.6089761739	-4.1255274966	 0.8709623873	 0.108837
H	-1.5890590712	-2.7923374954	 1.5219603665	 0.145825
H	 1.7390091669	-3.6919230582	-0.0504941445	 0.1108
H	 2.5062385882	-2.055264733	 0.1549206535	 0.101891
H	 1.2050469061	-3.7295825759	 2.4037868446	 0.084425
H	 2.4842398302	-0.9081659588	 2.4346552423	 0.119535
H	 1.6170310738	-1.6107905716	 3.8021861229	 0.133866
H	 3.1439012667	-2.3288254873	 3.2550411821	 0.112203
34.3157	78.2636	106.8759	163.3124	194.0855	199.3663	220.2769	232.8229	292.9131	333.3383	387.9088	426.4017	495.9065	516.3057	543.3795	763.5809	791.9936	802.876	874.1425	887.8082	935.6567	959.8112	1029.5551	1054.8076	1065.3048	1114.7886	1126.7462	1142.6908	1152.4234	1170.2401	1185.5645	1222.1612	1268.6598	1339.5179	1401.9612	1407.4949	1422.4219	1436.3214	1483.6094	1487.8767	1489.4891	1492.864	1498.9737	1501.4864	1506.1446	1553.5254	1761.5281	3024.0418	3030.4529	3032.8459	3079.5481	3094.0002	3096.4748	3104.1258	3119.2238	3122.8956	3133.9468	3153.9944	3201.554	3661.0541
CNC(=O)C1(C)CC1C	CNC(=O)[C@@]1(C)C[C@H]1C	
InChI=1S/C7H13NO/c1-5-4-7(5,2)6(9)8-3/h5H,4H2,1-3H3,(H,8,9)	InChI=1S/C7H13NO/c1-5-4-7(5,2)6(9)8-3/h5H,4H2,1-3H3,(H,8,9)/t5-,7+/m1/s1
