20
gdb 39375	2.18837	1.913	1.27703	1.4868	87.58	-0.21	-0.0101	0.1999	1058.0022	0.174235	-365.989337	-365.981742	-365.980798	-366.021027	30.915	
C	-0.1188114767	 1.6956793372	 0.0660003996	-0.260622
C	 1.2512962171	 2.0329174997	 0.6945070025	-0.206724
C	 2.494228278	 1.6950184446	-0.1052082651	-0.010892
N	 2.8272360181	 0.2955888307	-0.3587204047	-0.324131
C	 2.6007110687	 1.1746467684	-1.52168832	-0.059972
C	 1.5603049917	 0.8427672542	-2.5323296129	-0.047882
C	 0.4536475585	 0.0889390276	-2.4413137384	-0.113513
C	-0.1700660257	-0.4570967129	-1.2404700836	-0.067548
C	-0.4118406723	 0.2363356543	-0.1220355359	-0.037271
H	-0.8875500649	 2.1309846113	 0.7155365307	 0.09273
H	-0.1857772826	 2.2084610383	-0.8993043296	 0.112003
H	 1.2699628351	 3.1134780348	 0.8838104577	 0.094339
H	 1.3369773833	 1.5474922397	 1.6748788953	 0.105013
H	 3.3305693519	 2.3450541106	 0.1580003375	 0.078774
H	 3.8206878975	 0.1220287622	-0.2367808667	 0.228666
H	 3.5032172154	 1.5375460164	-2.0142544217	 0.077291
H	 1.8206750067	 1.2033697939	-3.5260627302	 0.082588
H	-0.0506531004	-0.1463598146	-3.378831685	 0.088856
H	-0.5137525423	-1.4884127554	-1.3017732014	 0.08576
H	-0.882585787	-0.2772582711	 0.7139503219	 0.082537
123.9216	208.3173	242.4997	269.5437	307.6981	376.0363	418.6826	540.8641	604.7993	619.3799	706.4246	743.0528	775.2592	807.6352	820.9337	857.2744	904.9288	925.3628	960.7667	977.4845	991.0434	1002.7552	1040.961	1063.0041	1084.5436	1126.9188	1176.0124	1191.1774	1228.7524	1255.7653	1264.3952	1281.685	1307.4814	1356.0428	1383.5736	1414.2246	1429.1518	1459.4547	1474.8563	1479.2382	1487.72	1692.4109	1707.1042	3017.0357	3028.4919	3053.3647	3077.5596	3078.7404	3092.3607	3112.5686	3129.638	3143.9783	3154.5165	3503.0765
C1CC2NC2C=CC=C1	C1C[C@H]2N[C@H]2C=CC=C1	
InChI=1S/C8H11N/c1-2-4-6-8-7(9-8)5-3-1/h1-3,5,7-9H,4,6H2/b2-1-,5-3-	InChI=1S/C8H11N/c1-2-4-6-8-7(9-8)5-3-1/h1-3,5,7-9H,4,6H2/b2-1-,5-3-/t7-,8+/m0/s1
