19
gdb 99528	2.52413	1.05985	0.88643	2.1288	81.17	-0.2298	0.0151	0.2449	1412.0086	0.155921	-419.158997	-419.148232	-419.147288	-419.195058	38.207	
C	 0.1233769301	 1.3587001049	 0.0643883504	-0.23761
O	-0.2041020535	 0.0105740315	-0.214357955	-0.246416
C	 0.5958757201	-0.5856088625	-1.2297443462	-0.117611
C	 2.0060412395	-0.6913449191	-0.830085664	 0.367378
C	 3.1587844077	-0.7643167104	-0.4979319512	-0.493506
C	 0.0018775627	-1.9619763997	-1.5265197943	 0.341262
N	-0.3606597446	-2.6623985017	-0.3993830113	-0.54521
N	-0.0415993211	-2.34231691	-2.7412560555	-0.278938
C	-0.5564045218	-3.6743393728	-3.0057106311	-0.339468
H	 1.152122953	 1.4580481921	 0.4331972797	 0.12607
H	 0.0058473545	 1.9893002462	-0.8290705404	 0.113045
H	-0.5721718127	 1.699206626	 0.8343933674	 0.129427
H	 0.5276206132	-0.0123669204	-2.1637001951	 0.119691
H	 4.178910779	-0.8411866694	-0.2121477636	 0.202055
H	-0.548988417	-2.0948176762	 0.4136113265	 0.265383
H	-0.9746730363	-3.4515585678	-0.5219580897	 0.25384
H	-1.5990565496	-3.7996736043	-2.6673751185	 0.10198
H	-0.5412161072	-3.8634135555	-4.081894475	 0.123517
H	 0.042515574	-4.4590334909	-2.5180604132	 0.11511
49.8254	99.8141	116.2743	144.3974	170.7063	174.8348	236.0928	275.3277	300.0998	364.7684	385.0616	420.6881	469.5608	535.3121	595.8379	628.5984	673.8551	675.8407	725.6971	905.6076	939.7337	998.7309	1029.703	1106.0332	1117.7407	1130.6127	1184.2906	1188.958	1224.5209	1304.2979	1336.5062	1366.8492	1434.4205	1476.9157	1484.0291	1491.4015	1506.6673	1510.4512	1632.8404	1752.3791	2230.4266	2957.0936	2994.6313	3008.9877	3026.8135	3058.0709	3099.8349	3124.8425	3501.9538	3579.8226	3693.6049
COC(C#C)C(N)=NC	CO[C@@H](C#C)C(=NC)N	
InChI=1S/C6H10N2O/c1-4-5(9-3)6(7)8-2/h1,5H,2-3H3,(H2,7,8)	InChI=1S/C6H10N2O/c1-4-5(9-3)6(7)8-2/h1,5H,2-3H3,(H2,7,8)/t5-/m0/s1
