20
gdb 82216	2.52706	1.84564	1.3615	1.2664	77.39	-0.2215	0.0729	0.2944	1019.9636	0.171002	-403.117671	-403.109488	-403.108544	-403.149804	32.505	
C	-0.0616980366	 1.5436469003	 0.0652719483	-0.398297
C	 0.0197609011	 0.0209878205	-0.0086914971	-0.02787
N	 0.7251846035	-0.4655723077	-1.2245330769	-0.116322
C	 2.1422129173	-0.1111692062	-1.3904083321	-0.25225
C	 1.7672958388	-1.4250731411	-0.8049238457	-0.050978
C	 1.7527614915	-1.5105057425	 0.7010441939	-0.046931
O	 2.0592759738	-0.271753607	 1.3638671852	-0.297727
C	 0.6758796333	-0.6441961587	 1.2100173099	 0.402677
C	-0.0995560291	-0.8554673685	 2.4815284621	-0.488829
H	 0.9233969468	 1.9823706451	 0.2429628153	 0.131716
H	-0.4616535256	 1.9468695295	-0.8688982975	 0.127314
H	-0.7226883047	 1.8548609836	 0.8804689748	 0.115364
H	-0.9994947078	-0.3814522758	-0.0841414414	 0.082427
H	 2.4614072118	-0.0533025193	-2.4276919009	 0.110554
H	 2.5992468228	 0.6059427558	-0.7182857485	 0.137388
H	 1.8536380634	-2.3527046111	-1.3641563773	 0.089022
H	 2.0912237027	-2.4110632342	 1.2067472694	 0.093733
H	-0.4081513178	 0.1029643496	 2.9135287908	 0.130843
H	-1.0022445425	-1.446343267	 2.2952919029	 0.126037
H	 0.5152964473	-1.3748461555	 3.2205844246	 0.132129
142.9656	189.2916	211.7312	224.8246	252.5022	281.1436	391.1862	422.4938	534.456	563.1346	612.3402	691.1578	733.2981	745.5224	816.5437	847.3792	880.4376	896.931	971.0352	990.6239	1029.6415	1055.3102	1061.7901	1084.6594	1102.9274	1119.1541	1126.6088	1138.6003	1164.1379	1240.3558	1261.8891	1303.4408	1333.4982	1361.2886	1368.7616	1404.6435	1408.9448	1447.8667	1483.5299	1487.1677	1495.0122	1498.4894	1502.137	3011.6754	3035.9291	3044.6441	3098.1954	3112.0754	3115.4546	3124.6544	3127.8775	3140.7443	3155.3715	3215.9114
CC1N2CC2C2OC12C	C[C@H]1N2C[C@H]2[C@H]2O[C@@]12C	
InChI=1S/C7H11NO/c1-4-7(2)6(9-7)5-3-8(4)5/h4-6H,3H2,1-2H3	InChI=1S/C7H11NO/c1-4-7(2)6(9-7)5-3-8(4)5/h4-6H,3H2,1-2H3/t4-,5+,6-,7+,8?/m1/s1
