19
gdb 111161	4.14727	1.08306	0.99032	2.6238	77.34	-0.2312	0.0823	0.3135	1261.2417	0.157534	-422.912016	-422.903619	-422.902675	-422.945207	31.881	
C	 0.1922545829	 1.3059787925	 0.1694808459	-0.24347
O	-0.3035302154	 0.0521685964	-0.2489369243	-0.248391
C	 0.4511216122	-0.5277763446	-1.255019571	 0.19517
C	 1.7186172428	-1.3803494173	-0.8904786894	-0.110357
O	 0.8200809702	-2.3724747107	-0.2550280451	-0.30703
C	 0.1569026946	-2.0195034655	-1.5349203124	-0.111776
C	 1.5261571249	-2.1164412234	-2.220258905	 0.462959
C	 2.0312394186	-1.9477282891	-3.6130755501	-0.361357
C	 2.2472329319	-3.2502330885	-2.8457774041	-0.358663
H	 1.1888212078	 1.2202754059	 0.6266763781	 0.109763
H	 0.2551373911	 2.0181941115	-0.6682416815	 0.104473
H	-0.5048200121	 1.6961771311	 0.9140770256	 0.132196
H	 0.555244054	 0.1298352507	-2.130828973	 0.069536
H	 2.6352023103	-1.1114700118	-0.3648793863	 0.093518
H	-0.788998862	-2.506600609	-1.7717105806	 0.097902
H	 1.3168702082	-1.9521147469	-4.4302753215	 0.118269
H	 2.8922100752	-1.3080742101	-3.7797998007	 0.116864
H	 3.2516530149	-3.4768514018	-2.5035567962	 0.119818
H	 1.67609248	-4.1199964595	-3.1533887382	 0.120576
73.5412	133.7549	158.6402	210.292	251.0999	294.0476	340.6073	435.7727	494.4331	602.7437	727.798	737.3941	775.3015	794.4593	867.975	895.9074	925.5798	947.8862	954.041	999.0003	1050.6601	1053.7011	1080.2198	1096.9686	1123.3959	1137.6249	1156.9291	1177.6668	1181.4811	1184.2026	1200.0789	1222.567	1245.269	1277.9096	1402.4644	1426.1274	1463.2193	1484.2595	1489.6738	1507.0973	1523.5756	2976.5762	2998.9466	3028.0859	3117.6879	3122.2848	3124.7407	3125.6734	3130.2308	3202.6938	3217.1026
COC1C2OC1C21CC1	CO[C@H]1[C@H]2O[C@@H]1C12CC1	
InChI=1S/C7H10O2/c1-8-4-5-7(2-3-7)6(4)9-5/h4-6H,2-3H2,1H3	InChI=1S/C7H10O2/c1-8-4-5-7(2-3-7)6(4)9-5/h4-6H,2-3H2,1H3/t4-,5+,6-
