21
gdb 119999	2.49522	1.0195	0.80096	2.0642	79.33	-0.2382	-0.0186	0.2196	1478.3959	0.180425	-424.233967	-424.223845	-424.222901	-424.269782	36.463	
C	-0.2560086128	 1.5541405715	-0.0874659246	-0.393419
C	 0.0234725426	 0.0545278781	-0.0601693978	-0.029796
C	 1.263752174	-0.3669169632	-0.9138546673	-0.346718
C	 2.0360766633	-0.5361863625	 0.4024807155	 0.391258
O	 3.2003118542	-0.5737314488	 0.6863219387	-0.30207
C	 0.7448571308	-0.4804206124	 1.2346550192	-0.104272
C	 0.7340756678	 0.2932015859	 2.5487660892	-0.203144
C	 1.5683101625	-0.391182363	 3.6280419437	-0.082908
O	 1.4518238472	 0.3826964491	 4.813281759	-0.423613
H	 0.6516588892	 2.1382174562	 0.102148327	 0.122245
H	-0.6401381598	 1.8538592728	-1.0680022475	 0.117613
H	-0.9980621974	 1.8392845939	 0.6648148874	 0.123294
H	-0.8882512564	-0.4970248671	-0.3006142702	 0.076034
H	 1.1384581302	-1.3221631103	-1.4338634427	 0.127778
H	 1.6680697894	 0.3643009253	-1.619193039	 0.125546
H	 0.4243524981	-1.5168860726	 1.4139944936	 0.099348
H	 1.1230056867	 1.3065606105	 2.4039188146	 0.111397
H	-0.2947527578	 0.397284053	 2.9146370081	 0.108481
H	 1.1969586192	-1.4182561094	 3.7863390093	 0.07831
H	 2.6110546614	-0.46595371	 3.2905510381	 0.118506
H	 2.0641281978	 0.0269348829	 5.4634973057	 0.28613
55.118	84.6283	94.0696	120.089	208.8739	248.6447	250.2224	272.8032	348.4507	376.1612	420.2961	501.7817	549.0763	700.1805	746.2871	793.0928	837.1838	870.5759	881.4939	983.669	1004.9698	1032.7888	1046.9938	1069.2694	1092.5702	1111.1306	1141.5576	1169.6918	1204.4271	1218.4985	1240.9914	1251.8389	1276.22	1309.5073	1326.3458	1358.4786	1368.9064	1414.3835	1440.1753	1459.9152	1489.6711	1498.5417	1500.6504	1532.9593	1877.2858	2955.085	3008.2822	3025.3747	3029.9481	3038.103	3054.3325	3073.9116	3083.5662	3099.6986	3103.6496	3111.7676	3833.031
CC1CC(=O)C1CCO	C[C@H]1CC(=O)[C@H]1CCO	
InChI=1S/C7H12O2/c1-5-4-7(9)6(5)2-3-8/h5-6,8H,2-4H2,1H3	InChI=1S/C7H12O2/c1-5-4-7(9)6(5)2-3-8/h5-6,8H,2-4H2,1H3/t5-,6-/m0/s1
