21
gdb 103368	2.57542	1.57102	1.27877	1.5996	77.18	-0.2405	0.0681	0.3086	1077.8438	0.183455	-424.192984	-424.184487	-424.183543	-424.22596	33.588	
C	-0.1715470866	 1.5527384778	-0.0552026854	-0.477898
C	-0.0596062272	 0.0255507415	-0.0122392944	 0.322531
C	-1.4454737726	-0.5469996725	 0.3164986034	-0.14342
O	-1.8891921176	-0.1358760445	 1.6066383024	-0.422417
C	 0.7921774004	-0.6280103071	-1.1784965387	-0.118725
C	 2.0657103409	-0.2042151573	-0.3770392626	-0.249408
C	 1.1379586161	-0.5658873817	 0.8029238265	 0.063127
O	 0.9677960293	-1.9912020292	 0.650127886	-0.287113
C	 0.7650986063	-2.1093575321	-0.7820177985	-0.10098
H	 0.7850027064	 2.0741554756	-0.1073474646	 0.111858
H	-0.7637726039	 1.862044336	-0.9245201554	 0.114061
H	-0.6970308154	 1.8956889215	 0.8398814353	 0.139119
H	-2.1826908961	-0.1531751299	-0.3929660509	 0.102355
H	-1.4632940362	-1.6373928407	 0.2443506812	 0.102475
H	-1.3891020249	-0.6445614057	 2.2528907885	 0.289557
H	 0.6416991598	-0.3768756085	-2.2284419491	 0.069845
H	 2.9584379813	-0.8233560107	-0.4912267838	 0.099673
H	 2.3212440434	 0.8483276006	-0.461476107	 0.10895
H	 1.3473761755	-0.3340779112	 1.8471950375	 0.073817
H	-0.1770368151	-2.6262460654	-0.9892884164	 0.102012
H	 1.5833803561	-2.6841657266	-1.2318680442	 0.100582
60.6542	165.4298	183.3105	276.1855	288.4488	316.4963	365.9891	413.6372	444.74	511.9868	527.0181	653.9489	738.793	814.5157	846.4045	875.5669	912.1753	923.2665	940.0603	949.391	973.0131	987.2351	1024.2447	1053.5578	1076.9651	1089.8887	1123.1456	1143.5182	1156.4754	1192.2965	1215.7412	1231.823	1241.5436	1259.747	1286.3637	1316.8086	1366.1784	1397.3816	1406.6726	1418.3563	1487.629	1492.4254	1500.0262	1518.9846	1539.0247	3028.0156	3035.8662	3041.7634	3068.9788	3081.0971	3092.9909	3105.6369	3117.771	3123.1299	3133.7641	3172.4358	3819.1333
CC1(CO)C2CC1OC2	C[C@@]1(CO)[C@H]2C[C@@H]1OC2	
InChI=1S/C7H12O2/c1-7(4-8)5-2-6(7)9-3-5/h5-6,8H,2-4H2,1H3	InChI=1S/C7H12O2/c1-7(4-8)5-2-6(7)9-3-5/h5-6,8H,2-4H2,1H3/t5-,6-,7+/m0/s1
