23
gdb 112807	2.43066	1.08543	0.92605	0.7815	81.92	-0.2497	0.0694	0.3191	1402.2689	0.204529	-425.409399	-425.398959	-425.398015	-425.444772	38.599	
C	-0.2846493411	 1.7979965014	 0.0295307725	-0.386269
C	-0.1568824586	 0.3227966965	 0.4266139637	-0.194894
C	-1.3913230732	-0.4920576551	 0.0534639363	 0.015737
C	-1.7227847933	-0.7357302935	-1.4467359682	 0.102903
O	-0.5236048673	-0.7204943795	-2.2092527561	-0.43153
C	-2.2054638938	-2.162901381	-1.0703958596	-0.253351
C	-1.4604501076	-2.0379794755	 0.2896413261	-0.010961
C	-0.1250645139	-2.7636988579	 0.3161962544	-0.09423
O	-0.4052870501	-4.1602142077	 0.3370583519	-0.428925
H	 0.5991081464	 2.3680395038	 0.3329743543	 0.107429
H	-0.3907901982	 1.8980787108	-1.0549076405	 0.129211
H	-1.1584574602	 2.2638273211	 0.4996941579	 0.106495
H	 0.7280689383	-0.1021396812	-0.0566283376	 0.111338
H	 0.0054101662	 0.2446851779	 1.5096709859	 0.088825
H	-2.2729730812	-0.0356331601	 0.5194383568	 0.069721
H	-2.4691388628	-0.0669881647	-1.8965130086	 0.057691
H	-0.7185151876	-1.1025123819	-3.0710334022	 0.282515
H	-3.2914813867	-2.2156692385	-0.9551061738	 0.09532
H	-1.8802740771	-2.97435739	-1.727052895	 0.099379
H	-2.0358854045	-2.3485641194	 1.1665458022	 0.069354
H	 0.464717985	-2.4907012885	-0.5697368955	 0.1003
H	 0.4481061797	-2.4638634363	 1.208199519	 0.080684
H	 0.4312294517	-4.6317634808	 0.289683126	 0.283257
81.6348	88.5979	131.4147	137.1747	200.5014	248.0995	261.9424	279.5177	288.0627	308.1554	381.8556	410.6705	529.0192	545.0509	714.1018	797.0081	823.9371	844.9043	868.1201	936.231	945.4339	969.7554	1015.2991	1028.3907	1063.579	1072.4839	1096.3205	1146.5572	1156.545	1166.908	1196.3113	1224.2984	1243.9321	1257.7445	1277.2195	1287.294	1307.6671	1322.0818	1349.5592	1367.3936	1393.8487	1407.9328	1412.7438	1456.024	1473.4511	1484.9372	1500.0302	1509.6676	1527.7432	2970.5623	2997.5999	3021.9201	3024.1323	3029.6389	3032.3191	3055.4648	3067.4129	3077.1231	3098.9668	3110.7131	3111.2853	3813.0835	3830.5951
CCC1C(O)CC1CO	CC[C@H]1[C@@H](O)C[C@H]1CO	
InChI=1S/C7H14O2/c1-2-6-5(4-8)3-7(6)9/h5-9H,2-4H2,1H3	InChI=1S/C7H14O2/c1-2-6-5(4-8)3-7(6)9/h5-9H,2-4H2,1H3/t5-,6+,7-/m0/s1
