20
gdb 16413	3.40452	2.11085	1.73067	0.2036	79.04	-0.2303	0.0218	0.2521	859.0259	0.179901	-311.870534	-311.863688	-311.862744	-311.900988	28.472	
C	-0.15761141	 1.5551818242	 0.0035341543	-0.401291
C	 0.0366768196	 0.0301274443	 0.0043721683	-0.004807
C	 0.753310635	-0.4542971	-1.2409556148	-0.065359
C	 1.8530424531	-1.199377735	-1.124619362	-0.072522
C	 2.3455605277	-1.5388569196	 0.2663358893	-0.049127
C	 1.1164466084	-1.9870760483	 1.1177463371	-0.228525
C	 0.7955404205	-0.4699223341	 1.2540648788	-0.013027
C	 2.329686086	-0.2304851372	 1.1150226712	-0.218575
H	 0.8035053173	 2.079060169	 0.0176975299	 0.118782
H	-0.6994736858	 1.8820602312	-0.8902548273	 0.110643
H	-0.7317323121	 1.8756622008	 0.8796756344	 0.109388
H	-0.9674196608	-0.4228533437	 0.0209289259	 0.07598
H	 0.3468605186	-0.1728929874	-2.2091744701	 0.080649
H	 2.394524119	-1.5660978095	-1.9914846827	 0.083147
H	 3.2431909429	-2.1589765739	 0.2661587905	 0.054854
H	 0.3773483021	-2.6315951056	 0.6344179636	 0.090898
H	 1.417540557	-2.4194326672	 2.0761816817	 0.090805
H	 0.3049261413	-0.1282897579	 2.1698170232	 0.053658
H	 2.835712478	-0.3606576859	 2.0757122307	 0.091696
H	 2.6807511322	 0.6854303158	 0.633921998	 0.092732
166.9432	218.4346	269.8033	370.2793	394.363	427.6189	483.69	595.0553	668.3699	735.3109	773.8266	818.0929	852.8925	894.176	908.3612	925.4753	945.2667	974.1205	985.523	1021.3261	1050.8612	1068.9645	1102.7248	1107.5228	1120.8868	1129.4692	1162.5498	1187.7126	1246.0849	1262.5084	1264.6442	1316.1241	1328.6027	1340.0539	1359.4968	1395.9026	1414.2543	1474.7274	1495.2836	1499.4573	1506.3175	1698.3115	2972.9505	3028.7936	3047.3439	3051.5059	3066.3278	3092.8513	3096.3775	3101.8844	3107.2149	3112.3943	3150.4773	3177.9307
CC1C=CC2CC1C2	C[C@H]1C=C[C@@H]2C[C@H]1C2	
InChI=1S/C8H12/c1-6-2-3-7-4-8(6)5-7/h2-3,6-8H,4-5H2,1H3	InChI=1S/C8H12/c1-6-2-3-7-4-8(6)5-7/h2-3,6-8H,4-5H2,1H3/t6-,7-,8+/m0/s1
