14
gdb 46340	4.22894	0.7491	0.66703	6.265	83.8	-0.2631	-0.0539	0.2092	1587.6098	0.099994	-399.543099	-399.534734	-399.53379	-399.577282	29.478	
O	-0.0528279157	-0.015351247	 0.0010338214	-0.260311
C	-0.0682342995	 1.1715614272	 0.0599370618	 0.403296
C	-1.1466305704	 2.2399673034	 0.2681477712	-0.339557
C	-0.021447221	 3.2669629384	 0.5853606182	-0.240017
C	 1.0675171691	 2.2635021758	 0.0603377721	-0.320632
C	 2.2543742017	 2.0255404226	 0.8334773497	 0.095471
C	 3.2301945166	 1.8054265956	 1.5131544699	 0.076596
C	 4.3354075637	 1.5685160925	 2.2769451856	 0.206676
N	 5.2769973071	 1.37107791	 2.9286861412	-0.336266
H	-1.686755196	 2.4484206016	-0.6611831934	 0.147315
H	-1.8761988446	 2.0214448246	 1.050834373	 0.149016
H	-0.0641678121	 4.2175118597	 0.0551565093	 0.129552
H	 0.0875835175	 3.4531954035	 1.6541003437	 0.139012
H	 1.3258917937	 2.4796946921	-0.9842606435	 0.149849
65.7407	68.3432	116.0684	186.2394	239.7368	378.6445	407.0697	453.107	554.1935	572.0936	593.8398	611.3609	679.3866	764.6476	850.2771	911.9471	953.2321	1013.0859	1022.7759	1059.3628	1187.2766	1194.5948	1208.3837	1231.786	1261.1941	1325.0369	1439.86	1493.1716	1913.5677	2262.3559	2393.2142	3036.0659	3063.7777	3098.2697	3123.2626	3159.1325
O=C1CCC1C#CC#N	O=C1CC[C@H]1C#CC#N	
InChI=1S/C7H5NO/c8-5-1-2-6-3-4-7(6)9/h6H,3-4H2	InChI=1S/C7H5NO/c8-5-1-2-6-3-4-7(6)9/h6H,3-4H2/t6-/m1/s1
