18
gdb 71860	3.04204	1.58305	1.28503	4.059	75.74	-0.232	0.0245	0.2565	1021.4493	0.149834	-401.967655	-401.960401	-401.959457	-401.999015	29.441	
C	-0.0607903894	 1.5155092334	 0.0123101735	-0.500636
C	-0.0325297451	 0.0156588813	-0.0350458652	 0.334428
C	 0.7514291266	-0.8234195255	-1.0471717073	-0.292815
C	-0.2288452962	-2.0085625088	-0.7434349053	-0.038701
N	 0.2683331902	-2.845511691	 0.3411856131	-0.308031
C	 0.4035997614	-2.0834985846	 1.4963276855	 0.40407
O	 1.0032457059	-2.4022728111	 2.4979017476	-0.381626
C	-0.3630940666	-0.8169016442	 1.2269408197	-0.212048
C	-1.1652000661	-0.9871832677	-0.0350388537	-0.115109
H	 0.8991433826	 1.9172103179	 0.356116943	 0.131155
H	-0.2613553507	 1.9346383873	-0.9802645576	 0.121019
H	-0.8360805198	 1.8797669056	 0.6939373118	 0.12375
H	 0.603501506	-0.4306715082	-2.0579323879	 0.10397
H	 1.8181332961	-1.0080928229	-0.8769023459	 0.096561
H	-0.6051802376	-2.5908555745	-1.5821727073	 0.088426
H	 0.9758478242	-3.5453531177	 0.1656948449	 0.244233
H	-0.7537631947	-0.2623067759	 2.0699791004	 0.104917
H	-2.238039757	-0.8770847536	-0.1250430794	 0.096437
153.1729	201.5836	210.8868	289.3966	395.4444	447.8987	468.9994	555.3015	579.279	645.4427	702.7565	722.2884	812.1498	848.0942	881.065	894.6303	904.3516	925.6123	962.7247	997.6003	1022.3614	1033.557	1064.8787	1104.9289	1162.5157	1184.4462	1193.6734	1220.8884	1227.3573	1281.5432	1304.9861	1343.0693	1395.0606	1409.7527	1427.2457	1486.329	1491.6974	1498.7073	1832.5873	3025.536	3034.0736	3087.1405	3092.1873	3099.8605	3133.0437	3197.3679	3211.2237	3604.7372
CC12CC3NC(=O)C1C23	C[C@@]12C[C@H]3NC(=O)[C@@H]1[C@@H]23	
InChI=1S/C7H9NO/c1-7-2-3-4(7)5(7)6(9)8-3/h3-5H,2H2,1H3,(H,8,9)	InChI=1S/C7H9NO/c1-7-2-3-4(7)5(7)6(9)8-3/h3-5H,2H2,1H3,(H,8,9)/t3-,4+,5+,7+/m1/s1
