19
gdb 118631	1.65743	1.07741	0.68919	3.485	75.	-0.2467	-0.0435	0.2032	1617.1521	0.154099	-460.170108	-460.159315	-460.158371	-460.208166	35.836	
C	-0.0433996206	 1.7224127097	-0.0259695462	-0.387093
C	 0.1133589919	 0.2156263066	 0.0657365566	-0.050656
O	 0.5522926079	-0.2673231534	-1.1999299956	-0.255702
C	 0.7473977637	-1.6634352135	-1.245917718	 0.017685
C	 0.8392003418	-2.069548384	-2.7267212877	-0.304344
C	-0.4564835913	-1.8114435426	-3.4746260037	 0.153612
O	-0.936652479	-2.5787187727	-4.2675448014	-0.234377
C	 2.050639724	-2.0548543563	-0.5463590018	 0.13645
O	 2.2681464176	-3.1336806571	-0.0647552869	-0.235209
H	 0.9107560058	 2.1947465643	-0.2752689231	 0.131365
H	-0.7700155277	 1.985815377	-0.7996439544	 0.132053
H	-0.3916063049	 2.12494647	 0.9295056322	 0.124232
H	 0.8397894021	-0.0518103013	 0.8495064198	 0.100852
H	-0.8415618877	-0.2637538994	 0.3328590712	 0.101964
H	-0.079007925	-2.2043801583	-0.7588456775	 0.100644
H	 1.6246054484	-1.4607783228	-3.1965745673	 0.137605
H	 1.1080192126	-3.1234232872	-2.8282840356	 0.144639
H	-0.9376858143	-0.8391848143	-3.2392292176	 0.096421
H	 2.8092996649	-1.2372557348	-0.555926023	 0.08986
50.2422	53.8267	60.2443	83.4692	104.3247	177.9363	205.7164	246.7096	280.4953	370.7139	389.1916	421.24	534.2953	578.0025	781.0253	820.7436	880.5684	924.7539	964.1245	1013.3399	1072.9567	1087.0333	1115.6983	1144.481	1154.3287	1186.575	1235.7829	1263.6878	1299.1718	1328.9415	1339.1106	1392.2636	1404.4117	1417.0547	1436.3453	1445.2296	1483.6335	1498.51	1527.0643	1832.847	1840.3129	2865.3167	2919.1598	2972.2138	2992.0233	3003.4633	3025.4707	3048.0233	3120.4184	3124.2098	3124.981
CCOC(CC=O)C=O	CCO[C@@H](CC=O)C=O	
InChI=1S/C6H10O3/c1-2-9-6(5-8)3-4-7/h4-6H,2-3H2,1H3	InChI=1S/C6H10O3/c1-2-9-6(5-8)3-4-7/h4-6H,2-3H2,1H3/t6-/m0/s1
