18
gdb 94186	2.45554	1.35705	1.21955	4.983	67.43	-0.2482	0.0158	0.2641	1109.4788	0.148245	-476.249047	-476.240414	-476.239469	-476.282432	32.906	
N	-0.1045991295	 0.9955459884	-0.0715119614	-0.528548
H	 0.7320942745	-0.2284625299	 1.1944510753	 0.288858
H	 0.4790727264	 1.6963536504	-0.5143095101	 0.24909
H	-0.7826054339	 0.6767056347	-0.7536437012	 0.248022
C	-0.7536522019	 1.4945713763	 1.1313773479	-0.026998
C	-2.069853265	 0.7985634928	 1.5524433846	-0.250747
C	-1.5121180736	 0.6743578447	 2.9955976925	-0.251753
C	-0.0834531077	 0.946914158	 2.4516725628	 0.250643
O	 0.6519459772	-0.2262125766	 2.1731614424	-0.503268
C	 0.7645751434	 1.9463758267	 3.2316043653	 0.373773
O	 2.0109437641	 1.5252022536	 3.4882219355	-0.375741
O	 0.3516707133	 3.02586014	 3.5705546765	-0.354201
H	-0.8317266504	 2.5841463333	 1.1798418632	 0.102431
H	-2.9945729213	 1.3598740246	 1.4067834056	 0.110728
H	-2.1673325851	-0.1794058971	 1.0715482667	 0.108105
H	-1.8391865818	 1.4881682377	 3.6447556738	 0.133869
H	-1.6338965771	-0.2838426624	 3.5019817952	 0.116402
H	 2.0605894485	 0.6286544249	 3.1030251854	 0.309336
74.7756	109.5161	170.1683	249.7738	253.5671	310.8237	375.7326	398.2791	435.797	522.9023	603.0075	689.8912	695.1253	716.2071	752.0079	810.6279	822.882	844.3511	929.4991	936.3724	958.6155	996.2049	1060.7143	1104.3447	1139.398	1177.2125	1221.1462	1237.3444	1254.0408	1271.9878	1281.7778	1312.8879	1386.3416	1408.8454	1422.3787	1465.7843	1488.9401	1646.7074	1857.2957	3060.3135	3071.692	3085.1555	3118.8818	3150.3	3472.8665	3519.6962	3598.0282	3602.0404
[NH3+]C1CCC1(O)C([O-])=O	N[C@H]1CC[C@]1(O)C(=O)O	
InChI=1S/C5H9NO3/c6-3-1-2-5(3,9)4(7)8/h3,9H,1-2,6H2,(H,7,8)	InChI=1S/C5H9NO3/c6-3-1-2-5(3,9)4(7)8/h3,9H,1-2,6H2,(H,7,8)/t3-,5+/m0/s1
