17
gdb 70981	3.49313	1.30443	1.11276	3.2518	73.15	-0.2474	-0.0309	0.2165	1089.7413	0.13497	-421.776607	-421.768803	-421.767858	-421.808982	30.329	
O	-0.1316568591	 1.3346339284	-0.072864641	-0.461955
C	 0.0592495507	-0.0286675953	-0.0362607945	 0.403813
C	 1.011219039	-0.8615478499	-0.8907961897	-0.348344
C	 0.1380635504	-2.0692765902	-0.4603049709	 0.230864
C	 0.3807146183	-2.2144809847	 1.0776160383	-0.288831
C	-0.3146817331	-0.8668972015	 1.210860546	-0.133742
C	-1.0410271891	-1.0430551714	-0.108476983	-0.181961
C	-0.0276778524	-3.2654579305	-1.3298077539	 0.042214
O	 0.4590635434	-3.3925590344	-2.4263306432	-0.246632
H	 0.5292727879	 1.7521091518	 0.4907652887	 0.288443
H	 0.8867723676	-0.6468932603	-1.9541952678	 0.125859
H	 2.0757564109	-0.8987431009	-0.6339118572	 0.09129
H	-0.2196806533	-3.0242237508	 1.504275824	 0.106809
H	 1.4234426665	-2.3172777125	 1.3989151628	 0.099319
H	-0.6908756129	-0.376780657	 2.1001035263	 0.093107
H	-2.0799075444	-0.9845783204	-0.397446067	 0.108811
H	-0.6644922703	-4.0678369603	-0.8892502079	 0.070936
69.1243	171.9705	215.7943	283.0338	336.9952	368.2105	429.7237	449.4167	467.0248	595.8507	691.008	740.2364	776.8646	812.6573	844.713	909.3168	928.3296	959.9557	983.1605	1009.0869	1033.8377	1052.1554	1089.5369	1105.6914	1133.0708	1154.6712	1196.4636	1221.1039	1248.3969	1283.5369	1300.9796	1335.3224	1424.6411	1437.4845	1494.0135	1512.4987	1814.2842	2859.4681	3031.1821	3042.7424	3088.8846	3122.1412	3195.5917	3231.5031	3793.3617
OC12CC3(CC1C23)C=O	O[C@@]12C[C@]3(C[C@@H]1[C@@H]23)C=O	
InChI=1S/C7H8O2/c8-3-6-1-4-5(6)7(4,9)2-6/h3-5,9H,1-2H2	InChI=1S/C7H8O2/c8-3-6-1-4-5(6)7(4,9)2-6/h3-5,9H,1-2H2/t4-,5-,6-,7+/m1/s1
