22
gdb 57332	1.9955	1.44918	1.28556	3.2312	81.49	-0.292	0.0197	0.3117	1173.0821	0.190328	-404.373144	-404.362144	-404.3612	-404.407992	41.599	
C	-0.0807317174	 1.560327886	 0.0561561904	-0.431682
C	-0.007650386	 0.0220665926	 0.0384972758	 0.246038
C	 0.7352400025	-0.4816909934	 1.2895608567	-0.4307
C	-1.443347766	-0.5431767865	 0.0480991516	-0.450666
C	 0.7400404293	-0.4902221947	-1.2530839714	 0.214469
C	 2.2146975821	-0.070884671	-1.341312401	-0.420031
O	 0.7622151899	-1.9146134058	-1.3103082257	-0.455143
C	 0.0376632684	 0.0187566297	-2.4607340356	 0.261848
N	-0.5220990229	 0.3904183263	-3.4015873643	-0.355608
H	 0.9116318053	 2.0174341847	 0.1038843186	 0.118148
H	-0.5962619671	 1.9530360819	-0.8253139946	 0.139977
H	-0.6338649835	 1.8917464013	 0.9406198227	 0.118116
H	 0.1367582636	-0.2748036198	 2.1822177504	 0.11376
H	 0.9079137373	-1.5595607178	 1.235315467	 0.130089
H	 1.6999385452	 0.0160398997	 1.4212886406	 0.116547
H	-1.9956765486	-0.2662577088	-0.8554740941	 0.139345
H	-1.4528919003	-1.6341293128	 0.1450454284	 0.110621
H	-1.9925233401	-0.1458594911	 0.9067394301	 0.12322
H	 2.7677520756	-0.5083435529	-0.5087259019	 0.137885
H	 2.639325875	-0.4510839071	-2.2724260427	 0.144966
H	 2.3275055669	 1.0138138899	-1.3226976591	 0.135463
H	-0.1401918891	-2.2342034303	-1.4158869518	 0.293336
68.2412	151.6499	178.5176	198.4626	240.4443	256.9049	262.7505	269.1151	311.2084	319.2983	349.9113	363.8634	375.561	426.1297	446.4766	471.8616	573.7013	605.5819	658.833	811.7525	891.9791	938.4315	942.0645	944.9673	963.906	1018.7242	1043.0615	1077.696	1151.1217	1168.4226	1241.4719	1252.6999	1262.2729	1356.1403	1397.1455	1402.8104	1410.1077	1432.5959	1479.3014	1481.5951	1487.7806	1493.6439	1501.6095	1508.1435	1514.8886	1524.3646	2345.078	3032.6683	3038.7365	3044.5365	3069.3754	3099.0073	3104.4133	3107.7321	3113.1094	3116.2802	3124.5053	3146.1555	3157.7567	3817.877
CC(C)(C)C(C)(O)C#N	CC(C)(C)[C@@](C)(O)C#N	
InChI=1S/C7H13NO/c1-6(2,3)7(4,9)5-8/h9H,1-4H3	InChI=1S/C7H13NO/c1-6(2,3)7(4,9)5-8/h9H,1-4H3/t7-/m0/s1
