14
gdb 45870	2.1439	1.74565	1.25433	3.4835	67.14	-0.2545	-0.0566	0.1978	1003.4981	0.102004	-432.892585	-432.884676	-432.883732	-432.925996	28.182	
O	 0.0162444106	 0.0078580094	 0.2836571671	-0.282804
C	-0.0517948734	 1.1800089909	 0.0330368407	 0.379029
C	-1.347392925	 1.9390302529	-0.1972536941	-0.262716
N	-1.2802267488	 3.1991133434	-0.9188677306	-0.243585
C	-0.147851637	 3.6167912847	-1.3122934418	 0.093904
N	 1.0861725375	 3.0121559007	-1.1320703175	-0.296603
C	 1.2426757978	 2.0401918877	-0.0611359359	-0.226903
C	 1.5046153343	 2.6707313102	 1.2469817398	 0.273895
N	 1.7043073692	 3.1875233835	 2.2615234455	-0.306539
H	-2.0367852863	 1.258197532	-0.7098315064	 0.156488
H	-1.796228347	 2.1167889289	 0.791648632	 0.163748
H	-0.0971871666	 4.5363430006	-1.8957286185	 0.128912
H	 1.894262134	 3.5864712542	-1.324731447	 0.261829
H	 2.0622535906	 1.3523653708	-0.2857268734	 0.161345
52.1999	82.4759	132.3682	226.3148	365.3651	434.6726	441.3361	479.9313	523.265	575.0501	592.9173	622.6686	732.0111	905.8747	942.1955	949.5189	989.685	1012.3736	1025.3009	1147.4403	1213.8482	1234.5725	1252.1649	1319.8745	1338.6843	1416.5864	1436.6555	1492.4608	1753.2645	1844.084	2348.1392	3009.4278	3064.7113	3083.5709	3134.9788	3598.6214
O=C1CN=CNC1C#N	O=C1CN=CN[C@H]1C#N	
InChI=1S/C5H5N3O/c6-1-4-5(9)2-7-3-8-4/h3-4H,2H2,(H,7,8)	InChI=1S/C5H5N3O/c6-1-4-5(9)2-7-3-8-4/h3-4H,2H2,(H,7,8)/t4-/m0/s1
