16
gdb 82358	2.34408	1.74417	1.36678	5.874	67.69	-0.276	0.0286	0.3046	976.9695	0.124809	-437.881929	-437.874034	-437.873089	-437.914475	29.519	
O	-0.1938108774	 1.4440517193	-0.0158704	-0.419265
C	-0.0280127666	 0.050539034	-0.0522719762	 0.120736
C	-1.3716414255	-0.64357256	 0.015668772	 0.041653
O	-2.0767857923	-0.6515505167	-1.228269527	-0.236116
C	-1.3529291111	-1.8256688547	-0.8500966457	 0.052797
C	-0.0100739344	-1.9384075131	-1.545105259	-0.261379
C	 0.6234210687	-0.5248748451	-1.3642916803	-0.249927
C	 0.401053578	 0.3478836004	-2.5157471723	 0.308063
N	 0.2974993431	 1.0317724344	-3.4413812198	-0.333708
H	 0.6603714727	 1.8719172029	-0.135654103	 0.295251
H	 0.5765569982	-0.3013179201	 0.8007182901	 0.080552
H	-1.9813873272	-0.5549348739	 0.9101603733	 0.110745
H	-1.9517855918	-2.7107844003	-0.653433166	 0.105459
H	 0.6056020921	-2.6926297054	-1.0434571663	 0.117344
H	-0.0960467906	-2.2206405083	-2.5970604837	 0.14188
H	 1.7074376643	-0.6067377432	-1.2384796861	 0.125915
81.2247	146.7059	190.2885	233.5629	276.0865	351.5724	374.7556	484.5536	532.6341	575.2844	686.4863	758.8562	811.9556	850.275	874.9856	902.2875	928.3959	984.6134	1027.899	1057.3109	1083.4768	1118.4694	1142.1809	1195.1404	1215.5129	1233.9055	1266.8286	1313.5599	1320.9352	1338.1252	1366.4506	1436.9271	1447.0612	1483.4455	2360.7658	2961.2232	3053.5573	3067.8487	3111.0348	3152.9451	3166.8665	3818.6622
OC1C2OC2CC1C#N	O[C@H]1[C@H]2O[C@H]2C[C@H]1C#N	
InChI=1S/C6H7NO2/c7-2-3-1-4-6(9-4)5(3)8/h3-6,8H,1H2	InChI=1S/C6H7NO2/c7-2-3-1-4-6(9-4)5(3)8/h3-6,8H,1H2/t3-,4-,5+,6-/m0/s1
