19
gdb 34046	3.12061	1.30772	1.08651	5.5173	79.54	-0.2627	0.0232	0.2859	1150.5904	0.162477	-382.080708	-382.072877	-382.071932	-382.112965	30.714	
N	 0.0192617218	-1.1477191975	 0.0703390931	-0.344877
C	 0.0179888364	 0.0086497481	 0.0713079	 0.266577
C	 0.004781909	 1.4563714108	 0.0201957329	 0.139199
C	-1.21848712	 2.0630024902	-0.6811054558	-0.292953
C	-0.871014876	 3.2118630702	-1.6409510941	-0.189882
C	 0.1404632625	 4.1885202089	-1.0333555058	-0.224143
C	 1.4742031196	 3.479084008	-0.7575750202	-0.227575
C	 1.3251723381	 2.1807602343	 0.0101512571	-0.028171
N	 0.5458356432	 2.0982668346	 1.2446810123	-0.344547
H	-1.7426142311	 1.2726712837	-1.2249674915	 0.1308
H	-1.9168449717	 2.412568813	 0.0903083422	 0.11746
H	-0.4477744493	 2.7959149752	-2.5642675506	 0.109188
H	-1.7911141115	 3.7325265663	-1.9250831668	 0.105281
H	 0.314670561	 5.0302653871	-1.7106408458	 0.108873
H	-0.2656378191	 4.6242573637	-0.1101441287	 0.098668
H	 1.9625306754	 3.2490825754	-1.713168304	 0.116041
H	 2.160391379	 4.1377916005	-0.2112839148	 0.113662
H	 2.2220360834	 1.5660002232	 0.041443726	 0.11365
H	 0.0341229894	 2.9636773642	 1.4079086344	 0.232748
103.9191	146.1833	194.4649	278.5793	353.3654	370.8821	396.0412	473.7564	555.3494	589.6064	600.1772	674.0162	789.6952	827.7602	839.1395	886.5143	913.691	936.694	949.0611	1021.7584	1050.9685	1083.6966	1096.7823	1124.7648	1172.7637	1193.9406	1208.8943	1260.9334	1285.5694	1312.1129	1341.9884	1360.4952	1373.7566	1380.0029	1388.0101	1436.412	1482.5065	1487.4182	1493.2038	1502.4661	2354.0851	3014.6657	3023.6137	3025.0119	3030.4688	3060.6532	3078.6654	3079.0613	3093.2201	3134.9664	3487.3856
N#CC12CCCCC1N2	N#C[C@]12CCCC[C@H]1N2	
InChI=1S/C7H10N2/c8-5-7-4-2-1-3-6(7)9-7/h6,9H,1-4H2	InChI=1S/C7H10N2/c8-5-7-4-2-1-3-6(7)9-7/h6,9H,1-4H2/t6-,7-/m1/s1
