19
gdb 62946	1.91587	1.86975	1.52509	0.3812	70.63	-0.243	0.0608	0.3038	1009.9841	0.15504	-460.114137	-460.104636	-460.103691	-460.147342	36.691	
C	-0.0754017156	 1.5541415681	-0.1393546215	-0.466574
C	-0.0072032656	 0.0400122376	-0.0177493516	 0.34232
O	-1.2807529009	-0.5545809183	-0.12791367	-0.459185
C	 1.0459003705	-0.6685158508	-0.9087551686	-0.036207
O	 2.3363181	-0.1798210661	-0.5127630936	-0.254907
C	 1.7375026437	-1.2401449509	 0.247376708	-0.036291
C	 0.7509117788	-0.5869312215	 1.2497981031	 0.341994
C	 1.3626501904	 0.3644419677	 2.2660276355	-0.466314
O	-0.0915052828	-1.5383415774	 1.86039858	-0.459146
H	 0.921448112	 1.9986958322	-0.1241674005	 0.139659
H	-0.5480857282	 1.8327888058	-1.090424925	 0.102857
H	-0.6725012065	 1.9824641388	 0.6714834352	 0.127086
H	-1.7259468005	-0.1391442696	-0.8741512277	 0.27773
H	 0.9307076216	-1.0378950015	-1.9224196795	 0.09995
H	 2.2942693509	-2.1649407351	 0.3570102379	 0.09992
H	 2.0675869508	 1.05064275	 1.7929640831	 0.139553
H	 0.5848083576	 0.9421139088	 2.7746444855	 0.127074
H	 1.913320803	-0.2038152114	 3.0272318681	 0.102788
H	 0.3749198008	-1.8793659264	 2.6310151216	 0.277693
109.0481	216.9933	227.4357	236.7859	240.8302	257.6373	279.6748	294.5914	328.71	352.372	409.3527	478.3252	535.8981	550.367	648.9385	673.1228	844.6221	860.0559	867.1273	888.7068	958.632	964.2136	992.2236	1049.5324	1076.1622	1104.6006	1157.8768	1165.6909	1170.7147	1228.809	1241.1744	1280.4068	1345.4172	1364.6095	1399.0922	1401.4322	1416.7677	1478.439	1490.1869	1496.2543	1508.7082	3021.1495	3023.2088	3089.8642	3094.1759	3133.253	3140.0464	3165.7124	3182.0581	3806.5425	3807.0032
CC1(O)C2OC2C1(C)O	C[C@@]1(O)[C@H]2O[C@H]2[C@]1(C)O	
InChI=1S/C6H10O3/c1-5(7)3-4(9-3)6(5,2)8/h3-4,7-8H,1-2H3	InChI=1S/C6H10O3/c1-5(7)3-4(9-3)6(5,2)8/h3-4,7-8H,1-2H3/t3-,4+,5+,6-
