23
gdb 118643	2.71354	0.7123	0.58958	1.0472	88.6	-0.2572	0.0512	0.3084	1941.7055	0.202678	-388.260698	-388.249187	-388.248242	-388.298092	40.854	
C	-0.0313682886	 1.6036129236	-0.0188504419	-0.380616
C	 0.0085344895	 0.0732457207	 0.0053543724	-0.176507
C	 0.7031356792	-0.5205143335	-1.2232712145	-0.169418
C	 0.7667339622	-2.0664973466	-1.2319383366	-0.171458
C	 1.3385452201	-2.5889351182	-2.5680975975	-0.176165
C	 1.3148645825	-4.1063688215	-2.6970173949	-0.085743
O	 1.811710285	-4.4323110049	-3.9874752045	-0.421963
C	 1.5304779562	-2.5720887876	-0.0897516591	 0.359647
C	 2.1780155309	-2.9740645568	 0.8411069525	-0.500145
H	 0.9795713845	 2.0253459482	-0.0444764091	 0.115311
H	-0.5656886281	 1.9751182517	-0.900608787	 0.112318
H	-0.5351140083	 2.0022235978	 0.8671988884	 0.112029
H	 0.5222923574	-0.2702831165	 0.9103273448	 0.112663
H	-1.0154022483	-0.3195068004	 0.0664005503	 0.091655
H	 0.1771756368	-0.2012750318	-2.1321380365	 0.09362
H	 1.7246761374	-0.126770297	-1.298275024	 0.1031
H	-0.2640829816	-2.4406970392	-1.1374387628	 0.10081
H	 0.7541539831	-2.1613665379	-3.3906303333	 0.105153
H	 2.3696255222	-2.2391057519	-2.689830581	 0.112849
H	 1.9283700098	-4.5568277306	-1.9037314128	 0.101768
H	 0.2833288749	-4.4741963228	-2.5636765968	 0.080453
H	 1.8689129301	-5.3897777141	-4.0527111888	 0.285522
H	 2.7401173731	-3.3347234307	 1.6666563829	 0.195119
69.9372	80.0657	84.7064	110.6062	112.846	175.5413	240.3857	248.7714	254.1192	257.422	306.0697	393.5425	427.6901	546.3494	615.0999	624.8299	634.1881	746.3856	783.888	831.1239	898.1184	909.7658	1001.4567	1027.7466	1035.3868	1063.6789	1075.877	1103.6937	1139.4778	1142.5261	1219.7591	1236.3725	1259.3611	1289.3829	1312.262	1326.6635	1333.1328	1351.5545	1370.7306	1395.3565	1413.1951	1463.6246	1479.8997	1490.9555	1494.8068	1500.6189	1511.0345	1528.9271	2227.3292	2958.3961	2989.2177	3014.8809	3015.7612	3021.9174	3029.2255	3041.5902	3053.3704	3071.1213	3089.0184	3097.3698	3102.0351	3503.2596	3831.8724
CCCC(CCO)C#C	CCC[C@@H](CCO)C#C	
InChI=1S/C8H14O/c1-3-5-8(4-2)6-7-9/h2,8-9H,3,5-7H2,1H3	InChI=1S/C8H14O/c1-3-5-8(4-2)6-7-9/h2,8-9H,3,5-7H2,1H3/t8-/m0/s1
