17
gdb 39563	2.77626	2.1991	1.69794	2.1492	74.54	-0.2401	-0.001	0.239	845.5879	0.140118	-380.85982	-380.853638	-380.852694	-380.890063	25.915	
C	 0.0093826618	 1.5224924949	-0.1352633283	-0.291956
C	 1.3822185037	 2.1315175074	 0.0251215679	-0.046718
C	 2.3209935516	 1.5747120049	 0.7864340413	-0.043295
C	 2.0127523415	 0.2968412517	 1.5411587633	-0.067827
N	 1.1599908633	 0.6523157993	 2.7154023388	-0.197746
C	 0.0078174867	 0.1634272848	 2.4895301702	 0.026009
N	-0.188423789	-0.6843918251	 1.3601484186	-0.145632
C	-0.0005750848	 0.0018099099	 0.0350253786	-0.022139
C	 1.1394055076	-0.6556114357	 0.7104280342	-0.063785
H	-0.6835861557	 1.9866976082	 0.580961071	 0.131495
H	-0.3894328988	 1.7616215281	-1.1265450981	 0.111783
H	 1.5722221035	 3.0649643058	-0.4967508302	 0.096652
H	 3.2917773563	 2.0388012317	 0.9224544699	 0.097955
H	 2.9278405197	-0.1852457927	 1.8925154854	 0.086976
H	-0.8373491451	 0.3224083513	 3.1534947763	 0.124197
H	-0.509002692	-0.5410176585	-0.7564408684	 0.106416
H	 1.5433276298	-1.6008663159	 0.3638811295	 0.097616
157.8947	259.5688	360.2607	451.175	484.6259	576.088	601.4334	688.5064	716.979	736.6622	783.8576	859.0322	878.7936	886.1818	926.4488	949.2206	957.1789	980.268	988.7413	1019.8524	1037.4605	1063.6314	1087.293	1127.9543	1181.2586	1224.5461	1268.3936	1283.8384	1307.8939	1313.4636	1335.8444	1352.6619	1395.2701	1410.7022	1467.8103	1665.9063	1709.5902	3009.5063	3065.0057	3080.5837	3146.2929	3164.9527	3165.4419	3182.7303	3193.9344
C1C=CC2N=CN3C1C23	C1C=C[C@H]2N=CN3[C@@H]1[C@@H]23	
InChI=1S/C7H8N2/c1-2-5-7-6(3-1)9(7)4-8-5/h1-2,4-7H,3H2	InChI=1S/C7H8N2/c1-2-5-7-6(3-1)9(7)4-8-5/h1-2,4-7H,3H2/t5-,6+,7-,9?/m1/s1
