20
gdb 78169	2.20768	1.64169	1.24515	3.2332	79.71	-0.2092	-0.0155	0.1936	1104.0036	0.1707	-403.149812	-403.14102	-403.140076	-403.183047	33.316	
C	-0.1137075748	 1.5388374509	 0.0818441033	-0.425163
C	 0.0279690934	 0.0353561609	-0.0193762672	-0.019081
C	 0.6402654229	-0.7340372611	-1.1608714899	-0.026883
C	 1.3458954328	-0.7327007219	 0.1758489017	-0.208787
C	 2.634572276	-0.0053720068	-0.0442844338	 0.408326
O	 3.5572543785	 0.0771623104	 0.726466959	-0.325249
C	 2.6222001686	 0.5519689682	-1.474843499	-0.29409
N	 1.4954618578	-0.0922982491	-2.1327466047	-0.057448
C	 0.8480807359	 0.6427755062	-3.2002739729	-0.323087
H	 0.6994960942	 2.0808450895	-0.4029320681	 0.127416
H	-1.0496832594	 1.864592412	-0.3846784588	 0.123309
H	-0.1389919099	 1.8532562106	 1.1307552091	 0.128983
H	-0.7939872725	-0.4977647236	 0.4557654558	 0.096683
H	 0.1266504456	-1.6204621946	-1.5242911641	 0.096867
H	 1.3628152159	-1.5717851532	 0.8597455584	 0.110514
H	 2.5432797836	 1.6518620948	-1.4276286525	 0.114232
H	 3.5765736785	 0.3278002916	-1.9684699103	 0.129759
H	 1.5760639199	 0.8685567528	-3.986887092	 0.123162
H	 0.0614170979	 0.0240600462	-3.6438641173	 0.121431
H	 0.390882395	 1.5953378561	-2.8787603165	 0.099105
104.9347	124.1817	174.8983	193.0979	234.0101	268.2115	308.9862	367.8521	459.3629	540.1183	571.7241	613.1659	654.3828	733.5561	778.9162	852.4836	881.7908	927.6461	961.5885	1017.4096	1037.3952	1067.5628	1085.7754	1109.2411	1132.3201	1150.1854	1184.4161	1195.0511	1212.9435	1225.9673	1282.6762	1318.1934	1345.6413	1374.0072	1417.9777	1424.2919	1459.9692	1480.7289	1493.2026	1497.3669	1507.2658	1512.8712	1838.4859	2947.4883	2956.2575	3030.9874	3037.9429	3056.0829	3092.253	3099.185	3114.4304	3134.5936	3141.4611	3196.2596
CC1C2C1C(=O)CN2C	C[C@H]1[C@@H]2[C@H]1C(=O)CN2C	
InChI=1S/C7H11NO/c1-4-6-5(9)3-8(2)7(4)6/h4,6-7H,3H2,1-2H3	InChI=1S/C7H11NO/c1-4-6-5(9)3-8(2)7(4)6/h4,6-7H,3H2,1-2H3/t4-,6-,7-/m1/s1
