20
gdb 19353	3.94538	1.61807	1.43143	0.3684	78.03	-0.2033	0.0844	0.2877	975.972	0.177255	-311.802824	-311.795197	-311.794253	-311.834488	30.424	
C	-0.2221074594	 1.5111132171	-0.0049296132	-0.371431
C	 0.1023541126	 0.0110586684	 0.0355887782	-0.291172
C	 0.7739394443	-0.4764227273	-1.2180884009	 0.388813
C	 0.0267458691	-0.9307634687	-2.4449208909	-0.354472
C	 0.9602550899	-1.8892597183	-1.7460622191	-0.130399
C	 2.4669798581	-1.6055347708	-1.9977132384	-0.046387
C	 2.7365061298	-0.438008275	-2.9075459062	-0.302542
C	 2.2845831431	-0.1843664175	-1.4941730801	-0.107907
H	 0.6843624325	 2.1065581268	-0.1580568644	 0.11796
H	-0.9098815315	 1.7403877054	-0.8253146531	 0.117375
H	-0.6851432569	 1.8424943484	 0.9298506341	 0.107977
H	 0.7474065128	-0.1993111369	 0.9000443591	 0.094331
H	-0.8194877682	-0.5623264704	 0.1950965332	 0.093345
H	-1.0246826595	-1.1378475785	-2.262513704	 0.105945
H	 0.2145610805	-0.5451217573	-3.4410022081	 0.107653
H	 0.6056555784	-2.8178845569	-1.3156220005	 0.08347
H	 3.2409992205	-2.313847065	-1.7317273663	 0.085649
H	 3.7927719905	-0.2431906549	-3.0715316273	 0.108882
H	 2.1238164684	-0.2111763725	-3.7730889408	 0.110221
H	 2.8974417951	 0.3587260637	-0.7850259614	 0.082688
93.8919	144.6696	201.0356	293.4934	332.7191	394.8479	438.2785	504.8037	625.5947	699.3692	760.0671	782.9147	808.4256	835.0094	884.6589	907.9071	916.2132	963.5793	971.6858	998.2069	1004.3993	1031.2158	1047.2252	1055.2754	1066.5783	1095.1213	1096.6039	1131.8817	1182.0993	1215.1632	1254.7755	1279.498	1311.0442	1333.3997	1356.7071	1403.1243	1410.6535	1478.4211	1484.3795	1497.3488	1507.3174	1515.6075	3008.0251	3033.0406	3045.6559	3101.3631	3105.1594	3116.8874	3129.4142	3177.6749	3180.2638	3192.2793	3196.3164	3204.8351
CCC12CC1C1CC21	CC[C@]12C[C@H]1[C@H]1C[C@@H]21	
InChI=1S/C8H12/c1-2-8-4-7(8)5-3-6(5)8/h5-7H,2-4H2,1H3	InChI=1S/C8H12/c1-2-8-4-7(8)5-3-6(5)8/h5-7H,2-4H2,1H3/t5-,6+,7-,8+/m0/s1
