27
gdb 120735	2.8889	0.73393	0.65873	0.1029	97.28	-0.2614	0.0873	0.3486	1910.952	0.2506	-353.561452	-353.55009	-353.549146	-353.598334	42.086	
C	-1.195800967	 1.1084030781	 0.3237280791	-0.381669
C	-0.6429898115	-0.3176007527	 0.2587543275	-0.156145
C	 0.0056892301	-0.7728494388	 1.5737689091	-0.194048
C	 0.539978444	-2.1897254598	 1.5026606354	-0.009408
C	 1.9145545318	-2.4746974322	 0.9392617987	-0.31173
C	 1.6328090631	-2.7268137911	 2.4013571752	 0.010339
C	 2.3093092562	-1.915970794	 3.4946071059	 0.023128
C	 1.4704642504	-1.9163103399	 4.7814541222	-0.387244
C	 3.7264143946	-2.4459454028	 3.7610230928	-0.384148
H	-0.4034694029	 1.8305068042	 0.5514824241	 0.11193
H	-1.6522745979	 1.4049834502	-0.6258881861	 0.11
H	-1.9598919154	 1.2025970646	 1.1036756682	 0.112272
H	-1.4510256056	-1.0132972761	-0.0037301438	 0.092262
H	 0.0954654699	-0.393815076	-0.5493376091	 0.098355
H	 0.8123065521	-0.0757248831	 1.8316278602	 0.092533
H	-0.7340213563	-0.6941267216	 2.3831513383	 0.092028
H	-0.2249868595	-2.9182230712	 1.2398739867	 0.075474
H	 2.053259804	-3.31770318	 0.2708836434	 0.104217
H	 2.533704996	-1.6146358997	 0.6974986011	 0.103455
H	 1.5146748011	-3.7750664829	 2.6740110996	 0.072381
H	 2.4031587762	-0.8775392598	 3.1514031663	 0.067931
H	 0.4721571956	-1.5036175875	 4.6074305262	 0.115558
H	 1.3464621374	-2.936473809	 5.1646613151	 0.109253
H	 1.9505816545	-1.324270267	 5.5680771086	 0.106177
H	 4.3368871008	-2.4201503711	 2.8530519702	 0.112873
H	 4.2332642535	-1.8528487489	 4.5297561806	 0.105364
H	 3.6948861348	-3.484905002	 4.1110036947	 0.108861
60.425	78.1305	86.8458	111.3065	181.1239	226.6181	240.8186	249.4162	260.0293	301.1339	336.8811	370.342	419.9531	477.5325	570.7726	744.7548	756.7572	815.1646	858.0958	865.8168	902.0863	904.4662	929.7162	958.3285	970.5716	984.701	1030.1383	1052.8568	1064.4733	1084.1934	1126.819	1138.8713	1150.6907	1186.7079	1200.3357	1212.0445	1252.0007	1270.1296	1301.6423	1317.3247	1328.3607	1344.0217	1381.1441	1398.8203	1406.1303	1412.5113	1420.486	1437.271	1480.9522	1487.4262	1491.3001	1492.527	1496.5554	1500.3803	1503.2344	1510.448	1511.9146	3005.17	3017.2371	3018.4731	3023.0181	3027.2275	3027.7223	3041.8177	3060.9518	3086.1332	3092.2655	3093.9741	3099.8783	3102.5739	3104.412	3106.1621	3117.3352	3121.3528	3201.6512
CCCC1CC1C(C)C	CCC[C@H]1C[C@H]1C(C)C	
InChI=1S/C9H18/c1-4-5-8-6-9(8)7(2)3/h7-9H,4-6H2,1-3H3	InChI=1S/C9H18/c1-4-5-8-6-9(8)7(2)3/h7-9H,4-6H2,1-3H3/t8-,9-/m0/s1
