17
gdb 96877	4.09622	0.9325	0.81904	6.6385	71.72	-0.2338	0.0129	0.2467	1387.8036	0.135897	-455.171045	-455.16189	-455.160946	-455.206003	32.113	
C	 0.1850793996	 1.5224964966	 0.4931334115	-0.335288
N	 0.1268434694	 0.0719626414	 0.4263387947	-0.367065
H	 0.9825495577	-0.4512655731	 0.5043615757	 0.257067
C	-0.9615600274	-0.5706010331	-0.030108308	 0.442177
C	-1.2353200085	-2.0380191486	-0.2375466916	-0.380793
C	-2.632054037	-1.4583305119	-0.6334813425	-0.091655
N	-2.1201777382	-0.0769056227	-0.3735670643	-0.360719
C	-3.0742645745	-1.6782729987	-2.0756721948	 0.414487
O	-3.3784177228	-2.7510923377	-2.5235649358	-0.342007
O	-3.0922369231	-0.5502956056	-2.8065512372	-0.368294
H	 0.8992369215	 1.8259123826	 1.2619427059	 0.13361
H	 0.4778387643	 1.9737485503	-0.4632206717	 0.134907
H	-0.8062398775	 1.8961831597	 0.7579071949	 0.169938
H	-0.6834057416	-2.5252707408	-1.0449456242	 0.14144
H	-1.2093675275	-2.6689369619	 0.6542255898	 0.131643
H	-3.4465795369	-1.7619645689	 0.0317936527	 0.112538
H	-2.7852392776	 0.1649641723	-2.2146575551	 0.308014
57.174	75.2203	102.9493	143.3096	183.594	239.2114	335.467	377.402	467.8618	484.7617	555.0954	595.3485	716.1205	753.1616	780.7883	812.2846	953.8201	979.9935	1018.9736	1029.4904	1086.901	1107.7917	1149.2837	1176.8054	1193.2202	1219.902	1228.0925	1303.1251	1342.6237	1403.6141	1450.579	1466.96	1488.2396	1507.6026	1569.0628	1679.0639	1868.6719	3024.9374	3062.3514	3069.7498	3100.2109	3125.7331	3142.8547	3565.7963	3656.6768
C[NH+]=C1CC(N1)C([O-])=O	CN[C]1C[C@@H]([N]1)C(=O)O	
InChI=1S/C5H8N2O2/c1-6-4-2-3(7-4)5(8)9/h3H,2H2,1H3,(H,6,7)(H,8,9)	InChI=1S/C5H8N2O2/c1-6-4-2-3(7-4)5(8)9/h3H,2H2,1H3,(H,6,7)(H,8,9)/t3-/m1/s1
