21
gdb 60220	3.87086	0.97008	0.89823	3.281	78.77	-0.2471	0.0712	0.3183	1384.521	0.181888	-424.185812	-424.176925	-424.175981	-424.219635	34.388	
C	 0.0340005797	 1.5626380663	 0.0804133568	-0.382872
C	-0.1157565707	 0.0569321838	 0.2647142783	 0.156807
O	 0.0578902209	-0.2114551901	 1.6463664156	-0.449621
C	-1.4828767386	-0.4533593271	-0.2292689129	-0.23908
C	-1.5648181937	-1.9701129066	-0.2816184521	 0.130116
O	-1.1385679367	-2.6388827554	 0.960865824	-0.314491
C	-2.3457965338	-3.4084556458	 0.9761418774	 0.11241
C	-3.5403715488	-2.5282071295	 1.1392422304	-0.300793
C	-2.9095377378	-2.6979486386	-0.2306083003	-0.155389
H	 0.9877710462	 1.8944172346	 0.4994901516	 0.123805
H	 0.0036538638	 1.8358584164	-0.9788467784	 0.104027
H	-0.7685344424	 2.0925396241	 0.6038406947	 0.11717
H	 0.6731405297	-0.4468264342	-0.3241267954	 0.056794
H	-0.2055348964	-1.1307254996	 1.792900122	 0.290293
H	-2.2574556966	-0.0469954529	 0.4304328284	 0.103715
H	-1.6785261535	-0.0759710057	-1.2413215223	 0.097271
H	-0.936132629	-2.357082268	-1.0936071523	 0.089319
H	-2.270777813	-4.4528977541	 1.2534284665	 0.111136
H	-4.4877525578	-3.0450408433	 1.2570025262	 0.119605
H	-3.4508245396	-1.5994350982	 1.694461816	 0.12592
H	-3.448302502	-3.0828457459	-1.0852445841	 0.103859
59.7378	97.3114	176.0101	224.2812	240.6228	303.9105	337.5764	439.0851	466.2261	505.0037	535.7961	552.9235	720.6348	769.7238	812.5312	832.1701	872.8727	942.1502	948.3599	958.5744	978.4974	990.5718	1031.201	1042.0548	1052.0821	1080.3016	1085.8818	1103.9195	1147.9755	1157.9217	1200.4023	1240.0299	1263.0359	1279.9104	1311.2753	1334.6716	1366.2981	1382.2951	1397.248	1406.4699	1462.1256	1473.805	1476.4277	1487.0019	1501.0286	2925.0691	3024.0235	3027.6063	3039.1082	3079.6966	3111.0958	3119.8887	3123.4116	3187.6641	3207.327	3216.5077	3730.3331
CC(O)CC1OC2CC12	C[C@@H](O)C[C@H]1O[C@H]2C[C@@H]12	
InChI=1S/C7H12O2/c1-4(8)2-6-5-3-7(5)9-6/h4-8H,2-3H2,1H3	InChI=1S/C7H12O2/c1-4(8)2-6-5-3-7(5)9-6/h4-8H,2-3H2,1H3/t4-,5+,6-,7+/m1/s1
