13
gdb 128986	4.04414	1.76849	1.23043	2.1677	73.1	-0.2572	-0.0679	0.1892	908.7326	0.095313	-411.832069	-411.82652	-411.825576	-411.861944	22.267	
N	 0.0320238558	 1.2421749013	 0.0089989059	-0.058897
N	 1.2029606714	 1.8603213075	 0.0009101176	-0.312727
C	 2.0604944685	 0.8191314159	-0.0133072273	 0.300574
C	 3.4670609609	 0.7551969989	-0.0275089311	-0.202809
C	 3.9983483115	-0.5111635666	-0.0397613349	-0.101365
C	 3.1490792083	-1.6587371286	-0.0377608416	-0.024868
N	 1.8324771751	-1.6357153137	-0.0246686639	-0.322753
C	 1.3083944328	-0.3928177496	-0.0126164763	 0.359894
N	-0.0061493415	-0.077936137	 0.0020739645	-0.292185
H	-0.8249804631	 1.7758412212	 0.0203872828	 0.30356
H	 4.0806210654	 1.6486941454	-0.0285960493	 0.124896
H	 5.0718863572	-0.6623250712	-0.0511708772	 0.110651
H	 3.6109117377	-2.6438958634	-0.0477701392	 0.116031
236.917	273.2709	454.9393	460.7944	557.7955	608.1108	648.9401	651.7517	726.6602	792.8715	811.0984	852.6618	925.9792	976.772	987.1477	998.5135	1033.504	1145.6532	1183.071	1228.2017	1264.1225	1347.2401	1379.0411	1403.9022	1420.4896	1490.7648	1549.8859	1584.7326	1648.5576	3151.2508	3192.9266	3209.4762	3640.7208
N1N=C2C=CC=NC2=N1	[nH]1nc2cccnc2n1	
InChI=1S/C5H4N4/c1-2-4-5(6-3-1)8-9-7-4/h1-3H,(H,6,7,8,9)	InChI=1S/C5H4N4/c1-2-4-5(6-3-1)8-9-7-4/h1-3H,(H,6,7,8,9)
