15
gdb 32033	4.02555	1.17965	0.91761	7.1285	72.47	-0.2446	-0.0334	0.2112	1207.5453	0.114992	-450.204167	-450.195913	-450.194968	-450.238658	28.967	
C	 0.0494819145	 1.4828528179	-0.0497135944	-0.338015
N	-0.0578013504	 0.034169702	-0.1041850258	-0.379819
C	-1.2241080328	-0.6369141835	-0.0047465047	 0.570749
N	-2.36647372	 0.0057471214	 0.1526754512	-0.355143
C	-3.4559515365	-0.7956352828	 0.2375941787	 0.076973
N	-3.5406058904	-2.0988293425	 0.1869336947	-0.323442
C	-2.3673423531	-2.8016273069	 0.0232641341	 0.439817
O	-2.2464263599	-4.001652745	-0.0456355163	-0.377514
N	-1.1925966779	-1.9918846346	-0.0707746498	-0.415026
H	 0.6768176844	 1.7945659577	 0.7916590777	 0.13742
H	 0.4780632908	 1.8758876243	-0.9773381958	 0.137417
H	-0.9535992068	 1.8858455229	 0.0814727785	 0.190065
H	 0.7865383034	-0.5008937432	-0.2235401541	 0.254195
H	-4.3947136019	-0.2577728073	 0.3674311439	 0.124318
H	-0.3309945835	-2.5073434602	-0.1909122979	 0.258004
19.826	93.1621	155.9885	190.1337	227.4632	395.302	403.945	442.4701	512.7602	594.8831	630.2131	658.1698	763.0889	815.7332	832.0388	913.9375	1004.3184	1032.8961	1100.6565	1110.8516	1152.31	1157.6669	1281.9906	1337.3886	1407.1662	1440.446	1458.5801	1499.4094	1503.8184	1551.1457	1632.9295	1642.8699	1830.8819	3037.5047	3093.7455	3140.265	3172.3406	3591.2479	3646.0873	19.8223	93.1616	155.9885	190.1337	227.4631	395.3018	403.9451	442.4701	512.7601	594.8828	630.2133	658.1697	763.089	815.7333	832.0388	913.9377	1004.3183	1032.8963	1100.6566	1110.8517	1152.3101	1157.6672	1281.9901	1337.3887	1407.1663	1440.4462	1458.58	1499.4098	1503.8187	1551.1459	1632.9295	1642.8701	1830.8811	3037.5046	3093.7454	3140.265	3172.3406	3591.2484	3646.0872
CNC1=NC=NC(=O)N1	CNc1ncnc(=O)[nH]1	
InChI=1S/C4H6N4O/c1-5-3-6-2-7-4(9)8-3/h2H,1H3,(H2,5,6,7,8,9)	InChI=1S/C4H6N4O/c1-5-3-6-2-7-4(9)8-3/h2H,1H3,(H2,5,6,7,8,9)
