22
gdb 83288	2.69377	1.28248	1.14689	1.9769	81.5	-0.2151	0.0712	0.2863	1191.0021	0.195686	-404.327328	-404.318468	-404.317523	-404.360525	34.591	
C	-0.4921222234	 1.3067923687	-0.2889258626	-0.32317
N	-0.0019985582	-0.0379951851	-0.0530064998	-0.092461
C	 1.3870922846	-0.4155024377	-0.2656213303	-0.009392
C	 2.5077201337	 0.546686131	-0.6468097856	-0.24547
C	 2.8397948065	 1.6352729457	 0.3928258288	-0.236287
C	 2.7317863759	 1.1116974718	 1.8261822577	 0.142247
O	 3.0374649118	 2.1170893697	 2.7848295638	-0.441014
C	 1.3085560159	 0.6369837121	 2.1257299189	-0.226953
C	 0.8029067347	-0.3915748315	 1.1182803891	-0.049554
H	-0.666953403	 1.4303387157	-1.3627503945	 0.121926
H	-1.4560149413	 1.4224106545	 0.218283915	 0.123669
H	 0.1582893662	 2.1285651609	 0.0413587029	 0.104611
H	 1.4835157861	-1.3817247194	-0.7611713877	 0.083218
H	 3.4007968276	-0.0720124397	-0.8002392238	 0.104614
H	 2.2970846001	 1.0071879651	-1.6202259799	 0.104781
H	 3.8572685153	 2.0049879409	 0.2095873308	 0.082551
H	 2.1775141908	 2.5025004639	 0.2969302643	 0.113032
H	 3.4175034391	 0.2543956238	 1.9432473395	 0.060859
H	 3.9245512156	 2.4432041519	 2.6024504526	 0.278056
H	 1.2835443555	 0.2044753866	 3.1296707876	 0.106733
H	 0.6591854518	 1.5201812688	 2.1572958537	 0.111659
H	 0.4991498646	-1.3387157774	 1.5603757292	 0.086345
98.3703	121.7713	206.2512	214.2206	267.0797	283.9763	339.6521	399.5424	425.4321	461.0981	482.7591	558.0106	688.5795	721.723	759.9955	831.61	846.6017	912.0343	951.3403	962.5054	1038.7551	1050.1019	1083.6762	1092.47	1111.6795	1130.8036	1148.1183	1159.554	1188.7915	1190.9296	1233.3361	1252.5253	1294.4871	1322.9238	1340.4789	1357.8754	1372.6557	1373.5374	1403.0858	1423.3181	1436.1051	1459.3837	1480.3897	1484.9959	1491.7214	1505.1469	1513.2668	2945.6657	3003.6598	3015.08	3025.9924	3041.6746	3046.864	3065.3665	3076.0128	3087.1254	3093.2038	3094.4932	3114.5607	3814.0049
CN1C2CCC(O)CC12	CN1[C@H]2CC[C@@H](O)C[C@@H]12	
InChI=1S/C7H13NO/c1-8-6-3-2-5(9)4-7(6)8/h5-7,9H,2-4H2,1H3	InChI=1S/C7H13NO/c1-8-6-3-2-5(9)4-7(6)8/h5-7,9H,2-4H2,1H3/t5-,6+,7-,8?/m1/s1
