16
gdb 23070	4.53539	1.12302	1.0489	0.8607	73.03	-0.2227	0.026	0.2487	1134.4132	0.123543	-437.779977	-437.772309	-437.771365	-437.811847	30.412	
O	-0.2031795923	 1.328294478	 0.0026032314	-0.404363
N	-0.0230590538	-0.0744181252	-0.0967126037	-0.312383
C	-1.1401867008	-0.6704977625	-0.0704530373	 0.49592
C	-1.4932376781	-2.1058216809	-0.0295737039	-0.248438
C	-2.7865896254	-1.7595375727	 0.7354876372	-0.121734
C	-2.6041293729	-0.3012122457	 0.1326626173	-0.173569
C	-3.2854044938	-0.8135280026	-1.1795341954	-0.298223
C	-2.9109262403	-2.2085351316	-0.6762133398	 0.389939
O	-3.4110869905	-3.4192472685	-1.0919571923	-0.457565
H	 0.7066990867	 1.6422284111	 0.003503594	 0.303558
H	-0.8694139924	-2.9817320373	 0.0792426485	 0.104422
H	-3.1473837822	-2.129982505	 1.6826521415	 0.113898
H	-2.8965837647	 0.6343722327	 0.5969243533	 0.103274
H	-4.368938551	-0.6681743242	-1.1538260732	 0.111693
H	-2.872634327	-0.4569956804	-2.12930401	 0.102452
H	-2.9593846514	-3.6755455853	-1.9041430175	 0.291119
108.9419	177.4815	288.7622	294.689	341.5371	364.6221	379.0867	470.995	488.8269	636.2088	653.0445	701.7974	739.7805	787.0405	829.0657	882.5204	903.0671	916.3115	944.1218	965.6051	1012.2307	1044.2371	1089.5099	1112.8386	1125.3334	1144.0218	1192.5304	1227.5614	1255.0187	1268.6199	1311.1581	1408.9827	1445.4872	1504.2179	1793.8811	3043.0463	3107.9685	3183.8759	3224.3216	3241.9114	3791.9536	3826.8851
ON=C1C2C3C1CC23O	ON=C1[C@H]2[C@H]3[C@@H]1C[C@@]23O	
InChI=1S/C6H7NO2/c8-6-1-2-3(6)4(6)5(2)7-9/h2-4,8-9H,1H2	InChI=1S/C6H7NO2/c8-6-1-2-3(6)4(6)5(2)7-9/h2-4,8-9H,1H2/t2-,3+,4+,6-/m0/s1
