19
gdb 59918	2.75906	0.93286	0.71947	3.1985	77.26	-0.2485	-0.0115	0.237	1561.09	0.158549	-456.388161	-456.378262	-456.377318	-456.423456	35.631	
C	 0.3952548191	 1.2714666592	 0.3784013825	-0.401134
C	-0.0209678353	-0.1923229852	 0.2593732468	 0.101567
O	-0.0374805521	-0.8236644183	 1.547627148	-0.419938
C	-1.3685977511	-0.3490151621	-0.4665010666	-0.314341
C	-1.7817813262	-1.7686225742	-0.8551648718	 0.393904
O	-2.3427323165	-2.0084231066	-1.9056771093	-0.358151
N	-1.4973006722	-2.7388176385	 0.0835253222	-0.303968
C	-1.8261460431	-4.0739155894	-0.0796379378	 0.095113
N	-1.5334556635	-4.9223489499	 0.8206125617	-0.461456
H	 1.3375477006	 1.3514705487	 0.9266343022	 0.133482
H	 0.5256958491	 1.725037193	-0.6084941609	 0.130694
H	-0.3670017886	 1.8517199057	 0.9136441785	 0.113333
H	 0.7494551367	-0.7413188052	-0.2939180128	 0.111808
H	-0.5957163567	-0.2953176804	 2.1304740677	 0.286245
H	-2.1621460349	 0.0743734579	 0.1664423488	 0.118733
H	-1.3688255674	 0.2264919502	-1.3952766006	 0.135687
H	-0.9977166621	-2.4636574884	 0.9244816488	 0.27523
H	-2.3364833857	-4.2601406805	-1.0267230521	 0.134272
H	-1.8465793301	-5.8501016261	 0.5398177747	 0.22892
61.6455	94.2606	122.5561	157.5224	207.1857	240.226	256.3637	314.1325	345.3706	381.4076	455.4791	473.8106	520.1153	616.393	707.5677	815.8574	840.176	853.966	909.6087	938.4336	988.4934	1049.2068	1069.9739	1095.3625	1112.5177	1144.8156	1182.9452	1258.0806	1298.3074	1310.0177	1320.0795	1378.9423	1398.9075	1407.8662	1420.2344	1456.0527	1492.5218	1495.9018	1523.2294	1725.2641	1794.3768	3014.9348	3028.1638	3054.9968	3100.0524	3110.877	3120.2827	3125.7358	3500.863	3512.1342	3791.7436
CC(O)CC(=O)NC=N	C[C@@H](O)CC(=O)NC=N	
InChI=1S/C5H10N2O2/c1-4(8)2-5(9)7-3-6/h3-4,8H,2H2,1H3,(H2,6,7,9)	InChI=1S/C5H10N2O2/c1-4(8)2-5(9)7-3-6/h3-4,8H,2H2,1H3,(H2,6,7,9)/t4-/m1/s1
