20
gdb 89031	3.99443	0.67647	0.63412	1.7588	76.64	-0.2459	0.0331	0.279	1790.4319	0.168513	-440.308165	-440.297492	-440.296548	-440.346205	36.714	
C	 0.3897116254	 1.4511914923	-0.4078808566	-0.419213
C	 0.0531735479	 0.0519345595	 0.0395656607	 0.078675
O	 1.1412050178	-0.8527973962	 0.2680654325	-0.271144
C	 0.3080569174	-0.4960205921	 1.382755885	 0.053697
C	 0.959325326	 0.2464373187	 2.5221282959	-0.213994
C	 1.9126900626	-0.6606764434	 3.3076972324	-0.302289
C	 2.4564892273	 0.025629764	 4.5593349173	 0.407735
N	 3.6530720437	-0.4580297356	 5.0027697813	-0.52425
O	 1.8630655223	 0.9186388376	 5.1335072897	-0.360288
H	 1.2208729725	 1.8738409212	 0.1592622212	 0.130152
H	 0.6704436431	 1.448915441	-1.4664384927	 0.12851
H	-0.480724447	 2.1066325124	-0.2948347302	 0.123684
H	-0.7725825207	-0.4024265035	-0.5135922523	 0.084573
H	-0.3450310072	-1.3125338648	 1.7045703087	 0.082727
H	 1.5097645637	 1.115534476	 2.1531730375	 0.109531
H	 0.1920827359	 0.6254391801	 3.2049807945	 0.128033
H	 1.3824190499	-1.5651282302	 3.6372280862	 0.126705
H	 2.7294365337	-1.0009765099	 2.6617569005	 0.119024
H	 4.15162009	-1.1867731271	 4.524256178	 0.258397
H	 4.0431396654	-0.0725416999	 5.8469191702	 0.259736
24.67	54.7366	78.8804	83.2898	105.1616	165.7955	234.6542	249.2029	368.4677	426.2976	468.0717	509.8217	549.3565	606.3945	667.7783	753.3404	795.9097	823.7331	876.3919	923.8934	990.0341	1016.9928	1054.5088	1079.5627	1105.6233	1111.2173	1167.1099	1176.2774	1210.5644	1250.3259	1304.7607	1309.6697	1338.76	1395.6577	1409.1947	1421.9905	1462.4054	1470.6494	1480.5174	1491.8018	1513.7745	1616.0755	1795.8013	3020.574	3039.477	3059.7913	3062.3442	3071.3397	3078.7198	3099.261	3111.3949	3138.1828	3605.1921	3743.4461
CC1OC1CCC(N)=O	C[C@H]1O[C@H]1CCC(=O)N	
InChI=1S/C6H11NO2/c1-4-5(9-4)2-3-6(7)8/h4-5H,2-3H2,1H3,(H2,7,8)	InChI=1S/C6H11NO2/c1-4-5(9-4)2-3-6(7)8/h4-5H,2-3H2,1H3,(H2,7,8)/t4-,5+/m1/s1
