19
gdb 92200	3.18276	1.57245	1.32843	1.7953	75.23	-0.2362	0.0689	0.3051	1000.6858	0.160911	-422.955998	-422.94888	-422.947935	-422.987123	29.83	
O	-0.0584064472	 1.5066160992	 0.1340353719	-0.430586
C	 0.0243659549	 0.1079564063	 0.0379226187	-0.010589
C	 0.2890159677	-0.7529638664	 1.3504105518	-0.35482
C	-0.748568088	-1.7546559342	 0.7508957741	 0.147846
O	-1.9203753737	-2.3735885807	 1.2996574278	-0.300358
C	-2.9394568366	-1.594772804	 0.6128540941	 0.099172
C	-2.4879826362	-0.1572837032	 0.9172025304	-0.244962
C	-1.335021356	-0.6003739532	-0.0419501709	 0.289984
C	-2.4263694372	-1.3459843024	-0.862259662	-0.350054
H	 0.8328477922	 1.8598471458	 0.2194102078	 0.286443
H	 0.7082454953	-0.203507301	-0.7643211085	 0.077217
H	 1.3014651365	-1.1280392109	 1.5138909553	 0.095293
H	-0.0583570439	-0.2185392485	 2.2346554442	 0.122113
H	-0.21847408	-2.4921448466	 0.1363382172	 0.074084
H	-3.9251865702	-1.997320969	 0.8398660951	 0.083408
H	-3.1066605522	 0.6180497342	 0.4623608982	 0.10536
H	-2.2707312478	 0.0768793084	 1.9595991539	 0.103954
H	-2.109405177	-2.2102539478	-1.450594404	 0.100788
H	-3.1219621006	-0.7197558959	-1.4238221852	 0.105707
153.6665	229.0536	255.4867	318.943	433.4967	457.9915	487.5462	526.4348	582.3371	650.6582	666.383	783.3774	803.5771	841.5467	875.5082	883.6181	930.2579	951.2135	977.3369	1010.4273	1022.043	1054.3418	1073.7796	1109.9189	1122.3497	1137.5695	1153.4147	1171.9505	1183.6774	1210.3986	1222.744	1246.7639	1260.1351	1272.7583	1307.4525	1316.4914	1392.0841	1436.5239	1473.319	1485.4729	1514.4569	2999.7103	3023.8357	3067.2388	3077.4586	3083.9325	3135.1438	3142.1259	3144.3568	3153.1817	3818.0716
OC1CC2OC3CC12C3	O[C@H]1C[C@H]2O[C@H]3C[C@@]12C3	
InChI=1S/C7H10O2/c8-5-1-6-7(5)2-4(3-7)9-6/h4-6,8H,1-3H2	InChI=1S/C7H10O2/c8-5-1-6-7(5)2-4(3-7)9-6/h4-6,8H,1-3H2/t4-,5-,6+,7+/m0/s1
