18
gdb 43700	7.15181	0.63703	0.61148	1.88	79.96	-0.2372	-0.0278	0.2094	1753.6955	0.144881	-401.900654	-401.89141	-401.890465	-401.935513	33.502	
O	-0.0589527767	-0.0458305595	-0.0313911574	-0.275643
C	-0.0381271497	 1.1407088032	 0.0842859744	 0.393202
C	-1.0945880783	 2.2457349277	 0.229848515	-0.288721
N	 0.0052905727	 3.1771972777	 0.5758409556	-0.084471
C	-0.0046698707	 4.4819240555	-0.0551440076	-0.144733
C	 1.1314194454	 5.3668517118	 0.4896702419	-0.356833
C	 1.1438062546	 6.6910894271	-0.1171562797	 0.295417
C	 1.1267663056	 7.7760157098	-0.633900788	-0.437553
C	 1.0586302947	 2.2130753272	 0.1714828164	-0.294968
H	-1.5867456881	 2.4562866483	-0.7343775637	 0.119751
H	-1.8617818032	 2.1156520488	 1.0002448607	 0.135333
H	 0.0823811601	 4.4163678022	-1.1568371318	 0.09121
H	-0.9643747676	 4.9620440742	 0.1620366853	 0.121362
H	 1.0224346212	 5.4448725263	 1.5777057785	 0.142016
H	 2.0951831131	 4.8720028709	 0.3114239308	 0.132784
H	 1.1236686972	 8.7387080004	-1.081732131	 0.197121
H	 1.862570244	 2.0529589172	 0.8969097054	 0.135525
H	 1.5031373657	 2.4110943411	-0.8189355947	 0.1192
52.6646	82.4962	99.3001	135.1459	226.3542	324.9885	347.2416	364.5578	432.3117	476.0516	507.0638	622.7672	647.1657	672.4901	768.9908	776.1154	786.5131	950.6721	963.6987	1018.649	1036.5828	1061.5035	1076.1269	1096.5754	1117.3785	1160.4702	1209.6461	1233.3307	1257.4408	1297.2882	1314.8645	1321.8311	1401.7924	1456.8538	1473.6806	1480.3493	1503.682	1923.8624	2241.2065	2920.0008	2966.0136	2976.8067	3023.3747	3059.363	3071.1767	3074.1361	3077.7229	3507.0445
O=C1CN(CCC#C)C1	O=C1CN(CCC#C)C1	
InChI=1S/C7H9NO/c1-2-3-4-8-5-7(9)6-8/h1H,3-6H2	InChI=1S/C7H9NO/c1-2-3-4-8-5-7(9)6-8/h1H,3-6H2
