22
gdb 9681	4.37215	1.09952	1.01381	1.0057	79.45	-0.2424	0.0871	0.3295	1285.0131	0.19769	-350.189988	-350.180044	-350.1791	-350.224508	36.176	
C	-0.1939120878	 1.5471467901	-0.3264784078	-0.368664
C	-0.0006788629	 0.1097556496	 0.1721207822	-0.211968
C	-1.3085834358	-0.6496541412	 0.2558470121	-0.031713
C	-1.9008669258	-1.3579696386	-0.9518657824	-0.352923
C	-1.4249249528	-2.1474254285	 0.2491590527	 0.416154
C	-0.2144864861	-3.0513316659	 0.1554655671	-0.457287
O	-2.4251431813	-2.6095484561	 1.1242449483	-0.280952
C	-3.1396456637	-3.7395795437	 0.6668698678	-0.244723
H	 0.7603099749	 2.0804883313	-0.3805306282	 0.108309
H	-0.6457826521	 1.559153284	-1.3238653405	 0.117691
H	-0.8542644508	 2.1107921462	 0.3416335708	 0.114978
H	 0.6959879326	-0.4108786364	-0.495197525	 0.092864
H	 0.4779357497	 0.1269816084	 1.160120037	 0.09971
H	-2.0505110596	-0.1839865995	 0.9004667474	 0.090996
H	-2.9698652343	-1.2794761404	-1.115889684	 0.111193
H	-1.3055505515	-1.4002225079	-1.8595062564	 0.104243
H	 0.5629141094	-2.6143366152	-0.4749542694	 0.118753
H	 0.2074271977	-3.2267740323	 1.1507150987	 0.123299
H	-0.4750369312	-4.0226071573	-0.278090846	 0.116194
H	-2.5177408795	-4.645202824	 0.6303579292	 0.105763
H	-3.9524711436	-3.9084648645	 1.3777287471	 0.123904
H	-3.5681941253	-3.5742106282	-0.3321721808	 0.104179
76.5778	94.7031	147.3272	154.5332	181.231	230.6868	254.3007	296.043	338.3337	366.3903	414.6406	428.475	588.9066	692.1386	778.569	816.9476	886.0169	916.8172	934.1612	941.9345	994.224	1045.5322	1046.2342	1087.8443	1122.5555	1128.2832	1135.4384	1180.9429	1194.4926	1219.6413	1248.7353	1297.2506	1320.8267	1349.957	1408.3918	1414.3117	1421.484	1471.0603	1477.0652	1480.8607	1487.4029	1494.9739	1498.7431	1506.2747	1509.2847	1513.8035	2988.6379	3019.1508	3032.0154	3034.8915	3041.0536	3054.2835	3096.5019	3100.1832	3104.5149	3111.1589	3121.9811	3126.3929	3138.28	3212.6538
CCC1CC1(C)OC	CC[C@H]1C[C@]1(C)OC	
InChI=1S/C7H14O/c1-4-6-5-7(6,2)8-3/h6H,4-5H2,1-3H3	InChI=1S/C7H14O/c1-4-6-5-7(6,2)8-3/h6H,4-5H2,1-3H3/t6-,7-/m0/s1
