13
gdb 124284	4.38369	1.13152	0.90438	3.0289	63.78	-0.2702	-0.0927	0.1775	1198.273	0.08722	-489.882694	-489.874618	-489.873674	-489.916454	28.11	
C	 0.1487463151	 1.4574649823	 0.034705081	-0.484356
C	 0.0074128357	-0.0438040054	 0.0300735407	 0.303326
O	-0.1434396663	-0.7274885183	 1.0115600592	-0.266172
C	 0.0636530058	-0.7024587575	-1.3166439457	 0.342925
N	 0.2194081116	-0.0923748777	-2.4348648262	-0.153796
O	 0.2077798246	-1.114359255	-3.3998779377	-0.236822
C	 0.0374537207	-2.3223180435	-2.7576420668	 0.513208
N	-0.0293652977	-3.4742269023	-3.2337987361	-0.565991
O	-0.0542382902	-2.0442453332	-1.4150277243	-0.190278
H	 1.1020159179	 1.7509985993	-0.4159814374	 0.164831
H	-0.6403083091	 1.9155227421	-0.5699259469	 0.164831
H	 0.0916627429	 1.8147085666	 1.0627585784	 0.155466
H	 0.0603470091	-3.4659820473	-4.2463193983	 0.25283
47.4979	100.5387	132.4029	162.1212	262.1423	337.711	430.225	536.6814	540.281	616.2203	694.0879	729.7789	763.2816	786.4406	907.7805	921.817	952.1787	998.3177	1030.0838	1046.5588	1158.5369	1246.7982	1376.7994	1408.2425	1457.916	1465.0549	1648.9187	1812.2009	1829.5155	3050.8826	3114.8162	3166.1194	3553.1007
CC(=O)C1=NOC(=N)O1	CC(=O)C1=NO[C@H]([NH])O1	
InChI=1S/C4H4N2O3/c1-2(7)3-6-9-4(5)8-3/h5H,1H3	InChI=1S/C4H5N2O3/c1-2(7)3-6-9-4(5)8-3/h4-5H,1H3/t4-/m1/s1
