19
gdb 98608	4.08273	1.1045	1.01446	3.3029	78.04	-0.2284	0.0491	0.2776	1243.4947	0.15999	-419.170407	-419.161809	-419.160865	-419.204289	31.74	
C	-0.24366647	 1.3518589363	-0.1201941428	-0.324262
N	 0.1122283829	-0.0487154214	-0.0007397424	-0.333898
C	 0.6807909949	-0.7252783218	-1.051882993	 0.430311
O	 0.7860708584	-0.2709187134	-2.1776159763	-0.405216
N	 1.1898098789	-1.9846182325	-0.6815661354	-0.165419
C	 0.2851131349	-3.0965189863	-0.1530848475	-0.032336
C	-0.3124582462	-3.2672713568	-1.5784164356	-0.223388
C	 1.226140693	-3.0726043404	-1.7314706218	 0.002207
C	 1.4198920388	-4.0715851923	-0.5575269484	-0.220256
H	 0.5406441516	 2.0184978107	 0.2619335386	 0.121064
H	-0.3875186818	 1.5655585192	-1.1797470512	 0.166828
H	-1.1724251898	 1.557872474	 0.4207257248	 0.119296
H	 0.2965139153	-0.4112986342	 0.9206915535	 0.243447
H	-0.2292531306	-3.0117892186	 0.8048709755	 0.084205
H	-0.7213223774	-4.249291094	-1.8306932712	 0.09374
H	-0.9367518845	-2.4550011367	-1.951647863	 0.126794
H	 1.8126219311	-2.9558299193	-2.6397289386	 0.107293
H	 2.3513515608	-3.9790996967	 0.0012876067	 0.10866
H	 1.1292495396	-5.1060257256	-0.744204332	 0.100928
73.9152	91.1258	106.7317	158.0607	208.3015	306.0029	405.703	499.2998	504.3993	560.4861	657.6974	782.8885	789.9852	811.3471	829.9667	899.8695	901.0101	912.1303	988.3871	1001.6711	1023.8439	1070.8202	1095.5105	1120.5956	1124.7594	1152.2736	1172.2379	1185.0535	1187.6085	1193.4458	1224.2192	1255.8319	1273.0967	1293.1627	1441.1548	1482.4372	1491.1973	1501.0304	1522.7726	1552.8272	1773.5074	3015.9273	3062.4073	3079.8718	3082.6125	3110.3074	3144.9658	3153.1223	3153.8506	3160.7335	3637.1769
CNC(=O)N1C2CC1C2	CNC(=O)N1[C@H]2C[C@@H]1C2	
InChI=1S/C6H10N2O/c1-7-6(9)8-4-2-5(8)3-4/h4-5H,2-3H2,1H3,(H,7,9)	InChI=1S/C6H10N2O/c1-7-6(9)8-4-2-5(8)3-4/h4-5H,2-3H2,1H3,(H,7,9)/t4-,5+
