19
gdb 40909	3.53597	1.27662	1.23486	2.4393	74.71	-0.2418	0.0733	0.3151	1085.702	0.161019	-422.987157	-422.979635	-422.978691	-423.019389	28.958	
C	-0.0827418829	 1.4812913562	-0.1334822102	-0.13587
O	 1.2739336559	 1.5625683315	 0.3659586258	-0.278649
C	 1.3919414901	 0.1275525699	 0.4512887435	-0.156385
C	-0.031108415	-0.0425869755	-0.070145975	 0.310359
C	-1.0668557316	-1.0247394926	 0.384987505	-0.149785
C	-2.5105577767	-0.5698659605	 0.260737327	-0.097598
O	-2.608054428	 0.0368434794	-1.0256567767	-0.253861
C	-1.7089499643	-0.6327584288	-1.9063705356	-0.097598
C	-0.5402968264	-1.0660531887	-1.0385410567	-0.149782
H	-0.7973567497	 1.9699633348	 0.5401523685	 0.104991
H	-0.1782368191	 1.9213745698	-1.1337146015	 0.104992
H	 2.1906585205	-0.2601032378	-0.195818339	 0.099698
H	 1.5704225783	-0.2114002464	 1.4809633677	 0.099698
H	-0.8094125491	-1.7824909638	 1.1171582712	 0.091569
H	-3.1878990135	-1.4345757929	 0.3501419863	 0.095779
H	-2.8155409668	 0.183516616	 0.9944146476	 0.112547
H	-2.1815489232	-1.5135308395	-2.3704800173	 0.095779
H	-1.4492641728	 0.0763222723	-2.6992454133	 0.112547
H	 0.1170336442	-1.8551793632	-1.3874460975	 0.091568
92.3418	145.5839	185.731	260.6268	262.0718	399.0505	436.2631	563.675	679.4219	738.8631	830.1579	846.3219	865.7354	925.5187	953.6932	968.0336	978.8929	985.6657	1021.03	1027.0229	1028.6495	1103.5301	1104.3025	1116.0595	1131.722	1150.1762	1164.3031	1168.843	1219.0605	1254.4396	1266.7403	1302.6426	1309.3871	1352.1978	1361.2114	1396.1587	1474.5798	1508.1306	1510.6098	1523.1117	1533.9726	2973.0767	2978.3927	2993.6204	3016.0616	3033.9196	3054.7751	3068.7222	3071.2704	3167.499	3176.2666
C1OCC11C2COCC12	C1OCC21[C@H]1COC[C@@H]21	
InChI=1S/C7H10O2/c1-5-6(2-8-1)7(5)3-9-4-7/h5-6H,1-4H2	InChI=1S/C7H10O2/c1-5-6(2-8-1)7(5)3-9-4-7/h5-6H,1-4H2/t5-,6+
