16
gdb 32295	3.13071	1.44889	1.01476	4.0317	79.61	-0.1979	-0.0411	0.1568	1132.8049	0.125453	-437.936283	-437.928239	-437.927295	-437.969146	29.933	
C	 0.1223316442	 1.4210870147	-0.225109533	-0.33843
N	-0.2321254597	 0.0734388164	 0.2202178796	-0.358627
C	 0.5242790401	-0.6514343328	 1.1267165131	 0.136812
C	 0.7249777735	-2.0005605615	 1.0072482099	-0.172505
C	 1.4082917551	-2.7420415252	 2.014220712	-0.167639
C	 1.8930714392	-2.0814831308	 3.0805926296	 0.054024
O	 1.7337493332	-0.7464437842	 3.2199892849	-0.208439
C	 1.0367549115	 0.0418505771	 2.3199777767	 0.415564
O	 0.9127639212	 1.2121875546	 2.5863171925	-0.353492
H	 1.0555012292	 1.4466667603	-0.8082001446	 0.109083
H	-0.6887991314	 1.7929008739	-0.8562061179	 0.120936
H	 0.232089563	 2.0732976896	 0.6381769807	 0.184239
H	-0.555432884	-0.5095101232	-0.5395602585	 0.234517
H	 0.3459259532	-2.5185986034	 0.1304988914	 0.095485
H	 1.5516719022	-3.8105522144	 1.9244350483	 0.111665
H	 2.4328770093	-2.5130078412	 3.9126130353	 0.136808
84.4434	111.4987	158.3071	250.0874	279.5547	361.1782	457.7858	485.0454	532.1833	561.6515	579.6429	674.249	717.0464	772.3355	789.3995	887.2248	905.7811	916.4393	1016.5114	1044.5112	1099.7766	1118.6175	1153.9103	1174.5719	1266.8365	1316.2994	1384.1706	1431.9837	1452.5524	1492.8775	1512.1476	1534.5101	1608.0176	1670.4521	1805.105	2988.1621	3095.6893	3162.4179	3181.5779	3217.3484	3237.909	3577.8547
CNC1=CC=COC1=O	CNc1cccoc1=O	
InChI=1S/C6H7NO2/c1-7-5-3-2-4-9-6(5)8/h2-4,7H,1H3	InChI=1S/C6H7NO2/c1-7-5-3-2-4-9-6(5)8/h2-4,7H,1H3
