17
gdb 100361	1.95388	1.25529	1.129	4.6605	70.42	-0.2605	-0.0108	0.2497	1211.662	0.133313	-455.166515	-455.156392	-455.155448	-455.201726	35.273	
C	 0.0389405941	 1.609129847	 0.0392985199	-0.418294
C	 0.064293824	 0.078177108	-0.046277356	 0.196788
C	 0.8091725214	-0.5479800304	 1.1481480088	-0.172464
N	 0.8016548305	-1.9958273433	 1.0436889551	-0.504461
O	-1.2830414874	-0.4395673406	 0.0634002076	-0.230501
C	-2.1199555014	-0.3963896237	-1.0035457427	 0.165878
O	-3.2620136363	-0.7258629805	-0.9112662422	-0.264062
C	 0.6999545734	-0.3498242023	-1.3102615536	 0.283403
N	 1.2169688697	-0.6158852371	-2.3085153157	-0.328832
H	 1.0563911556	 2.0084100954	 0.0324168943	 0.14656
H	-0.5029139848	 2.0390754613	-0.8062702901	 0.143766
H	-0.4594121296	 1.9078282882	 0.9645753137	 0.145552
H	 1.8441294818	-0.1929290064	 1.1228569599	 0.126809
H	 0.3371706671	-0.1382279848	 2.0561120339	 0.106387
H	 1.4322234983	-2.407455215	 1.7213631711	 0.241055
H	-0.1284910843	-2.3549005141	 1.2290349463	 0.248081
H	-1.6352119523	-0.0505648618	-1.9319658906	 0.114337
71.2001	118.7899	129.3068	147.7733	187.8617	210.9078	231.055	254.8552	276.6454	371.9963	412.5464	448.8337	518.8853	616.8628	633.7574	749.1372	838.2474	908.173	936.4802	995.1286	1042.259	1074.1502	1105.7168	1138.2496	1162.7639	1213.082	1254.9701	1345.3311	1405.7637	1425.4372	1430.6687	1482.3926	1490.3554	1494.5251	1653.1066	1866.9507	2357.1429	2970.0689	3005.2778	3054.7758	3084.2536	3135.3829	3139.7113	3521.7129	3604.9664
CC(CN)(OC=O)C#N	C[C@@](CN)(OC=O)C#N	
InChI=1S/C5H8N2O2/c1-5(2-6,3-7)9-4-8/h4H,2,6H2,1H3	InChI=1S/C5H8N2O2/c1-5(2-6,3-7)9-4-8/h4H,2,6H2,1H3/t5-/m0/s1
