18
gdb 7464	3.53908	1.24304	1.08455	1.7995	76.9	-0.2413	0.0393	0.2806	1176.9192	0.151876	-347.77033	-347.761184	-347.76024	-347.805549	32.482	
C	 0.0391733874	 1.4814035819	-0.0202543387	-0.498253
C	 0.0193553439	 0.0256362054	-0.0199429381	-0.009474
C	-0.0099603825	-1.1793755634	-0.0233215134	 0.073935
C	 0.0043225216	-2.6391151535	-0.0359327775	 0.261057
O	 0.7503835146	-3.1419988911	-1.1310221993	-0.465708
C	 0.3129514145	-3.2543470479	 1.3749367412	-0.265258
C	-1.2123985292	-3.4336927832	 1.5898962775	-0.209637
C	-1.4092837641	-3.2842389703	 0.058830765	-0.249109
H	 0.7518040627	 1.8744986508	 0.713212754	 0.148113
H	 0.3233940609	 1.8728501536	-1.0032594624	 0.15069
H	-0.9478475519	 1.8896827043	 0.2236244767	 0.15146
H	 1.5129536958	-2.5676235552	-1.2577299932	 0.27823
H	 0.821701299	-4.2115423126	 1.2339899409	 0.107877
H	 0.8712740113	-2.6396828101	 2.0835032795	 0.098005
H	-1.5468239496	-4.3662651424	 2.0473926409	 0.100144
H	-1.6475312508	-2.5964352401	 2.1407185748	 0.109728
H	-2.2520704181	-2.6975111878	-0.3094516865	 0.10413
H	-1.3839722755	-4.2497771787	-0.4528046315	 0.114071
16.7422	85.8241	117.3489	157.1817	245.6102	280.9603	313.6448	369.5193	373.1278	511.7745	546.6254	599.5342	671.5705	792.4303	819.2215	900.9429	933.0111	975.1247	1005.0513	1037.9118	1047.6492	1052.2659	1056.0521	1131.7827	1194.7902	1203.2003	1245.5147	1258.8258	1274.2009	1290.7213	1377.0706	1414.1331	1466.5733	1476.8763	1478.8796	1482.5993	1502.5038	2360.0338	3026.7049	3063.0017	3068.8197	3072.6006	3087.3544	3088.5801	3114.6374	3128.0096	3136.8901	3812.4052
CC#CC1(O)CCC1	CC#CC1(O)CCC1	
InChI=1S/C7H10O/c1-2-4-7(8)5-3-6-7/h8H,3,5-6H2,1H3	InChI=1S/C7H10O/c1-2-4-7(8)5-3-6-7/h8H,3,5-6H2,1H3
