18
gdb 116426	2.93065	1.32833	0.96209	3.2541	69.13	-0.2526	-0.0003	0.2523	1189.6835	0.149581	-476.229088	-476.220966	-476.220022	-476.262201	30.565	
O	 0.1810695317	 1.3581377384	-0.0609805914	-0.423457
C	 0.0759564845	-0.0410011429	-0.0134445727	-0.066965
C	-1.3809898955	-0.5334953036	 0.062669397	-0.113732
C	-1.4932935868	-2.0495356102	-0.1268608542	-0.12389
O	-2.8321799656	-2.4723798127	 0.1085990046	-0.215762
C	-3.1937490547	-2.2166781926	 1.4171420094	 0.008535
O	-3.1401445538	-0.8235406381	 1.7619584304	-0.251868
C	-2.0625353291	-0.1015792035	 1.3503262708	 0.407764
N	-1.7001091029	 0.9464049417	 1.9677429037	-0.526816
H	-0.2874689834	 1.6700446155	 0.731628835	 0.297043
H	 0.5303908317	-0.4294952474	-0.9330278083	 0.101159
H	 0.637918705	-0.4688085565	 0.8343487233	 0.084885
H	-1.9428848118	-0.0539787666	-0.7499955017	 0.127286
H	-1.2470018234	-2.3358893782	-1.1512274881	 0.12887
H	-0.8094721886	-2.582058303	 0.5546619806	 0.10341
H	-4.2347530781	-2.5139559289	 1.5488741537	 0.135077
H	-2.543778007	-2.7600532463	 2.1234259963	 0.10067
H	-2.2805163323	 1.1067484248	 2.7918260117	 0.227789
67.4232	128.4545	172.945	234.3718	307.1797	373.5438	375.4981	450.3216	477.3862	565.2733	626.0916	651.2036	730.2989	774.8768	901.3106	933.4448	950.6951	985.5203	1058.5304	1070.9213	1096.1901	1103.0574	1123.344	1152.5175	1202.5305	1232.6983	1253.2382	1275.761	1310.8055	1331.5946	1372.1104	1399.3642	1413.9976	1460.5286	1483.0791	1499.2207	1506.9183	1521.9048	1734.0768	2957.2952	2964.9838	2976.9764	3031.5174	3050.4514	3110.3773	3129.1883	3481.4553	3647.7896
OCC1COCOC1=N	OC[C@H]1COCO[C]1[NH]	
InChI=1S/C5H9NO3/c6-5-4(1-7)2-8-3-9-5/h4,6-7H,1-3H2	InChI=1S/C5H9NO3/c6-5-4(1-7)2-8-3-9-5/h4,6-7H,1-3H2/t4-/m0/s1
