15
gdb 70946	3.43098	1.4019	1.12496	3.0185	67.03	-0.2464	-0.0455	0.2009	1057.8632	0.108921	-457.653598	-457.645769	-457.644825	-457.68607	29.172	
C	 0.0645085706	 1.417038094	-0.1662596046	-0.536727
C	 0.0116914907	-0.0649816018	-0.0245939867	 0.404658
O	 0.5253305713	-0.9201823962	-1.0953592791	-0.346532
C	 0.0779343523	-1.8917851487	-0.1280316375	 0.343155
C	 0.194174148	-3.3559313225	-0.3455178181	 0.014546
O	 0.6627504503	-3.8654235178	-1.3300005552	-0.24145
C	 0.4824144972	-1.0261907682	 1.1232009708	-0.045261
O	-0.8206962887	-1.1031153169	 1.7594257282	-0.321786
C	-1.1586176473	-1.0417696019	 0.3484850563	-0.045205
H	 1.09836331	 1.7546959975	-0.28323541	 0.145991
H	-0.506780736	 1.7393798365	-1.0416318399	 0.146
H	-0.361406212	 1.885922384	 0.7257225546	 0.146201
H	-0.2015767407	-3.9520567614	 0.5059103776	 0.099464
H	 1.3823980384	-1.0476334062	 1.7373973259	 0.118466
H	-2.2042775041	-1.0817605005	 0.0440795477	 0.118481
96.6776	138.0005	207.5546	217.4843	245.0177	356.5522	381.2119	531.4947	567.5719	674.4516	696.2259	722.5948	769.7745	802.2212	834.9361	887.9027	905.9754	1012.3974	1018.2995	1071.8798	1087.6226	1094.2987	1135.5809	1155.7784	1178.3775	1248.9631	1289.6799	1388.2956	1417.0484	1446.2553	1474.2661	1487.9094	1823.019	2895.6263	3044.4514	3120.0295	3123.6929	3128.3727	3133.394
CC12OC3(C=O)C1OC23	C[C@@]12O[C@@]3(C=O)[C@@H]1O[C@@H]23	
InChI=1S/C6H6O3/c1-5-3-6(2-7,9-5)4(5)8-3/h2-4H,1H3	InChI=1S/C6H6O3/c1-5-3-6(2-7,9-5)4(5)8-3/h2-4H,1H3/t3-,4+,5-,6+
