16
gdb 85723	2.48601	1.40337	1.02596	2.6533	74.68	-0.2736	0.0133	0.287	1142.7967	0.123267	-400.71493	-400.706249	-400.705304	-400.74843	32.294	
O	 0.5282287542	 0.528628353	-1.0775696781	-0.420377
C	 0.065741662	-0.3190868631	-0.0810155349	 0.155727
C	 0.1219255583	 0.1195149734	 1.4068361713	-0.275136
C	-1.23526335	-0.6133619972	 1.6278989916	-0.161112
C	-2.2087285692	-0.0211097883	 2.5255549136	 0.288074
N	-2.9777850471	 0.4574000962	 3.2438488224	-0.324748
C	-1.4913638364	-0.5496013528	 0.0719344637	-0.25512
C	-2.246440255	 0.6033372565	-0.3690518521	 0.32
C	-2.8058023685	 1.5962922977	-0.7551693847	-0.441235
H	-0.0657212441	 1.2906043735	-1.1171616698	 0.28732
H	 0.5649298343	-1.2812695631	-0.226403409	 0.105143
H	 0.9696295272	-0.2019404798	 2.0128962197	 0.123144
H	-0.0027215845	 1.201169446	 1.4962405172	 0.132145
H	-1.07225927	-1.6546974043	 1.9184815525	 0.13338
H	-1.8890279752	-1.4673928645	-0.3674841563	 0.118859
H	-3.3441040362	 2.4534082667	-1.0787601073	 0.213935
77.9567	104.7531	145.587	190.8548	267.6595	344.5309	413.1651	426.3514	440.4603	485.1929	555.8096	651.3939	653.4073	661.868	688.4668	753.9062	812.1761	901.6066	948.26	1042.2457	1050.951	1076.3568	1082.4912	1166.9526	1179.5742	1228.113	1242.2167	1250.5617	1330.267	1339.9743	1368.4041	1445.6726	1483.2957	2228.5946	2358.2073	3071.9499	3076.7394	3080.9707	3087.5524	3144.0247	3499.4272	3750.2259
OC1CC(C#N)C1C#C	O[C@H]1C[C@@H](C#N)[C@H]1C#C	
InChI=1S/C7H7NO/c1-2-6-5(4-8)3-7(6)9/h1,5-7,9H,3H2	InChI=1S/C7H7NO/c1-2-6-5(4-8)3-7(6)9/h1,5-7,9H,3H2/t5-,6+,7-/m0/s1
