22
gdb 6560	3.72309	1.18019	1.13491	1.2746	78.17	-0.2566	0.0662	0.3228	1197.5305	0.198075	-350.20077	-350.191178	-350.190234	-350.23459	36.469	
C	 0.0940130933	 1.5586061735	 0.060945063	-0.385961
C	 0.0264213053	 0.0310140602	 0.0054912157	 0.349808
C	 0.6895473183	-0.5831502848	 1.2462013387	-0.419112
O	-1.3758591512	-0.2778165572	 0.0106522635	-0.459204
C	 0.6788644665	-0.5389639091	-1.2758602713	-0.230471
C	 0.0528237095	-0.063142114	-2.5697544412	 0.036927
C	 0.6455703869	 1.0827835492	-3.353141002	-0.25312
C	 0.7403094007	-0.3257138208	-3.885234441	-0.286517
H	 1.1325013138	 1.9026681257	 0.053797674	 0.105939
H	-0.4232641072	 1.9983412059	-0.7939812467	 0.129681
H	-0.3854164762	 1.9196008752	 0.9752902187	 0.115691
H	 0.1924350766	-0.2297798939	 2.1541306843	 0.119617
H	 0.6217635049	-1.6777753888	 1.2229010057	 0.099698
H	 1.7505352861	-0.3193301724	 1.3058588481	 0.112876
H	-1.4631630419	-1.2369130191	 0.0412918933	 0.272845
H	 1.7518413819	-0.3059261446	-1.2722656347	 0.088599
H	 0.6093813934	-1.6363865006	-1.2214861784	 0.079852
H	-1.0307483746	-0.1295412017	-2.5738038579	 0.091993
H	-0.026186198	 1.7773264114	-3.8459139746	 0.109956
H	 1.553944656	 1.5412604123	-2.9753114406	 0.106863
H	 1.7117299752	-0.8099648035	-3.8613509786	 0.10583
H	 0.1335628206	-0.5966368629	-4.7424409479	 0.108209
77.5162	99.0152	159.4405	212.9487	252.0877	284.2858	311.8786	317.3428	341.1717	394.2229	408.4594	459.1414	538.065	753.3958	782.305	815.2601	839.2323	876.6698	913.0709	928.5369	944.3233	977.2326	987.8399	1027.0804	1057.2807	1078.755	1119.2509	1132.1408	1150.8666	1200.0523	1215.1466	1229.031	1238.1897	1264.9221	1332.7269	1378.9449	1402.5482	1413.2896	1422.1669	1467.9511	1473.3303	1482.0128	1488.2761	1498.4914	1504.5818	1509.4444	2986.6145	3023.6682	3039.0287	3047.9951	3090.1245	3111.009	3118.4632	3124.9269	3130.097	3135.9982	3158.4405	3201.9193	3217.7624	3798.8977
CC(C)(O)CC1CC1	CC(C)(O)CC1CC1	
InChI=1S/C7H14O/c1-7(2,8)5-6-3-4-6/h6,8H,3-5H2,1-2H3	InChI=1S/C7H14O/c1-7(2,8)5-6-3-4-6/h6,8H,3-5H2,1-2H3
