14
gdb 25185	2.63464	1.77974	1.0622	3.9604	77.69	-0.2387	-0.0772	0.1615	1042.9237	0.10264	-436.71896	-436.711713	-436.710769	-436.751535	26.93	
N	-0.0695071118	 1.1536557861	-0.6558782418	-0.447874
C	-0.006007388	 0.0074655149	-0.0873724989	 0.120964
C	-1.2443164162	-0.7308815798	 0.100140105	-0.096774
C	-1.4547144848	-1.9378364127	 0.6605436203	-0.107803
C	-0.490908134	-2.8383847421	 1.2347126514	-0.142962
C	 0.8348249336	-2.6825520958	 1.3432875886	 0.053264
O	 1.6409912578	-1.6612652089	 0.957183459	-0.207906
C	 1.3884222999	-0.4658309015	 0.3381835029	 0.37071
O	 2.3434419325	 0.2285153924	 0.132208678	-0.291458
H	 0.8741551103	 1.5476291807	-0.7162328228	 0.249698
H	-2.0978041443	-0.1833897086	-0.2862831237	 0.124462
H	-2.4828011632	-2.2875220947	 0.6880527682	 0.116263
H	-0.8684335562	-3.7720139534	 1.6378063075	 0.115816
H	 1.4511904142	-3.4467497167	 1.8019975264	 0.143602
49.5206	90.669	311.0092	337.076	383.3659	426.6803	450.8134	542.029	584.4993	640.876	749.4024	749.8018	796.2174	869.0136	898.9252	950.2105	955.4993	981.7843	1026.6776	1036.1588	1138.4036	1163.8073	1262.002	1339.8672	1402.1082	1428.7088	1469.6564	1637.2471	1653.3519	1706.0195	1821.5534	3166.0737	3186.8515	3194.1469	3214.2507	3439.4678
N=C1C=CC=COC1=O	[NH]C1=C[CH]C=COC1=O	
InChI=1S/C6H5NO2/c7-5-3-1-2-4-9-6(5)8/h1-4,7H	InChI=1S/C6H5NO2/c7-5-3-1-2-4-9-6(5)8/h1-4,7H
