16
gdb 60768	4.37676	0.90179	0.76168	5.0007	70.31	-0.2571	-0.0377	0.2193	1406.3778	0.123936	-471.25669	-471.247448	-471.246504	-471.291548	32.128	
C	-0.33356394	 1.3147481147	 0.1056277009	-0.377538
N	-0.0593765627	-0.1162859507	 0.0430984429	-0.153966
C	 0.192468757	-0.7860319149	 1.2372328737	 0.17486
O	 0.1965213867	-0.2405367987	 2.3157644486	-0.325407
C	-0.1150735335	-0.852106647	-1.158387192	 0.480335
N	-0.3136237345	-2.1021014349	-1.1534913335	-0.534581
N	 0.0851853556	-0.038326344	-2.2964946486	-0.377939
C	 0.0417938384	-0.4580167158	-3.6066913487	 0.174119
O	-0.1748022981	-1.5846548871	-3.9855193045	-0.289589
H	 0.5064885878	 1.9174666997	-0.2640113911	 0.131018
H	-1.2388611664	 1.5652133359	-0.4538583608	 0.143199
H	-0.4769388679	 1.5577797029	 1.158554996	 0.18618
H	 0.3892149322	-1.8523546036	 1.0719006451	 0.144284
H	-0.263266667	-2.4787404866	-2.0973882528	 0.260865
H	 0.3200561113	 0.9309188851	-2.1510404439	 0.261482
H	 0.234515781	 0.3828983951	-4.2990421012	 0.102678
51.3691	67.3007	149.74	202.8528	218.4053	255.5459	292.0236	313.7475	345.884	399.3817	527.9257	557.9099	622.272	722.6594	827.6211	896.7664	922.3849	980.1092	1023.6642	1047.5134	1074.7193	1152.2747	1181.1046	1241.6785	1300.0369	1372.7608	1418.1461	1441.3992	1445.1186	1501.3966	1512.94	1525.8165	1728.347	1799.7618	1822.5886	2960.7923	3013.8961	3076.7548	3092.6352	3156.2261	3525.7717	3632.2436
CN(C=O)C(=N)NC=O	CN(C=O)C(=N)NC=O	
InChI=1S/C4H7N3O2/c1-7(3-9)4(5)6-2-8/h2-3H,1H3,(H2,5,6,8)	InChI=1S/C4H7N3O2/c1-7(3-9)4(5)6-2-8/h2-3H,1H3,(H2,5,6,8)
