15
gdb 93998	2.58189	1.41878	1.1502	2.0983	62.44	-0.2566	-0.062	0.1946	1066.6503	0.110516	-494.911356	-494.902987	-494.902043	-494.944956	29.859	
O	 0.1706321883	 1.3847497644	 0.2170087685	-0.4307
C	-0.0743803979	 0.0321266286	-0.0353223402	 0.045862
C	-1.5127154796	-0.3046224592	-0.4429682758	-0.12617
O	-1.3867317312	-1.5499011421	-1.1467537301	-0.242039
C	-0.2289322784	-1.4969561951	-1.9417173502	-0.098252
C	-0.4951302084	-1.0340681429	-3.3809910914	 0.148129
O	-1.5631819795	-0.6471702687	-3.7633579534	-0.221216
C	 0.6948249218	-0.4847271808	-1.2512458171	 0.325485
O	 1.7652743072	-0.0779862301	-1.6202064938	-0.317653
H	 1.0592004333	 1.5741797073	-0.1163996655	 0.29843
H	 0.210058702	-0.6063051676	 0.8205048721	 0.108109
H	-2.188071683	-0.4728450403	 0.3958650362	 0.130958
H	-1.9182343904	 0.4837818139	-1.0895288008	 0.132302
H	 0.2455467547	-2.4863945806	-1.9878490238	 0.140381
H	 0.402727271	-1.0754764266	-4.0343234745	 0.106375
60.6108	108.5359	152.4599	207.2124	258.0745	298.904	342.9513	389.5665	488.5852	572.9701	627.1357	645.5033	769.0783	799.7982	842.0135	953.0271	972.6077	1023.3044	1073.0241	1101.4959	1132.1012	1181.5522	1199.461	1215.635	1260.6321	1301.228	1329.7626	1379.2348	1404.9887	1407.0612	1518.6159	1829.8577	1858.9604	2907.6149	2947.4923	3033.0672	3038.4518	3136.7436	3741.4054
OC1COC(C=O)C1=O	O[C@H]1CO[C@@H](C=O)C1=O	
InChI=1S/C5H6O4/c6-1-4-5(8)3(7)2-9-4/h1,3-4,7H,2H2	InChI=1S/C5H6O4/c6-1-4-5(8)3(7)2-9-4/h1,3-4,7H,2H2/t3-,4-/m0/s1
