20
gdb 37959	2.59131	1.95037	1.41798	0.8816	78.16	-0.2219	0.0846	0.3065	971.3319	0.17403	-403.099409	-403.092407	-403.091462	-403.130447	29.128	
C	-0.0179604914	 1.5524801342	 0.1326555279	-0.275805
C	 1.5231068528	 1.5401593114	 0.0994907681	-0.041628
C	 1.5432642492	 0.0443737992	-0.1129391624	-0.090391
C	-0.0021218201	-0.004150013	-0.0291795479	-0.00775
C	-0.7964206894	-0.6528408278	-1.15543535	-0.108869
O	-0.7029660873	 0.015354613	-2.3986418134	-0.238055
C	 0.5926817928	 0.0339167221	-2.9666432701	-0.076422
C	 1.4823417296	 1.1608751901	-2.4423203822	-0.158507
N	 2.0560210362	 0.9569030359	-1.1074993218	-0.069598
H	-0.4253240524	 1.8729785601	 1.0935743691	 0.102802
H	-0.5074115644	 2.115719821	-0.6660809209	 0.110772
H	 2.1731959983	 2.1642411769	 0.7041005531	 0.090167
H	 2.212525587	-0.7115818156	 0.2869924072	 0.084546
H	-0.2944197616	-0.4819095903	 0.9129562634	 0.078438
H	-0.4822348041	-1.7064177472	-1.2638444423	 0.085198
H	-1.8643758315	-0.6507516885	-0.9095067788	 0.105502
H	 1.0939219583	-0.9374476677	-2.8253261986	 0.093173
H	 0.4496181967	 0.1810266545	-4.043312488	 0.105195
H	 2.3206621241	 1.2745664675	-3.1431666757	 0.101959
H	 0.9129250571	 2.0979885341	-2.4756242666	 0.109274
163.7837	204.0919	277.2884	332.573	393.7166	403.7092	489.2758	576.2923	664.6394	679.1965	733.344	818.8851	833.8347	848.0417	890.968	918.7598	964.8026	969.3488	987.6362	1029.9174	1050.8633	1069.8087	1082.1836	1099.2573	1131.2237	1139.248	1174.8612	1218.1429	1241.1021	1256.5719	1262.0829	1288.3783	1306.2456	1341.1541	1346.7823	1375.2616	1393.7918	1408.4329	1423.009	1473.0639	1480.3586	1492.4384	1501.875	2947.5244	2978.3865	3008.86	3042.5952	3051.2239	3061.5646	3064.4653	3067.5864	3119.6367	3148.358	3164.0685
C1C2C3C1COCCN23	C1[C@H]2[C@H]3[C@@H]1COCCN23	
InChI=1S/C7H11NO/c1-2-9-4-5-3-6-7(5)8(1)6/h5-7H,1-4H2	InChI=1S/C7H11NO/c1-2-9-4-5-3-6-7(5)8(1)6/h5-7H,1-4H2/t5-,6-,7+,8?/m0/s1
