14
gdb 19778	3.30481	2.57137	1.76086	3.187	60.34	-0.2417	-0.0379	0.2039	735.1011	0.108402	-382.523327	-382.5174	-382.516456	-382.553254	23.527	
O	 0.0155046151	 0.0060817587	-0.0397928254	-0.317483
C	-0.0149817202	 1.2102111869	 0.0043347972	 0.416893
C	-1.254183952	 2.0693406856	-0.0009101849	-0.161331
C	-1.4339575668	 3.1778985616	 1.0266180013	-0.287
C	-0.8187558827	 3.4955678208	-0.3023996542	-0.070382
C	 0.7058112136	 3.485772415	-0.3403608754	 0.034791
O	 1.3088127544	 3.1139332693	 0.8996791143	-0.241846
C	 1.2045810851	 2.1153032018	-0.1338369516	-0.094461
H	-2.1425449209	 1.6191674435	-0.4261548186	 0.114575
H	-2.4595511265	 3.4899419363	 1.1889559941	 0.123946
H	-0.7979444952	 3.1924740774	 1.901178965	 0.151878
H	-1.3445373317	 4.1083875384	-1.0237409363	 0.101526
H	 1.2448194581	 4.2268688688	-0.9226172075	 0.110943
H	 2.1387329398	 1.7069425758	-0.5072382379	 0.117952
151.4373	247.0525	344.1541	433.5232	524.4934	571.7826	666.7774	733.3031	773.38	807.001	826.566	866.5655	874.238	949.349	960.6926	1010.8868	1022.2615	1073.3981	1087.9443	1102.265	1105.8899	1183.8851	1198.7652	1244.6033	1298.2416	1338.1028	1352.8677	1399.6079	1475.7936	1834.6735	3150.5236	3161.0732	3172.7302	3191.0164	3198.3256	3249.9804
O=C1C2CC2C2OC12	O=C1[C@H]2C[C@H]2[C@H]2O[C@@H]12	
InChI=1S/C6H6O2/c7-4-2-1-3(2)5-6(4)8-5/h2-3,5-6H,1H2	InChI=1S/C6H6O2/c7-4-2-1-3(2)5-6(4)8-5/h2-3,5-6H,1H2/t2-,3+,5+,6-/m0/s1
