18
gdb 83672	2.21231	1.70742	1.12751	2.289	78.97	-0.2209	0.032	0.2529	1115.411	0.146158	-401.852463	-401.843971	-401.843027	-401.885634	31.952	
C	 0.0118851963	 1.5716375965	 0.1125549127	-0.334636
N	-0.0179831641	 0.1261318936	 0.1250102712	-0.070775
C	-1.0538870903	-0.5650772077	 0.9235699789	-0.058239
C	-1.5737396933	-1.8241456758	 0.2102824115	-0.071443
O	-0.4370730023	-2.5936241667	 0.690933418	-0.285648
C	 0.0218934959	-1.5104036085	 1.5042981475	 0.093165
C	 1.0818628012	-0.5758438564	 0.8467368117	-0.213353
C	 2.141083507	-1.1413966606	 0.0328595297	 0.352417
C	 3.0302613768	-1.6088926399	-0.626797566	-0.424583
H	 0.8779324631	 1.9111591709	-0.4644886157	 0.133856
H	-0.8880023124	 1.9565440804	-0.3780298902	 0.123989
H	 0.0750786477	 2.0239707197	 1.1209507455	 0.09083
H	-1.7344962955	 0.0648259295	 1.5000992278	 0.079203
H	-2.5141721061	-2.2308212058	 0.6038025231	 0.098373
H	-1.6070265418	-1.7648472567	-0.8814926396	 0.11534
H	 0.1768858672	-1.7911554379	 2.5475215182	 0.088877
H	 1.5170164694	 0.0625767189	 1.6358930352	 0.086367
H	 3.8054985209	-2.0322041037	-1.2162434895	 0.196261
80.7405	131.6158	156.0608	211.8171	265.016	291.2098	337.38	409.0768	512.5295	543.6479	615.9447	657.1673	714.3345	770.5333	819.4594	835.699	922.0763	958.1016	974.7772	1005.1275	1034.6904	1069.1583	1089.8421	1146.4944	1153.7126	1179.0578	1189.8892	1210.9195	1243.2332	1271.4516	1294.4835	1329.9874	1355.3792	1365.4506	1453.3161	1490.8572	1499.9994	1503.8022	2238.1942	2921.4027	2941.6704	3016.919	3060.6228	3084.4348	3092.8299	3098.1005	3104.5635	3502.9559
CN1C2COC2C1C#C	CN1[C@H]2CO[C@H]2[C@H]1C#C	
InChI=1S/C7H9NO/c1-3-5-7-6(4-9-7)8(5)2/h1,5-7H,4H2,2H3	InChI=1S/C7H9NO/c1-3-5-7-6(4-9-7)8(5)2/h1,5-7H,4H2,2H3/t5-,6+,7+/m1/s1
