15
gdb 128040	6.55377	0.75153	0.69008	2.7878	72.56	-0.2504	-0.0248	0.2256	1569.022	0.1117	-453.916446	-453.90824	-453.907295	-453.950417	28.816	
C	-0.1399242521	 1.3858048805	 0.0472277639	-0.318155
N	 0.4163674049	 0.0522272714	 0.1532246421	-0.18955
C	 0.5203839667	-0.6200640929	-0.8970046818	 0.104273
O	 0.9885113627	-1.9040316087	-0.836795857	-0.229704
C	 1.3486695643	-2.4963392401	-2.0057703851	 0.19804
C	 1.9731752625	-2.0010721746	-3.1101279071	-0.027167
O	 2.1430021304	-2.989563817	-4.0054563579	-0.158756
N	 1.6392986661	-4.175103814	-3.487027152	-0.118535
C	 1.167149121	-3.8743317353	-2.3041869592	-0.043361
H	 0.5769710086	 2.1094557805	 0.4494795472	 0.136966
H	-0.4003559296	 1.6835871585	-0.980683434	 0.103079
H	-1.0415369598	 1.4521833017	 0.6656112549	 0.138526
H	 0.2472772044	-0.3015227194	-1.9127076816	 0.09455
H	 2.3471466562	-1.0293077776	-3.3871171413	 0.158995
H	 0.7139528837	-4.636946383	-1.688144891	 0.1508
48.2698	86.4992	123.0939	209.4922	295.1154	303.1143	367.4145	404.4203	525.7996	615.6134	675.6425	779.5341	807.5933	901.527	905.1799	925.1001	978.8383	1030.0169	1063.1263	1133.92	1140.9972	1144.3583	1182.9786	1222.2113	1303.0101	1385.5953	1412.7622	1449.4295	1480.3977	1485.8003	1503.6385	1655.564	1786.3574	2978.835	3023.9138	3069.9591	3089.92	3256.8481	3278.6972
CN=COC1=CON=C1	CN=COc1conc1	
InChI=1S/C5H6N2O2/c1-6-4-8-5-2-7-9-3-5/h2-4H,1H3	InChI=1S/C5H6N2O2/c1-6-4-8-5-2-7-9-3-5/h2-4H,1H3
