14
gdb 43534	2.54114	1.50914	1.08628	2.7546	70.46	-0.2717	-0.0058	0.2659	1081.3575	0.098883	-436.611927	-436.603942	-436.602998	-436.644721	29.536	
N	-0.105586402	 1.2181543762	-0.682579726	-0.545038
C	-0.0557963844	 0.0882299535	-0.1508251814	 0.389327
O	 0.9876623475	-0.6019209074	 0.447117403	-0.276928
C	 0.1610243124	-1.8024992087	 0.6810795831	-0.133073
C	 0.114820797	-2.2134995838	 2.065072048	 0.328748
C	 0.0508083299	-2.5706451963	 3.2104509042	-0.431805
C	-1.0361715381	-1.0201771054	 0.1001426109	 0.285755
C	-2.4483145897	-0.9948764808	 0.4694782825	-0.246767
O	-1.9922415889	-1.5217593277	-0.7882170936	-0.248329
H	 0.7982194277	 1.6921976967	-0.6650449576	 0.238624
H	 0.4962523118	-2.6116008837	 0.025166062	 0.139549
H	 0.004337279	-2.8850735174	 4.2243118229	 0.213823
H	-2.8198733626	-1.7316702396	 1.1785870852	 0.138107
H	-2.9919660596	-0.0550199255	 0.4089866068	 0.148008
82.8825	119.4172	209.1079	232.2779	248.5979	329.1521	401.9085	505.9476	588.4546	611.9201	633.984	688.4098	691.0184	765.644	857.9604	868.2468	901.6678	920.95	998.1384	1022.4372	1041.6387	1124.2312	1139.3059	1162.6289	1214.5756	1272.7096	1353.3831	1444.6144	1531.7371	1839.9213	2242.1468	3071.0791	3099.5669	3199.2337	3489.5499	3500.0794
N=C1OC(C#C)C11CO1	[NH][C]1O[C@@H](C#C)[C@]21CO2	
InChI=1S/C6H5NO2/c1-2-4-6(3-8-6)5(7)9-4/h1,4,7H,3H2	InChI=1S/C6H5NO2/c1-2-4-6(3-8-6)5(7)9-4/h1,4,7H,3H2/t4-,6-/m0/s1
