17
gdb 80528	2.39348	1.43368	1.21935	2.6191	70.1	-0.2477	-0.0356	0.2121	1088.2558	0.133591	-458.925972	-458.917297	-458.916353	-458.959177	32.137	
C	-0.0334287456	 1.5686857388	-0.2501545268	-0.424139
C	 0.2020619802	 0.0883652948	-0.0337407204	 0.074522
O	 1.4247027736	-0.4345738126	-0.6653056204	-0.317525
C	 1.7877375396	-1.1242624276	 0.5275466442	-0.007669
C	 2.1282882445	-0.1575703311	 1.5805921032	 0.081669
O	 2.7223153294	 1.0599136612	 1.2906426963	-0.42523
C	 0.6339280961	-0.4571699914	 1.3280660647	 0.095462
C	-0.2171610264	-1.05006637	 2.36440581	 0.053563
O	 0.1980671279	-1.632354772	 3.3414519437	-0.27666
H	-0.0907255184	 1.7886084232	-1.3209595139	 0.132305
H	-0.9898289787	 1.8536202296	 0.2015417938	 0.129072
H	 0.7532067374	 2.1725258846	 0.2038834326	 0.142307
H	-0.641546924	-0.4945026932	-0.427505293	 0.09761
H	 2.0731092929	-2.1682431447	 0.4571016562	 0.127365
H	 2.4446384864	-0.575909526	 2.531352069	 0.147771
H	 2.7915456077	 1.106550398	 0.3271778105	 0.298348
H	-1.3115778324	-0.9329065816	 2.1896062804	 0.071228
102.6079	161.5049	175.0308	194.3738	220.8171	241.4209	296.9666	395.6869	447.7256	492.574	581.9532	639.639	692.1882	749.2988	781.7439	849.4468	906.3979	953.0748	994.1796	1036.252	1055.0015	1078.7535	1097.9971	1133.8093	1165.9734	1221.3877	1231.9481	1297.0877	1306.9136	1371.5055	1392.2959	1407.9805	1436.3933	1465.6939	1485.1225	1500.8631	1790.7636	2861.8941	3014.1549	3043.6186	3106.8153	3149.222	3173.8485	3181.9448	3755.9806
CC1OC2C(O)C12C=O	C[C@H]1O[C@H]2[C@@H](O)[C@@]12C=O	
InChI=1S/C6H8O3/c1-3-6(2-7)4(8)5(6)9-3/h2-5,8H,1H3	InChI=1S/C6H8O3/c1-3-6(2-7)4(8)5(6)9-3/h2-5,8H,1H3/t3-,4-,5+,6-/m1/s1
