17
gdb 33952	3.23751	1.42378	1.24321	4.0942	76.12	-0.2424	0.0185	0.261	1034.2559	0.138315	-380.846238	-380.839085	-380.838141	-380.87769	28.525	
N	 0.0316254029	-1.1226986747	-0.0103443427	-0.344904
C	 0.0251871332	 0.0341928943	 0.0116296123	 0.200631
C	 0.0091492538	 1.468480583	 0.0381682195	 0.19866
C	 0.3830176272	 2.2277783896	-1.2283209316	-0.333649
C	 1.298924653	 2.291779808	-0.0449290051	-0.082052
C	 1.1559401522	 3.4182546461	 0.9824891494	-0.18998
N	-0.136203788	 3.2762423849	 1.6919868935	-0.090617
C	-1.3450444574	 3.5266934618	 0.8940486038	-0.257954
C	-0.8590009066	 2.1384239454	 1.0932381377	-0.092106
H	 0.7047588085	 1.6207651256	-2.0674130678	 0.142902
H	-0.2129493656	 3.0869561672	-1.5090109563	 0.131051
H	 2.254951368	 1.7856731753	-0.1171145754	 0.120265
H	 1.9534374791	 3.3280969049	 1.7261093634	 0.126216
H	 1.2367433795	 4.414321648	 0.5335538359	 0.117806
H	-2.1949806559	 3.8846690585	 1.4693154195	 0.125307
H	-1.2526584243	 3.9902537262	-0.083585615	 0.115266
H	-1.3750878195	 1.4651337459	 1.7706909388	 0.113159
130.5399	157.7345	258.681	286.7584	409.5101	458.0276	499.354	543.4376	599.5747	666.3086	699.1061	788.2035	811.2816	844.1924	878.2337	906.2204	940.0932	984.9647	1007.6661	1056.0959	1075.6947	1084.9496	1103.5381	1119.3087	1122.3941	1162.4595	1222.7487	1231.7281	1266.3807	1279.8691	1340.0254	1359.3063	1409.4652	1481.4084	1498.7646	1525.7137	2351.5809	3045.272	3085.289	3110.1746	3147.5139	3158.1846	3179.6982	3190.2603	3235.7046
N#CC12CC1CN1CC21	N#C[C@]12C[C@H]1CN1C[C@@H]21	
InChI=1S/C7H8N2/c8-4-7-1-5(7)2-9-3-6(7)9/h5-6H,1-3H2	InChI=1S/C7H8N2/c8-4-7-1-5(7)2-9-3-6(7)9/h5-6H,1-3H2/t5-,6-,7+,9?/m0/s1
