22
gdb 70726	2.4486	1.59369	1.23507	1.5805	86.98	-0.2319	0.0171	0.249	1126.8543	0.196585	-367.204248	-367.195916	-367.194972	-367.236472	33.841	
C	 0.1325426	 1.5744678446	 0.0766457487	-0.466821
C	 0.0975514646	 0.0574219237	 0.0603258183	 0.306341
N	-0.9009603096	-0.6201760477	 0.9195765626	-0.381485
C	 0.5362372989	-0.7038980252	 1.2645986697	-0.069899
C	 1.1669773275	-2.0759566939	 1.1217347946	-0.198792
C	 2.5686824941	-2.0620251619	 0.4822734686	-0.194012
C	 2.6956404664	-1.1088334644	-0.7362140717	-0.25508
C	 1.4847687402	-1.0900878031	-1.6455279688	-0.052112
C	 0.3124847656	-0.5668932694	-1.2834898928	-0.11278
H	 1.0816353432	 1.9531839122	-0.317729509	 0.126209
H	-0.6695975305	 1.9892204442	-0.5452253072	 0.121551
H	 0.0079007438	 1.9610326962	 1.0944426486	 0.107875
H	-1.361375819	 0.071013759	 1.5087465943	 0.220765
H	 0.8778984595	-0.1048491688	 2.1085579478	 0.070912
H	 1.2112939453	-2.5712410361	 2.0990405109	 0.089515
H	 0.492324667	-2.672345293	 0.5028739234	 0.118363
H	 3.325689232	-1.7704798957	 1.2202856696	 0.093077
H	 2.8169552402	-3.0862118389	 0.1811482813	 0.0989
H	 2.8708968378	-0.0938003016	-0.3614106143	 0.109833
H	 3.5907260819	-1.3763477173	-1.3063644577	 0.094514
H	 1.586196092	-1.535440882	-2.6324759974	 0.086716
H	-0.5341626908	-0.5692925907	-1.9668434295	 0.086408
149.6903	165.2584	222.4549	251.6544	279.6989	334.3769	358.4837	395.0585	464.0624	533.8701	583.7294	628.1052	715.9953	757.3466	795.7041	841.0282	853.1074	908.7899	924.3779	974.0764	983.0917	989.7102	1000.8605	1034.0882	1061.686	1081.4518	1115.359	1130.4729	1158.5389	1201.9014	1242.1289	1258.0901	1288.4606	1298.149	1320.467	1342.2503	1373.2199	1379.0366	1408.9276	1422.8224	1452.845	1484.6302	1486.4312	1495.7279	1502.4081	1504.6156	1707.0371	3020.6679	3024.8138	3032.8505	3041.9602	3060.2707	3079.0305	3085.9682	3094.6972	3096.547	3111.0153	3139.1519	3163.2374	3479.1924
CC12NC1CCCC=C2	C[C@]12N[C@H]1CCCC=C2	
InChI=1S/C8H13N/c1-8-6-4-2-3-5-7(8)9-8/h4,6-7,9H,2-3,5H2,1H3	InChI=1S/C8H13N/c1-8-6-4-2-3-5-7(8)9-8/h4,6-7,9H,2-3,5H2,1H3/t7-,8+/m0/s1
