16
gdb 54965	3.27744	1.07431	0.95781	5.9561	73.18	-0.2495	0.007	0.2565	1231.6495	0.123493	-437.872245	-437.863611	-437.862667	-437.905522	32.696	
N	 0.068692592	 1.2213885251	-0.0302822868	-0.57939
H	-0.5429334295	 1.0548889762	-0.824420928	 0.25448
H	 1.1471292451	 0.0288713287	 0.7338098598	 0.314704
H	 0.6516174588	 2.0214487496	-0.2621904756	 0.257586
C	-0.7196122003	 1.5068102708	 1.1616255505	 0.072482
C	-1.3589334374	 0.3071260124	 1.8158124414	-0.30875
C	-0.1742061329	 0.9600816863	 2.4922139206	-0.186395
C	 1.1353531864	 0.2205657033	 2.627943534	 0.419277
O	 1.6703680398	 0.1067864849	 3.6996422703	-0.341294
O	 1.6407375794	-0.3269959756	 1.514445754	-0.386499
C	-1.4072915237	 2.7716041716	 1.1944892091	 0.300507
C	-1.9600284144	 3.8399427369	 1.1936687979	-0.440128
H	-2.3352895292	 0.4334891325	 2.2661736388	 0.143859
H	-1.1869058282	-0.6494265568	 1.3344491998	 0.140391
H	-0.3899965361	 1.5622486941	 3.3650526937	 0.133329
H	-2.4522597498	 4.7811729101	 1.1999184106	 0.205839
95.5048	106.8156	150.6856	257.7852	273.6527	320.2253	386.4519	409.9426	425.8301	549.2912	584.178	608.9709	637.4652	673.0132	674.9032	768.8274	819.0792	863.4672	908.0219	944.376	951.526	993.8878	1048.6312	1081.1326	1117.3328	1199.9787	1264.5353	1286.1403	1297.3626	1377.2578	1472.6412	1477.7548	1656.0045	1851.5848	2232.9221	3145.7398	3207.4052	3243.0337	3289.9731	3489.1958	3500.0068	3564.8221
[NH3+]C1(CC1C([O-])=O)C#C	N[C@]1(C[C@H]1C(=O)O)C#C	
InChI=1S/C6H7NO2/c1-2-6(7)3-4(6)5(8)9/h1,4H,3,7H2,(H,8,9)	InChI=1S/C6H7NO2/c1-2-6(7)3-4(6)5(8)9/h1,4H,3,7H2,(H,8,9)/t4-,6-/m0/s1
