14
gdb 20925	3.49151	1.95969	1.38247	2.2241	60.74	-0.2447	-0.0398	0.2049	874.8092	0.106936	-411.999964	-411.992509	-411.991565	-412.032836	26.251	
C	 0.0545159868	 1.5546963932	-0.0550915985	-0.38764
C	 0.0132090743	 0.0273309321	-0.0871079246	-0.14107
N	 0.7163018095	-0.5300639313	-1.2324460225	-0.059523
N	 0.1058507993	-0.8483223684	-2.3842963287	-0.041008
N	 0.9329508671	-1.2642392346	-3.21995739	-0.003557
O	 2.2320582798	-1.2264648188	-2.6124497138	-0.242582
C	 2.0809131746	-0.7452743171	-1.3433309621	 0.515943
N	 2.9399961782	-0.5296918788	-0.4408436433	-0.59757
H	 1.0878200009	 1.9071018253	-0.0075331237	 0.154308
H	-0.4244939763	 1.9778491255	-0.942548019	 0.135132
H	-0.4750143444	 1.9194138652	 0.8297597396	 0.129775
H	 0.4969870915	-0.391625388	 0.7992444045	 0.155336
H	-1.0115009543	-0.3475956747	-0.1354023521	 0.141736
H	 3.875984173	-0.7762408496	-0.7506394358	 0.24072
30.9205	104.5718	210.4868	221.5534	294.7033	395.4297	474.794	649.4477	656.2023	721.2221	734.9797	758.1377	776.8809	798.3312	970.9386	999.2367	1047.2697	1092.3128	1110.2535	1225.9659	1251.0876	1377.7831	1394.3776	1403.7278	1413.4063	1470.9082	1490.54	1504.2235	1524.6922	1782.4678	3048.3658	3074.0706	3117.6114	3125.3877	3141.7331	3545.6247
CCN1N=NOC1=N	CCN1N=NO[C@@H]1[NH]	
InChI=1S/C3H6N4O/c1-2-7-3(4)8-6-5-7/h4H,2H2,1H3	InChI=1S/C3H7N4O/c1-2-7-3(4)8-6-5-7/h3-4H,2H2,1H3/t3-/m1/s1
