15
gdb 45770	3.04154	1.2364	0.96397	3.853	72.15	-0.2317	-0.019	0.2126	1180.3708	0.113078	-416.860251	-416.852206	-416.851262	-416.89388	28.949	
O	-0.0676247416	-0.0124603651	-0.3064133337	-0.373523
C	-0.083190594	 1.1828794786	-0.1228529327	 0.420518
C	-1.2747905991	 2.1446096729	-0.0549824003	-0.39483
C	-0.635448193	 3.4875331305	 0.1815592596	-0.148513
C	 0.6882681951	 3.3264074263	 0.2431046121	-0.010296
N	 1.0464205872	 1.9750178553	 0.0654114839	-0.088207
C	 2.3787105135	 1.4227250018	 0.0543850954	-0.306713
C	 3.0987743532	 1.6361584274	 1.3179953199	 0.264788
N	 3.6697321404	 1.8302061713	 2.302991841	-0.297185
H	-1.8469007842	 2.0820508554	-0.9876943714	 0.153759
H	-1.9512912489	 1.8303456494	 0.7481960426	 0.156778
H	-1.16537538	 4.4205922141	 0.2914861683	 0.119746
H	 1.4663739167	 4.0570069079	 0.4123322245	 0.145214
H	 2.2599073743	 0.3488223231	-0.1275706398	 0.195763
H	 2.9809857603	 1.8392287513	-0.7630464492	 0.1627
46.339	80.6393	169.3488	228.8587	275.7071	376.6398	429.225	441.5668	553.7021	587.4414	673.2052	697.1418	752.1177	858.3319	908.7867	914.6201	950.644	960.6108	977.0203	1051.3521	1148.2952	1149.4723	1199.8448	1255.9354	1297.2098	1345.0226	1377.4225	1421.5715	1433.5783	1466.1518	1672.0509	1823.014	2365.4421	3027.7328	3048.3446	3080.5026	3086.5216	3238.754	3265.4701
O=C1CC=CN1CC#N	O=C1CC=CN1CC#N	
InChI=1S/C6H6N2O/c7-3-5-8-4-1-2-6(8)9/h1,4H,2,5H2	InChI=1S/C6H6N2O/c7-3-5-8-4-1-2-6(8)9/h1,4H,2,5H2
