16
gdb 38022	3.69526	1.72923	1.37521	1.0729	72.75	-0.2263	-0.0101	0.2162	915.8435	0.128583	-396.926344	-396.920135	-396.919191	-396.956727	25.67	
C	 0.0544190608	 1.5095747707	 0.117860606	-0.284943
C	 1.3521258146	 0.7483429241	 0.0338376182	-0.006368
N	 1.9827592588	 0.5337835541	 1.3374498658	-0.300661
C	 1.2189196391	-0.2882769809	 1.932836026	 0.346019
N	 1.0163193675	-0.5899364079	 3.2749635942	-0.370091
C	-0.3728772983	-0.8442085828	 3.3481143278	 0.052053
N	-1.0097694856	-0.9745752419	 2.2462544589	-0.254365
C	 0.0318016659	-0.8779680425	 1.1983877481	-0.035964
C	 0.0051519007	 0.0060423882	-0.0304433488	-0.083054
H	-0.200250241	 1.9611999853	 1.0714037882	 0.118616
H	-0.2545276983	 2.0809514183	-0.7509517132	 0.116829
H	 2.0095082597	 0.8657207048	-0.8186718736	 0.096188
H	 1.4854508004	-0.0694368207	 4.0021193215	 0.263902
H	-0.8310464927	-0.9299650861	 4.328736199	 0.135555
H	 0.2467774128	-1.9091834379	 0.8790894665	 0.111801
H	-0.3595096646	-0.4073381549	-0.9614062644	 0.094485
174.7044	205.4511	373.2091	449.246	484.1059	563.9062	621.5428	663.4296	676.4964	760.9046	783.1587	817.6954	872.4302	886.5749	926.5802	944.6405	957.909	999.5039	1040.5847	1047.1654	1062.7637	1089.7751	1091.5917	1129.1028	1188.1149	1207.4576	1294.8772	1299.1846	1326.6756	1349.9476	1366.8416	1377.7054	1475.2846	1650.8055	1752.1044	2990.3166	3128.3298	3189.5378	3191.0665	3198.3688	3218.7664	3613.4737
C1C2N=C3NC=NC3C12	C1[C@H]2[N][C]3N[CH][N][C@H]3[C@@H]12	
InChI=1S/C6H7N3/c1-3-4(1)9-6-5(3)7-2-8-6/h2-5H,1H2,(H,7,8,9)	InChI=1S/C6H7N3/c1-3-4(1)9-6-5(3)7-2-8-6/h2-5H,1H2,(H,7,8,9)/t3-,4+,5-/m0/s1
