21
gdb 71665	2.68408	1.9956	1.74838	0.1028	84.22	-0.2529	0.0976	0.3504	921.8879	0.1861	-349.953382	-349.946686	-349.945742	-349.983844	29.37	
C	-0.0229474841	 1.5459210835	-0.0230785791	-0.508628
C	 0.0350916797	 0.0351855371	-0.0066202178	 0.343152
C	 0.9131553877	-0.7907866806	-0.9987237098	-0.267701
C	 0.7302219181	-1.9107350637	 0.064112099	-0.055689
C	-0.7866316641	-2.1728442061	 0.0557405656	-0.063752
C	-1.4178498545	-1.5457184342	 1.285705693	-0.072253
C	-0.3050905599	-1.1104054336	 2.2221113563	-0.25141
C	 0.7246701971	-0.7816197812	 1.150385209	-0.065084
C	-1.2977781195	-0.7464506537	 0.0008134177	-0.099803
H	 0.9796767077	 1.9853404082	 0.0126682257	 0.110171
H	-0.5138927074	 1.9129442571	-0.9324140682	 0.113467
H	-0.5894245718	 1.9317044296	 0.8322754556	 0.115964
H	 0.5250322048	-0.9676893729	-2.0067798741	 0.083398
H	 1.9423349913	-0.4211191018	-1.0538842176	 0.085814
H	 1.3977705828	-2.7705681828	 0.1252543319	 0.055179
H	-1.2418008276	-2.9903829361	-0.4874627274	 0.078279
H	-2.3842910393	-1.880099802	 1.6443462424	 0.076032
H	-0.5759236665	-0.239199087	 2.8301674663	 0.093809
H	 0.0239362878	-1.9115740139	 2.894195216	 0.093597
H	 1.7033279002	-0.4160210897	 1.4603614464	 0.060877
H	-2.1538365627	-0.4387923361	-0.5862913009	 0.074581
210.572	230.9592	271.0484	399.8304	429.1129	504.6624	582.9089	665.0722	700.7903	727.6127	799.2935	808.3351	828.2472	839.0809	871.3641	904.5599	918.0903	943.9404	964.629	975.6517	981.4224	1013.5814	1025.6053	1044.7746	1065.2974	1071.169	1081.5627	1113.2259	1137.7562	1193.223	1202.0259	1217.2702	1231.3416	1238.0237	1249.9062	1269.4988	1287.5424	1322.2124	1360.8215	1382.0603	1412.1094	1488.2782	1493.2043	1494.4801	1501.8216	3020.7357	3030.977	3039.6068	3071.7684	3082.3222	3090.7951	3095.7675	3107.122	3122.6925	3180.7546	3188.8833	3203.2669
CC12CC3C4C(CC13)C24	C[C@@]12C[C@@H]3[C@H]4[C@@H](C[C@H]13)[C@@H]24	
InChI=1S/C9H12/c1-9-3-5-6(9)2-4-7(5)8(4)9/h4-8H,2-3H2,1H3	InChI=1S/C9H12/c1-9-3-5-6(9)2-4-7(5)8(4)9/h4-8H,2-3H2,1H3/t4-,5+,6+,7-,8-,9-/m1/s1
