21
gdb 62970	2.19226	1.57882	1.25787	0.8242	88.03	-0.2507	0.0483	0.2991	1131.7115	0.180647	-349.899975	-349.890738	-349.889794	-349.933154	36.463	
C	-0.1504918892	 1.576233071	-0.1276931532	-0.446228
C	 0.0003472893	 0.0597220406	-0.0613360032	 0.313941
C	-1.3420421175	-0.6039845246	 0.2497288834	-0.442317
C	 0.7019426966	-0.6333092084	-1.2463304921	-0.068847
C	 2.1423096769	-0.2246434477	-1.3768224575	-0.3073
C	 1.7650243228	-1.2275434281	-0.3276107373	-0.046144
C	 1.1415988665	-0.5254153344	 0.8957036338	-0.257661
C	 1.9764682792	 0.393053347	 1.6468691472	 0.345269
C	 2.6647009876	 1.1694052194	 2.2568036014	-0.469494
H	 0.7958499868	 2.0772449435	-0.3429642011	 0.122132
H	-0.8662450928	 1.851260484	-0.9107767616	 0.108387
H	-0.5221142353	 1.9733248605	 0.8231178117	 0.11721
H	-2.0833230899	-0.3563733654	-0.5188701427	 0.1125
H	-1.2491928089	-1.6947667327	 0.283510017	 0.113993
H	-1.7343063625	-0.264300837	 1.2146964082	 0.115837
H	 0.170985161	-1.1150425202	-2.0600503973	 0.08059
H	 2.6581911345	-0.6345537113	-2.2393431722	 0.111299
H	 2.479216512	 0.7672069857	-1.0899186404	 0.119221
H	 2.1768017316	-2.2288613495	-0.3064057912	 0.089226
H	 0.69412597	-1.2514241395	 1.5811322751	 0.096614
H	 3.2757374114	 1.8453833669	 2.801720602	 0.191772
105.2604	139.4045	193.1444	221.6892	241.9618	270.7507	345.6775	352.426	370.3258	469.159	530.2486	545.5259	613.9034	625.6381	629.7827	755.2904	796.2176	805.3454	885.5592	941.2738	953.1675	969.6558	992.5825	1011.167	1015.6209	1022.8786	1064.0993	1080.6587	1088.32	1160.2306	1180.2826	1206.2189	1226.8153	1267.3636	1299.1375	1343.0302	1360.417	1403.1909	1423.2515	1479.4822	1481.6449	1494.3195	1502.8519	1506.0324	2225.9556	3021.8305	3032.9417	3057.5057	3088.4137	3094.4408	3096.7393	3119.8687	3123.716	3167.372	3185.3466	3206.2612	3503.5104
CC1(C)C2CC2C1C#C	CC1(C)[C@H]2C[C@H]2[C@H]1C#C	
InChI=1S/C9H12/c1-4-7-6-5-8(6)9(7,2)3/h1,6-8H,5H2,2-3H3	InChI=1S/C9H12/c1-4-7-6-5-8(6)9(7,2)3/h1,6-8H,5H2,2-3H3/t6-,7+,8-/m0/s1
