18
gdb 89202	2.5173	1.58818	1.23136	4.897	71.78	-0.2371	0.009	0.2461	1077.3316	0.146942	-439.089229	-439.080704	-439.07976	-439.12215	32.108	
C	-0.6918343795	 1.2750111317	-0.0975137228	-0.395279
C	 0.0632671313	-0.0327737179	 0.0472683457	 0.024996
N	 1.3095900143	-0.148825847	-0.7761906238	-0.363609
C	 2.0917638441	-0.6344619595	 0.3996763344	 0.134163
C	 2.8637911126	-1.9202833368	 0.2817956264	-0.510837
C	 0.8963519434	-0.2892502957	 1.3226784278	 0.040205
O	 1.605548547	 0.8885295294	 1.813035435	-0.266781
C	 2.7375602423	 0.5955247363	 1.0708121755	 0.470581
O	 3.7677936177	 1.1834740342	 1.0606725528	-0.328486
H	-0.0381262721	 2.1195323613	 0.1308361488	 0.143448
H	-1.0593078328	 1.3902618406	-1.121832052	 0.121066
H	-1.5527259714	 1.3031794719	 0.5791302342	 0.116763
H	-0.6103353097	-0.8877362133	-0.1050234836	 0.077989
H	 1.2510757911	-0.83320519	-1.5219654491	 0.223133
H	 3.6658551183	-1.805498523	-0.4551763018	 0.150224
H	 3.3244868025	-2.1951049387	 1.2351904694	 0.139845
H	 2.2148754564	-2.7415247075	-0.03987505	 0.122832
H	 0.5013877647	-0.883330116	 2.144555443	 0.099747
98.7598	172.0792	197.6162	211.3052	225.7376	258.8539	281.6822	408.6691	431.477	570.1311	631.5149	677.0175	710.8929	783.4082	799.0015	841.4481	894.0033	901.5756	945.143	988.8185	1024.0659	1081.6741	1102.9282	1129.7069	1150.6265	1174.4716	1202.1513	1248.6024	1322.662	1328.1234	1370.285	1398.1609	1410.7443	1417.6604	1485.7571	1486.9727	1489.5235	1494.2338	1942.3307	3003.6384	3034.5677	3040.7401	3104.1705	3106.7684	3113.2487	3134.5702	3136.2753	3536.2366
CC1NC2(C)C1OC2=O	C[C@H]1N[C@]2(C)[C@H]1OC2=O	
InChI=1S/C6H9NO2/c1-3-4-6(2,7-3)5(8)9-4/h3-4,7H,1-2H3	InChI=1S/C6H9NO2/c1-3-4-6(2,7-3)5(8)9-4/h3-4,7H,1-2H3/t3-,4+,6-/m1/s1
