19
gdb 103794	3.60579	0.95381	0.89204	2.9721	74.03	-0.2489	-0.0279	0.221	1366.8304	0.156491	-460.170844	-460.161115	-460.160171	-460.205663	35.813	
C	-0.0332789693	 1.3769767163	 0.004645033	-0.483432
C	 0.0025293318	-0.1345617534	-0.0340078792	 0.416362
O	 1.0645203057	-0.7447270941	-0.0464204003	-0.367404
C	-1.2941215872	-0.8443029264	-0.0253931441	-0.233052
C	-1.3898314001	-2.1827661108	-0.7783474533	-0.341794
C	-1.3304163469	-2.2130224537	 0.7018582161	 0.405152
O	-0.1961367502	-2.6683151217	 1.3574505475	-0.480862
C	-2.551081571	-2.5533560744	 1.5266643861	-0.091899
O	-2.6703067244	-3.9494199274	 1.7119370084	-0.418902
H	 0.9817666386	 1.7749707535	 0.011680816	 0.145784
H	-0.5797542273	 1.7655518203	-0.8620894054	 0.145199
H	-0.5707196077	 1.7169792562	 0.8973258021	 0.146772
H	-2.1860381423	-0.2282725018	 0.0170050833	 0.093218
H	-2.3296965098	-2.3916880383	-1.2769938913	 0.128569
H	-0.4955622305	-2.4733303267	-1.3197806258	 0.135595
H	 0.5767360868	-2.2912678985	 0.8992155765	 0.305909
H	-2.4828332882	-2.0238065202	 2.4900323627	 0.095307
H	-3.459519587	-2.2181092994	 1.0171030812	 0.102825
H	-1.8148018512	-4.2503411597	 2.0402341165	 0.296654
70.9303	93.7817	122.7959	128.7164	206.1257	269.8175	318.1066	340.6372	378.9022	429.6106	461.1858	517.576	576.7322	609.1359	675.8084	749.9793	812.2883	826.4825	914.0425	957.8401	961.5864	993.5327	1031.4743	1050.8694	1072.9017	1081.098	1106.9936	1196.6807	1199.0332	1216.3364	1337.1276	1362.0556	1379.4996	1396.8165	1431.4782	1457.3032	1461.7214	1473.9723	1494.687	1497.9788	1741.852	2983.0947	3036.2347	3083.3396	3096.4429	3133.4455	3155.2725	3165.6511	3228.9363	3603.2919	3800.3926
CC(=O)C1CC1(O)CO	CC(=O)[C@H]1C[C@]1(O)CO	
InChI=1S/C6H10O3/c1-4(8)5-2-6(5,9)3-7/h5,7,9H,2-3H2,1H3	InChI=1S/C6H10O3/c1-4(8)5-2-6(5,9)3-7/h5,7,9H,2-3H2,1H3/t5-,6+/m1/s1
