20
gdb 62974	2.22317	1.57767	1.26469	2.0618	85.07	-0.2307	0.0494	0.2801	1113.0031	0.169091	-365.937896	-365.928765	-365.927821	-365.971029	35.738	
C	-0.1057372369	 1.5553905436	-0.1879699777	-0.44677
C	-0.0139132418	 0.0406404832	-0.0596944458	 0.320408
C	-1.3618626923	-0.5895112103	 0.2836967681	-0.452079
C	 0.6842709	-0.6964743947	-1.2219363023	-0.084418
N	 2.0589358202	-0.157334188	-1.320532618	-0.33335
C	 1.754844022	-1.2180767577	-0.336453768	-0.056278
C	 1.143639188	-0.5309475992	 0.8981119106	-0.256955
C	 1.9687302479	 0.383568003	 1.6598381991	 0.361753
C	 2.6399844691	 1.1432329823	 2.3071710134	-0.466143
H	 0.8561064597	 1.9753003271	-0.4865017387	 0.146693
H	-0.8559656335	 1.8290176155	-0.9390184645	 0.101906
H	-0.3997162576	 2.0103088669	 0.7637054578	 0.115105
H	-2.1123285967	-0.3373404867	-0.474326714	 0.11382
H	-1.2942035932	-1.6818784145	 0.3361434032	 0.111668
H	-1.7276652754	-0.2255582357	 1.2499010975	 0.121219
H	 0.2020164872	-1.1601250867	-2.0750428793	 0.088409
H	 2.5079415693	-0.6073934063	-2.117426231	 0.229856
H	 2.2855895733	-2.1619940026	-0.3500168645	 0.096826
H	 0.7051994175	-1.2783645014	 1.5671141159	 0.097612
H	 3.242616503	 1.8141492522	 2.8673204381	 0.190718
104.5502	138.0514	209.2589	219.8312	243.2842	266.5786	334.9664	350.2044	369.4916	497.4147	531.4595	560.8826	614.0463	630.5135	653.9092	765.5681	815.5638	842.4491	864.8395	921.6022	956.2592	961.814	980.836	1017.7872	1024.7131	1066.1651	1093.7024	1108.6245	1160.6047	1199.2739	1220.8663	1241.7621	1301.7299	1322.6965	1348.0633	1380.0245	1399.8027	1420.6476	1480.9944	1486.9034	1498.3386	1509.3598	2232.0572	3021.9238	3032.292	3054.7808	3088.2946	3093.2125	3096.8565	3139.1027	3174.5179	3191.7156	3477.6927	3504.457
CC1(C)C2NC2C1C#C	CC1(C)[C@H]2N[C@H]2[C@H]1C#C	
InChI=1S/C8H11N/c1-4-5-6-7(9-6)8(5,2)3/h1,5-7,9H,2-3H3	InChI=1S/C8H11N/c1-4-5-6-7(9-6)8(5,2)3/h1,5-7,9H,2-3H3/t5-,6+,7+/m1/s1
