21
gdb 6394	2.68927	1.29949	1.07838	3.3989	76.36	-0.2392	0.0388	0.2781	1236.0881	0.186354	-366.314766	-366.30426	-366.303316	-366.352332	36.296	
C	 0.0156381486	 1.6129404924	 0.3447731452	-0.380644
C	 0.0177654805	 0.1025114664	 0.1008133791	-0.170108
C	 0.7786562427	-0.7029304382	 1.1675297203	 0.048934
C	 0.6341613838	-2.2145325602	 0.9523614964	-0.395084
N	 2.1870377852	-0.3203326742	 1.2099334764	-0.310679
C	 2.8143296329	 0.1212227059	 2.3410601904	 0.409837
C	 4.3007852693	 0.4107147158	 2.1834841278	-0.48441
O	 2.2401536274	 0.2735265734	 3.404856167	-0.376327
H	 1.0341727756	 2.0117900696	 0.363168948	 0.117044
H	-0.5374346862	 2.1371410725	-0.4404771916	 0.110438
H	-0.4505402072	 1.8561924891	 1.305180001	 0.126396
H	-1.0134525784	-0.2693682301	 0.068243134	 0.100149
H	 0.447695514	-0.1175514403	-0.887358954	 0.084046
H	 0.393636738	-0.4429439331	 2.1579737567	 0.123895
H	 1.160236965	-2.768863848	 1.7343025272	 0.126101
H	-0.4195712909	-2.5099996769	 0.9708207775	 0.118591
H	 1.0472370911	-2.5172210772	-0.0177044536	 0.105401
H	 2.7362368415	-0.4568424824	 0.3761419728	 0.236096
H	 4.6594230537	 0.3405556818	 1.1529781939	 0.107544
H	 4.503686681	 1.4136699249	 2.5662027198	 0.151993
H	 4.8640942723	-0.2940291811	 2.8019466457	 0.150787
17.1234	33.956	77.3118	113.0467	183.8619	219.7923	226.6475	259.8927	346.2124	415.5072	439.5287	460.0843	501.1351	603.051	636.8528	782.2325	836.8769	903.9092	963.895	980.8673	1003.1722	1024.7281	1049.6839	1055.9172	1128.0455	1181.9687	1186.1351	1253.899	1298.6294	1333.15	1371.0684	1387.9779	1395.9732	1408.7629	1412.4071	1470.0598	1480.1582	1485.9303	1492.8996	1495.3431	1497.4083	1507.1328	1535.1478	1776.9343	3003.1149	3026.688	3038.6905	3047.5093	3051.3471	3079.043	3099.7766	3106.6913	3111.8203	3117.1277	3121.4594	3132.6118	3629.7739
CCC(C)NC(C)=O	CC[C@@H](C)NC(=O)C	
InChI=1S/C6H13NO/c1-4-5(2)7-6(3)8/h5H,4H2,1-3H3,(H,7,8)	InChI=1S/C6H13NO/c1-4-5(2)7-6(3)8/h5H,4H2,1-3H3,(H,7,8)/t5-/m1/s1
