22
gdb 94082	3.53097	1.00386	0.86506	3.9757	84.69	-0.2369	0.0332	0.2701	1402.9979	0.196353	-404.403711	-404.394868	-404.393923	-404.437313	33.976	
C	 0.0961426283	 1.5813090446	 0.0253575399	-0.405068
C	 0.0432571153	 0.0517457238	 0.0026830912	 0.044395
C	 0.7103280885	-0.5258336247	-1.2583593111	-0.185979
C	 0.6827887842	-2.0597755402	-1.2546337112	-0.189494
N	 1.2453737254	-2.5879092583	-0.0241756702	-0.030663
C	 0.6632254326	-2.0952135709	 1.2184297406	-0.187577
C	 0.6877877973	-0.5626301911	 1.2574399911	-0.191836
C	 2.2876460741	-3.4634775199	-0.0107403747	 0.14677
O	 2.8110632987	-3.9278649877	 0.9814131017	-0.345752
H	 1.1328428708	 1.9374762929	 0.0412409855	 0.116516
H	-0.3896726501	 2.0101781305	-0.8574925927	 0.111759
H	-0.4058054462	 1.9813506266	 0.9126016813	 0.113736
H	-1.0144909808	-0.2544608085	-0.0122422206	 0.069648
H	 0.2090463745	-0.1550017001	-2.1600310572	 0.096303
H	 1.7537028382	-0.1866321289	-1.3054081355	 0.101717
H	-0.3565177829	-2.4072080158	-1.3623311443	 0.104164
H	 1.2492296713	-2.4662321974	-2.098278345	 0.113302
H	-0.3746741797	-2.4527271592	 1.2950849198	 0.101517
H	 1.234854482	-2.5366353647	 2.0359472074	 0.145814
H	 1.7293120845	-0.2237010543	 1.3345685664	 0.105869
H	 0.1704069881	-0.2150394172	 2.1590841861	 0.097207
H	 2.6200043959	-3.7151507095	-1.0381385884	 0.067651
54.7135	168.2721	182.9585	237.9764	275.5766	309.1032	322.6109	348.1241	389.4814	447.5155	480.6089	576.2406	668.0624	783.5016	815.8552	829.1401	912.7058	965.022	977.7832	980.8951	1011.5633	1019.6423	1030.6193	1102.1416	1143.5551	1150.2391	1184.8506	1220.2316	1243.3779	1287.0045	1297.4517	1331.6379	1334.0842	1375.8865	1381.3178	1396.9895	1406.199	1412.6217	1434.8795	1462.2235	1476.5813	1487.1268	1489.6728	1497.2714	1499.5875	1500.5573	1790.6689	2926.2583	2980.9188	2984.7395	2994.5308	3019.5144	3022.5006	3028.54	3067.1661	3070.1962	3079.3037	3093.5257	3098.7524	3128.7836
CC1CCN(CC1)C=O	CC1CCN(CC1)C=O	
InChI=1S/C7H13NO/c1-7-2-4-8(6-9)5-3-7/h6-7H,2-5H2,1H3	InChI=1S/C7H13NO/c1-7-2-4-8(6-9)5-3-7/h6-7H,2-5H2,1H3
