17
gdb 17250	4.63425	1.59717	1.53087	1.7718	67.2	-0.2252	0.0716	0.2968	881.2175	0.143402	-363.773121	-363.76622	-363.765276	-363.804245	26.868	
O	 0.1653733297	 1.31313921	-0.2637486717	-0.413276
C	-0.0177959788	-0.0306161339	 0.1644770237	-0.188724
C	-1.4499383131	-0.4635579342	 0.1209373713	 0.303911
C	-2.6149679587	-0.0725511853	 1.0166851754	-0.220736
N	-3.3884039734	-1.2696923563	 0.4964612609	-0.170501
C	-3.613342954	-0.8681187955	-0.9505192158	-0.176368
C	-2.1172300158	-0.9836291974	-1.1831957635	-0.141103
C	-2.0276175301	-1.8473738144	 0.0397172404	-0.085046
H	-0.2214494215	 1.3879633613	-1.1424725136	 0.281375
H	 0.600113986	-0.7301051399	-0.4232302167	 0.087208
H	 0.3565685669	-0.0604094502	 1.1939400067	 0.114485
H	-2.3892187465	-0.2199907211	 2.076746251	 0.107696
H	-3.1160616226	 0.8916210054	 0.8770894573	 0.100541
H	-4.1810393015	-1.6519031242	-1.4589185696	 0.111374
H	-4.1162187501	 0.0967293739	-1.0826459623	 0.098917
H	-1.5553578265	-1.0728217519	-2.1059601547	 0.088905
H	-1.6554678999	-2.8408738464	 0.246390131	 0.101342
95.5368	147.6723	268.2358	334.7776	376.6296	457.8028	478.48	659.9814	720.4548	780.8668	837.498	843.8761	873.8803	901.045	943.4641	947.0326	975.1029	1014.3243	1047.2014	1060.6603	1085.6714	1103.7698	1130.0704	1154.1129	1178.5957	1198.2688	1237.756	1255.6739	1287.2416	1318.6945	1365.2536	1407.5544	1436.1507	1499.9562	1503.4873	1521.344	2963.7277	3031.8002	3041.4929	3062.16	3095.1801	3099.225	3177.0486	3217.0432	3810.2669
OCC12CN3CC1C23	OC[C@@]12CN3C[C@@H]1[C@@H]23	
InChI=1S/C6H9NO/c8-3-6-2-7-1-4(6)5(6)7/h4-5,8H,1-3H2	InChI=1S/C6H9NO/c8-3-6-2-7-1-4(6)5(6)7/h4-5,8H,1-3H2/t4-,5+,6+/m1/s1
