18
gdb 126948	6.61457	0.80374	0.72964	2.272	77.58	-0.2159	-0.0098	0.2061	1573.2172	0.148589	-431.439456	-431.430237	-431.429293	-431.474541	32.052	
C	 0.0498826218	 1.4660258343	-0.01635664	-0.396243
C	-0.1229019442	-0.0400358453	 0.1460004473	-0.113682
N	 0.738898986	-0.5391938667	 1.2130389091	-0.383936
C	 0.8940356491	-1.8852303975	 1.393971792	 0.501938
N	 1.3628872934	-2.4322832654	 2.5184292586	-0.368212
N	 1.3814522886	-3.7258410298	 2.1794559363	 0.156865
C	 1.8265016104	-4.7675703298	 3.078424372	-0.314308
N	 0.956713879	-3.9717346378	 0.9574513546	-0.130659
N	 0.6347178708	-2.8108661538	 0.432005878	-0.293714
H	 1.0881034848	 1.7165586218	-0.2521588569	 0.130762
H	-0.5900563859	 1.8372054348	-0.8215788955	 0.124451
H	-0.2289705875	 2.0000200693	 0.8998150494	 0.114017
H	-1.1806774179	-0.2833694205	 0.332714978	 0.101258
H	 0.1580196802	-0.5601834933	-0.7731865601	 0.143821
H	 0.7123500135	-0.0168872334	 2.0766431139	 0.246191
H	 1.2084381512	-4.7705043061	 3.9793942649	 0.155811
H	 1.727789959	-5.715363643	 2.5507456941	 0.168696
H	 2.8689492376	-4.5977459378	 3.3580947844	 0.156946
41.9509	77.0164	117.7295	132.9864	189.3706	260.1259	319.2686	340.0593	363.89	479.3675	550.7833	676.5387	721.0053	779.0084	798.8426	822.8075	938.8306	1031.9599	1058.7904	1066.2224	1109.5324	1149.1258	1151.3676	1178.6249	1241.0755	1291.801	1331.2318	1365.0243	1410.3354	1419.5559	1430.5581	1448.2586	1474.4583	1483.8513	1495.3509	1500.0548	1515.8818	1526.1625	1627.4561	2981.3399	3033.6692	3059.8906	3088.6827	3109.353	3123.6128	3128.9536	3174.6683	3606.7856
CCNC1=NN(C)N=N1	CCNc1nn(C)nn1	
InChI=1S/C4H9N5/c1-3-5-4-6-8-9(2)7-4/h3H2,1-2H3,(H,5,7)	InChI=1S/C4H9N5/c1-3-5-4-6-8-9(2)7-4/h3H2,1-2H3,(H,5,7)
