17
gdb 113283	2.35992	1.24787	0.94395	3.0115	76.45	-0.2631	-0.0655	0.1976	1270.4647	0.133526	-417.996044	-417.986657	-417.985713	-418.030477	33.267	
C	 0.2410565353	 1.4485751085	 0.1471361909	-0.381081
C	-0.2218375568	 0.0108982027	-0.075368376	-0.141825
N	 0.5350420435	-0.5595014605	-1.1990639557	-0.101217
C	 1.768490177	-1.2421241477	-0.9479466453	-0.255616
C	 0.5594236039	-2.0283954483	-1.4199067482	 0.052587
C	-0.0619942593	-2.9897051533	-0.4397128995	 0.102162
O	 0.0343974191	-2.8865403569	 0.7572399621	-0.252411
C	 0.4505490175	-2.4317549755	-2.8046983915	 0.251605
N	 0.358238811	-2.7979523515	-3.8971355169	-0.323864
H	 1.2953920933	 1.4819267118	 0.4399822495	 0.123518
H	 0.1202674753	 2.0431065393	-0.762194477	 0.135073
H	-0.344402441	 1.9093051032	 0.9478890226	 0.125208
H	-0.114303635	-0.5772548243	 0.8428856063	 0.135217
H	-1.2786827336	-0.0056159427	-0.3616292814	 0.118086
H	 2.5725331099	-1.0752876107	-1.6591168316	 0.14817
H	 2.060349851	-1.4398946044	 0.0826477057	 0.149517
H	-0.632985021	-3.8136247797	-0.9132254639	 0.11487
78.5154	135.235	143.3484	144.0399	177.1787	235.2267	267.8197	281.853	397.5953	424.2493	529.8464	553.8103	587.778	734.7612	759.2274	821.3271	887.6833	918.7845	978.545	1036.1688	1060.443	1106.2487	1119.0515	1147.2264	1200.9439	1216.1852	1308.3608	1340.8356	1383.9496	1411.6792	1430.8818	1483.8705	1489.4425	1498.6337	1516.8699	1808.4744	2358.6199	2934.9713	3038.2449	3043.7039	3082.1996	3096.345	3114.9332	3127.7856	3198.1759
CCN1CC1(C=O)C#N	CCN1C[C@]1(C=O)C#N	
InChI=1S/C6H8N2O/c1-2-8-4-6(8,3-7)5-9/h5H,2,4H2,1H3	InChI=1S/C6H8N2O/c1-2-8-4-6(8,3-7)5-9/h5H,2,4H2,1H3/t6-,8?/m0/s1
