18
gdb 16916	3.7831	1.78903	1.394	0.5452	66.49	-0.2261	0.0701	0.2963	909.2066	0.155397	-384.920032	-384.912829	-384.911885	-384.951209	28.494	
O	-0.0973720912	 1.437818637	 0.0808122313	-0.429273
C	 0.0164881784	 0.0243310785	 0.0048492407	 0.103972
C	 0.7730498236	-0.5339105107	 1.2145985856	-0.110528
O	 0.9583877687	-1.9352256888	 1.1201741506	-0.252639
C	-0.1975953123	-2.6803425905	 0.8509902118	 0.136203
C	-1.4568841442	-2.5581420413	 1.6618304069	-0.328594
C	-1.4157818378	-2.0504599722	 0.2247583834	-0.076558
C	-1.4017777349	-0.5452558683	-0.0416486533	-0.229576
H	 0.7835493928	 1.8163317161	-0.0057340572	 0.283862
H	 0.5610740352	-0.2824789462	-0.9021062896	 0.072772
H	 1.7804812501	-0.1069650189	 1.2696761482	 0.096449
H	 0.2428538369	-0.2498929329	 2.1376456718	 0.097522
H	 0.0986092431	-3.671273149	 0.5240164909	 0.099628
H	-2.0121483262	-3.4627456698	 1.8849774234	 0.110603
H	-1.4975394424	-1.8080124459	 2.4447985275	 0.117315
H	-1.9410316921	-2.6484456557	-0.5127695734	 0.088496
H	-2.0002455001	-0.0059479063	 0.701922565	 0.112795
H	-1.8463315574	-0.3270155251	-1.0165965037	 0.107551
104.611	217.586	295.3996	319.9419	340.3091	388.0048	431.2573	485.5729	507.9832	681.4951	755.3926	801.1647	843.4445	871.2029	921.2444	968.0042	1010.4055	1023.7876	1050.4283	1078.2762	1099.4355	1114.0994	1128.0766	1155.6084	1187.1293	1213.856	1240.6593	1256.775	1303.2941	1328.2987	1340.7918	1367.6929	1397.0287	1420.391	1440.0717	1479.9812	1494.7953	1511.4797	2973.22	2986.9792	3040.2975	3065.3795	3088.5799	3130.4536	3152.4676	3168.5074	3216.0746	3814.5894
OC1COC2CC2C1	O[C@H]1CO[C@H]2C[C@H]2C1	
InChI=1S/C6H10O2/c7-5-1-4-2-6(4)8-3-5/h4-7H,1-3H2	InChI=1S/C6H10O2/c7-5-1-4-2-6(4)8-3-5/h4-7H,1-3H2/t4-,5-,6+/m1/s1
