17
gdb 125231	5.31932	1.00474	0.887	2.7795	77.29	-0.2316	0.0028	0.2344	1313.9977	0.136135	-417.980553	-417.972355	-417.971411	-418.013998	29.914	
C	-0.0244130664	 1.5023309884	-0.075522096	-0.490939
C	-0.0941001638	 0.0196097177	 0.0236256761	 0.463125
C	-1.0530299777	-0.892870982	-0.2793820304	-0.443789
C	-0.4565803103	-2.1402479548	 0.0731862025	 0.430133
N	 0.7621063109	-1.9864815907	 0.5430820736	-0.221086
O	 0.9912905502	-0.6058590062	 0.5171605829	-0.219589
N	-1.0727920352	-3.3887701661	 0.0212402995	-0.148188
C	-1.1762601183	-4.0797938723	-1.2681779223	-0.234102
C	-0.2484565732	-4.5689379898	-0.2089291274	-0.217863
H	 0.7936586247	 1.813375587	-0.7335537685	 0.149536
H	-0.9606287775	 1.8982638024	-0.4730671452	 0.140542
H	 0.1552582405	 1.9509184895	 0.9069081685	 0.151628
H	-2.0383434341	-0.7201079824	-0.6781065748	 0.116018
H	-2.1220667521	-4.5814547537	-1.4482988278	 0.12464
H	-0.7336658466	-3.5953131283	-2.1348797103	 0.12765
H	 0.8151874366	-4.4098833504	-0.3557061425	 0.146956
H	-0.5141078378	-5.4364462183	 0.3868032622	 0.125329
66.884	93.5108	134.0699	185.5281	252.1691	323.609	414.0069	490.1173	568.19	632.8877	699.0066	738.0847	802.8432	822.5959	902.9614	907.9228	937.0419	1007.6385	1025.7555	1033.8786	1050.3105	1065.2795	1114.4298	1134.5141	1145.5921	1176.9723	1185.8913	1266.464	1321.3805	1411.9346	1466.1785	1473.464	1489.4829	1491.9823	1517.8837	1534.5515	1652.7918	3043.1404	3099.7945	3111.4916	3126.521	3139.1978	3199.9915	3219.5253	3278.9099
CC1=CC(=NO1)N1CC1	Cc1cc(no1)N1CC1	
InChI=1S/C6H8N2O/c1-5-4-6(7-9-5)8-2-3-8/h4H,2-3H2,1H3	InChI=1S/C6H8N2O/c1-5-4-6(7-9-5)8-2-3-8/h4H,2-3H2,1H3
