14
gdb 10796	4.91403	1.57199	1.22151	0.7881	58.89	-0.2499	0.0141	0.264	913.8824	0.109682	-415.930102	-415.922965	-415.922021	-415.962164	25.68	
O	-0.006988536	-0.0836108957	 0.147188708	-0.367145
C	-0.005122785	 1.1277393089	 0.0565105517	 0.406611
C	-1.3127753945	 1.9149706491	 0.0541595541	-0.277234
N	-1.1892738514	 3.2698749494	-0.4528500584	-0.31752
C	-0.0660263955	 4.0354210271	-0.421580148	 0.406612
O	-0.0479088874	 5.2132216424	-0.7183212682	-0.367146
C	 1.2067127086	 3.3203290408	 0.0239229232	-0.277229
N	 1.1284107069	 1.8720491907	-0.0426532968	-0.31752
H	-2.0139099806	 1.349393174	-0.5642381497	 0.154979
H	-1.7055529481	 1.8960247856	 1.0816456804	 0.142752
H	-2.0308454973	 3.7687333173	-0.704970174	 0.257555
H	 2.0078133169	 3.6793309636	-0.6266467868	 0.15498
H	 1.4384789215	 3.6720002359	 1.0402743621	 0.14275
H	 1.9859432318	 1.3402177411	 0.0069517124	 0.257554
62.4309	113.0775	146.2994	407.5442	430.8446	442.4838	509.7637	523.1558	599.1688	633.1838	662.6803	779.6065	787.3065	904.8168	1013.9027	1015.1817	1061.2316	1138.6556	1245.9664	1251.8116	1301.1595	1328.1596	1378.6133	1418.3567	1469.514	1472.7866	1500.8313	1526.225	1804.5355	1807.6587	3000.4854	3001.6991	3099.3566	3100.0572	3602.5297	3603.8147
O=C1CNC(=O)CN1	O=C1CNC(=O)CN1	
InChI=1S/C4H6N2O2/c7-3-1-5-4(8)2-6-3/h1-2H2,(H,5,8)(H,6,7)	InChI=1S/C4H6N2O2/c7-3-1-5-4(8)2-6-3/h1-2H2,(H,5,8)(H,6,7)
