16
gdb 46854	2.53302	1.78823	1.23599	6.2268	72.17	-0.2307	-0.046	0.1847	1002.6482	0.126597	-434.059392	-434.051768	-434.050824	-434.091776	29.058	
N	-0.1981635797	 1.3076301026	-0.1741843558	-0.502943
C	-0.0356549882	 0.0767907929	 0.127683492	 0.268576
N	 1.1268818997	-0.5293094072	 0.5496820313	-0.339167
C	 1.3332709052	-1.9510651279	 0.7522756294	-0.173477
C	 0.0862495583	-2.6238759136	 1.2843959257	-0.033462
N	-0.666597363	-1.8789040108	 2.2816543031	-0.319395
C	-1.2421245069	-2.0456136067	 0.9212224602	-0.150146
C	-1.2618655785	-0.8310242363	 0.0497997449	 0.408506
O	-2.1776331623	-0.606525635	-0.7012891322	-0.294788
H	 0.6767845687	 1.8313999215	-0.0851816282	 0.199689
H	 1.9414165847	 0.0614853539	 0.6038121011	 0.239784
H	 1.6346740121	-2.4646472653	-0.1751096543	 0.114719
H	 2.1521926515	-2.0765075041	 1.4699862934	 0.121941
H	 0.1504905921	-3.7063271877	 1.3655336446	 0.104075
H	-1.1445018248	-2.5113972583	 2.9179509321	 0.247357
H	-2.0950152288	-2.7030512779	 0.7855688226	 0.108732
64.0427	131.2993	242.025	322.6284	353.5842	370.1693	459.6172	465.7366	493.0381	590.1575	670.5289	732.5194	799.3809	824.3343	857.1084	910.1045	914.539	956.1999	1013.4855	1053.5945	1073.5194	1140.7584	1158.9527	1191.3343	1231.2165	1246.076	1275.0739	1357.824	1379.8622	1419.8085	1448.2461	1483.4064	1511.6128	1704.1706	1819.5131	2971.6287	3053.11	3141.0627	3170.643	3429.0989	3514.8198	3623.8309
N=C1NCC2NC2C1=O	[NH][C]1NC[C@H]2N[C@H]2C1=O	
InChI=1S/C5H7N3O/c6-5-4(9)3-2(8-3)1-7-5/h2-3,8H,1H2,(H2,6,7)	InChI=1S/C5H7N3O/c6-5-4(9)3-2(8-3)1-7-5/h2-3,8H,1H2,(H2,6,7)/t2-,3-/m1/s1
