17
gdb 73936	2.95383	1.2987	0.9173	3.1233	88.46	-0.2398	-0.0634	0.1764	1231.1683	0.134367	-384.715246	-384.706205	-384.705261	-384.74946	32.783	
C	 0.0527337106	 1.5618050563	 0.0432909548	-0.51378
C	-0.0215258305	 0.0732046744	 0.0279861904	 0.100207
C	-1.1113613484	-0.7257794392	-0.0341400049	 0.094669
C	-0.7622159687	-2.207412037	-0.0276560919	-0.336259
C	 0.7730853256	-2.2350987365	 0.0509633973	-0.344826
C	 1.2019956446	-0.7633369187	 0.0843447111	 0.356222
O	 2.3377888624	-0.3486372497	 0.145856561	-0.332145
C	-2.4559113752	-0.2973845113	-0.0998662541	 0.21137
C	-3.6148658202	 0.0305482998	-0.1568259263	-0.390464
H	 0.6523051279	 1.9218500434	-0.8000879031	 0.145652
H	-0.9386987324	 2.0166209773	-0.0040266051	 0.132334
H	 0.5626265839	 1.9083292798	 0.9490140864	 0.145653
H	-1.2411944574	-2.7068524581	 0.8214343112	 0.128158
H	-1.1513179914	-2.6933332811	-0.92893072	 0.128158
H	 1.1472443837	-2.7416939377	 0.9453207419	 0.136617
H	 1.2372775757	-2.728163951	-0.8080599539	 0.136617
H	-4.6324481801	 0.3309875394	-0.2067434847	 0.201818
74.6456	93.3507	108.45	137.7547	236.0342	261.692	345.0199	439.2063	492.0529	573.0724	580.3631	605.9249	631.272	636.1409	642.2233	695.7518	836.5495	877.9005	999.2639	1004.5749	1048.356	1063.3233	1102.182	1154.2999	1155.4348	1230.4634	1264.2536	1315.3777	1338.9297	1412.5583	1453.0316	1474.2809	1475.5897	1487.942	1669.5403	1801.1234	2214.5524	3037.112	3043.9626	3065.835	3072.9198	3088.6403	3106.3419	3132.804	3500.0075
CC1=C(CCC1=O)C#C	CC1=C(CCC1=O)C#C	
InChI=1S/C8H8O/c1-3-7-4-5-8(9)6(7)2/h1H,4-5H2,2H3	InChI=1S/C8H8O/c1-3-7-4-5-8(9)6(7)2/h1H,4-5H2,2H3
