16
gdb 29346	1.9931	1.87915	0.97406	1.3214	81.73	-0.185	0.0184	0.2034	1165.3856	0.123201	-400.756886	-400.747896	-400.746952	-400.790237	33.602	
C	-0.0489940332	 1.493236328	 0.0231104191	-0.514445
C	 0.0018150423	 0.0005553539	 0.0111763968	 0.172474
C	-0.0043598951	-0.8249611163	-1.0581437002	-0.139255
O	 0.0547331947	-2.1491644197	-0.655788235	-0.176891
C	 0.0929811911	-2.1460333275	 0.6871810875	 0.289866
N	 0.2230020983	-3.3652402283	 1.3081607724	-0.605468
C	 0.0597687638	-0.8619234935	 1.1808639093	-0.010451
C	 0.0705653976	-0.5012049586	 2.5418538382	 0.19099
C	 0.0717702533	-0.2049252709	 3.712004912	-0.443526
H	 0.8345972904	 1.9154656406	 0.5144966192	 0.136905
H	-0.0982220491	 1.8950539701	-0.992351101	 0.122565
H	-0.9227190889	 1.8553906833	 0.5762233567	 0.1359
H	-0.044456391	-0.6691429097	-2.1222537563	 0.135143
H	-0.2380964666	-4.1275531391	 0.8304133886	 0.260335
H	-0.0007034686	-3.3302799268	 2.2930938842	 0.266772
H	 0.085715541	 0.0630167444	 4.7387659285	 0.179087
115.7049	119.3079	149.7632	203.2046	246.3227	277.9609	346.7183	391.1284	447.4848	504.6892	533.7922	566.5511	605.8284	643.8966	664.9184	672.8805	673.622	742.5363	783.8705	998.0384	1015.5565	1066.2183	1092.5142	1135.9283	1229.154	1278.6549	1339.1135	1419.493	1471.5463	1478.1994	1495.4367	1601.2227	1644.8979	1667.5011	2216.6459	3032.2955	3084.2747	3115.516	3289.3063	3504.3761	3553.8663	3659.154
CC1=COC(N)=C1C#C	Cc1coc(N)c1C#C	
InChI=1S/C7H7NO/c1-3-6-5(2)4-9-7(6)8/h1,4H,8H2,2H3	InChI=1S/C7H7NO/c1-3-6-5(2)4-9-7(6)8/h1,4H,8H2,2H3
