17
gdb 69176	2.18981	1.8782	1.25878	5.093	73.96	-0.2315	-0.0232	0.2083	1030.2076	0.135283	-417.943	-417.934794	-417.93385	-417.975612	31.144	
C	-0.0244756213	 1.5413361034	 0.0504616495	-0.519207
C	 0.0878231874	 0.0506522045	 0.0018030958	 0.236583
N	-0.8372030572	-0.8674877287	 0.6878183026	-0.365105
C	 0.6346371944	-0.9210973118	 1.0167113277	-0.27452
C	 1.2654779782	-1.7377106663	-0.1011891634	 0.432035
O	 2.0461293407	-2.6403423868	-0.1468471548	-0.307866
C	 0.6571965977	-0.7898680006	-1.1463993369	 0.207119
C	 0.1340684096	-1.0170644575	-2.5077612764	-0.29098
N	 1.4200430743	-0.3236109124	-2.3048220317	-0.365124
H	 0.9096878058	 2.0184689447	-0.2638882066	 0.137834
H	-0.8266964232	 1.9006622241	-0.6049453886	 0.136348
H	-0.2484515869	 1.8835339147	 1.0660048789	 0.131079
H	-1.2671118085	-0.3525229225	 1.4594060579	 0.233364
H	 0.9831868227	-0.7617365154	 2.0292673766	 0.114962
H	 0.2181475469	-2.0041068286	-2.9528023264	 0.139254
H	-0.7356764568	-0.4419838909	-2.815877927	 0.118658
H	 1.2967516263	 0.6814500301	-2.4148584373	 0.235566
97.8191	183.535	190.9468	209.3865	227.2932	278.3988	370.3076	456.6417	514.8506	596.1917	635.247	682.6654	749.6351	811.0996	819.0756	889.8269	934.3292	950.386	974.4305	988.5449	1003.3763	1027.7303	1066.0459	1106.9402	1120.4626	1123.9917	1224.8491	1255.5249	1279.8671	1321.8386	1391.797	1415.8807	1443.6281	1484.4252	1496.9355	1507.4413	1902.4466	3027.0436	3089.3105	3103.7052	3108.7984	3198.9907	3201.9845	3437.2054	3481.6982
CC12NC1C(=O)C21CN1	C[C@]12N[C@H]1C(=O)[C@]12CN1	
InChI=1S/C6H8N2O/c1-5-3(8-5)4(9)6(5)2-7-6/h3,7-8H,2H2,1H3	InChI=1S/C6H8N2O/c1-5-3(8-5)4(9)6(5)2-7-6/h3,7-8H,2H2,1H3/t3-,5-,6-/m0/s1
