14
gdb 129217	2.61478	1.83612	1.154	1.5747	77.46	-0.2383	-0.0881	0.1502	995.8308	0.103184	-429.013136	-429.005775	-429.004831	-429.04567	27.314	
N	-0.0527673648	 1.19043552	-0.6473226163	-0.476709
C	-0.0077336523	 0.0692243839	-0.0495520295	 0.35272
N	 1.120084128	-0.4099038715	 0.6402335276	-0.305957
N	 1.5114028873	-1.6905812435	 0.9097429688	-0.191335
C	 0.6806242137	-2.5792313831	 1.3344496005	 0.083716
N	-0.6426480143	-2.4729033341	 1.7149845683	-0.202605
C	-1.4608657309	-1.6331791455	 1.20905939	-0.058015
C	-1.2575117582	-0.760838031	 0.0230648203	 0.240372
N	-2.1305434709	-0.645739565	-0.8970325453	-0.424608
H	 0.8376194969	 1.6909830964	-0.6028662204	 0.21621
H	 1.9397480175	 0.1582775554	 0.4715838219	 0.26032
H	 1.1265572435	-3.5480273756	 1.5370367279	 0.13725
H	-2.4693045504	-1.60392098	 1.6311007599	 0.135444
H	-2.9564552051	-1.2123514864	-0.6778653638	 0.233199
52.7369	95.9816	285.6457	320.5115	364.6255	404.6682	442.4866	528.2069	620.29	649.5719	679.7941	740.4047	813.0222	842.4094	859.955	901.3927	939.2938	971.8289	1040.9519	1068.7758	1116.1967	1162.513	1286.2575	1381.7675	1403.2136	1415.4992	1485.0137	1612.9744	1680.6503	1696.4008	1706.9349	3092.385	3185.6272	3416.4342	3450.4089	3577.7567
N=C1NN=CN=CC1=N	[NH][C]1NN=CN=C[C]1[NH]	
InChI=1S/C4H5N5/c5-3-1-7-2-8-9-4(3)6/h1-2H,(H3,5,6,9)	InChI=1S/C4H5N5/c5-3-1-7-2-8-9-4(3)6/h1-2H,(H3,5,6,9)
