18
gdb 111929	4.06108	1.24883	1.14384	3.43	77.4	-0.2177	-0.0558	0.1619	1122.1924	0.145882	-401.813496	-401.805727	-401.804782	-401.8458	30.496	
C	-0.0440153922	 1.5936025447	 0.021115939	-0.382302
C	-0.0023235373	 0.0658366707	 0.0081895821	-0.158121
C	 0.7564985356	-0.5233004314	 1.194690592	 0.029151
N	-0.0800998607	-0.2515562698	 2.4363972779	-0.235044
C	-0.0214557651	-1.3729025427	 3.0155312181	 0.267376
O	-1.0979119782	-2.277777754	 2.9918271944	-0.266464
C	-0.1598082402	-2.9906407027	 2.0668287346	 0.071586
C	 0.8632736655	-2.0739822387	 1.2094594973	-0.10753
C	 1.059983975	-2.4397433178	 2.6418136165	-0.21414
H	 0.9654187335	 2.0189925415	-0.0162144136	 0.108066
H	-0.6004205946	 1.9794597555	-0.8382881856	 0.109779
H	-0.5277550183	 1.9497775918	 0.9342609675	 0.145188
H	-1.0187581981	-0.3424178761	 0.0118913873	 0.112769
H	 0.4882864157	-0.2968298859	-0.9063429286	 0.089658
H	 1.7669807612	-0.0860125132	 1.2402477083	 0.082315
H	-0.4694479168	-3.9894317104	 1.7844333709	 0.131515
H	 1.3770976694	-2.6011967358	 0.4075849077	 0.096725
H	 1.8817074856	-2.8476195458	 3.2137130043	 0.119473
91.3514	121.3444	194.3068	236.0486	355.3206	395.9821	483.2575	527.1957	602.5776	633.1685	704.1817	744.0771	771.5869	787.2595	820.1107	863.1403	871.383	926.6187	965.1529	980.0271	1017.5305	1030.2525	1048.9894	1088.6421	1098.4268	1133.332	1146.8349	1185.1587	1247.9469	1254.8561	1289.754	1316.6392	1351.3411	1381.9688	1405.5681	1469.9984	1494.4712	1508.5604	1627.8497	2970.0923	3012.4752	3034.5893	3071.25	3101.0493	3125.2966	3137.9788	3197.2512	3212.4167
CCC1N=C2OC3C1C23	CC[C@H]1[N][C]2O[C@H]3[C@@H]1[C@@H]23	
InChI=1S/C7H9NO/c1-2-3-4-5-6(4)9-7(5)8-3/h3-6H,2H2,1H3	InChI=1S/C7H9NO/c1-2-3-4-5-6(4)9-7(5)8-3/h3-6H,2H2,1H3/t3-,4+,5-,6+/m1/s1
