18
gdb 115120	3.02451	1.23448	0.91223	5.6274	73.26	-0.2322	-0.0619	0.1703	1265.8161	0.14807	-439.145286	-439.136445	-439.135501	-439.179414	32.183	
C	-0.0014195782	 1.6202878386	-0.2079963321	-0.393392
C	 0.0535026958	 0.099506787	-0.0347595356	-0.187604
C	-1.3235625038	-0.5464769494	 0.1694536652	-0.101105
C	-1.335545512	-2.0897793581	 0.063245637	-0.200946
N	-2.3276599329	-2.5112189644	 1.0428765784	-0.319944
C	-2.6991212369	-1.5739036646	 1.9631098067	 0.326208
O	-3.425456355	-1.7165929211	 2.9175978277	-0.351577
C	-1.9794627757	-0.2763055079	 1.5214546991	 0.29608
O	-1.9567811743	 0.7356865044	 2.1678474988	-0.286886
H	 1.0033841897	 2.028796699	-0.350303584	 0.114534
H	-0.5991202302	 1.8931041706	-1.0851382229	 0.11226
H	-0.448779803	 2.0947201962	 0.6674309275	 0.156702
H	 0.5197256487	-0.3576518903	-0.9170707073	 0.101164
H	 0.6943339856	-0.156698448	 0.8182710492	 0.10901
H	-2.0228222435	-0.1467765043	-0.5798013144	 0.1205
H	-1.6047826504	-2.4329114849	-0.9404827969	 0.122954
H	-0.3440097576	-2.4990648333	 0.3002973819	 0.120787
H	-2.6116317564	-3.4728349192	 1.1510158318	 0.261257
47.6995	112.4958	152.9875	183.7624	243.2633	276.4489	327.7569	366.3461	434.8613	545.2056	572.8688	609.0894	675.4129	730.5122	769.0754	835.1664	890.9892	976.6099	1007.9271	1027.1676	1071.653	1085.0604	1133.4792	1155.7908	1216.3895	1249.7772	1274.1095	1300.147	1325.5864	1359.7966	1372.2843	1413.228	1448.324	1487.9977	1496.9876	1514.9744	1533.1866	1843.0565	1856.0695	3004.1029	3010.0814	3020.8346	3037.8988	3055.8434	3069.8164	3102.672	3141.2587	3629.1948
CCC1CNC(=O)C1=O	CC[C@H]1CNC(=O)C1=O	
InChI=1S/C6H9NO2/c1-2-4-3-7-6(9)5(4)8/h4H,2-3H2,1H3,(H,7,9)	InChI=1S/C6H9NO2/c1-2-4-3-7-6(9)5(4)8/h4H,2-3H2,1H3,(H,7,9)/t4-/m0/s1
