25
gdb 102495	1.66809	1.36213	0.94315	1.8386	85.32	-0.2562	0.0704	0.3266	1423.2803	0.225182	-426.628469	-426.616581	-426.615637	-426.665325	43.986	
C	-0.2780308643	 1.2983102419	-0.5596559147	-0.391423
C	-0.2599812319	-0.169728195	-0.1189160289	-0.201974
C	 0.5794047626	-0.4222880051	 1.1563388244	 0.052828
C	-0.2399822398	-0.0311856249	 2.3909971961	-0.102799
O	 0.6164360612	 0.192404484	 3.5056499382	-0.419153
C	 1.166903572	-1.8634515932	 1.1926537959	 0.325996
C	 2.1232509189	-2.0739375397	 2.3740849035	-0.408674
C	 0.0811890842	-2.9524187447	 1.1850470876	-0.417819
O	 1.9263348225	-1.9516496898	-0.0268267438	-0.46765
H	 0.732321376	 1.6426133862	-0.8050584774	 0.120905
H	-0.9007051952	 1.4317030772	-1.4501571866	 0.109239
H	-0.6727935156	 1.9625763791	 0.2168659502	 0.111091
H	-1.2906773169	-0.5138002973	 0.0431218339	 0.084353
H	 0.149738095	-0.7771889581	-0.9283982816	 0.123668
H	 1.4476513441	 0.2484029918	 1.1264200014	 0.085242
H	-0.8021320392	 0.884877542	 2.1581982554	 0.088147
H	-0.984211141	-0.8121692698	 2.6137764931	 0.085254
H	 0.0714200107	 0.4669765001	 4.248855956	 0.284665
H	 1.6137443737	-1.9856295446	 3.3341942026	 0.126937
H	 2.5758538642	-3.0718865371	 2.3090884764	 0.084139
H	 2.9249418184	-1.3312337978	 2.3492455249	 0.119982
H	-0.5795701429	-2.8467864937	 0.321294248	 0.121449
H	 0.5486936122	-3.9425083796	 1.1313721425	 0.09972
H	-0.5267676938	-2.9329289952	 2.0947987541	 0.113969
H	 2.369024005	-2.8066493466	-0.0289269313	 0.271906
37.3074	91.8946	111.4868	193.7848	206.5855	235.1576	246.8042	261.8736	270.8434	285.6742	301.8989	310.9413	340.3708	381.2623	439.4407	473.4711	517.1003	537.9722	730.5602	778.9843	874.275	916.2062	922.3608	950.6921	977.3526	1008.989	1023.4559	1062.3114	1088.6301	1108.7241	1122.0647	1151.6525	1200.1995	1214.4454	1251.9719	1270.1262	1299.5071	1332.1296	1352.0524	1368.7265	1390.6003	1399.9436	1412.2885	1420.6803	1457.3584	1477.7228	1479.8757	1491.9586	1500.0079	1500.3936	1506.0318	1509.0057	1521.9399	2974.9626	3004.8653	3012.5986	3022.135	3030.1496	3034.5382	3035.5971	3087.4317	3094.3598	3100.5844	3103.6782	3113.6808	3125.0278	3147.6511	3811.4819	3827.6772
CCC(CO)C(C)(C)O	CC[C@@H](CO)C(C)(C)O	
InChI=1S/C7H16O2/c1-4-6(5-8)7(2,3)9/h6,8-9H,4-5H2,1-3H3	InChI=1S/C7H16O2/c1-4-6(5-8)7(2,3)9/h6,8-9H,4-5H2,1-3H3/t6-/m0/s1
