16
gdb 71186	2.6612	1.66774	1.36327	2.1485	73.77	-0.2305	0.0236	0.2542	974.1768	0.123079	-400.638607	-400.630855	-400.629911	-400.670583	30.441	
O	-0.0658654677	 1.4328701906	 0.0021585448	-0.475616
C	-0.0354633912	 0.0546022747	-0.008857499	 0.352162
C	 0.4881328667	-0.7694654397	-1.2190275526	-0.324676
C	-0.4891277944	-1.8406373606	-0.742288071	-0.02338
C	-1.3126799675	-0.8662424983	 0.0076102644	-0.109036
N	-0.5220308333	-1.8741445459	 0.7681050916	-0.150318
C	 0.4326142158	-0.7886051411	 1.2149853575	-0.192414
C	 1.8312118838	-1.130221366	 1.3853206134	 0.319252
C	 2.9997109206	-1.3877767207	 1.5113010553	-0.437298
H	 0.8199088443	 1.7638153754	-0.1864029157	 0.291518
H	 0.1467997453	-0.3254976156	-2.1575454457	 0.112777
H	 1.5564111858	-0.999759752	-1.2604064725	 0.111808
H	-0.7848327262	-2.7562715301	-1.236285251	 0.104572
H	-2.3727470605	-0.6932296081	 0.1299803678	 0.10725
H	 0.0196689986	-0.3691234466	 2.1373809028	 0.113741
H	 4.0270719899	-1.627710596	 1.6339989099	 0.199658
121.3796	149.3709	170.7922	299.2727	344.368	391.9628	405.0623	539.8146	570.2774	621.5999	645.9475	656.1168	738.4915	744.3227	826.1783	845.7006	901.0772	938.5518	960.3572	973.3622	1017.771	1020.1318	1052.083	1098.4039	1147.8644	1164.7665	1178.1628	1205.6208	1239.5195	1276.8443	1338.3816	1359.8712	1390.7593	1494.2788	2226.5647	3057.6321	3067.6442	3119.489	3205.3089	3220.9165	3501.5575	3797.9127
OC12CC3C1N3C2C#C	O[C@]12C[C@@H]3[C@H]1N3[C@H]2C#C	
InChI=1S/C7H7NO/c1-2-5-7(9)3-4-6(7)8(4)5/h1,4-6,9H,3H2	InChI=1S/C7H7NO/c1-2-5-7(9)3-4-6(7)8(4)5/h1,4-6,9H,3H2/t4-,5+,6-,7+,8?/m1/s1
