19
gdb 109075	3.49004	1.20207	1.14674	2.8564	76.05	-0.2286	0.0184	0.247	1144.0883	0.160963	-423.016281	-423.00849	-423.007546	-423.048768	30.397	
O	 0.0035819633	 1.4125394792	-0.0471574003	-0.411346
C	-0.0247346573	-0.0017863698	-0.016284757	-0.206909
C	-1.4344667011	-0.4721671448	 0.0846080959	 0.344368
C	-2.567008438	 0.2423797493	 0.1043475539	-0.179158
C	-3.701574318	-0.7672288604	 0.0595727625	 0.064273
C	-3.1200052139	-1.911511893	 0.9028647106	-0.221566
C	-1.8346960018	-1.9412750692	 0.0341546152	-0.162981
C	-2.508598534	-2.1360721386	-1.3596732653	-0.068751
O	-3.7101002526	-1.3644920523	-1.2756306368	-0.27895
H	 0.922053334	 1.6931564948	-0.08769377	 0.290612
H	 0.4397105733	-0.4355564633	-0.9207129471	 0.09736
H	 0.5516659794	-0.3983992961	 0.8393867495	 0.095611
H	-2.6614337837	 1.3161867241	 0.029537431	 0.112474
H	-4.7100593156	-0.4147884972	 0.2679062103	 0.072037
H	-2.9244464936	-1.6384718133	 1.940664075	 0.101782
H	-3.7165060041	-2.8269018062	 0.8492357336	 0.097932
H	-1.0662540236	-2.6770399716	 0.2750563293	 0.063095
H	-1.8807560242	-1.7765078484	-2.1839199942	 0.095073
H	-2.7601432285	-3.1892172633	-1.540418446	 0.095046
76.18	160.9544	185.6579	237.5937	293.3213	378.5955	472.7864	508.4567	547.2976	632.5149	754.8821	807.7963	819.8256	857.2445	872.13	877.2012	943.6722	956.2078	967.5095	988.978	1021.1113	1047.9856	1066.9719	1073.4882	1127.8142	1144.5014	1198.9797	1205.0831	1225.0785	1247.3807	1265.3356	1278.9608	1280.859	1298.4589	1340.2342	1364.412	1466.1471	1488.3754	1503.2201	1522.3252	1688.9536	2933.2999	2943.4384	3010.11	3050.0633	3063.0675	3108.9681	3132.4381	3141.2037	3238.9416	3838.5524
OCC1=CC2CC1CO2	OCC1=C[C@@H]2C[C@H]1CO2	
InChI=1S/C7H10O2/c8-3-5-1-7-2-6(5)4-9-7/h1,6-8H,2-4H2	InChI=1S/C7H10O2/c8-3-5-1-7-2-6(5)4-9-7/h1,6-8H,2-4H2/t6-,7+/m0/s1
