16
gdb 78342	2.84741	1.44016	1.08578	4.3298	71.9	-0.2325	-0.034	0.1985	1116.3476	0.122321	-437.813124	-437.805142	-437.804198	-437.845617	29.954	
C	-0.1679187672	 1.3075910665	-0.0252069977	-0.319485
N	 0.0998528083	-0.1251917177	 0.1139879113	-0.103341
C	 1.5328981011	-0.4689317632	-0.1327702267	-0.188287
C	 0.9372221489	-0.4663286258	 1.2613788459	-0.177845
C	 0.9938556206	-1.981119678	 1.3122243519	 0.369584
C	 1.377794185	-2.8776023973	 2.408126201	-0.266862
O	 0.0506633471	-2.8587477052	 1.87225466	-0.255593
C	 1.5838577298	-1.9882171543	-0.1161792054	 0.371139
O	 2.0368113668	-2.8338748557	-0.8269997404	-0.31197
H	 0.6534173923	 1.9545288387	 0.3235405598	 0.103848
H	-0.3624472493	 1.5300619377	-1.0778692229	 0.138622
H	-1.0674186787	 1.5461349794	 0.5497474937	 0.138323
H	 2.2027101203	 0.2425300925	-0.5969445633	 0.120291
H	 1.1349860067	 0.240565952	 2.0572535786	 0.11565
H	 1.9626285895	-3.7669940967	 2.1811204893	 0.140373
H	 1.484250539	-2.4766420829	 3.4150372149	 0.125552
116.933	151.0818	207.7708	236.5933	255.2476	266.2069	368.2781	431.1752	524.3265	645.9974	675.0563	771.595	797.0555	822.063	854.8011	888.3138	923.7043	966.9163	980.7229	1044.0225	1086.2145	1112.7784	1125.3291	1137.695	1162.801	1171.9699	1231.4974	1262.841	1312.9811	1435.8549	1451.4754	1492.675	1496.6986	1525.4827	1901.7107	2971.1542	3080.9727	3087.4621	3119.1282	3182.3276	3199.8227	3215.856
CN1C2C1C1(CO1)C2=O	CN1[C@H]2[C@@H]1[C@]1(CO1)C2=O	
InChI=1S/C6H7NO2/c1-7-3-4(7)6(2-9-6)5(3)8/h3-4H,2H2,1H3	InChI=1S/C6H7NO2/c1-7-3-4(7)6(2-9-6)5(3)8/h3-4H,2H2,1H3/t3-,4+,6+,7?/m0/s1
