16
gdb 119821	3.49684	1.0368	0.93104	2.5161	66.42	-0.2708	-0.0302	0.2406	1275.6858	0.123429	-475.057591	-475.049007	-475.048063	-475.092406	29.827	
C	-0.5592025348	 0.5483076417	 0.18519806	-0.237543
O	 0.2949836942	 0.346835396	 1.295356236	-0.218617
C	 1.4056844378	-0.4667953594	 1.0127195069	-0.164487
C	 1.0439716856	-1.9084257833	 0.7833569659	 0.383231
N	 1.3682394024	-2.6210556329	-0.217493155	-0.283779
C	 0.8122324384	-3.9439091702	 0.0439611475	-0.316308
C	 0.0978052106	-3.8236054944	 1.3855085386	 0.404165
O	-0.5145947121	-4.6063121137	 2.0376655178	-0.304198
O	 0.2966926349	-2.5012727216	 1.7815614426	-0.219103
H	-1.0188627368	-0.3884087531	-0.1607425597	 0.11497
H	-1.3483042836	 1.2268976192	 0.5147470535	 0.138719
H	-0.020729318	 1.0029377702	-0.6595838901	 0.114176
H	 1.9625910661	-0.127700811	 0.1281033966	 0.124515
H	 2.0606208896	-0.4034404721	 1.8886461768	 0.137711
H	 0.1123015346	-4.2485822716	-0.741252675	 0.162884
H	 1.595246801	-4.7084516838	 0.0905771775	 0.163664
28.7464	83.509	127.7264	172.081	217.7157	263.9359	367.4724	444.5064	508.3881	534.4824	612.5457	687.4698	780.453	851.9833	921.6108	946.8682	987.7237	1006.4444	1056.7673	1119.7856	1141.8627	1181.7591	1185.061	1220.7076	1256.812	1307.1101	1330.2662	1395.2649	1442.027	1467.5112	1482.6069	1488.6327	1505.3908	1727.3986	1924.8821	2987.3193	3016.3737	3039.5899	3056.9397	3080.924	3091.4979	3128.8958
COCC1=NCC(=O)O1	COCC1=NCC(=O)O1	
InChI=1S/C5H7NO3/c1-8-3-4-6-2-5(7)9-4/h2-3H2,1H3	InChI=1S/C5H7NO3/c1-8-3-4-6-2-5(7)9-4/h2-3H2,1H3
