24
gdb 100121	3.58733	0.86808	0.86024	2.023	86.44	-0.2298	0.061	0.2908	1525.282	0.214799	-405.521411	-405.510625	-405.50968	-405.55708	40.282	
C	 0.1217732606	 1.548683225	 0.1603401993	-0.390545
C	-0.0725550878	 0.0510486495	-0.0937319397	-0.199215
C	 0.6749605844	-0.49698937	-1.3301020928	 0.338873
C	 0.2265308305	 0.1802690463	-2.6264455808	-0.396797
O	 2.0775740121	-0.2167523447	-1.2185604586	-0.457461
C	 0.4511037669	-2.0233964288	-1.4009693599	-0.168589
N	 1.0738719361	-2.6292615989	-2.5667301825	-0.053776
C	 2.4399349208	-3.1072629311	-2.4174681278	-0.20064
C	 1.3066831744	-4.0680549701	-2.5126417446	-0.227739
H	 1.1853770636	 1.8016979702	 0.1717220167	 0.124786
H	-0.3577213728	 2.1566577022	-0.6121401043	 0.119939
H	-0.3116935028	 1.8370244848	 1.1227303887	 0.107567
H	 0.2734879389	-0.5109832308	 0.7866343294	 0.079413
H	-1.1409558343	-0.1776383523	-0.1933685817	 0.09551
H	 0.4858655065	 1.2410725948	-2.6126660559	 0.117958
H	 0.7165172013	-0.2921157645	-3.4787651855	 0.139644
H	-0.8561423983	 0.0848896842	-2.7549884566	 0.105109
H	 2.3855022458	-0.5887754894	-0.3845149728	 0.271687
H	 0.816541248	-2.475730339	-0.4567436423	 0.060135
H	-0.62598814	-2.2250034685	-1.4521394443	 0.100676
H	 3.0989337176	-2.934585376	-3.2630089795	 0.11785
H	 2.9161090314	-2.9973730426	-1.444892812	 0.096198
H	 1.0266856263	-4.5962033912	-1.6017204434	 0.104162
H	 1.112746921	-4.614172159	-3.4315335489	 0.115256
66.8985	86.834	116.1746	144.6858	188.6701	226.746	271.1026	303.6789	326.026	338.7796	356.1084	389.7056	433.2412	456.122	601.5225	763.5098	768.5317	786.7544	839.8776	897.2713	904.5015	949.288	952.0436	1004.7375	1025.4592	1032.6405	1065.9378	1072.4503	1113.5558	1117.9774	1134.5337	1166.0298	1180.9043	1189.8367	1217.3119	1280.9021	1298.9301	1330.5043	1369.5419	1384.6697	1386.5513	1405.5237	1427.7165	1474.4598	1482.5687	1487.6792	1493.397	1496.0673	1504.7611	1512.1844	1522.5733	2895.8015	2996.2586	3041.6183	3044.0957	3049.7615	3055.6749	3090.139	3101.0468	3108.3717	3121.1195	3124.9013	3148.4694	3174.8869	3191.0865	3795.2073
CCC(C)(O)CN1CC1	CC[C@@](C)(O)CN1CC1	
InChI=1S/C7H15NO/c1-3-7(2,9)6-8-4-5-8/h9H,3-6H2,1-2H3	InChI=1S/C7H15NO/c1-3-7(2,9)6-8-4-5-8/h9H,3-6H2,1-2H3/t7-/m1/s1
