13
gdb 56498	2.17828	1.42116	0.89315	4.8298	68.9	-0.3026	-0.0206	0.282	1198.7441	0.086473	-415.574551	-415.565237	-415.564293	-415.609168	32.274	
O	-0.0993566907	 1.4066082225	 0.0073071424	-0.393551
C	 0.00875149	 0.0097092457	-0.0147996617	 0.002478
C	 0.7063608688	-0.4621868168	-1.2253904396	 0.259775
N	 1.2889923862	-0.7769922099	-2.1717849023	-0.297868
C	 0.7282734005	-0.541043613	 1.2744051831	-0.371238
C	 0.0827844471	-0.0340136223	 2.4817758543	 0.330142
C	-0.4537545598	 0.3818230677	 3.4704548298	-0.39444
C	 0.7496054051	-2.0109795974	 1.257924397	 0.302812
N	 0.7508606685	-3.1650869263	 1.2278916216	-0.302218
H	 0.7663446272	 1.7966365978	-0.1636343232	 0.305307
H	-1.0136334784	-0.3786399822	-0.0171147318	 0.172544
H	 1.7699825869	-0.1933301423	 1.2385829473	 0.167165
H	-0.9269347114	 0.7492354566	 4.3483194932	 0.219091
54.3127	107.5812	127.9155	170.6869	199.4265	241.8883	324.5804	348.1415	360.9843	478.6592	487.3797	556.4394	575.6255	612.3319	664.0924	677.8961	908.9788	930.1908	1000.346	1055.9107	1105.1482	1213.9913	1284.4477	1314.6741	1338.8849	1422.1856	2253.8365	2360.9345	2369.3332	3021.6563	3090.6232	3499.8687	3798.3347
OC(C#N)C(C#C)C#N	O[C@@H](C#N)[C@@H](C#C)C#N	
InChI=1S/C6H4N2O/c1-2-5(3-7)6(9)4-8/h1,5-6,9H	InChI=1S/C6H4N2O/c1-2-5(3-7)6(9)4-8/h1,5-6,9H/t5-,6-/m0/s1
