18
gdb 105658	2.00973	1.42547	1.22999	6.1995	72.61	-0.2445	0.0104	0.2549	1142.6702	0.147815	-435.236979	-435.227419	-435.226474	-435.27144	34.579	
N	-0.1065681725	 1.4576733601	 0.213311443	-0.505194
C	 0.0505754195	 0.0190464014	 0.0543595775	-0.190092
C	 0.9754688507	-0.5013136993	 1.1526100263	 0.26929
O	 0.3846046786	-0.3054515242	 2.4642764674	-0.313653
C	 0.1800556596	-1.722552781	 2.6531612445	-0.096338
C	 0.9920815456	-2.0564351518	 1.375388904	-0.091618
N	 0.4729880822	-2.8888386128	 0.3229228359	-0.510852
C	 2.3064107924	 0.11437819	 1.0755117328	 0.283637
N	 3.3865606746	 0.5211474448	 1.0183037954	-0.345249
H	-0.702109993	 1.8348881869	-0.5151457461	 0.234466
H	-0.5545057972	 1.650692591	 1.103790534	 0.242253
H	-0.8902983481	-0.5548963604	 0.1115711743	 0.074415
H	 0.5019251886	-0.1978654915	-0.9190148866	 0.133976
H	 0.5822699177	-2.0694394155	 3.6107356028	 0.118647
H	-0.8825624766	-1.9956053876	 2.5874919586	 0.096756
H	 2.0036846068	-2.3874777023	 1.613615379	 0.120176
H	 0.7862014451	-3.8467085701	 0.4178461605	 0.244165
H	-0.540317944	-2.8934946777	 0.2996851567	 0.235217
73.6147	106.0872	153.7534	167.5561	192.5134	215.5072	267.8004	321.7004	372.231	413.1286	493.8308	552.2741	588.8983	649.6294	756.108	779.6102	840.2875	890.5379	940.3987	992.569	1012.7624	1033.7608	1067.6646	1122.7145	1126.8688	1156.5821	1194.0945	1205.8898	1265.5079	1271.097	1331.0313	1337.6587	1420.0511	1442.9452	1489.5621	1519.0679	1652.9133	1664.8226	2354.4409	2948.2831	3003.3931	3070.7296	3081.2479	3109.8823	3507.0944	3524.7865	3590.7858	3609.6842
NCC1(OCC1N)C#N	NC[C@]1(OC[C@H]1N)C#N	
InChI=1S/C5H9N3O/c6-2-5(3-7)4(8)1-9-5/h4H,1-2,6,8H2	InChI=1S/C5H9N3O/c6-2-5(3-7)4(8)1-9-5/h4H,1-2,6,8H2/t4-,5+/m1/s1
