15
gdb 25749	2.80708	1.55574	1.00778	2.6637	71.52	-0.214	-0.025	0.189	1108.8754	0.112508	-454.011294	-454.002948	-454.002004	-454.044607	30.359	
C	-0.0424191844	 1.5110816223	 0.0266278275	-0.478369
C	 0.0023302942	-0.0006966655	 0.0334447762	 0.306278
O	-0.0027760387	-0.648528372	 1.080523134	-0.377962
C	 0.043229408	-0.6892216954	-1.2388950541	 0.077822
C	 0.0631805883	-2.0636554165	-1.3797804103	 0.373685
N	 0.137343833	-3.0501899968	-0.4661230028	-0.594766
O	 0.0547244275	-2.3615689572	-2.695272421	-0.182266
C	 0.0335969502	-1.1235981774	-3.3215453543	 0.040282
N	 0.0293465967	-0.1256914772	-2.5201776224	-0.303252
H	 0.8293147871	 1.9149118505	-0.4982787003	 0.146026
H	-0.9236040498	 1.8632793049	-0.5193141868	 0.145559
H	-0.0660850149	 1.8773737031	 1.053394782	 0.132709
H	-0.0079995119	-2.7157489438	 0.4803978837	 0.290967
H	-0.1847221399	-3.9710062546	-0.7160226594	 0.269034
H	 0.0206313347	-1.1460458142	-4.3986744818	 0.154252
66.5375	113.7903	177.2453	185.193	302.8067	309.6543	351.2144	430.6771	513.6932	581.0046	604.4303	641.0631	661.8631	748.6119	763.7451	788.0359	926.5973	954.2289	1021.6913	1044.8245	1058.5032	1124.9491	1212.0782	1294.1072	1365.8429	1394.9538	1458.9899	1469.3841	1493.3712	1538.5531	1586.9347	1670.5537	1723.4003	3046.1109	3107.6165	3156.2275	3289.6079	3521.0842	3685.984
CC(=O)C1=C(N)OC=N1	CC(=O)c1c(N)ocn1	
InChI=1S/C5H6N2O2/c1-3(8)4-5(6)9-2-7-4/h2H,6H2,1H3	InChI=1S/C5H6N2O2/c1-3(8)4-5(6)9-2-7-4/h2H,6H2,1H3
