15
gdb 108711	3.60924	1.10558	0.85083	6.1881	72.88	-0.2282	-0.0731	0.1551	1270.3603	0.112173	-453.97816	-453.969276	-453.968332	-454.01492	30.952	
O	 0.0409901094	 1.392182837	 0.0082089752	-0.399789
C	-0.0118579586	-0.0135680265	 0.0020351601	-0.180281
C	-1.4409228123	-0.448553297	 0.0127265709	 0.364692
C	-2.5618602346	 0.3210640294	 0.0233267686	-0.349582
C	-3.7062944072	-0.5745762099	 0.0306339003	 0.335617
O	-4.9030531492	-0.3740351815	 0.040639214	-0.344785
C	-3.1008566757	-1.9968276169	 0.0230369081	 0.287735
N	-3.6863108742	-3.1183938432	 0.0261095389	-0.512763
N	-1.7258006271	-1.80425887	 0.0118274517	-0.389196
H	 0.9634011878	 1.6625884218	-0.0029862599	 0.30115
H	 0.4763426379	-0.4455032718	-0.8894020582	 0.119184
H	 0.492326864	-0.4538204477	 0.8804474329	 0.118974
H	-2.5820797102	 1.3974221464	 0.0257070106	 0.135172
H	-4.6955821656	-2.9398197638	 0.0349291724	 0.246977
H	-1.0525479444	-2.5512335963	 0.0068720544	 0.266892
3.3067	88.217	159.4061	179.3898	198.4	287.2091	294.6886	405.3488	451.5985	550.5483	606.8996	632.6766	668.2809	764.5695	772.4242	829.744	933.3809	986.5213	1034.3636	1057.2373	1109.4354	1151.1277	1163.4425	1226.4089	1251.1894	1298.7203	1369.1554	1432.5291	1486.4002	1503.5431	1634.9741	1759.9526	1801.6385	2947.7124	2966.148	3285.2122	3433.696	3668.9126	3843.7965
OCC1=CC(=O)C(=N)N1	OCC1=CC(=O)[C]([NH])N1	
InChI=1S/C5H6N2O2/c6-5-4(9)1-3(2-8)7-5/h1,8H,2H2,(H2,6,7,9)	InChI=1S/C5H6N2O2/c6-5-4(9)1-3(2-8)7-5/h1,8H,2H2,(H2,6,7,9)
