15
gdb 60772	4.46724	0.89461	0.74886	1.9723	67.87	-0.2783	-0.0397	0.2385	1418.6908	0.111161	-491.143581	-491.134299	-491.133355	-491.17856	31.228	
C	-0.0273001269	 1.4551702464	-0.1107488572	-0.351132
N	-0.0076854315	-0.0093785845	-0.0414630223	-0.205557
C	 0.000670952	-0.6369397695	 1.2099553484	 0.175353
O	-0.0073972998	-0.0344268621	 2.2527259206	-0.304492
C	 0.0030785788	-0.8089049353	-1.1716586876	 0.565985
O	 0.0192114962	-2.0131442354	-1.1803234201	-0.38455
O	-0.0074763847	-0.0185532858	-2.2863650845	-0.222643
C	 0.0010479949	-0.649945806	-3.5111738111	 0.122478
N	-0.0084650462	 0.0758176313	-4.5353084668	-0.418401
H	 0.8557932534	 1.8270052503	-0.6330111985	 0.153556
H	-0.9198175707	 1.8031964943	-0.6333915381	 0.153562
H	-0.0323062617	 1.813021984	 0.917672738	 0.173383
H	 0.0153676222	-1.7307693452	 1.116842597	 0.142263
H	 0.0159648608	-1.7358558613	-3.4243066274	 0.154354
H	-0.0002171566	-0.5052172913	-5.3721895305	 0.245841
60.7524	108.6575	122.688	139.3469	151.1132	199.7082	312.3903	318.6748	344.4567	414.3321	503.5307	613.1006	776.6948	786.4027	850.6845	885.9586	979.5967	1052.5994	1068.882	1080.8395	1158.1985	1170.2059	1256.3926	1305.5515	1342.0318	1385.4156	1425.1694	1457.8258	1499.9403	1506.7574	1752.0519	1810.2554	1836.7886	3065.6811	3070.5822	3141.6231	3148.6436	3177.0019	3513.3715
CN(C=O)C(=O)OC=N	CN(C=O)C(=O)O[CH][NH]	
InChI=1S/C4H6N2O3/c1-6(3-7)4(8)9-2-5/h2-3,5H,1H3	InChI=1S/C4H6N2O3/c1-6(3-7)4(8)9-2-5/h2-3,5H,1H3
