15
gdb 20617	3.43172	1.98599	1.27404	0.6835	64.51	-0.1976	0.033	0.2306	916.8939	0.119703	-395.999516	-395.991126	-395.990182	-396.032314	29.896	
C	-0.0307631593	 1.5189562037	 0.1286180381	-0.511383
C	 0.0108233925	 0.0373696285	-0.0290593268	 0.295536
C	 0.0195621659	-0.752446747	-1.1598381155	 0.148678
O	-0.0088658962	-0.3261304909	-2.4560959963	-0.460401
C	 0.0709968895	-2.0878980368	-0.6995250672	 0.229405
N	 0.1667953947	-3.2163514839	-1.5397666195	-0.610317
N	 0.0998321947	-2.1427086296	 0.6277244369	-0.294744
N	 0.0623904076	-0.8461626749	 1.0107304544	-0.27121
H	 0.7408809183	 1.8763730515	 0.8199794562	 0.128212
H	 0.1418095585	 1.9892728988	-0.8421781124	 0.153355
H	-0.999860933	 1.8720126524	 0.5018827513	 0.134118
H	 0.3623419716	-1.0399725861	-2.9897715811	 0.297167
H	-0.7218900294	-3.4288362643	-1.9843018684	 0.245471
H	 0.4419749312	-4.0284334152	-0.9974902491	 0.249654
H	 0.0871758534	-0.629813206	 1.9913750195	 0.266458
84.142	106.8143	160.0591	233.6225	256.6109	306.5801	328.9394	400.222	412.5837	529.2433	585.8667	657.6431	718.0774	736.6418	793.0803	870.9446	995.6549	1038.8668	1061.2461	1130.7519	1215.9251	1275.6555	1295.645	1317.6604	1415.7504	1462.4157	1484.4959	1490.9159	1524.4355	1564.8034	1637.7459	1687.2739	3023.7489	3073.3986	3126.2988	3491.8069	3582.2153	3686.7158	3779.2629
CC1=C(O)C(N)=NN1	Cc1c(O)c(N)n[nH]1	
InChI=1S/C4H7N3O/c1-2-3(8)4(5)7-6-2/h8H,1H3,(H3,5,6,7)	InChI=1S/C4H7N3O/c1-2-3(8)4(5)7-6-2/h8H,1H3,(H3,5,6,7)
