18
gdb 114578	2.60033	1.28234	1.01601	4.8089	78.42	-0.2645	0.0182	0.2827	1218.4074	0.147468	-401.927093	-401.91847	-401.917526	-401.960637	31.788	
C	 0.0920236928	 1.3274637326	 0.1249746144	-0.241188
O	-0.3004202669	 0.0159238198	-0.2250497659	-0.242587
C	 0.5022606819	-0.5592556903	-1.2143625189	 0.060025
C	 1.9040427751	-1.1432434247	-0.8047165372	-0.26782
C	 1.4271053526	-2.5314986917	-1.237684734	-0.102138
C	 0.2101485365	-2.924985595	-0.4690810449	-0.315516
C	 0.0382082201	-1.959985455	-1.6239582732	 0.214979
C	-0.7785117497	-2.2488782735	-2.7552930665	 0.174281
N	-1.4320706081	-2.468654091	-3.6855583821	-0.353573
H	 1.1080090585	 1.3546183071	 0.545806975	 0.110915
H	 0.0572277931	 2.0036491986	-0.7425296855	 0.113676
H	-0.6117618552	 1.6830718995	 0.8803045036	 0.135962
H	 0.5894643526	 0.1052707832	-2.0847363054	 0.089875
H	 2.7174235923	-0.7437963921	-1.4126174532	 0.115926
H	 2.1616918471	-1.049249189	 0.2541424104	 0.111667
H	 2.0018719512	-3.2472725491	-1.8103955587	 0.11778
H	-0.1710566028	-3.9219801936	-0.6588412486	 0.140622
H	 0.0461660988	-2.552451186	 0.5371808508	 0.137114
82.8522	127.8404	155.6564	168.3191	198.4513	290.5483	379.8659	412.8417	464.8253	528.3787	574.4197	631.7504	732.2719	824.8875	844.1979	869.0289	942.2021	990.6584	1021.6761	1033.3573	1044.9466	1091.9437	1101.375	1140.9741	1180.1297	1185.1665	1208.4627	1218.5106	1243.9322	1271.5958	1296.8363	1370.6033	1399.5053	1475.0377	1482.0571	1488.8337	1497.1293	1508.5798	2344.5472	2982.0636	3013.2309	3032.3195	3061.264	3124.3499	3124.7224	3133.772	3207.0257	3227.8389
COC1CC2CC12C#N	CO[C@H]1C[C@H]2C[C@@]12C#N	
InChI=1S/C7H9NO/c1-9-6-2-5-3-7(5,6)4-8/h5-6H,2-3H2,1H3	InChI=1S/C7H9NO/c1-9-6-2-5-3-7(5,6)4-8/h5-6H,2-3H2,1H3/t5-,6-,7-/m0/s1
