17
gdb 86837	2.70231	1.26555	1.06305	3.0884	72.62	-0.2581	-0.0359	0.2222	1168.7849	0.136239	-418.0441	-418.035521	-418.034577	-418.077777	31.475	
C	-0.1299353271	 1.567818006	-0.0226792611	-0.399324
C	 0.0534730218	 0.0560711484	 0.0229861106	-0.073038
N	 0.8235675703	-0.4767460649	-1.1074749461	-0.303492
C	 1.3915112522	-1.7698323106	-0.7041243163	-0.143593
C	 1.8440086302	-1.5015098875	 0.7451615253	-0.329713
C	 0.8743920085	-0.4181010037	 1.2291946075	 0.428885
O	 0.7758322653	-0.0051154293	 2.3522277283	-0.306223
C	 0.4145296249	-2.880593689	-0.7721919812	 0.259651
N	-0.3773005313	-3.7189512996	-0.858130564	-0.319428
H	 0.8331306042	 2.0638377237	-0.1702778921	 0.129101
H	-0.7984227162	 1.8601395525	-0.837609286	 0.118894
H	-0.5620899838	 1.9086769933	 0.9217617776	 0.144281
H	-0.9356035795	-0.4287038138	 0.1277002359	 0.110639
H	 0.2796588192	-0.5462320772	-1.9595746545	 0.240071
H	 2.2305781569	-2.0286616994	-1.3564924569	 0.134341
H	 1.830204352	-2.3758569685	 1.396424014	 0.156431
H	 2.8559077724	-1.0843905102	 0.749436199	 0.152516
66.4566	86.4292	187.1021	205.6658	241.8505	264.8886	382.2676	448.7014	451.1522	541.4229	587.8975	619.1161	714.2308	732.0577	800.7395	819.4524	921.3643	951.1552	978.4847	1032.3064	1081.1251	1098.8568	1141.6414	1170.2605	1194.5876	1217.8132	1284.773	1327.461	1348.0343	1360.5409	1402.0926	1439.9626	1445.5242	1491.0437	1498.3968	1862.7935	2343.6381	2927.8816	3046.4979	3065.4407	3074.8041	3119.6287	3132.4222	3141.3085	3552.6847
CC1NC(CC1=O)C#N	C[C@H]1N[C@@H](CC1=O)C#N	
InChI=1S/C6H8N2O/c1-4-6(9)2-5(3-7)8-4/h4-5,8H,2H2,1H3	InChI=1S/C6H8N2O/c1-4-6(9)2-5(3-7)8-4/h4-5,8H,2H2,1H3/t4-,5+/m1/s1
