19
gdb 38086	2.59027	2.31341	1.54912	0.136	83.04	-0.2253	0.0072	0.2324	901.7616	0.163633	-348.765126	-348.758876	-348.757932	-348.795376	27.056	
C	-0.0689023144	 1.5534070037	-0.0608671593	-0.250288
C	 1.5007932985	 1.5917843589	 0.011205563	-0.047637
C	 2.1229427533	 1.98469781	 1.3247484985	-0.079258
C	 2.3963182656	 0.9314271368	 2.0951016674	-0.072175
C	 1.9541616071	-0.3849500525	 1.4699812932	-0.116541
C	 0.655710414	-0.8997882484	 2.0766879287	-0.072175
C	-0.4022879351	-0.6719843249	 1.298034058	-0.079258
C	-0.0282849757	-0.0168909911	-0.0049707488	-0.047637
C	 1.5279073637	 0.0346942653	 0.0299659649	-0.05082
H	-0.5858446703	 2.0364024242	 0.7713588508	 0.098194
H	-0.4708041458	 1.9448537073	-0.9987340783	 0.095297
H	 1.9628549215	 2.085474933	-0.8483273728	 0.066844
H	 2.2996591492	 3.0186153312	 1.6038050244	 0.088915
H	 2.827708713	 0.9804237032	 3.0895959896	 0.089094
H	 2.7487859228	-1.1406403052	 1.5081662794	 0.069733
H	 0.6186869928	-1.343590337	 3.0662263231	 0.089094
H	-1.4286546071	-0.9037759281	 1.5643624852	 0.088915
H	-0.4892322404	-0.4942581304	-0.8742673496	 0.066844
H	 2.0716835372	-0.4741713059	-0.7660471073	 0.062858
180.9606	224.7421	346.8099	475.3552	512.2433	607.9017	642.8834	741.6862	744.5154	766.7558	783.6768	811.2563	846.2933	855.4394	883.0925	917.8173	943.5511	969.8409	979.1173	988.0738	1010.3636	1018.7326	1038.6264	1069.3745	1113.5522	1127.82	1137.2771	1184.3175	1210.0403	1240.2243	1259.4667	1274.0728	1281.3731	1293.0023	1305.7218	1326.1302	1356.9349	1377.587	1476.2701	1663.8958	1681.9941	3019.1192	3054.2035	3060.0625	3064.2181	3105.7029	3116.4678	3170.6663	3172.0643	3196.5439	3198.6592
C1C2C=CC3C=CC1C23	C1[C@H]2C=C[C@H]3C=C[C@@H]1[C@@H]23	
InChI=1S/C9H10/c1-3-7-5-8-4-2-6(1)9(7)8/h1-4,6-9H,5H2	InChI=1S/C9H10/c1-3-7-5-8-4-2-6(1)9(7)8/h1-4,6-9H,5H2/t6-,7+,8-,9+
