18
gdb 64714	3.77935	1.08492	1.01952	3.1625	75.03	-0.2682	0.0289	0.2971	1195.0666	0.146556	-401.927297	-401.918791	-401.917847	-401.960492	32.102	
C	 0.0125918664	 1.5987989668	 0.1733046092	-0.464815
C	 0.0147225857	 0.0811887658	 0.043045055	 0.295907
C	-1.3980454187	-0.4951273714	-0.1754441996	-0.409754
C	-1.9997472402	-0.0649280415	-1.4365183689	 0.275108
N	-2.4562993515	 0.2801122807	-2.4405572079	-0.311207
C	 1.068793821	-0.5484515248	-0.9543652148	-0.307548
C	 1.6915361335	-1.2856986912	 0.2355814519	 0.034745
O	 2.0966267484	-0.2871114667	 1.18316931	-0.247444
C	 0.7305531104	-0.6945469154	 1.1789390875	-0.015032
H	 1.0201647213	 1.9512878033	 0.4043446103	 0.141428
H	-0.3179095312	 2.0734312516	-0.7560587649	 0.140569
H	-0.658638968	 1.9261845321	 0.9758466498	 0.114316
H	-1.3662896494	-1.591500146	-0.1651701157	 0.148519
H	-2.0569693699	-0.1899747658	 0.6468571912	 0.150515
H	 0.6093835584	-1.2066292785	-1.6957853721	 0.119353
H	 1.734074806	 0.155724304	-1.4582030807	 0.121068
H	 2.2177145446	-2.2322856473	 0.2624454365	 0.111362
H	 0.3141846932	-1.0628464757	 2.1112205733	 0.102912
71.9209	122.0589	178.4502	241.0638	263.7174	317.8745	364.5182	401.8128	419.2178	460.1294	584.5721	686.0807	790.7575	836.4141	853.6063	861.7303	905.9444	932.3579	949.5281	967.4509	991.6529	1010.5706	1048.121	1117.8578	1148.7041	1153.2135	1223.9324	1230.0593	1257.7256	1273.4939	1306.8262	1338.9712	1384.6611	1414.3965	1463.2402	1476.3285	1491.4541	1505.1015	2360.7519	3030.6707	3033.5544	3068.61	3071.4011	3098.5866	3127.5469	3130.6125	3167.0087	3196.2475
CC1(CC#N)CC2OC12	C[C@@]1(CC#N)C[C@H]2O[C@@H]12	
InChI=1S/C7H9NO/c1-7(2-3-8)4-5-6(7)9-5/h5-6H,2,4H2,1H3	InChI=1S/C7H9NO/c1-7(2-3-8)4-5-6(7)9-5/h5-6H,2,4H2,1H3/t5-,6-,7-/m1/s1
