17
gdb 67313	3.17666	1.42867	1.19834	1.3709	78.22	-0.2344	0.0426	0.277	1059.0538	0.13391	-384.565059	-384.557175	-384.556231	-384.597227	30.948	
C	-0.050510162	 1.4808253098	 0.0198082787	-0.530767
C	-0.0561715316	-0.0178672276	 0.0004521474	 0.318311
C	 0.8339945993	-0.9789404946	-0.8583802761	 0.021626
O	 1.9512482269	-0.9656278525	 0.0774721342	-0.329641
C	 0.7601503227	-0.9908456291	 0.920874078	 0.044266
C	-0.0350994701	-1.9517854554	-0.0098092121	-0.091389
C	-1.2642151052	-1.0041443665	-0.0643570861	-0.272219
C	-2.1896034228	-1.0117116252	 1.0508414478	 0.299706
C	-2.9449453224	-1.0047127245	 1.9873007609	-0.44343
H	 0.9781209187	 1.8480133523	 0.0952919614	 0.13851
H	-0.496513376	 1.8928669583	-0.8916679177	 0.12341
H	-0.618443642	 1.8614543752	 0.8748437148	 0.134657
H	 1.0417881689	-0.9743936124	-1.9283337822	 0.096658
H	 0.8808803594	-0.9991778628	 2.0027619656	 0.104311
H	-0.0070582024	-3.040242107	-0.0125137729	 0.092596
H	-1.7980529483	-1.0049294571	-1.0212830148	 0.098131
H	-3.616455513	-1.0052480612	 2.8098553531	 0.195262
121.1133	121.8791	226.1134	241.337	291.6158	362.0266	437.5913	518.8166	595.9569	619.6062	641.3876	677.8456	754.6649	787.3827	815.2427	845.7489	857.5289	898.5625	923.4711	941.7553	999.9337	1038.3416	1085.5119	1092.6567	1131.0837	1153.2605	1155.0678	1172.6816	1201.7715	1251.68	1294.9236	1333.9588	1385.0224	1410.6933	1486.9628	1490.7019	2230.6538	3032.678	3043.5526	3100.4535	3108.4317	3119.6289	3132.0573	3144.7183	3503.5306
CC12C3OC1C3C2C#C	C[C@@]12[C@H]3O[C@@H]1[C@H]3[C@H]2C#C	
InChI=1S/C8H8O/c1-3-4-5-6-8(4,2)7(5)9-6/h1,4-7H,2H3	InChI=1S/C8H8O/c1-3-4-5-6-8(4,2)7(5)9-6/h1,4-7H,2H3/t4-,5-,6-,7+,8+/m1/s1
