17
gdb 37840	3.03398	2.3331	1.70855	1.577	77.31	-0.2053	-0.0399	0.1654	816.0286	0.13746	-384.531966	-384.526101	-384.525157	-384.561625	26.085	
C	-0.05584736	 1.5664658223	 0.0150796834	-0.373311
C	 1.4676410718	 1.8091680467	 0.0138597126	-0.115648
C	 2.1093186643	 0.7223881249	-0.5105291844	 0.047409
C	 2.6164695274	-0.3072255619	 0.4832190956	-0.283197
C	 1.1748348951	-0.942355513	 0.551044649	-0.069662
C	 0.7818178329	-1.4872311702	-0.8259996417	 0.017716
O	-0.6620152123	-1.1180605345	-0.6272827853	-0.376052
C	 0.1194695829	 0.040110299	-0.1978532684	 0.419996
C	 1.1129626772	-0.0657749642	-1.3559517532	-0.091235
H	-0.4817787642	 1.8970767185	 0.9682488039	 0.11563
H	-0.6694677202	 1.9870896281	-0.7912547542	 0.124311
H	 1.9059615073	 2.3893752233	 0.8198344783	 0.097086
H	 3.3622521571	-1.0254689375	 0.1261979406	 0.105548
H	 2.9352346759	 0.1175887755	 1.4378057386	 0.109541
H	 0.8558885512	-1.4822684153	 1.4428126185	 0.087913
H	 0.9524455739	-2.4709253368	-1.2630945272	 0.095576
H	 0.8044973895	 0.2607533849	-2.3453555759	 0.088378
307.5345	373.0815	407.2233	420.1631	511.6802	566.3891	627.7427	669.5998	718.3468	732.246	782.3503	822.233	869.4711	886.4243	909.084	913.7859	935.9247	959.2248	987.7653	989.7142	1029.9113	1054.9167	1087.681	1114.8186	1148.2296	1168.1932	1194.0114	1205.9671	1222.247	1233.2296	1246.9559	1255.3669	1317.7369	1338.0762	1480.9441	1496.0548	1528.594	3024.2761	3041.7876	3073.764	3110.8888	3116.4005	3129.0376	3158.8207	3170.1743
C1C=C2CC3C4OC13C24	C1[CH][C]2C[C@@H]3[C@H]4O[C@@]13[C@@H]24	
InChI=1S/C8H8O/c1-2-8-5-3-4(1)6(8)7(5)9-8/h1,5-7H,2-3H2	InChI=1S/C8H8O/c1-2-8-5-3-4(1)6(8)7(5)9-8/h1,5-7H,2-3H2/t5-,6+,7-,8+/m1/s1
