16
gdb 14283	3.65436	1.85834	1.76039	3.9197	63.63	-0.2288	0.0534	0.2822	817.0171	0.132637	-379.955651	-379.948463	-379.947519	-379.986924	27.445	
C	-0.0516523156	 1.5682953945	 0.017827361	-0.434698
C	 0.0411188891	 0.0613653825	 0.0447228661	-0.041955
C	 1.3288050928	-0.7104038626	-0.2162050785	-0.034627
N	 2.592193638	-0.058249212	-0.0354785446	-0.32895
C	 2.7226771935	 0.4691465621	 1.2467763347	 0.40652
O	 3.5652137505	 1.2481217844	 1.6307424817	-0.405954
N	 1.6843411476	-0.0778759497	 1.9964409187	-0.328955
C	 0.7114746337	-0.723742795	 1.1654679915	-0.034627
H	 0.8433998174	 2.0465350148	 0.42216036	 0.144411
H	-0.1854793139	 1.931219617	-1.0068506087	 0.122748
H	-0.9065678157	 1.915655215	 0.6077850366	 0.122747
H	-0.8319733139	-0.4535455914	-0.3503408891	 0.090895
H	 1.3231979942	-1.5837387934	-0.8587024799	 0.105835
H	 3.0679380231	 0.4220854987	-0.7815469167	 0.255389
H	 1.4425633495	 0.3870381536	 2.8561350776	 0.255387
H	 0.2354553297	-1.6072442886	 1.5758086496	 0.105834
123.2778	133.1347	203.6077	282.7093	403.5005	472.9921	474.5733	511.6184	618.2904	695.1339	738.2992	761.9517	789.3272	793.923	902.0083	963.5691	1011.5903	1011.8436	1063.0475	1091.5547	1127.8534	1145.9484	1152.3765	1227.2441	1257.1706	1367.0605	1372.5956	1386.5015	1399.0943	1426.3719	1435.9616	1495.0233	1502.7219	1848.4752	3037.4742	3093.3793	3121.6926	3137.6254	3161.7853	3171.625	3652.5635	3654.4127
CC1C2NC(=O)NC12	C[C@H]1[C@H]2NC(=O)N[C@@H]12	
InChI=1S/C5H8N2O/c1-2-3-4(2)7-5(8)6-3/h2-4H,1H3,(H2,6,7,8)	InChI=1S/C5H8N2O/c1-2-3-4(2)7-5(8)6-3/h2-4H,1H3,(H2,6,7,8)/t2-,3+,4-
