16
gdb 87304	2.22777	1.33199	0.96331	4.2528	75.69	-0.277	0.0016	0.2786	1240.8408	0.120814	-400.705384	-400.695873	-400.694929	-400.740195	33.833	
C	 0.1082527488	 1.5055136152	-0.1664807695	-0.432721
C	 0.0792201725	 0.0170022482	 0.0585176276	 0.037391
O	 1.3249486713	-0.6840143962	 0.1163431626	-0.260607
C	 0.5264531734	-0.6668111608	 1.2989603607	 0.214236
C	 1.0914278191	 0.0693869463	 2.5118638042	-0.441682
C	 2.1283108671	-0.6936514189	 3.1961287928	 0.309703
C	 2.9786569678	-1.3322601019	 3.7530796371	-0.420057
C	-0.1133553445	-1.9370799176	 1.6159489337	 0.275078
N	-0.6505348222	-2.9259369685	 1.878014493	-0.328657
H	 0.9018880342	 1.9975313961	 0.3977554217	 0.137028
H	 0.2773199134	 1.7075901988	-1.2288918849	 0.145914
H	-0.8537205467	 1.9492102263	 0.1095258573	 0.138723
H	-0.6845294081	-0.5123051982	-0.5132622519	 0.118224
H	 1.4936036166	 1.0305208074	 2.1814102949	 0.14718
H	 0.2664975137	 0.2851209333	 3.2027434767	 0.152289
H	 3.7296104336	-1.8992454796	 4.2455975241	 0.207959
48.2836	107.3551	139.7178	161.5023	171.1884	242.104	320.3738	327.6286	393.4317	429.2053	506.2086	566.5954	593.6522	633.59	662.1437	720.7647	797.8786	904.9701	927.0606	978.9464	1002.7104	1026.6995	1117.8706	1152.8732	1209.0875	1265.0637	1313.6519	1358.7677	1410.7014	1449.8341	1454.5526	1484.7699	1502.099	2248.529	2359.5405	3035.3813	3047.0084	3097.0836	3103.224	3110.1623	3143.5788	3505.2924
CC1OC1(CC#C)C#N	C[C@H]1O[C@]1(CC#C)C#N	
InChI=1S/C7H7NO/c1-3-4-7(5-8)6(2)9-7/h1,6H,4H2,2H3	InChI=1S/C7H7NO/c1-3-4-7(5-8)6(2)9-7/h1,6H,4H2,2H3/t6-,7-/m1/s1
