20
gdb 127096	3.95	1.05197	0.85148	2.3535	84.97	-0.1802	0.0306	0.2107	1390.4618	0.171259	-399.333808	-399.324121	-399.323177	-399.369349	34.346	
C	-0.1980732624	 1.4004303254	 0.0045269594	-0.332232
N	 0.2723015273	 0.0266039796	 0.0327661936	-0.160688
C	-0.0591361487	-0.711540933	 1.235057016	-0.327291
C	 0.1570296285	-0.6864552679	-1.1626752923	 0.251566
C	 0.0501493582	-2.0601153559	-1.3327438712	-0.155596
N	 0.0323826164	-2.2902555974	-2.677085248	 0.056798
C	-0.1282663883	-3.5605529348	-3.3470361797	-0.323075
N	 0.0959457533	-1.1588817509	-3.3907775234	-0.264908
C	 0.1727257084	-0.1816774105	-2.4880862281	-0.09612
H	 0.3080857253	 1.9559890628	-0.789321499	 0.131886
H	-1.2866368473	 1.4878529292	-0.1566839871	 0.105425
H	 0.0493145851	 1.8830847223	 0.9540821658	 0.118633
H	-1.114211999	-1.0376369857	 1.271648552	 0.101594
H	 0.5730985566	-1.6021620302	 1.3118404198	 0.125437
H	 0.1381908298	-0.0868270278	 2.1102182033	 0.118932
H	-0.0094949706	-2.8696094576	-0.6250373959	 0.119036
H	-1.1566956583	-3.9312905453	-3.265723529	 0.134899
H	 0.1141406159	-3.409773277	-4.3987244347	 0.158913
H	 0.5505594004	-4.3047367456	-2.9202560256	 0.134386
H	 0.2429077295	 0.8426307104	-2.8193127756	 0.102403
41.2622	51.0525	130.1609	178.2846	196.2942	210.4486	243.54	353.6854	377.9954	395.8036	511.9614	586.2642	634.6062	668.8057	726.6418	740.316	831.651	946.5214	1008.9373	1030.9035	1076.4469	1079.1198	1128.0932	1147.8585	1169.7876	1182.8291	1210.9219	1271.486	1293.741	1378.8814	1409.7731	1422.7593	1440.1203	1446.5042	1469.1388	1480.7555	1484.9015	1487.8914	1497.083	1501.8404	1514.485	1518.1972	1631.2278	2942.7819	2956.0491	3030.1021	3060.8013	3073.9617	3092.7684	3108.4374	3115.199	3159.6596	3254.0784	3271.3752
CN(C)C1=CN(C)N=C1	CN(C)c1cn(C)nc1	
InChI=1S/C6H11N3/c1-8(2)6-4-7-9(3)5-6/h4-5H,1-3H3	InChI=1S/C6H11N3/c1-8(2)6-4-7-9(3)5-6/h4-5H,1-3H3
