21
gdb 41203	2.71278	1.73218	1.54808	1.8861	82.29	-0.2354	0.0568	0.2922	982.2554	0.18555	-386.984475	-386.977459	-386.976515	-387.015367	30.048	
C	 0.0638101818	 1.6074407658	-0.1230878802	-0.204762
O	 1.535717658	 1.4446967465	 0.0032836654	-0.335628
C	 1.1792512244	 0.2796523621	 0.8552052464	 0.162657
C	 1.2552469125	-1.2669819898	 1.1560114405	-0.095501
C	-0.3523904743	-1.0786917945	 1.1421846708	-0.323222
C	-0.071094622	 0.0624318739	 0.0930822003	 0.24912
C	 0.1546356652	-0.6507890492	-1.2770574609	-0.222778
C	 1.4662038846	-1.4496468236	-1.3265736535	-0.190591
C	 1.7249193324	-2.1599904565	 0.0112282338	-0.204487
H	-0.3227765935	 2.2309603303	 0.6926865302	 0.101918
H	-0.2044584776	 2.0236685158	-1.097784073	 0.109263
H	 0.9687660744	 0.7284586348	 1.8376307588	 0.076112
H	 1.6972451403	-1.5494770243	 2.1145865094	 0.073819
H	-0.9291270772	-1.9395059078	 0.7925039733	 0.10157
H	-0.729258338	-0.743959321	 2.110106747	 0.109058
H	-0.7053189101	-1.3101923992	-1.4511650964	 0.091293
H	 0.150217824	 0.0805505065	-2.0894636402	 0.097566
H	 1.4683237907	-2.1570367188	-2.1621016308	 0.085883
H	 2.2809773905	-0.7402457788	-1.5018732328	 0.12183
H	 2.791375882	-2.3860552819	 0.1196062606	 0.099941
H	 1.196666842	-3.1205328503	 0.0629434413	 0.096939
182.1168	216.2845	284.354	378.4185	412.0155	415.3963	507.7698	517.1473	619.9576	730.0541	746.176	761.0638	818.8357	822.5695	861.0271	882.5028	901.2952	912.3532	954.7204	962.7925	1027.6111	1043.6882	1049.3725	1076.4703	1106.2235	1121.2214	1133.8384	1170.5413	1191.763	1223.3144	1230.9042	1258.5958	1262.0832	1288.3336	1309.7335	1326.0108	1360.9933	1372.9044	1386.9252	1460.3607	1477.7089	1491.0188	1492.705	1506.7923	1511.2757	2968.4577	3020.4869	3022.4584	3023.6011	3044.1516	3056.798	3061.8022	3079.0862	3079.4106	3093.6459	3101.5547	3128.3918
C1OC2C3CC12CCC3	C1O[C@@H]2[C@H]3C[C@@]12CCC3	
InChI=1S/C8H12O/c1-2-6-4-8(3-1)5-9-7(6)8/h6-7H,1-5H2	InChI=1S/C8H12O/c1-2-6-4-8(3-1)5-9-7(6)8/h6-7H,1-5H2/t6-,7-,8+/m1/s1
