20
gdb 89231	2.98132	1.62041	1.27839	1.5198	78.62	-0.2239	0.0697	0.2936	1042.7957	0.172132	-403.087237	-403.079407	-403.078463	-403.119159	31.654	
C	-0.0114988117	 1.497420591	-0.0109659119	-0.499655
C	 0.092484393	-0.0090329954	 0.031219632	 0.376213
C	 0.4661671365	-0.6910137714	-1.2860737488	-0.315347
C	 0.3542341137	-2.173946635	-0.8607062096	 0.093313
O	 1.583430136	-2.8843981036	-0.845957625	-0.444904
C	-0.0899068138	-1.9629265406	 0.5741281115	 0.029917
C	 0.6974245316	-0.8029158222	 1.2335159655	-0.10511
C	-0.6078402434	-0.5113458871	 1.9835949924	-0.190504
N	-1.1320782359	-0.8221500867	 0.5754829238	-0.203669
H	 0.9405670592	 1.9271581032	-0.3413088226	 0.120719
H	-0.7805168661	 1.8009323712	-0.7293713236	 0.128448
H	-0.259414237	 1.9435844872	 0.9545918221	 0.121124
H	-0.2302343401	-0.417493766	-2.0850108194	 0.102061
H	 1.4836741702	-0.4440993179	-1.6052001261	 0.097324
H	-0.4064978842	-2.7163096093	-1.4384379068	 0.072775
H	 1.8543100573	-3.031901066	-1.7571494076	 0.284368
H	-0.3656605555	-2.8403660147	 1.1605238527	 0.073396
H	 1.7297561737	-0.8030583261	 1.5998931576	 0.064469
H	-0.9365475823	-1.238358823	 2.7316068215	 0.097987
H	-0.8153249811	 0.5033900225	 2.3279396022	 0.097076
113.9221	173.9582	236.9587	268.3462	319.9426	358.8646	403.8755	476.9848	512.2854	622.879	677.5664	723.1868	730.3858	811.7981	850.3615	889.7328	910.8258	923.6401	942.3688	983.6323	1029.901	1046.1948	1064.9374	1085.4298	1117.0765	1128.2808	1142.1579	1179.0667	1202.9609	1212.8329	1221.378	1239.2407	1249.4604	1276.3726	1317.3179	1342.7273	1361.4948	1413.5584	1430.1877	1472.4917	1488.2922	1492.5476	1542.9974	3008.9471	3036.4779	3041.2929	3048.4049	3062.8401	3095.0042	3098.8773	3112.9314	3116.0456	3125.1072	3822.8972
CC12CC(O)C3C1CN23	C[C@@]12C[C@@H](O)[C@H]3[C@@H]1CN23	
InChI=1S/C7H11NO/c1-7-2-5(9)6-4(7)3-8(6)7/h4-6,9H,2-3H2,1H3	InChI=1S/C7H11NO/c1-7-2-5(9)6-4(7)3-8(6)7/h4-6,9H,2-3H2,1H3/t4-,5+,6+,7+/m0/s1
