16
gdb 31349	3.59738	1.14533	0.92365	5.6736	74.08	-0.248	-0.0413	0.2068	1247.0743	0.124891	-437.943718	-437.935641	-437.934697	-437.977089	29.318	
C	 0.1303730159	 1.5656588377	-0.1014895406	-0.380242
C	-0.0430194033	 0.0436088893	 0.044822868	-0.279312
C	 0.5898172414	-0.4986177781	 1.286208461	 0.401225
C	-0.0197479558	-1.0768438321	 2.3337828533	-0.328599
C	 0.7445770183	-1.5499857052	 3.4903412443	 0.393837
O	 0.2492803269	-2.0781379895	 4.4595519266	-0.339424
N	 2.1551678456	-1.3457875313	 3.4084075568	-0.300888
C	 2.6287120968	-0.789171947	 2.3730962949	 0.122822
O	 1.9510468297	-0.3410031994	 1.2843442227	-0.219637
H	 1.1885666115	 1.8381205902	-0.1220729478	 0.137215
H	-0.3290923338	 1.9104802271	-1.0314522825	 0.127941
H	-0.3427648527	 2.094810641	 0.7308173918	 0.132073
H	-1.1035511887	-0.2218028835	 0.0601763394	 0.127002
H	 0.4056568269	-0.4596257775	-0.8208210471	 0.130995
H	-1.0947417138	-1.2049367293	 2.3409539858	 0.12474
H	 3.6926662551	-0.6051926524	 2.2467243235	 0.150255
58.6781	126.1802	129.1586	203.7196	283.5358	332.604	440.004	475.9791	526.1877	577.9361	673.9046	778.7278	787.3942	791.4252	867.0554	898.29	936.3673	974.8364	975.7805	1066.2435	1083.9332	1111.8385	1181.086	1239.9539	1280.9726	1354.1097	1366.4679	1409.4273	1417.0625	1473.5627	1497.1708	1507.722	1642.0626	1720.5742	1799.7314	3036.2757	3048.9188	3096.1579	3122.7588	3130.7382	3178.3672	3217.8868
CCC1=CC(=O)N=CO1	CCc1cc(=O)nco1	
InChI=1S/C6H7NO2/c1-2-5-3-6(8)7-4-9-5/h3-4H,2H2,1H3	InChI=1S/C6H7NO2/c1-2-5-3-6(8)7-4-9-5/h3-4H,2H2,1H3
