18
gdb 103247	3.227	1.36551	1.12234	2.0989	71.01	-0.2105	0.0629	0.2734	1096.3347	0.146982	-438.971098	-438.962972	-438.962028	-439.003907	32.249	
O	-0.0086249783	 1.5020784561	 0.301999534	-0.433086
C	 0.0798973839	 0.1779042539	-0.2415366024	-0.149592
C	-1.294866951	-0.5330104961	-0.166667114	 0.362612
O	-2.2247119952	 0.224343364	 0.5664010935	-0.473403
C	-1.9896023293	-1.3053794765	-1.275475209	-0.134595
C	-1.0989452865	-2.3233546805	-2.029014611	-0.067826
N	 0.3013189604	-2.2129462507	-1.5275908914	-0.345308
C	-0.7201089491	-2.9794871474	-0.7627591038	-0.069838
C	-1.5933376749	-1.9934851348	 0.0486075279	-0.119845
H	 0.0422269462	 1.4261596715	 1.2602434462	 0.289741
H	 0.3918052393	 0.2971829766	-1.2770883779	 0.133863
H	 0.8488746258	-0.4043772547	 0.2722138503	 0.113195
H	-1.9432989934	 1.1420423099	 0.4386521036	 0.283694
H	-2.9825843155	-1.0186870437	-1.5956901632	 0.094348
H	-1.305112082	-2.7406880696	-3.0063357414	 0.095853
H	 0.8560076874	-2.8934631265	-2.0472984574	 0.228613
H	-0.5687699546	-4.0245115586	-0.5247244884	 0.0955
H	-2.2473629234	-2.2964873128	 0.8563214745	 0.096072
48.9394	184.8409	219.6118	236.1883	351.4387	361.5301	393.1308	449.2221	477.4935	629.6523	640.2308	722.2877	729.8905	751.8683	777.8865	843.6773	884.1945	907.3471	919.9362	922.8566	991.3624	994.5952	1014.5245	1031.6279	1044.7536	1111.8597	1114.8094	1119.8022	1202.7353	1216.893	1236.7944	1254.5265	1305.1951	1329.3078	1362.672	1376.2926	1393.397	1471.3601	1477.3761	3071.8161	3154.1412	3184.3195	3194.6123	3198.4091	3207.4137	3463.3478	3720.356	3821.1249
OCC1(O)C2C3NC3C12	OC[C@@]1(O)[C@H]2[C@H]3N[C@H]3[C@@H]12	
InChI=1S/C6H9NO2/c8-1-6(9)2-3(6)5-4(2)7-5/h2-5,7-9H,1H2	InChI=1S/C6H9NO2/c8-1-6(9)2-3(6)5-4(2)7-5/h2-5,7-9H,1H2/t2-,3+,4-,5+,6-
