18
gdb 54589	2.71265	1.56653	1.18016	1.7034	72.27	-0.2312	-0.0282	0.203	1074.4767	0.146675	-439.052201	-439.043654	-439.042709	-439.085951	31.514	
C	 0.3885766829	 0.8768217873	-0.9012152678	-0.47931
C	-0.1875531427	 0.2882334197	 0.3661552968	 0.302305
O	 0.2630036758	 0.5166955217	 1.4685733998	-0.31209
C	-1.3647043374	-0.6472887948	 0.2193671499	 0.325181
C	-2.3822932157	-0.7402812493	 1.381653439	-0.21705
N	-2.3761407232	-2.2335607501	 1.3004853852	-0.321462
C	-1.2882911223	-2.2099495337	 0.3036852298	-0.098069
C	-1.8171441252	-2.1652462434	-1.1403847317	-0.076529
O	-1.9400869484	-0.7176122322	-1.0966750685	-0.338605
H	 1.2331781013	 1.5207466155	-0.6544039385	 0.136661
H	 0.7069360606	 0.0801124619	-1.582034673	 0.14126
H	-0.3824435651	 1.4400361841	-1.4367941634	 0.155968
H	-1.9533791387	-0.3362057868	 2.303232092	 0.128694
H	-3.3577310308	-0.287317379	 1.1823292109	 0.114103
H	-2.1024095572	-2.6701565362	 2.1723627836	 0.228432
H	-0.3889131567	-2.7861771631	 0.5235319152	 0.090681
H	-1.1012797963	-2.4737172633	-1.9126701136	 0.101873
H	-2.7798490712	-2.6620936583	-1.2926992858	 0.117957
50.7226	114.8891	136.4582	168.5101	239.3297	330.964	387.6205	413.1514	491.371	571.0336	614.8006	671.7964	747.0897	833.1441	859.1026	922.5822	937.6747	972.7987	997.1994	1002.0068	1043.9973	1052.4273	1086.7207	1107.8873	1125.3908	1154.8457	1177.9638	1193.2257	1276.9047	1303.4248	1335.5454	1346.8314	1383.9872	1397.9095	1451.2081	1465.0908	1490.295	1504.7351	1792.7026	3019.0453	3044.6393	3047.459	3091.4304	3105.0596	3106.6845	3108.1851	3157.5691	3549.687
CC(=O)C12CNC1CO2	CC(=O)[C@]12CN[C@H]1CO2	
InChI=1S/C6H9NO2/c1-4(8)6-3-7-5(6)2-9-6/h5,7H,2-3H2,1H3	InChI=1S/C6H9NO2/c1-4(8)6-3-7-5(6)2-9-6/h5,7H,2-3H2,1H3/t5-,6+/m0/s1
