21
gdb 122186	3.37244	0.84557	0.82441	1.4957	75.14	-0.2522	0.0639	0.3161	1499.3879	0.180534	-461.32622	-461.316262	-461.315317	-461.362227	35.879	
C	-0.0470342497	 1.6479650177	 0.0831654511	-0.456637
C	-0.0512186123	 0.1267075181	-0.0081896537	 0.367906
C	 1.1246489294	-0.4812817005	-0.8233125919	-0.116676
O	 1.7835479357	-0.9013177075	 0.387703655	-0.272356
C	 0.6202424139	-0.5905963387	 1.1810673608	-0.115526
O	-1.3293072721	-0.4181515594	-0.2626424246	-0.310136
C	-1.9408443254	-0.0700415806	-1.4972117227	-0.096446
C	-3.2500193429	-0.8433185223	-1.5532933409	-0.056229
O	-4.0978710351	-0.5005013676	-0.4759443637	-0.420393
H	 0.9393982824	 1.9968159237	 0.4019372361	 0.133067
H	-0.2685430664	 2.1163932714	-0.8804266827	 0.123401
H	-0.78911221	 1.9879034415	 0.8125778343	 0.126691
H	 0.8237635237	-1.3337847305	-1.4465866696	 0.098416
H	 1.7421774685	 0.2075244614	-1.4108015903	 0.101677
H	 0.8667793634	 0.0172534022	 2.0587110946	 0.102463
H	 0.0724384896	-1.4894402874	 1.4898494052	 0.104831
H	-2.1484661823	 1.0076066471	-1.5444559899	 0.103987
H	-1.2956358428	-0.3397733455	-2.3480698479	 0.09029
H	-3.784165815	-0.5974229776	-2.4769303671	 0.108676
H	-3.0279210497	-1.9222242975	-1.5659164507	 0.09351
H	-3.5593708629	-0.587584478	 0.3192622985	 0.289484
35.182	77.0116	88.4363	147.1475	191.9985	254.0709	285.6935	325.7415	371.8361	402.7616	439.5639	467.131	508.4352	692.7989	834.3064	860.951	902.047	908.3322	927.8861	973.9656	995.832	1009.6914	1033.2286	1078.5629	1108.2325	1135.2641	1156.0549	1167.0118	1191.1615	1228.9348	1245.1816	1262.9664	1276.4426	1304.9416	1377.9222	1387.5296	1404.5116	1410.9457	1439.449	1487.4918	1494.5193	1499.0469	1503.659	1507.9778	1527.2103	2978.8329	2984.3984	3007.1898	3022.3315	3034.257	3041.6248	3065.6309	3073.815	3080.0845	3111.7306	3117.0569	3799.0885
CC1(COC1)OCCO	CC1(COC1)OCCO	
InChI=1S/C6H12O3/c1-6(4-8-5-6)9-3-2-7/h7H,2-5H2,1H3	InChI=1S/C6H12O3/c1-6(4-8-5-6)9-3-2-7/h7H,2-5H2,1H3
