19
gdb 57966	3.68153	0.89688	0.8008	2.9253	73.06	-0.2653	0.0027	0.268	1475.5872	0.156759	-460.180712	-460.170939	-460.169995	-460.216852	34.979	
C	-0.0948047057	 1.5100808788	-0.2737502702	-0.393641
C	-0.0643292936	 0.0192497981	 0.0887523935	 0.043464
O	 0.577589648	-0.1851589486	 1.3224757446	-0.438505
C	-1.4716617308	-0.5637707886	 0.1563488483	 0.420315
O	-1.9406100798	-1.0238371303	 1.171113594	-0.377184
O	-2.1014115467	-0.513937692	-1.0258897458	-0.241884
C	-3.4301028871	-1.018025061	-1.0608945059	 0.14531
C	-4.5448234126	-0.0238607072	-1.1729033072	-0.279822
C	-4.130172782	-0.8611684835	-2.3684067603	-0.297302
H	 0.9274220742	 1.8958786	-0.279354937	 0.133112
H	-0.5394900551	 1.6652031182	-1.2599106746	 0.123457
H	-0.6674876405	 2.0707827517	 0.4712411005	 0.12494
H	 0.4721930519	-0.5248943788	-0.703835117	 0.101143
H	-0.084933297	-0.5920256933	 1.9006618452	 0.294348
H	-3.5594368336	-1.9090107982	-0.4602555142	 0.128368
H	-5.478119823	-0.2447483556	-0.6678539012	 0.127831
H	-4.2686423557	 1.024142363	-1.1861965926	 0.128553
H	-3.584054112	-0.3581882705	-3.1580854788	 0.131498
H	-4.776391309	-1.6648794823	-2.7017991415	 0.125999
29.185	59.7737	80.6045	144.0151	232.848	263.4827	320.4093	330.8909	378.9191	404.6922	446.7391	483.7934	657.6445	751.9636	759.8919	817.2951	837.3199	868.8514	933.5759	971.3736	998.063	1055.5794	1060.0529	1077.7176	1103.634	1117.3577	1161.7721	1176.9454	1192.1502	1233.5035	1256.3364	1295.5391	1358.0909	1390.0802	1399.4857	1444.5455	1456.6368	1491.2156	1498.1689	1501.797	1801.4283	2989.9811	3046.4913	3123.5645	3134.3963	3142.8251	3145.5091	3199.9651	3226.4062	3240.3161	3716.2749
CC(O)C(=O)OC1CC1	C[C@@H](O)C(=O)OC1CC1	
InChI=1S/C6H10O3/c1-4(7)6(8)9-5-2-3-5/h4-5,7H,2-3H2,1H3	InChI=1S/C6H10O3/c1-4(7)6(8)9-5-2-3-5/h4-5,7H,2-3H2,1H3/t4-/m1/s1
