22
gdb 118349	1.80631	1.30327	0.95529	2.602	79.99	-0.2134	-0.0222	0.1912	1378.8491	0.190222	-441.458993	-441.447809	-441.446865	-441.495919	38.672	
C	 1.3393115749	 1.1480210613	 0.9870557317	-0.226584
O	 1.0425112431	-0.0956062395	 0.3969089804	-0.229986
C	 0.6996042478	-1.0843294083	 1.3420045514	-0.068298
C	 0.2439285033	-2.355681312	 0.611952563	-0.102316
C	-1.0478154977	-2.1115693086	-0.1728266814	 0.163665
O	-1.880865712	-1.2967512602	 0.1228028781	-0.252053
N	 1.1955140039	-3.0782469894	-0.2180299095	-0.0614
C	 1.7484716697	-2.3475084589	-1.3535318239	-0.315032
C	 2.2159613158	-3.7962900213	 0.5235352064	-0.321478
H	 2.1961718622	 1.0789128497	 1.6760671915	 0.102168
H	 1.5896318731	 1.8412971537	 0.1806108747	 0.128354
H	 0.4786557656	 1.5458326442	 1.5460509901	 0.113307
H	 1.5559420288	-1.3078595528	 1.999584761	 0.08641
H	-0.1312725149	-0.7392760837	 1.9767491269	 0.106527
H	-0.0629108233	-3.0577404802	 1.4054245609	 0.107158
H	-1.1773808067	-2.8089234452	-1.03046015	 0.089064
H	 2.5083523736	-1.6031047367	-1.0730134128	 0.11157
H	 2.2013315598	-3.0645158284	-2.0477928786	 0.109821
H	 0.9534259081	-1.8159285503	-1.8833627897	 0.125029
H	 1.7510616533	-4.4161926638	 1.2974961101	 0.114907
H	 2.7592302213	-4.4595110051	-0.1582410953	 0.12072
H	 2.9629347203	-3.1433560445	 1.011374055	 0.098447
52.725	65.1811	105.8764	135.3715	155.4506	211.7998	219.1927	240.5935	256.7072	266.9915	315.3361	362.5395	388.3903	457.3972	562.7197	688.5569	794.752	877.8781	918.7349	988.7531	1051.7586	1076.12	1090.0379	1120.3903	1124.8157	1164.0788	1183.6394	1187.2395	1210.8917	1225.3348	1268.4528	1317.381	1327.8282	1363.1195	1394.6076	1414.0636	1449.1166	1472.487	1474.657	1475.2591	1485.0914	1492.7464	1495.075	1502.7664	1520.4678	1520.9909	1837.5822	2887.6156	2935.8313	2961.5309	2973.7304	2981.1576	2992.0161	3006.9198	3021.0937	3049.9275	3057.929	3094.4543	3108.0222	3116.5202
COCC(C=O)N(C)C	COC[C@@H](C=O)N(C)C	
InChI=1S/C6H13NO2/c1-7(2)6(4-8)5-9-3/h4,6H,5H2,1-3H3	InChI=1S/C6H13NO2/c1-7(2)6(4-8)5-9-3/h4,6H,5H2,1-3H3/t6-/m1/s1
