17
gdb 128474	2.93323	1.28657	0.9624	1.8823	69.87	-0.2608	-0.0293	0.2316	1212.7759	0.135232	-455.133838	-455.125054	-455.12411	-455.168476	30.799	
C	-0.6349744027	 1.0106605803	-0.5389187434	-0.241736
O	 0.3326137242	 0.1142955017	-0.022503416	-0.243861
C	 1.0458353208	-0.6343418273	-0.9957517979	 0.010894
C	 2.3972598054	-0.9999601261	-0.3947795044	-0.397201
C	 0.2440016768	-1.8457833042	-1.4123465498	 0.384238
N	 0.5701298391	-3.0676782416	-1.0839327825	-0.169432
O	-0.4502408618	-3.8470996499	-1.6448525722	-0.154984
C	-1.2740705868	-2.9929275839	-2.2499732028	 0.103128
N	-0.9187387343	-1.7527498079	-2.1595797643	-0.308874
H	-0.1799476939	 1.7262379231	-1.2410357231	 0.103946
H	-1.4521809204	 0.4920424652	-1.0527641713	 0.13562
H	-1.0352931636	 1.5613523937	 0.315797015	 0.12605
H	 1.1895810227	-0.0191587462	-1.8982290822	 0.088629
H	 2.9972303125	-1.5760928914	-1.103191513	 0.127122
H	 2.930351635	-0.0834217988	-0.132991809	 0.121301
H	 2.2617815725	-1.5980703844	 0.5089407779	 0.145829
H	-2.1361478054	-3.4095239721	-2.750201311	 0.16933
30.791	105.5881	144.7535	202.8725	209.8011	229.1043	296.3105	365.8936	430.6002	523.299	634.1442	668.6182	803.8686	862.0563	904.2244	909.8357	980.5591	989.7801	1040.619	1095.5473	1124.3183	1146.2938	1153.9457	1186.4246	1227.6554	1271.2417	1318.1039	1366.8929	1398.824	1413.0453	1477.0933	1480.8363	1487.3647	1495.5584	1513.7731	1516.1391	1595.2644	2980.6279	2988.0904	3058.6985	3067.3283	3119.8458	3137.2654	3141.2346	3266.0316
COC(C)C1=NOC=N1	CO[C@@H](C)c1nocn1	
InChI=1S/C5H8N2O2/c1-4(8-2)5-6-3-9-7-5/h3-4H,1-2H3	InChI=1S/C5H8N2O2/c1-4(8-2)5-6-3-9-7-5/h3-4H,1-2H3/t4-/m0/s1
