17
gdb 62769	3.61569	1.23704	1.19332	3.5644	67.72	-0.225	0.0509	0.2759	1074.9592	0.13629	-455.171478	-455.163078	-455.162134	-455.204043	32.399	
C	-0.0803370915	 1.5718148491	 0.0411443886	-0.475619
C	 0.0194610452	 0.0679651437	 0.0389118093	 0.33169
O	-1.1283971896	-0.6083810567	-0.404607989	-0.45235
C	 1.3182271276	-0.6891203684	-0.2492256763	-0.103852
N	 2.5842252782	-0.0501544037	-0.052155994	-0.332689
C	 2.7161401934	 0.4465657948	 1.2436450101	 0.408256
O	 3.5644045528	 1.2094944052	 1.6450678774	-0.403373
N	 1.6709881906	-0.1057627427	 1.9788949127	-0.33566
C	 0.6981083754	-0.7303018761	 1.13674756	-0.055016
H	 0.8112313237	 2.0493685409	 0.4525962939	 0.14713
H	-0.2163705201	 1.9495678676	-0.9797257394	 0.112746
H	-0.9446038136	 1.8873571027	 0.6340191372	 0.132371
H	-1.2183080424	-0.4557105274	-1.3525649974	 0.284517
H	 1.2831927558	-1.5514623862	-0.9066092214	 0.109466
H	 3.0671057728	 0.4438902432	-0.7845828294	 0.255765
H	 1.439082164	 0.3271384524	 2.8575582682	 0.257951
H	 0.1956806277	-1.6155608184	 1.5094198697	 0.118666
111.3111	153.781	180.8328	277.1625	284.8583	338.4321	388.4139	394.3547	467.4956	490.6515	510.0207	519.0523	693.8065	740.4282	757.8103	784.53	875.5156	881.6495	946.462	983.6199	1029.4647	1058.1692	1094.4818	1131.5913	1147.5516	1195.302	1245.607	1296.1265	1321.4694	1371.6225	1380.6081	1390.6802	1422.509	1437.731	1486.4258	1501.7487	1850.3589	3029.344	3092.0333	3131.6859	3160.878	3176.9695	3652.4613	3657.0339	3782.5624
CC1(O)C2NC(=O)NC12	C[C@@]1(O)[C@H]2NC(=O)N[C@@H]12	
InChI=1S/C5H8N2O2/c1-5(9)2-3(5)7-4(8)6-2/h2-3,9H,1H3,(H2,6,7,8)	InChI=1S/C5H8N2O2/c1-5(9)2-3(5)7-4(8)6-2/h2-3,9H,1H3,(H2,6,7,8)/t2-,3+,5+
