17
gdb 107453	2.88425	1.44795	1.27895	2.9532	66.98	-0.2566	0.0486	0.3052	1037.1699	0.135436	-458.917306	-458.909518	-458.908574	-458.949748	29.814	
O	 0.1645237253	 1.322736715	 0.528423736	-0.422343
C	-0.0023977341	 0.0665970012	-0.1154129061	-0.201395
C	-1.4454684768	-0.3267654534	 0.0344435933	 0.419603
O	-1.9120422315	-1.365315743	-0.8271108705	-0.287845
C	-2.5127238715	-0.0707346479	-0.952270434	-0.027659
C	-3.8506535077	 0.0936171724	-0.2377321785	-0.279055
C	-3.53642616	-0.1034696618	 1.2447067984	 0.038251
O	-3.0409991704	-1.3966297957	 1.5966409946	-0.239164
C	-2.0935414159	-0.3428975677	 1.4138755119	-0.037819
H	 1.1063301891	 1.5048739024	 0.5934445595	 0.294895
H	 0.247973581	 0.1095729942	-1.1853609511	 0.102446
H	 0.6327035578	-0.7069925571	 0.3440645914	 0.10207
H	-2.3348272377	 0.4287418472	-1.9026617164	 0.096875
H	-4.2333375347	 1.1073651773	-0.402537827	 0.111684
H	-4.6029028769	-0.6144680476	-0.5991282866	 0.129653
H	-4.1562787473	 0.3758152355	 1.9993514291	 0.09781
H	-1.5190861486	-0.041600551	 2.283674246	 0.101993
78.0486	146.5157	230.459	259.1055	282.472	341.2455	406.051	470.0695	579.9187	596.6589	720.0288	762.0512	810.7938	860.9625	885.5176	905.0093	932.7682	985.3137	998.1072	1021.2647	1050.5739	1073.8397	1091.1955	1121.7946	1187.3776	1207.0657	1225.4919	1248.4988	1279.3904	1291.794	1317.5994	1343.5436	1420.4695	1436.0092	1459.9294	1486.1046	1519.2334	2978.8718	3017.3564	3048.2367	3095.2704	3131.1872	3136.2063	3174.6054	3835.382
OCC12OC1CC1OC21	OC[C@]12O[C@H]1C[C@H]1O[C@@H]21	
InChI=1S/C6H8O3/c7-2-6-4(9-6)1-3-5(6)8-3/h3-5,7H,1-2H2	InChI=1S/C6H8O3/c7-2-6-4(9-6)1-3-5(6)8-3/h3-5,7H,1-2H2/t3-,4+,5-,6+/m1/s1
