16
gdb 126734	4.54419	1.05603	0.9288	7.4009	76.78	-0.2288	-0.0598	0.169	1253.2368	0.124457	-434.062139	-434.053988	-434.053044	-434.095858	29.592	
C	 0.006559545	 1.5683623214	-0.0410253866	-0.379182
C	-0.0067428717	 0.0418539569	 0.0316913757	-0.1485
N	-1.3589454251	-0.516153975	-0.0292013832	-0.012596
C	-2.0191434155	-0.7369415604	-1.2002507126	 0.076279
C	-3.2881902489	-1.196186337	-1.1867708268	-0.28278
C	-3.9336023713	-1.4355125382	 0.0900583218	 0.422535
O	-5.0673688812	-1.8351397527	 0.2438529862	-0.348519
N	-3.1237589896	-1.167453841	 1.256834616	-0.249102
N	-1.9394845829	-0.7391290295	 1.1816566369	-0.046704
H	 1.035426419	 1.9344613999	 0.0212509554	 0.133922
H	-0.4260037917	 1.9280191372	-0.9798161091	 0.128994
H	-0.563581772	 1.9952679089	 0.7883053066	 0.150745
H	 0.5727533732	-0.3980119366	-0.7859096056	 0.126897
H	 0.419632644	-0.3053017148	 0.974461898	 0.151634
H	-1.4589532864	-0.5283851853	-2.1057931783	 0.144676
H	-3.832123815	-1.3904537838	-2.1017499244	 0.131701
50.4097	65.7713	146.1599	222.49	351.6851	365.9951	423.1526	480.3177	494.6446	519.9784	653.6697	745.5066	771.292	783.6455	799.2054	856.563	943.5642	979.7348	982.3089	1037.5115	1101.0457	1155.3116	1204.3724	1253.7157	1273.612	1364.9994	1390.6663	1414.3389	1453.8498	1479.8078	1491.147	1502.6221	1518.6158	1664.9862	1794.5739	3045.0658	3062.6952	3111.4253	3126.327	3137.2908	3183.4754	3226.6984
CCN1C=CC(=O)N=N1	CCn1ccc(=O)nn1	
InChI=1S/C5H7N3O/c1-2-8-4-3-5(9)6-7-8/h3-4H,2H2,1H3	InChI=1S/C5H7N3O/c1-2-8-4-3-5(9)6-7-8/h3-4H,2H2,1H3
