15
gdb 124142	3.69457	0.96008	0.7662	3.8214	80.44	-0.2241	-0.0135	0.2106	1431.1989	0.112475	-416.786595	-416.777806	-416.776862	-416.821409	31.247	
C	-0.0929053453	 1.4503052166	 0.0116857899	-0.511269
C	-0.0282748992	-0.0027136276	 0.0074381899	 0.243579
C	 0.0427670566	-1.2078330676	-0.0030051935	-0.175713
C	 0.0664437169	-2.6172164424	-0.0111773763	 0.022626
C	 1.1137893638	-3.4899147891	 0.0369240129	-0.03413
O	 0.6914507919	-4.7525501094	 0.0149585715	-0.172257
N	-0.7146312571	-4.7673496504	-0.0456609045	-0.219134
C	-1.0710777332	-3.5033231489	-0.0690385755	 0.309808
N	-2.3813630784	-3.1071539484	-0.1930636921	-0.600508
H	 0.8788184705	 1.8857662391	-0.245724409	 0.155866
H	-0.823284873	 1.8180411992	-0.717593278	 0.15324
H	-0.3795431689	 1.8385142237	 0.9957151218	 0.150965
H	 2.1810153052	-3.3390763935	 0.0880746004	 0.153065
H	-3.0590793593	-3.81209283	 0.0580166353	 0.263397
H	-2.5800207806	-2.1975530712	 0.1965192472	 0.260466
28.2819	81.3898	108.3043	254.2083	260.9631	308.9872	354.8512	396.3856	467.0903	498.5686	552.9021	576.2293	594.4677	731.9044	758.3556	841.5387	904.9387	923.2608	985.9542	1051.5355	1052.3833	1131.6747	1179.9501	1264.5264	1322.7732	1413.186	1449.2741	1474.3068	1477.4857	1556.1887	1633.2853	1665.2051	2357.3633	3025.7183	3084.4948	3090.7912	3264.9714	3570.0411	3676.8776
CC#CC1=CON=C1N	CC#Cc1conc1N	
InChI=1S/C6H6N2O/c1-2-3-5-4-9-8-6(5)7/h4H,1H3,(H2,7,8)	InChI=1S/C6H6N2O/c1-2-3-5-4-9-8-6(5)7/h4H,1H3,(H2,7,8)
