18
gdb 73631	2.27672	2.09112	1.53061	1.0248	70.38	-0.254	0.0202	0.2742	938.9917	0.149604	-439.125891	-439.118477	-439.117533	-439.157615	29.103	
C	-0.2008324001	 1.5301319128	 0.1679977454	-0.443324
C	 0.0396999944	 0.0412568722	 0.0516173687	 0.463871
O	-1.1802872108	-0.6221515177	-0.076578317	-0.269669
C	-1.067402537	-1.9322026108	 0.4929835048	-0.10026
C	-0.1279164975	-1.7528523845	 1.6888059115	-0.224974
C	 0.8562633619	-0.6893548588	 1.1698766863	-0.084617
N	 2.0176933319	-1.279916548	 0.4890638135	-0.27311
C	 1.9007207003	-0.9539884951	-0.7323691862	 0.103527
O	 0.8629100058	-0.1943420466	-1.1399162228	-0.255591
H	 0.7489794621	 2.0686125011	 0.2053457605	 0.128754
H	-0.773752653	 1.8827189954	-0.6931672779	 0.141462
H	-0.7699115385	 1.7437637055	 1.0766500935	 0.126706
H	-2.0743852022	-2.258987808	 0.7602000772	 0.115007
H	-0.6547392686	-2.634388524	-0.2439471582	 0.11162
H	-0.6829118161	-1.3679061821	 2.5497323264	 0.108837
H	 0.3860959245	-2.6695788232	 1.9814522067	 0.123159
H	 1.1975407082	-0.0177373964	 1.9613734587	 0.090269
H	 2.5916403947	-1.2340434018	-1.5210517011	 0.138333
102.1804	195.7798	222.8062	267.7186	326.3968	363.7935	482.3822	562.9906	595.1691	629.7012	671.5357	811.6672	813.4645	869.4297	906.3694	924.073	938.191	969.8679	982.238	1024.0987	1060.1561	1094.4836	1115.3759	1162.5317	1195.537	1202.8388	1222.6498	1256.951	1299.9217	1326.6839	1338.4374	1343.5247	1387.7406	1414.1073	1480.472	1482.3195	1487.3112	1519.8657	1693.565	3017.5968	3052.8761	3060.1869	3080.1611	3110.1359	3130.619	3131.7573	3136.4059	3204.3031
CC12OCCC1N=CO2	C[C@]12OCC[C@H]1N=CO2	
InChI=1S/C6H9NO2/c1-6-5(2-3-8-6)7-4-9-6/h4-5H,2-3H2,1H3	InChI=1S/C6H9NO2/c1-6-5(2-3-8-6)7-4-9-6/h4-5H,2-3H2,1H3/t5-,6-/m1/s1
