15
gdb 7937	3.88872	1.80762	1.25346	1.012	64.91	-0.2414	0.0061	0.2475	924.2677	0.120524	-396.04595	-396.038249	-396.037305	-396.078393	27.322	
C	-0.0623577722	 1.3976460424	-0.067111956	-0.340089
N	-0.0164676621	-0.0426224395	-0.048699175	-0.116037
C	-1.1856075622	-0.8973899455	-0.033387107	-0.242942
C	-0.5922213761	-2.3018416009	-0.0168243874	 0.399568
N	-1.2912705536	-3.3600454132	 0.0001859975	-0.539447
N	 0.7776264262	-2.1096640642	-0.0247342237	-0.408844
C	 1.1542524793	-0.7553537895	-0.0435029892	 0.477101
O	 2.2884077375	-0.3353395095	-0.0528420095	-0.412736
H	 0.9665392254	 1.7608472068	-0.0748865408	 0.169346
H	-0.5805179085	 1.7692712814	-0.9600764114	 0.12623
H	-0.5751669781	 1.7920712776	 0.8191293577	 0.126226
H	-1.8119343195	-0.7342690759	 0.8527921346	 0.140991
H	-1.8178898246	-0.7577804438	-0.9193682862	 0.14098
H	-0.7102514794	-4.1994282598	 0.0091972042	 0.213156
H	 1.4719815178	-2.8379672964	-0.0167520378	 0.266496
83.6632	98.9332	167.1775	193.0704	283.2	371.049	468.7077	543.7161	554.1533	595.9866	693.672	757.362	824.1933	859.5486	899.6927	1025.2461	1047.8476	1103.8501	1155.2954	1178.0168	1200.9882	1269.2247	1314.9412	1352.0273	1381.5145	1439.4551	1458.6372	1491.1052	1501.8016	1537.3396	1771.7214	1852.7361	3012.3736	3021.7695	3050.5208	3060.7764	3145.7246	3467.2366	3669.7699
CN1CC(=N)NC1=O	CN1C[C]([NH])NC1=O	
InChI=1S/C4H7N3O/c1-7-2-3(5)6-4(7)8/h2H2,1H3,(H2,5,6,8)	InChI=1S/C4H7N3O/c1-7-2-3(5)6-4(7)8/h2H2,1H3,(H2,5,6,8)
