17
gdb 70507	2.73696	1.59548	1.1675	3.4438	76.61	-0.2364	-0.0674	0.169	1055.1806	0.135781	-421.836802	-421.829038	-421.828094	-421.868811	30.458	
O	-0.008159787	 1.4171024835	 0.0429323743	-0.474233
C	-0.0089653082	 0.030142896	 0.029548756	 0.335463
C	-0.4279617344	-0.7488102892	-1.1989463881	-0.340848
C	-1.2859771548	-0.7783244927	 0.0538866143	-0.109456
C	-1.0836811363	-1.9395419149	 1.0292913135	-0.276706
C	 0.354163091	-1.7956695799	 1.4681390666	-0.166386
C	 0.929357298	-0.7009371828	 0.9429487247	 0.178785
C	 2.289897325	-0.2356085716	 1.1887770519	 0.066424
O	 2.7478879991	 0.7789407064	 0.6957268019	-0.292605
H	 0.9186472542	 1.6818465573	-0.0506952603	 0.296676
H	-0.8182090727	-0.153231575	-2.017094136	 0.121735
H	 0.1291654077	-1.6337982254	-1.4926574111	 0.105946
H	-2.2467513416	-0.2803472619	 0.0139344943	 0.103063
H	-1.7577653668	-1.8796656898	 1.8945720336	 0.126529
H	-1.267559603	-2.9187605243	 0.5674755431	 0.124501
H	 0.8520039101	-2.5106662846	 2.1157606673	 0.114861
H	 2.9014628895	-0.862410401	 1.8715670938	 0.086251
109.6417	193.5769	212.7217	286.9998	299.8077	372.6881	416.7391	474.8403	479.5317	584.877	646.9024	692.8454	760.9351	814.8537	833.0613	850.2571	917.8218	939.448	968.2675	1016.0293	1035.0343	1040.3718	1074.0739	1078.1623	1166.5972	1187.4238	1215.6436	1262.3907	1318.9527	1330.321	1390.2248	1416.8569	1426.5858	1458.072	1483.9422	1669.9058	1757.2644	2909.8303	3016.8745	3044.1149	3119.078	3187.193	3191.2916	3217.1937	3731.8693
OC12CC1CC=C2C=O	O[C@]12C[C@H]1CC=C2C=O	
InChI=1S/C7H8O2/c8-4-6-2-1-5-3-7(5,6)9/h2,4-5,9H,1,3H2	InChI=1S/C7H8O2/c8-4-6-2-1-5-3-7(5,6)9/h2,4-5,9H,1,3H2/t5-,7-/m1/s1
