19
gdb 53009	4.10825	0.9129	0.84916	1.3692	86.22	-0.2157	0.0463	0.2619	1451.2974	0.158864	-385.856695	-385.847741	-385.846797	-385.891974	32.779	
C	-0.0500413736	 1.5122706598	-0.1339986627	-0.507211
C	-0.051782249	 0.0609431825	-0.03110807	 0.232472
C	-0.0495306845	-1.1399290823	 0.0621019287	-0.108585
C	-0.0449046831	-2.5682143035	 0.1536443585	 0.267908
C	-0.2597128924	-3.4407038312	-1.0722595335	-0.353663
C	-1.2825635284	-3.4381125415	 0.0431377383	-0.115252
C	-1.1381757262	-4.4805314271	 1.1366832239	-0.23765
C	 0.3614891443	-4.3967827413	 1.4978976081	-0.102514
O	 0.797138172	-3.0794976072	 1.1664464378	-0.295424
H	 0.6591062949	 1.9511270417	 0.5765751668	 0.153266
H	 0.2402919385	 1.8438650144	-1.137242541	 0.147145
H	-1.0382680866	 1.9328080575	 0.0838788589	 0.146429
H	-0.5276092606	-2.9302922821	-1.9898252821	 0.123932
H	 0.3855437738	-4.3027986774	-1.2057968074	 0.118207
H	-2.252558079	-2.9916887311	-0.1373327874	 0.101296
H	-1.7651172996	-4.2012586416	 1.9896601462	 0.111876
H	-1.4216164867	-5.4911625629	 0.8266720591	 0.106471
H	 0.5636187607	-4.5579900242	 2.5603285649	 0.112069
H	 0.9388292953	-5.1397589825	 0.9300727828	 0.099228
17.6805	91.6787	95.4596	218.2553	231.7429	307.642	344.629	385.4089	464.1901	525.5272	559.0982	661.0706	702.7357	796.7065	856.4584	878.8077	904.6414	928.7158	972.9767	987.7264	1030.4987	1050.2576	1055.2311	1057.5592	1091.4592	1098.4754	1132.4769	1207.5383	1219.8232	1238.7744	1294.0003	1334.6523	1381.3342	1403.9546	1416.0745	1473.7412	1475.6709	1479.3968	1494.1247	1529.527	2371.8038	3001.2873	3024.6524	3046.408	3080.9525	3083.242	3087.9786	3093.8156	3134.1659	3187.3659	3225.7654
CC#CC12CC1CCO2	CC#C[C@]12C[C@H]1CCO2	
InChI=1S/C8H10O/c1-2-4-8-6-7(8)3-5-9-8/h7H,3,5-6H2,1H3	InChI=1S/C8H10O/c1-2-4-8-6-7(8)3-5-9-8/h7H,3,5-6H2,1H3/t7-,8+/m1/s1
