23
gdb 68783	2.18691	1.50529	1.35915	1.5959	85.91	-0.2212	0.0789	0.3001	1159.3387	0.202435	-388.277532	-388.267361	-388.266417	-388.311408	39.307	
C	-0.1353511816	 1.4915200679	 0.075434101	-0.491136
C	 0.0176550538	 0.0052031924	 0.1004521687	 0.440956
C	 1.1952553963	-0.7930254093	-0.372794482	-0.405159
C	 0.6669886677	-0.9892076981	 1.04200397	 0.173039
C	 1.5274049997	-0.828040396	 2.2627638803	-0.499862
C	-0.6795391971	-1.740803942	 0.9711441783	 0.376199
C	-0.6997663359	-3.171342117	 0.4513492767	-0.44117
C	-1.5186642302	-1.5921499132	 2.2359019606	-0.427962
O	-1.1714767843	-0.7854842315	-0.0323481459	-0.375798
H	 0.8212529403	 1.9808463887	 0.281339478	 0.119618
H	-0.4784213109	 1.8262642472	-0.9103869089	 0.130937
H	-0.8669822722	 1.824875832	 0.8182472021	 0.123867
H	 1.0626663261	-1.5422933946	-1.1476130147	 0.107453
H	 2.1417174394	-0.2607935734	-0.4148467926	 0.104863
H	 2.2522941228	-0.0190399643	 2.1246743547	 0.118185
H	 0.9365149171	-0.5926483566	 3.1539512825	 0.119666
H	 2.0985516685	-1.7407586865	 2.4731515507	 0.120692
H	-0.3153307773	-3.8602163708	 1.2113110531	 0.113604
H	-1.7256650878	-3.4703310204	 0.2122959712	 0.122497
H	-0.0964057477	-3.2827776308	-0.4518864985	 0.118804
H	-1.5216337082	-0.5553363141	 2.5826195538	 0.118064
H	-2.5523869917	-1.8845965813	 2.0276420792	 0.121303
H	-1.1390181368	-2.2285221784	 3.0426815817	 0.111337
142.5685	169.3185	181.3495	183.0755	188.7459	217.1766	242.9777	280.4534	340.0648	370.7472	401.4051	454.9939	482.2868	516.74	591.1957	648.7658	709.0562	818.0857	848.678	881.4908	929.5183	943.5743	967.258	970.9034	990.196	1005.6651	1050.794	1103.5144	1111.0575	1142.3592	1171.0456	1209.7675	1242.1619	1284.6085	1320.1014	1389.9379	1402.9076	1410.9706	1414.2158	1433.5804	1471.1573	1473.4969	1478.9174	1488.1888	1494.1683	1494.3505	1502.5502	1502.9282	1515.713	3022.28	3030.6612	3033.4328	3039.846	3080.2935	3092.9779	3097.5489	3100.054	3107.9126	3111.8898	3113.8414	3117.9895	3126.097	3199.2897
CC12CC1(C)C(C)(C)O2	C[C@@]12C[C@]1(C)C(C)(C)O2	
InChI=1S/C8H14O/c1-6(2)7(3)5-8(7,4)9-6/h5H2,1-4H3	InChI=1S/C8H14O/c1-6(2)7(3)5-8(7,4)9-6/h5H2,1-4H3/t7-,8-/m1/s1
