14
gdb 126130	4.67594	1.00654	0.83671	2.8051	64.62	-0.2839	-0.0984	0.1855	1300.6312	0.098535	-469.964252	-469.955896	-469.954951	-469.998557	28.6	
C	-0.046987699	 1.5316063288	 0.0698306777	-0.387207
C	 0.0239047565	 0.0107007923	-0.0376670323	-0.287751
C	 0.7383474319	-0.4591187651	-1.2873385517	 0.319432
O	 1.2087687125	 0.2746893232	-2.12137883	-0.279899
C	 0.8518201631	-1.9439649319	-1.4699836481	 0.332619
N	 0.3886169942	-2.8422489709	-0.6445215912	-0.12554
O	 0.7042097386	-4.0220468532	-1.1864742343	-0.139699
N	 1.3962145179	-3.7824730765	-2.4065246808	 0.055115
N	 1.4729919574	-2.5463394184	-2.555357653	-0.17172
H	 0.9536636195	 1.9703478659	 0.0880197183	 0.137972
H	-0.5765045399	 1.9606603351	-0.7843642325	 0.137985
H	-0.5700539995	 1.8227376644	 0.9840947402	 0.120365
H	 0.5343238269	-0.4345357187	 0.8266679473	 0.144182
H	-0.9755279101	-0.4441920249	-0.0328172299	 0.144147
51.6385	60.0055	144.4294	170.5557	219.5893	279.1606	356.9881	494.2986	544.4248	562.4815	677.2057	718.3822	740.7284	824.2374	955.4752	978.8434	1023.0105	1048.2456	1093.1025	1097.59	1131.716	1275.8478	1303.8614	1380.2612	1416.4767	1443.7729	1492.0786	1496.8684	1500.8437	1555.8283	1809.7076	3030.8706	3055.8002	3057.0119	3129.7864	3130.6156
CCC(=O)C1=NON=N1	CCC(=O)c1nonn1	
InChI=1S/C4H5N3O2/c1-2-3(8)4-5-7-9-6-4/h2H2,1H3	InChI=1S/C4H5N3O2/c1-2-3(8)4-5-7-9-6-4/h2H2,1H3
