14
gdb 54649	4.05089	1.15696	0.90586	3.2603	65.68	-0.2507	-0.0598	0.191	1191.7753	0.101924	-470.063014	-470.055153	-470.054209	-470.095795	29.004	
N	-0.0564548436	 1.3029843951	 0.1726095987	-0.525109
C	 0.0416464939	-0.052314881	 0.0303814311	 0.27578
N	 1.1595233421	-0.6633346781	-0.0669112903	-0.510659
C	-1.2868176492	-0.7280898874	 0.0220703704	 0.400429
N	-2.420372297	-0.1500790772	 0.0132011751	-0.310539
C	-3.410362979	-1.2178165393	-0.0179992284	-0.319312
C	-2.6036748251	-2.5120415351	-0.0283770584	 0.405971
O	-2.9219702309	-3.6549561169	-0.0534651848	-0.296253
O	-1.2657421478	-2.1014867998	-0.0001084456	-0.237352
H	 0.7752808161	 1.8355677397	-0.0229085573	 0.265666
H	-0.9500284221	 1.7301964049	-0.0080235369	 0.273304
H	 1.0118733795	-1.6688881743	-0.1166105998	 0.239063
H	-4.0700072402	-1.1816445181	 0.8557472869	 0.170139
H	-4.0478420867	-1.1524822024	-0.9063213506	 0.168872
70.8849	132.5732	187.5593	223.0773	351.4865	395.3354	448.4141	462.544	516.5366	559.3564	591.0571	637.1131	718.4892	788.0369	853.916	865.1993	916.6659	985.9851	1043.234	1099.8403	1125.127	1162.4778	1184.191	1249.4764	1306.0068	1439.6644	1458.4913	1610.126	1697.0812	1729.8829	1933.6027	3056.0879	3090.9961	3524.5079	3598.2545	3726.1278
NC(=N)C1=NCC(=O)O1	NC(=N)C1=NCC(=O)O1	
InChI=1S/C4H5N3O2/c5-3(6)4-7-1-2(8)9-4/h1H2,(H3,5,6)	InChI=1S/C4H5N3O2/c5-3(6)4-7-1-2(8)9-4/h1H2,(H3,5,6)
