19
gdb 51081	3.82732	1.07181	1.02941	2.7147	80.28	-0.2324	-0.0209	0.2115	1218.2518	0.159116	-385.864656	-385.856706	-385.855762	-385.897976	30.773	
O	-0.5424927684	 0.9217497723	 0.9837234679	-0.240526
C	 0.0324655134	 1.0690907885	-0.0637404773	 0.165817
C	 1.3725111561	 1.7558751962	-0.224270943	-0.40449
C	 1.3353467669	 2.8764503675	-1.2522397421	 0.291613
C	 0.4472968552	 4.1644648877	-1.0763124909	-0.242247
C	 1.4200745797	 4.7043148794	-2.1771929987	-0.075411
C	 2.5302761003	 3.8811611675	-1.4366920656	-0.252089
C	 1.0946601527	 3.7448713079	-3.3306797532	-0.087676
C	 1.0389969407	 2.5529502046	-2.7326589894	-0.12448
H	-0.4120831548	 0.6932281873	-1.0145817836	 0.074297
H	 1.6870208477	 2.1239162816	 0.75664358	 0.118533
H	 2.0976136924	 0.9939784849	-0.5484907474	 0.119769
H	-0.6117487071	 4.0857683158	-1.3330917569	 0.098297
H	 0.5790423444	 4.6455598793	-0.1015858635	 0.098313
H	 1.5281586696	 5.7665433043	-2.3909644616	 0.065556
H	 2.8567735335	 4.3363353122	-0.4955269879	 0.094828
H	 3.3852788623	 3.5405861874	-2.0256712543	 0.094749
H	 0.9598536998	 4.0094656164	-4.3697137391	 0.103675
H	 0.8518475555	 1.572202469	-3.1475515835	 0.101472
49.4169	75.2265	158.8916	281.5922	343.6412	451.7252	465.1833	531.753	540.6308	644.6595	698.0784	723.7757	812.8818	837.5912	846.9321	879.9068	903.6493	909.614	939.8404	960.8764	1002.4325	1049.4056	1058.8986	1062.1083	1086.1599	1105.6779	1160.6141	1163.9409	1218.5292	1228.6653	1250.0174	1260.3007	1272.2719	1311.4782	1344.7422	1432.7983	1457.7009	1476.5084	1513.0595	1628.023	1833.5444	2861.9781	3004.6289	3039.3114	3050.9196	3092.7138	3113.3212	3118.7761	3128.4698	3216.2758	3244.7387
O=CCC12CC(C1)C=C2	O=CC[C@@]12C[C@@H](C1)C=C2	
InChI=1S/C8H10O/c9-4-3-8-2-1-7(5-8)6-8/h1-2,4,7H,3,5-6H2	InChI=1S/C8H10O/c9-4-3-8-2-1-7(5-8)6-8/h1-2,4,7H,3,5-6H2/t7-,8-
