21
gdb 40881	3.26314	1.4427	1.2968	1.9581	80.92	-0.2412	0.0701	0.3114	1064.1479	0.185259	-387.058156	-387.050729	-387.049785	-387.090114	29.937	
C	-0.0931220329	 1.5891242247	 0.1262427643	-0.234175
C	 1.4564562777	 1.4621857763	 0.0473636323	-0.088724
C	 1.7856153129	 0.7087585433	 1.3509428976	-0.217846
C	 0.6548874876	-0.3756251786	 1.3030631092	-0.217847
C	-0.0262997386	 0.0402495103	-0.0153995845	-0.08872
C	 1.1917077354	 0.2965247343	-0.9428572869	 0.368852
C	 0.9977326445	 0.56519036	-2.4475292049	-0.165307
O	 1.9750727076	-0.4389598262	-2.787817969	-0.277132
C	 2.2168528435	-0.7522874425	-1.4003732281	-0.17549
H	-0.5286480881	 2.0029119221	 1.0408003705	 0.088397
H	-0.5253376272	 2.0784889108	-0.7494463038	 0.101894
H	 2.0946464059	 2.303968203	-0.2262781212	 0.060811
H	 2.7883666642	 0.271733102	 1.340119264	 0.098444
H	 1.7148503285	 1.3555961212	 2.2299705829	 0.097966
H	 1.050630883	-1.3947781739	 1.2665243664	 0.098445
H	-0.0266215125	-0.3145147183	 2.156236978	 0.097964
H	-0.8805961111	-0.5492337661	-0.3522242541	 0.060812
H	 0.0061106983	 0.3266694932	-2.8557036327	 0.097966
H	 1.2943668692	 1.5620569442	-2.8011915601	 0.097965
H	 3.2599898549	-0.5622707177	-1.1123247317	 0.097862
H	 1.9718409073	-1.7975783322	-1.1668178283	 0.097863
80.1168	177.2745	201.8516	273.3594	362.1854	383.3882	513.1537	541.0125	666.8262	800.615	832.6976	840.119	855.3735	859.232	906.9985	937.8177	957.3745	958.9328	975.4241	1008.5334	1009.5573	1017.49	1039.3957	1086.4033	1087.5582	1141.0039	1153.7413	1161.2012	1162.0861	1206.1299	1207.6005	1227.801	1237.2594	1257.6449	1267.2314	1297.1808	1310.8415	1314.8055	1345.8569	1386.8121	1492.337	1497.5425	1505.7506	1519.0756	1532.4686	2988.5699	3000.8883	3031.9867	3034.4924	3048.9434	3051.7247	3058.1616	3084.7331	3100.0008	3103.0402	3104.2714	3115.4168
C1C2CCC1C21COC1	C1[C@H]2CC[C@@H]1C12COC1	
InChI=1S/C8H12O/c1-2-7-3-6(1)8(7)4-9-5-8/h6-7H,1-5H2	InChI=1S/C8H12O/c1-2-7-3-6(1)8(7)4-9-5-8/h6-7H,1-5H2/t6-,7+
