23
gdb 92708	2.04339	1.7252	1.19529	0.2072	91.83	-0.2124	0.0341	0.2465	1180.3356	0.20589	-351.168875	-351.159698	-351.158753	-351.202246	36.215	
C	-0.0961852249	 1.5293948895	-0.0010958094	-0.384938
C	 0.0068003359	-0.0016321471	 0.0116934136	-0.074793
C	 0.8843089447	-0.5037604955	-1.1709786289	-0.273041
C	 2.2280852403	-0.7459072066	-0.5294374554	-0.179859
C	 2.1629989222	-0.7625474836	 0.8053500628	 0.281945
C	 3.2946577988	-1.0040686565	 1.7547678611	-0.510353
C	 0.7521181941	-0.5282881082	 1.2545101195	 0.3043
C	 0.3933718808	-0.1000645108	 2.6572176621	-0.326345
C	 0.0901687031	-1.5057714516	 2.2117300706	-0.319832
H	 0.899822061	 1.9839885985	 0.0362694327	 0.118581
H	-0.5911574156	 1.8754129709	-0.9147650548	 0.10705
H	-0.6684979119	 1.9064293013	 0.8518643881	 0.107911
H	-1.0029314466	-0.4220349273	-0.041652318	 0.06376
H	 0.4866553035	-1.4306628228	-1.6085900371	 0.099487
H	 0.9231115982	 0.2281209984	-1.9868938398	 0.094434
H	 3.1315026158	-0.9239298238	-1.1034340689	 0.079756
H	 4.2224059212	-1.2153002035	 1.2166444511	 0.123537
H	 3.4697472899	-0.1346028738	 2.4006026129	 0.127156
H	 3.0931055418	-1.8529429521	 2.4204987029	 0.124015
H	 1.1947178195	 0.0479288901	 3.373727824	 0.10852
H	-0.4388019288	 0.5843415867	 2.7836845265	 0.109983
H	-0.9446017568	-1.7704991026	 2.0194942871	 0.110287
H	 0.6868833237	-2.3156319797	 2.6186489371	 0.10844
72.6431	168.695	211.005	231.0445	249.5384	256.139	262.7885	319.7106	418.9913	446.2708	525.6191	597.8992	635.1423	734.8406	772.3505	804.168	831.436	883.598	901.3541	922.8882	938.9562	967.5173	994.0581	1028.2653	1032.1105	1056.3642	1067.1929	1079.8446	1097.5702	1101.7876	1143.7055	1191.5703	1217.3635	1247.5171	1273.388	1307.1451	1326.4708	1353.2871	1389.0763	1406.0944	1413.3753	1461.8451	1481.2102	1486.5613	1491.0324	1496.2601	1499.561	1502.9482	1711.4665	3000.3068	3017.9065	3029.889	3042.1449	3046.6415	3063.1207	3098.2212	3103.3212	3111.3361	3123.3261	3129.2019	3183.589	3200.6725	3216.1297
CC1CC=C(C)C11CC1	C[C@H]1CC=C(C)C21CC2	
InChI=1S/C9H14/c1-7-3-4-8(2)9(7)5-6-9/h3,8H,4-6H2,1-2H3	InChI=1S/C9H14/c1-7-3-4-8(2)9(7)5-6-9/h3,8H,4-6H2,1-2H3/t8-/m0/s1
