17
gdb 15617	3.45728	1.73777	1.2797	1.2353	67.05	-0.2525	0.0232	0.2757	978.7651	0.141718	-401.01234	-401.003961	-401.003017	-401.045705	29.143	
C	-0.0683589584	 1.4652279677	 0.0451802564	-0.335285
N	-0.1089885021	 0.0117634144	 0.0468353558	-0.319758
C	 0.619628404	-0.6351191104	 0.8384946484	 0.410427
O	 1.5146030892	-0.116662219	 1.739104265	-0.245754
C	 2.0084120373	-1.1918198337	 2.5323222806	 0.015654
O	 1.79048609	-2.3738957438	 1.8130551828	-0.255775
C	 0.6577524929	-2.148139276	 0.9688512711	 0.011266
C	-0.6349421587	-2.728002968	 1.5406918575	-0.397855
H	 0.5116594634	 1.9003987215	 0.8668432334	 0.12302
H	 0.3566863117	 1.8125227669	-0.9038455087	 0.128616
H	-1.0933000905	 1.8485153575	 0.0917905037	 0.125635
H	 3.0819739932	-1.0557849374	 2.6921807878	 0.12794
H	 1.4770716187	-1.1903756603	 3.4978241685	 0.102571
H	 0.8772038	-2.6037555586	-0.0007983066	 0.117739
H	-0.8653370169	-2.2947979735	 2.5190158774	 0.119939
H	-1.4627240804	-2.5033738198	 0.8629334024	 0.144271
H	-0.5455071135	-3.8116637477	 1.6518619144	 0.127348
73.9661	86.3469	156.1841	175.3223	212.9135	245.916	304.2947	415.3501	500.1442	657.9001	702.2566	749.1271	808.3802	881.6259	998.9303	1036.9349	1048.7068	1072.2273	1109.7965	1123.226	1134.1536	1149.6229	1174.9324	1221.0819	1240.3867	1325.2371	1366.0592	1398.4252	1438.9477	1440.6259	1488.5739	1492.2239	1493.7402	1498.573	1548.4231	1821.3247	2971.5144	3017.8953	3044.7107	3072.5451	3079.2808	3085.324	3090.3599	3120.8979	3132.6054
CN=C1OCOC1C	CN=C1OCO[C@H]1C	
InChI=1S/C5H9NO2/c1-4-5(6-2)8-3-7-4/h4H,3H2,1-2H3	InChI=1S/C5H9NO2/c1-4-5(6-2)8-3-7-4/h4H,3H2,1-2H3/t4-/m0/s1
