18
gdb 126156	3.71227	1.00924	0.85129	3.0169	73.43	-0.3105	-0.0661	0.2444	1364.4995	0.146295	-435.226043	-435.217087	-435.216143	-435.260669	31.991	
C	 0.0010864912	 1.5381208196	 0.1734612815	-0.395139
C	-0.0434522362	 0.0135230816	 0.0448584104	-0.178736
C	-1.4740446773	-0.5588159736	-0.1203503569	-0.076135
C	-2.1515733845	-0.137484587	-1.4300453595	-0.398761
C	-1.4324930504	-2.0484463259	 0.0205406324	 0.412527
N	-1.695095353	-2.9225417704	-0.9083174915	-0.156473
O	-1.5098445513	-4.1281695829	-0.3165735508	-0.14366
N	-1.1271368629	-3.9231464198	 1.0056241368	 0.04251
N	-1.0803929359	-2.6851243259	 1.2050492104	-0.206409
H	 1.0266255634	 1.8763184152	 0.3482238783	 0.122673
H	-0.3597924019	 2.0398618644	-0.7291033718	 0.124096
H	-0.6095993811	 1.8818620276	 1.015751033	 0.12046
H	 0.5636088891	-0.310383258	-0.8100345541	 0.10849
H	 0.4073152782	-0.4373966901	 0.9354837765	 0.12441
H	-2.0709798846	-0.1917539657	 0.725946916	 0.109609
H	-3.1495185648	-0.5747283791	-1.5171546564	 0.132407
H	-2.2519859979	 0.9489648794	-1.4754530316	 0.122616
H	-1.56852966	-0.4660689795	-2.2956134028	 0.135515
40.8694	89.3633	132.3227	198.0514	218.4919	273.9821	288.9801	347.3505	418.0982	471.7787	671.2512	695.8362	697.4827	781.0906	796.1533	852.1322	954.9123	972.7536	996.6061	1032.7546	1061.5448	1070.7776	1125.5862	1136.4457	1181.1444	1248.0717	1288.268	1331.8559	1360.4413	1387.49	1415.2431	1422.8491	1483.2419	1486.2408	1493.8467	1501.0303	1506.2053	1510.6874	1591.3447	3015.8082	3032.169	3037.9903	3051.8716	3073.0067	3105.4659	3113.4458	3120.9712	3132.7298
CCC(C)C1=NON=N1	CC[C@@H](C)c1nonn1	
InChI=1S/C5H9N3O/c1-3-4(2)5-6-8-9-7-5/h4H,3H2,1-2H3	InChI=1S/C5H9N3O/c1-3-4(2)5-6-8-9-7-5/h4H,3H2,1-2H3/t4-/m1/s1
