17
gdb 11558	6.64198	0.93058	0.87831	4.3554	67.36	-0.2436	0.0215	0.2651	1312.6676	0.141273	-401.009279	-401.000546	-400.999601	-401.045929	30.666	
O	 0.1723668804	 1.3316204294	 0.1133200928	-0.419316
C	 0.0719842001	-0.0559598141	 0.0065960946	-0.147478
C	-1.404465929	-0.4714531148	 0.02939209	 0.391038
O	-2.2714695567	 0.3858196586	 0.1310182688	-0.392705
N	-1.6560497735	-1.7980169402	-0.0672800999	-0.327836
C	-2.9826043	-2.3466255888	-0.0594843802	 0.085446
C	-3.3164109134	-3.5441446064	-0.9050645067	-0.28635
C	-3.2563080922	-3.6674096961	 0.6045707908	-0.286571
H	-0.7508344591	 1.6338896262	 0.1729311132	 0.29471
H	 0.5302172118	-0.4178299136	-0.9285388231	 0.107199
H	 0.5968597023	-0.5583992371	 0.8357627873	 0.107163
H	-0.8745807239	-2.4303878695	-0.1467409531	 0.249918
H	-3.7134349386	-1.5545089587	 0.0341889943	 0.140373
H	-4.2819397892	-3.5731100739	-1.3973971617	 0.128439
H	-2.513340621	-3.9986550854	-1.4766316477	 0.113775
H	-2.4136229344	-4.2034006033	 1.0297841561	 0.113736
H	-4.1800933635	-3.7819430025	 1.1604308245	 0.128458
3.7072	62.8113	92.0823	146.7904	319.9705	333.0451	390.1613	443.0825	448.7424	468.5432	603.6052	713.9614	760.6711	811.495	851.545	929.461	943.2536	996.9816	1035.2207	1061.2658	1073.7734	1137.4066	1140.2136	1191.9449	1196.276	1228.7289	1245.7725	1268.7226	1314.297	1382.049	1465.9712	1466.5291	1501.8164	1510.8432	1572.1961	1765.5864	2967.7851	2985.5776	3129.7839	3133.9861	3210.4739	3212.9089	3228.0687	3622.6509	3642.1037
OCC(=O)NC1CC1	OCC(=O)NC1CC1	
InChI=1S/C5H9NO2/c7-3-5(8)6-4-1-2-4/h4,7H,1-3H2,(H,6,8)	InChI=1S/C5H9NO2/c7-3-5(8)6-4-1-2-4/h4,7H,1-3H2,(H,6,8)
