19
gdb 82073	2.55861	1.5718	1.13314	3.6215	76.35	-0.225	0.053	0.278	1111.3979	0.159824	-419.210188	-419.201491	-419.200547	-419.243537	33.311	
C	-0.0427256016	 1.5729175113	 0.0735466771	-0.398164
C	-0.0288725652	 0.0596548888	-0.084676379	 0.025577
C	 0.764920193	-0.5533201044	-1.2536273599	-0.104538
C	 2.2522406965	-0.3401184599	-1.0815945984	-0.288874
C	 1.5576852113	-1.3701996358	-0.2438290328	 0.014807
N	 0.8144590624	-0.7587881609	 0.8412930887	-0.118493
C	 1.3433139674	-0.5236016375	 2.0911034396	 0.400563
N	 0.5456472889	 0.2651010965	 2.9156783299	-0.555571
O	 2.4120727939	-0.983703678	 2.4479724479	-0.389812
H	 0.9657273632	 1.9922492257	 0.0335448454	 0.128561
H	-0.6303032781	 2.0097711738	-0.7409657187	 0.120559
H	-0.4925105128	 1.8806729608	 1.02076502	 0.123325
H	-1.0583760082	-0.3217653948	-0.0779016252	 0.084514
H	 0.3241448098	-0.87343388	-2.1873504079	 0.098042
H	 2.8549906439	-0.7357508613	-1.8933256675	 0.118523
H	 2.6515998037	 0.5580627112	-0.6210203983	 0.121411
H	 1.8119771533	-2.4217330222	-0.2222160618	 0.111717
H	-0.4529562172	 0.193338531	 2.7884971192	 0.249832
H	 0.8380737257	 0.2165290957	 3.880594262	 0.258019
78.0541	100.1071	179.6018	217.1669	235.1636	309.0081	409.6475	428.0756	484.2136	505.811	577.2966	582.3836	664.2217	737.6792	774.9225	787.2919	823.8354	918.8419	930.2591	984.6852	993.6424	1055.0006	1065.8432	1068.8985	1091.7651	1107.0276	1137.1246	1164.3983	1190.4643	1215.4939	1277.7205	1302.6327	1364.2664	1372.9112	1415.0711	1436.9259	1477.904	1489.6436	1494.8854	1619.3353	1788.2992	3011.3781	3045.3819	3114.8069	3123.8171	3128.9124	3198.1518	3207.0281	3216.9116	3568.5919	3682.2549
CC1C2CC2N1C(N)=O	C[C@H]1[C@H]2C[C@H]2N1C(=O)N	
InChI=1S/C6H10N2O/c1-3-4-2-5(4)8(3)6(7)9/h3-5H,2H2,1H3,(H2,7,9)	InChI=1S/C6H10N2O/c1-3-4-2-5(4)8(3)6(7)9/h3-5H,2H2,1H3,(H2,7,9)/t3-,4+,5+/m0/s1
