19
gdb 32625	2.95166	1.27476	0.96728	1.3056	79.83	-0.1669	0.0503	0.2173	1251.7572	0.15933	-419.232044	-419.22236	-419.221416	-419.266679	35.625	
C	 0.0207180016	 1.5359872359	 0.0232104554	-0.368719
C	-0.0318653125	 0.0052439904	-0.0110981364	-0.151276
N	-1.3814326745	-0.525524344	 0.0292055314	-0.024151
C	-2.0678785414	-0.9315790562	 1.1443916483	-0.105941
C	-3.33615702	-1.3171884331	 0.7683530933	-0.24572
C	-3.4358280319	-1.1467158424	-0.6425052682	 0.166703
N	-4.5650471258	-1.3616597237	-1.4636916945	-0.618939
C	-2.222649941	-0.6517363491	-1.0624269167	 0.224713
O	-1.7796926762	-0.3693130574	-2.3282995281	-0.450242
H	 1.0594271431	 1.8817400105	 0.0130575232	 0.117012
H	-0.4859178165	 1.9614300474	-0.8480609525	 0.115469
H	-0.4650031611	 1.9232599956	 0.9235220577	 0.128517
H	 0.4519689197	-0.3649484648	-0.9196034934	 0.129003
H	 0.5109146141	-0.41182584	 0.8425145423	 0.114092
H	-1.5921885525	-0.9264492835	 2.1121635576	 0.109722
H	-4.1066107748	-1.6925244056	 1.4248959503	 0.0844
H	-5.1106106647	-2.1535086656	-1.1446205993	 0.237805
H	-4.2808047908	-1.5416017619	-2.4205570129	 0.236705
H	-2.1025498947	 0.5006116076	-2.5928117172	 0.300848
54.5941	89.7757	142.6455	208.8031	234.697	256.3273	288.9944	299.4316	310.2776	392.3514	521.4968	579.1636	614.9509	639.7935	690.3812	736.571	746.4244	762.9126	800.0824	839.0312	951.4474	1034.7726	1063.4434	1095.4867	1114.3393	1142.7283	1224.4434	1256.348	1285.4793	1316.9456	1388.4031	1401.1889	1410.5779	1434.9278	1478.76	1490.4915	1503.0068	1503.6961	1531.8082	1644.8685	1666.7085	3039.7166	3055.6176	3094.9863	3112.5106	3124.2666	3238.8604	3262.5137	3510.8089	3598.8941	3751.0158
CCN1C=CC(N)=C1O	CCn1ccc(N)c1O	
InChI=1S/C6H10N2O/c1-2-8-4-3-5(7)6(8)9/h3-4,9H,2,7H2,1H3	InChI=1S/C6H10N2O/c1-2-8-4-3-5(7)6(8)9/h3-4,9H,2,7H2,1H3
