16
gdb 132734	2.37422	1.78412	1.02618	3.7314	75.64	-0.2129	-0.0127	0.2002	1096.2378	0.125246	-442.106341	-442.098405	-442.097461	-442.138503	30.598	
C	 0.0004319565	 1.5288899361	 0.0322442408	-0.514695
C	 0.0028911097	 0.0245825681	 0.0140077281	 0.258132
C	 0.0542498534	-0.6631303221	-1.2055248904	 0.078423
N	 0.1554185862	-0.0239831635	-2.4386391555	-0.597987
C	 0.061898003	-2.0641183088	-1.1294173253	 0.302935
F	 0.1054297111	-2.7233620037	-2.3006170576	-0.093376
N	 0.0288183272	-2.7838098276	-0.0440885985	-0.327303
C	-0.0200787754	-2.1196652149	 1.121013391	-0.026323
C	-0.0353724443	-0.7355706454	 1.1871162906	-0.197087
H	 0.8597880638	 1.9319159498	-0.5166109624	 0.143827
H	-0.9023422927	 1.9385486461	-0.441125671	 0.12879
H	 0.0362101072	 1.9115841664	 1.0543467941	 0.1334
H	-0.3195053967	 0.8643964218	-2.5040050184	 0.250369
H	-0.0538126293	-0.6264617055	-3.2213510229	 0.258535
H	-0.0479423772	-2.7264070126	 2.0205376651	 0.109721
H	-0.0744403225	-0.2380242842	 2.1504397723	 0.092637
133.7816	162.3772	239.6511	287.665	313.1918	317.826	341.5584	498.0195	530.7569	551.8077	564.7969	584.3384	646.4935	712.394	779.5725	843.2807	854.9666	941.7854	950.918	1017.5422	1058.5847	1123.9587	1189.4977	1264.0971	1300.9806	1303.0583	1367.5791	1411.8182	1475.3979	1482.5306	1499.7404	1514.7645	1611.0972	1636.3988	1661.7267	3014.1722	3066.8505	3124.4524	3171.8185	3190.9432	3566.1389	3668.2373
CC1=C(N)C(F)=NC=C1	Cc1c(N)c(F)ncc1	
InChI=1S/C6H7FN2/c1-4-2-3-9-6(7)5(4)8/h2-3H,8H2,1H3	InChI=1S/C6H7FN2/c1-4-2-3-9-6(7)5(4)8/h2-3H,8H2,1H3
