16
gdb 117022	2.4145	1.16207	0.79225	3.2489	74.73	-0.2768	-0.0909	0.1859	1396.0821	0.121203	-437.867601	-437.857879	-437.856934	-437.903164	33.742	
C	-1.19016604	 0.6477088247	 0.9137136077	-0.39136
C	-0.0356946219	-0.0718703247	 0.2447806626	-0.045544
O	 0.4383609086	-1.0786825129	 1.1592205801	-0.252168
C	 1.4648178831	-1.8245019357	 0.7412408919	 0.336528
N	 2.030548785	-1.699593875	-0.3848778744	-0.521663
C	 1.8927048057	-2.8593772338	 1.7777010896	 0.137522
O	 2.8148305905	-3.6061360789	 1.5307559327	-0.285369
C	 1.1701565345	-2.905337865	 3.0264467702	 0.319127
C	 0.5910471041	-2.973296699	 4.0792640141	-0.408348
H	-0.8675143864	 1.122630524	 1.8443696319	 0.131172
H	-1.5780709565	 1.4230731766	 0.2466556168	 0.125288
H	-2.0022965438	-0.0472712265	 1.144412283	 0.131169
H	-0.3343786276	-0.5600281349	-0.6887641319	 0.127441
H	 0.7933565855	 0.6027097346	 0.0067952913	 0.127434
H	 2.7810673944	-2.3907253674	-0.4464293645	 0.248218
H	 0.0779498248	-3.0319438662	 5.008578369	 0.220553
49.9419	89.5049	101.2961	118.3175	190.204	239.1017	260.3966	318.6995	365.6883	428.9229	513.3831	514.0637	646.4466	658.1178	718.3985	804.739	820.0289	828.243	894.5998	919.6894	1043.1051	1107.3666	1140.6144	1154.7201	1181.9711	1292.1005	1365.8614	1407.7314	1434.4269	1485.738	1495.8712	1518.0122	1716.6584	1762.3229	2215.1961	3047.8259	3048.9191	3086.7112	3122.851	3127.6046	3473.0243	3493.5606
CCOC(=N)C(=O)C#C	CCO[C]([NH])C(=O)C#C	
InChI=1S/C6H7NO2/c1-3-5(8)6(7)9-4-2/h1,7H,4H2,2H3	InChI=1S/C6H7NO2/c1-3-5(8)6(7)9-4-2/h1,7H,4H2,2H3
