18
gdb 50746	2.8729	1.39579	0.98897	6.0584	74.12	-0.2404	-0.0278	0.2126	1177.9334	0.148996	-439.149899	-439.141625	-439.140681	-439.183459	30.459	
O	-0.2743783347	 0.0120086304	 0.3057827402	-0.269246
C	-0.0809033035	 1.1866015499	 0.1633776864	 0.161128
N	 1.1487042737	 1.8308930411	-0.0260793001	-0.144208
C	 1.1170920398	 3.2982180665	-0.1714947241	-0.165661
C	 2.3369273996	 3.9739201579	 0.4442986206	-0.205336
C	 3.6063525653	 3.3820521116	-0.1666885851	-0.216259
C	 3.6467350919	 1.8736761292	 0.0909224777	-0.296267
C	 2.3578633108	 1.1034495416	-0.1904961539	 0.399293
O	 2.3737849419	-0.0682687662	-0.4637767895	-0.297193
H	-0.8981944373	 1.936629648	 0.2006025284	 0.077359
H	 1.0590126963	 3.558078297	-1.2378921833	 0.12095
H	 0.1968282832	 3.6588611846	 0.2960168228	 0.122612
H	 2.2729603531	 5.051461175	 0.2622423673	 0.109729
H	 2.3341274943	 3.8247871759	 1.5311066061	 0.111616
H	 3.6155844155	 3.5787616708	-1.2463936199	 0.109512
H	 4.5022312762	 3.8555677559	 0.2464988367	 0.108878
H	 4.4363043205	 1.3732208683	-0.4733410051	 0.135545
H	 3.8606198932	 1.6912066325	 1.1535764048	 0.137548
46.1847	108.586	180.8208	232.1499	259.2509	331.3366	385.4641	444.4365	492.4479	521.6993	620.4151	665.8668	725.4224	828.413	887.1616	929.4755	966.816	983.3803	1026.7733	1071.9516	1108.3057	1139.7326	1170.1839	1178.2662	1212.5623	1280.0047	1285.3216	1333.9677	1354.6165	1373.3204	1386.5876	1411.5798	1461.9686	1470.4998	1486.7114	1498.4157	1516.5278	1790.0561	1865.6638	2909.7503	3005.1838	3021.3586	3029.5029	3036.2322	3080.4466	3084.5428	3088.7512	3113.4573
O=CN1CCCCC1=O	O=CN1CCCCC1=O	
InChI=1S/C6H9NO2/c8-5-7-4-2-1-3-6(7)9/h5H,1-4H2	InChI=1S/C6H9NO2/c8-5-7-4-2-1-3-6(7)9/h5H,1-4H2
