25
gdb 103834	2.50761	0.94573	0.91882	1.661	89.58	-0.2531	0.0859	0.339	1537.1597	0.225684	-389.495569	-389.484208	-389.483264	-389.532144	41.695	
C	 0.1310095622	 1.453234109	 0.2294796134	-0.379351
C	-0.4224246878	 0.1317149743	-0.3218050031	-0.252182
C	 0.4961617188	-0.5105088399	-1.3499416801	 0.398969
C	 0.575709899	 0.2010162417	-2.6873222913	-0.460864
O	 1.7758856357	-0.9408624833	-0.840270427	-0.312564
C	 0.8614586874	-1.9420237929	-1.3035664834	 0.018072
C	 0.3823296452	-2.9759910528	-0.305276795	-0.007536
C	-0.8470426196	-3.7143297923	-0.8537432436	-0.391971
C	 1.5277098757	-3.9454084818	 0.0245195147	-0.388802
H	 1.120968547	 1.295086694	 0.6669451283	 0.135149
H	 0.2235773125	 2.2168169856	-0.5488654538	 0.116274
H	-0.5271522287	 1.8532245274	 1.0064647468	 0.110999
H	-0.5856889134	-0.5558580274	 0.5117512678	 0.103821
H	-1.4025531215	 0.3000603234	-0.7861991272	 0.09594
H	 0.9075131142	 1.2368344316	-2.5646760307	 0.126261
H	 1.2856028337	-0.3023335623	-3.3480349717	 0.12509
H	-0.4044637308	 0.2184619566	-3.1764942955	 0.116823
H	 1.1583698065	-2.3861537091	-2.2602513854	 0.072366
H	 0.1030517331	-2.4629538547	 0.6209788158	 0.078272
H	-1.1900993656	-4.4779401348	-0.148619116	 0.114882
H	-1.6789503519	-3.0275791878	-1.0402963519	 0.114859
H	-0.6126889032	-4.2193831047	-1.7983959707	 0.114699
H	 2.396232138	-3.4019392765	 0.4070394577	 0.131309
H	 1.2175020958	-4.6753449852	 0.7790898644	 0.108851
H	 1.8414606278	-4.5003033081	-0.8676687427	 0.110633
49.5326	68.7615	128.2099	149.4613	194.5605	214.8972	219.1076	244.5206	272.4347	284.9667	358.8202	377.7064	399.6838	446.931	511.1613	582.5525	693.2242	778.8357	802.5804	869.9082	916.5349	929.9987	942.4921	970.9581	990.4889	1002.7553	1054.0108	1074.5234	1116.4973	1132.2057	1161.2753	1177.9375	1198.3658	1251.6372	1306.4502	1317.6942	1335.5337	1349.9031	1382.4349	1397.3374	1405.9798	1413.272	1417.6634	1471.9036	1478.391	1488.1481	1490.4442	1491.0779	1500.9816	1504.2342	1505.5764	1510.0837	1517.2235	3026.2197	3029.3996	3030.0303	3036.8273	3040.6563	3042.883	3051.9129	3088.2758	3091.1225	3098.8367	3101.2874	3104.2755	3111.7395	3114.7778	3119.9458	3123.6394
CCC1(C)OC1C(C)C	CC[C@@]1(C)O[C@H]1C(C)C	
InChI=1S/C8H16O/c1-5-8(4)7(9-8)6(2)3/h6-7H,5H2,1-4H3	InChI=1S/C8H16O/c1-5-8(4)7(9-8)6(2)3/h6-7H,5H2,1-4H3/t7-,8+/m0/s1
