20
gdb 122495	2.17417	1.28668	0.97761	4.2707	76.95	-0.2436	0.0164	0.26	1294.1649	0.169112	-440.26642	-440.256539	-440.255595	-440.302436	34.565	
C	-1.2927309784	-0.0061572391	-0.7865702822	-0.389588
C	-0.0997940885	-0.8644730168	-0.4050313305	-0.0461
O	 0.8298611206	-0.8210729667	-1.4807122633	-0.235657
C	 1.9447386282	-1.6737461005	-1.3661296992	-0.118678
C	 1.8543039782	-2.8793616079	-2.2884719651	-0.010329
C	 0.5497889482	-3.5588391649	-2.5967043291	-0.246839
N	 1.2383849098	-2.7788683808	-3.5985464658	-0.065306
C	 0.689414885	-1.6463851502	-4.1840945316	 0.159708
O	-0.4550574401	-1.5578950818	-4.554447865	-0.301533
H	-0.9809576295	 1.02837477	-0.9547638281	 0.130532
H	-1.7488571756	-0.3783714139	-1.7080068178	 0.149531
H	-2.0414301328	-0.0193229838	 0.0109943018	 0.115716
H	 0.3783816837	-0.488724249	 0.513389116	 0.094155
H	-0.414495557	-1.90054392	-0.20915604	 0.091055
H	 2.8400800376	-1.0928446147	-1.6262848067	 0.116339
H	 2.0813979238	-2.0278507473	-0.3339835026	 0.107289
H	 2.7518320713	-3.4979725991	-2.2649086117	 0.100048
H	 0.5253719095	-4.6339889888	-2.7516508025	 0.125401
H	-0.3628049997	-3.1237655702	-2.2009209169	 0.14169
H	 1.4494312058	-0.8633810646	-4.3607343997	 0.082567
39.7826	64.8224	97.4163	133.4889	196.7961	237.2594	250.3905	277.1851	307.2982	403.5286	455.2234	576.3649	671.8942	759.3891	823.1546	857.8635	882.2582	969.6967	972.5313	1032.5123	1039.5341	1061.7217	1101.7969	1119.3898	1136.4592	1155.539	1163.9774	1177.4473	1190.8446	1295.105	1306.6344	1358.5928	1389.4174	1405.6906	1421.1347	1425.3892	1437.0348	1482.808	1495.6671	1500.8767	1509.9002	1531.678	1799.4548	2966.0553	2974.1865	2998.4678	3008.3169	3037.2588	3047.1848	3106.5466	3118.7624	3122.524	3127.4883	3209.6484
CCOCC1CN1C=O	CCOC[C@H]1CN1C=O	
InChI=1S/C6H11NO2/c1-2-9-4-6-3-7(6)5-8/h5-6H,2-4H2,1H3	InChI=1S/C6H11NO2/c1-2-9-4-6-3-7(6)5-8/h5-6H,2-4H2,1H3/t6-,7?/m1/s1
