15
gdb 8654	2.33643	1.81835	1.42198	1.6824	61.77	-0.2769	-0.056	0.2209	935.8477	0.116014	-399.814916	-399.805871	-399.804926	-399.848774	31.129	
C	 0.1196755141	 1.6628501729	-0.2062622304	-0.418644
C	 0.0113538343	 0.1223782192	-0.0655215159	-0.035526
C	 0.5837295278	-0.3503347364	 1.2992390673	-0.078351
O	 1.9391732691	 0.0011022384	 1.4576357514	-0.418997
C	-1.473054337	-0.2588329526	-0.1949629587	 0.152829
O	-2.1500577446	-0.5881571586	 0.7396765231	-0.236316
C	 0.7584336621	-0.5260472464	-1.1488465471	 0.245504
N	 1.36148477	-1.0583690321	-1.97969935	-0.328534
H	 1.1595310072	 1.9593855171	-0.0597218715	 0.163836
H	-0.214965262	 2.0010059278	-1.1898970616	 0.139885
H	-0.4947481946	 2.1401519659	 0.5621213579	 0.142589
H	 0.0264567876	 0.1537994362	 2.0915025143	 0.138032
H	 0.4161933285	-1.4290639767	 1.4089019486	 0.120624
H	 2.4688141929	-0.5606054332	 0.8805769335	 0.30076
H	-1.8858767552	-0.1698484313	-1.2222448209	 0.112309
63.7526	102.0197	164.2363	175.9776	214.2239	222.8668	290.3003	330.2219	378.2425	414.6667	525.1938	578.9838	633.972	721.5982	897.8182	918.6917	970.5821	1009.5191	1087.1736	1122.7977	1164.8611	1194.6863	1271.546	1385.5329	1400.6835	1407.4432	1420.3473	1484.2131	1496.6811	1498.5144	1835.019	2346.5038	2910.686	3031.4374	3052.3201	3117.6192	3130.8012	3149.0674	3803.5717
CC(CO)(C=O)C#N	C[C@@](CO)(C=O)C#N	
InChI=1S/C5H7NO2/c1-5(2-6,3-7)4-8/h3,8H,4H2,1H3	InChI=1S/C5H7NO2/c1-5(2-6,3-7)4-8/h3,8H,4H2,1H3/t5-/m0/s1
