16
gdb 49260	2.90982	1.2308	0.8741	5.4468	74.5	-0.2473	-0.0652	0.1821	1245.0264	0.125062	-437.947935	-437.93978	-437.938835	-437.981533	29.482	
O	-0.0888575769	-0.0187101304	 0.119076528	-0.263499
C	-0.0224327763	 1.1878533016	 0.159042863	 0.098055
C	 1.227289748	 1.9531021678	-0.0169927952	 0.205789
C	 1.1845582029	 3.2877087533	 0.046523068	-0.131736
C	 2.3819254766	 4.1607966008	-0.1163888725	-0.204576
N	 3.5939122264	 3.403339135	-0.3498899663	-0.324811
C	 3.7485434752	 2.0455152734	-0.4337436297	 0.399021
O	 4.8368629778	 1.5440255381	-0.6368547488	-0.370123
C	 2.4991364623	 1.1938906756	-0.2612453997	-0.43065
H	-0.9261912325	 1.813514654	 0.3362478756	 0.071961
H	 0.2408690455	 3.7973132606	 0.2254288316	 0.11367
H	 2.2014852973	 4.8624640866	-0.9469667091	 0.133438
H	 2.4895199757	 4.7901766091	 0.7819521191	 0.13344
H	 4.4556651996	 3.9152212375	-0.4722671442	 0.250793
H	 2.6881920773	 0.4885239751	 0.5559849037	 0.159616
H	 2.4034682714	 0.560495532	-1.1505098036	 0.159612
62.4243	98.3319	132.7193	184.4903	301.2207	398.6506	430.8165	471.3966	517.4216	517.7668	624.8723	651.0705	740.0663	826.0526	870.0105	929.0642	965.838	991.9869	1021.4554	1041.6231	1130.37	1178.9258	1203.9486	1244.7894	1294.9838	1337.7865	1389.073	1403.7993	1430.2591	1445.6216	1482.2165	1518.6055	1728.4195	1795.4562	1795.8475	2877.7247	2972.4711	2982.1745	3053.5362	3077.267	3163.7876	3611.4995
O=CC1=CCNC(=O)C1	O=CC1=CCNC(=O)C1	
InChI=1S/C6H7NO2/c8-4-5-1-2-7-6(9)3-5/h1,4H,2-3H2,(H,7,9)	InChI=1S/C6H7NO2/c8-4-5-1-2-7-6(9)3-5/h1,4H,2-3H2,(H,7,9)
