17
gdb 35490	3.2358	1.52477	1.46362	3.564	74.58	-0.2388	0.0337	0.2725	949.6441	0.139339	-380.841864	-380.835141	-380.834196	-380.873007	27.008	
N	-0.1034531056	-1.2087776722	-0.1507725558	-0.341093
C	-0.0563370081	-0.0554589684	-0.0749039474	 0.283539
C	-0.0039501438	 1.4016702582	 0.0250416146	-0.195445
C	-0.6243289984	 1.9732359278	 1.3623514505	-0.190105
N	 0.5027868079	 2.4096893696	 2.1918392004	-0.113433
C	 1.4204666531	 1.236762488	 2.4590830965	-0.194795
C	 2.2962867022	 1.6601602099	 1.2893666719	-0.08159
C	 1.4168128668	 1.9763391526	 0.0848578191	-0.049246
C	 1.5066790009	 2.9467527885	 1.2255236743	-0.047693
H	-0.5341065657	 1.8058507262	-0.8436054786	 0.124687
H	-1.2438023383	 2.8417027683	 1.1197418147	 0.118231
H	-1.2398347658	 1.2427082986	 1.8912807156	 0.131404
H	 1.914339581	 1.3640463801	 3.4258713385	 0.118352
H	 0.9406670954	 0.2533052075	 2.4240341901	 0.127178
H	 3.362120246	 1.5035970895	 1.1798467685	 0.100391
H	 1.938801941	 2.1864870372	-0.8407220744	 0.107371
H	 1.7822018214	 3.9923906885	 1.1845290614	 0.102248
111.8054	157.2552	287.9677	391.1217	416.1881	494.7344	572.5441	678.0319	694.5339	763.1955	796.9424	808.7606	826.0952	891.0203	915.6808	963.6595	976.2071	994.6798	997.5553	1029.2934	1063.993	1072.3656	1086.6626	1118.4368	1127.2837	1201.8857	1220.2081	1230.26	1264.0963	1295.3991	1313.3688	1337.5299	1348.3935	1388.7229	1489.1879	1515.0493	2347.5225	3047.854	3052.8268	3064.3007	3100.9039	3123.6964	3188.3547	3191.2991	3205.6737
N#CC1CN2CC3C1C23	N#C[C@H]1CN2C[C@H]3[C@@H]1[C@@H]23	
InChI=1S/C7H8N2/c8-1-4-2-9-3-5-6(4)7(5)9/h4-7H,2-3H2	InChI=1S/C7H8N2/c8-1-4-2-9-3-5-6(4)7(5)9/h4-7H,2-3H2/t4-,5-,6+,7-/m0/s1
