19
gdb 19160	3.22326	1.56711	1.27295	1.9791	71.36	-0.2411	0.0701	0.3112	1018.584	0.165816	-365.010171	-365.001802	-365.000858	-365.043204	31.415	
O	 0.0674860803	 1.470415034	 0.0411196962	-0.417599
C	-0.002283897	 0.0559846946	 0.1543149515	-0.179457
C	-1.4230608253	-0.4961075022	 0.0743785117	 0.373743
C	-2.5176759967	 0.2504221975	 0.7949340933	-0.30016
C	-2.4633837242	 0.2692672349	-0.7131423044	-0.308309
C	-1.5334937135	-1.9937713487	 0.0387101741	-0.077937
N	-0.5779058468	-2.7429763746	-0.7960018145	-0.323507
C	-0.5652238357	-2.9324405086	 0.6657583481	-0.251998
H	 0.0075917808	 1.6929851635	-0.8922110146	 0.286868
H	 0.618553109	-0.4393525524	-0.6032580479	 0.117452
H	 0.4232138844	-0.1784767665	 1.1367591865	 0.10746
H	-3.3019644322	-0.3218761889	 1.2797466964	 0.104016
H	-2.232357283	 1.1622948874	 1.306983022	 0.126158
H	-2.174446097	 1.2017356147	-1.1844020824	 0.098557
H	-3.2003314474	-0.3010532565	-1.2688380511	 0.105401
H	-2.566938982	-2.3406733817	 0.0238172458	 0.076616
H	-1.0392657439	-3.5246381006	-1.2521666851	 0.231446
H	 0.3258682097	-2.5613547092	 1.1627615235	 0.121461
H	-0.9526027594	-3.859656457	 1.0805808509	 0.109787
64.0593	94.258	195.2698	228.6659	267.5349	320.6523	334.7008	380.564	503.5528	534.2733	686.1706	782.3834	846.2221	849.3299	856.1969	897.4153	943.8071	967.5568	988.7654	1004.3377	1033.8258	1060.9783	1075.0642	1086.5483	1115.3572	1120.6395	1173.3169	1191.3227	1231.4727	1248.7333	1281.991	1290.8266	1341.2654	1399.073	1417.5094	1452.0395	1455.6292	1500.4774	1510.3033	1521.7751	3019.0287	3065.649	3098.2737	3111.0826	3129.703	3132.7308	3194.0437	3210.5358	3225.3411	3510.4251	3834.1679
OCC1(CC1)C1NC1	OCC1(CC1)[C@H]1NC1	
InChI=1S/C6H11NO/c8-4-6(1-2-6)5-3-7-5/h5,7-8H,1-4H2	InChI=1S/C6H11NO/c8-4-6(1-2-6)5-3-7-5/h5,7-8H,1-4H2/t5-/m0/s1
