20
gdb 13014	2.49224	2.38135	1.55726	1.4705	73.72	-0.2492	0.0773	0.3265	907.2217	0.178121	-349.012328	-349.004433	-349.003489	-349.043912	31.288	
C	-0.3104641015	 1.410650363	 0.0256603401	-0.488739
C	 0.0500553347	-0.0547690561	 0.0213242024	 0.339769
C	-0.7138351827	-1.0270877484	 0.8993196169	-0.349482
C	 0.7492352012	-0.7578810947	 1.162279425	-0.06494
C	 1.7497257358	-1.7555376573	 0.5869464421	-0.222438
C	 1.2885551794	-1.9670354827	-0.8705041769	-0.261288
C	 0.6044562928	-0.6404132542	-1.275949884	 0.09629
O	-0.3448606544	-0.7645863167	-2.3238272346	-0.439862
H	 0.5594341517	 2.0333893723	-0.2155243393	 0.113693
H	-1.0829827058	 1.6200997171	-0.7225044605	 0.125927
H	-0.6902570877	 1.7287011799	 1.0015926792	 0.109717
H	-1.4292779599	-0.5921744228	 1.5892749038	 0.108627
H	-1.0140621383	-2.0001609592	 0.5206290797	 0.099123
H	 1.0133198881	-0.2182606254	 2.0661686693	 0.078472
H	 2.7537074269	-1.3153573542	 0.6102215444	 0.100961
H	 1.7980506991	-2.6927882819	 1.1524211208	 0.097555
H	 2.1050723152	-2.2319645933	-1.546074331	 0.102494
H	 0.5549125608	-2.779021622	-0.9353974421	 0.095357
H	 1.3543314707	 0.0561433926	-1.6723318724	 0.083798
H	-1.0860957759	-1.2741107361	-1.9772340627	 0.274965
133.5078	198.7581	221.1873	248.5492	284.0694	323.8857	392.7807	434.8413	523.6886	552.348	627.8662	684.4993	814.8344	826.3803	869.3927	900.2219	946.1333	956.3339	987.5405	1026.0707	1051.0373	1064.7673	1078.8394	1092.0507	1099.8603	1123.1793	1179.3738	1213.0888	1250.5367	1283.5925	1309.8582	1316.0144	1337.1668	1343.6995	1400.6695	1419.8741	1435.748	1485.7373	1486.7906	1495.229	1502.9131	1512.0464	3022.0339	3027.0303	3031.9546	3041.0118	3068.3705	3083.4949	3099.9413	3103.1516	3119.5008	3158.2369	3201.5772	3794.8314
CC12CC1CCC2O	C[C@]12C[C@H]1CC[C@H]2O	
InChI=1S/C7H12O/c1-7-4-5(7)2-3-6(7)8/h5-6,8H,2-4H2,1H3	InChI=1S/C7H12O/c1-7-4-5(7)2-3-6(7)8/h5-6,8H,2-4H2,1H3/t5-,6-,7+/m1/s1
