16
gdb 77272	2.36429	1.14486	0.91457	4.7785	70.51	-0.2552	-0.0278	0.2275	1272.0022	0.122024	-437.886028	-437.876722	-437.875778	-437.921315	32.297	
O	 0.0425960031	 1.4289503885	-0.0390972875	-0.397289
C	 0.0858504953	 0.044942098	-0.0317943444	 0.078048
C	-1.2122797434	-0.6586596577	 0.2044595322	-0.071006
C	-2.4890656639	 0.1230698485	 0.4455282134	-0.303201
C	-3.7159328213	-0.6313680044	-0.0315044157	 0.157069
O	-4.6641534549	-0.8911793352	 0.662230754	-0.234319
C	-0.5611195573	-0.7283082656	-1.1864830228	-0.245284
C	-1.1003319741	 0.0210320605	-2.2819480148	 0.291226
N	-1.5167697708	 0.6352590463	-3.170325672	-0.339507
H	 0.5951795201	 1.7610080779	-0.7556671193	 0.307504
H	 0.9893970885	-0.397354599	 0.3859492557	 0.114449
H	-1.1421455967	-1.5927242327	 0.7540423439	 0.120999
H	-2.6063216221	 0.3408864232	 1.5107670976	 0.131777
H	-2.4387627063	 1.0761465552	-0.0928486238	 0.156481
H	-3.6825716574	-0.9375653722	-1.1010169635	 0.091893
H	-0.1073003088	-1.6714557013	-1.4714032029	 0.141161
54.7163	64.0478	117.3163	128.0293	182.5871	252.3701	276.6435	377.6191	396.4963	483.4803	567.4405	605.3538	660.8488	751.9813	797.1045	817.2665	900.4675	974.5212	1001.6079	1029.8789	1077.6158	1118.9834	1133.382	1165.1646	1231.4304	1236.0171	1290.0449	1302.7389	1361.1595	1388.9395	1427.5065	1448.5738	1460.4381	1835.8847	2349.212	2887.2573	3053.6123	3109.4543	3112.4848	3157.38	3173.1161	3802.202
OC1C(CC=O)C1C#N	O[C@H]1[C@@H](CC=O)[C@H]1C#N	
InChI=1S/C6H7NO2/c7-3-5-4(1-2-8)6(5)9/h2,4-6,9H,1H2	InChI=1S/C6H7NO2/c7-3-5-4(1-2-8)6(5)9/h2,4-6,9H,1H2/t4-,5+,6-/m0/s1
