15
gdb 16937	3.73879	2.19403	1.99981	4.3158	60.24	-0.2319	0.0179	0.2498	726.1766	0.122262	-399.830665	-399.824793	-399.823849	-399.860454	23.707	
O	-0.005826379	-0.037259952	 0.0046644634	-0.37872
C	-0.0014451633	 1.1677543683	-0.0471926593	 0.429037
N	-1.100056283	 2.0168161118	-0.0594527698	-0.303573
C	-0.6290321816	 3.3992741101	 0.0870802917	-0.042086
C	 0.0507409868	 3.5293195867	 1.4652579554	-0.070602
O	 1.1961938541	 2.6694617734	 1.3396411254	-0.2788
C	 1.1828613394	 2.161544544	-0.0183364661	-0.019587
C	 0.6258629601	 3.3416907295	-0.8162979523	-0.231467
H	-1.9829453472	 1.7006949018	 0.3144509261	 0.250936
H	-1.3935590088	 4.1382978946	-0.1471949371	 0.091119
H	 0.3737558659	 4.5562676803	 1.6784080454	 0.107201
H	-0.5903490123	 3.1790672488	 2.2818448831	 0.106344
H	 2.1573542465	 1.7424632868	-0.2525386761	 0.101785
H	 0.3834468005	 3.1075682108	-1.8536746773	 0.122458
H	 1.255331292	 4.231308845	-0.7528984823	 0.115954
165.3874	279.4047	414.6414	447.5662	490.8218	499.1987	622.2568	712.6714	757.1234	826.4955	868.0756	872.1036	902.4863	942.9712	973.7287	985.8812	994.1188	1052.5768	1067.9036	1135.3088	1175.6009	1214.8324	1219.838	1269.2655	1281.158	1294.2767	1339.302	1365.7767	1394.7242	1483.5333	1520.3621	1856.6916	3019.6008	3067.9391	3082.3134	3134.9463	3146.5278	3172.3542	3617.0929
O=C1NC2COC1C2	O=C1N[C@H]2CO[C@@H]1C2	
InChI=1S/C5H7NO2/c7-5-4-1-3(6-5)2-8-4/h3-4H,1-2H2,(H,6,7)	InChI=1S/C5H7NO2/c7-5-4-1-3(6-5)2-8-4/h3-4H,1-2H2,(H,6,7)/t3-,4-/m1/s1
