19
gdb 78909	3.36175	1.77113	1.56933	1.9365	75.94	-0.2355	0.0847	0.3202	918.7558	0.162459	-385.867016	-385.860626	-385.859682	-385.897456	27.42	
C	-0.1185008802	 1.5945578437	-0.0352085647	-0.401622
C	-0.0287943351	 0.0675821817	-0.0237145954	-0.012567
C	 0.8477021713	-0.5205999056	-1.1258890212	-0.070587
C	 2.2753917063	-0.6040344902	-0.6231769676	-0.07976
C	 1.4025312681	-1.8479223804	-0.6620602109	-0.093226
C	 1.1605628335	-1.9855705368	 0.8579487052	 0.050519
O	 2.4621026438	-1.7310111539	 1.4624873393	-0.300283
C	 2.2810530285	-0.3951000389	 0.9062352692	 0.063892
C	 0.7424477601	-0.5133868721	 1.1505431288	-0.065393
H	 0.8777546537	 2.0471648092	 0.0143915785	 0.117915
H	-0.6018667618	 1.9544203224	-0.9494456334	 0.113723
H	-0.699366757	 1.9640900439	 0.8162796454	 0.113961
H	-1.0390478199	-0.3610322579	-0.0698847256	 0.072499
H	 0.6390516751	-0.3389552278	-2.1746967636	 0.081053
H	 3.1455709308	-0.4634930777	-1.248548936	 0.089422
H	 1.5870158686	-2.6886753515	-1.3159143862	 0.090532
H	 0.6552181143	-2.8683488881	 1.2469551907	 0.076393
H	 2.9322546443	 0.3577483838	 1.3473934252	 0.076593
H	 0.4112837255	-0.3104713839	 2.1666660123	 0.076936
175.095	226.6312	260.317	478.5061	521.6185	550.3322	663.6026	699.6442	735.811	798.4249	801.9253	842.2196	853.6017	864.0746	905.578	916.5118	926.8612	937.9531	968.2043	993.0447	998.0387	1040.4658	1052.4762	1070.2418	1083.9738	1090.1621	1123.2582	1166.6531	1200.607	1235.1074	1245.7986	1253.6883	1283.4899	1289.7117	1298.0353	1331.0274	1370.0877	1391.0109	1411.9458	1496.8186	1499.9248	3017.9483	3030.269	3098.4334	3100.0989	3130.5869	3132.8761	3149.386	3170.9523	3209.3063	3219.1297
CC1C2C3C2C2OC3C12	C[C@H]1[C@H]2[C@@H]3[C@H]2[C@H]2O[C@@H]3[C@@H]12	
InChI=1S/C8H10O/c1-2-3-5-6(3)8-4(2)7(5)9-8/h2-8H,1H3	InChI=1S/C8H10O/c1-2-3-5-6(3)8-4(2)7(5)9-8/h2-8H,1H3/t2-,3-,4+,5+,6-,7+,8-/m0/s1
