16
gdb 50418	2.21912	1.5844	1.00304	3.8264	77.26	-0.2456	-0.0042	0.2413	1151.5625	0.123778	-400.74036	-400.731986	-400.731042	-400.774065	30.514	
O	 0.0060690168	-0.0033254496	 0.1662569757	-0.338334
C	 0.0535384364	 1.2073051207	 0.0868999444	 0.146086
N	 1.2051788417	 1.9189806335	 0.0038264105	-0.044582
C	 2.519947591	 1.2765026003	 0.0202095033	-0.200842
C	 3.4471779303	 2.4578565526	 0.0009596438	-0.089635
C	 2.7861193316	 3.6086085966	-0.0376236698	-0.066942
C	 1.2842401646	 3.388687201	-0.0584000551	-0.220147
C	 0.6374742474	 3.9647520207	-1.2424040684	 0.344534
C	 0.1049242376	 4.4534672915	-2.2021048984	-0.460489
H	-0.8448688386	 1.8543834009	 0.0738159592	 0.081726
H	 2.6356660663	 0.6499175751	 0.9141395527	 0.13613
H	 2.6521455728	 0.6137413254	-0.8457017107	 0.136108
H	 4.5237103249	 2.3453085467	 0.0182431307	 0.118812
H	 3.202844821	 4.6060232282	-0.0681633624	 0.124047
H	 0.8184467171	 3.8348857804	 0.8342504157	 0.12648
H	-0.3663419109	 4.8763259861	-3.0551189111	 0.207049
50.9033	97.9747	146.3527	225.8361	247.901	327.1887	379.8504	450.4938	510.6917	574.4974	633.7699	668.7816	713.6323	762.7289	825.9345	872.2173	950.6254	965.1022	975.3776	1032.3799	1035.3198	1038.3101	1135.7354	1192.2882	1202.4696	1264.5293	1328.4471	1342.5277	1372.7197	1394.2254	1444.0638	1512.3739	1696.9694	1791.3811	2236.3629	2947.9209	2974.493	3015.6776	3038.4475	3214.3267	3240.8194	3500.7927
O=CN1CC=CC1C#C	O=CN1CC=C[C@H]1C#C	
InChI=1S/C7H7NO/c1-2-7-4-3-5-8(7)6-9/h1,3-4,6-7H,5H2	InChI=1S/C7H7NO/c1-2-7-4-3-5-8(7)6-9/h1,3-4,6-7H,5H2/t7-/m1/s1
