19
gdb 119429	2.90865	1.21047	1.03195	2.5239	72.26	-0.2284	0.0506	0.279	1230.9852	0.156957	-460.094765	-460.085439	-460.084495	-460.129208	34.069	
C	-0.0214617998	 1.2004169671	-1.0680925561	-0.227388
O	 0.1729103383	-0.1818717019	-1.2783424324	-0.251032
C	 0.7829001096	-0.8346990198	-0.1725785507	-0.1865
C	 0.8445219165	-2.2889054859	-0.5267021022	 0.364709
C	-0.2975406731	-3.1544958932	-1.0025555857	-0.387723
C	 0.9263966274	-2.945597856	-1.8754726755	 0.301758
O	 0.9082080725	-2.4295830763	-3.1551254382	-0.465622
C	 2.1063028496	-3.7170632847	-1.2948131827	-0.132745
O	 1.8925416153	-3.1038444572	 0.0140374586	-0.336907
H	-0.6679055254	 1.3865904123	-0.1978637887	 0.115533
H	 0.9332162503	 1.7239884583	-0.9099300142	 0.11422
H	-0.5040627917	 1.6016236123	-1.9620245311	 0.133475
H	 1.8050311314	-0.458816072	-0.0072629122	 0.108274
H	 0.2033563725	-0.6470726998	 0.7461161073	 0.102642
H	-0.5018100779	-4.1011517952	-0.5083363825	 0.107992
H	-1.1645650935	-2.6011265308	-1.3497217968	 0.122616
H	 0.7128195411	-1.4879213839	-3.0671882966	 0.29595
H	 2.0478754772	-4.810282793	-1.2569630367	 0.107635
H	 3.0658646699	-3.4004678702	-1.7174044837	 0.113112
65.672	86.3971	118.2269	212.0957	234.5989	269.5946	298.6532	348.319	382.6588	400.6339	453.0867	543.9246	640.4665	744.2317	776.8763	872.2503	919.5307	963.514	972.7706	977.4051	1025.7414	1065.6245	1080.9298	1136.5603	1144.46	1150.7893	1179.5406	1199.3712	1225.9708	1249.5326	1256.9736	1315.7595	1391.3561	1414.5505	1432.7867	1480.852	1486.2926	1495.4377	1504.3209	1521.6715	1528.2083	2964.6012	2985.8805	3001.9204	3032.7737	3035.4135	3088.9045	3108.9564	3121.8295	3212.3687	3775.7284
COCC12CC1(O)CO2	COC[C@@]12C[C@]1(O)CO2	
InChI=1S/C6H10O3/c1-8-4-6-2-5(6,7)3-9-6/h7H,2-4H2,1H3	InChI=1S/C6H10O3/c1-8-4-6-2-5(6,7)3-9-6/h7H,2-4H2,1H3/t5-,6-/m0/s1
