18
gdb 22811	2.27639	1.55499	0.95257	1.1495	80.89	-0.2259	-0.0278	0.1981	1211.6549	0.147384	-439.056743	-439.048095	-439.047151	-439.089952	32.558	
C	 0.0861500412	 1.5017476453	 0.0742263009	-0.481083
C	 0.0360085966	-0.0004171547	 0.0199396847	 0.261847
C	-0.0958898879	-0.6914856786	-1.1220305857	-0.173447
C	-0.0907140195	-2.1926179642	-1.1627458828	-0.130741
O	 0.5141901664	-2.7657912573	-0.0224241478	-0.243045
C	-0.0026850496	-2.2660287336	 1.1930843973	-0.180267
C	 0.0896240906	-0.7561498268	 1.2757767953	 0.282686
N	 0.1537161085	-0.0953028292	 2.3747756211	-0.204436
O	 0.1321736417	-0.9433698193	 3.4910544025	-0.392702
H	 1.0241135499	 1.8453619033	 0.5224302821	 0.137572
H	 0.0001184424	 1.9290508678	-0.9279096905	 0.11244
H	-0.7180997152	 1.899538958	 0.7011353495	 0.136284
H	-0.209603887	-0.1712631516	-2.0695467587	 0.095541
H	-1.1225212999	-2.5741215167	-1.2913048642	 0.099098
H	 0.4858816232	-2.5502264524	-2.0230732387	 0.12093
H	-1.0554508682	-2.570511813	 1.3340529583	 0.107525
H	 0.5793621508	-2.7207971397	 1.9958416308	 0.142673
H	 0.2239365659	-0.3220663576	 4.2209929259	 0.309125
80.6555	170.6944	204.1348	221.6486	233.3213	294.5652	319.5317	381.9166	449.2354	474.9977	520.9286	571.8938	622.9125	748.6405	756.3344	820.7716	900.0177	992.2158	998.5125	1012.7785	1040.3476	1065.6979	1071.9125	1139.3561	1178.9735	1243.5405	1267.2141	1305.743	1355.5997	1364.0608	1407.2173	1418.3494	1435.6836	1472.1404	1478.7692	1489.5894	1490.8086	1690.4205	1711.9064	2916.154	2947.8863	3040.523	3060.2462	3097.6163	3121.2427	3122.6727	3163.9675	3820.8116
CC1=CCOCC1=NO	CC1=CCOCC1=NO	
InChI=1S/C6H9NO2/c1-5-2-3-9-4-6(5)7-8/h2,8H,3-4H2,1H3	InChI=1S/C6H9NO2/c1-5-2-3-9-4-6(5)7-8/h2,8H,3-4H2,1H3
