21
gdb 68043	2.14781	1.81446	1.27773	1.6867	83.54	-0.2484	0.0945	0.3429	1101.4451	0.181071	-387.031794	-387.022927	-387.021983	-387.064597	34.716	
C	-0.016969424	 1.478524595	 0.0314380078	-0.517111
C	 0.006773851	-0.0245535169	 0.0248351402	 0.22324
C	 0.5701994191	-0.9758066837	-1.0865818794	-0.302362
C	 0.0169629892	-1.9508492058	 0.009225625	 0.223235
C	 0.0091326379	-3.4540034084	-0.0085054773	-0.517105
C	 0.6743210731	-0.9926175637	 1.0564133519	-0.29835
C	-1.183412429	-0.9945191497	 0.078297835	 0.488305
C	-2.501640402	-1.0064735453	 0.6915702153	-0.322957
O	-2.3219754618	-0.9938209707	-0.7501411543	-0.311767
H	 0.992457395	 1.8914333761	-0.066704667	 0.120503
H	-0.6200817936	 1.8591032996	-0.7997522606	 0.130141
H	-0.446800815	 1.8621925231	 0.9634140109	 0.117833
H	 0.0498565935	-0.97078169	-2.0471750098	 0.10626
H	 1.657422685	-0.9690325548	-1.2117033901	 0.084125
H	 1.0229366035	-3.8545672114	-0.1125195632	 0.120502
H	-0.417175391	-3.8572206434	 0.916813103	 0.117832
H	-0.5894097141	-3.8274536741	-0.8462052293	 0.130139
H	 1.7677314554	-0.9869268676	 1.0668649724	 0.089879
H	 0.2613591591	-1.0030051573	 2.0696721795	 0.087257
H	-2.9172669342	-1.9303271412	 1.092215751	 0.115201
H	-2.926990047	-0.0936971796	 1.1071231091	 0.115201
170.057	173.2308	192.3824	198.9021	209.7535	245.8211	249.4803	386.901	474.2682	477.9769	587.3393	617.8511	635.46	672.6361	748.8944	786.963	879.8625	907.0125	922.9436	969.967	1008.4868	1013.7266	1049.9426	1052.7258	1066.75	1091.0611	1112.2778	1129.942	1164.2156	1171.0814	1191.8802	1194.3832	1211.7296	1326.2405	1349.5697	1408.2742	1412.6691	1453.1487	1488.2875	1488.962	1490.5424	1491.6679	1493.4974	1525.6258	1573.1446	3028.2487	3028.3733	3044.1236	3049.1623	3079.9278	3094.3333	3094.3483	3099.776	3099.8867	3111.3009	3120.5423	3163.2783
CC12CC(C)(C1)C21CO1	C[C@@]12C[C@@](C)(C1)[C@]12CO1	
InChI=1S/C8H12O/c1-6-3-7(2,4-6)8(6)5-9-8/h3-5H2,1-2H3	InChI=1S/C8H12O/c1-6-3-7(2,4-6)8(6)5-9-8/h3-5H2,1-2H3/t6-,7+,8-
