18
gdb 18381	3.32973	2.2601	1.50912	1.0668	72.67	-0.2354	0.0219	0.2573	860.2135	0.155868	-347.78663	-347.779862	-347.778918	-347.817248	27.221	
C	-0.0156232107	 1.5724296483	 0.0666123301	-0.337587
C	 1.2410152612	 0.7355372977	-0.0894220531	-0.034034
C	 2.2600016562	 0.6689474895	 1.0403410411	-0.274647
C	 2.6390086325	-0.7492370635	 1.4188068173	-0.072838
C	 1.7920045045	-1.7554620474	 1.634805079	-0.031672
C	 0.2858899335	-1.7382036471	 1.5806678722	-0.129124
O	-0.3172475729	-0.4646623359	 1.4166433581	-0.244309
C	-0.0900935519	 0.0790616956	 0.151504269	 0.125293
H	-0.1358430493	 2.117551723	 0.9966942762	 0.122923
H	-0.4397879577	 2.059724845	-0.8042142972	 0.111332
H	 1.6540376012	 0.6440751076	-1.0900712688	 0.084648
H	 3.1585547784	 1.2255956788	 0.7541189919	 0.099155
H	 1.8591895138	 1.1817945529	 1.9223485392	 0.120383
H	 3.7016507516	-0.9508111076	 1.5345310461	 0.0855
H	 2.1981393025	-2.7323509844	 1.8962865361	 0.084582
H	-0.0593965904	-2.4267964328	 0.7876597157	 0.09605
H	-0.1128816792	-2.1339840354	 2.5235515481	 0.115854
H	-0.5653035434	-0.4706641943	-0.6627142409	 0.078491
135.4638	225.2689	300.0236	318.9137	391.4323	429.4059	466.2378	633.9899	689.3679	759.4602	791.6997	825.8521	841.433	881.838	937.8636	948.6432	998.1767	1009.5298	1036.2685	1061.6065	1086.3925	1098.5269	1128.2811	1136.0024	1171.8101	1230.3115	1242.3417	1262.5553	1301.4785	1338.7393	1373.4131	1400.9975	1416.6315	1421.8536	1474.3188	1480.1307	1492.1122	1731.4216	2938.9203	3034.9523	3038.6819	3069.07	3083.2595	3124.9092	3134.592	3145.713	3154.8544	3223.3851
C1C2CC=CCOC12	C1[C@H]2CC=CCO[C@@H]12	
InChI=1S/C7H10O/c1-2-4-8-7-5-6(7)3-1/h1-2,6-7H,3-5H2	InChI=1S/C7H10O/c1-2-4-8-7-5-6(7)3-1/h1-2,6-7H,3-5H2/t6-,7+/m1/s1
