23
gdb 121823	2.87185	0.82548	0.75447	1.8656	83.61	-0.2492	-0.0198	0.2294	1650.8327	0.201321	-425.440173	-425.428686	-425.427742	-425.477365	40.3	
C	 0.0278991498	 1.4122936964	-0.0195828221	-0.386511
C	-0.0201334577	-0.0999702736	 0.1172859633	-0.02566
O	-1.3686899358	-0.5173416577	 0.0440022806	-0.260327
C	-1.5287333018	-1.9153020672	 0.1605460065	-0.061643
C	-3.0222042511	-2.2466202554	 0.0680033725	 0.120249
C	-3.8084909913	-1.5743327836	 1.2137582831	-0.420578
C	-3.6014084128	-1.8067283752	-1.2937200919	-0.420515
C	-3.2177320722	-3.7480757407	 0.1906847002	 0.15028
O	-2.3408789914	-4.561124938	 0.337103912	-0.260466
H	 1.0613805128	 1.7672545338	 0.0337728375	 0.116324
H	-0.3975222084	 1.7251303333	-0.9774574345	 0.125372
H	-0.5445547337	 1.8888784138	 0.7813820013	 0.125374
H	 0.5689038004	-0.5810754147	-0.6816336134	 0.088051
H	 0.4226636755	-0.4172873665	 1.0764293218	 0.088044
H	-0.977447867	-2.4387214382	-0.6363191875	 0.095425
H	-1.1223231607	-2.275812454	 1.118557665	 0.095354
H	-3.7037283612	-0.4897626913	 1.1405941403	 0.14233
H	-4.8730717426	-1.8253523216	 1.1629915532	 0.114134
H	-3.4302000144	-1.8884145968	 2.1921453024	 0.121658
H	-3.0735298341	-2.2882153234	-2.1234674333	 0.121696
H	-4.6636616789	-2.0605301068	-1.3719734965	 0.114132
H	-3.4938556561	-0.7255293552	-1.4035735926	 0.142336
H	-4.2867703374	-4.0644612875	 0.1327975622	 0.074939
57.7147	79.3963	92.3839	110.2066	145.3729	203.5801	213.3323	239.2235	246.3895	294.1737	319.0717	343.0768	397.1446	444.173	478.6991	634.5472	779.5947	821.7672	897.1331	905.5122	932.8312	959.1555	967.3347	1010.2532	1046.5045	1069.6317	1144.8886	1163.0264	1177.4745	1203.2081	1235.5451	1275.5689	1287.0159	1297.5766	1384.7449	1389.3187	1403.5599	1408.356	1427.0858	1452.5615	1480.7742	1483.9025	1490.2136	1494.3099	1499.771	1510.5299	1516.9807	1534.6299	1825.9846	2847.6798	2956.4766	2976.8782	2982.6713	3006.8137	3034.8328	3038.5634	3044.4995	3101.0759	3103.7676	3119.2839	3120.1625	3129.7931	3131.9292
CCOCC(C)(C)C=O	CCOCC(C)(C)C=O	
InChI=1S/C7H14O2/c1-4-9-6-7(2,3)5-8/h5H,4,6H2,1-3H3	InChI=1S/C7H14O2/c1-4-9-6-7(2,3)5-8/h5H,4,6H2,1-3H3
