18
gdb 55934	4.28304	0.98944	0.89583	4.1299	72.14	-0.2362	0.0357	0.272	1299.1344	0.147805	-439.07636	-439.068011	-439.067067	-439.110092	31.715	
N	 0.0845301424	 0.3228315786	 0.9848181558	-0.507805
C	-0.0463577835	 0.0336919833	-0.3415651458	 0.366346
O	 0.6063344457	 0.5753510673	-1.2122651356	-0.360111
C	-1.1323810323	-1.0040107059	-0.6541105388	-0.314279
C	-0.9728123831	-2.3223587747	 0.0899255309	 0.121937
O	-1.0577918989	-2.2046481556	 1.5523269617	-0.310993
C	-2.0357871417	-3.2510817973	 1.5927844354	 0.111294
C	-3.2851124652	-2.8428471558	 0.8855941526	-0.301016
C	-2.1008289924	-3.356254636	 0.0885488228	-0.147872
H	 0.8426599237	 0.9292826415	 1.2532260839	 0.254461
H	-0.342152831	-0.2751373741	 1.6774620948	 0.272678
H	-2.1113643665	-0.5678814291	-0.4276949664	 0.119971
H	-1.0859341859	-1.1931119402	-1.7293271782	 0.131555
H	-0.0110070292	-2.7867148234	-0.1591574012	 0.09989
H	-1.9509802984	-3.9869098862	 2.3830916588	 0.112512
H	-4.1090982314	-3.5465444627	 0.9516979168	 0.122312
H	-3.5775476663	-1.7972770472	 0.8653338362	 0.121051
H	-2.1532006961	-4.2225547926	-0.5558573537	 0.108067
48.227	77.8054	169.8142	209.1296	308.8269	391.3875	428.7546	474.873	493.0937	572.0842	600.5119	699.8926	744.841	771.5944	818.1563	850.3723	876.3206	949.7146	966.5734	990.5282	1003.8277	1040.6341	1050.6639	1068.595	1086.3042	1105.8708	1138.9808	1198.5976	1213.4532	1260.3795	1274.3912	1313.4485	1357.0269	1368.4524	1394.3529	1459.1984	1475.1351	1624.7981	1803.7531	3034.6756	3053.9019	3116.6285	3121.0639	3188.5476	3207.1294	3216.0393	3557.563	3702.81
NC(=O)CC1OC2CC12	NC(=O)C[C@H]1O[C@H]2C[C@@H]12	
InChI=1S/C6H9NO2/c7-6(8)2-5-3-1-4(3)9-5/h3-5H,1-2H2,(H2,7,8)	InChI=1S/C6H9NO2/c7-6(8)2-5-3-1-4(3)9-5/h3-5H,1-2H2,(H2,7,8)/t3-,4+,5-/m1/s1
