17
gdb 80755	3.78031	1.22561	1.1856	1.8421	67.44	-0.2425	-0.0299	0.2126	1073.7798	0.135567	-458.944915	-458.937024	-458.936079	-458.97769	29.804	
O	 0.3412855866	 0.8864246518	 0.5081458168	-0.427606
C	-0.061595314	-0.3262233533	-0.0403445572	 0.098617
C	-1.5421749557	-0.6175403458	-0.2672978999	-0.119924
C	-2.4838179725	 0.5794006745	-0.174771651	-0.281414
C	-2.2177861266	 1.3158983622	-1.5191154958	 0.00261
O	-0.8993453266	 0.9586248175	-1.9173914254	-0.259347
C	-0.6251567209	-0.3414133333	-1.4336049308	 0.019106
C	-3.2498356111	 0.9008206348	-2.559686933	 0.157382
O	-3.025825975	 0.1874817802	-3.4994418698	-0.231564
H	 0.3470760169	 1.5218365413	-0.221293605	 0.296801
H	 0.558882468	-1.1611777482	 0.2736690853	 0.103348
H	-1.9211430426	-1.6126616907	-0.0697787354	 0.100236
H	-3.5271501369	 0.270247592	-0.0691152031	 0.114566
H	-2.2294150167	 1.2249331539	 0.6697943409	 0.13194
H	-2.2578783805	 2.4066701863	-1.4111169185	 0.104856
H	-0.3537954896	-1.05997826	-2.1978808601	 0.113204
H	-4.2716489926	 1.3016301367	-2.355783398	 0.077189
75.441	115.8982	174.1475	211.577	311.4171	351.5849	417.5172	525.3151	624.8506	662.2756	721.0029	760.5692	773.8579	801.9013	830.4218	891.6399	928.0038	967.5351	1013.2874	1019.7744	1062.1552	1078.7627	1097.6659	1105.7478	1139.0748	1198.3997	1211.8802	1250.7728	1288.0404	1322.0126	1336.3874	1350.4583	1383.0382	1413.4804	1432.4884	1489.9333	1844.7349	2849.2792	3044.4312	3064.0871	3108.2746	3146.9957	3179.6595	3190.1125	3741.153
OC1C2CC(OC12)C=O	O[C@H]1[C@H]2C[C@@H](O[C@@H]12)C=O	
InChI=1S/C6H8O3/c7-2-3-1-4-5(8)6(4)9-3/h2-6,8H,1H2	InChI=1S/C6H8O3/c7-2-3-1-4-5(8)6(4)9-3/h2-6,8H,1H2/t3-,4-,5+,6-/m1/s1
