15
gdb 36540	3.68532	1.17444	0.9234	1.6855	73.15	-0.2422	-0.0198	0.2224	1194.292	0.113976	-413.017766	-413.009709	-413.008765	-413.05133	28.786	
N	-0.1292352481	-0.4387817424	-1.2523164387	-0.325298
C	 0.040172971	 0.3483222541	-0.4213990235	 0.240931
C	 0.2969333028	 1.4014576058	 0.5783428517	-0.273967
N	 1.4299724768	 2.277524435	 0.3379113739	-0.347381
C	 1.7598799496	 2.6653644901	-0.8285716355	 0.420603
C	 2.8948464816	 3.6433267763	-1.1236887314	-0.247732
N	 2.9536720956	 3.787240273	-2.5831766431	-0.238262
C	 2.02230496	 3.046585259	-3.0379103322	 0.071599
N	 1.2486745341	 2.377965207	-2.0897121636	-0.357216
H	-0.6257237293	 1.9918616456	 0.6786749735	 0.159736
H	 0.4449406518	 0.906401093	 1.544338796	 0.16542
H	 2.7083281392	 4.6124060065	-0.648505787	 0.149932
H	 3.848267455	 3.2737057528	-0.7325396975	 0.152659
H	 1.7933768444	 2.9195335497	-4.0908656034	 0.143946
H	 0.5936142556	 1.6401539746	-2.2964175591	 0.28503
40.9287	119.1252	155.1742	204.713	250.9773	366.649	422.6285	445.3081	526.3139	605.1198	636.4236	709.2326	868.352	886.1825	911.0374	928.9107	978.0738	997.0504	997.5397	1052.2012	1094.9584	1185.6456	1212.3607	1262.8962	1292.7736	1346.5313	1354.5519	1419.1544	1449.508	1461.7403	1688.7173	1770.4762	2338.9719	3008.2802	3055.1079	3064.9431	3088.8651	3200.4369	3631.9611
N#CCN=C1CN=CN1	N#CCN=C1CN=CN1	
InChI=1S/C5H6N4/c6-1-2-8-5-3-7-4-9-5/h4H,2-3H2,(H,7,8,9)	InChI=1S/C5H6N4/c6-1-2-8-5-3-7-4-9-5/h4H,2-3H2,(H,7,8,9)
