19
gdb 62690	2.42859	1.75368	1.30664	1.2661	75.47	-0.2231	0.0567	0.2798	1035.2619	0.15605	-422.940523	-422.931673	-422.930729	-422.973138	34.724	
C	-0.0856342771	 1.6162984735	-0.0339198658	-0.479651
C	 0.1251200849	 0.1182055754	 0.0335298534	 0.356966
O	-0.9706988659	-0.5679820917	-0.5439817239	-0.463955
C	 1.4092298692	-0.6807347731	-0.190356439	-0.228066
C	 2.6703937489	-0.1699156312	 0.5561696309	 0.010752
O	 2.3958674197	 1.0674461205	 1.2311014566	-0.246541
C	 1.9614828102	-0.1607999404	 1.8313943825	-0.044866
C	 0.6620417613	-0.7253905215	 1.162239223	 0.244144
C	-0.0823053558	-1.8532046425	 1.8166927218	-0.495296
H	-0.1375893433	 1.9318750876	-1.0848892584	 0.098915
H	-1.0456760847	 1.8600784203	 0.4332206514	 0.119541
H	 0.7111236937	 2.1710524647	 0.4507867134	 0.158876
H	-1.0596539922	-0.2483876744	-1.4485894861	 0.280996
H	 1.4348376356	-1.4546744468	-0.9473537178	 0.090804
H	 3.7036157243	-0.379751691	 0.3057806107	 0.111409
H	 2.2840632129	-0.3618718506	 2.8468705858	 0.107489
H	-0.5936936769	-1.5087514589	 2.7245586047	 0.117382
H	-0.8319951315	-2.2628789905	 1.1385945014	 0.148467
H	 0.6000112168	-2.6602019395	 2.1093366257	 0.112634
163.0513	184.8224	188.3093	216.1173	266.8284	282.5103	287.342	364.0733	385.5135	431.8326	495.3206	612.7961	629.9307	712.7942	744.797	803.5021	837.6589	877.4601	898.1389	922.5222	936.0864	973.4878	982.7282	1043.3326	1084.2652	1108.4074	1142.9502	1165.4834	1197.5885	1213.3932	1253.1868	1270.0538	1297.6866	1373.4734	1398.7366	1407.4249	1461.148	1488.4289	1493.0214	1499.2389	1508.452	3017.6908	3020.0171	3069.9571	3083.4141	3142.0064	3173.8686	3187.5393	3196.4942	3202.333	3800.7429
CC1(O)C2C3OC3C12C	C[C@@]1(O)[C@H]2[C@H]3O[C@H]3[C@@]12C	
InChI=1S/C7H10O2/c1-6-4(7(6,2)8)3-5(6)9-3/h3-5,8H,1-2H3	InChI=1S/C7H10O2/c1-6-4(7(6,2)8)3-5(6)9-3/h3-5,8H,1-2H3/t3-,4+,5-,6+,7-/m1/s1
