20
gdb 120707	2.47499	1.18743	0.91498	6.7719	76.67	-0.2374	0.0312	0.2687	1327.1518	0.171783	-440.301939	-440.292791	-440.291847	-440.336214	33.736	
C	-0.5150216713	 1.3812171963	-0.2420283723	-0.325451
N	-0.8181359678	 0.0153321822	 0.1913196866	-0.302611
H	-0.1242351215	-0.2848216908	 0.8688447517	 0.23772
H	-2.4315603444	-0.2235040629	 0.7547713522	 0.32139
C	-0.8552108508	-0.9524137537	-0.9110546522	-0.183836
C	-1.3410295612	-2.3288356138	-0.4824821179	-0.042676
C	-1.4205262664	-2.7788284174	 0.948123837	-0.315295
C	-2.6991381392	-2.6249956773	 0.140551657	-0.128855
C	-3.7707788424	-1.627665449	 0.5025311817	 0.391492
O	-4.9325897146	-1.9519075464	 0.4715290844	-0.346604
O	-3.405582335	-0.3970226118	 0.879797736	-0.402262
H	-0.4242931271	 2.0279742725	 0.6339953398	 0.135582
H	 0.4128449018	 1.451340909	-0.8299362205	 0.115102
H	-1.33922805	 1.7552643646	-0.8564150702	 0.146724
H	-1.523726368	-0.5456229701	-1.6797516235	 0.130058
H	 0.1353407953	-1.0578588419	-1.3831128195	 0.103009
H	-1.0333565361	-3.0949882506	-1.1884478443	 0.104154
H	-1.0982651194	-3.7811536313	 1.2060734168	 0.125679
H	-1.2586816371	-2.0465916796	 1.7315781681	 0.122253
H	-3.1619851049	-3.546579608	-0.190870341	 0.114428
77.0606	104.3596	121.001	199.8481	237.4633	246.0071	286.4829	332.1064	367.3692	483.9463	559.654	646.0444	732.8497	781.3495	802.5805	823.8949	875.8474	930.1616	947.4119	1007.0151	1027.0174	1041.8104	1052.5035	1084.7873	1124.0786	1144.87	1148.4386	1179.718	1197.9337	1230.3081	1306.6466	1312.2899	1369.0065	1390.6635	1411.8999	1460.5825	1468.9438	1480.2513	1492.204	1495.7213	1509.1229	1516.166	1832.1116	2968.149	2990.2755	3049.6115	3085.2049	3124.4455	3126.8797	3140.449	3148.0064	3188.183	3224.9392	3518.5537
C[NH2+]CC1CC1C([O-])=O	CNC[C@H]1C[C@H]1C(=O)O	
InChI=1S/C6H11NO2/c1-7-3-4-2-5(4)6(8)9/h4-5,7H,2-3H2,1H3,(H,8,9)	InChI=1S/C6H11NO2/c1-7-3-4-2-5(4)6(8)9/h4-5,7H,2-3H2,1H3,(H,8,9)/t4-,5-/m1/s1
