16
gdb 112113	2.55849	1.44403	0.96069	3.0824	66.41	-0.2495	-0.0444	0.2051	1161.1951	0.124411	-475.036745	-475.028338	-475.027394	-475.071512	29.773	
O	-0.2355986512	 1.5493980146	 0.2249786117	-0.422037
C	-0.0099800994	 0.1627089281	 0.2736231278	-0.046199
C	-1.2955366663	-0.6049419765	-0.0973965407	-0.113034
N	-1.7507514816	-0.1232835291	-1.3992656899	-0.295233
C	-2.1368289856	-0.9387363174	-2.2821712756	 0.137601
O	-2.2397258546	-2.2830768117	-2.236688385	-0.22272
C	-1.852514869	-2.9550372268	-1.0325663448	-0.169574
C	-1.1156098176	-2.1069541361	-0.0014310076	 0.336294
O	-0.4636727319	-2.6467278062	 0.8597630953	-0.301872
H	-0.6874331533	 1.7113734133	-0.61425655	 0.293147
H	 0.7967618973	-0.1490463651	-0.409811332	 0.088788
H	 0.290941751	-0.0988581432	 1.2901339377	 0.129212
H	-2.0563201363	-0.3224394873	 0.6471688216	 0.134019
H	-2.454877866	-0.5861917495	-3.2611770577	 0.139888
H	-2.7581806967	-3.3535249739	-0.5558530431	 0.153314
H	-1.2206919288	-3.8021536934	-1.3110468778	 0.158407
36.6833	45.0935	119.8778	183.901	305.292	344.6577	468.027	487.2306	497.7877	523.1095	547.8956	606.0512	767.5557	852.7851	892.2221	962.1016	972.3969	996.7223	1062.3974	1094.8604	1100.8472	1167.7342	1216.3991	1226.859	1253.4816	1276.9467	1317.0243	1368.2609	1380.8434	1413.7445	1434.8746	1470.5762	1509.0705	1749.8644	1820.6886	2970.6468	2994.05	3027.9158	3105.8125	3113.7363	3167.5204	3756.6744
OCC1N=COCC1=O	OC[C@H]1N=COCC1=O	
InChI=1S/C5H7NO3/c7-1-4-5(8)2-9-3-6-4/h3-4,7H,1-2H2	InChI=1S/C5H7NO3/c7-1-4-5(8)2-9-3-6-4/h3-4,7H,1-2H2/t4-/m1/s1
