22
gdb 111302	2.33776	1.34709	1.15267	2.5306	81.07	-0.2369	0.0671	0.3041	1208.1408	0.193357	-404.29992	-404.290424	-404.28948	-404.333657	36.656	
C	-0.2602013855	 1.5798004647	-0.0492912569	-0.450229
C	-0.0121404549	 0.0727660159	 0.0403732752	 0.279008
C	-1.276120776	-0.6418380976	 0.52521928	-0.446643
C	 0.5843679985	-0.613970812	-1.1994008132	-0.046614
C	 1.9488333853	-0.156461628	-1.5039799147	-0.266281
N	 1.7782158101	-1.1698910835	-0.4385069535	-0.16289
C	 1.263182902	-0.4475094285	 0.7919524938	-0.011962
C	 2.2767559483	 0.4650702609	 1.4604599502	-0.07876
O	 3.3990616865	-0.2838930086	 1.8971525159	-0.423729
H	 0.610580012	 2.1343964013	-0.4079053035	 0.114231
H	-1.0896536131	 1.7889665024	-0.7343626338	 0.116742
H	-0.5338149879	 1.9879121621	 0.930277309	 0.117833
H	-2.1217206824	-0.433901672	-0.1406333058	 0.113056
H	-1.132409739	-1.7264086149	 0.5581205697	 0.125027
H	-1.5535158358	-0.3058959029	 1.5305019438	 0.116505
H	 0.0154469514	-1.2389043555	-1.8826203356	 0.091941
H	 2.4300557363	-0.5695948651	-2.3852758591	 0.123267
H	 2.265287517	 0.852359689	-1.257070197	 0.113997
H	 0.994202955	-1.2208252756	 1.5176366768	 0.089601
H	 2.5855714759	 1.2875176257	 0.7971908523	 0.082189
H	 1.8352963334	 0.9236647621	 2.35265936	 0.108429
H	 3.6470918528	-0.8620989098	 1.1658806964	 0.295284
88.7825	149.0044	172.7699	199.1049	239.9123	276.4031	302.054	317.8612	349.509	381.5693	476.4306	503.1801	552.2308	621.7091	749.0189	758.0783	815.5109	898.7769	912.793	954.7253	990.1082	995.4417	1019.1787	1048.6313	1063.1364	1069.375	1111.4269	1113.6119	1150.756	1196.8595	1210.6743	1222.376	1226.8841	1267.6093	1287.0733	1336.1917	1370.2185	1393.6692	1403.4432	1425.4242	1434.2235	1483.8083	1485.6668	1498.1557	1503.3602	1509.5622	1519.6981	2984.95	3023.7389	3030.8051	3054.6421	3067.8852	3087.6189	3092.6561	3102.8739	3111.6217	3121.9261	3145.8922	3203.4358	3789.8486
CC1(C)C2CN2C1CO	CC1(C)[C@H]2CN2[C@H]1CO	
InChI=1S/C7H13NO/c1-7(2)5-3-8(5)6(7)4-9/h5-6,9H,3-4H2,1-2H3	InChI=1S/C7H13NO/c1-7(2)5-3-8(5)6(7)4-9/h5-6,9H,3-4H2,1-2H3/t5-,6+,8?/m1/s1
