20
gdb 118741	3.29791	0.95534	0.86824	3.2819	78.13	-0.2575	0.0312	0.2887	1423.6768	0.168778	-440.281767	-440.272056	-440.271112	-440.316758	35.256	
C	-0.0088899637	 1.4373071859	-0.1938793796	-0.227251
O	-0.0411026047	 0.0341372143	-0.0759601732	-0.233756
C	 0.7236181955	-0.4458241154	 1.0005282795	-0.087528
C	 0.5927661177	-1.957647987	 1.0838758875	 0.38249
C	 0.8636596577	-2.663325094	-0.2306437276	-0.440301
C	 1.2323939187	-2.5686775135	 2.3553647367	-0.42247
C	-0.1960199619	-2.8852946944	 2.7391139621	 0.434642
N	-0.7401346649	-3.4446634843	 3.7213452787	-0.54554
O	-0.7440983902	-2.3320695344	 1.6045974171	-0.282564
H	 1.0139360977	 1.8090354748	-0.3647358672	 0.105219
H	-0.630998015	 1.7060990225	-1.0504729087	 0.132687
H	-0.40828699	 1.9303863764	 0.7058199769	 0.110459
H	 1.7912487124	-0.1900011299	 0.8717363976	 0.089595
H	 0.3890580569	 0.0005167627	 1.951440325	 0.094957
H	 1.8884279917	-2.4650107186	-0.5621341902	 0.119919
H	 0.7371013866	-3.7431878932	-0.1174920324	 0.123795
H	 0.1783632332	-2.3008253664	-0.9988751621	 0.152063
H	 1.8705105138	-3.4384055702	 2.1908176353	 0.135663
H	 1.7382622835	-1.8666066142	 3.0220637569	 0.131884
H	-1.7559481951	-3.4675944913	 3.6133826576	 0.226037
59.4151	97.9595	105.0789	171.2572	220.1346	230.3587	313.6124	332.4798	348.3124	372.4601	465.4036	502.4013	515.2554	688.9416	805.9567	863.4383	869.4112	903.2537	954.0972	966.7227	992.2015	1011.0789	1030.2789	1091.9597	1136.5343	1164.8102	1183.8063	1196.4964	1230.6163	1249.7703	1272.5761	1307.8998	1319.8573	1407.6405	1425.4817	1463.0628	1477.4161	1484.2838	1485.6863	1493.9602	1497.3377	1519.9232	1823.0884	2941.3785	2973.4001	2987.0204	3019.4571	3045.5766	3079.9128	3115.325	3120.3467	3134.9671	3144.1694	3471.8722
COCC1(C)CC(=N)O1	COC[C@@]1(C)C[C]([NH])O1	
InChI=1S/C6H11NO2/c1-6(4-8-2)3-5(7)9-6/h7H,3-4H2,1-2H3	InChI=1S/C6H11NO2/c1-6(4-8-2)3-5(7)9-6/h7H,3-4H2,1-2H3/t6-/m1/s1
