16
gdb 85100	2.00481	1.61767	1.22744	2.6809	72.45	-0.2425	0.0046	0.2471	1087.8977	0.121282	-437.866932	-437.857427	-437.856483	-437.901115	34.487	
C	-0.0251286677	 1.568763793	 0.0039105332	-0.395581
C	 0.0235701202	 0.0508715186	 0.0176605291	 0.02701
N	 1.0881959515	-0.5645294513	-0.7946450315	-0.336433
C	 1.7756809045	-1.143732006	 0.2319724021	 0.383727
O	 2.8039342254	-1.7572054091	 0.3151033965	-0.363138
C	 0.705560882	-0.6280497649	 1.266671792	 0.054307
O	 1.2190217445	 0.3245969732	 2.1709114309	-0.447606
C	-0.0684896573	-1.6729619933	 1.9162951696	 0.298239
C	-0.6841498977	-2.5529367244	 2.4567234998	-0.469914
H	 0.9458648382	 1.9937950881	 0.263205672	 0.139293
H	-0.319677076	 1.9280771419	-0.9878106638	 0.115118
H	-0.7635831402	 1.9284509465	 0.7262476241	 0.136333
H	-0.960590309	-0.3771318186	-0.1960604062	 0.099714
H	 1.3085879059	-0.486597958	-1.77699821	 0.253551
H	 1.8797730176	-0.1235113234	 2.7123542284	 0.300307
H	-1.2270667019	-3.3291129424	 2.9376354038	 0.205071
82.0092	105.6574	145.4063	166.5598	209.2185	260.8954	284.3642	321.8444	393.5687	441.8009	491.0624	528.5119	621.0975	628.3712	670.3817	673.4296	725.3783	775.9962	880.0035	898.2064	1027.2089	1080.2125	1104.4008	1146.6409	1171.8692	1204.7298	1286.6299	1341.3217	1382.4197	1398.8426	1411.7797	1488.591	1490.3284	1900.632	2230.804	3043.6544	3060.9805	3111.0743	3145.3517	3499.3835	3606.0398	3799.966
CC1NC(=O)C1(O)C#C	C[C@H]1NC(=O)[C@]1(O)C#C	
InChI=1S/C6H7NO2/c1-3-6(9)4(2)7-5(6)8/h1,4,9H,2H3,(H,7,8)	InChI=1S/C6H7NO2/c1-3-6(9)4(2)7-5(6)8/h1,4,9H,2H3,(H,7,8)/t4-,6+/m1/s1
