21
gdb 79868	2.8453	1.56193	1.33489	1.599	81.95	-0.2297	0.0927	0.3224	1067.2461	0.183168	-387.057278	-387.049161	-387.048216	-387.089395	32.358	
C	-0.1863481775	 1.5750456831	-0.0191452352	-0.428217
C	 0.0009964342	 0.0650665149	 0.0023160418	-0.026092
C	 1.2338330798	-0.5897251401	-0.6708097561	-0.107639
C	 2.1347470327	-0.1773663636	 0.541646363	-0.104536
C	 3.1079191423	-1.326236696	 0.7720574547	-0.115137
O	 2.2515443842	-2.4588859418	 0.5431896577	-0.287863
C	 1.0190449583	-1.8380033172	 0.2288824924	 0.112588
C	 0.7588877567	-0.6229680706	 1.1740308481	 0.301404
C	 0.3976261908	-0.6637174729	 2.6342515763	-0.530657
H	 0.7321538417	 2.1185117326	 0.2197859158	 0.11408
H	-0.5209736605	 1.91007507	-1.0072037453	 0.116577
H	-0.9506935353	 1.8819958918	 0.7036983828	 0.115779
H	-0.9471592189	-0.4294649198	-0.2486484905	 0.058515
H	 1.5149409855	-0.5794501363	-1.7249090307	 0.066657
H	 2.5017205437	 0.8416415423	 0.6539233126	 0.069303
H	 3.945692142	-1.3374652972	 0.0631288802	 0.099802
H	 3.5124348275	-1.3589116952	 1.7919081151	 0.099296
H	 0.2497331191	-2.5807245196	 0.0177546865	 0.079961
H	 1.1061960223	-1.2826813596	 3.1953826092	 0.127934
H	 0.4011772628	 0.3384983318	 3.0773402718	 0.118445
H	-0.6014374614	-1.0897375866	 2.7796580197	 0.1198
172.8254	185.6863	193.2825	219.1916	244.0039	259.4094	355.7994	492.2856	507.1986	634.7791	668.0299	740.827	756.9924	793.8072	822.9189	910.0555	924.8753	962.699	967.5486	986.872	993.5886	1020.1181	1058.4836	1077.8623	1082.5758	1123.0938	1132.7708	1147.2169	1158.584	1199.9351	1206.8017	1228.4063	1252.25	1276.1205	1301.0613	1339.8873	1381.2907	1406.9763	1413.2183	1434.0077	1488.3782	1489.4204	1494.6319	1502.3632	1521.8443	3010.2146	3012.4991	3024.9451	3031.7385	3048.1061	3087.2712	3089.4449	3095.2077	3101.247	3108.9161	3128.057	3133.8923
CC1C2C3COC2C13C	C[C@H]1[C@H]2[C@@H]3CO[C@H]2[C@]13C	
InChI=1S/C8H12O/c1-4-6-5-3-9-7(6)8(4,5)2/h4-7H,3H2,1-2H3	InChI=1S/C8H12O/c1-4-6-5-3-9-7(6)8(4,5)2/h4-7H,3H2,1-2H3/t4-,5-,6-,7+,8+/m0/s1
