17
gdb 84048	3.55693	1.20086	0.99538	1.821	84.07	-0.2321	-0.0325	0.1996	1201.6124	0.134945	-384.650874	-384.642717	-384.641772	-384.683421	31.501	
C	-0.1138355958	 1.5747544725	 0.1035040737	-0.394889
C	 0.0124454657	 0.0454509319	 0.0124080718	-0.054447
C	 0.7927216987	-0.4339850654	-1.1952252659	-0.20074
C	 1.8186059104	-1.2436048978	-0.8743440622	 0.2121
C	 2.7296233613	-1.8780513118	-1.7489459647	 0.21082
C	 3.5188904825	-2.4486885888	-2.4587670885	-0.423126
C	 1.8974598582	-1.3716663236	 0.6247152046	-0.099469
O	 2.1433882522	-0.1108673881	 1.2798216159	-0.251542
C	 0.7932000106	-0.5729665115	 1.1734541399	 0.031195
H	 0.8764810161	 2.0252116207	 0.2059403751	 0.142169
H	-0.5923662289	 1.9834561372	-0.7915679765	 0.116837
H	-0.7173492339	 1.8639584643	 0.9695321998	 0.118481
H	-0.9974443925	-0.3903630569	-0.007955534	 0.090871
H	 0.5547011302	-0.1148423564	-2.2035641105	 0.10799
H	 4.2134966707	-2.9391688646	-3.0946196992	 0.193989
H	 2.3359427546	-2.2432238617	 1.0996433366	 0.10328
H	 0.3009192901	-0.7981948797	 2.1158170139	 0.096482
108.2545	140.1644	179.9776	232.5539	258.8227	385.6678	417.7773	493.845	521.6485	569.9366	586.982	642.0885	653.4668	714.2103	824.5428	854.8033	877.7995	884.297	909.1851	941.0684	1019.0704	1033.807	1086.4276	1112.9404	1124.4428	1181.9276	1253.1151	1264.4312	1301.4604	1321.9841	1344.1543	1397.3434	1417.7292	1494.4441	1504.5691	1652.0005	2223.0782	2999.0371	3041.0164	3107.6391	3129.3914	3147.5528	3175.2347	3201.0319	3502.9774
CC1C=C(C#C)C2OC12	C[C@H]1C=C(C#C)[C@H]2O[C@@H]12	
InChI=1S/C8H8O/c1-3-6-4-5(2)7-8(6)9-7/h1,4-5,7-8H,2H3	InChI=1S/C8H8O/c1-3-6-4-5(2)7-8(6)9-7/h1,4-5,7-8H,2H3/t5-,7-,8+/m0/s1
