16
gdb 70109	2.5178	1.65923	1.28771	3.7825	72.67	-0.2676	-0.0253	0.2423	1008.2808	0.125142	-396.92509	-396.917293	-396.916349	-396.957407	29.289	
C	-0.0219072241	 1.5047195466	 0.0101783439	-0.487037
C	 0.0218772885	-0.0000666433	 0.0236358328	 0.315955
C	 0.3229264255	-0.7707932351	 1.2530185367	-0.285541
N	 1.334446198	-0.6791471367	 0.1561559333	-0.154818
C	 1.2085436725	-1.79042114	-0.7241662836	 0.042853
N	 0.1641493638	-1.9131295058	-1.4417275389	-0.198291
C	-0.7127469669	-0.7690565301	-1.0992229484	-0.190896
C	-2.0577339507	-1.2192781661	-0.7275731605	 0.301721
N	-3.1184707499	-1.5434653596	-0.4046328157	-0.325421
H	 0.6511198325	 1.9181737451	 0.7649697706	 0.139268
H	 0.2793281562	 1.8955176016	-0.9674185724	 0.132657
H	-1.0360222361	 1.8592354603	 0.2225124076	 0.142345
H	 0.5973127461	-0.2391416054	 2.1584545176	 0.135861
H	-0.1611391715	-1.7317744515	 1.4033911343	 0.148696
H	 2.032399607	-2.4966764618	-0.7710909425	 0.143519
H	-0.811023181	-0.1259348383	-1.9837332748	 0.139128
98.7476	139.9192	188.3393	246.8176	302.1032	364.8205	392.7764	501.7661	541.1003	553.3445	627.8639	762.9308	785.7343	827.7494	907.7829	944.8219	969.737	979.1753	1002.874	1039.924	1065.311	1101.3389	1130.7259	1156.9649	1229.6073	1281.0321	1318.2884	1322.3272	1391.7191	1420.3301	1485.9132	1491.7191	1502.9067	1671.3497	2363.536	3025.9956	3038.0386	3103.9843	3118.729	3126.3708	3192.3316	3214.0921
CC12CN1C=NC2C#N	C[C@]12CN1C=N[C@H]2C#N	
InChI=1S/C6H7N3/c1-6-3-9(6)4-8-5(6)2-7/h4-5H,3H2,1H3	InChI=1S/C6H7N3/c1-6-3-9(6)4-8-5(6)2-7/h4-5H,3H2,1H3/t5-,6+,9?/m0/s1
