19
gdb 100529	2.72033	1.00932	0.81017	0.5461	68.89	-0.2653	-0.0498	0.2156	1415.6482	0.156397	-497.307215	-497.297018	-497.296074	-497.342747	36.962	
C	 0.3745576738	 1.1813811724	-0.2286519279	-0.408368
C	-0.0496789709	-0.159593066	 0.379958952	 0.059559
O	 0.2824060743	-0.1870228069	 1.7412511057	-0.434734
C	-1.5231536295	-0.5035338659	 0.1946608822	 0.339061
O	-2.1814043623	-0.859051096	 1.1556245047	-0.353897
C	-2.1862567108	-0.4766843297	-1.1747996003	 0.00999
O	-3.2190160057	-1.4451537089	-1.2219964477	-0.439201
C	-2.8141376798	 0.9073562846	-1.476851516	-0.066934
O	-3.5574663249	 0.8350241703	-2.6671359589	-0.416343
H	 1.4306515957	 1.3429026538	-0.0005850301	 0.143867
H	 0.2546593454	 1.1923147444	-1.3154028481	 0.127248
H	-0.1964571614	 2.0052854639	 0.2082608906	 0.133972
H	 0.485684765	-0.9633184328	-0.1639405815	 0.102428
H	-0.4884151821	-0.5587551352	 2.196826426	 0.295907
H	-1.4645982731	-0.717676371	-1.9635816507	 0.105475
H	-3.5181114086	-1.5514804282	-0.3058772642	 0.29788
H	-3.440384881	 1.1947196923	-0.6155926849	 0.094906
H	-2.0486601676	 1.6755016437	-1.6137661885	 0.116441
H	-4.0922217066	 0.0335639151	-2.5871893425	 0.292743
61.5368	74.3688	107.5456	169.5421	213.134	258.0164	298.7449	319.4915	343.877	374.8846	413.1073	442.3407	465.4579	538.003	549.5584	653.2052	730.5111	855.6335	885.5713	943.172	1014.3997	1033.9735	1068.2097	1086.2843	1109.0553	1135.7049	1194.0938	1216.762	1273.5731	1281.1728	1310.8485	1352.5591	1382.0044	1403.8107	1425.3846	1436.1943	1442.4524	1489.25	1498.8558	1505.8861	1766.4268	2911.1912	2967.0989	3048.0864	3056.4021	3101.3427	3126.8536	3131.1434	3706.0383	3716.1795	3761.5314
CC(O)C(=O)C(O)CO	C[C@@H](O)C(=O)[C@@H](O)CO	
InChI=1S/C5H10O4/c1-3(7)5(9)4(8)2-6/h3-4,6-8H,2H2,1H3	InChI=1S/C5H10O4/c1-3(7)5(9)4(8)2-6/h3-4,6-8H,2H2,1H3/t3-,4+/m1/s1
