18
gdb 128132	3.14083	1.26747	0.96932	4.1175	76.39	-0.2078	0.0184	0.2262	1239.4143	0.148761	-431.434512	-431.425033	-431.424089	-431.469323	33.498	
C	-0.596329933	 1.0836167817	 0.2469665887	-0.324654
N	 0.3756362158	 0.0690316616	-0.1883047394	-0.392346
C	 0.9383476288	-0.6896850976	 0.8581704573	 0.219709
C	 0.6408047635	-2.0088882053	 1.1465927154	 0.291011
N	-0.2797720744	-2.877259343	 0.5730077287	-0.612558
N	 1.4000497682	-2.2987341316	 2.2261145128	 0.014271
C	 1.490596277	-3.5339365792	 2.9673092098	-0.34011
N	 2.1563490646	-1.2145244117	 2.5825427165	-0.177217
N	 1.8582274242	-0.2525955493	 1.7632249738	-0.243083
H	-0.1786899804	 1.8133057675	 0.9547358584	 0.125179
H	-0.9738335437	 1.6173085826	-0.6305564794	 0.113406
H	-1.4416795677	 0.5859617663	 0.7315006708	 0.125437
H	 1.1140432275	 0.5193788952	-0.7189453553	 0.233959
H	-0.6413541511	-2.4628455398	-0.2797512738	 0.261858
H	 0.090877168	-3.7995877831	 0.3747533259	 0.250504
H	 2.0876773874	-3.3331018471	 3.8570767319	 0.170019
H	 0.4933858202	-3.8750716273	 3.2606983025	 0.149766
H	 1.9795648351	-4.32029365	 2.3809812456	 0.134848
47.6746	106.207	116.5177	180.0283	210.4626	243.8031	282.4796	292.7468	300.1104	430.405	530.5776	601.3039	675.4884	722.1726	745.5581	772.5635	818.0882	836.9895	1001.4353	1022.7742	1074.12	1149.3715	1152.6708	1170.4421	1235.7999	1247.3833	1259.6965	1339.7397	1389.0915	1440.699	1453.1999	1475.2173	1484.5731	1489.6015	1506.8425	1519.6297	1564.2284	1629.695	1669.0187	3003.762	3032.8937	3078.0489	3097.381	3110.7654	3158.2843	3509.745	3520.0077	3599.2939
CNC1=C(N)N(C)N=N1	CNc1c(N)n(C)nn1	
InChI=1S/C4H9N5/c1-6-4-3(5)9(2)8-7-4/h6H,5H2,1-2H3	InChI=1S/C4H9N5/c1-6-4-3(5)9(2)8-7-4/h6H,5H2,1-2H3
