20
gdb 70684	2.20346	1.84857	1.22727	3.6242	79.02	-0.2349	0.0262	0.2611	1080.9023	0.173303	-403.189788	-403.181464	-403.18052	-403.222485	32.501	
C	-0.0826023059	 1.5291069522	 0.0330569654	-0.460672
C	 0.0433869525	 0.0194956952	 0.0041105133	 0.231648
C	-0.8063725543	-0.7945116669	 0.9641690692	-0.30905
C	 0.684375072	-0.7236017144	 1.16317962	-0.084349
C	 1.5409196989	-1.9551947429	 0.8724386562	-0.220595
C	 2.1026079063	-1.9169406144	-0.549073061	-0.162566
N	 1.0359341734	-1.6272056308	-1.5040766036	-0.320857
C	 0.1934246316	-0.5490358662	-1.3850834892	 0.339823
O	-0.4161028402	-0.0995407256	-2.3394358415	-0.380578
H	 0.8419736024	 2.0140769205	-0.2992325365	 0.116096
H	-0.88574416	 1.8488910221	-0.6352636797	 0.14634
H	-0.3034016716	 1.8808439772	 1.0453870069	 0.106203
H	-1.4547950131	-0.2425882246	 1.6366038127	 0.114067
H	-1.219720235	-1.7334191358	 0.6097654082	 0.121019
H	 1.0279639408	-0.0946363804	 1.9788539482	 0.087364
H	 2.3709795296	-2.0139168794	 1.5832672392	 0.104954
H	 0.948409769	-2.8679666209	 0.9987210806	 0.110508
H	 2.9050460799	-1.1660938757	-0.6147595596	 0.106871
H	 2.5431558651	-2.8826548002	-0.8143325103	 0.111042
H	 1.1685087586	-1.917759839	-2.4627747785	 0.242733
78.1763	171.424	205.3061	226.1989	289.4189	300.8083	405.2412	433.1997	466.5424	530.4385	587.5559	651.3886	703.5905	767.487	791.7971	861.5364	888.1903	915.973	947.0722	969.2276	995.1124	1060.2717	1088.8483	1094.8207	1119.6587	1128.5117	1147.2024	1231.6878	1243.1861	1263.1193	1283.9701	1365.1102	1366.4567	1405.7202	1407.6952	1412.7611	1466.1702	1480.6005	1485.5834	1497.4437	1504.5128	1517.8707	1780.9431	2983.223	3034.4966	3040.4001	3077.1139	3085.8635	3097.5956	3125.2719	3126.4898	3150.2098	3213.7669	3598.8185
CC12CC1CCNC2=O	C[C@]12C[C@H]1CCNC2=O	
InChI=1S/C7H11NO/c1-7-4-5(7)2-3-8-6(7)9/h5H,2-4H2,1H3,(H,8,9)	InChI=1S/C7H11NO/c1-7-4-5(7)2-3-8-6(7)9/h5H,2-4H2,1H3,(H,8,9)/t5-,7+/m1/s1
