20
gdb 117009	4.85746	0.56218	0.52982	3.7853	89.48	-0.2456	-0.012	0.2337	2174.5725	0.168849	-403.164089	-403.152933	-403.151989	-403.204542	37.578	
C	 0.4602450141	 1.3036387717	 0.2228833215	-0.369932
C	-0.4019864627	 0.1436202388	-0.2827494786	-0.151127
N	 0.1691560397	-0.5326756778	-1.4359066679	-0.311697
C	 0.8318981662	-1.7241922212	-1.3368331021	 0.258385
O	 0.9564009843	-2.3456470543	-0.2948881016	-0.366903
C	 1.3723790257	-2.1944254249	-2.603573724	-0.068398
C	 1.8404076701	-2.6226075654	-3.6294215046	 0.16949
C	 2.4182429988	-3.1711682323	-4.8497898819	-0.326957
C	 3.1149793415	-4.5268595475	-4.6319538224	-0.365743
H	 1.4458783823	 0.9433023462	 0.5303146777	 0.136802
H	 0.6002112688	 2.0642137709	-0.5528817176	 0.110711
H	-0.0151573191	 1.7848262869	 1.0836516413	 0.119028
H	-0.5096340539	-0.6163457506	 0.4938747146	 0.15034
H	-1.4046937065	 0.5004529126	-0.545587192	 0.104334
H	 0.1663143272	-0.0711650688	-2.3312975261	 0.248791
H	 1.6277618844	-3.2761362456	-5.6041125364	 0.13641
H	 3.1329693525	-2.4479488045	-5.2633665389	 0.136181
H	 3.9281174115	-4.4330211355	-3.9077551173	 0.136284
H	 2.4086709393	-5.2690986163	-4.2516092283	 0.136451
H	 3.5303691259	-4.8940807223	-5.5748046354	 0.117553
8.8678	16.3393	57.8804	72.4708	147.8466	170.1442	228.1829	239.7722	317.698	376.6209	406.8038	439.7344	474.841	514.257	597.0429	752.6036	763.2891	782.8006	839.9069	901.1218	947.9374	1036.3233	1080.9595	1100.396	1102.5364	1147.2043	1171.0223	1254.2137	1284.0722	1325.907	1347.2265	1392.9276	1409.2623	1410.9646	1468.1601	1477.678	1491.8869	1494.5842	1501.5002	1504.5068	1536.5102	1750.7396	2346.5713	3020.9887	3034.7709	3037.4013	3048.0863	3048.8829	3097.9138	3116.9807	3122.5351	3128.0421	3129.7785	3639.4534
CCNC(=O)C#CCC	CCNC(=O)C#CCC	
InChI=1S/C7H11NO/c1-3-5-6-7(9)8-4-2/h3-4H2,1-2H3,(H,8,9)	InChI=1S/C7H11NO/c1-3-5-6-7(9)8-4-2/h3-4H2,1-2H3,(H,8,9)
