17
gdb 66007	2.65899	1.35591	1.27947	2.2517	69.96	-0.2402	0.0239	0.2641	1071.7379	0.135146	-455.101345	-455.092607	-455.091663	-455.13487	32.265	
O	 0.0444906025	 1.5226326954	 1.0506526057	-0.474276
C	-0.0539805449	 0.2240374599	 0.5104978877	 0.285444
C	 0.5472686296	 0.0359916354	-0.9216350013	-0.216136
N	 1.4424809526	-0.9764107905	-0.3275224855	-0.332682
C	 1.0840916053	-0.6963864117	 0.9723762059	 0.324664
N	 1.4853202638	-0.9259095549	 2.1509581192	-0.566349
C	-1.4559715285	-0.3054165007	 0.7209122764	 0.039972
C	-2.5430517926	-0.012623623	-0.2161607084	-0.182701
O	-1.932371137	-1.3071803976	-0.1759826931	-0.227903
H	 0.5351197467	 1.4353407809	 1.8783698773	 0.298463
H	-0.1205570834	-0.3664283558	-1.6851226159	 0.126749
H	 1.052053831	 0.9423682842	-1.2677572383	 0.116759
H	 2.3335907392	-1.3013457518	-0.6726515689	 0.244692
H	 2.3360670198	-1.4890970615	 2.1790331838	 0.21402
H	-1.7037047214	-0.4756072449	 1.7688728563	 0.110161
H	-3.5684852704	 0.0315732058	 0.1458640029	 0.122629
H	-2.3401332422	 0.5724209806	-1.1120160738	 0.116495
78.1691	108.2565	149.5806	224.7504	254.9355	272.3193	312.7618	375.2561	423.4047	498.1179	578.6656	646.6551	715.3713	789.9846	830.9687	875.9505	887.1501	935.5384	947.1231	999.0589	1051.8395	1064.1943	1093.2625	1146.9951	1156.2327	1168.2874	1208.4539	1230.1119	1252.0885	1290.965	1325.7807	1365.4264	1388.6137	1438.9909	1499.742	1528.6702	1799.6582	3058.0342	3088.0453	3114.7597	3126.5217	3175.9731	3470.5011	3605.988	3769.0653
OC1(CNC1=N)C1CO1	O[C@]1(CN[C]1[NH])[C@H]1CO1	
InChI=1S/C5H8N2O2/c6-4-5(8,2-7-4)3-1-9-3/h3,8H,1-2H2,(H2,6,7)	InChI=1S/C5H8N2O2/c6-4-5(8,2-7-4)3-1-9-3/h3,8H,1-2H2,(H2,6,7)/t3-,5-/m1/s1
