15
gdb 98753	3.1183	0.93736	0.83046	2.845	64.42	-0.269	-0.0723	0.1967	1365.2625	0.108736	-494.884759	-494.875671	-494.874727	-494.919953	31.31	
O	 0.1681922208	 1.4556171496	 0.5549665034	-0.415078
C	 0.0152775001	 0.0782278113	 0.6793990343	-0.134319
C	-1.1449911436	-0.434106083	-0.1542302267	 0.352546
O	-1.8400525733	 0.3418477514	-0.7727168513	-0.325935
C	-1.3665959808	-1.9228264354	-0.153773874	-0.042762
O	-2.6840494721	-2.3888534352	-0.3817690842	-0.213549
C	-1.7289325029	-2.6750455544	-1.3940059627	-0.050569
C	-1.9270305051	-1.9953758413	-2.7199594301	 0.132461
O	-1.4443567994	-2.43700199	-3.7312849043	-0.238423
H	-0.5645545587	 1.7506987771	-0.0085023221	 0.29956
H	 0.9285891367	-0.4584354288	 0.3687506525	 0.12765
H	-0.168807031	-0.2204542038	 1.7273237754	 0.126471
H	-0.8053474221	-2.4771075511	 0.5997214786	 0.1199
H	-1.3906315105	-3.7089547491	-1.4600904979	 0.130669
H	-2.5522374579	-1.0853623572	-2.6860639809	 0.131378
38.8043	71.6907	115.5052	180.6052	212.2076	286.6832	334.5532	345.7279	391.6742	401.9292	496.3782	574.4073	715.5094	827.189	891.812	898.7364	977.4764	1029.8862	1046.2258	1057.3298	1123.3521	1147.7681	1157.8344	1242.1375	1260.2503	1310.0911	1336.3788	1401.0656	1439.7745	1457.0751	1485.8995	1800.4341	1820.4717	2954.5432	2974.3487	2989.2438	3107.9298	3130.5699	3696.281
OCC(=O)C1OC1C=O	OCC(=O)[C@H]1O[C@H]1C=O	
InChI=1S/C5H6O4/c6-1-3(8)5-4(2-7)9-5/h2,4-6H,1H2	InChI=1S/C5H6O4/c6-1-3(8)5-4(2-7)9-5/h2,4-6H,1H2/t4-,5+/m0/s1
