22
gdb 101832	2.78633	0.91295	0.79886	2.645	78.8	-0.2427	0.0574	0.3	1530.4994	0.193127	-441.443665	-441.433319	-441.432375	-441.480367	37.122	
C	 0.5798431638	 1.4688156601	-0.0499233276	-0.397507
C	-0.1501388331	 0.1383543757	 0.133975133	 0.122835
C	 0.1893253642	-0.8713862466	-0.9648540145	-0.065885
O	 1.5659470928	-1.1970064055	-0.9808817651	-0.418655
O	 0.2217445113	-0.5040820492	 1.3576514272	-0.284001
C	-0.4183720958	-0.0214235473	 2.5208608846	-0.099538
C	 0.0934678028	-0.7751480833	 3.7285737956	 0.008059
C	 0.5072823438	-2.1931469596	 3.6298826297	-0.23198
N	 1.5144991782	-1.1284829281	 3.8301743476	-0.318888
H	 1.6535465032	 1.2915256271	-0.1465782199	 0.137561
H	 0.2292581887	 1.9681216733	-0.9589146822	 0.118523
H	 0.4049651195	 2.1466743306	 0.7897292502	 0.117592
H	-1.2399869919	 0.2999617052	 0.1304246929	 0.068461
H	-0.4330556263	-1.7681447904	-0.8238998044	 0.090847
H	-0.0468755338	-0.4454758374	-1.9453910999	 0.108389
H	 1.7772674803	-1.5099528496	-0.0941580498	 0.289798
H	-0.2248329232	 1.0543519179	 2.655743299	 0.100685
H	-1.5108746919	-0.1483675142	 2.4368420125	 0.097547
H	-0.3428899707	-0.4217904626	 4.6612456518	 0.092908
H	 0.371463943	-2.8598167296	 4.4765279488	 0.115543
H	 0.4477074982	-2.6646689877	 2.6543005699	 0.116365
H	 1.9500347471	-0.9298532486	 2.9316401105	 0.23134
24.3408	83.5596	90.2533	154.5777	157.4691	214.7652	235.6424	311.1634	342.3385	355.7206	417.9731	434.5377	570.6046	666.1727	782.6925	829.7196	849.3888	905.9455	920.5642	938.0788	968.0496	991.2233	1012.5367	1075.4593	1089.9843	1103.8345	1133.8383	1139.5451	1157.2246	1160.044	1204.3668	1240.7983	1269.7366	1285.3012	1307.1796	1342.3551	1361.6565	1386.9329	1412.0276	1421.5597	1427.1459	1433.5972	1486.1886	1496.7522	1498.9544	1506.774	1517.4366	2961.4696	2976.3286	2994.3762	2995.475	3046.9077	3081.2801	3113.2052	3118.2937	3125.1434	3134.2507	3208.8173	3494.7007	3806.8656
CC(CO)OCC1CN1	C[C@@H](CO)OC[C@H]1CN1	
InChI=1S/C6H13NO2/c1-5(3-8)9-4-6-2-7-6/h5-8H,2-4H2,1H3	InChI=1S/C6H13NO2/c1-5(3-8)9-4-6-2-7-6/h5-8H,2-4H2,1H3/t5-,6+/m0/s1
