21
gdb 119493	3.96003	1.0092	0.93584	0.8013	82.85	-0.2079	0.0871	0.295	1363.0795	0.181305	-387.00894	-387.000189	-386.999245	-387.042712	33.94	
C	 0.0546136097	 1.5159046556	-0.0535870953	-0.387621
C	 0.1976931264	 0.0075394701	 0.0445175351	-0.058447
O	 0.5007156431	-0.4969411986	-1.2541642303	-0.286639
C	 0.6257088158	-1.8663165865	-1.2941201834	 0.452899
C	 1.8792674492	-2.5862890403	-0.8724970869	-0.367341
C	 1.3785501364	-2.6879519739	-2.303861708	-0.156603
C	 0.1364908435	-3.6109640158	-2.4750997127	-0.047119
C	-0.3581384897	-4.2457328671	-1.2017884368	-0.301369
C	-0.6281375621	-2.7869036739	-1.4533780341	-0.125049
H	 0.9810691638	 1.9659398605	-0.4217872085	 0.126262
H	-0.7516903038	 1.7823896441	-0.742889029	 0.126484
H	-0.1725269675	 1.9417412028	 0.9283834176	 0.114374
H	 1.0005065689	-0.2682492294	 0.7448390682	 0.093
H	-0.7319771865	-0.4485675833	 0.4176965214	 0.093987
H	 2.7281146138	-1.9149070265	-0.7780102577	 0.115098
H	 1.9098070836	-3.4280203677	-0.1888448128	 0.107843
H	 1.9817432594	-2.3547159942	-3.1379102902	 0.097023
H	-0.2031004665	-3.9426406286	-3.4477198733	 0.089659
H	-1.2248071207	-4.8875209641	-1.3357705711	 0.111078
H	 0.3088159343	-4.5907390763	-0.4194964474	 0.111994
H	-1.6255575611	-2.3755400671	-1.5406441149	 0.090487
62.7837	87.2813	127.531	240.4232	275.9598	329.5526	364.7438	412.1026	449.3012	508.5965	667.1307	696.0512	764.4848	805.4612	818.1745	840.9034	880.0012	900.2792	907.125	954.5673	965.8442	994.3223	1019.0512	1036.2217	1050.5121	1063.9097	1076.684	1093.7205	1103.1516	1144.0125	1174.1864	1185.5867	1197.6614	1260.332	1287.3879	1292.6088	1316.0151	1377.17	1402.9936	1429.7001	1481.9959	1483.0218	1499.6662	1511.0375	1527.1969	2982.0326	3012.8952	3044.2631	3117.3244	3118.5045	3120.8126	3130.2005	3186.7493	3191.8975	3201.5653	3202.0829	3208.9929
CCOC12CC1C1CC21	CCO[C@]12C[C@H]1[C@H]1C[C@@H]21	
InChI=1S/C8H12O/c1-2-9-8-4-7(8)5-3-6(5)8/h5-7H,2-4H2,1H3	InChI=1S/C8H12O/c1-2-9-8-4-7(8)5-3-6(5)8/h5-7H,2-4H2,1H3/t5-,6+,7-,8-/m0/s1
