13
gdb 18788	3.94717	2.53596	2.11136	3.7133	57.21	-0.238	-0.029	0.2089	659.2009	0.097009	-398.539808	-398.534345	-398.533401	-398.569289	21.483	
O	-0.0025103724	 0.0336094626	 0.2555610569	-0.300159
C	-0.052193926	 1.2009929017	 0.0289152385	 0.418469
C	-1.1434656753	 2.2900099659	-0.0688221416	-0.050686
O	-1.1911597747	 2.8751180509	 1.2710178992	-0.297728
C	-0.0081671704	 3.6789553999	 1.0319396869	 0.087736
C	 1.2848119572	 2.849353533	 1.2073471771	-0.200296
N	 1.0212781293	 2.1738530266	-0.1287315513	-0.197153
C	 0.0001229829	 3.2532847049	-0.4516842071	-0.034977
H	-2.1320768462	 2.1466126834	-0.5049745753	 0.103724
H	-0.1025080938	 4.6773323024	 1.4610865056	 0.09848
H	 2.1937233576	 3.4553000653	 1.1447109854	 0.126575
H	 1.3428154262	 2.1671743705	 2.0585774057	 0.141904
H	 0.1149931855	 3.8503591628	-1.3511544099	 0.104111
164.3939	274.4361	407.5639	471.2217	651.8733	678.4022	765.189	792.3297	831.8906	847.2167	879.0145	923.5752	954.3448	969.1454	995.971	1015.0751	1041.4623	1071.2041	1160.9262	1185.7665	1197.5033	1217.2804	1243.0606	1261.1443	1300.7042	1309.9568	1485.6207	1910.8311	3055.3145	3108.0982	3118.1892	3125.0791	3168.0552
O=C1C2OC3CN1C23	O=C1[C@H]2O[C@H]3CN1[C@@H]23	
InChI=1S/C5H5NO2/c7-5-4-3-2(8-4)1-6(3)5/h2-4H,1H2	InChI=1S/C5H5NO2/c7-5-4-3-2(8-4)1-6(3)5/h2-4H,1H2/t2-,3+,4-/m0/s1
