19
gdb 60602	2.8735	1.12692	0.88714	2.4512	72.23	-0.2604	-0.0291	0.2313	1313.1921	0.156361	-460.162993	-460.153097	-460.152153	-460.199076	35.725	
C	-0.0333608678	 1.4416601109	 0.0793941612	-0.47884
C	 0.0172864141	-0.0616106333	-0.0365332751	 0.357788
O	 1.0516892437	-0.674610988	-0.2007904514	-0.321289
C	-1.2955344636	-0.8443361871	 0.0529475605	 0.02491
O	-1.0445566628	-2.2119569271	-0.1840016902	-0.452185
C	-1.9655148767	-0.6589798524	 1.4069430161	-0.074649
C	-3.2207951117	 0.1841323578	 1.5426174049	-0.319188
C	-3.3135952981	-1.3134513795	 1.5756201783	 0.119394
O	-3.88738011	-1.9429136406	 0.4715866541	-0.428697
H	 0.972109747	 1.8547198246	-0.0069201722	 0.148198
H	-0.6724952956	 1.8561773667	-0.7081373844	 0.148512
H	-0.4792248217	 1.7363314975	 1.0344951535	 0.157992
H	-1.9701146636	-0.4605047903	-0.7269655945	 0.098846
H	-0.0800786034	-2.2836316669	-0.2809463369	 0.293758
H	-1.2932049153	-0.7064077322	 2.2596678384	 0.091912
H	-3.3773088424	 0.7393581673	 2.4604945511	 0.11505
H	-3.5969081041	 0.6668592139	 0.6468770594	 0.123628
H	-3.5201614816	-1.7866235791	 2.5350969806	 0.090427
H	-3.2544519864	-2.6068812321	 0.1673687666	 0.304433
29.9516	59.5815	96.6137	129.2814	200.5986	263.7541	318.4534	369.2567	410.5718	431.8123	457.9271	483.6411	567.6456	617.377	639.8812	793.0554	829.8256	849.6956	888.4649	967.6499	990.3092	1009.0675	1033.7545	1067.4802	1116.5237	1130.436	1155.0372	1170.6797	1209.2762	1237.5114	1268.2916	1312.8552	1347.2241	1385.5047	1396.612	1415.7434	1434.3377	1462.6096	1471.7078	1481.3865	1795.7647	2997.5318	3044.9329	3102.8614	3107.5215	3135.5834	3141.2154	3156.3423	3225.3978	3660.9779	3765.016
CC(=O)C(O)C1CC1O	CC(=O)[C@@H](O)[C@H]1C[C@H]1O	
InChI=1S/C6H10O3/c1-3(7)6(9)4-2-5(4)8/h4-6,8-9H,2H2,1H3	InChI=1S/C6H10O3/c1-3(7)6(9)4-2-5(4)8/h4-6,8-9H,2H2,1H3/t4-,5+,6+/m0/s1
