21
gdb 89782	2.07223	1.48765	0.99253	2.9665	83.67	-0.2399	-0.02	0.2199	1262.1801	0.181013	-387.077291	-387.067977	-387.067033	-387.11192	34.826	
C	 0.058144647	 1.5976833265	-0.0092060746	-0.420502
C	 0.0901829435	 0.0768702114	 0.0528724434	 0.04152
C	 0.9808948462	-0.7117027219	-0.9514843375	-0.324882
C	 1.3736845448	-1.6420550457	 0.1997280183	 0.372303
C	 1.1669332356	-3.1281089609	 0.2367380222	-0.322904
C	 2.5616570071	-2.552260383	 0.3200904288	-0.334055
C	 0.8169297192	-0.6544705762	 1.2491926957	-0.197695
C	 1.9005830786	 0.1516164864	 1.9133371673	 0.172604
O	 1.9660990486	 0.3698609452	 3.0975799072	-0.264708
H	 1.0634311908	 2.0311792388	-0.0167531874	 0.118467
H	-0.4492963886	 1.9320875201	-0.9206305949	 0.119117
H	-0.4807882251	 2.0193906976	 0.8459665066	 0.127112
H	-0.9326141344	-0.3094122376	 0.012106942	 0.088345
H	 0.4799686733	-1.1617883131	-1.8131716817	 0.101469
H	 1.822307741	-0.1103513105	-1.3148506374	 0.100785
H	 0.7405331388	-3.5658420937	 1.1337642202	 0.118371
H	 0.870564167	-3.6193046704	-0.6849200944	 0.114379
H	 3.2122797587	-2.655669459	-0.5425763677	 0.115098
H	 3.0770633381	-2.6045643047	 1.2740376578	 0.122125
H	 0.1653049998	-1.0634215776	 2.0250591993	 0.083199
H	 2.6857583102	 0.5377523283	 1.2223753067	 0.069851
53.3824	63.0854	162.0028	210.6586	231.8992	255.7563	295.2278	364.2271	402.7446	461.3391	475.7227	537.0173	711.2859	775.9681	838.5073	873.857	899.4573	908.9259	923.5072	946.6033	982.9971	996.1047	1047.8723	1055.2399	1079.095	1107.8575	1123.9073	1143.992	1167.9315	1188.3258	1222.9371	1239.2414	1252.9169	1268.6198	1307.6666	1357.6033	1386.1887	1413.6002	1437.0055	1463.2116	1490.4808	1496.0579	1498.6708	1501.8424	1821.8159	2857.7263	3030.198	3035.5301	3054.3958	3084.4597	3090.0141	3097.0696	3103.2893	3121.2016	3125.2777	3199.7102	3214.2785
CC1CC2(CC2)C1C=O	C[C@H]1CC2(CC2)[C@H]1C=O	
InChI=1S/C8H12O/c1-6-4-8(2-3-8)7(6)5-9/h5-7H,2-4H2,1H3	InChI=1S/C8H12O/c1-6-4-8(2-3-8)7(6)5-9/h5-7H,2-4H2,1H3/t6-,7-/m0/s1
