18
gdb 71813	3.44605	1.63761	1.5578	2.7153	74.33	-0.2156	0.0639	0.2796	934.7875	0.14895	-401.871332	-401.864501	-401.863557	-401.902119	28.574	
C	-0.1000467241	 1.4868451255	-0.0298258782	-0.496506
C	-0.0472536316	-0.0041353281	 0.024915716	 0.46784
O	-0.1349909223	-0.7036907172	-1.21791652	-0.307961
C	-0.5829835319	-1.8918314543	-0.5096849846	 0.067674
C	 0.6301757268	-2.8081071816	-0.2555250967	-0.057748
N	 1.9262332866	-2.2230750748	-0.6772466174	-0.315074
C	 1.4683828822	-2.0752276991	 0.721885837	-0.044693
C	 0.6971144033	-0.8233649969	 1.0897423908	-0.131978
C	-0.7824734387	-1.0543269953	 0.7952196797	-0.220176
H	 0.7770299402	 1.8796133804	-0.5552612588	 0.138217
H	-0.9966094585	 1.8197562809	-0.5621874907	 0.129133
H	-0.1138966474	 1.9103278789	 0.9784172856	 0.121081
H	-1.4403261021	-2.358926395	-0.995300525	 0.078522
H	 0.5027515241	-3.8856481322	-0.241552241	 0.085381
H	 2.6169001778	-2.9723490577	-0.7102726223	 0.225713
H	 2.0182717143	-2.5803649158	 1.510815558	 0.08359
H	 0.9712330137	-0.2766207406	 1.9852560117	 0.08405
H	-1.6186644825	-1.0274653972	 1.4815875759	 0.092934
179.3949	198.0042	288.6385	320.2177	362.0149	553.5383	566.9425	608.1874	701.668	734.5569	754.8269	811.2478	821.7368	857.359	869.0965	890.4921	900.1746	930.5976	944.6232	980.9432	994.1876	1012.2124	1056.7267	1068.2032	1104.3984	1139.4388	1163.0211	1176.0821	1207.1538	1215.5054	1250.5834	1278.4284	1322.3279	1357.8491	1399.8868	1417.362	1456.7469	1474.3973	1499.2514	3036.0208	3102.8409	3110.4053	3117.2352	3143.1729	3163.1898	3177.4511	3194.9356	3468.1204
CC12OC3C4NC4C1C23	C[C@@]12O[C@H]3[C@H]4N[C@H]4[C@@H]1[C@@H]23	
InChI=1S/C7H9NO/c1-7-2-3(7)6(9-7)5-4(2)8-5/h2-6,8H,1H3	InChI=1S/C7H9NO/c1-7-2-3(7)6(9-7)5-4(2)8-5/h2-6,8H,1H3/t2-,3+,4-,5-,6+,7+/m0/s1
