23
gdb 56020	3.89316	0.83283	0.74987	2.4201	85.83	-0.2414	-0.0079	0.2335	1611.3207	0.205372	-388.337158	-388.327071	-388.326127	-388.374577	36.021	
C	-0.1631357312	 1.4905389175	 0.1173637624	-0.472311
C	-0.1366159357	-0.0268492332	 0.1990294208	 0.382903
O	-0.167406543	-0.6059706765	 1.2613392846	-0.294179
C	-0.057597725	-0.7682644343	-1.1313539811	-0.33517
C	-0.1936098456	-2.2844057586	-1.0263686805	 0.064639
C	-1.5973139357	-2.7904323876	-0.6479587534	-0.203363
C	-1.5684003757	-4.2937457667	-0.9977783084	-0.204915
C	-0.5045500139	-4.4456141964	-2.1274994357	-0.207181
C	 0.0860660612	-3.0323386265	-2.3426399309	-0.220517
H	 0.6619557994	 1.8635644205	-0.4990450683	 0.133854
H	-1.0915308425	 1.820822503	-0.3632294562	 0.139764
H	-0.1032835179	 1.9180515433	 1.1189041601	 0.141294
H	-0.8162179396	-0.351808109	-1.8100158966	 0.110184
H	 0.9069633974	-0.4963006855	-1.5867230364	 0.117327
H	 0.509713332	-2.6346955044	-0.2600757952	 0.085322
H	-1.8449925126	-2.5961363556	 0.3973910405	 0.113705
H	-2.3442418983	-2.2719738162	-1.2654519063	 0.081974
H	-1.2733775806	-4.8782169809	-0.1206119964	 0.101204
H	-2.5522496502	-4.6624292546	-1.3007487195	 0.093642
H	 0.2788463268	-5.1456916872	-1.8214781506	 0.09873
H	-0.935041253	-4.8456451814	-3.0496747566	 0.095211
H	-0.43684195	-2.5241803361	-3.1638866926	 0.088534
H	 1.1485299937	-3.0498070538	-2.6056051837	 0.089349
23.0529	34.908	83.8032	112.2896	115.4195	197.2059	303.7943	312.35	422.7098	479.5081	536.2491	627.3699	630.4915	766.0013	800.8421	827.1527	828.7948	881.0201	895.9199	946.6278	953.9491	978.3822	982.2068	1020.3403	1049.1864	1098.0771	1123.2796	1166.6102	1189.1598	1204.8989	1225.0459	1248.3262	1270.1425	1293.4763	1313.6806	1326.1427	1337.4884	1347.8468	1367.3452	1381.8835	1402.67	1445.5091	1464.4204	1477.8295	1486.738	1495.643	1498.8927	1520.0174	1808.566	2999.9073	3009.1999	3015.2733	3025.6178	3036.1179	3040.3039	3044.9682	3056.8786	3072.0724	3081.9668	3096.7245	3100.7657	3113.2406	3151.41
CC(=O)CC1CCCC1	CC(=O)CC1CCCC1	
InChI=1S/C8H14O/c1-7(9)6-8-4-2-3-5-8/h8H,2-6H2,1H3	InChI=1S/C8H14O/c1-7(9)6-8-4-2-3-5-8/h8H,2-6H2,1H3
