21
gdb 93043	2.3287	1.82126	1.21891	1.3662	83.24	-0.2383	0.021	0.2593	1092.5908	0.18474	-387.094092	-387.086058	-387.085114	-387.126505	31.685	
C	-0.0241382212	 1.5530963514	 0.0206349325	-0.404517
C	 0.062099233	 0.0232670356	-0.0229534815	-0.002602
C	 0.7673094637	-0.4792627943	-1.2959430529	-0.254304
C	 1.0170845007	-1.9638452173	-1.2652232533	-0.074628
C	 1.1899807745	-2.64788584	-0.133448766	-0.056243
C	 1.1989736851	-2.0014842391	 1.2169975308	-0.138763
C	 2.56529418	-1.394796714	 1.6487470657	-0.069708
O	 2.0971464441	-0.0556139951	 1.4029323769	-0.295911
C	 0.7344869028	-0.5211010353	 1.2290035427	 0.140612
H	 0.9762665078	 1.9890459679	 0.1001116402	 0.136227
H	-0.4987521504	 1.94669056	-0.8840463388	 0.108489
H	-0.6082681912	 1.894016704	 0.8820351701	 0.109287
H	-0.9559127044	-0.3928888484	-0.0206216053	 0.074494
H	 0.16943519	-0.2129316167	-2.1750807521	 0.096885
H	 1.7218728142	 0.054156363	-1.4083027445	 0.122155
H	 1.0639805521	-2.4838865086	-2.2188341555	 0.086468
H	 1.3770811659	-3.7187040858	-0.1676718089	 0.084524
H	 0.735909226	-2.6428485192	 1.9709607958	 0.076018
H	 2.8173778018	-1.550986878	 2.7067174402	 0.093697
H	 3.428417954	-1.6512751299	 1.0253209793	 0.10438
H	 0.1341414814	-0.2703065403	 2.1162053346	 0.06344
104.5156	133.104	213.6805	246.2656	269.749	318.6392	423.7927	485.5916	504.0116	592.8912	693.6697	723.1131	806.6626	832.3071	869.4817	898.0774	933.3063	950.4962	987.2164	1000.7904	1012.6282	1016.4251	1066.5376	1076.9755	1102.7295	1115.6866	1167.2485	1170.4262	1190.6237	1235.5816	1246.273	1276.0763	1311.7883	1328.8491	1341.3141	1363.154	1381.7519	1397.3945	1408.7768	1422.1392	1478.7048	1497.2371	1505.0638	1520.2635	1716.2348	2983.4996	3001.7779	3004.5906	3014.6806	3033.372	3055.9154	3065.131	3075.67	3098.4742	3113.1517	3142.0384	3166.0721
CC1CC=CC2COC12	C[C@H]1CC=C[C@H]2CO[C@@H]12	
InChI=1S/C8H12O/c1-6-3-2-4-7-5-9-8(6)7/h2,4,6-8H,3,5H2,1H3	InChI=1S/C8H12O/c1-6-3-2-4-7-5-9-8(6)7/h2,4,6-8H,3,5H2,1H3/t6-,7-,8-/m0/s1
