18
gdb 47394	2.72476	1.64294	1.26324	2.66	72.57	-0.2457	0.011	0.2567	1033.8529	0.149321	-439.087413	-439.079608	-439.078664	-439.120141	29.493	
N	 0.0903860055	 1.2602428163	 0.524981512	-0.550708
C	 0.0657179093	 0.0133865308	 0.3313430449	 0.393501
O	 1.1537424073	-0.7794048908	 0.1245439218	-0.246908
C	 0.7463472169	-2.1556066207	-0.0313631126	-0.091904
C	-0.6544811295	-2.2284627227	 0.5867693927	-0.303704
C	-1.1967735787	-0.8373746554	 0.2808839384	 0.365825
C	-2.4611114115	-0.2620862216	 0.9376308867	-0.358843
C	-2.9678761736	-0.0907349913	-0.5073698489	-0.067015
O	-1.8002912454	-0.7607394828	-1.0407626915	-0.327541
H	 1.0456337517	 1.6194538184	 0.4811314962	 0.223808
H	 0.731430246	-2.3996926451	-1.099081367	 0.129556
H	 1.4907026653	-2.7791564476	 0.467754665	 0.1213
H	-1.2777087659	-3.0158548285	 0.1604473257	 0.121033
H	-0.5873392588	-2.3694146896	 1.6712377136	 0.118231
H	-3.0189307836	-0.9820688441	 1.5390683537	 0.10815
H	-2.2957153893	 0.6570723985	 1.498130117	 0.142083
H	-3.8897852897	-0.6188748656	-0.7738600089	 0.103312
H	-3.0282598759	 0.9471671418	-0.851344759	 0.119826
80.2539	97.7948	186.2133	233.2264	281.6608	354.3179	442.5607	531.4858	670.7731	687.1981	700.6131	768.7697	828.4626	868.9095	892.8015	922.2701	952.9883	958.8084	985.7186	1007.9766	1013.7184	1075.1203	1131.0575	1155.0689	1174.9222	1204.0195	1217.2389	1237.8146	1251.0175	1277.7317	1304.8192	1335.7073	1360.1827	1411.262	1468.9442	1477.6114	1521.6235	1524.7095	1776.4412	3033.3319	3049.011	3053.5871	3078.1753	3087.243	3112.8627	3130.7281	3155.4398	3471.9382
N=C1OCCC11CCO1	[NH][C]1OCC[C@]21CCO2	
InChI=1S/C6H9NO2/c7-5-6(1-3-8-5)2-4-9-6/h7H,1-4H2	InChI=1S/C6H9NO2/c7-5-6(1-3-8-5)2-4-9-6/h7H,1-4H2/t6-/m1/s1
