18
gdb 15174	8.43004	0.67283	0.65297	0.9099	80.76	-0.2383	0.0371	0.2754	1752.36	0.152118	-347.74697	-347.737767	-347.736823	-347.782598	31.544	
C	-0.2504556508	 1.3484678889	-0.2419245108	-0.217431
O	-0.281384339	-0.0576191465	-0.2998183591	-0.227042
C	 0.9160862802	-0.5924530982	-0.8356397285	-0.203459
C	 0.8534361705	-2.045224929	-0.8782679857	-0.014615
C	 0.8277325159	-3.2492644718	-0.9252612032	 0.163943
C	 0.7935016765	-4.6807112306	-0.9734315759	-0.160803
C	-0.4090292131	-5.3937857291	-1.5748105262	-0.249539
C	 0.8970635548	-5.4037380356	-2.3089000586	-0.251808
H	 0.5688811633	 1.7159154994	 0.3971813761	 0.102848
H	-0.1314404206	 1.7990596229	-1.2407835101	 0.102426
H	-1.2024179879	 1.676277469	 0.1817021099	 0.129383
H	 1.0889012268	-0.1938122878	-1.8513410687	 0.110524
H	 1.7809314492	-0.274046032	-0.2265905439	 0.11192
H	 1.2620083563	-5.1814283374	-0.1310176626	 0.109548
H	-0.7377673425	-6.3035876898	-1.0855095686	 0.118932
H	-1.2070708139	-4.7699359575	-1.9585514486	 0.130414
H	 0.9895298704	-4.7873064799	-3.1948903546	 0.126493
H	 1.4747774739	-6.3208810551	-2.3303223811	 0.118266
25.1427	72.1446	78.5599	135.1882	202.8452	231.5314	297.2781	354.7676	423.2049	511.1745	550.4341	727.2261	798.1005	822.9056	894.8765	911.2988	974.3801	1025.2014	1061.638	1062.4775	1080.6274	1118.5539	1143.1988	1182.5947	1188.1556	1200.7092	1219.2431	1233.5925	1255.3114	1390.3813	1413.514	1466.4828	1477.2949	1484.602	1494.3363	1497.6705	1515.9529	2364.2371	2938.9752	2955.1731	2965.5409	3006.5651	3118.2066	3141.5586	3142.7876	3148.0031	3226.6184	3241.7202
COCC#CC1CC1	COCC#CC1CC1	
InChI=1S/C7H10O/c1-8-6-2-3-7-4-5-7/h7H,4-6H2,1H3	InChI=1S/C7H10O/c1-8-6-2-3-7-4-5-7/h7H,4-6H2,1H3
