21
gdb 104455	3.12154	1.20698	1.08344	1.8895	73.8	-0.2469	0.0771	0.3239	1214.3762	0.182889	-461.36791	-461.358884	-461.35794	-461.40127	34.751	
C	-0.1105451303	 1.5661818284	 0.0521606961	-0.394194
C	 0.0096100945	 0.0398506377	-0.0236467027	-0.20818
C	 0.754979345	-0.4762012779	-1.2567742119	 0.347236
O	 0.0678828276	 0.0056011154	-2.4057987419	-0.477849
C	 2.2241145019	-0.0141682014	-1.3143822194	-0.124566
O	 2.8691558864	-0.5986251227	-2.4450317356	-0.249022
C	 2.816598248	-1.9999948989	-2.3859331185	 0.008866
O	 1.4996909812	-2.4830159674	-2.4147032312	-0.248513
C	 0.7623633298	-2.0166703739	-1.2864689356	-0.122554
H	 0.861878825	 2.048373254	 0.1947664739	 0.114301
H	-0.552504766	 1.9598331541	-0.8658289005	 0.14348
H	-0.7450585494	 1.8579656494	 0.8941003242	 0.111782
H	 0.5042906905	-0.3469111198	 0.8757935138	 0.094008
H	-0.9951860504	-0.3997815095	-0.0423445698	 0.107127
H	 0.5548423603	-0.3267951221	-3.1699280442	 0.286871
H	 2.2857102161	 1.0664946162	-1.4513292971	 0.120276
H	 2.7565951898	-0.2907884581	-0.3895508804	 0.086678
H	 3.320715598	-2.3805173152	-3.2762865003	 0.120866
H	 3.3275077809	-2.3556649558	-1.4704589156	 0.079336
H	 1.1948956901	-2.4230312829	-0.3573524036	 0.085441
H	-0.2562733891	-2.3944829994	-1.4009792297	 0.11861
89.8401	149.8095	180.5861	221.5676	234.6498	320.3456	344.6204	367.9871	385.6837	436.7991	448.6577	523.9139	567.4688	663.963	778.0036	821.0282	910.5776	929.8406	955.1678	968.4072	987.6287	1049.7263	1055.6263	1067.8437	1090.8419	1136.1214	1193.8857	1205.738	1227.0142	1259.4237	1291.5284	1332.6218	1347.0487	1354.8771	1365.5306	1391.3875	1409.8355	1434.2908	1437.714	1474.9144	1483.4894	1487.1919	1501.9956	1509.4717	1511.2486	2921.5944	2969.1605	2980.2526	3026.7757	3044.1279	3062.5712	3104.1203	3106.0106	3115.8314	3119.6083	3133.3281	3789.5884
CCC1(O)COCOC1	CCC1(O)COCOC1	
InChI=1S/C6H12O3/c1-2-6(7)3-8-5-9-4-6/h7H,2-5H2,1H3	InChI=1S/C6H12O3/c1-2-6(7)3-8-5-9-4-6/h7H,2-5H2,1H3
