18
gdb 47897	2.77819	1.46447	1.0641	3.9636	77.45	-0.2216	-0.046	0.1756	1123.933	0.14921	-439.079437	-439.071474	-439.07053	-439.112	30.646	
O	 0.0426584548	 0.0644584755	 0.922161051	-0.327108
C	 0.1603871738	 1.1109579892	 0.3135159716	 0.303172
C	-1.1056080537	 1.6226779869	-0.4366626934	-0.188655
O	-1.2160702415	 3.0112847612	-0.6815642104	-0.228372
C	-1.0666796927	 3.4644468069	-2.0105817018	-0.08142
C	 0.3902133481	 3.8344436224	-2.3411727127	-0.173032
N	 1.2858901389	 2.7656330748	-1.9014496396	-0.275535
C	 1.7379942729	 2.8130457807	-0.5828242581	 0.000294
C	 1.3711281333	 1.9447883532	 0.3748969356	-0.17954
H	-1.2164775992	 1.042775784	-1.3660520986	 0.108337
H	-1.9354407094	 1.3281090934	 0.215410073	 0.137504
H	-1.4141430016	 2.6925336736	-2.7160952059	 0.095651
H	-1.7172999045	 4.338061324	-2.1354629807	 0.113884
H	 0.4908306697	 4.0087844512	-3.4195339617	 0.108852
H	 0.6785110344	 4.7533506555	-1.8222935139	 0.124118
H	 0.914002029	 1.8534799065	-2.1370168661	 0.235579
H	 2.4813303006	 3.5868404853	-0.3923574078	 0.115415
H	 1.9356359171	 1.8744993155	 1.2988629194	 0.110856
80.0385	160.4087	206.9425	246.8613	312.6683	365.3045	424.9125	450.7452	496.0076	529.0123	626.2772	678.1318	767.8284	787.6135	825.2668	855.9343	907.4882	958.4504	990.3143	994.5391	1010.0982	1124.3592	1153.194	1161.467	1220.1885	1246.0365	1280.2879	1302.6241	1328.4157	1361.0651	1367.8551	1407.2183	1415.7037	1462.3581	1478.1283	1487.854	1500.9265	1675.8489	1754.8641	2976.7126	2988.5937	3032.3427	3058.1907	3068.3917	3097.7015	3129.6519	3189.576	3551.2561
O=C1COCCNC=C1	O=C1COCCN[CH][CH]1	
InChI=1S/C6H9NO2/c8-6-1-2-7-3-4-9-5-6/h1-2,7H,3-5H2/b2-1-	InChI=1S/C6H9NO2/c8-6-1-2-7-3-4-9-5-6/h1-2,7H,3-5H2
