15
gdb 19464	4.94308	1.67627	1.63233	4.0817	66.85	-0.235	-0.0113	0.2237	819.9304	0.120118	-362.628797	-362.622527	-362.621582	-362.659313	24.428	
O	 0.0200831711	 0.0127000074	-0.395440307	-0.332489
C	 0.0302667718	 1.1936399591	-0.1138711391	 0.128744
N	 1.0975820518	 1.870597166	 0.3907084338	-0.033532
C	 2.5446769998	 1.5560540344	 0.1197181673	-0.067318
C	 2.4735573595	 2.6594823754	-0.9955438099	-0.204679
C	 1.5245923609	 3.2844681447	 0.0846679372	-0.08659
C	 2.5199474934	 3.5066665945	 1.2370952157	-0.067126
C	 3.198181072	 2.356493062	 1.2591017576	-0.067325
H	-0.8694726693	 1.8415610623	-0.1730225681	 0.067667
H	 2.8055569166	 0.5188175252	-0.0683507736	 0.110895
H	 3.3919918079	 3.1983122817	-1.2370265089	 0.108131
H	 1.9443095446	 2.3234752342	-1.8916015721	 0.118455
H	 0.7544358289	 4.0222895571	-0.1336128146	 0.089652
H	 2.6039564355	 4.3898277416	 1.8522526122	 0.11716
H	 4.0003892353	 2.0222999842	 1.8995381796	 0.118357
95.3774	191.5363	296.0602	432.7222	506.6861	549.6906	634.5414	715.366	760.2532	792.6257	833.956	842.8253	896.8029	918.0182	922.4682	995.9893	1021.997	1027.9896	1042.4156	1083.5502	1141.1515	1148.4304	1222.2698	1230.135	1238.5409	1255.565	1315.8718	1372.5477	1422.2183	1493.2998	1617.9575	1780.1261	2912.1154	3059.3225	3134.1515	3142.6419	3179.2485	3236.6783	3262.5062
O=CN1C2CC1C=C2	O=CN1[C@H]2C[C@@H]1C=C2	
InChI=1S/C6H7NO/c8-4-7-5-1-2-6(7)3-5/h1-2,4-6H,3H2	InChI=1S/C6H7NO/c8-4-7-5-1-2-6(7)3-5/h1-2,4-6H,3H2/t5-,6+
