16
gdb 73751	2.66319	1.51352	1.12741	4.4747	77.84	-0.2493	-0.0521	0.1972	1083.6182	0.124914	-400.727566	-400.719903	-400.718958	-400.75987	28.869	
C	-0.0260628317	 1.470616364	 0.07910845	-0.524247
C	 0.0134307911	-0.0099550025	 0.0068154496	 0.233661
C	 0.0011430364	-0.8676526227	-1.0320182221	 0.164515
C	-0.0604089617	-0.6297656052	-2.4170442361	 0.164811
N	-0.1152082328	-0.454041619	-3.562545796	-0.354173
C	 0.0637644775	-2.2352799612	-0.3034103649	-0.044067
C	-1.0171604114	-2.0388649627	 0.7979436663	-0.223881
C	 0.0786743503	-1.0014561742	 1.1894352916	-0.02417
O	 1.0747203037	-1.9630969831	 0.7147340322	-0.273293
H	 0.8661115733	 1.8577904547	 0.5868793212	 0.150108
H	-0.0819688238	 1.9189265856	-0.9155505649	 0.15558
H	-0.8901782109	 1.8117785879	 0.6630357553	 0.143941
H	 0.2132735481	-3.1455284776	-0.8798970215	 0.10467
H	-2.0084170526	-1.6847088122	 0.5087652002	 0.111457
H	-1.062033603	-2.8763335167	 1.4968531777	 0.121496
H	 0.2433263277	-0.6260721251	 2.1983590114	 0.093591
131.5427	135.0814	161.5282	191.0697	292.2701	445.2892	486.3877	519.4322	572.2353	610.1106	675.8509	697.1651	835.5519	847.3952	855.9388	913.8783	930.797	1007.2786	1029.8553	1047.0412	1066.3616	1112.5441	1159.6985	1188.37	1210.3322	1237.2111	1254.3122	1296.1817	1323.6861	1412.1762	1474.9758	1476.7157	1486.6918	1687.0853	2326.4336	3022.2244	3070.3089	3072.1207	3125.0501	3139.7187	3146.2593	3156.8725
CC1=C(C#N)C2CC1O2	CC1=C(C#N)[C@@H]2C[C@H]1O2	
InChI=1S/C7H7NO/c1-4-5(3-8)7-2-6(4)9-7/h6-7H,2H2,1H3	InChI=1S/C7H7NO/c1-4-5(3-8)7-2-6(4)9-7/h6-7H,2H2,1H3/t6-,7+/m1/s1
