20
gdb 34030	2.99853	1.32198	1.13798	1.8519	85.53	-0.2232	0.0425	0.2658	1158.4835	0.171913	-365.962325	-365.954064	-365.95312	-365.99481	33.005	
C	 0.0268150045	-1.1925084355	 0.0802124328	-0.395809
C	 0.0234332128	 0.0073182409	 0.0003228222	 0.270167
C	-0.0394467726	 1.4482732018	-0.0868437792	 0.103203
C	 0.4829256637	 2.1148438178	-1.3216087746	-0.27524
N	 1.2822326202	 2.1263748148	-0.1071728661	-0.12009
C	 1.4552197511	 3.4137818074	 0.5948894132	-0.14511
C	 0.3442728959	 3.7749807899	 1.5874796298	-0.194176
C	-1.0385771651	 3.5513647879	 0.971815516	-0.219872
C	-1.223422178	 2.060534541	 0.6661589994	-0.27107
H	 0.0499988379	-2.2519211622	 0.1463425284	 0.188276
H	 0.8689531643	 1.5108677962	-2.1387667017	 0.117888
H	-0.0061969393	 3.0384190339	-1.630066586	 0.105851
H	 2.4169203428	 3.3709351938	 1.1182370885	 0.109071
H	 1.5430318275	 4.2065155668	-0.1593306149	 0.100846
H	 0.4372073061	 3.1545697587	 2.4883144684	 0.105328
H	 0.4775980943	 4.8145490472	 1.9054882578	 0.097789
H	-1.8280225886	 3.8776998601	 1.6565548936	 0.099584
H	-1.1487200523	 4.1566540767	 0.0629818798	 0.098441
H	-2.1432656365	 1.875042914	 0.1006598161	 0.110364
H	-1.3284306487	 1.5205742688	 1.6143002466	 0.11456
102.2727	145.0663	169.0367	274.1467	329.7567	393.0833	396.3831	470.4796	528.017	551.3778	557.7884	609.0152	642.1879	672.0751	745.7115	826.3229	849.1065	887.3013	924.8095	936.064	963.3961	977.6875	1070.8197	1086.8048	1112.2744	1127.584	1155.5082	1191.6905	1213.8725	1226.687	1286.9571	1297.8088	1342.6791	1364.6647	1381.9395	1388.0933	1398.394	1484.3416	1489.4076	1496.6045	1499.4815	1517.0166	2236.0738	3016.4043	3021.4188	3026.9614	3034.8142	3056.4839	3068.8685	3074.3335	3079.2104	3085.7572	3173.5518	3503.5375
C#CC12CN1CCCC2	C#C[C@]12CN1CCCC2	
InChI=1S/C8H11N/c1-2-8-5-3-4-6-9(8)7-8/h1H,3-7H2	InChI=1S/C8H11N/c1-2-8-5-3-4-6-9(8)7-8/h1H,3-7H2/t8-,9?/m0/s1
