19
gdb 35127	5.53371	0.79924	0.76612	1.794	83.22	-0.2505	0.0261	0.2766	1519.8759	0.158156	-385.821108	-385.812264	-385.81132	-385.855557	33.04	
C	-0.4829259236	-1.1482306233	-0.5089988369	-0.468674
C	-0.2019584123	-0.0135104324	-0.2282097727	 0.341199
C	 0.125609485	 1.3617742582	 0.1183127915	-0.038957
C	-0.0706363779	 1.7667785369	 1.6035085621	-0.320768
C	 1.4706487447	 1.8757507378	 1.6387981092	 0.151862
O	 1.5507848782	 1.6098170438	 0.2103893884	-0.300187
C	 2.0865104356	 3.184211302	 2.0238504287	 0.012367
C	 2.5560880999	 3.3928090807	 3.4457347487	-0.273253
C	 3.5609738248	 3.2593316653	 2.3330763976	-0.265557
H	-0.7271405921	-2.1498210731	-0.7640851867	 0.201065
H	-0.3368831511	 2.0424664897	-0.6071311866	 0.106012
H	-0.5891304789	 2.7182001065	 1.7342444983	 0.112441
H	-0.5204231485	 1.0094118578	 2.2443987581	 0.120904
H	 1.9486038808	 1.0616033877	 2.2027165327	 0.073865
H	 1.6514945417	 4.044671125	 1.5222254976	 0.082835
H	 2.4025736103	 4.3678208301	 3.893791714	 0.114991
H	 2.4538315899	 2.5653918397	 4.140588316	 0.113809
H	 4.1356111597	 2.3410577398	 2.2732159849	 0.119764
H	 4.1019903139	 4.1432684278	 2.0154751753	 0.116283
37.615	84.1055	123.6469	211.2799	221.5081	284.3209	351.5354	441.3158	514.6638	570.8222	619.0484	665.9323	736.5404	785.139	797.7158	832.1663	884.7314	919.2816	935.5876	971.4646	991.7792	1005.9654	1018.4382	1062.3164	1081.5946	1092.8615	1133.1737	1135.6325	1197.17	1221.5406	1230.7141	1251.8521	1255.7068	1305.1198	1328.7892	1364.2969	1444.426	1470.9848	1489.7041	1506.7265	2232.79	2996.4422	3024.0862	3086.0342	3132.5586	3137.4133	3143.6705	3150.8415	3211.5063	3226.7604	3503.2853
C#CC1CC(O1)C1CC1	C#C[C@H]1C[C@@H](O1)C1CC1	
InChI=1S/C8H10O/c1-2-7-5-8(9-7)6-3-4-6/h1,6-8H,3-5H2	InChI=1S/C8H10O/c1-2-7-5-8(9-7)6-3-4-6/h1,6-8H,3-5H2/t7-,8+/m0/s1
