21
gdb 114940	4.35314	0.81974	0.712	3.4461	87.87	-0.2464	-0.0524	0.194	1604.4311	0.1822	-387.129597	-387.120291	-387.119347	-387.164224	34.225	
C	-0.1130470038	 1.7856920484	-0.4608688386	-0.38525
C	-0.2181274345	 0.2958629488	-0.1207318625	-0.189201
C	 0.7532179588	-0.5890495181	-0.9063332793	 0.04041
C	 2.2610543699	-0.3139170747	-0.6290255295	-0.270516
C	 2.8948219374	-1.6719536738	-0.7524811112	-0.149854
C	 1.9818186053	-2.6546997593	-0.7629921797	 0.24599
C	 0.5770459137	-2.1107718891	-0.645877006	-0.341979
C	 2.3062018343	-4.0796787906	-0.8365522967	 0.067225
O	 1.4842217356	-4.9701614824	-0.8132723883	-0.272944
H	 0.8829544451	 2.1814318684	-0.2352125548	 0.117058
H	-0.3053006285	 1.9620936695	-1.5252525347	 0.115252
H	-0.8382951123	 2.3739693223	 0.1094908242	 0.114795
H	-0.0439723258	 0.1484703473	 0.9541428203	 0.094356
H	-1.2426639738	-0.0480973547	-0.3113687718	 0.099953
H	 0.5853786586	-0.4163082453	-1.9775336947	 0.077976
H	 2.6989107091	 0.4231707112	-1.3109507248	 0.114658
H	 2.4192059278	 0.0815871565	 0.3867487381	 0.11592
H	 3.9686598891	-1.8286847618	-0.7925832884	 0.107311
H	 0.1796925972	-2.3053500581	 0.3600639181	 0.113563
H	-0.1163365259	-2.5876363439	-1.3445186603	 0.121364
H	 3.3940276828	-4.3030005304	-0.9210868493	 0.06391
58.6711	102.6402	122.9893	158.2819	215.9121	241.9562	292.9869	388.6949	408.2179	438.7819	488.8129	611.2557	726.6251	773.8878	828.2425	840.0249	882.5224	919.3054	948.0346	975.1795	987.3741	1029.0426	1037.6642	1070.3499	1122.2616	1138.1958	1152.9693	1209.9534	1223.6265	1268.3986	1292.5039	1307.9488	1335.2659	1348.8436	1375.1605	1389.3265	1411.761	1420.7043	1472.2535	1484.3727	1490.3164	1499.6892	1507.2475	1681.8611	1782.8335	2872.3231	2990.4675	3008.0323	3012.9063	3022.7927	3030.9321	3047.4307	3061.7266	3084.9277	3096.6822	3103.886	3181.664
CCC1CC=C(C1)C=O	CC[C@H]1CC=C(C1)C=O	
InChI=1S/C8H12O/c1-2-7-3-4-8(5-7)6-9/h4,6-7H,2-3,5H2,1H3	InChI=1S/C8H12O/c1-2-7-3-4-8(5-7)6-9/h4,6-7H,2-3,5H2,1H3/t7-/m0/s1
