17
gdb 69617	3.62756	1.19162	1.1497	2.7946	81.52	-0.2023	0.0239	0.2263	1137.0916	0.134125	-380.730502	-380.722294	-380.72135	-380.762817	32.481	
C	-0.0914685113	 1.5410290393	 0.0361983145	-0.510448
C	 0.0758884296	 0.0558035612	 0.0175610487	 0.349088
N	-0.8277664007	-0.8874993173	 0.717526639	-0.345676
C	 0.6255923478	-0.8971787896	 1.0063353591	-0.199269
C	 1.3620983202	-1.6864079371	-0.1327111175	 0.219678
N	 0.3414226893	-2.1389945956	-1.1267345884	-0.345146
C	 0.7846084555	-0.7378651534	-1.1365510959	-0.18212
C	 2.6580537158	-2.2490472315	-0.0415431938	 0.178724
C	 3.7595886667	-2.7243287438	 0.0671814887	-0.405243
H	 0.825256451	 2.044513051	-0.2907435659	 0.128679
H	-0.9028723854	 1.8586319946	-0.6293557295	 0.133196
H	-0.3246732816	 1.8950362887	 1.0460553566	 0.121382
H	-1.2640730922	-0.3602781925	 1.4757162905	 0.226463
H	 1.026213884	-0.7383299514	 1.998988018	 0.097704
H	 0.8643212897	-2.6176717832	-1.8618833638	 0.237549
H	 1.2686800844	-0.2881960277	-1.9944525674	 0.107532
H	 4.7303051573	-3.1449583915	 0.1562204671	 0.187909
109.9016	147.076	211.9944	248.0519	290.9991	392.9169	432.7115	472.2434	510.4347	545.7589	555.9699	583.4089	664.7813	675.4844	782.8603	802.5099	850.4544	865.541	892.9964	935.3587	948.8788	992.1245	1015.3178	1046.4822	1083.7022	1110.5243	1141.4303	1220.9454	1254.9491	1267.9698	1345.4331	1381.3145	1413.0369	1448.3503	1481.7073	1498.5344	2227.6116	3022.4022	3083.9554	3096.6261	3196.533	3203.1435	3455.4816	3463.2109	3502.7947
CC12NC1C1(NC21)C#C	C[C@]12N[C@H]1[C@]1(N[C@@H]21)C#C	
InChI=1S/C7H8N2/c1-3-7-4-6(2,8-4)5(7)9-7/h1,4-5,8-9H,2H3	InChI=1S/C7H8N2/c1-3-7-4-6(2,8-4)5(7)9-7/h1,4-5,8-9H,2H3/t4-,5+,6+,7-/m1/s1
