18
gdb 72553	2.3797	2.03563	1.50935	3.1919	72.44	-0.2511	0.0219	0.273	941.4553	0.149305	-439.108325	-439.100938	-439.099993	-439.139762	29.684	
C	 0.0241551947	 1.4935878131	 0.0950270329	-0.474188
C	-0.0092219913	-0.0040065362	-0.0419179744	 0.314647
C	 0.6373559376	-0.7151843206	-1.2456168606	-0.28116
C	 0.2660498202	-2.0877086893	-0.6666299261	 0.051841
C	 0.8943587609	-1.9978707455	 0.7267112169	-0.081997
O	 0.6796432973	-0.622326444	 1.080350212	-0.309987
O	-1.1677560218	-1.9652387141	-0.4727004044	-0.264502
C	-1.3848671231	-0.6637911859	-0.0735933254	 0.431174
N	-2.4956596152	-0.1499474547	 0.2205318359	-0.570493
H	 1.0572778094	 1.8433654713	 0.1659500837	 0.121377
H	-0.4576252631	 1.9631426117	-0.7659987182	 0.129818
H	-0.519176644	 1.7959324176	 0.9929044893	 0.15126
H	 0.1441560592	-0.5128405444	-2.1982947672	 0.121398
H	 1.7115346179	-0.5342735704	-1.3165328292	 0.115514
H	 0.4654795332	-2.9878372185	-1.2440666017	 0.097626
H	 0.3889679627	-2.6583958403	 1.4392649375	 0.117607
H	 1.96797992	-2.2240164982	 0.7199297674	 0.106181
H	-3.2493536047	-0.8358659817	 0.1411033716	 0.223883
150.5874	188.5852	239.9921	285.4902	319.5072	424.9422	437.2834	501.5499	584.6944	638.3583	708.8213	738.4455	829.943	850.8873	881.2084	886.847	909.037	951.9943	956.0455	979.9366	1009.2974	1038.3097	1063.8649	1114.3375	1152.0031	1188.3751	1210.379	1224.2599	1260.8822	1291.5328	1326.2597	1365.2433	1381.9465	1422.1286	1477.9047	1481.2335	1488.8057	1517.9284	1795.3107	3023.8608	3055.8084	3075.6518	3079.7179	3132.2121	3138.5488	3142.5931	3150.8743	3463.8823
CC12CC(CO1)OC2=N	C[C@@]12C[C@@H](CO1)O[C]2[NH]	
InChI=1S/C6H9NO2/c1-6-2-4(3-8-6)9-5(6)7/h4,7H,2-3H2,1H3	InChI=1S/C6H9NO2/c1-6-2-4(3-8-6)9-5(6)7/h4,7H,2-3H2,1H3/t4-,6-/m0/s1
