18
gdb 99234	4.04712	0.83045	0.76584	4.3927	70.8	-0.2278	0.0281	0.2559	1506.9881	0.147659	-472.478061	-472.467777	-472.466833	-472.514486	35.798	
C	-0.4687735551	 1.1298919173	 0.7145469165	-0.323415
N	 0.1598488759	-0.0782220306	 0.2120351798	-0.352676
C	 0.7954295349	-0.9440350658	 1.0665900738	 0.507387
O	 0.7694724449	-0.8139485781	 2.2881424561	-0.42521
N	 1.4645787073	-1.9738412565	 0.4444549128	-0.362049
C	 2.1297515919	-3.009625959	 1.2237274104	-0.253391
C	 1.1823834191	-4.0988362936	 1.7667382142	 0.366161
N	 0.3428268712	-3.6547971613	 2.7368769507	-0.508648
O	 1.2109172387	-5.2423241199	 1.3508157071	-0.364297
H	 0.2133862786	 1.9899052438	 0.719553022	 0.125698
H	-1.3424620175	 1.3764412073	 0.1048028403	 0.124924
H	-0.785702151	 0.9414375811	 1.7401877171	 0.1671
H	 0.4500742859	-0.0790141247	-0.7526284142	 0.241953
H	 1.1821815849	-2.2257318387	-0.4898515279	 0.248105
H	 2.8621449665	-3.5096562327	 0.5887681635	 0.128347
H	 2.6455565036	-2.5190061012	 2.0529977564	 0.144599
H	 0.3132643659	-2.6682470138	 2.9660339173	 0.282706
H	-0.3610394558	-4.2855768537	 3.0841806142	 0.252707
41.8865	65.3851	81.5621	119.9688	161.6166	214.5929	270.4258	318.2405	369.0489	415.4719	436.6252	465.9403	507.1723	548.1367	677.3288	708.6724	759.458	778.2993	879.1437	903.9467	1017.0136	1051.2294	1146.8673	1153.1824	1171.4275	1187.1567	1243.4905	1292.549	1350.9456	1381.3071	1441.9544	1458.1052	1488.3875	1497.5322	1520.3236	1575.416	1621.6619	1746.5975	1803.6265	3020.0986	3076.919	3089.8691	3140.878	3159.3313	3509.4138	3624.1884	3632.3579	3690.2689
CNC(=O)NCC(N)=O	CNC(=O)NCC(=O)N	
InChI=1S/C4H9N3O2/c1-6-4(9)7-2-3(5)8/h2H2,1H3,(H2,5,8)(H2,6,7,9)	InChI=1S/C4H9N3O2/c1-6-4(9)7-2-3(5)8/h2H2,1H3,(H2,5,8)(H2,6,7,9)
