18
gdb 49629	3.5176	1.54958	1.33948	2.7324	74.79	-0.2388	-0.0257	0.2132	977.6756	0.149456	-401.890541	-401.883708	-401.882763	-401.92199	27.457	
O	-0.8477986078	 0.981138901	 0.2997643303	-0.249374
C	 0.2589553609	 0.6680329119	-0.0589110541	 0.127404
C	 1.4716865782	 1.5748264462	 0.0011239181	-0.031685
C	 1.5468293915	 2.6172299602	 1.130207581	-0.068018
C	 1.5266674627	 1.6791448469	 2.3675575463	-0.24485
C	 2.8732739495	 1.2244702819	 1.8114613786	 0.013156
C	 3.1435707611	 2.647757441	 1.2538837321	-0.046421
C	 3.7264883886	 1.9569359873	 0.0264700188	-0.187935
N	 2.7406710442	 0.8348564626	 0.2952536617	-0.17587
H	 0.4708538079	-0.3253209099	-0.5134236057	 0.090238
H	 1.5434820884	 2.0147855348	-1.00367976	 0.099361
H	 0.9390582016	 3.5169164872	 1.0697562879	 0.081625
H	 1.686635093	 2.2286868627	 3.2994986495	 0.105965
H	 0.6989492266	 0.9779023527	 2.4864061621	 0.11992
H	 3.5979309555	 0.6019720945	 2.332663041	 0.082541
H	 3.6029243214	 3.4600080378	 1.8178810161	 0.073833
H	 3.6546914289	 2.4026488893	-0.9708873339	 0.100362
H	 4.7477724078	 1.6048764619	 0.1981184401	 0.109747
77.7674	187.5626	221.4305	412.8614	417.7338	460.8759	650.258	669.8357	698.0509	765.9097	802.2633	836.7318	858.1509	875.5861	907.5153	926.9639	986.8812	991.7683	1003.2269	1025.1707	1042.5494	1058.2449	1084.0345	1100.1072	1119.8281	1166.4464	1191.2338	1199.8861	1237.4215	1239.4891	1256.7646	1288.6392	1292.8006	1309.016	1359.2406	1404.7508	1502.1605	1512.5068	1826.0273	2891.4913	3011.3443	3042.8116	3066.6041	3099.5809	3110.9045	3127.0174	3138.6969	3147.6718
O=CC1C2CC3C2CN13	O=C[C@H]1[C@H]2C[C@@H]3[C@H]2CN13	
InChI=1S/C7H9NO/c9-3-7-4-1-6-5(4)2-8(6)7/h3-7H,1-2H2	InChI=1S/C7H9NO/c9-3-7-4-1-6-5(4)2-8(6)7/h3-7H,1-2H2/t4-,5-,6+,7-/m0/s1
