17
gdb 60734	4.10479	0.96659	0.82953	2.5764	74.46	-0.2556	-0.0317	0.2239	1361.1053	0.135301	-455.142808	-455.133652	-455.132707	-455.177994	32.024	
C	-0.4891544224	 1.5505149165	 0.2628833949	-0.357226
N	-0.0046576665	 0.175399494	 0.1255851039	-0.13928
C	 0.0622587936	-0.6294247372	 1.2661415028	 0.10346
N	-0.2825209219	-0.1957747629	 2.4095700682	-0.476499
C	 0.4010440001	-0.3815215132	-1.0850675022	 0.44113
O	 0.8149315703	-1.5186902578	-1.1778231495	-0.360357
C	 0.3235899704	 0.5081671594	-2.3052198675	-0.06879
C	 1.3695379287	 0.3395652187	-3.3348904909	-0.158908
O	 0.0694313976	-0.1903277089	-3.5213729888	-0.204249
H	 0.257022317	 2.2692956791	-0.085725037	 0.137307
H	-1.4230604496	 1.7000194758	-0.2864355585	 0.142248
H	-0.6735249051	 1.7158193063	 1.3233745733	 0.184361
H	 0.4337270612	-1.6247789583	 1.0265805067	 0.149795
H	-0.16516577	-0.9254925937	 3.1093097627	 0.235049
H	-0.1791591477	 1.466614089	-2.2271760065	 0.107787
H	 1.6327790433	 1.1905251272	-3.9613435438	 0.122039
H	 2.146559071	-0.3996808742	-3.154965218	 0.142135
33.1901	60.3774	160.1848	184.4142	194.7695	277.6245	316.2645	328.2329	344.9194	405.8878	540.3514	712.7846	750.5747	796.7518	834.4878	874.6047	901.1516	971.857	1023.6846	1086.6487	1093.5454	1109.2083	1154.1819	1161.9349	1168.2467	1183.8941	1285.3326	1329.1962	1355.4471	1401.8333	1434.3813	1459.114	1505.1021	1505.9471	1512.6063	1713.6137	1781.5046	3045.2083	3091.4092	3110.934	3151.0228	3162.6478	3167.9527	3194.5212	3512.8052
CN(C=N)C(=O)C1CO1	CN(C=N)C(=O)[C@H]1CO1	
InChI=1S/C5H8N2O2/c1-7(3-6)5(8)4-2-9-4/h3-4,6H,2H2,1H3	InChI=1S/C5H8N2O2/c1-7(3-6)5(8)4-2-9-4/h3-4,6H,2H2,1H3/t4-/m1/s1
