17
gdb 83221	2.55066	1.62863	1.31248	2.0846	72.58	-0.2349	0.0446	0.2795	1010.674	0.135584	-421.761404	-421.753321	-421.752377	-421.794215	31.112	
O	 0.3374819448	 1.3145764503	 0.2636044196	-0.418087
C	 0.0808000518	-0.0283987749	 0.047351352	 0.113819
C	-0.4683896975	-0.8608842699	 1.1704957399	 0.006872
O	-0.9516701932	-0.0498141533	 2.2204191139	-0.271083
C	-2.3337938879	 0.2333398529	 1.9796613234	-0.091956
C	-2.5386365723	 0.2113474101	 0.432647547	-0.214829
C	-2.6923163166	 1.5348921455	-0.1654799801	 0.354474
C	-2.8831373944	 2.6200298514	-0.6452115475	-0.486026
C	-1.3286198473	-0.6077758149	-0.047084474	-0.137794
H	 0.0773271429	 1.4940246244	 1.1786237828	 0.293671
H	 0.810126158	-0.4822626727	-0.6177608372	 0.105967
H	-0.0800785817	-1.8270113766	 1.4775986298	 0.099222
H	-2.9567626915	-0.5400406147	 2.4490015567	 0.10546
H	-2.5641744924	 1.2010336525	 2.4291317154	 0.126969
H	-3.4454042174	-0.362210276	 0.2092452576	 0.11496
H	-3.0168807937	 3.5803615553	-1.0779554433	 0.197471
H	-1.5049853115	-1.3840381594	-0.7819345361	 0.10089
64.4764	123.4591	184.7701	232.852	278.2032	436.2378	439.9319	479.9617	577.0998	623.8556	640.6839	645.6366	699.6189	739.4651	788.1744	801.4415	829.1767	918.175	983.099	1008.0015	1036.0817	1062.2927	1074.1336	1094.3151	1125.2882	1132.558	1205.2625	1239.5794	1250.8757	1295.6733	1323.9458	1345.5883	1356.9739	1391.518	1447.4279	1513.3025	2236.8723	3010.043	3040.3162	3117.2519	3147.5208	3155.1033	3182.256	3504.3398	3731.6228
OC1C2OCC(C#C)C12	O[C@H]1[C@H]2OC[C@@H](C#C)[C@@H]12	
InChI=1S/C7H8O2/c1-2-4-3-9-7-5(4)6(7)8/h1,4-8H,3H2	InChI=1S/C7H8O2/c1-2-4-3-9-7-5(4)6(7)8/h1,4-8H,3H2/t4-,5+,6-,7+/m1/s1
