16
gdb 52889	2.04762	1.21202	0.86099	4.3336	80.37	-0.2569	0.0067	0.2636	1362.8367	0.121436	-400.719074	-400.709184	-400.70824	-400.755031	34.315	
C	-0.1213016237	 1.4085756742	 0.0427216285	-0.504774
C	-0.0629437556	-0.0457570527	 0.0303670294	 0.139722
C	 0.0310377354	-1.2480690446	 0.0231461927	-0.054304
C	 0.0551353439	-2.6841431591	 0.0032756683	-0.043319
C	-0.467716781	-3.4377257111	 1.2500631689	-0.339443
C	-1.3320963423	-3.382236278	 0.0386551062	 0.126244
O	-2.4747828556	-2.6129888931	-0.0194706391	-0.414612
C	 1.0993566692	-3.3117753492	-0.7653584198	 0.230746
N	 1.925666282	-3.8406519672	-1.378292216	-0.342136
H	 0.887578605	 1.8339679656	 0.0201782023	 0.165282
H	-0.6674934074	 1.7955405297	-0.8238903857	 0.159014
H	-0.6173847553	 1.7772282822	 0.9467842679	 0.156963
H	 0.031511064	-4.3680967163	 1.4948818098	 0.14823
H	-0.7289428354	-2.8062523957	 2.0909695298	 0.14231
H	-1.4152605185	-4.2800301774	-0.5651038564	 0.138881
H	-2.2193932548	-1.6810090473	 0.0411572132	 0.291193
31.6503	77.9362	108.2818	149.5816	176.4161	227.8836	272.126	304.627	389.6588	415.7231	477.2042	509.2156	529.3646	595.072	622.7855	783.4745	854.0283	888.7425	983.9143	1048.6908	1053.6365	1058.1169	1070.978	1098.4356	1153.9449	1242.7028	1326.0545	1362.7041	1414.046	1427.7119	1469.0226	1473.3879	1477.0483	2351.9352	2360.7065	3033.3267	3097.1281	3099.0487	3145.7258	3175.0938	3245.5267	3721.4518
CC#CC1(CC1O)C#N	CC#C[C@]1(C[C@H]1O)C#N	
InChI=1S/C7H7NO/c1-2-3-7(5-8)4-6(7)9/h6,9H,4H2,1H3	InChI=1S/C7H7NO/c1-2-3-7(5-8)4-6(7)9/h6,9H,4H2,1H3/t6-,7+/m1/s1
