19
gdb 54832	2.86469	1.38963	1.0619	3.2117	77.55	-0.228	0.0434	0.2714	1167.2121	0.159096	-419.208788	-419.199906	-419.198962	-419.242245	33.85	
C	 0.2187718101	 1.3808253795	-0.256029024	-0.486248
C	-0.003276271	-0.0834451274	-0.0372423997	 0.33922
C	-1.3651745044	-0.7859551675	 0.147001416	-0.275232
C	-0.6841947843	-1.7976782058	 1.1357930072	-0.235125
C	 0.6450912241	-1.0740607351	 0.8965548443	-0.106313
N	 0.8915854811	-1.1210430491	-0.5523783199	-0.161262
C	 2.1328915232	-0.8240119625	-1.1248803895	 0.39614
N	 3.1535390787	-1.6335552356	-0.6580524238	-0.537062
O	 2.3003292666	 0.022764989	-1.979398955	-0.381404
H	 1.266536	 1.6540603541	-0.1183687923	 0.140302
H	-0.058958474	 1.6666187342	-1.2752462328	 0.143376
H	-0.3931883871	 1.9579480498	 0.444974888	 0.11219
H	-2.1003458785	-0.1501054349	 0.6456617959	 0.105382
H	-1.8001714345	-1.20261123	-0.7638967865	 0.109639
H	-1.0482265688	-1.6864552977	 2.1595442591	 0.106801
H	-0.7043335587	-2.8536183424	 0.8554732356	 0.105464
H	 1.4781374909	-0.9336355355	 1.5759647483	 0.10801
H	 2.8981926493	-2.517607383	-0.2462369403	 0.256076
H	 3.9635069671	-1.6537777103	-1.2585864106	 0.260046
71.229	148.357	165.3385	186.5488	228.2532	305.21	355.9954	389.1022	453.9463	493.0875	527.3579	606.0654	671.8218	701.3826	776.5108	781.3114	796.1144	913.5844	914.5071	932.0965	961.9229	1002.2394	1037.0118	1101.071	1109.7383	1126.2838	1153.2392	1218.6385	1220.1283	1235.2828	1273.6802	1299.669	1361.8374	1411.1807	1445.3398	1467.6683	1476.0169	1485.9361	1494.0286	1616.703	1792.1236	3041.7331	3063.3003	3070.9867	3105.298	3114.6101	3131.7346	3134.8213	3185.199	3579.7231	3700.1295
CC12CCC1N2C(N)=O	C[C@]12CC[C@H]1N2C(=O)N	
InChI=1S/C6H10N2O/c1-6-3-2-4(6)8(6)5(7)9/h4H,2-3H2,1H3,(H2,7,9)	InChI=1S/C6H10N2O/c1-6-3-2-4(6)8(6)5(7)9/h4H,2-3H2,1H3,(H2,7,9)/t4-,6+,8?/m1/s1
