19
gdb 70935	3.3464	1.5214	1.28802	2.5918	75.28	-0.2475	0.0779	0.3254	1022.4616	0.160553	-422.957236	-422.949761	-422.948816	-422.988906	30.323	
O	-0.0236532985	 1.3641933867	 0.0585488662	-0.468954
C	 0.0217588372	-0.0136847443	 0.0148330326	 0.353665
C	 0.6351412715	-0.9402768974	-1.1325345241	-0.392753
C	-0.0225605133	-1.8824795313	-0.0933188581	 0.31758
C	 0.6220150199	-1.0040811048	 1.0385110039	-0.331754
C	-0.616021543	-3.2406671438	 0.175747394	-0.386866
C	-1.8087179572	-2.8103809127	 1.111499118	-0.069742
O	-2.0175702892	-1.3791210742	 0.9928375435	-0.291277
C	-1.222621434	-0.934157703	-0.0811234075	 0.094575
H	 0.8704206635	 1.6981135893	 0.190296748	 0.283678
H	 0.1653180272	-0.8799260225	-2.1175859983	 0.100642
H	 1.7253155841	-0.9517611277	-1.2006043626	 0.093535
H	 1.7129673355	-1.0443197826	 1.1052357385	 0.0805
H	 0.145684907	-1.0352864654	 2.0179725547	 0.114444
H	-0.9896093073	-3.7054370779	-0.7420651665	 0.11229
H	 0.0485422428	-3.950404444	 0.6745710857	 0.109436
H	-2.7340646263	-3.3333717059	 0.8431166378	 0.106241
H	-1.588870629	-3.0251689125	 2.1626490268	 0.110484
H	-1.8079785208	-0.8355199961	-1.0045217824	 0.064276
103.5236	216.3871	241.4629	255.179	345.4388	412.5848	489.6898	510.1187	578.998	645.8537	689.0447	734.237	787.384	834.9793	846.0077	904.4864	918.8295	959.7609	969.9286	1012.5938	1034.5486	1055.7196	1093.6665	1098.846	1120.2352	1129.0887	1142.5635	1158.6251	1172.1102	1223.2805	1236.5841	1275.5414	1291.5258	1327.4714	1358.6201	1382.9674	1406.1408	1486.2551	1491.5771	1519.6622	1535.7722	3019.3531	3030.1688	3054.2428	3056.081	3061.7796	3069.3881	3106.9685	3126.6652	3145.7476	3806.7591
OC12CC3(C1)CCOC23	O[C@@]12C[C@]3(C1)CCO[C@@H]23	
InChI=1S/C7H10O2/c8-7-3-6(4-7)1-2-9-5(6)7/h5,8H,1-4H2	InChI=1S/C7H10O2/c8-7-3-6(4-7)1-2-9-5(6)7/h5,8H,1-4H2/t5-,6-,7-/m1/s1
