16
gdb 32022	2.81097	1.43008	0.95428	5.5425	80.37	-0.1963	-0.0302	0.1661	1184.1418	0.124661	-437.951957	-437.943527	-437.942583	-437.985462	30.7	
C	-0.1098128093	 1.4823955594	 0.0400065059	-0.325925
N	-0.0531771086	 0.0356660437	-0.0849142171	-0.353266
C	-1.1458692087	-0.766625207	-0.0286948614	 0.50565
C	-1.1172929231	-2.1431666102	 0.0236523156	-0.319527
C	-2.3549305912	-2.8121347355	 0.0410263675	-0.013784
C	-3.5511515973	-2.1472124633	 0.0082175367	-0.305317
C	-3.6000566874	-0.7207159362	-0.0430193667	 0.417379
O	-4.5306854953	 0.0353710499	-0.0763806877	-0.346346
O	-2.293063324	-0.0919563822	-0.0511778036	-0.265994
H	 0.8668362044	 1.8894519181	-0.2283313764	 0.131448
H	-0.8589901864	 1.8878667905	-0.6418547278	 0.16573
H	-0.3624761476	 1.8080256389	 1.0571421443	 0.13806
H	 0.8320867945	-0.4164362349	 0.0691955291	 0.258887
H	-0.1744187864	-2.6718126302	 0.0437476875	 0.090579
H	-2.3563257408	-3.8976494474	 0.0820959851	 0.10999
H	-4.5030469828	-2.6597842736	 0.0223961091	 0.112436
77.389	100.6193	155.9186	189.4235	192.7195	381.651	428.0951	442.7087	495.8911	506.0161	590.9506	699.7704	722.7421	732.8669	757.9446	813.5555	857.7378	996.7087	997.6416	1024.2576	1103.2143	1108.4592	1150.4417	1173.3537	1194.1365	1323.2047	1411.9529	1428.9923	1476.9934	1487.1279	1501.7513	1526.1113	1590.9145	1661.9712	1858.9793	3023.2435	3106.1963	3147.1247	3172.5901	3220.0668	3229.1676	3659.3244
CNC1=CC=CC(=O)O1	CNc1cccc(=O)o1	
InChI=1S/C6H7NO2/c1-7-5-3-2-4-6(8)9-5/h2-4,7H,1H3	InChI=1S/C6H7NO2/c1-7-5-3-2-4-6(8)9-5/h2-4,7H,1H3
