12
gdb 131948	2.80099	1.6531	1.04623	3.9562	61.59	-0.3065	-0.0962	0.2103	1024.3618	0.075251	-505.837924	-505.830125	-505.829181	-505.87143	26.658	
C	 0.0749289904	 1.5481862448	 0.0088202432	-0.490276
C	-0.0284586848	 0.0687937912	 0.0013100631	 0.406125
C	-1.0910100562	-0.8038484061	 0.0023385467	 0.236992
N	-0.6075651617	-2.0795918891	-0.0071762319	-0.123502
N	 0.6369462236	-2.0777303736	-0.0138565343	 0.007134
O	 1.0679543704	-0.660766806	-0.0086215356	-0.20899
N	-2.49199757	-0.49715768	 0.0115875854	 0.373739
O	-2.772591797	 0.7016395	 0.0199151961	-0.392243
O	-3.2852788822	-1.4214869133	 0.0106148232	-0.330849
H	 1.121848208	 1.8528354669	 0.0010392054	 0.160283
H	-0.4431268383	 1.9619633416	-0.8601744806	 0.180826
H	-0.4266886522	 1.9518997037	 0.8921539894	 0.180761
48.4064	77.3475	199.1207	205.5102	269.7056	310.1065	442.2674	476.9748	586.5539	665.2988	685.2683	687.9967	793.9728	849.174	983.8773	1007.4754	1058.6656	1188.0046	1273.4531	1369.8932	1408.1103	1410.754	1464.5554	1478.6719	1514.6716	1581.7548	1642.9795	3062.4308	3126.6991	3161.5861
CC1=C(N=NO1)N(=O)=O	Cc1c(nno1)N(=O)=O	
InChI=1S/C3H3N3O3/c1-2-3(6(7)8)4-5-9-2/h1H3	InChI=1S/C3H3N3O3/c1-2-3(6(7)8)4-5-9-2/h1H3
