15
gdb 10467	2.98261	1.7606	1.25622	4.4093	65.27	-0.2566	-0.0352	0.2214	962.3626	0.116861	-399.786606	-399.778645	-399.777701	-399.819296	28.411	
N	-0.186608337	 1.2955496197	 0.0287314917	-0.440297
C	-0.1189326055	 0.0415752261	 0.1148019864	 0.12852
O	-1.1989738293	-0.7025773132	-0.247318334	-0.223413
C	-1.0717832641	-2.0869376872	-0.1408491577	 0.322137
C	-1.3223648586	-2.7409577217	 1.2176294746	-0.321456
C	-2.3616637747	-2.820802294	 0.1459156037	-0.310341
C	-0.0839674808	-2.7401504027	-1.0396668933	 0.122347
O	 0.6906541155	-2.1516314855	-1.7487624033	-0.26314
H	 0.6898524348	 1.7123071346	 0.3355606634	 0.232889
H	 0.7266768388	-0.5556859434	 0.4701696629	 0.100858
H	-0.7551602333	-3.6299003377	 1.4712845838	 0.133688
H	-1.4861492538	-2.0482635396	 2.0346068622	 0.148707
H	-3.2317761507	-2.1812433153	 0.2299255287	 0.155663
H	-2.5281350342	-3.7669849198	-0.3568580994	 0.134356
H	-0.1119388669	-3.8530749904	-0.9911687897	 0.079482
78.1572	138.9476	146.6387	189.659	261.7205	324.4876	350.6603	497.9822	522.1563	592.8489	775.1936	813.2912	827.7511	872.336	910.3735	972.8428	992.3461	1036.8733	1042.6959	1064.4702	1092.5183	1097.6551	1199.1082	1266.7285	1292.1582	1338.1076	1421.2121	1431.3541	1454.1723	1486.8008	1749.1013	1827.2724	2871.3883	3071.7885	3141.4807	3146.9188	3231.0413	3245.3877	3520.6111
N=COC1(CC1)C=O	[NH][CH]OC1(CC1)C=O	
InChI=1S/C5H7NO2/c6-4-8-5(3-7)1-2-5/h3-4,6H,1-2H2	InChI=1S/C5H7NO2/c6-4-8-5(3-7)1-2-5/h3-4,6H,1-2H2
