17
gdb 71024	4.05126	1.67573	1.39641	1.3303	76.16	-0.2146	0.0029	0.2175	919.7044	0.136634	-384.578999	-384.572464	-384.57152	-384.609293	28.095	
O	-0.000254223	 1.3688459335	 0.0192963475	-0.468983
C	 0.0382296283	-0.012220797	 0.0546792626	 0.348792
C	 0.6745007692	-0.9437182803	 1.1599764764	-0.425003
C	-0.0091690516	-1.8924691805	 0.1563614641	 0.308613
C	-0.4393186716	-3.2424104928	-0.3838531023	-0.244538
C	-1.1158868398	-2.896655492	-1.4901053278	-0.089051
C	-1.0573936306	-1.3514741212	-1.563661737	-0.141035
C	-1.2118519705	-0.907762356	-0.075079583	-0.070183
C	 0.3897674057	-1.0166012835	-1.0841337353	-0.108351
H	 0.8993113669	 1.6986565216	-0.0805852914	 0.282636
H	 1.7679716058	-0.9778430448	 1.2106313008	 0.092429
H	 0.2381101583	-0.8776354871	 2.1611042769	 0.102996
H	-0.2454276149	-4.2212365193	 0.0289333385	 0.109638
H	-1.6107767565	-3.544796742	-2.2005086379	 0.101825
H	-1.549357878	-0.8496263524	-2.3971436695	 0.062384
H	-2.1130651662	-0.8786552397	 0.541416186	 0.072598
H	 1.3311480986	-1.1151883564	-1.6313865586	 0.065233
237.1652	271.0279	308.7276	366.3407	468.6916	487.0301	534.5568	598.201	663.9666	733.8841	745.7851	756.767	825.5529	849.4653	881.1417	885.5614	920.0227	943.1188	949.9473	987.2233	1017.3235	1068.2735	1075.9974	1083.574	1103.6802	1128.4452	1164.1362	1183.8309	1189.4905	1217.4832	1235.2794	1273.2431	1301.5708	1324.6179	1397.6063	1505.0067	1589.9226	3038.54	3078.3672	3092.6835	3103.0868	3113.4961	3219.9089	3250.6716	3804.9268
OC12CC34C=CC(C13)C24	O[C@@]12C[C@@]34C=C[C@@H]([C@H]13)[C@@H]24	
InChI=1S/C8H8O/c9-8-3-7-2-1-4(5(7)8)6(7)8/h1-2,4-6,9H,3H2	InChI=1S/C8H8O/c9-8-3-7-2-1-4(5(7)8)6(7)8/h1-2,4-6,9H,3H2/t4-,5-,6+,7-,8-
