18
gdb 36400	4.55338	0.87296	0.81516	5.277	77.21	-0.243	0.0294	0.2724	1420.7699	0.146898	-401.931068	-401.922498	-401.921554	-401.965321	31.717	
N	-0.0687809081	-1.0502008626	 0.5063803072	-0.300863
C	-0.0200006732	 0.0953014205	 0.3651449319	 0.266903
C	 0.0446924298	 1.5418194858	 0.1677961129	-0.354777
C	 1.4307265185	 2.0140356461	-0.2824397939	 0.146716
C	 1.6540574116	 3.5427916178	-0.3218738367	-0.397265
C	 2.7135082012	 3.2543945288	 0.7361290452	 0.46677
C	 4.1077729512	 3.7650922137	 0.868741109	-0.331303
C	 3.0835888042	 3.9934868193	 1.9761769267	-0.331872
O	 2.4214867159	 1.8512082335	 0.7528247663	-0.307738
H	-0.6982230701	 1.8277695167	-0.5868230322	 0.152033
H	-0.2229664232	 2.043598021	 1.1039039483	 0.155925
H	 1.7265189524	 1.4839528125	-1.1950931521	 0.101859
H	 2.0206486157	 3.9387155725	-1.2701811117	 0.121866
H	 0.8046046486	 4.1402863699	 0.0190246941	 0.114225
H	 4.884297574	 3.0310559402	 1.0545610933	 0.132015
H	 4.4133124237	 4.6094117462	 0.2590136356	 0.117066
H	 2.6888462335	 4.9937703407	 2.1239276909	 0.116841
H	 3.1939294445	 3.4083017476	 2.882834145	 0.131601
40.4709	69.3402	133.9142	245.3978	288.5583	345.7967	367.8763	394.5517	445.4294	529.5302	578.461	756.006	798.3444	836.7345	872.0208	898.3986	911.6799	920.679	946.169	990.2453	1031.9455	1049.484	1069.9324	1071.2674	1109.4926	1161.2525	1187.0141	1217.788	1237.7239	1247.6591	1290.0467	1342.5501	1369.0891	1405.418	1448.7097	1451.0187	1488.2247	1507.0159	2365.9216	3037.9209	3042.1635	3067.5013	3089.7796	3125.956	3127.6879	3130.3259	3212.0755	3225.9967
N#CCC1CC2(CC2)O1	N#CC[C@H]1CC2(CC2)O1	
InChI=1S/C7H9NO/c8-4-1-6-5-7(9-6)2-3-7/h6H,1-3,5H2	InChI=1S/C7H9NO/c8-4-1-6-5-7(9-6)2-3-7/h6H,1-3,5H2/t6-/m0/s1
