19
gdb 75910	2.71061	1.44781	1.18412	1.882	75.34	-0.24	-0.0245	0.2155	1108.5695	0.158183	-423.035992	-423.027438	-423.026493	-423.069266	32.61	
C	 0.0094327063	 1.6738151674	-0.1831692868	-0.397671
C	-0.0294045906	 0.1558689845	 0.0694990455	-0.196539
C	 0.7160783994	-0.5730928677	-1.0589989654	 0.373853
O	 0.3507456166	-0.7193229132	-2.1943348738	-0.308656
C	 2.0346659293	-1.0708807735	-0.4564696377	-0.195435
O	 2.1088920061	-0.4928431756	 0.8345185904	-0.29032
C	 0.7761206985	-0.2900600941	 1.2778911661	 0.450587
C	 0.6184431627	 0.2033106577	 2.6716915954	-0.339888
C	 0.2405715649	-1.229968565	 2.3278238112	-0.337042
H	 1.0402001718	 2.0409185546	-0.1871988614	 0.132187
H	-0.4460663751	 1.9077658004	-1.1491516631	 0.135848
H	-0.5363052135	 2.2087629954	 0.599131597	 0.122078
H	-1.0655403177	-0.1917444544	 0.0982672743	 0.104367
H	 2.0166556354	-2.1723655031	-0.4197114655	 0.122092
H	 2.8985961918	-0.7591041277	-1.0496918124	 0.138507
H	 1.5284062853	 0.3561084388	 3.2410887857	 0.129665
H	-0.1740786773	 0.9133378855	 2.8818761629	 0.118469
H	-0.8111673867	-1.4962775054	 2.3066181567	 0.114575
H	 0.9073063626	-2.0116784246	 2.6737895709	 0.123324
59.7319	145.661	196.0765	216.8704	231.4556	279.0119	336.7343	466.489	486.4927	542.512	568.176	644.2895	759.3093	763.0882	784.0471	878.1175	893.6786	943.9559	956.5952	976.9772	1012.5949	1046.1943	1065.8377	1079.7297	1094.9455	1105.5753	1150.7574	1189.0457	1212.361	1226.1413	1259.8115	1304.4423	1342.0416	1384.2403	1402.4721	1451.2482	1474.8258	1493.7095	1495.9715	1505.1139	1860.0438	2979.6265	3042.0657	3077.3875	3095.086	3116.4425	3123.186	3130.4788	3136.2389	3216.9311	3230.5423
CC1C(=O)COC11CC1	C[C@H]1C(=O)COC21CC2	
InChI=1S/C7H10O2/c1-5-6(8)4-9-7(5)2-3-7/h5H,2-4H2,1H3	InChI=1S/C7H10O2/c1-5-6(8)4-9-7(5)2-3-7/h5H,2-4H2,1H3/t5-/m0/s1
