17
gdb 24274	3.93814	1.60987	1.26024	4.2448	77.28	-0.2127	0.0344	0.2471	977.584	0.14063	-380.900378	-380.894022	-380.893078	-380.931034	26.04	
C	-0.0460129262	 1.4680607022	 0.1054636399	-0.298061
C	 1.2945252253	 0.7718119407	 0.0124526688	-0.043095
C	 2.0436815099	 0.4326580395	 1.31153362	-0.37641
C	 1.0755425686	-0.4664486828	 2.0325954307	 0.291602
C	 0.8268537081	-1.1261805171	 3.2082076879	-0.217066
N	-0.3746498173	-1.7996757606	 3.1294883639	-0.275717
C	-0.8575723361	-1.5374082701	 1.9316331995	-0.023676
N	-0.006648972	-0.7449172153	 1.2240221556	 0.006476
C	 0.0116231335	-0.0339954919	-0.0238914026	-0.016876
H	-0.3640511968	 1.8737737272	 1.0602773625	 0.132305
H	-0.3693279121	 2.032705379	-0.7624085256	 0.1227
H	 1.8737145142	 0.9116589209	-0.8919882992	 0.101639
H	 2.9867172195	-0.0787470383	 1.0847314916	 0.123737
H	 2.2982022349	 1.3295916867	 1.886624807	 0.126893
H	 1.4341736774	-1.1700528658	 4.099337823	 0.104832
H	-1.7914159581	-1.9001406911	 1.5298068564	 0.126023
H	-0.3567882928	-0.5568575932	-0.8973613592	 0.114693
126.0365	223.776	322.989	416.9067	441.347	606.2122	666.6862	672.8804	717.8788	765.1921	792.4699	802.5941	812.0676	833.7785	894.8345	953.9493	975.6952	999.7292	1051.7865	1069.3252	1081.1578	1098.4556	1130.787	1176.4696	1186.5584	1201.63	1240.0279	1268.1738	1305.2091	1311.1316	1357.575	1397.308	1432.2538	1476.1588	1493.6253	1502.0553	1590.177	3032.8275	3065.4602	3131.4861	3185.067	3194.5695	3223.24	3248.2258	3253.8312
C1C2CC3=CN=CN3C12	C1[C@H]2Cc3cncn3[C@@H]12	
InChI=1S/C7H8N2/c1-5-2-7(5)9-4-8-3-6(1)9/h3-5,7H,1-2H2	InChI=1S/C7H8N2/c1-5-2-7(5)9-4-8-3-6(1)9/h3-5,7H,1-2H2/t5-,7+/m1/s1
