19
gdb 108358	2.5901	1.65767	1.30677	1.3655	74.09	-0.2399	0.0575	0.2974	1033.9909	0.159306	-422.956013	-422.948028	-422.947084	-422.988426	31.33	
O	 0.0514924888	 1.3588375296	-0.1481515939	-0.421217
C	-0.0247501296	-0.0485219749	 0.0168770467	-0.180903
C	-1.4755780625	-0.4548945297	-0.0384213226	 0.455022
O	-1.619324634	-1.9022871363	 0.0312284647	-0.348352
C	-2.3830767899	-1.9256843726	-1.2075580002	-0.118371
C	-2.3811688869	-0.3878440907	-1.2830483301	-0.121386
C	-3.4226317979	 0.3959953232	-0.450456459	-0.061918
C	-3.8244876159	-0.31605771	 0.8123160615	-0.304538
C	-2.4952203829	 0.3753970864	 0.7760729121	-0.081855
H	 0.9740462129	 1.6189809771	-0.0765238332	 0.292621
H	 0.5279883658	-0.5843315457	-0.7696262066	 0.092887
H	 0.3852563366	-0.3716842195	 0.9883708202	 0.097439
H	-1.8173980774	-2.4202171734	-2.0067754707	 0.099957
H	-3.3509569418	-2.4254762473	-1.0880716169	 0.102505
H	-2.0547078712	 0.0952964404	-2.2023127665	 0.084013
H	-4.0021466945	 1.2238198479	-0.8395468649	 0.087683
H	-4.5873562972	 0.1948621959	 1.3912659983	 0.109394
H	-3.8707231687	-1.3978581503	 0.8726468425	 0.127181
H	-2.2273036838	 1.1825049898	 1.4456307185	 0.089839
88.1741	149.5249	222.65	244.0944	273.7223	319.8792	422.7227	450.8005	546.9182	600.0961	698.7956	754.4382	797.9603	868.535	879.1151	920.5562	935.6118	943.7009	976.0163	997.0795	1020.7203	1057.5895	1069.1379	1073.8468	1083.6115	1088.9822	1122.2335	1153.3856	1163.3564	1184.1786	1221.3955	1254.374	1277.3928	1303.2862	1319.7836	1334.8549	1375.3571	1464.5975	1489.4318	1512.5805	1520.6167	2965.9117	3004.8464	3017.6007	3065.2465	3128.7837	3131.9779	3184.0889	3195.9122	3214.4277	3837.2307
OCC12OCC1C1CC21	OC[C@]12OC[C@H]1[C@H]1C[C@@H]21	
InChI=1S/C7H10O2/c8-3-7-5-1-4(5)6(7)2-9-7/h4-6,8H,1-3H2	InChI=1S/C7H10O2/c8-3-7-5-1-4(5)6(7)2-9-7/h4-6,8H,1-3H2/t4-,5+,6-,7+/m0/s1
