17
gdb 39842	2.95214	1.75988	1.39929	3.2517	71.07	-0.2616	0.0541	0.3157	949.7505	0.136539	-421.768776	-421.761937	-421.760993	-421.799861	27.829	
C	-0.1067661497	 1.4720269657	 0.0099345508	-0.298706
C	 1.2515876642	 0.8267814373	-0.0046250538	-0.323062
C	 0.0069059716	-0.0319085363	 0.0021338347	 0.360513
C	-0.3187145666	-0.8735245308	 1.2119849035	-0.074145
O	-1.6937707001	-1.2494387641	 1.3501512948	-0.237238
C	-0.7995320065	-2.1925287433	 0.7611871668	 0.004587
C	-0.8125760946	-2.1856117536	-0.7625830099	 0.004586
O	-1.7166960762	-1.2372863288	-1.3275648344	-0.237237
C	-0.3394473718	-0.8625314364	-1.2095545785	-0.074145
H	-0.4443818194	 1.9443583261	 0.9257963236	 0.125608
H	-0.4599770576	 1.9526281731	-0.8956860231	 0.125608
H	 1.8326677332	 0.8644793828	-0.9203051488	 0.117698
H	 1.8482651894	 0.8562106079	 0.9012750893	 0.117698
H	 0.2124254726	-0.70729347	 2.1475162261	 0.095471
H	-0.6429934622	-3.1196186689	 1.3051079984	 0.098646
H	-0.6654438034	-3.1077143233	-1.3174963782	 0.098646
H	 0.1756096672	-0.6877731675	-2.152495341	 0.095471
126.7535	208.0011	275.2086	315.5689	394.1412	470.7769	573.7254	585.338	717.8148	776.8284	805.3612	834.6511	846.3813	882.94	897.4005	929.5687	938.8656	960.0001	962.4738	987.0665	1035.6216	1044.4943	1067.0065	1081.8005	1086.6613	1108.4686	1189.1139	1237.3369	1259.688	1288.0762	1293.3836	1313.8983	1344.8583	1418.7613	1435.4689	1469.5401	1503.4751	3124.2725	3126.077	3128.6326	3138.0491	3151.3374	3165.2295	3207.7319	3225.7283
C1CC11C2OC2C2OC12	C1CC21[C@H]1O[C@H]1[C@H]1O[C@@H]21	
InChI=1S/C7H8O2/c1-2-7(1)5-3(8-5)4-6(7)9-4/h3-6H,1-2H2	InChI=1S/C7H8O2/c1-2-7(1)5-3(8-5)4-6(7)9-4/h3-6H,1-2H2/t3-,4+,5-,6+
