17
gdb 27313	3.20239	1.38603	0.979	3.2935	80.1	-0.2294	-0.0221	0.2073	1192.4011	0.1363	-418.058796	-418.050282	-418.049338	-418.091991	31.401	
C	 0.030912627	 1.4920316029	-0.1195682978	-0.471479
C	-0.0573593798	 0.0056790873	 0.0161693271	 0.399992
N	-1.1214469815	-0.6547225709	-0.2169832831	-0.349535
C	-1.127861023	-2.0597076815	-0.0664757309	 0.264138
N	-2.1681017404	-2.7702499447	-0.287585042	-0.522785
C	 0.1294002926	-2.6864491013	 0.3620179958	 0.209424
C	 0.1921195563	-4.1716557662	 0.5412309707	-0.473886
C	 1.1792194426	-1.8856646473	 0.5760363071	-0.051166
O	 1.1330887768	-0.5263196339	 0.4151731184	-0.218937
H	 0.8007868738	 1.7603619302	-0.8500696385	 0.149872
H	-0.9331693771	 1.8850268799	-0.4380739062	 0.15686
H	 0.3185028529	 1.94307765	 0.8355064746	 0.149874
H	-2.9318128408	-2.1535866886	-0.5733519785	 0.216582
H	-0.06673885	-4.6781590385	-0.3937666108	 0.148441
H	 1.1854896783	-4.4972466274	 0.8624733929	 0.110446
H	-0.5482268339	-4.4966054752	 1.2788196467	 0.148492
H	 2.1624534463	-2.2092928149	 0.8931216246	 0.133668
92.0798	114.6667	169.8802	188.6104	275.2584	315.6918	317.25	407.6932	470.1745	520.3964	560.6666	611.3616	747.6592	751.9848	778.9496	885.8696	895.9226	924.1766	1009.9138	1030.169	1063.3707	1069.4122	1109.4541	1164.7031	1227.2786	1249.7505	1356.652	1407.7257	1414.7231	1428.1381	1463.845	1471.3489	1475.3556	1483.8546	1666.3809	1701.5459	1735.0573	3040.2384	3050.0482	3102.9977	3107.8272	3119.2761	3173.2323	3219.5864	3458.4514
CC1=NC(=N)C(C)=CO1	CC1=NC(=C(C)CO1)[NH]	
InChI=1S/C6H8N2O/c1-4-3-9-5(2)8-6(4)7/h3,7H,1-2H3	InChI=1S/C6H9N2O/c1-4-3-9-5(2)8-6(4)7/h7H,3H2,1-2H3
