23
gdb 59565	3.29534	1.07045	0.89774	1.8075	84.61	-0.2534	0.0814	0.3348	1381.9862	0.205915	-388.293036	-388.283872	-388.282928	-388.327225	35.402	
C	-0.1608329067	 1.4900210938	 0.0073842831	-0.392095
C	-0.0012596937	-0.0376376028	 0.0140070165	 0.023205
C	 0.6501387827	-0.5035429424	-1.2966651665	-0.392094
C	 0.7872970714	-0.5212715532	 1.243745769	 0.065147
C	 0.1798040308	-0.0908650803	 2.6150566034	-0.267322
C	 0.4378834464	-1.2508822164	 3.5600783335	 0.033778
O	-0.4265084175	-2.3676916849	 3.3115091493	-0.256113
C	 0.9116188321	-2.4153842088	 2.7983205885	 0.033777
C	 0.9838199003	-2.0672375995	 1.3222126733	-0.267322
H	 0.8179742387	 1.9837143078	-0.0354721563	 0.109138
H	-0.7336199468	 1.8190281649	-0.8658764949	 0.109647
H	-0.6783658514	 1.8537063758	 0.8997498987	 0.115394
H	-1.0047770854	-0.4854002714	 0.0744474293	 0.075534
H	 1.6634156099	-0.0945810495	-1.3949169374	 0.109138
H	 0.7238351851	-1.5933059489	-1.3550546955	 0.115394
H	 0.0726651175	-0.162949519	-2.1623645851	 0.109646
H	 1.789897273	-0.0744495888	 1.1842021535	 0.06748
H	 0.6316121234	 0.8346346307	 2.9842037377	 0.099417
H	-0.9007526219	 0.0787039735	 2.5436876955	 0.113378
H	 0.6841282653	-1.0806312733	 4.6057623396	 0.091039
H	 1.5429289352	-3.1916677713	 3.2248275115	 0.091039
H	 0.1904705932	-2.6036608684	 0.7890183143	 0.113378
H	 1.9376570386	-2.3757921775	 0.8841041987	 0.099417
48.3427	90.6851	189.6558	224.2242	236.7171	315.9135	331.4591	340.8743	414.7486	426.9926	474.8672	602.9522	705.3833	790.7526	805.6068	859.2811	877.7115	912.8074	928.968	930.6446	959.7667	970.6715	991.2224	1037.2982	1047.5713	1064.0797	1103.8693	1149.6815	1159.2483	1186.0419	1190.5634	1243.9619	1263.7731	1292.2529	1298.8159	1317.0091	1332.8428	1345.0223	1359.1604	1384.4295	1401.7379	1422.1166	1435.397	1474.9966	1484.5798	1488.6797	1492.5441	1505.3898	1511.7293	2986.2919	3002.6045	3023.139	3028.4104	3038.4546	3041.3137	3085.1692	3086.5239	3087.8756	3092.9393	3105.628	3107.3961	3132.0508	3145.2248
CC(C)C1CC2OC2C1	CC(C)[C@H]1C[C@H]2O[C@H]2C1	
InChI=1S/C8H14O/c1-5(2)6-3-7-8(4-6)9-7/h5-8H,3-4H2,1-2H3	InChI=1S/C8H14O/c1-5(2)6-3-7-8(4-6)9-7/h5-8H,3-4H2,1-2H3/t6-,7+,8-
