14
gdb 132158	3.23832	1.3529	0.95505	4.5024	71.13	-0.2099	-0.0186	0.1913	1122.3939	0.101777	-477.991729	-477.984178	-477.983234	-478.023639	29.141	
N	 0.0868213923	 1.3619771171	 0.1606603518	-0.569257
C	-0.0449267177	-0.0050604879	 0.0523450226	 0.434378
C	-1.1998402404	-0.7084995144	 0.023575076	-0.276198
C	-1.215383999	-2.1566585063	-0.0058606765	 0.21419
N	-2.3021200458	-2.8455418913	-0.0276645695	-0.56007
C	 0.1394168506	-2.7153613473	-0.0164742858	 0.132262
F	 0.2552998061	-4.0455214423	-0.0488368846	-0.074449
C	 1.2381999133	-1.9554147882	-0.0013158907	-0.071801
O	 1.1816022948	-0.5920376014	 0.0349817174	-0.229308
H	 0.9400596523	 1.7309656568	-0.2341044045	 0.263344
H	-0.7334707747	 1.8885288545	-0.0974924823	 0.267576
H	-2.1490693593	-0.1878924123	 0.0297388933	 0.10707
H	-2.0761915172	-3.8414082635	-0.0505110115	 0.21345
H	 2.2517179247	-2.3299241637	-0.0129011259	 0.148813
121.7898	177.9061	283.7648	310.4193	349.6471	375.5844	405.0146	436.3168	525.3727	570.3085	594.5424	685.7058	720.2986	753.0689	786.2356	836.9697	857.5974	883.0713	920.3404	1087.0746	1137.421	1219.8468	1277.399	1285.8942	1309.2788	1408.4843	1464.1572	1627.1298	1659.0153	1684.909	1741.7573	3212.646	3242.5714	3462.8048	3575.3254	3685.2953
NC1=CC(=N)C(F)=CO1	N[C@@H]1C=C([NH])C(=CO1)F	
InChI=1S/C5H5FN2O/c6-3-2-9-5(8)1-4(3)7/h1-2,7H,8H2	InChI=1S/C5H6FN2O/c6-3-2-9-5(8)1-4(3)7/h1-2,5,7H,8H2/t5-/m0/s1
