22
gdb 94716	3.27539	1.26564	1.09252	0.5004	82.52	-0.2163	0.0879	0.3042	1219.7705	0.194625	-404.3334	-404.324556	-404.323612	-404.366414	34.717	
C	 0.0801172218	 1.5368368532	 0.0519428613	-0.406591
C	 0.0204225834	 0.0190772743	-0.0081436971	 0.134226
C	 0.6312656342	-0.5447317656	-1.2984269945	-0.163568
N	 0.9781503182	-1.9754148622	-1.2430555132	-0.138511
C	 2.2273530088	-2.3224635372	-0.5550741281	-0.280213
C	 0.918627487	-2.6762677423	 0.0521316993	 0.311707
C	 0.3987121506	-4.0958511037	 0.0042096056	-0.45858
C	 0.4773571488	-1.8782915431	 1.2708812939	-0.156561
O	 0.7148653217	-0.4940442864	 1.1256154939	-0.252498
H	 1.1209333481	 1.8751769398	 0.0545891375	 0.125516
H	-0.4250425079	 1.9761859062	-0.8138413857	 0.11782
H	-0.4029267087	 1.9053162481	 0.9607890178	 0.123323
H	-1.0323399145	-0.3077103796	 0.058659596	 0.064896
H	-0.080704397	-0.4001946464	-2.1206971953	 0.102146
H	 1.5337519802	 0.0242887616	-1.5529227629	 0.101361
H	 2.833961267	-3.0831030593	-1.0417397423	 0.103767
H	 2.7859764228	-1.5126024852	-0.0899976349	 0.114795
H	 0.7398904632	-4.5960841176	-0.9050295432	 0.129127
H	 0.7485519705	-4.6714585976	 0.869470501	 0.113988
H	-0.6971856083	-4.1137462013	 0.009373088	 0.11636
H	-0.5968256507	-2.0586088902	 1.4541975808	 0.086547
H	 1.0253061708	-2.2039980855	 2.1617643121	 0.110945
84.8948	181.6862	205.7134	223.6474	260.2309	292.7898	338.2497	381.5963	406.597	453.3956	481.7693	540.6427	625.9313	727.5499	771.8396	830.1622	912.6634	913.8515	926.6324	939.2441	988.8483	1019.1294	1056.3499	1105.4186	1117.6045	1124.0567	1137.7208	1167.9035	1169.2808	1179.5486	1265.4769	1277.7059	1294.0941	1338.7464	1372.1127	1389.5808	1398.8364	1411.3169	1412.9299	1429.1684	1482.6759	1484.348	1493.1108	1494.0286	1495.6458	1502.6681	1513.1817	2943.3919	2950.7191	3016.3758	3026.6167	3041.7175	3055.8727	3063.8688	3086.0997	3089.7227	3114.8547	3120.8055	3123.2913	3176.3987
CC1CN2CC2(C)CO1	C[C@H]1CN2C[C@@]2(C)CO1	
InChI=1S/C7H13NO/c1-6-3-8-4-7(8,2)5-9-6/h6H,3-5H2,1-2H3	InChI=1S/C7H13NO/c1-6-3-8-4-7(8,2)5-9-6/h6H,3-5H2,1-2H3/t6-,7-,8?/m0/s1
