19
gdb 38381	4.30351	1.2393	1.20009	1.8897	79.26	-0.2196	0.0765	0.2961	1096.3011	0.160195	-385.804792	-385.797575	-385.796631	-385.836362	29.255	
C	 0.0114484054	 1.415440626	 0.2051590237	-0.27828
C	 1.3260894901	 0.7179301111	-0.0012765612	-0.038952
C	 1.7806282655	 0.0108958832	 1.2878165598	-0.320702
C	 0.4494525258	-0.7689791542	 1.2705625954	 0.382705
C	 0.0147899517	-0.0761657904	-0.0082522977	-0.153567
C	 0.2106534953	-2.2372951281	 1.5228851823	-0.237904
C	 0.9143309951	-2.6430542053	 2.8124758188	-0.08949
O	 0.3067789116	-1.5434862308	 3.5441713129	-0.288248
C	-0.4519263223	-1.1753744832	 2.3856432627	 0.012495
H	-0.2476151974	 1.8273369084	 1.1778168519	 0.109649
H	-0.3393506502	 2.0027635261	-0.6377028833	 0.109966
H	 1.9694769184	 0.9543142911	-0.8394414507	 0.087255
H	 2.6442208523	-0.642045441	 1.13323014	 0.103905
H	 1.9685107988	 0.6505257031	 2.155537243	 0.106931
H	-0.4968466342	-0.5459636973	-0.8399111542	 0.086036
H	-0.2007228734	-2.9074118488	 0.7789125411	 0.096491
H	 0.5741802765	-3.6039284015	 3.2151759117	 0.10821
H	 2.0102811263	-2.6012241538	 2.8313950921	 0.103844
H	-1.4827618954	-0.8680169347	 2.5255084918	 0.099657
119.1105	168.1284	180.8723	323.1828	380.4913	444.771	501.9178	580.3238	744.0277	758.6935	783.3341	811.282	850.1988	898.621	921.475	936.6448	950.5683	966.1221	977.2545	1000.7434	1011.1177	1027.5775	1058.1198	1065.1465	1078.5388	1086.2379	1116.0674	1144.422	1157.3242	1159.2396	1205.9709	1236.0435	1240.4871	1257.3706	1296.3306	1332.3356	1352.0779	1438.0081	1478.9176	1494.3201	1514.5517	3019.4641	3048.597	3067.4103	3098.1686	3108.1904	3168.5894	3176.2445	3187.0899	3193.4157	3202.1698
C1C2CC3(C12)C1COC31	C1[C@H]2C[C@@]3([C@@H]12)[C@H]1CO[C@@H]31	
InChI=1S/C8H10O/c1-4-2-8(5(1)4)6-3-9-7(6)8/h4-7H,1-3H2	InChI=1S/C8H10O/c1-4-2-8(5(1)4)6-3-9-7(6)8/h4-7H,1-3H2/t4-,5-,6-,7+,8+/m0/s1
