21
gdb 104895	2.46817	1.25715	1.12929	3.1866	73.73	-0.2474	0.0559	0.3033	1199.0364	0.18334	-461.356319	-461.347048	-461.346104	-461.390512	34.848	
O	 0.0072194795	 1.4195341247	-0.0847935666	-0.430075
C	-0.0043398253	-0.008357859	-0.0063929017	-0.132685
C	-1.4542350719	-0.5055463755	-0.0333758053	 0.274783
C	-2.1893812437	-0.0264435431	-1.2958203266	-0.111352
O	-2.4793525781	 1.3567203983	-1.2874214227	-0.432348
C	-1.4469711694	-2.0586316241	 0.0900062153	-0.311097
C	-2.0697119358	-2.321903791	 1.4796532331	-0.069715
O	-1.9257103789	-1.1108735908	 2.2022465684	-0.248485
C	-2.1862446708	-0.0779222347	 1.2634912977	-0.118891
H	 0.9188872223	 1.7235387147	-0.1058065861	 0.295922
H	 0.5483878873	-0.4437559084	-0.8530140034	 0.091747
H	 0.4735611507	-0.3456641064	 0.9247729229	 0.106525
H	-1.60681937	-0.3159924221	-2.1885412776	 0.077861
H	-3.1550345595	-0.5416239382	-1.3648068463	 0.097973
H	-1.6478079759	 1.8048353253	-1.0833252642	 0.290868
H	-2.0203363091	-2.533962548	-0.7109898207	 0.105071
H	-0.4276843667	-2.4536911841	 0.0344364233	 0.102778
H	-3.1354671671	-2.5849599692	 1.3795135736	 0.090113
H	-1.5732508645	-3.1159930233	 2.0429997072	 0.107161
H	-1.8192998207	 0.862568977	 1.676687731	 0.120447
H	-3.2667604524	 0.019926998	 1.0752607787	 0.0934
53.5822	124.102	159.3373	213.5321	248.1677	259.7031	283.0732	345.1422	368.1186	442.973	463.8775	561.2134	650.4774	687.3039	789.4137	844.2292	923.4541	950.7238	962.2216	971.7989	979.1853	1026.5119	1052.1613	1089.7136	1104.9703	1127.0148	1167.7049	1181.6078	1225.0336	1237.8748	1248.4677	1279.9258	1290.2222	1312.4402	1341.0291	1362.5641	1382.2415	1399.8801	1449.6299	1465.3745	1495.8745	1501.8994	1507.6569	1518.6987	1523.4116	2944.4917	2969.2608	2978.811	2988.275	3022.6455	3047.3312	3050.1234	3086.6698	3099.2445	3123.1846	3754.6906	3838.5482
OCC1(CO)CCOC1	OCC1(CO)CCOC1	
InChI=1S/C6H12O3/c7-3-6(4-8)1-2-9-5-6/h7-8H,1-5H2	InChI=1S/C6H12O3/c7-3-6(4-8)1-2-9-5-6/h7-8H,1-5H2
