20
gdb 8574	3.99877	1.80529	1.56654	0.254	80.22	-0.2208	0.0269	0.2477	913.1791	0.179611	-311.876751	-311.86978	-311.868836	-311.907393	28.68	
C	 0.0070242983	 1.5119081445	 0.0461308265	-0.480186
C	-0.0020278536	 0.0130467217	-0.0257329818	 0.322947
C	-0.0251002488	-0.6887453805	-1.1630168772	-0.160074
C	-0.0317054003	-2.2009161395	-1.0929809796	-0.044828
C	-1.0840246569	-2.6372138166	-0.0265981786	-0.21344
C	 0.0041385789	-2.2798979177	 1.0276908567	-0.01537
C	 1.0518870239	-2.6482371023	-0.0631107853	-0.21344
C	 0.0162955092	-0.7625644448	 1.2808774984	-0.288704
H	 0.8970750982	 1.8810952157	 0.5729116801	 0.118808
H	-0.0082228479	 1.9629956698	-0.9500518621	 0.118076
H	-0.8599627589	 1.8902327294	 0.6039664652	 0.118794
H	-0.0391388659	-0.1965548144	-2.1317723883	 0.073767
H	-0.0509533396	-2.6733459926	-2.0763111869	 0.053184
H	-2.0318073297	-2.0928925679	-0.0009742542	 0.088705
H	-1.273617893	-3.7139852072	-0.0540697933	 0.090405
H	 0.0173054975	-2.839061881	 1.9667334728	 0.055309
H	 1.2293089255	-3.7269028314	-0.0968566378	 0.090405
H	 2.0055593029	-2.1137312153	-0.0699908982	 0.088704
H	 0.9039765602	-0.4828424436	 1.8677910199	 0.098467
H	-0.8478966699	-0.4737970962	 1.8977032138	 0.098469
155.8759	191.8341	314.7625	318.9019	399.8715	412.9392	491.4741	513.0291	585.5553	781.6574	817.8806	831.6945	834.7872	871.4207	891.4854	928.5019	935.39	963.4043	1019.8764	1038.3163	1057.0097	1068.7436	1102.0793	1103.5429	1116.2113	1132.3002	1199.6125	1210.4796	1245.6478	1255.8661	1290.5998	1322.6831	1333.0029	1347.9978	1385.8344	1412.315	1472.3533	1476.6767	1477.8692	1489.7746	1510.2792	1722.8482	2990.785	3009.9301	3014.6084	3046.8301	3050.0353	3052.9699	3071.4655	3091.2109	3105.0765	3106.0386	3108.8584	3159.722
CC1=CC2CC(C2)C1	CC1=C[C@@H]2C[C@@H](C2)C1	
InChI=1S/C8H12/c1-6-2-7-4-8(3-6)5-7/h2,7-8H,3-5H2,1H3	InChI=1S/C8H12/c1-6-2-7-4-8(3-6)5-7/h2,7-8H,3-5H2,1H3/t7-,8+
