19
gdb 48862	3.6069	1.39321	1.36412	2.8626	77.94	-0.2473	-0.0199	0.2275	1010.6104	0.161785	-385.914992	-385.907963	-385.907018	-385.94652	28.669	
O	-0.0756321247	 0.0238781254	-0.003044537	-0.253777
C	 0.0360924704	 1.2250890743	-0.0040119233	 0.062699
C	 1.3317137143	 1.9682993866	-0.0211180677	 0.190686
C	 2.6440159423	 1.1554987796	-0.0431110323	-0.247887
C	 3.5977036424	 2.3455664473	-0.0530954421	-0.063395
C	 2.8993015022	 3.4701810744	-0.7969008405	-0.057796
C	 1.5341300943	 2.9425523305	-1.2224595799	-0.262885
C	 2.9216392354	 3.4649502967	 0.7186540697	-0.05782
C	 1.5695842005	 2.9342370833	 1.1806414515	-0.262725
H	-0.8681619781	 1.8794990254	 0.008732382	 0.066544
H	 2.7497793618	 0.5184317379	 0.8396349017	 0.106886
H	 2.7237858879	 0.5244874103	-0.9329321371	 0.106785
H	 4.6736323041	 2.2338417873	-0.0693201908	 0.084303
H	 3.4440369609	 4.2028729678	-1.3773704699	 0.085824
H	 1.5539936276	 2.4133753964	-2.1806030182	 0.108025
H	 0.7636621798	 3.7197270506	-1.2667475777	 0.100297
H	 3.4832559412	 4.1937061327	 1.2878848838	 0.085831
H	 0.8008096392	 3.7109561344	 1.2531052218	 0.100305
H	 1.6176627786	 2.3982288192	 2.1339591559	 0.108098
73.8335	186.8146	273.5195	398.8587	429.6098	432.5001	458.583	651.364	652.2142	720.3406	787.7473	814.4663	816.5806	872.8904	920.5433	950.7236	952.5896	956.221	974.9608	995.0365	1028.511	1049.1291	1059.2039	1075.3094	1112.5987	1115.4484	1147.5481	1160.6884	1223.1395	1236.4496	1268.362	1269.2709	1295.2845	1301.5601	1339.3371	1394.0876	1431.2708	1486.3915	1486.5682	1514.6977	1820.8468	2846.9827	3039.269	3044.3037	3059.588	3086.7312	3090.8531	3103.9581	3197.7732	3198.8119	3212.1769
O=CC12CC3C(C1)C3C2	O=C[C@@]12C[C@H]3[C@@H](C1)[C@H]3C2	
InChI=1S/C8H10O/c9-4-8-1-5-6(2-8)7(5)3-8/h4-7H,1-3H2	InChI=1S/C8H10O/c9-4-8-1-5-6(2-8)7(5)3-8/h4-7H,1-3H2/t5-,6+,7-,8-
