19
gdb 85317	2.41087	1.7991	1.18751	4.4875	75.33	-0.2359	0.0537	0.2896	1069.7036	0.161789	-419.240477	-419.232432	-419.231487	-419.273164	30.857	
C	-0.053746979	 1.6120437113	-0.0921904864	-0.400116
C	 0.0211845395	 0.0887632102	-0.0136034791	 0.02334
N	 0.7899966467	-0.5131989358	-1.0902912529	-0.344498
C	 1.6609012533	-1.5081520246	-0.6977088881	 0.408324
O	 2.423385212	-2.1218248839	-1.4086259861	-0.401127
N	 1.533145399	-1.6570030844	 0.7026386521	-0.14542
C	 2.7351264815	-1.2581652582	 1.4948034036	-0.175109
C	 2.0815979034	 0.1249162235	 1.7783781595	-0.258275
C	 0.7677800244	-0.488021461	 1.2142782306	 0.021839
H	 0.9435258248	 2.0594567208	-0.1113261038	 0.127904
H	-0.5829354224	 1.9271515857	-0.9973232623	 0.120868
H	-0.6015137413	 2.0127422726	 0.7670545181	 0.123207
H	-1.0058290298	-0.307398217	-0.0026411044	 0.085529
H	 0.559948249	-0.4072515247	-2.0642349845	 0.251513
H	 2.8508448591	-1.8866246939	 2.3817202269	 0.114986
H	 3.659817655	-1.2776194386	 0.9142547925	 0.135197
H	 2.057023705	 0.4668901442	 2.8148941689	 0.106892
H	 2.4961611358	 0.9166886289	 1.1505010372	 0.118326
H	 0.0655629739	-0.7656635853	 2.0051904782	 0.086619
84.0781	119.2847	215.5097	237.4652	256.6705	331.1774	416.8083	484.4262	520.4173	619.6261	692.2827	696.6962	769.0004	788.8232	796.6932	897.6257	926.2669	958.8828	977.6532	1040.1576	1065.2669	1085.8667	1098.5541	1136.6775	1178.5253	1197.055	1215.1899	1243.1718	1256.9765	1281.2132	1306.8566	1329.3529	1380.8017	1400.9127	1413.1249	1425.5711	1481.1074	1491.7775	1502.0163	1514.907	1837.0799	2973.1779	3038.7501	3060.7835	3064.3173	3072.3161	3104.106	3115.6238	3122.2912	3133.7374	3660.5531
CC1NC(=O)N2CCC12	C[C@H]1NC(=O)N2CC[C@@H]12	
InChI=1S/C6H10N2O/c1-4-5-2-3-8(5)6(9)7-4/h4-5H,2-3H2,1H3,(H,7,9)	InChI=1S/C6H10N2O/c1-4-5-2-3-8(5)6(9)7-4/h4-5H,2-3H2,1H3,(H,7,9)/t4-,5+/m1/s1
