18
gdb 79793	3.75553	1.7122	1.58297	1.3215	73.85	-0.2257	0.0627	0.2883	890.4941	0.150806	-401.87654	-401.870243	-401.869299	-401.906882	26.744	
O	 0.0534847208	 1.4883189894	-0.0880253336	-0.439822
C	 0.0312185018	 0.08822758	 0.0227246544	 0.128539
C	 0.0908459494	-0.578292533	 1.4156997462	-0.060016
C	-0.9667529251	 0.1131629569	 2.2805745891	-0.042414
C	-1.5334560555	-1.0473940018	 3.1385326943	-0.246055
C	-2.0237030802	-1.5707830666	 1.7896787082	 0.010994
C	-2.1376813555	-0.1269316037	 1.2302046919	-0.054187
C	-1.3430754696	-0.564267333	-0.0158663223	-0.036593
N	-0.8059751054	-1.7085223464	 0.8648003381	-0.180584
H	 0.9695456482	 1.7823536468	-0.0822876294	 0.286507
H	 0.7130652891	-0.4039705507	-0.6823888591	 0.083289
H	 1.030530338	-0.8750825181	 1.8841970107	 0.064683
H	-0.7426622576	 1.0949987008	 2.6923012643	 0.072514
H	-0.8363389028	-1.6553352459	 3.7245330905	 0.096968
H	-2.3712586906	-0.7282772737	 3.7654051073	 0.102027
H	-2.7495125583	-2.3731675968	 1.6639099164	 0.072911
H	-3.0214503284	 0.5080513909	 1.2454020052	 0.068855
H	-1.8664935084	-0.8154490652	-0.9385139122	 0.072384
181.4585	252.7908	265.4451	394.0354	535.0536	550.6985	717.719	735.7647	764.3879	776.6746	806.0411	838.0189	868.5282	874.1689	916.955	935.2308	950.1835	978.0596	991.8004	1003.1261	1015.245	1062.5101	1088.6035	1111.3537	1142.5975	1153.9107	1163.0781	1193.4347	1198.8332	1227.9757	1237.6574	1249.1492	1261.34	1273.9128	1289.3006	1317.2778	1340.3342	1436.3216	1488.2324	3030.1986	3044.1833	3099.0958	3103.7791	3114.0783	3121.0923	3131.8203	3141.8176	3822.8177
OC1C2C3CC4C3C1N24	O[C@H]1[C@H]2[C@@H]3C[C@H]4[C@@H]3[C@@H]1N24	
InChI=1S/C7H9NO/c9-7-5-2-1-3-4(2)6(7)8(3)5/h2-7,9H,1H2	InChI=1S/C7H9NO/c9-7-5-2-1-3-4(2)6(7)8(3)5/h2-7,9H,1H2/t2-,3+,4-,5-,6+,7+/m1/s1
