20
gdb 113493	4.34779	0.94956	0.86995	2.3369	80.16	-0.2394	0.0224	0.2618	1366.72	0.172009	-403.129361	-403.120779	-403.119834	-403.163226	32.736	
O	-0.0279945354	 1.2321035179	-0.931517978	-0.421902
C	 0.032222959	 0.2659363037	 0.103952528	-0.066579
C	-1.3049525099	-0.4146249913	 0.2857345272	-0.093635
N	-1.6998300157	-1.2740811277	-0.8535474195	-0.380506
C	-1.4756901523	-1.8759995761	 0.4757953771	 0.321689
C	-0.3222283706	-2.886175123	 0.5867123746	-0.318739
C	-0.9912516144	-4.1031822816	 1.1753341965	-0.064775
C	-2.2490789484	-3.8662288241	 1.5436674335	-0.063544
C	-2.665579389	-2.4427933409	 1.270087968	-0.341969
H	-0.3636413172	 0.7606917642	-1.7037866383	 0.28903
H	 0.8088553666	-0.4862339529	-0.0982382953	 0.0888
H	 0.3171367063	 0.8033506568	 1.0148454329	 0.105077
H	-2.0799759093	 0.225310078	 0.7069431429	 0.082541
H	-2.6971575163	-1.1827455731	-1.0324550854	 0.226322
H	 0.1251251767	-3.0715241671	-0.395691069	 0.120925
H	 0.4852329641	-2.5257075418	 1.2392957361	 0.109854
H	-0.4740186279	-5.0490046672	 1.291507053	 0.094757
H	-2.9142844367	-4.5863520946	 2.0064216749	 0.094487
H	-2.835331342	-1.8879112653	 2.2036073706	 0.11434
H	-3.6031030977	-2.3766912038	 0.70100068	 0.103825
52.9111	80.1938	147.8295	195.9917	314.0422	374.4564	409.7871	424.048	445.1287	484.5746	619.9973	697.4249	769.2929	781.7208	826.832	880.1713	944.0478	951.5466	976.9583	980.2137	982.3737	1000.0479	1031.5498	1056.8858	1080.3691	1090.6928	1131.8202	1162.008	1185.0754	1206.215	1261.1112	1275.4433	1282.9797	1293.5873	1346.5471	1373.9932	1378.8241	1425.565	1472.5011	1476.0198	1485.0524	1500.3507	1689.8711	2997.3128	3002.7681	3011.1509	3027.345	3065.8598	3071.5351	3111.7174	3185.2217	3210.107	3489.8479	3784.2772
OCC1NC11CC=CC1	OC[C@H]1N[C@]21CC=CC2	
InChI=1S/C7H11NO/c9-5-6-7(8-6)3-1-2-4-7/h1-2,6,8-9H,3-5H2	InChI=1S/C7H11NO/c9-5-6-7(8-6)3-1-2-4-7/h1-2,6,8-9H,3-5H2/t6-/m1/s1
