17
gdb 50780	6.85917	0.52331	0.51141	1.5661	79.52	-0.2519	-0.0326	0.2193	2071.4235	0.133673	-421.779241	-421.769704	-421.768759	-421.818144	31.727	
O	 0.82528282	-0.4023522862	-0.0532937977	-0.228694
C	 0.4150445812	 0.6608314114	-0.4297396619	 0.172637
C	 0.9542257936	 2.0035836829	 0.0713726375	-0.415209
C	 1.0189459644	 3.0030295913	-0.9845263431	 0.0373
C	 1.0555236384	 3.7886592865	-1.8976959177	 0.095602
C	 1.1240557383	 4.7599237491	-2.9677072516	-0.21245
C	 0.8974876252	 6.263463361	-2.6376971079	-0.073338
O	 2.1131491184	 6.6343054852	-3.3116741394	-0.266471
C	 2.5186823533	 5.2599826319	-3.4428389733	-0.073495
H	-0.4092343607	 0.7482263795	-1.1704753309	 0.093926
H	 0.2717518643	 2.3383124499	 0.8681633239	 0.156689
H	 1.9270861487	 1.827131118	 0.5417931084	 0.156318
H	 0.5075301636	 4.4419981983	-3.813188601	 0.113885
H	 0.0146827965	 6.7336803242	-3.0834560987	 0.111544
H	 0.9318592944	 6.4872636209	-1.56423588	 0.109122
H	 3.3351360728	 4.9998691654	-2.757907692	 0.110245
H	 2.8045217276	 5.0067568307	-4.4690587448	 0.112388
3.4895	47.5253	69.9529	112.6781	117.7172	196.0394	292.0059	415.3573	463.1282	503.8931	517.6346	639.987	740.5256	851.848	890.196	926.4798	1000.7345	1024.0652	1033.0506	1041.0674	1043.1115	1107.1246	1158.92	1170.7409	1192.7588	1211.6723	1238.031	1288.6751	1304.4179	1347.8611	1382.3987	1414.7107	1440.4367	1509.6653	1535.365	1841.839	2362.7639	2900.6048	2999.338	3015.759	3026.0518	3059.1943	3074.7996	3078.459	3083.613
O=CCC#CC1COC1	O=CCC#CC1COC1	
InChI=1S/C7H8O2/c8-4-2-1-3-7-5-9-6-7/h4,7H,2,5-6H2	InChI=1S/C7H8O2/c8-4-2-1-3-7-5-9-6-7/h4,7H,2,5-6H2
