20
gdb 15985	3.37634	1.5	1.17551	1.7961	75.	-0.2542	0.0755	0.3297	1089.1814	0.176527	-348.979707	-348.971398	-348.970454	-349.012524	31.259	
C	 0.04640263	 1.5880618366	 0.0614427681	-0.381525
C	-0.0804976453	 0.0616305606	 0.0129714285	-0.204361
C	 0.6288286497	-0.5579875346	-1.1836550534	-0.033506
C	 2.1909331172	-0.5633005176	-1.2411494342	-0.235935
C	 2.1525527888	-2.0166670439	-1.8010696922	-0.31948
C	 0.6990708639	-2.0844987629	-1.331174206	 0.445411
C	 0.0516781625	-3.1182256318	-0.520395285	-0.265174
O	-0.3088547688	-2.9015229615	-1.893650178	-0.276286
H	 1.0958807822	 1.8967136662	 0.1160716983	 0.118483
H	-0.3874810217	 2.0486559753	-0.8329341829	 0.116321
H	-0.4683988003	 2.0026795354	 0.9335275177	 0.112648
H	 0.3260613931	-0.371908475	 0.9362881867	 0.091328
H	-1.1422414338	-0.2164242801	-0.0175487519	 0.102823
H	 0.2271274268	-0.1369770172	-2.1145027329	 0.08092
H	 2.6689931665	 0.1937338776	-1.8646517749	 0.102782
H	 2.6293725491	-0.5226472009	-0.239573741	 0.1023
H	 2.216856485	-2.0421804987	-2.8929014305	 0.114998
H	 2.8560045237	-2.7434732712	-1.3882211297	 0.103796
H	 0.5763649647	-4.0516377516	-0.3174850509	 0.110975
H	-0.7114632636	-2.8486398747	 0.2085110241	 0.113483
93.9493	104.7269	150.8364	220.1587	279.3925	289.8454	345.4926	441.9691	490.0111	552.5615	724.3716	764.5182	809.9113	848.0811	888.7934	902.4669	933.1948	941.3186	974.5463	999.8053	1060.1383	1094.6861	1126.1139	1149.423	1156.3265	1169.1226	1182.2559	1215.4697	1243.5111	1270.0184	1271.3923	1296.9948	1340.5735	1393.5642	1412.6426	1426.9107	1476.7565	1487.9947	1498.0326	1500.1801	1507.8218	1536.6491	3013.2561	3024.7091	3032.1157	3049.5229	3058.1612	3060.8096	3076.9256	3099.3434	3104.0854	3108.2605	3124.1653	3162.4161
CCC1CCC11CO1	CC[C@H]1CC[C@]21CO2	
InChI=1S/C7H12O/c1-2-6-3-4-7(6)5-8-7/h6H,2-5H2,1H3	InChI=1S/C7H12O/c1-2-6-3-4-7(6)5-8-7/h6H,2-5H2,1H3/t6-,7+/m0/s1
