18
gdb 12009	3.21916	2.06621	1.81217	2.1403	66.86	-0.251	0.0868	0.3378	831.9533	0.152815	-384.933448	-384.925779	-384.924835	-384.964883	29.6	
C	 0.1262912635	 1.5068097178	-0.014794951	-0.419919
C	-0.0209765512	-0.0119137957	 0.0323103539	 0.355782
C	-1.4894391028	-0.4547566608	 0.0142246621	-0.42487
O	 0.6702644454	-0.5336909086	-1.1228673063	-0.299568
C	 1.336049503	-1.7499968257	-0.8113142818	-0.117742
C	 1.5432825743	-1.7276737967	 0.6859260844	 0.027382
O	 2.1250650353	-0.5022672194	 1.1476447193	-0.257562
C	 0.7040032464	-0.6515718373	 1.2103229927	-0.000306
H	 1.1825333381	 1.7761116156	 0.04911673	 0.138337
H	-0.2788183528	 1.8932757234	-0.9542629043	 0.122899
H	-0.4130001767	 1.977750929	 0.8131466502	 0.108882
H	-1.9742685844	-0.0921952659	-0.8961953111	 0.128488
H	-1.5733877338	-1.5460580177	 0.0340366531	 0.1146
H	-2.0336442262	-0.055681591	 0.8767729016	 0.114218
H	 0.7366122018	-2.6335173491	-1.0865188965	 0.093101
H	 2.2717058968	-1.7782204631	-1.380436348	 0.117855
H	 1.8024969684	-2.6268915471	 1.2380240028	 0.101376
H	 0.259827245	-0.6520281274	 2.2023842589	 0.097047
126.3215	201.2151	210.5998	246.9209	316.752	347.1547	372.8161	401.8463	526.1546	604.5815	741.2409	805.2192	841.6645	858.7849	891.7209	930.524	948.7821	958.0314	999.1669	1010.9647	1062.8918	1095.4699	1119.4858	1187.164	1209.7608	1227.3859	1251.9516	1268.3587	1329.215	1373.4239	1392.6083	1409.8009	1442.448	1476.9823	1483.5647	1495.9747	1504.246	1509.7425	2970.7037	3034.902	3045.1448	3064.5239	3103.0894	3114.4723	3119.5209	3136.8393	3146.7784	3160.9846
CC1(C)OCC2OC12	CC1(C)OC[C@H]2O[C@@H]12	
InChI=1S/C6H10O2/c1-6(2)5-4(8-5)3-7-6/h4-5H,3H2,1-2H3	InChI=1S/C6H10O2/c1-6(2)5-4(8-5)3-7-6/h4-5H,3H2,1-2H3/t4-,5-/m1/s1
