18
gdb 47718	2.52875	1.76902	1.17774	1.9644	73.27	-0.2552	0.0159	0.2711	1050.6372	0.149586	-439.08296	-439.075259	-439.074315	-439.115419	29.799	
N	-0.0618443824	 1.2550631696	 0.3180043108	-0.527815
C	-0.0335507344	 0.0304731339	-0.0037542772	 0.326243
O	 1.1491721196	-0.6115351593	-0.2522850522	-0.257159
C	 1.1301247163	-1.8563636337	-0.9574085432	 0.013042
O	 0.1175349088	-2.7069369546	-0.547419867	-0.215718
C	-1.1454907304	-2.1018269917	-0.8036557258	-0.192638
C	-1.2704986195	-0.8130398952	-0.0191018511	 0.256772
C	-2.0868691681	-0.8085720153	 1.2669465153	-0.280426
C	-2.6088839045	-0.1220224635	 0.0409846619	-0.302929
H	 0.8833966508	 1.6404324115	 0.327297899	 0.220619
H	 1.0470978585	-1.6369488491	-2.0357265396	 0.095708
H	 2.0859977422	-2.3352216195	-0.7398244082	 0.129463
H	-1.245133568	-1.9132335394	-1.8857585038	 0.100144
H	-1.9125643703	-2.8223330346	-0.5104432507	 0.117574
H	-2.5339356002	-1.7493496461	 1.5718739366	 0.115836
H	-1.7179493253	-0.1864392373	 2.0730301993	 0.139466
H	-2.5882926813	 0.9603061789	 0.0194818164	 0.151474
H	-3.4272851615	-0.5868864046	-0.5001642204	 0.110343
67.0307	130.741	264.0466	277.8531	294.5627	410.0696	413.9777	465.6063	549.0901	628.4809	701.1032	763.9473	791.3874	853.0835	893.7069	929.7101	950.6156	973.0828	993.5246	1001.527	1057.5579	1062.34	1077.4855	1098.2585	1136.4468	1194.3449	1199.0965	1250.9288	1270.4477	1317.5207	1333.2613	1356.8556	1419.6672	1453.93	1461.6162	1487.2587	1501.6856	1521.597	1740.7902	2956.9417	2968.2555	3099.1994	3122.4649	3133.1101	3136.0474	3228.4536	3240.8391	3481.2855
N=C1OCOCC11CC1	[NH][C]1OCOCC21CC2	
InChI=1S/C6H9NO2/c7-5-6(1-2-6)3-8-4-9-5/h7H,1-4H2	InChI=1S/C6H9NO2/c7-5-6(1-2-6)3-8-4-9-5/h7H,1-4H2
