15
gdb 30991	3.24768	1.21627	0.9065	4.6783	64.88	-0.1962	0.0281	0.2243	1204.1425	0.113441	-491.125039	-491.116524	-491.11558	-491.158294	31.291	
N	-0.0819580453	 1.3358120578	-0.304266034	-0.606815
C	-0.1038978552	-0.0479200228	-0.1578298316	 0.211894
C	-1.1143340389	-0.9178474752	 0.0266637468	 0.243447
C	-2.5924172522	-0.7342491166	 0.0630644926	-0.186491
O	-2.9909571885	 0.3795007052	-0.7369437665	-0.408617
O	-0.5832798792	-2.1916340673	 0.2490839904	-0.250655
C	 0.7872986337	-2.1160060171	 0.1917526842	 0.470415
O	 1.5366572554	-3.0402532785	 0.3509524091	-0.402313
N	 1.0745748593	-0.7920929576	-0.087232509	-0.40223
H	 0.4752996382	 1.6420707186	-1.0955324782	 0.248044
H	-1.0302195131	 1.6836521205	-0.4013312338	 0.263938
H	-3.083321738	-1.6667198101	-0.2509552443	 0.123666
H	-2.9604406658	-0.5046041298	 1.0707462387	 0.13334
H	-2.7752533606	 0.1610866788	-1.6505956206	 0.28719
H	 2.0104783202	-0.4274206858	-0.0498296638	 0.275187
75.4195	155.2554	181.5909	204.426	301.4029	323.4868	345.3862	367.403	418.071	434.528	569.4316	631.8226	647.3745	731.312	761.036	820.3401	842.4634	961.0043	976.385	1051.2673	1054.6897	1155.3001	1194.2595	1245.5151	1287.5906	1336.861	1379.6421	1415.7805	1481.9589	1507.8251	1649.9694	1764.3668	1895.9692	3003.8881	3044.0782	3498.0136	3591.2115	3687.4686	3801.1179
NC1=C(CO)OC(=O)N1	Nc1c(CO)oc(=O)[nH]1	
InChI=1S/C4H6N2O3/c5-3-2(1-7)9-4(8)6-3/h7H,1,5H2,(H,6,8)	InChI=1S/C4H6N2O3/c5-3-2(1-7)9-4(8)6-3/h7H,1,5H2,(H,6,8)
