19
gdb 109024	4.08256	0.99573	0.88771	2.1438	77.67	-0.2143	0.0245	0.2388	1326.2068	0.158452	-423.012497	-423.003699	-423.002754	-423.045886	33.754	
O	 0.0081942148	 1.405861393	 0.0095703744	-0.413859
C	-0.0269359561	-0.0095273575	-0.0262340696	-0.171306
C	-1.4425402466	-0.4824558383	 0.0376471853	 0.284787
C	-2.5455668578	 0.2750228335	 0.0553821848	-0.158147
C	-3.7860902528	-0.5482618896	 0.0674367564	-0.166279
C	-3.993100673	-1.4465811773	-1.1526280882	-0.303695
C	-3.3072390007	-1.9946486438	 0.0555271425	 0.416537
O	-3.9708145326	-3.0279250689	 0.7159625174	-0.469716
C	-1.7761642263	-1.9612477978	 0.0953251154	-0.397805
H	 0.9245409038	 1.6840764354	-0.0713179874	 0.289212
H	 0.4494925195	-0.398377979	-0.9443452252	 0.093893
H	 0.5392971462	-0.4469681188	 0.8168607637	 0.090199
H	-2.5410638111	 1.3571616648	 0.0336180051	 0.108905
H	-4.663019144	-0.2383436981	 0.6252739783	 0.086355
H	-5.0000433703	-1.816714371	-1.3131294841	 0.117899
H	-3.4214070009	-1.2352007386	-2.0507420546	 0.108582
H	-3.7955901656	-2.937775233	 1.6594787043	 0.278223
H	-1.3297668587	-2.5341356254	-0.7273013523	 0.112493
H	-1.4060539278	-2.4219640396	 1.0246636138	 0.093723
69.6102	140.9425	184.1447	228.4376	255.6879	317.5105	344.0919	380.1196	416.2014	448.4398	503.7627	604.1382	662.9584	739.5403	836.2194	863.6467	876.4566	912.654	939.4922	973.7753	981.733	1036.0553	1049.0258	1069.0527	1077.2344	1088.3585	1154.2581	1173.0906	1211.5792	1239.0356	1249.6176	1249.9914	1292.4357	1330.5231	1335.4962	1414.9506	1464.5503	1468.6656	1486.3999	1509.0573	1704.9746	2930.3166	2942.2945	2988.0009	3041.6174	3124.8252	3171.1703	3219.9733	3220.911	3789.2652	3840.2432
OCC1=CC2CC2(O)C1	OCC1=C[C@H]2C[C@@]2(O)C1	
InChI=1S/C7H10O2/c8-4-5-1-6-3-7(6,9)2-5/h1,6,8-9H,2-4H2	InChI=1S/C7H10O2/c8-4-5-1-6-3-7(6,9)2-5/h1,6,8-9H,2-4H2/t6-,7-/m0/s1
