19
gdb 76153	2.11668	1.46119	1.18175	1.5972	79.42	-0.2305	0.02	0.2505	1156.1424	0.154732	-422.973864	-422.96349	-422.962546	-423.008238	38.924	
C	-0.0266765043	 1.539326144	 0.0629719332	-0.438592
C	 0.0021878226	 0.0265066202	-0.0290980762	 0.198111
C	-1.250434088	-0.5932016011	-0.6184234883	-0.458501
C	 1.3161538672	-0.6744668902	-0.3095181759	 0.036346
O	 2.5059948354	 0.0305624533	-0.4302002273	-0.43346
C	 0.7017673842	-0.7507413409	 1.0927956444	 0.105805
O	 1.378936871	 0.0651400545	 2.0345959717	-0.4761
C	 0.1742699418	-1.9698706362	 1.6277748508	 0.296648
C	-0.2300014577	-2.9999045044	 2.1025816008	-0.449899
H	 0.9157267936	 1.9538884835	 0.419463323	 0.12596
H	-0.2261843667	 1.9619630075	-0.9277131593	 0.119228
H	-0.821542744	 1.8723575278	 0.7383306244	 0.120192
H	-1.4212370185	-0.2033124241	-1.6280001873	 0.119181
H	-1.1764061571	-1.6817123472	-0.6830305629	 0.12569
H	-2.1305061879	-0.3568566346	-0.0099818061	 0.122302
H	 1.2978267393	-1.5657044757	-0.9304736479	 0.105111
H	 2.6903378346	 0.3945773998	 0.4483069042	 0.288351
H	 1.8667020185	-0.5259719612	 2.6197095745	 0.295781
H	-0.5996947741	-3.905383265	 2.5164405643	 0.197845
119.1578	125.7808	142.9484	194.1036	198.1049	239.878	271.8695	280.661	306.2408	348.5279	416.0715	445.3438	513.4997	541.9104	567.7209	570.441	607.3898	684.1004	701.0745	737.7761	862.9806	968.3049	976.5666	1015.0176	1040.4898	1090.9472	1149.349	1168.4264	1181.5429	1259.2202	1283.1313	1332.6125	1393.4196	1409.99	1423.9795	1452.4723	1478.1008	1488.0298	1499.4959	1509.7976	2223.5375	3029.7478	3040.5864	3091.5824	3097.3858	3116.2217	3150.8512	3151.8859	3500.4271	3720.132	3800.7564
CC1(C)C(O)C1(O)C#C	CC1(C)[C@@H](O)[C@]1(O)C#C	
InChI=1S/C7H10O2/c1-4-7(9)5(8)6(7,2)3/h1,5,8-9H,2-3H3	InChI=1S/C7H10O2/c1-4-7(9)5(8)6(7,2)3/h1,5,8-9H,2-3H3/t5-,7-/m1/s1
