18
gdb 23228	2.63845	1.58751	1.1418	1.4853	79.94	-0.2224	0.0304	0.2528	1095.6355	0.147195	-401.858177	-401.850081	-401.849137	-401.890512	31.625	
C	 0.0091725221	 1.4878753386	 0.0256714468	-0.511635
C	-0.0003294055	-0.0070477936	-0.0618661686	 0.261253
C	-0.9412262961	-0.9057273987	 0.7787552467	-0.116747
C	-1.0711809435	-2.2548789547	 0.0677400406	-0.236194
C	 0.441165966	-2.0947362759	-0.2751885017	-0.168483
C	 0.5444233282	-1.0539415514	 0.9228868463	-0.121936
C	 0.4555253339	-0.8732535107	-1.1797444814	 0.423654
N	 0.8848700169	-0.5675962436	-2.331167459	-0.313628
O	 1.3861493084	-1.7117576492	-3.003817083	-0.403446
H	 0.9753884784	 1.8907588849	-0.2935931604	 0.133957
H	-0.7627129707	 1.9254132899	-0.6163024175	 0.132138
H	-0.1790998779	 1.8219044781	 1.0510688705	 0.118263
H	-1.6325819053	-0.4414454653	 1.4716017309	 0.091876
H	-1.2374779662	-3.0648063494	 0.7835226863	 0.104446
H	-1.7664885798	-2.3478148604	-0.7732533254	 0.103499
H	 1.0879413485	-2.9441264003	-0.4687871331	 0.097606
H	 1.240102425	-0.9366159631	 1.740497939	 0.10312
H	 1.6803831476	-1.3335451353	-3.8386209772	 0.302257
125.4692	165.646	192.5671	234.6119	270.7478	302.7208	374.5865	465.5215	508.2125	587.3212	693.4008	706.7546	754.2889	815.817	834.4705	844.6906	879.7837	924.2987	931.3644	965.4698	989.4211	1020.9164	1050.5325	1089.9597	1100.109	1112.809	1144.4927	1176.0534	1201.9954	1243.2457	1283.2689	1302.8512	1382.0809	1415.1255	1447.7503	1482.6203	1495.9811	1500.3552	1792.5104	3033.4486	3042.3647	3097.4277	3101.7489	3105.7165	3178.6448	3187.948	3228.3556	3825.6412
CC12C3CC(C13)C2=NO	C[C@]12[C@H]3C[C@H]([C@@H]13)C2=NO	
InChI=1S/C7H9NO/c1-7-4-2-3(5(4)7)6(7)8-9/h3-5,9H,2H2,1H3	InChI=1S/C7H9NO/c1-7-4-2-3(5(4)7)6(7)8-9/h3-5,9H,2H2,1H3/t3-,4+,5-,7+/m1/s1
