13
gdb 29623	3.30922	1.14066	0.87184	1.6887	61.93	-0.2287	-0.0172	0.2115	1214.5986	0.088295	-493.727391	-493.719542	-493.718597	-493.760526	28.125	
O	-0.0294535047	 1.294483125	 0.1990868256	-0.440884
C	 0.0210604933	-0.0493312675	 0.0551846947	 0.204676
C	-0.1673788684	-0.7750901812	-1.079481978	-0.085952
O	-0.0391388124	-2.1099629779	-0.8016449546	-0.140119
C	 0.242275981	-2.2403522033	 0.5146059787	-0.090503
C	 0.2840099273	-1.0071215893	 1.0882934261	 0.16182
O	 0.5547318258	-0.636188138	 2.3848426744	-0.237005
C	-0.2087061813	-1.1886347667	 3.3787580922	 0.155592
O	-0.0023305297	-0.9619289144	 4.5267853773	-0.247381
H	 0.2022063421	 1.5064603268	 1.1111562119	 0.310637
H	-0.3899570866	-0.5132514148	-2.0982575037	 0.150855
H	 0.3989352286	-3.2384287621	 0.8864829872	 0.155027
H	-0.999584215	-1.8419372666	 2.9702023982	 0.103236
61.4293	131.2646	160.1943	255.9062	290.5549	334.5533	424.1084	475.9379	536.8317	605.4074	663.7317	695.5646	735.3268	753.4442	833.9973	908.9713	1045.6623	1063.7075	1102.1452	1177.7717	1216.5803	1240.3945	1277.0237	1345.7586	1402.4162	1459.788	1603.1345	1694.0118	1882.3903	2993.8279	3282.9222	3300.3599	3801.8879
OC1=COC=C1OC=O	Oc1cocc1OC=O	
InChI=1S/C5H4O4/c6-3-9-5-2-8-1-4(5)7/h1-3,7H	InChI=1S/C5H4O4/c6-3-9-5-2-8-1-4(5)7/h1-3,7H
