19
gdb 59402	2.99655	1.01716	0.95945	2.6003	79.3	-0.2454	0.0255	0.2709	1330.2074	0.155688	-422.974452	-422.96443	-422.963486	-423.009081	37.759	
C	-0.1662532772	 1.5146749712	-0.0006732072	-0.390857
C	 0.0298867211	 0.0036638344	-0.0291465596	 0.138197
O	 0.7903975407	-0.3020888715	-1.1896005319	-0.448058
C	 0.7344733939	-0.4937001958	 1.227005898	-0.069675
C	-0.0418611818	-1.1870328267	 2.3203129661	-0.354262
C	 0.8842969299	-1.9858548353	 1.4162732945	 0.181803
O	 0.3035543576	-2.7463085053	 0.3801016875	-0.45971
C	 2.1009454602	-2.5302962177	 1.9574617046	 0.290612
C	 3.1010379568	-3.0201624061	 2.4125885496	-0.453603
H	 0.8031225251	 2.0214912453	 0.0399999457	 0.122572
H	-0.6841161373	 1.8425061619	-0.9057552047	 0.123067
H	-0.7550714535	 1.8138295118	 0.8713994131	 0.113236
H	-0.9543114114	-0.4843458907	-0.0870864774	 0.068694
H	 0.8548460823	-1.2640340164	-1.223869582	 0.293416
H	 1.5949002032	 0.0962210242	 1.5280661328	 0.105444
H	 0.2501533454	-1.0447958106	 3.3541012941	 0.12493
H	-1.1032807389	-1.3389413137	 2.1518013726	 0.122013
H	 0.1296071182	-3.6323385279	 0.7161573588	 0.293296
H	 3.9941750761	-3.4406906811	 2.8040179154	 0.198883
72.4125	100.0958	126.7423	201.309	229.9823	268.0028	277.915	329.3635	359.8695	406.4705	475.5302	477.3054	522.7438	557.0409	579.2133	605.1818	681.1755	725.0872	798.2098	897.2279	907.6194	917.4216	978.8881	1021.9799	1056.7774	1060.6528	1089.6913	1144.8636	1192.7727	1221.9379	1246.124	1296.5417	1313.4453	1365.3129	1395.6929	1418.1188	1441.484	1473.5568	1482.7599	1500.6562	2231.7664	2988.4255	3041.8495	3115.1787	3123.5792	3132.7281	3159.2914	3228.2473	3501.1598	3793.6988	3805.9366
CC(O)C1CC1(O)C#C	C[C@@H](O)[C@H]1C[C@]1(O)C#C	
InChI=1S/C7H10O2/c1-3-7(9)4-6(7)5(2)8/h1,5-6,8-9H,4H2,2H3	InChI=1S/C7H10O2/c1-3-7(9)4-6(7)5(2)8/h1,5-6,8-9H,4H2,2H3/t5-,6-,7-/m1/s1
