20
gdb 93167	2.66241	1.43291	1.06723	2.1883	81.63	-0.2373	-0.0032	0.2341	1178.1579	0.172863	-403.145438	-403.13698	-403.136036	-403.178552	32.402	
C	-0.5278908855	 1.4679840957	 0.0219588758	-0.393275
C	-0.0135868124	 0.0141206959	 0.0124291571	-0.026515
C	 0.5577818727	-0.3496721541	-1.371178644	-0.185971
N	 0.8515933885	-1.7657774261	-1.5178775768	-0.26316
C	 1.9020949249	-2.3614656518	-1.1562819638	 0.140786
O	 3.0492101139	-1.9809225241	-0.5413797107	-0.226585
C	 3.1635353554	-0.6874491598	 0.0881242384	-0.129009
C	 2.2059208506	-0.4956161407	 1.2394569223	-0.103854
C	 0.9026041673	-0.2165616683	 1.1864971696	-0.012718
H	 0.2906469612	 2.1739865896	-0.1543834306	 0.118857
H	-1.2831519908	 1.6186460169	-0.7557669932	 0.119066
H	-0.9820549489	 1.7200045577	 0.9851481637	 0.117035
H	-0.8823489151	-0.6414014155	 0.1694237203	 0.099936
H	-0.220678264	-0.1177625342	-2.1071755157	 0.102111
H	 1.399327928	 0.3067634222	-1.6195444929	 0.098061
H	 1.9889118338	-3.4296955631	-1.3619734052	 0.116884
H	 4.1892521482	-0.6789568525	 0.4624760363	 0.117765
H	 3.0905266628	 0.1000800371	-0.6627056161	 0.122319
H	 2.646585924	-0.6364922817	 2.2232833282	 0.095678
H	 0.3905403753	-0.1288130732	 2.1450974774	 0.092587
61.1762	171.9293	211.3582	239.8448	244.7819	297.9868	338.6048	363.206	459.5452	553.7618	585.4738	669.8565	758.9529	765.2038	814.9852	905.7946	914.0768	948.7289	975.928	982.2526	987.701	1019.2852	1041.075	1091.0422	1114.9812	1159.6028	1176.9814	1239.4743	1282.5697	1296.9543	1305.7753	1363.7372	1387.9113	1397.007	1405.8387	1435.7115	1440.9059	1496.1271	1497.2532	1502.4605	1549.8544	1725.3271	1757.292	3002.2017	3026.8871	3033.8733	3050.4683	3086.0196	3103.7278	3107.1675	3118.7509	3125.1486	3125.8178	3159.8728
CC1CN=COCC=C1	C[C@H]1CN=COCC=C1	
InChI=1S/C7H11NO/c1-7-3-2-4-9-6-8-5-7/h2-3,6-7H,4-5H2,1H3/b3-2-,8-6-	InChI=1S/C7H11NO/c1-7-3-2-4-9-6-8-5-7/h2-3,6-7H,4-5H2,1H3/b3-2-,8-6-/t7-/m1/s1
