16
gdb 129755	3.09312	1.31957	1.00286	3.3687	73.76	-0.2442	-0.0301	0.214	1165.0241	0.124421	-434.032436	-434.024162	-434.023218	-434.066156	30.067	
N	-0.0664690553	 1.4548527514	-0.2175000607	-0.598249
C	-0.0485034263	 0.0753888803	 0.0539776379	 0.068312
C	-1.1208521306	-0.7582634539	 0.2327842024	 0.441391
O	-0.6683117631	-1.985020889	 0.4682345503	-0.24695
N	 0.7905218486	-1.8987207817	 0.4312549409	-0.031524
N	 1.0814720823	-0.7064276134	 0.1924910562	-0.142187
C	-2.5564668925	-0.4938425749	 0.2002872013	-0.110859
C	-3.5185473772	-1.537231765	-0.3436474432	-0.262688
C	-3.4984124019	-1.247676549	 1.1247536746	-0.262688
H	 0.3932151492	 1.6660950143	-1.0976668796	 0.251048
H	 0.4143056835	 1.981783569	 0.5048746797	 0.251045
H	-2.7796132517	 0.5468101929	-0.0019009769	 0.116977
H	-4.3502589829	-1.1756211148	-0.9371379236	 0.124742
H	-3.0874659222	-2.4724454285	-0.6810309269	 0.138445
H	-3.053651524	-1.987116027	 1.7802717684	 0.13844
H	-4.3160287559	-0.6836005808	 1.5584079491	 0.124746
51.2804	96.8075	151.4973	163.8811	287.5651	289.6907	410.1974	491.0195	563.387	629.0394	694.5656	742.4314	747.0153	799.1553	829.9963	843.2108	911.9565	913.1445	998.9262	1065.6599	1080.2862	1091.0728	1138.2123	1146.0011	1205.6191	1216.6307	1227.7876	1238.8638	1373.1486	1440.3453	1464.2631	1479.8304	1497.2307	1637.9209	1678.5101	3143.1628	3146.1645	3189.9531	3227.9933	3242.8065	3501.4016	3566.7294
NC1=C(ON=N1)C1CC1	Nc1c(onn1)C1CC1	
InChI=1S/C5H7N3O/c6-5-4(3-1-2-3)9-8-7-5/h3H,1-2,6H2	InChI=1S/C5H7N3O/c6-5-4(3-1-2-3)9-8-7-5/h3H,1-2,6H2
