16
gdb 54772	4.12612	1.09836	1.01835	2.3	70.49	-0.2507	-0.0246	0.2261	1168.6476	0.122847	-437.840115	-437.831873	-437.830929	-437.874002	29.923	
C	 0.2316193754	 0.9873376397	-0.7446820121	-0.483839
C	 0.0571572397	-0.0043198894	 0.3829562025	 0.375271
O	 0.8462989581	-0.1136114166	 1.2903328495	-0.298748
C	-1.215230039	-0.8592688342	 0.396887205	-0.084765
C	-1.8640982829	-1.310860668	-0.9444404231	-0.184216
N	-0.6151440913	-2.1735764283	-1.1297342697	-0.319075
C	-0.9795257618	-2.3953041714	 0.3414129376	-0.14901
C	-2.4377122745	-2.5192526016	-0.1618064629	 0.441904
O	-3.3836553945	-3.2400103983	-0.1222423743	-0.317383
H	 1.1041143868	 1.6143248892	-0.5570358936	 0.142112
H	 0.360836957	 0.4382223617	-1.6831792599	 0.160122
H	-0.6626927911	 1.6116431692	-0.8535697625	 0.133714
H	-1.896700031	-0.5054134495	 1.1760159643	 0.118584
H	-2.2775790793	-0.7084165618	-1.7506026853	 0.107931
H	-0.8170419984	-3.0050954087	-1.6920872545	 0.236779
H	-0.3717696631	-3.0049841421	 1.004848389	 0.120618
32.0686	129.1898	144.4587	175.1138	217.7514	370.8745	428.5479	492.4742	515.8852	599.248	678.595	776.4062	788.6954	811.3066	832.8419	894.0798	942.5698	983.4352	997.1647	1045.66	1055.922	1111.5078	1128.6016	1168.1229	1174.1291	1186.1481	1221.342	1248.6115	1277.326	1349.8684	1377.7234	1464.4827	1475.3685	1813.3248	1912.088	3037.4841	3080.5684	3103.8955	3147.8384	3152.9726	3167.2463	3412.4518
CC(=O)C1C2NC1C2=O	CC(=O)[C@H]1[C@H]2N[C@@H]1C2=O	
InChI=1S/C6H7NO2/c1-2(8)3-4-6(9)5(3)7-4/h3-5,7H,1H3	InChI=1S/C6H7NO2/c1-2(8)3-4-6(9)5(3)7-4/h3-5,7H,1H3/t3-,4+,5-
