16
gdb 25474	4.12315	1.21072	1.05907	1.9908	77.67	-0.2072	-0.0297	0.1775	1122.0774	0.12546	-400.754678	-400.747159	-400.746215	-400.787541	27.725	
O	-0.4658773881	 0.580231945	-0.6402113773	-0.236593
C	 0.2270811234	 0.9075557031	 0.2881274233	 0.158601
C	 1.3747649995	 1.8898471507	 0.2017964638	-0.271838
C	 1.481875917	 2.7002882388	-1.1402228704	-0.188978
N	 1.1255198009	 3.8918789551	-0.346700056	 0.023743
C	 1.0319475953	 5.2427056711	-0.1752370157	-0.153054
C	 0.8848047589	 5.4310736293	 1.1921397039	-0.124813
C	 0.9299086024	 4.1656498501	 1.8609852409	-0.34008
C	 1.0844874543	 3.2447920975	 0.8502983741	 0.33206
H	 0.0476464184	 0.5112106374	 1.3125167184	 0.087396
H	 2.3007018118	 1.40303554	 0.5304053321	 0.113218
H	 2.485577481	 2.7429055902	-1.5703954702	 0.128731
H	 0.7464431643	 2.4238454768	-1.8975737384	 0.150419
H	 1.0436671402	 5.9456260217	-0.9918346679	 0.123139
H	 0.7393066041	 6.3883860342	 1.6706255573	 0.097431
H	 0.8552726967	 3.994884309	 2.922889932	 0.100619
54.2669	106.5957	147.887	222.8676	322.2903	454.1289	603.3236	633.5972	669.0785	705.5283	742.0936	747.8369	764.8757	828.874	852.2467	922.0493	969.6136	1026.6179	1050.4488	1056.1821	1069.7862	1112.8717	1151.6468	1173.2832	1233.2948	1261.9536	1297.0481	1325.7548	1402.4746	1417.2724	1448.8274	1468.5172	1519.329	1571.1062	1827.7571	2885.7856	3043.0974	3069.4028	3134.4131	3239.5433	3262.4918	3274.454
O=CC1CN2C=CC=C12	O=C[C@H]1Cn2cccc12	
InChI=1S/C7H7NO/c9-5-6-4-8-3-1-2-7(6)8/h1-3,5-6H,4H2	InChI=1S/C7H7NO/c9-5-6-4-8-3-1-2-7(6)8/h1-3,5-6H,4H2/t6-/m1/s1
