16
gdb 38297	3.61124	1.78858	1.58724	1.1859	65.97	-0.2565	0.0118	0.2683	850.8471	0.128213	-437.872045	-437.866175	-437.865231	-437.902154	24.394	
C	-0.0268878023	 1.6440715462	 0.1029988037	-0.243069
C	 1.4860645159	 1.3553876414	 0.0520974679	 0.043716
O	 1.2331080763	 0.1089670897	 0.7798079876	-0.299233
C	-0.0245366555	 0.1055357055	 0.0197950778	 0.072486
C	 0.5220438368	-0.2164286657	-1.3977569943	-0.016457
N	-0.2917821677	 0.231522071	-2.5300312001	-0.271147
C	 0.3073668433	 1.2440590403	-3.0054945159	 0.108697
O	 1.4770748577	 1.6695822519	-2.4579740345	-0.234065
C	 1.7332694527	 0.7724247998	-1.3576941894	 0.08026
H	-0.3242713816	 1.9859950556	 1.0940989488	 0.119251
H	-0.5031235973	 2.231631771	-0.6819762855	 0.118547
H	 2.2441032817	 1.9962676615	 0.4998394833	 0.088544
H	-0.8052776711	-0.5277343657	 0.4367905816	 0.092601
H	 0.7724025454	-1.2747952578	-1.4869116108	 0.09602
H	-0.0301571174	 1.8392252575	-3.8472159788	 0.141839
H	 2.7317279931	 0.3517263579	-1.4748512014	 0.10201
181.0288	254.3315	402.831	458.8752	517.0998	588.2233	607.1593	799.9793	828.0688	840.5145	854.2854	880.3727	917.8492	922.5975	958.4632	970.7799	1003.9412	1020.105	1027.6936	1046.241	1061.8216	1090.0528	1112.5423	1183.2075	1209.6035	1222.4082	1271.7011	1276.6705	1282.1256	1314.879	1328.733	1346.9243	1362.0215	1487.1226	1683.6791	3093.7425	3096.8487	3118.4466	3137.536	3145.5428	3160.132	3212.9661
C1C2OC1C1N=COC21	C1[C@H]2O[C@@H]1[C@H]1N=CO[C@@H]21	
InChI=1S/C6H7NO2/c1-3-5-6(4(1)9-3)8-2-7-5/h2-6H,1H2	InChI=1S/C6H7NO2/c1-3-5-6(4(1)9-3)8-2-7-5/h2-6H,1H2/t3-,4+,5+,6-/m0/s1
