19
gdb 54503	3.05681	1.40015	1.11677	2.7087	81.63	-0.2306	-0.0089	0.2217	1134.0015	0.159056	-385.916081	-385.907754	-385.90681	-385.949192	32.066	
C	 0.4572157818	 1.365904191	 0.0929208948	-0.494227
C	-0.2181266857	 0.0114052028	-0.0173184126	 0.296951
O	-0.8381968296	-0.4681089802	 0.9108631557	-0.324551
C	-0.0790701618	-0.7164848005	-1.312551073	 0.227286
C	-1.1628836375	-1.7402517832	-1.6592611324	-0.305699
C	 0.1893153725	-2.2411642236	-1.2954000103	-0.060398
C	 1.1958138928	-2.5335120134	-2.40632395	-0.284706
C	 1.3701045964	-1.1964648361	-3.0973972937	-0.083335
C	 0.7034641402	-0.2166134204	-2.482732652	-0.180063
H	 1.5193764342	 1.289760054	-0.1639304442	 0.140888
H	 0.0096615446	 2.0718132563	-0.6166563596	 0.138898
H	 0.3422133166	 1.7497131681	 1.1069727095	 0.139668
H	-1.9396247236	-1.8549514171	-0.9115896468	 0.138615
H	-1.4823913661	-1.769969783	-2.6957185224	 0.114735
H	 0.2973772112	-2.7190127936	-0.3293864682	 0.110074
H	 2.1476397547	-2.9021974563	-2.001995308	 0.113333
H	 0.8336285246	-3.307537353	-3.0952691172	 0.116162
H	 1.9556148888	-1.0813488325	-4.0025397681	 0.09863
H	 0.6835704056	 0.8188853907	-2.8026716415	 0.097739
55.4961	151.6861	166.4302	194.6786	281.5651	362.0811	392.2303	469.5234	500.7171	583.8849	622.8596	708.9579	744.5642	754.2297	818.9114	878.0061	914.9717	936.2233	943.0785	958.0562	971.5492	1025.351	1038.7965	1056.3685	1083.0798	1092.5158	1139.4625	1159.707	1193.7555	1253.6434	1288.7535	1324.2868	1352.8616	1377.8195	1402.059	1459.7638	1462.4458	1474.4569	1478.936	1667.5544	1780.1452	3018.5972	3034.474	3045.8068	3095.2175	3130.0085	3153.8251	3186.1634	3191.2864	3210.3588	3230.4632
CC(=O)C12CC1CC=C2	CC(=O)[C@]12C[C@H]1CC=C2	
InChI=1S/C8H10O/c1-6(9)8-4-2-3-7(8)5-8/h2,4,7H,3,5H2,1H3	InChI=1S/C8H10O/c1-6(9)8-4-2-3-7(8)5-8/h2,4,7H,3,5H2,1H3/t7-,8+/m1/s1
