21
gdb 41343	2.87244	1.81449	1.49848	1.8489	80.04	-0.2362	0.0749	0.311	968.1057	0.186934	-387.081244	-387.074536	-387.073592	-387.111855	29.086	
C	 0.052481563	 1.4742130014	 0.2450867711	-0.142341
O	 1.4619276444	 1.4760013832	-0.1291381532	-0.372017
C	 1.2739182145	 0.2227839138	-0.8028613786	 0.506509
C	 2.1886777966	-0.9897120972	-0.7486482412	-0.301465
C	 1.2881976438	-1.9838871118	-1.5796802982	-0.212255
C	 0.1455225866	-1.0992678904	-2.1932648661	-0.002622
C	-0.9338453224	-0.7660821981	-1.1207784697	-0.260829
C	-0.0569799971	-0.0372982903	-0.0797009772	-0.050947
C	 0.8616972829	 0.2578277339	-2.2950645045	-0.283707
H	-0.0841439206	 1.7706875021	 1.289089834	 0.106822
H	-0.5374799777	 2.1367113798	-0.4020415928	 0.098515
H	 3.1557479073	-0.8189675229	-1.2320918718	 0.09914
H	 2.3717677011	-1.3353980265	 0.2719293843	 0.098007
H	 1.8680328215	-2.4536912062	-2.3782114431	 0.103927
H	 0.8868270807	-2.7883947869	-0.9562794609	 0.098771
H	-0.2622771382	-1.516484986	-3.1157369515	 0.059657
H	-1.7150147064	-0.1301190053	-1.5517650051	 0.096774
H	-1.4217481876	-1.6548480167	-0.7100149073	 0.093219
H	 0.0758126128	-0.6219892256	 0.83357149	 0.079158
H	 0.1978527216	 1.0889153665	-2.5455888214	 0.094572
H	 1.7194526132	 0.2657762132	-2.9735086469	 0.091113
181.9658	263.0778	330.7249	373.0374	420.0678	446.6667	509.5092	591.2969	698.0236	734.3029	784.6612	805.3105	838.8533	860.7076	906.2121	917.7917	942.3882	949.9954	965.7108	979.5354	1004.8641	1024.1431	1077.3048	1094.9047	1109.8418	1122.8997	1154.8525	1158.9101	1188.815	1202.6805	1240.448	1245.0853	1264.6836	1267.4065	1308.1561	1315.7367	1325.013	1339.8692	1345.7593	1376.5531	1485.7447	1490.6407	1499.5198	1516.798	1523.0868	3014.5784	3041.4678	3047.1042	3055.9211	3059.7202	3067.3233	3084.2618	3088.99	3093.2507	3097.2597	3108.3971	3112.4947
C1OC23CCC(CC12)C3	C1O[C@@]23CC[C@@H](C[C@H]12)C3	
InChI=1S/C8H12O/c1-2-8-4-6(1)3-7(8)5-9-8/h6-7H,1-5H2	InChI=1S/C8H12O/c1-2-8-4-6(1)3-7(8)5-9-8/h6-7H,1-5H2/t6-,7+,8+/m0/s1
