23
gdb 91034	2.10827	1.73844	1.47666	0.2433	88.34	-0.2277	0.0843	0.312	1085.3372	0.206178	-351.109563	-351.101009	-351.100065	-351.141849	35.017	
C	-0.399012146	 1.5387360716	 0.0037530323	-0.419503
C	 0.0079576481	 0.0705630499	-0.0172822291	-0.012729
C	 1.0605492724	-0.455294858	-1.0555320702	-0.283135
C	 1.8236376128	-1.1873448936	 0.0919643604	-0.060265
C	 3.0251037254	-0.4902867529	 0.7711789678	-0.056115
C	 2.8963209829	 1.0019769398	 0.7635156906	-0.300628
C	 2.0649329907	 0.2182617493	 1.7434193312	-0.104527
C	 0.8596233324	-0.5544791206	 1.1407727745	 0.354646
C	 0.1378537339	-1.4039089914	 2.1662951915	-0.487672
H	 0.454403625	 2.2098471696	 0.1269510727	 0.120409
H	-0.9103215825	 1.8147108276	-0.9256220547	 0.111041
H	-1.0918627425	 1.7373929624	 0.829645212	 0.11151
H	-0.9045963814	-0.5300721136	-0.1136924891	 0.06587
H	 0.6426286574	-1.1221238547	-1.8136942751	 0.092721
H	 1.6341154441	 0.3180580683	-1.5737048864	 0.098628
H	 1.9061571797	-2.271970706	 0.0119161881	 0.06106
H	 3.9724247745	-0.97310008	 0.9815589186	 0.080204
H	 3.7296837291	 1.5275701278	 1.2211013891	 0.108554
H	 2.468039554	 1.5328161207	-0.0779204324	 0.108029
H	 2.1797953472	 0.381470064	 2.8099862822	 0.076421
H	-0.4544972859	-0.7825585766	 2.8504553522	 0.112634
H	-0.5437619417	-2.1148879955	 1.6864502797	 0.108774
H	 0.8475754506	-1.9760713181	 2.7751814339	 0.114073
168.9118	187.7111	198.0085	230.813	237.1964	296.0666	337.4134	381.8886	464.7574	531.9773	596.2209	633.245	729.0084	757.6104	780.4575	855.3776	885.871	896.9254	903.3497	927.1437	953.3491	972.4109	1000.4882	1030.9299	1042.4345	1061.7661	1077.1043	1093.3856	1122.6025	1133.596	1162.1291	1168.2586	1192.0214	1216.5373	1240.9935	1258.7346	1268.097	1298.4448	1323.3482	1353.3231	1385.0098	1408.4261	1412.9872	1479.3238	1490.6619	1494.6451	1495.4387	1498.4597	1508.7107	3012.6307	3019.9692	3030.7804	3056.9976	3074.1887	3084.9747	3088.5713	3094.888	3107.9244	3117.9416	3131.0225	3156.5272	3173.3118	3208.5366
CC1CC2C3CC3C12C	C[C@H]1C[C@H]2[C@H]3C[C@H]3[C@@]12C	
InChI=1S/C9H14/c1-5-3-7-6-4-8(6)9(5,7)2/h5-8H,3-4H2,1-2H3	InChI=1S/C9H14/c1-5-3-7-6-4-8(6)9(5,7)2/h5-8H,3-4H2,1-2H3/t5-,6+,7-,8+,9-/m0/s1
