23
gdb 60479	5.83364	0.46989	0.45041	1.4679	89.33	-0.2561	0.0593	0.3155	2425.4065	0.202341	-388.266889	-388.255491	-388.254547	-388.304407	40.909	
C	 0.0434604525	 1.5789442553	 0.0674735858	-0.402993
C	 0.0225649944	 0.0505831783	 0.0388062838	 0.136912
O	 0.7465219933	-0.494170224	 1.1423464208	-0.427999
C	-1.4028219147	-0.5139034447	-0.0326249875	-0.199929
C	-1.4469955312	-2.0411605773	-0.1368198179	-0.173859
C	-2.8694830221	-2.6062589718	-0.1273378638	-0.178128
C	-2.8937243569	-4.144532124	-0.2371436015	-0.355305
C	-4.2421611604	-4.6985510646	-0.2273330009	 0.293369
C	-5.3649372166	-5.128163604	-0.2174464739	-0.439102
H	 1.0716691701	 1.9437181418	 0.138927472	 0.123731
H	-0.4143818312	 2.0003448347	-0.833338647	 0.115931
H	-0.5155654157	 1.9589073793	 0.9322976258	 0.105288
H	 0.5805793756	-0.2958759527	-0.8408778505	 0.087158
H	 0.3352572377	-0.1635812109	 1.9491725425	 0.274812
H	-1.9541196384	-0.1864274205	 0.8623102421	 0.082548
H	-1.9212020993	-0.0636785786	-0.8896178372	 0.094513
H	-0.9356084613	-2.3544767235	-1.0579167415	 0.092329
H	-0.8674306933	-2.4662714365	 0.6908441281	 0.109523
H	-3.3857377215	-2.3087990333	 0.793403809	 0.105788
H	-3.4509851452	-2.1828363931	-0.9552210451	 0.106192
H	-2.3797997538	-4.4521214647	-1.1575440641	 0.12839
H	-2.314485802	-4.5773128479	 0.5892493169	 0.129437
H	-6.35155203	-5.5198906574	-0.2099536759	 0.191395
43.4481	68.7081	76.2759	118.0976	153.0065	164.9717	236.7931	268.9173	295.2726	309.6674	349.6269	412.578	466.3382	490.0144	545.1271	613.891	632.9244	735.5155	779.148	843.0703	895.7482	928.4964	956.5686	1002.9719	1026.4809	1036.6173	1065.2853	1091.053	1120.1318	1147.0364	1170.064	1244.5392	1263.5051	1307.0346	1309.9173	1321.4587	1344.6996	1358.9596	1387.537	1397.4488	1404.4952	1421.5796	1472.3401	1476.8849	1489.6883	1492.7324	1495.4189	1510.6558	2238.0655	2991.9909	3011.5761	3014.4483	3021.0991	3028.8082	3032.3386	3040.4252	3041.8539	3060.3341	3082.2886	3092.7189	3118.0701	3508.2423	3792.5499
CC(O)CCCCC#C	C[C@@H](O)CCCCC#C	
InChI=1S/C8H14O/c1-3-4-5-6-7-8(2)9/h1,8-9H,4-7H2,2H3	InChI=1S/C8H14O/c1-3-4-5-6-7-8(2)9/h1,8-9H,4-7H2,2H3/t8-/m1/s1
