15
gdb 8344	5.00528	1.44207	1.35957	4.7947	65.38	-0.2519	0.0282	0.2801	919.3197	0.118868	-362.608058	-362.601123	-362.600179	-362.639635	25.987	
N	 0.0476789454	-1.1726041176	 0.1037182514	-0.305433
C	 0.0600925818	-0.0183186552	 0.1404267486	 0.272266
C	 0.0785188813	 1.4434238713	 0.1669879011	-0.472183
C	 1.4643635222	 2.0138251695	-0.0288236941	 0.424518
C	 2.5595901013	 1.6604630362	-1.0682361919	-0.254035
C	 3.1503638279	 2.5973555111	 0.0108001454	 0.0524
C	 1.8984007869	 3.5016983467	-0.0828312278	-0.268499
O	 2.4554139184	 1.7946089195	 1.0485717315	-0.332365
H	-0.5831086158	 1.8216263474	-0.6205567776	 0.161586
H	-0.3201417775	 1.7936830629	 1.1256071861	 0.168479
H	 2.9100941309	 0.6291503747	-1.0318388346	 0.129824
H	 2.4490716512	 2.0467225895	-2.0844446914	 0.101105
H	 4.1869463789	 2.869581968	 0.2005936743	 0.107832
H	 1.7277399172	 4.056498113	-1.0088331105	 0.101189
H	 1.6772523999	 4.079976403	 0.8150855894	 0.113314
67.1207	115.7911	290.8195	308.8516	385.5006	463.3245	516.0969	598.2089	693.1444	719.2295	804.8761	857.2746	908.4437	937.6915	960.3882	969.0879	986.9171	1004.4249	1094.299	1102.9359	1121.3574	1161.6132	1216.13	1219.5554	1233.9414	1264.8247	1303.2953	1355.4811	1446.3142	1468.1718	1512.3009	2368.8057	3047.5476	3062.2209	3071.906	3090.0343	3140.0763	3149.1765	3159.638
N#CCC12CC(C1)O2	N#CC[C@@]12C[C@@H](C1)O2	
InChI=1S/C6H7NO/c7-2-1-6-3-5(4-6)8-6/h5H,1,3-4H2	InChI=1S/C6H7NO/c7-2-1-6-3-5(4-6)8-6/h5H,1,3-4H2/t5-,6+
