17
gdb 124962	2.99688	1.22107	0.95818	2.3555	79.66	-0.2285	0.0234	0.252	1224.8612	0.136033	-380.865054	-380.856109	-380.855165	-380.899535	32.379	
C	 0.2162645974	 1.4669258985	-0.0107384514	-0.512865
C	 0.0319834501	-0.0140765034	-0.0731202938	 0.293791
C	 0.0025667123	-0.8992858327	-1.1408164409	 0.131807
C	 0.1572540279	-0.5924102272	-2.6095596297	-0.477932
C	 1.4145291609	 0.0730859003	-2.9543560865	 0.317119
C	 2.4429007619	 0.6297431261	-3.233432229	-0.465461
C	-0.2249404386	-2.1613578124	-0.5496931422	-0.081777
N	-0.3306609602	-2.0882772801	 0.7730630794	-0.235578
N	-0.1721471518	-0.7756802607	 1.0322419413	-0.243644
H	 0.9325973336	 1.7917904498	-0.7694203285	 0.160493
H	-0.7238204646	 2.0027467223	-0.1899470031	 0.139022
H	 0.5931887421	 1.7798487552	 0.9682199621	 0.125192
H	 0.0846230456	-1.5300834211	-3.1737110662	 0.140771
H	-0.6769336727	 0.0285987427	-2.965057623	 0.137755
H	 3.3565238713	 1.1081877246	-3.4858054285	 0.196765
H	-0.3105302683	-3.1190587414	-1.0440943065	 0.106643
H	-0.1999617467	-0.4610536604	 1.9879419365	 0.267899
44.9104	73.5594	110.6875	225.3523	242.0245	292.3483	329.1566	386.5927	454.2461	526.7884	616.9495	630.8412	652.6228	688.6693	695.6853	762.1573	884.0728	925.378	950.7589	959.3178	1006.9369	1060.4903	1136.1148	1167.8968	1216.8582	1259.4873	1309.4814	1320.0664	1394.202	1415.2325	1445.529	1464.495	1481.2712	1491.9975	1531.6372	1622.7292	2235.5087	3006.9143	3028.3761	3051.1597	3086.5439	3122.8262	3234.4982	3505.9524	3663.1712
CC1=C(CC#C)C=NN1	Cc1c(CC#C)cn[nH]1	
InChI=1S/C7H8N2/c1-3-4-7-5-8-9-6(7)2/h1,5H,4H2,2H3,(H,8,9)	InChI=1S/C7H8N2/c1-3-4-7-5-8-9-6(7)2/h1,5H,4H2,2H3,(H,8,9)
