12
gdb 7025	7.59044	1.00333	0.89107	7.3031	57.68	-0.2742	-0.0516	0.2226	1169.7893	0.082336	-414.712294	-414.704154	-414.70321	-414.746454	26.713	
O	-0.4495905938	 0.1158555337	 0.0067280072	-0.236113
C	-0.1264329566	 1.2675204932	 0.0087597616	 0.171368
N	 1.1835312983	 1.7613755373	-0.0006726907	-0.364805
C	 2.3695841457	 1.0189393313	-0.0148443196	 0.458195
O	 2.4288050576	-0.1765966291	-0.0217701859	-0.266616
C	 3.609090607	 1.9401465498	-0.0211174518	-0.494783
C	 4.8622491247	 1.1979763255	-0.0379468996	 0.29958
N	 5.8750073993	 0.645105585	-0.0512942347	-0.284609
H	-0.8460068282	 2.1107756688	 0.0196150167	 0.096515
H	 1.2649587014	 2.7682880654	 0.0034626887	 0.262008
H	 3.56732934	 2.6001295498	-0.8964926462	 0.179579
H	 3.5842673846	 2.5888416992	 0.8632994041	 0.179681
29.7746	67.7821	116.8495	217.0444	220.8652	323.5749	370.2509	421.2357	544.0079	587.3345	624.1703	789.7828	930.7535	951.5329	982.6228	1026.721	1077.0921	1160.2199	1224.2389	1332.026	1443.3057	1447.3394	1508.0533	1827.8816	1886.9955	2381.6545	2934.1614	3036.3186	3075.1294	3602.6911
O=CNC(=O)CC#N	O=CNC(=O)CC#N	
InChI=1S/C4H4N2O2/c5-2-1-4(8)6-3-7/h3H,1H2,(H,6,7,8)	InChI=1S/C4H4N2O2/c5-2-1-4(8)6-3-7/h3H,1H2,(H,6,7,8)
