15
gdb 15205	2.58232	1.95787	1.50866	0.8417	73.83	-0.2281	0.0147	0.2428	899.0283	0.115625	-325.420538	-325.412057	-325.411113	-325.453171	31.129	
C	-0.2313954431	 1.4907325424	-0.057058643	-0.315802
N	 0.0318733277	 0.0573865997	 0.0269443057	-0.109146
C	 1.3783657347	-0.4313421253	-0.2939779042	-0.218535
C	 2.4434027129	 0.4494831866	-0.6808445812	 0.37159
C	 3.3347991402	 1.1664510862	-1.0518031666	-0.459653
C	 0.8570332831	-0.4433238993	 1.1329606777	-0.21853
C	 1.4170322491	 0.4259457396	 2.1282475006	 0.371589
C	 1.8553784533	 1.1325725263	 2.9970228723	-0.45967
H	 0.6080103057	 2.1239993286	 0.2536529068	 0.132555
H	-0.4878466141	 1.7296107973	-1.0928813685	 0.129468
H	-1.0948481689	 1.7158830441	 0.5750059707	 0.129495
H	 1.3740855333	-1.3862524921	-0.8162879876	 0.121351
H	 4.1271568272	 1.7998050086	-1.3660727111	 0.201972
H	 0.5222561809	-1.4058329334	 1.5152995531	 0.121347
H	 2.2550190881	 1.7569634008	 3.757388605	 0.201969
96.9677	128.0061	166.6657	168.4115	240.1372	330.7284	351.0535	427.9435	566.5913	602.9396	610.9568	621.5056	637.845	663.8506	665.951	707.5357	838.4799	854.4488	1014.0134	1037.3895	1107.9625	1129.2913	1173.1712	1173.8839	1318.7499	1358.2788	1366.8066	1451.939	1488.149	1493.8259	2233.8262	2235.3031	3025.3861	3097.742	3117.3299	3119.3022	3124.74	3502.8984	3503.6028
CN1C(C#C)C1C#C	CN1[C@@H](C#C)[C@H]1C#C	
InChI=1S/C7H7N/c1-4-6-7(5-2)8(6)3/h1-2,6-7H,3H3	InChI=1S/C7H7N/c1-4-6-7(5-2)8(6)3/h1-2,6-7H,3H3/t6-,7+,8?
