21
gdb 111442	2.76036	1.4419	1.1447	1.7357	80.01	-0.2467	0.0724	0.3191	1133.6598	0.18476	-387.06207	-387.054089	-387.053145	-387.094501	32.346	
O	 0.1356815833	 1.393771266	-0.0428293519	-0.425055
C	 0.0699461929	-0.02185087	 0.0419752865	-0.066855
C	-1.3700694437	-0.5462953986	 0.0265427911	-0.028098
C	-2.1776457177	-0.1420048344	-1.2191691471	-0.067155
C	-1.7539222923	-0.6080246371	-2.5962718058	-0.309687
C	-2.7889886148	-1.3888876255	-1.8250667799	-0.039086
C	-2.3696952086	-2.5802295022	-0.9817752499	-0.038006
C	-0.9166565483	-2.9809048564	-0.9183556679	-0.302137
C	-1.4917277535	-2.073030924	 0.1453225521	-0.057617
H	-0.2365962813	 1.6425682274	-0.8953266701	 0.284404
H	 0.6522024951	-0.4947195912	-0.7636610898	 0.081232
H	 0.554995877	-0.2885894235	 0.9869480418	 0.106227
H	-1.8782690661	-0.103961544	 0.8920165162	 0.081452
H	-2.7471234077	 0.7796662667	-1.1622489563	 0.087592
H	-2.1073774478	-0.0207588047	-3.4378880464	 0.108949
H	-0.7677223095	-1.0284968039	-2.7527148308	 0.113333
H	-3.8069299242	-1.3871970568	-2.1975607428	 0.083353
H	-3.1188850617	-3.3443268754	-0.8091945565	 0.082739
H	-0.7006038699	-4.0003930327	-0.6153713678	 0.108586
H	-0.217691841	-2.5983430402	-1.6523005378	 0.111793
H	-1.5768956803	-2.4831850798	 1.1461207132	 0.084035
83.468	154.2523	183.5782	282.2611	344.2256	357.0177	418.2234	492.9386	530.9657	668.2333	669.5082	705.4434	788.0176	805.5168	829.9282	845.9111	923.5535	929.415	963.039	993.4901	1018.8877	1026.5131	1046.8746	1055.669	1066.6883	1076.9196	1096.9394	1107.9826	1116.799	1119.6781	1133.2176	1195.1809	1212.4084	1220.8694	1288.0162	1312.9732	1341.4794	1358.5943	1381.6071	1387.5844	1390.6897	1420.6775	1479.767	1500.1369	1509.8431	2988.8229	3032.7939	3072.3337	3131.409	3137.5651	3155.5439	3158.3337	3166.706	3180.2228	3211.2131	3219.286	3810.992
OCC1C2CC2C2CC12	OC[C@H]1[C@H]2C[C@H]2[C@H]2C[C@@H]12	
InChI=1S/C8H12O/c9-3-8-6-1-4(6)5-2-7(5)8/h4-9H,1-3H2	InChI=1S/C8H12O/c9-3-8-6-1-4(6)5-2-7(5)8/h4-9H,1-3H2/t4-,5+,6-,7+,8-
