23
gdb 57340	1.84782	1.54867	1.31013	1.4816	81.53	-0.2493	-0.0211	0.2281	1173.0762	0.20095	-425.445541	-425.434296	-425.433352	-425.480668	42.38	
C	 0.136559014	 1.4919120624	 0.1447195369	-0.444779
C	 0.085782822	-0.041278018	 0.0365855777	 0.358253
C	 0.7586122083	-0.6619263675	 1.2723214426	-0.444789
O	-1.288220282	-0.4637257206	-0.0123461251	-0.477112
C	 0.6896547417	-0.5704024636	-1.3072718013	 0.148664
C	 0.5783922455	-2.1128788299	-1.4088657691	-0.436216
C	-0.0418927288	 0.0336619568	-2.5327632521	-0.436216
C	 2.1644886613	-0.2406987811	-1.4914328403	 0.15492
O	 2.8915909048	 0.3615319249	-0.7420546208	-0.269661
H	 1.1645359567	 1.8570128358	 0.111874915	 0.146146
H	-0.4416764044	 1.9659583727	-0.6510677547	 0.118094
H	-0.3010467787	 1.8026972219	 1.100787168	 0.098732
H	 0.2941136303	-0.2577213858	 2.1795229904	 0.098734
H	 0.6303262544	-1.7461286588	 1.2923659098	 0.118096
H	 1.8229491831	-0.4227417119	 1.3053119862	 0.146146
H	-1.7106869718	-0.1615441181	 0.7982307695	 0.274764
H	-0.4665446804	-2.4093130845	-1.3024206659	 0.147341
H	 0.9393281788	-2.4574269887	-2.3832183265	 0.112219
H	 1.1628010391	-2.6233683692	-0.639450725	 0.123308
H	 0.0817420337	 1.1174463561	-2.5980378067	 0.123302
H	 0.3452233291	-0.401134294	-3.4598262338	 0.112216
H	-1.1081918842	-0.1888770034	-2.4651134971	 0.147345
H	 2.5613684474	-0.6322614252	-2.4586872477	 0.080494
81.9764	104.5849	186.5426	211.7413	226.5361	236.0584	246.7837	263.4447	299.6142	325.5694	335.4229	357.0606	383.5863	392.4147	412.9965	487.9334	498.1564	632.4116	662.1659	850.6739	892.9796	928.2082	938.4982	941.0628	963.8171	987.4741	1014.7915	1048.2961	1131.0871	1142.307	1190.8279	1221.19	1231.533	1274.9077	1361.8159	1385.2203	1398.4338	1406.0033	1415.7091	1441.9044	1474.6793	1490.1529	1496.3096	1498.2884	1501.7806	1510.4249	1518.4716	1527.7682	1822.6843	2845.1994	3034.3222	3040.6695	3044.5538	3049.5061	3104.4065	3109.3348	3113.58	3116.0714	3140.987	3142.6959	3149.0129	3151.3211	3813.0074
CC(C)(O)C(C)(C)C=O	CC(C)(O)C(C)(C)C=O	
InChI=1S/C7H14O2/c1-6(2,5-8)7(3,4)9/h5,9H,1-4H3	InChI=1S/C7H14O2/c1-6(2,5-8)7(3,4)9/h5,9H,1-4H3
