23
gdb 99746	1.76006	1.35504	0.9326	1.9204	82.25	-0.2399	-0.0123	0.2276	1396.2872	0.201756	-425.45512	-425.443568	-425.442623	-425.492218	41.165	
C	 0.8139426363	-0.0202345398	 1.3022706843	-0.402677
C	 0.061107135	 0.0682007108	-0.0282860811	-0.17557
C	-1.3181515514	-0.6261570306	-0.014873883	-0.072744
C	-2.0927963846	-0.3526141569	-1.319628854	 0.131951
C	-3.4694775257	-1.02027754	-1.3542252655	-0.425031
O	-2.2209816551	 1.064094231	-1.4189767323	-0.441663
C	-1.1332012132	-2.1370795454	 0.1641049637	 0.400039
C	-1.700190861	-2.7648751476	 1.4213718995	-0.487164
O	-0.5499087793	-2.7916359193	-0.6721371216	-0.328808
H	 1.7625493788	 0.5225395487	 1.2474663843	 0.117192
H	 0.2312569287	 0.4167820217	 2.1214379308	 0.112138
H	 1.0480204475	-1.0560882779	 1.571899174	 0.118739
H	-0.0958722317	 1.114486039	-0.3006851112	 0.119938
H	 0.6599787216	-0.3895339886	-0.8241044643	 0.112659
H	-1.9129713402	-0.2263847789	 0.8165498955	 0.072789
H	-1.484524398	-0.7431037666	-2.1492164967	 0.087717
H	-3.992180402	-0.7684497465	-2.2840388647	 0.106909
H	-3.3877294927	-2.1107640761	-1.3135529417	 0.130106
H	-4.0867406019	-0.6756998155	-0.5179007114	 0.120372
H	-2.661257983	 1.2629478548	-2.2510904582	 0.281933
H	-1.2736096441	-2.280965523	 2.3075981645	 0.142972
H	-2.7829238026	-2.5984139062	 1.4667657081	 0.139919
H	-1.4875520415	-3.8346878971	 1.4413568511	 0.138286
48.1345	70.464	88.0647	155.7001	171.2249	179.8368	211.6228	249.5936	260.3611	286.6843	335.773	349.0541	391.3379	463.7907	480.8122	595.5669	605.6661	751.3775	854.4981	872.8664	904.4001	953.864	959.531	1016.7377	1038.6184	1066.0886	1081.0435	1123.9948	1128.1377	1159.9017	1178.8304	1243.8598	1284.1453	1311.3132	1365.08	1368.9074	1378.0219	1382.7358	1405.9113	1410.1186	1416.7299	1460.8791	1471.9057	1491.7597	1495.1565	1498.585	1502.0475	1508.2874	1801.5822	2993.7589	3026.1413	3027.8789	3029.5728	3033.4421	3048.6319	3084.4183	3092.3794	3094.4437	3101.5727	3113.0968	3113.9591	3148.8367	3821.9387
CCC(C(C)O)C(C)=O	CC[C@@H]([C@@H](C)O)C(=O)C	
InChI=1S/C7H14O2/c1-4-7(5(2)8)6(3)9/h5,7-8H,4H2,1-3H3	InChI=1S/C7H14O2/c1-4-7(5(2)8)6(3)9/h5,7-8H,4H2,1-3H3/t5-,7+/m1/s1
