22
gdb 14347	4.21354	1.51271	1.30146	0.2099	81.06	-0.2773	0.0773	0.3546	1043.9283	0.202711	-313.081185	-313.073492	-313.072547	-313.113279	30.534	
C	-0.6463512759	 1.4155254572	-0.133022021	-0.405593
C	 0.0206256975	 0.0488676312	 0.0080655595	 0.064671
C	 0.7140204794	-0.4650244528	-1.2775222807	-0.238499
C	 1.7446344435	-1.5036674552	-0.786976106	 0.016357
C	 3.2670006533	-1.1826247454	-0.9110532068	-0.227692
C	 3.4146918832	-1.3040531892	 0.6330911054	-0.233523
C	 1.8672253572	-1.3423412446	 0.7660096025	 0.003814
C	 1.1420409593	-0.0187720907	 1.0650389727	-0.227717
H	 0.088745495	 2.1815617963	-0.4078371124	 0.109787
H	-1.4202045355	 1.4053357592	-0.908267538	 0.11013
H	-1.1198445798	 1.7295821676	 0.8035018606	 0.10945
H	-0.7472696573	-0.6858286258	 0.2913882487	 0.067548
H	-0.0046039064	-0.8754673796	-1.993834979	 0.090278
H	 1.2186836837	 0.3702393574	-1.7807395041	 0.088921
H	 1.5050575271	-2.5174920634	-1.1160783952	 0.060077
H	 3.8626846783	-1.8788046795	-1.5067149253	 0.094561
H	 3.4541059862	-0.1723253718	-1.2873502416	 0.094155
H	 3.8861113381	-2.2430138754	 0.9355661676	 0.095573
H	 3.927236636	-0.4861555612	 1.147948389	 0.091547
H	 1.4654570603	-2.1571522837	 1.3747263936	 0.058347
H	 1.8234113894	 0.8316851068	 0.921202493	 0.087876
H	 0.7646185774	 0.0457983326	 2.0905539275	 0.089932
63.4004	123.5805	234.3377	271.6886	363.8912	374.1459	412.0518	509.9107	616.9239	680.1632	761.1644	822.6318	838.3376	848.7475	886.3013	921.3529	936.3152	940.6233	958.2737	1002.1775	1028.2151	1045.7906	1077.3374	1086.6282	1146.1529	1153.6531	1192.4946	1209.6874	1227.9877	1254.6116	1261.3479	1274.8937	1279.0953	1283.2615	1307.7789	1329.4977	1346.4776	1356.4074	1381.2672	1410.2122	1477.9158	1488.3911	1492.1445	1496.9734	1498.0525	1505.5832	2991.6811	3010.3679	3019.136	3024.1444	3046.4643	3049.91	3055.2068	3064.5695	3075.3772	3081.6161	3089.0728	3091.5562	3092.5698	3110.4727
CC1CC2CCC2C1	C[C@H]1C[C@H]2CC[C@H]2C1	
InChI=1S/C8H14/c1-6-4-7-2-3-8(7)5-6/h6-8H,2-5H2,1H3	InChI=1S/C8H14/c1-6-4-7-2-3-8(7)5-6/h6-8H,2-5H2,1H3/t6-,7+,8-
