16
gdb 65362	4.22226	1.0316	0.93713	3.8334	70.71	-0.2906	-0.0007	0.29	1236.3065	0.122262	-437.850048	-437.841362	-437.840418	-437.88367	31.215	
C	 0.3530985746	 1.4179272179	-0.1334144944	-0.483619
C	 0.0457056455	-0.0347934133	 0.1530360764	 0.223557
O	 1.1475776131	-0.9577296921	 0.1771872559	-0.258671
C	 0.442110374	-0.7533798624	 1.3930727405	-0.014761
C	 1.1769110959	-0.1446149134	 2.5490143993	 0.035402
C	 2.6118695394	-0.4068731382	 2.7426886138	-0.170441
O	 2.1419403661	 0.8683568926	 2.3003585663	-0.221646
C	-1.1290675677	-0.5520237369	-0.5388825604	 0.256018
N	-2.0743820239	-0.9349175735	-1.0823687749	-0.32809
H	 1.2632224802	 1.711622461	 0.3859492098	 0.176446
H	 0.4817257446	 1.5620266148	-1.2099132353	 0.14568
H	-0.476905995	 2.0499680398	 0.1963976975	 0.140961
H	-0.1902076839	-1.5919275692	 1.6935409946	 0.118846
H	 0.5519056995	 0.0227357782	 3.4271321844	 0.112529
H	 3.0238436755	-0.4291126417	 3.7493176326	 0.127088
H	 3.1422408921	-0.9859450137	 1.9903970739	 0.1407
80.1225	120.7143	144.3236	185.7493	222.54	255.4276	308.3297	378.0603	435.9354	572.4277	593.8888	659.5923	692.9534	786.9158	857.0125	894.7445	912.2059	962.4536	987.1306	1084.9627	1089.7578	1118.6115	1132.5017	1165.8853	1168.655	1237.0197	1284.8695	1327.6775	1412.1805	1422.2533	1454.5723	1493.327	1496.3751	1520.1738	2357.323	3054.2799	3088.9747	3099.9336	3111.52	3118.2093	3179.9132	3197.4811
CC1(OC1C1CO1)C#N	C[C@]1(O[C@H]1[C@H]1CO1)C#N	
InChI=1S/C6H7NO2/c1-6(3-7)5(9-6)4-2-8-4/h4-5H,2H2,1H3	InChI=1S/C6H7NO2/c1-6(3-7)5(9-6)4-2-8-4/h4-5H,2H2,1H3/t4-,5+,6+/m1/s1
