18
gdb 43766	3.73735	1.11131	0.99482	4.1316	77.54	-0.2314	-0.0147	0.2168	1219.6998	0.147482	-401.903467	-401.895472	-401.894527	-401.936589	30.833	
O	 0.1385774837	 0.0065285699	-0.0623163294	-0.310709
C	 0.0779201948	 1.193605773	 0.0695686896	 0.464111
C	-1.1125402748	 2.189037712	 0.2122749527	-0.410034
C	-0.0887380711	 3.3108742603	-0.058816864	 0.361571
N	 0.8379020841	 3.2319745101	 1.0783114776	-0.36986
C	 1.0598159664	 2.322696095	-0.105876769	-0.251699
C	-0.2808181833	 4.5516262366	-0.8447193412	-0.117386
C	-1.3346879	 4.6605004719	-1.9213086902	-0.275877
C	-1.5032542564	 5.4176674643	-0.6309662546	-0.263984
H	-1.8361805614	 2.0179776224	-0.5890856252	 0.130818
H	-1.6169872323	 2.2312286579	 1.179438587	 0.130666
H	 1.5218904673	 3.9836547138	 0.9723851776	 0.233819
H	 1.9987773957	 2.3422586724	-0.6454631734	 0.110658
H	 0.6478507586	 5.0833367061	-1.0396857565	 0.082661
H	-1.0783205712	 5.2137022205	-2.8175710478	 0.120259
H	-1.980505268	 3.8081095573	-2.0981968309	 0.121271
H	-2.2515003008	 5.0608728314	 0.0683225718	 0.12437
H	-1.3735930012	 6.4939395651	-0.6363061341	 0.119345
56.4546	94.7629	174.6179	237.4423	361.0454	412.2131	456.3959	473.0128	557.0138	593.1985	665.7708	760.3116	781.2438	817.6156	844.2979	885.4898	917.0998	954.6484	962.5571	995.4263	1004.2848	1047.7163	1065.3798	1082.754	1092.1382	1126.1727	1129.4972	1144.0298	1194.2321	1199.4548	1223.7636	1259.6529	1325.4607	1362.8121	1434.8954	1464.3442	1469.5553	1507.3971	1893.6738	3071.3555	3127.9315	3133.6117	3137.9266	3143.5266	3197.1911	3217.437	3231.8971	3448.405
O=C1CC2(NC12)C1CC1	O=C1C[C@]2(N[C@@H]12)C1CC1	
InChI=1S/C7H9NO/c9-5-3-7(4-1-2-4)6(5)8-7/h4,6,8H,1-3H2	InChI=1S/C7H9NO/c9-5-3-7(4-1-2-4)6(5)8-7/h4,6,8H,1-3H2/t6-,7-/m0/s1
