17
gdb 12497	3.55788	1.88743	1.33068	4.6402	64.81	-0.2472	0.0393	0.2865	915.0914	0.145234	-401.048429	-401.041263	-401.040319	-401.080016	27.14	
O	 0.0623278393	 0.030670991	-0.5728371305	-0.368935
C	 0.0534778535	 1.1484532963	-0.1227672371	 0.411685
N	-1.1015445418	 1.8268959901	 0.20769905	-0.341828
C	-1.2770747052	 3.276110148	 0.0692932753	-0.160631
C	-0.6543434856	 4.0819404793	 1.2107367877	-0.181227
C	 0.8732878733	 4.0016288105	 1.2314755476	-0.19788
C	 1.4005948241	 2.5729013712	 1.3018534458	-0.068828
O	 1.2151642783	 1.8287411396	 0.0861373979	-0.235674
H	-1.9088517472	 1.2720723031	-0.0352002304	 0.253561
H	-0.8765546738	 3.6258651009	-0.8928559156	 0.117046
H	-2.3557916976	 3.4530423464	 0.0492832028	 0.112987
H	-0.9671699818	 5.1273775532	 1.1082125826	 0.10108
H	-1.0609809109	 3.7154313194	 2.1612867684	 0.105847
H	 1.2904020914	 4.479614661	 0.336366935	 0.112035
H	 1.263548228	 4.5515419027	 2.0963605445	 0.103051
H	 2.4833419176	 2.5770822273	 1.4517176131	 0.122164
H	 0.9436859784	 2.02757429	 2.1365664927	 0.115546
75.8064	174.5559	244.3592	301.1825	335.1007	396.2996	480.4619	555.6927	591.6703	699.4163	758.8907	805.1961	862.5309	869.8538	895.1316	935.4899	1014.2048	1066.0599	1086.0887	1137.9955	1147.1775	1222.4196	1247.0009	1282.557	1311.0473	1332.7771	1386.9062	1396.1085	1409.1187	1427.2545	1461.433	1472.0099	1479.9435	1495.878	1502.5852	1837.8364	3005.3782	3027.5881	3031.1721	3034.1892	3068.1787	3079.6317	3090.3087	3099.6605	3616.2874
O=C1NCCCCO1	O=C1NCCCCO1	
InChI=1S/C5H9NO2/c7-5-6-3-1-2-4-8-5/h1-4H2,(H,6,7)	InChI=1S/C5H9NO2/c7-5-6-3-1-2-4-8-5/h1-4H2,(H,6,7)
