19
gdb 95135	2.15496	1.87824	1.45138	2.2579	73.82	-0.2465	-0.0207	0.2258	1001.3734	0.160237	-423.033308	-423.025374	-423.02443	-423.065674	30.825	
C	-0.2682208842	 1.5420740525	 0.0993792661	-0.403852
C	 0.0195918128	 0.038040519	 0.0012823648	-0.005629
C	 0.851672549	-0.3679389223	-1.2490152804	-0.202962
C	 2.3813041258	-0.4073082742	-1.0001607433	-0.244169
C	 2.6348103659	-0.8667135779	 0.4500737734	-0.030733
O	 1.5159521723	-1.6873180001	 0.9062180024	-0.299317
C	 0.7644972804	-0.4836173142	 1.2525280452	-0.044925
C	 2.1193777721	 0.2246530501	 1.3937159524	 0.432118
O	 2.5754058046	 1.1386853425	 2.0103611915	-0.311743
H	 0.6528878589	 2.1336703475	 0.1024118555	 0.132222
H	-0.878077265	 1.8707134388	-0.7474442313	 0.118197
H	-0.8138558715	 1.7845343723	 1.0177606022	 0.122194
H	-0.9406102402	-0.4884822894	-0.0516312722	 0.085417
H	 0.5413321319	-1.3721059985	-1.5447285353	 0.119168
H	 0.6196932696	 0.295124002	-2.0880311182	 0.098933
H	 2.8550725271	-1.0924874981	-1.709729612	 0.112501
H	 2.8476374018	 0.5739883133	-1.1475672822	 0.119135
H	 3.606488885	-1.33293402	 0.6259720435	 0.102532
H	 0.1289763535	-0.6134896832	 2.132083218	 0.100914
100.4687	132.0321	204.6455	219.0333	325.0859	359.0727	437.1765	472.1539	516.6992	538.4939	702.2376	739.091	768.7223	835.4153	866.4447	899.0162	930.3995	951.6449	966.3475	1005.1345	1015.5352	1074.7998	1092.4718	1106.2021	1120.7401	1158.8968	1199.9905	1234.3559	1273.3068	1293.631	1302.4552	1336.2567	1354.1042	1364.7602	1377.4175	1419.993	1481.292	1494.7267	1500.3144	1500.6808	1914.9182	3028.2137	3034.4533	3039.5904	3061.4413	3078.2655	3088.8854	3099.8661	3100.4313	3108.7365	3109.6545
CC1CCC2OC1C2=O	C[C@H]1CC[C@@H]2O[C@H]1C2=O	
InChI=1S/C7H10O2/c1-4-2-3-5-6(8)7(4)9-5/h4-5,7H,2-3H2,1H3	InChI=1S/C7H10O2/c1-4-2-3-5-6(8)7(4)9-5/h4-5,7H,2-3H2,1H3/t4-,5-,7+/m0/s1
