16
gdb 78907	2.96516	2.14567	1.72341	1.4005	64.84	-0.2479	0.0405	0.2884	813.183	0.127367	-437.816665	-437.810783	-437.809839	-437.846664	25.091	
O	 0.065825943	 1.4063517902	 0.0216536359	-0.437621
C	 0.0218232092	 0.001090323	-0.003666844	 0.144046
C	-1.3740224516	-0.598555169	-0.1363102262	-0.092928
C	-1.9403952888	-0.788609373	-1.5006565677	-0.066834
C	-0.8206060832	-0.8338916608	-2.5557805765	 0.095889
O	 0.2116509614	 0.1675028295	-2.3929040827	-0.323853
C	 0.715024567	-0.5854722383	-1.241636284	 0.034059
C	-0.1255662971	-1.8311772652	-1.628491837	-0.058398
N	-1.3441569182	-1.9546525876	-0.7158267498	-0.167175
H	-0.0921864471	 1.6786770582	-0.8944322336	 0.28702
H	 0.4877386397	-0.3551808983	 0.9218570124	 0.096821
H	-2.078434851	-0.4686813952	 0.6789842774	 0.103533
H	-3.0050758469	-0.7299130601	-1.7003645304	 0.101024
H	-1.1064165543	-1.0004078952	-3.5938165946	 0.097283
H	 1.8049060456	-0.6104249694	-1.2168691672	 0.091715
H	 0.3378299423	-2.7688176888	-1.9206224718	 0.095421
183.0401	288.5628	450.3863	519.432	529.4243	548.5937	653.5108	707.9393	730.8793	778.3003	787.1925	849.8171	874.3491	897.5738	922.7412	943.7266	969.2896	983.7221	1008.9437	1038.909	1075.9266	1081.1021	1113.8991	1171.9119	1178.0745	1203.9228	1246.3743	1257.4482	1273.894	1284.2838	1310.375	1333.5827	1348.8844	1395.4131	1444.7643	3055.8538	3111.0415	3122.631	3162.4329	3164.1361	3175.4656	3729.9758
OC1C2C3C4OC1C4N23	O[C@H]1[C@H]2[C@H]3[C@H]4O[C@@H]1[C@H]4N23	
InChI=1S/C6H7NO2/c8-4-1-2-5-3(7(1)2)6(4)9-5/h1-6,8H	InChI=1S/C6H7NO2/c8-4-1-2-5-3(7(1)2)6(4)9-5/h1-6,8H/t1-,2+,3+,4+,5-,6-,7?/m1/s1
