25
gdb 86178	2.22065	1.37671	1.14665	1.3917	88.33	-0.237	0.076	0.313	1273.4685	0.22767	-389.519202	-389.508941	-389.507997	-389.553748	39.877	
C	-0.2008580702	 1.2733608579	 0.387651392	-0.399461
C	 0.0038880392	-0.155026316	-0.098596802	 0.151331
C	 1.1952710902	-0.362774907	-1.0414216885	-0.26736
C	 1.6455812868	-1.8073304955	-0.736466025	 0.276966
C	 0.730248592	-2.8195565517	-1.4520182744	-0.429044
C	 3.1012320764	-2.0713345923	-1.1354796846	-0.44775
C	 1.3725958275	-1.8704632734	 0.7949541694	 0.126078
C	 2.5218814594	-1.4451585432	 1.7092928425	-0.408804
O	 0.2470386365	-1.013692367	 1.0229550069	-0.295289
H	 0.7042532993	 1.6491728747	 0.8754764055	 0.114007
H	-0.4461301339	 1.9343302179	-0.4507338011	 0.108862
H	-1.0215045216	 1.3176467135	 1.1093693776	 0.122917
H	-0.9216446595	-0.4905520071	-0.5926351218	 0.066486
H	 0.9296940973	-0.2144576731	-2.0921006218	 0.095587
H	 1.9964309243	 0.3457704447	-0.7991131466	 0.092153
H	 0.7872163257	-2.6997403115	-2.5395053332	 0.107216
H	 1.0291913062	-3.8462113575	-1.2142702619	 0.111098
H	-0.3152776529	-2.7028143309	-1.1524514346	 0.126094
H	 3.7883343642	-1.3514776045	-0.6827552045	 0.114135
H	 3.4201284509	-3.0766709959	-0.8375511782	 0.112227
H	 3.2163919623	-2.0020990756	-2.2226638955	 0.111516
H	 1.067200205	-2.8876498023	 1.0767626108	 0.068164
H	 2.9160960968	-0.4611193781	 1.4357450255	 0.111451
H	 2.1537686265	-1.3836200997	 2.7371416642	 0.122269
H	 3.3440207915	-2.1674291165	 1.6829754094	 0.109152
52.1521	127.9599	218.2288	234.4154	243.6552	256.9049	269.303	296.6045	319.485	328.5573	383.2271	428.2695	463.8106	488.3061	563.6699	651.5626	755.6437	822.7398	858.4181	901.2262	933.7824	943.0281	954.1219	972.028	1011.5567	1040.0003	1047.3633	1097.4953	1104.8448	1125.4439	1150.4569	1200.8222	1225.4205	1239.4083	1267.9241	1306.9813	1345.3682	1369.4488	1382.9054	1395.8783	1401.2769	1405.1861	1409.5028	1423.0137	1479.9466	1484.5435	1485.7652	1490.4502	1492.5299	1498.0413	1502.5968	1507.4631	1511.5982	2966.1476	3001.963	3026.5723	3029.5603	3032.6062	3034.5636	3038.344	3087.6095	3089.3282	3094.6444	3105.7789	3107.4617	3109.1496	3110.3377	3114.8601	3116.3085
CC1CC(C)(C)C(C)O1	C[C@H]1CC(C)(C)[C@@H](C)O1	
InChI=1S/C8H16O/c1-6-5-8(3,4)7(2)9-6/h6-7H,5H2,1-4H3	InChI=1S/C8H16O/c1-6-5-8(3,4)7(2)9-6/h6-7H,5H2,1-4H3/t6-,7+/m0/s1
