18
gdb 89293	2.1849	1.73682	1.13716	4.8135	72.82	-0.225	0.0055	0.2305	1113.809	0.146367	-439.080611	-439.072092	-439.071147	-439.113627	31.853	
C	-0.0562849121	 1.5456874695	 0.10512662	-0.329506
N	 0.0940437381	 0.1082626139	 0.1574728127	-0.075361
C	-1.1170915197	-0.7182220422	 0.3721508022	-0.226141
C	-0.3851575665	-1.5156208128	 1.4729766327	 0.43292
C	-1.0835421819	-1.9874285886	 2.7156920119	-0.476492
O	 0.5011692365	-2.5481654398	 0.9112116316	-0.298349
C	 1.5892879531	-1.6966456259	 0.8815246666	 0.487991
O	 2.7021710618	-1.9570675878	 0.5621615801	-0.329028
C	 0.7653744686	-0.4859754578	 1.3406129887	-0.269737
H	 0.9291281361	 2.0173738623	 0.042949593	 0.134403
H	-0.6138117843	 1.8190706521	-0.796431404	 0.131505
H	-0.589615485	 1.9698151509	 0.9773370517	 0.091209
H	-1.960398003	-0.1469712116	 0.7884213482	 0.098506
H	-1.4540839083	-1.281067747	-0.5036438883	 0.121909
H	-1.7816265055	-2.7966389331	 2.4757815778	 0.141492
H	-0.3625535152	-2.3670100928	 3.445094658	 0.137298
H	-1.6502497527	-1.1716793292	 3.1733341094	 0.128207
H	 1.1420891301	 0.1855905099	 2.1135517976	 0.099173
100.1058	140.1956	193.007	218.2025	249.8997	305.3856	320.108	337.8916	413.476	488.8485	611.422	660.4873	702.7373	816.2387	839.7454	898.1214	928.4728	971.9611	974.1847	1007.1271	1057.4127	1091.8006	1135.9837	1162.684	1182.3436	1196.6162	1218.3531	1242.7001	1283.0258	1313.243	1362.7565	1418.0769	1454.7131	1482.1585	1484.9861	1489.6472	1499.9523	1502.0872	1942.4486	2923.5695	2992.428	3040.3371	3064.3441	3080.0194	3106.3885	3109.3385	3109.8183	3122.6996
CN1CC2(C)OC(=O)C12	CN1C[C@@]2(C)OC(=O)[C@@H]12	
InChI=1S/C6H9NO2/c1-6-3-7(2)4(6)5(8)9-6/h4H,3H2,1-2H3	InChI=1S/C6H9NO2/c1-6-3-7(2)4(6)5(8)9-6/h4H,3H2,1-2H3/t4-,6-/m1/s1
