16
gdb 11840	6.96725	1.12817	1.09723	1.6649	71.79	-0.2576	0.0472	0.3048	1083.5623	0.129113	-346.536344	-346.528804	-346.52786	-346.568255	28.717	
C	-0.6529495792	-0.9984687307	-0.761764265	-0.444972
C	-0.2783048012	 0.0576442914	-0.3250047373	 0.312849
C	 0.1862527738	 1.3164172484	 0.2164446421	-0.168574
C	 0.0742296125	 1.5466825446	 1.7657699357	-0.320243
C	 1.4735835645	 2.1593742303	 1.7071469186	 0.459146
C	 1.9367614	 3.438501564	 2.2470746421	-0.267958
O	 2.3962143704	 2.1825295305	 2.7734031281	-0.269934
C	 1.7347625015	 1.5519492062	 0.3288000537	-0.320242
H	-0.9865459722	-1.9283383778	-1.1507224063	 0.195614
H	-0.2793095821	 2.149791467	-0.3184922864	 0.106866
H	-0.7511450772	 2.1670447786	 2.1203648073	 0.113246
H	 0.0767574488	 0.5980310781	 2.3083660994	 0.128411
H	 2.6847414095	 4.0177644633	 1.7067863137	 0.117067
H	 1.2925691491	 4.013347233	 2.9115293428	 0.117067
H	 2.2748077871	 0.6050014239	 0.4062460803	 0.128411
H	 2.2019531645	 2.1764087792	-0.4351458387	 0.113246
63.3996	147.5242	217.6634	311.228	357.0202	370.4968	464.8202	526.1401	553.6696	625.3428	626.3486	701.1209	825.918	846.416	882.9947	885.2469	965.6175	968.2264	1037.3808	1058.0416	1107.1713	1126.1877	1160.2855	1193.7392	1201.9322	1219.9663	1248.7759	1251.1244	1351.514	1438.3002	1467.3281	1492.1877	1538.5992	2235.7771	3057.8578	3067.8091	3072.3012	3078.7521	3128.1395	3130.2313	3166.1311	3505.2368
C#CC1CC2(CO2)C1	C#C[C@H]1C[C@]2(CO2)C1	
InChI=1S/C7H8O/c1-2-6-3-7(4-6)5-8-7/h1,6H,3-5H2	InChI=1S/C7H8O/c1-2-6-3-7(4-6)5-8-7/h1,6H,3-5H2/t6-,7+
