12
gdb 50808	4.6611	0.90886	0.76056	3.1777	66.68	-0.2789	-0.1114	0.1675	1371.9058	0.074028	-472.609845	-472.600883	-472.599939	-472.645103	29.896	
N	-0.223183245	 1.30442428	 0.010916187	-0.404269
C	-0.0349726249	 0.0642400323	 0.0028378488	 0.121547
O	-1.1523216517	-0.7486033592	 0.0090842008	-0.18738
C	-0.9596895885	-2.0857571042	 0.0004075331	 0.405559
O	 0.0977684681	-2.652483787	-0.0122452535	-0.328859
C	-2.3174717304	-2.8214659973	 0.0092575796	 0.094134
O	-3.3666047433	-2.2282496956	 0.0219507626	-0.239248
C	-2.2025126955	-4.2598042094	 0.0009570562	 0.311084
C	-2.1563833042	-5.4621498118	-0.0055623134	-0.398314
H	 0.6714431299	 1.7925772474	 0.0047276438	 0.247374
H	 0.8985657337	-0.4979964277	-0.0091272346	 0.150871
H	-2.1084020583	-6.5245634674	-0.0116338904	 0.227499
30.0367	95.7132	113.5996	117.581	191.9843	239.4241	312.8062	409.6572	464.8381	503.6474	569.6959	667.6675	688.3139	730.3777	834.7654	853.7761	877.4077	973.7686	1068.3382	1099.5682	1248.8344	1286.2212	1390.4948	1749.0186	1783.4798	1829.1528	2219.0512	3142.7799	3492.2935	3510.4095
N=COC(=O)C(=O)C#C	[NH][CH]OC(=O)C(=O)C#C	
InChI=1S/C5H3NO3/c1-2-4(7)5(8)9-3-6/h1,3,6H	InChI=1S/C5H3NO3/c1-2-4(7)5(8)9-3-6/h1,3,6H
