20
gdb 107705	3.26897	1.29728	1.10292	1.4174	79.26	-0.2312	0.062	0.2932	1189.058	0.169461	-403.04849	-403.039823	-403.038879	-403.081631	33.395	
C	-0.0051893994	 1.5535164763	 0.0089059927	-0.387073
C	-0.0320547603	 0.0248663796	 0.1321371249	-0.329341
C	 0.7368734097	-0.4895420178	 1.3121513784	 0.3263
N	 0.3909627825	-0.2079297889	 2.7507758003	-0.414357
C	 1.6116782854	-1.0784475373	 2.8678951447	 0.305203
C	 2.2347706762	-1.4974898458	 4.1622369219	-0.533613
C	 1.1617299181	-1.9503748146	 1.6544563787	 0.007078
O	 2.4430510156	-1.8745601641	 0.9632090664	-0.335496
C	 2.2881115995	-0.5509036122	 1.5538358021	-0.011272
H	 1.0203152084	 1.925335763	-0.0887645372	 0.117531
H	-0.5651756674	 1.8843082922	-0.870447991	 0.119125
H	-0.4548319997	 2.0297360868	 0.8863656295	 0.123013
H	-1.0686836666	-0.3247599826	 0.2107063951	 0.112617
H	 0.3936002702	-0.4358312958	-0.7677689904	 0.117638
H	 0.6285632466	 0.7592288619	 2.9889730421	 0.203983
H	 1.5013356416	-2.0004329176	 4.7999635895	 0.134783
H	 3.0624648689	-2.1866428766	 3.9671740135	 0.138852
H	 2.6289719933	-0.6355596647	 4.7115805927	 0.121744
H	 0.5928176209	-2.879188078	 1.6205481751	 0.09633
H	 3.0748584566	 0.1907601561	 1.399010921	 0.086956
82.4921	137.6196	185.933	224.4264	242.7074	268.2044	291.5761	403.3437	489.9216	565.9398	596.118	705.9404	733.1363	765.5749	789.1187	838.0468	842.7242	883.2576	913.8399	950.1085	968.9904	1024.8277	1074.4043	1086.3862	1095.1718	1108.134	1125.1892	1160.2723	1180.3252	1235.414	1244.8243	1275.2624	1306.6966	1310.4917	1361.3986	1399.8896	1409.5619	1442.1501	1471.8422	1483.0861	1490.8822	1501.7311	1507.2708	3028.5657	3033.5961	3035.7873	3065.2217	3095.4511	3100.4374	3105.1311	3110.2866	3114.0142	3127.4417	3394.4797
CCC12NC3(C)C1OC23	CC[C@@]12N[C@@]3(C)[C@@H]1O[C@@H]23	
InChI=1S/C7H11NO/c1-3-7-4-6(2,8-7)5(7)9-4/h4-5,8H,3H2,1-2H3	InChI=1S/C7H11NO/c1-3-7-4-6(2,8-7)5(7)9-4/h4-5,8H,3H2,1-2H3/t4-,5+,6-,7+
