13
gdb 8748	4.1953	1.28899	1.20907	4.9324	60.31	-0.2904	0.0016	0.292	989.782	0.092774	-398.558204	-398.549603	-398.548658	-398.591345	30.278	
O	 0.5083143008	 1.571675944	 0.0535148055	-0.429536
C	 0.1840306567	 0.1836959593	 0.0567576496	-0.077414
C	 0.677480965	-0.5002647251	-1.135949193	 0.296562
C	 1.0611046048	-1.0339583436	-2.1415176407	-0.426704
C	 0.8504076241	-0.3695346982	 1.3458044968	-0.01316
O	 2.2143957697	-0.0533416459	 1.3835579547	-0.404779
C	 0.1315959504	 0.1466630572	 2.5353530096	 0.271841
N	-0.4263283216	 0.5381361361	 3.4678346298	-0.316407
H	 0.4198685873	 1.9038068683	-0.8454702619	 0.3053
H	-0.903589626	 0.0417222273	 0.1370807863	 0.127524
H	 1.4058310564	-1.5155194078	-3.0239068484	 0.213778
H	 0.7650629689	-1.4602252508	 1.3459315184	 0.149883
H	 2.2773415334	 0.8792817593	 1.1323582031	 0.303112
70.3994	120.683	166.8755	214.2173	242.8298	257.1216	309.4666	395.0211	470.2435	488.0658	569.577	584.0353	647.1526	692.0747	754.6414	873.869	920.9908	1010.7531	1064.6618	1103.195	1207.4365	1289.6451	1321.8887	1346.6006	1394.7103	1436.752	2239.58	2359.1429	3003.2052	3082.8503	3499.3239	3752.8015	3833.2122
OC(C#C)C(O)C#N	O[C@@H](C#C)[C@@H](O)C#N	
InChI=1S/C5H5NO2/c1-2-4(7)5(8)3-6/h1,4-5,7-8H	InChI=1S/C5H5NO2/c1-2-4(7)5(8)3-6/h1,4-5,7-8H/t4-,5-/m0/s1
