19
gdb 80721	3.07802	1.08587	0.99762	1.3797	80.64	-0.2388	0.049	0.2879	1272.6189	0.157673	-385.811285	-385.802449	-385.801504	-385.845044	33.642	
C	-0.0284278773	 1.5472288884	-0.2479608142	-0.426923
C	 0.2586565799	 0.1108544735	 0.1360850317	-0.014161
C	 1.372871398	-0.7001509942	-0.4385452412	 0.069608
O	 2.5457468126	 0.1013744465	-0.6458384319	-0.305603
C	 2.7114958518	 0.2405945869	 0.7926726295	 0.14087
C	 3.0427523887	 1.6662716892	 1.2458270047	-0.381848
C	 3.2513090778	 1.7250409875	 2.6868872047	 0.298817
C	 3.4126422522	 1.7358640488	 3.8779118768	-0.451035
C	 1.3591938497	-0.4155200286	 1.0523661309	-0.168709
H	 0.8486847102	 2.0121110106	-0.7025661976	 0.138997
H	-0.8372700413	 1.5815983305	-0.9856219936	 0.115434
H	-0.339607845	 2.1475767443	 0.6133367628	 0.11977
H	-0.6350461035	-0.4957166436	 0.2791073545	 0.091973
H	 1.28684019	-1.6140321043	-1.0153525654	 0.102477
H	 3.5189920441	-0.4269159855	 1.1204442333	 0.096431
H	 3.9510922264	 1.9881620621	 0.7198501313	 0.13911
H	 2.2471455368	 2.3560268787	 0.9528447523	 0.137169
H	 3.5589132797	 1.7633004658	 4.9291239215	 0.196791
H	 1.1474903591	-1.0719474667	 1.88518367	 0.100834
54.2621	113.1958	170.24	225.6119	244.6369	292.5738	349.0318	364.8245	453.6921	549.1324	622.6612	631.6562	648.2186	706.4965	742.2205	804.813	868.8236	895.2175	959.3095	985.7836	994.9774	1011.6363	1021.6686	1058.3733	1065.2396	1085.2089	1121.3826	1145.6763	1204.8927	1210.0781	1260.218	1288.7008	1328.1372	1342.2825	1401.6224	1409.1547	1442.9177	1472.0967	1499.6372	1506.9089	2239.3231	3018.966	3031.8906	3035.8645	3092.3635	3100.3195	3115.5647	3132.2143	3176.0798	3207.0774	3507.4572
CC1C2OC(CC#C)C12	C[C@H]1[C@H]2O[C@@H](CC#C)[C@@H]12	
InChI=1S/C8H10O/c1-3-4-6-7-5(2)8(7)9-6/h1,5-8H,4H2,2H3	InChI=1S/C8H10O/c1-3-4-6-7-5(2)8(7)9-6/h1,5-8H,4H2,2H3/t5-,6+,7-,8-/m1/s1
