14
gdb 20740	3.33452	2.42104	1.41472	3.8884	68.52	-0.2267	-0.0367	0.19	828.4181	0.109655	-374.920248	-374.913384	-374.912439	-374.951329	25.631	
C	-0.0334860831	 1.4634866849	-0.0093681132	-0.454503
C	-0.0082940948	-0.0307167337	-0.0004375047	 0.338331
N	-0.038135983	-0.6490613204	-1.1364095647	-0.254181
N	-0.0131490781	-2.0112323171	-1.0708251692	-0.231718
C	 0.0394441731	-2.6951038012	 0.0960859249	 0.113451
N	 0.0714600026	-2.1468298682	 1.2602783945	-0.3274
C	 0.0494973794	-0.7423835823	 1.2992554304	 0.274519
N	 0.0762881198	-0.0583693838	 2.3811635582	-0.523574
H	 0.8523211557	 1.8546191699	 0.5006621275	 0.151542
H	-0.076123348	 1.8374752572	-1.0333147141	 0.127559
H	-0.8933106849	 1.8255644752	 0.5627854826	 0.151554
H	-0.0369346176	-2.4763118842	-1.9632141743	 0.279867
H	 0.0539581826	-3.7799604488	-0.0042333572	 0.136792
H	 0.1150315362	-0.7016512673	 3.1753810492	 0.217759
88.0351	178.7374	289.1972	308.0876	409.6976	468.657	487.9571	526.572	582.9399	603.5106	735.9519	792.8523	911.2261	930.3415	970.9938	981.5174	1045.1178	1057.7737	1083.0123	1226.8625	1259.753	1373.3174	1406.7514	1424.7398	1462.8637	1463.3401	1508.2184	1651.7838	1661.8092	1690.1694	3049.0307	3106.5566	3139.9865	3149.9262	3452.7913	3652.7334
CC1=NNC=NC1=N	CC1=NNCN=C1[NH]	
InChI=1S/C4H6N4/c1-3-4(5)6-2-7-8-3/h2H,1H3,(H2,5,6,7)	InChI=1S/C4H7N4/c1-3-4(5)6-2-7-8-3/h5,7H,2H2,1H3
