17
gdb 46888	3.54707	1.40454	1.07997	5.0379	77.67	-0.2238	-0.019	0.2048	1085.4085	0.139027	-418.019284	-418.011958	-418.011014	-418.050981	28.891	
O	 0.0455122896	-0.1673281529	-0.3612997251	-0.382509
C	-0.0467244946	 1.0253486667	-0.1164296549	 0.362735
N	-1.2495368879	 1.6851215945	-0.2843263545	-0.319551
C	-1.5688580334	 2.9853033357	 0.2752195262	-0.214325
C	-0.8213662039	 4.0878612978	-0.4465972784	 0.012395
C	-0.1205416011	 5.1652344507	 0.3259891015	-0.264401
N	 0.6207041429	 4.0984950135	-0.3357717523	-0.061849
C	 1.3440878474	 3.1253155163	 0.3371001348	-0.025707
C	 1.1069219428	 1.8014432618	 0.3927244601	-0.184793
H	-2.00614725	 1.0638427527	-0.5280124478	 0.245142
H	-2.6458671349	 3.1438257639	 0.1764068308	 0.121606
H	-1.3302165877	 3.0247754024	 1.3467171563	 0.117479
H	-1.1881979316	 4.3188929163	-1.4446411669	 0.108317
H	-0.0021965022	 6.1576051548	-0.0988397097	 0.130777
H	-0.1994989003	 5.1295281293	 1.4106574847	 0.126038
H	 2.263383259	 3.5146223614	 0.7694895447	 0.116159
H	 1.880199986	 1.168653535	 0.8124153204	 0.112485
95.5769	217.8491	249.1716	320.4449	362.3045	399.5123	427.3841	484.813	554.7833	643.164	728.7991	746.2058	758.95	829.3645	843.3885	883.4295	943.7939	978.581	1004.7324	1041.3274	1091.3749	1122.315	1131.5871	1145.141	1169.4439	1237.3925	1287.7823	1313.5031	1362.8343	1381.7949	1423.8841	1446.9461	1457.44	1486.6791	1508.6012	1665.1262	1760.1816	3013.2128	3095.6816	3104.0279	3131.2268	3153.2819	3196.8174	3204.6516	3621.3761
O=C1NCC2CN2C=C1	O=C1NC[C@H]2CN2C=C1	
InChI=1S/C6H8N2O/c9-6-1-2-8-4-5(8)3-7-6/h1-2,5H,3-4H2,(H,7,9)	InChI=1S/C6H8N2O/c9-6-1-2-8-4-5(8)3-7-6/h1-2,5H,3-4H2,(H,7,9)/t5-,8?/m0/s1
