14
gdb 27660	3.1778	1.23774	0.89509	3.0933	75.28	-0.1941	0.0152	0.2093	1216.3129	0.099496	-436.678416	-436.669772	-436.668828	-436.711468	32.177	
N	 0.0085230564	 1.3625227888	-0.0131845828	-0.601234
C	-0.0974333864	-0.0213195215	-0.0215546803	 0.305295
C	-1.1547326361	-0.8610780974	-0.0162410206	-0.314108
C	-0.6537507832	-2.220662754	-0.0303857064	 0.034152
C	-1.389782576	-3.4229480352	-0.0307290973	 0.223723
C	-2.040981171	-4.4366804004	-0.0306992996	-0.430601
C	 0.7087111708	-2.0796788966	-0.0436591391	 0.311945
O	 1.6719088999	-3.0065530527	-0.0599956461	-0.414159
O	 1.0851801924	-0.7912900765	-0.0389664898	-0.220645
H	 0.4697719652	 1.7325685047	-0.83807367	 0.246813
H	 0.4843860486	 1.721538415	 0.8082805728	 0.246826
H	-2.1910235215	-0.5650574298	-0.00361391	 0.121411
H	-2.6044658856	-5.3357245634	-0.0308322628	 0.180676
H	 2.5260528864	-2.5578959211	-0.065755968	 0.309904
114.7833	131.281	164.0032	227.9996	269.2337	305.3948	340.7322	419.0923	460.3676	516.7686	520.6327	598.5118	619.2083	657.6661	659.9466	708.5038	750.4045	810.3721	846.9244	929.2554	1112.6399	1172.7269	1179.2206	1211.8445	1242.6828	1337.6943	1445.0259	1648.0097	1681.026	1708.767	2232.4665	3274.2278	3495.3521	3506.9448	3561.122	3812.914
NC1=CC(C#C)=C(O)O1	Nc1cc(C#C)c(O)o1	
InChI=1S/C6H5NO2/c1-2-4-3-5(7)9-6(4)8/h1,3,8H,7H2	InChI=1S/C6H5NO2/c1-2-4-3-5(7)9-6(4)8/h1,3,8H,7H2
