21
gdb 39934	2.83205	1.56403	1.21094	0.2844	89.18	-0.2173	0.0305	0.2477	1105.2731	0.184978	-349.948031	-349.940388	-349.939443	-349.979884	31.695	
C	-0.2806047163	 1.4610165586	 0.0359538396	-0.307537
C	 1.1664700521	 1.069053569	-0.0559257652	-0.316946
C	 0.0951773113	-0.0110705687	 0.0155138991	 0.381699
C	-0.0123947573	-0.7692202505	 1.2838146746	-0.125638
C	-0.1096883456	-2.0971113519	 1.3590822729	-0.084311
C	-0.0910024925	-3.0153565547	 0.1668493578	-0.291494
C	-0.302781263	-2.304105459	-1.1592597673	-0.028377
C	-1.5440385117	-1.4767847233	-1.3846414881	-0.2981
C	-0.2015417422	-0.7967864948	-1.2324414342	-0.122076
H	-0.6431307522	 1.8807847754	 0.9687593728	 0.109527
H	-0.7607197176	 1.8627476137	-0.8500065835	 0.112593
H	 1.6776537951	 1.2035484482	-1.003682099	 0.112784
H	 1.7982711336	 1.2151983064	 0.81349966	 0.112401
H	-0.0006939042	-0.1785641518	 2.1977726667	 0.078469
H	-0.1777615417	-2.5706208998	 2.3352681039	 0.082507
H	 0.8760137293	-3.5400553015	 0.1437033905	 0.109393
H	-0.8434626548	-3.8068449103	 0.294288192	 0.103207
H	 0.0652920758	-2.8507714511	-2.0226096575	 0.078884
H	-2.0063655437	-1.4935526138	-2.3655822626	 0.103673
H	-2.242225574	-1.3843235166	-0.5588116032	 0.115583
H	 0.2293994295	-0.3810164237	-2.1389800594	 0.07376
83.622	212.7935	258.6956	295.6386	317.365	401.8802	441.6496	525.3147	556.112	665.2143	734.4478	751.3818	777.9821	824.1263	839.3207	878.7282	906.2408	922.563	930.4673	955.4655	985.8021	997.6657	1029.027	1043.5183	1053.4214	1065.8016	1073.5637	1078.7382	1128.4138	1134.1332	1191.8579	1203.1334	1222.4924	1239.6764	1263.9875	1330.6145	1366.0635	1388.9465	1419.3036	1439.3203	1467.0281	1478.899	1490.7219	1497.7896	1720.4871	2992.0658	3012.2063	3124.7095	3128.1463	3128.3523	3135.0989	3136.9812	3147.0004	3163.0902	3204.1645	3214.9426	3219.604
C1CC11C=CCC2CC12	C1CC21C=CC[C@H]1C[C@@H]21	
InChI=1S/C9H12/c1-2-7-6-8(7)9(3-1)4-5-9/h1,3,7-8H,2,4-6H2	InChI=1S/C9H12/c1-2-7-6-8(7)9(3-1)4-5-9/h1,3,7-8H,2,4-6H2/t7-,8+/m0/s1
