18
gdb 37837	3.09314	2.31334	1.72611	0.8731	82.29	-0.2035	-0.0395	0.1641	829.6713	0.15007	-364.656459	-364.650481	-364.649536	-364.68617	26.601	
C	-0.066833203	 1.553618344	-0.0426145698	-0.323487
C	 1.4499937997	 1.2165689612	-0.0059368151	-0.037946
C	 1.2329275063	 0.2839927549	 1.2267629364	-0.068237
C	 1.7153191992	-1.1491915326	 0.9545770157	 0.02347
C	 0.6515990009	-1.9986598943	 1.0450798634	-0.107057
C	-0.652261558	-1.2079886885	 0.8272867711	-0.374042
C	 0.0476826684	 0.0605638623	 0.2984156465	 0.351501
N	 1.2108562407	 0.003252755	-0.8666488689	-0.17005
C	 2.2851730128	-0.9992100981	-0.4352731066	-0.199849
H	-0.4466507424	 2.1892434293	 0.7599203482	 0.100921
H	-0.4687733452	 1.8269315016	-1.0202506083	 0.109852
H	 2.2798029774	 1.8923578177	-0.2232464755	 0.080189
H	 1.0882416233	 0.6399730172	 2.2481165149	 0.069845
H	 0.7093239269	-3.0230050986	 0.6894994124	 0.097086
H	-1.2840742053	-1.753686887	 0.118580923	 0.119954
H	-1.2795950234	-0.9476839834	 1.6913563256	 0.115901
H	 3.2664338956	-0.5240389118	-0.539859026	 0.102532
H	 2.2328255759	-1.8998450789	-1.0470289273	 0.109418
291.4303	367.5066	390.0717	433.9967	449.3669	537.6194	618.1735	688.4693	712.6279	751.3487	786.3139	824.7592	860.2032	883.9418	895.225	912.1361	944.9456	968.6743	982.7694	1025.8736	1040.5731	1057.6106	1075.2814	1110.5523	1128.6436	1162.0518	1171.4539	1177.3594	1203.549	1211.6717	1244.376	1264.5805	1284.5088	1290.4644	1310.7119	1468.4392	1492.9004	1506.2526	1532.1335	3007.011	3044.0689	3067.1025	3071.0587	3088.4383	3100.0998	3132.1692	3138.5146	3165.9513
C1C2C3C4=CCC13N2C4	C1[C@H]2[C@@H]3[C]4[CH]C[C@@]13N2C4	
InChI=1S/C8H9N/c1-2-8-3-6-7(8)5(1)4-9(6)8/h1,6-7H,2-4H2	InChI=1S/C8H9N/c1-2-8-3-6-7(8)5(1)4-9(6)8/h1,6-7H,2-4H2/t6-,7-,8+/m0/s1
