22
gdb 102293	1.7782	1.1312	0.83207	4.569	83.59	-0.2298	0.0338	0.2636	1515.8279	0.193428	-400.531314	-400.520325	-400.519381	-400.567899	39.464	
C	-0.0963977717	 1.5782846695	 0.9603441684	-0.387711
C	-0.14727239	 0.6154709641	-0.228452311	 0.062991
C	 1.0495197148	-0.351931281	-0.2092259325	-0.3915
N	-1.4597877611	-0.0429767333	-0.2289370288	-0.292681
C	-1.8104386281	-0.8223946601	-1.4037458657	-0.100007
C	-3.0894557689	-1.6384701321	-1.1073121191	-0.177351
N	-2.8297368785	-2.5496133956	 0.0079215047	-0.515399
C	-2.0441134677	 0.0594943519	-2.5608225428	 0.303762
N	-2.2272936456	 0.731346255	-3.4828893251	-0.334835
H	 0.8414129682	 2.1419202821	 0.9683213361	 0.112736
H	-0.9314321571	 2.2817295765	 0.9193644921	 0.126226
H	-0.1619372962	 1.0284939128	 1.9073750891	 0.108622
H	-0.0976918587	 1.2092986292	-1.1505152023	 0.100531
H	 1.0438524859	-0.9559128378	 0.7061137369	 0.110648
H	 1.0433699643	-1.0343753788	-1.0649525324	 0.112302
H	 1.9951155821	 0.1990946129	-0.2407079521	 0.117894
H	-1.555207474	-0.6663989881	 0.569357103	 0.229307
H	-1.0267420573	-1.5391138265	-1.7173733795	 0.095337
H	-3.8706779187	-0.9354113247	-0.8051035545	 0.134863
H	-3.4184415984	-2.1316984445	-2.0329245259	 0.107553
H	-3.7023034643	-2.8597756765	 0.4199814475	 0.241717
H	-2.3470172691	-3.3821764852	-0.315692986	 0.234993
42.0078	82.6152	117.3878	138.645	181.3524	214.0676	235.5975	243.1732	285.1385	307.9587	370.0996	419.2626	449.8773	488.8458	542.5796	611.097	763.3619	824.7995	850.8769	891.0492	925.6443	945.5999	954.9096	1001.6489	1005.1355	1085.1306	1136.8567	1148.4275	1171.5809	1195.7865	1220.4511	1313.504	1324.9408	1353.9951	1364.0121	1378.0261	1397.7621	1415.3904	1417.7334	1480.6338	1483.5694	1489.1368	1495.7781	1508.4843	1510.7206	1658.5998	2359.1517	2909.1604	3001.8486	3023.8039	3025.7446	3033.3194	3092.6025	3096.6825	3099.5824	3102.3706	3125.9327	3496.1401	3506.2792	3588.9929
CC(C)NC(CN)C#N	CC(C)N[C@@H](CN)C#N	
InChI=1S/C6H13N3/c1-5(2)9-6(3-7)4-8/h5-6,9H,3,7H2,1-2H3	InChI=1S/C6H13N3/c1-5(2)9-6(3-7)4-8/h5-6,9H,3,7H2,1-2H3/t6-/m0/s1
