18
gdb 68200	3.61359	1.20139	1.12018	2.9318	75.47	-0.2716	0.032	0.3036	1118.2078	0.149451	-401.956906	-401.949236	-401.948292	-401.98887	30.564	
O	-0.112131984	 1.4026013663	-0.014524137	-0.482453
C	-0.0203767068	 0.01659241	 0.0218020022	 0.427503
C	 0.3172693599	-0.7991196727	 1.3139242177	-0.298884
C	-0.4131822425	-1.923142782	 0.5318120831	-0.028261
C	-1.3292100573	-0.8073643864	-0.0449518057	-0.271039
C	 0.547669472	-2.1720490561	-0.6684096505	-0.144461
C	 0.85964319	-0.6781791908	-1.0425173197	-0.300105
C	 1.7272813215	-2.9568452509	-0.3204020636	 0.26929
N	 2.6622740081	-3.5745335009	-0.0351580789	-0.332583
H	 0.77751599	 1.7724570249	-0.0033987115	 0.283451
H	 1.3652162007	-0.9534880243	 1.5854722375	 0.109573
H	-0.257597216	-0.4492476819	 2.1728170623	 0.111739
H	-0.813335587	-2.8068762936	 1.0234013496	 0.088221
H	-2.0661895596	-0.4610734065	 0.6813357647	 0.114475
H	-1.7955260433	-0.9621956359	-1.02232924	 0.09623
H	 0.0288568535	-2.686174176	-1.4829523581	 0.12377
H	 0.5476597031	-0.4326615186	-2.0602363667	 0.117247
H	 1.9202748376	-0.4354550544	-0.9337822954	 0.116286
108.8317	152.9898	253.5136	300.2808	350.5692	382.8849	438.8465	466.4926	524.1113	568.4404	634.199	682.5306	814.8848	821.263	841.0494	904.7121	934.6979	956.1237	979.2638	1001.2847	1012.9993	1034.204	1090.496	1105.6275	1137.4188	1141.732	1202.4074	1214.4545	1238.0887	1243.2736	1258.0365	1295.1053	1327.8855	1347.4378	1388.9447	1484.4104	1495.6252	1528.4666	2353.4612	3057.8455	3061.8084	3064.5099	3068.0642	3115.8811	3130.6694	3135.7347	3145.9753	3803.7706
OC12CC(C1)C(C2)C#N	O[C@@]12C[C@@H](C1)[C@@H](C2)C#N	
InChI=1S/C7H9NO/c8-4-6-3-7(9)1-5(6)2-7/h5-6,9H,1-3H2	InChI=1S/C7H9NO/c8-4-6-3-7(9)1-5(6)2-7/h5-6,9H,1-3H2/t5-,6-,7-/m0/s1
