17
gdb 46260	3.00043	1.5496	1.2829	3.3808	72.6	-0.2345	-0.0337	0.2008	1018.1989	0.13499	-421.784407	-421.776811	-421.775867	-421.816695	29.374	
O	 0.0756797127	 0.0117643111	-0.1262877707	-0.299772
C	 0.0183767442	 1.2005385045	-0.0094976215	 0.348841
C	-1.1041686634	 2.2093906018	 0.3124195147	-0.346944
C	 0.0076203756	 3.2537080641	 0.6334468062	-0.32326
C	 1.0701976076	 2.3318205055	-0.0212342166	 0.359091
O	 2.3542485277	 2.1691069101	 0.5993759651	-0.322589
C	 3.0118670018	 2.5991471836	-0.6012592543	 0.095565
C	 2.7251717268	 1.6631800452	-1.7294163152	-0.302742
C	 1.7127307125	 2.7310846082	-1.3554382	-0.201543
H	-1.7085130491	 2.4507094942	-0.5672892404	 0.134507
H	-1.7729454247	 1.9192472108	 1.1254912283	 0.137227
H	-0.0998819046	 4.2465986659	 0.1941120507	 0.111521
H	 0.1924912831	 3.3498986345	 1.7054888615	 0.129089
H	 3.8775240641	 3.2421951683	-0.5000904236	 0.109463
H	 3.2638293681	 1.8596035496	-2.6515288567	 0.118398
H	 2.5180563414	 0.6187588738	-1.5178186675	 0.146275
H	 1.3486475562	 3.4929848088	-2.03101172	 0.106874
85.3967	126.2795	168.4787	270.7949	339.2202	447.9083	459.1742	520.2785	604.667	705.9475	745.9226	756.5991	803.942	855.4536	894.8381	925.8437	962.0252	969.8768	984.6656	1021.5381	1046.4811	1050.8334	1055.575	1082.0923	1090.0747	1142.9231	1157.9109	1201.3995	1219.6703	1225.0568	1272.6074	1288.3982	1346.5551	1441.9273	1471.1762	1480.9048	1888.4117	3065.5396	3078.9342	3120.2758	3124.6634	3138.6814	3188.4584	3206.4967	3219.7106
O=C1CCC11OC2CC12	O=C1CC[C@]21O[C@H]1C[C@@H]21	
InChI=1S/C7H8O2/c8-6-1-2-7(6)4-3-5(4)9-7/h4-5H,1-3H2	InChI=1S/C7H8O2/c8-6-1-2-7(6)4-3-5(4)9-7/h4-5H,1-3H2/t4-,5+,7+/m1/s1
