20
gdb 23402	2.66893	1.39254	1.35028	0.9484	81.36	-0.2408	0.02	0.2608	1084.1317	0.174091	-403.128701	-403.120968	-403.120023	-403.160812	31.024	
O	-0.1451418521	 1.3226503517	 0.0057190482	-0.399156
N	-0.0112235237	-0.0853769655	 0.0021707908	-0.297538
C	-1.1384518997	-0.6603722129	 0.0090272307	 0.4682
C	-2.5801355266	-0.1890817363	 0.0200138313	-0.104447
C	-3.113348815	-0.9318151198	-1.2330502809	-0.214285
C	-2.2992587889	-2.2738694744	-1.2421575883	-0.21504
C	-1.3902571238	-2.1523006178	 0.0080460812	-0.09006
C	-2.2816220563	-2.278497058	 1.2704305317	-0.21504
C	-3.0957498918	-0.9364546681	 1.2776776726	-0.214285
H	 0.7745529428	 1.6081360088	-0.0002086019	 0.303055
H	-2.7403472212	 0.8862982711	 0.0231224285	 0.088089
H	-4.1931739157	-1.09470077	-1.170031527	 0.097574
H	-2.9201637051	-0.3514095275	-2.1390898099	 0.106872
H	-2.9419256157	-3.1573724415	-1.188843356	 0.097178
H	-1.6965959325	-2.3583228551	-2.1503805695	 0.105584
H	-0.5076289773	-2.7899834137	 0.0006788879	 0.07609
H	-2.9249783605	-3.1618285555	 1.2229133382	 0.097179
H	-1.6662612971	-2.3662460325	 2.1697839129	 0.105584
H	-2.8899020334	-0.3593901389	 2.1830618372	 0.106872
H	-4.1763520764	-1.0991586643	 1.2291775522	 0.097574
108.2067	143.2585	204.9555	311.9874	318.8963	372.0806	409.4567	514.8181	564.0614	672.2456	715.1178	766.6283	796.8387	822.1656	859.4167	873.4097	890.6989	900.485	956.2926	958.8181	997.0001	1004.0536	1013.098	1088.4554	1120.8249	1142.9775	1182.5216	1204.1992	1205.1287	1237.7299	1272.0634	1276.3407	1287.1106	1305.1095	1331.8999	1339.5987	1342.8509	1409.4692	1481.2476	1495.4882	1497.3461	1516.0027	1795.1747	3049.3755	3049.6283	3058.9112	3060.9173	3086.4335	3088.3154	3105.8227	3109.7197	3130.963	3151.4285	3819.8766
ON=C1C2CCC1CC2	ON=C1[C@H]2CC[C@@H]1CC2	
InChI=1S/C7H11NO/c9-8-7-5-1-2-6(7)4-3-5/h5-6,9H,1-4H2	InChI=1S/C7H11NO/c9-8-7-5-1-2-6(7)4-3-5/h5-6,9H,1-4H2/t5-,6+
