20
gdb 96507	2.22524	1.59026	1.17503	2.8783	75.5	-0.2355	0.0269	0.2625	1122.7828	0.172882	-440.320922	-440.312219	-440.311275	-440.354238	32.965	
C	-0.1855826976	 1.50335557	 0.02988706	-0.402257
C	 0.0296791352	-0.0209451707	-0.0082733307	-0.087712
C	 0.6000572058	-0.4964189193	-1.3540758194	-0.104744
O	 1.7771240309	 0.166946726	-1.7786971579	-0.237252
C	 2.9531019103	-0.2415666467	-1.1159163841	-0.062688
C	 3.0552524999	 0.2587554505	 0.3243752079	-0.175135
N	 2.1552048431	-0.4037557737	 1.2572352171	-0.301069
C	 0.7870395355	-0.50221209	 1.2348740665	 0.361253
O	 0.1886946465	-0.9643067197	 2.1909677451	-0.374009
H	 0.7482602032	 2.050076802	-0.1197576565	 0.128817
H	-0.8717279544	 1.8050787548	-0.7680340029	 0.119539
H	-0.6201557889	 1.8053350367	 0.9863763253	 0.132321
H	-0.947243447	-0.5036970095	 0.0984222528	 0.107286
H	 0.7664023117	-1.5852776146	-1.3283029255	 0.097056
H	-0.142196426	-0.2908278291	-2.1327228983	 0.110433
H	 3.0453368666	-1.33987432	-1.1277579234	 0.095297
H	 3.7834753831	 0.1807986942	-1.6918127034	 0.11032
H	 4.0725236347	 0.0625621478	 0.6774680669	 0.115601
H	 2.919271387	 1.3492810015	 0.3301602411	 0.121697
H	 2.5387913105	-0.6891223802	 2.1464351594	 0.245245
75.811	136.8387	194.9867	211.08	232.7443	300.5814	358.1351	379.1396	412.6371	494.056	569.0479	593.4638	683.9645	718.2549	764.5549	843.0567	880.8513	940.8799	981.4228	990.5361	1026.1792	1096.7193	1115.3183	1131.9034	1146.9139	1170.0106	1267.5799	1303.9709	1315.6175	1329.2607	1349.6977	1365.398	1394.185	1398.9255	1417.2629	1427.5358	1469.8463	1479.4362	1488.6738	1493.0326	1501.0537	1506.9791	1774.199	2975.0412	2980.8681	3011.2205	3044.9911	3060.916	3070.7284	3074.8893	3082.8414	3112.4587	3131.5595	3609.3512
CC1COCCNC1=O	C[C@H]1COCCNC1=O	
InChI=1S/C6H11NO2/c1-5-4-9-3-2-7-6(5)8/h5H,2-4H2,1H3,(H,7,8)	InChI=1S/C6H11NO2/c1-5-4-9-3-2-7-6(5)8/h5H,2-4H2,1H3,(H,7,8)/t5-/m0/s1
