14
gdb 20806	3.34288	1.82303	1.26687	2.9056	60.84	-0.2385	-0.0368	0.2017	931.97	0.106397	-415.842913	-415.835311	-415.834367	-415.875509	26.974	
C	-0.2775775017	 1.6091786295	-0.0655165951	-0.376116
C	 0.0477646887	 0.1083224949	 0.0333394852	-0.301801
C	 0.8086997869	-0.4078584658	-1.1357288238	 0.329204
C	 2.0547544298	-0.9366507643	-1.2963147359	 0.234501
O	 3.0007399583	-1.1591578556	-0.3650181438	-0.427376
N	 2.2246866563	-1.2305374888	-2.6187288477	-0.20515
N	 1.1798430286	-0.9196439616	-3.2690739604	-0.019082
O	 0.248914388	-0.3896889447	-2.3604944163	-0.208836
H	 0.6375506494	 2.2054779145	-0.1226422757	 0.129873
H	-0.8757659576	 1.819739552	-0.955947399	 0.139753
H	-0.8436036776	 1.9327091941	 0.8122976454	 0.122823
H	 0.6441118241	-0.0947943378	 0.9280118267	 0.135067
H	-0.8832385095	-0.4626744529	 0.1359979739	 0.132821
H	 3.7614167861	-1.5514326333	-0.8103160435	 0.314319
43.4653	148.4677	191.8807	270.3151	284.1612	318.156	395.5371	485.2543	635.5996	687.2074	727.8393	740.3413	772.3687	809.2206	968.1461	1019.7587	1068.4132	1085.9826	1138.4799	1229.9592	1293.4895	1317.8261	1368.5153	1405.4306	1418.5612	1451.6085	1477.3396	1497.1431	1507.6279	1715.1962	3034.9865	3047.103	3088.4617	3121.2395	3127.7535	3810.1662
CCC1=C(O)N=NO1	CCc1c(O)nno1	
InChI=1S/C4H6N2O2/c1-2-3-4(7)5-6-8-3/h7H,2H2,1H3	InChI=1S/C4H6N2O2/c1-2-3-4(7)5-6-8-3/h7H,2H2,1H3
