18
gdb 24118	5.14083	0.95487	0.83377	3.4613	77.91	-0.2168	0.0305	0.2473	1351.8873	0.151165	-398.138367	-398.13057	-398.129626	-398.171432	29.345	
C	 0.0635778005	 1.3101319378	 0.6311867128	-0.354413
C	-0.0417255512	-0.0758080385	 0.0302680985	 0.025339
C	-1.3327459499	-0.6520599524	-0.4014823503	-0.253055
N	-0.344055674	-0.2176928954	-1.4135057339	-0.329829
C	 1.3814745624	 1.9588191636	 0.3279480794	 0.305909
C	 2.1536713978	 2.8720963005	 1.0007195274	-0.175729
N	 3.2872285375	 3.1873197453	 0.2861287716	-0.25649
C	 3.2109773463	 2.469938264	-0.8102781075	 0.010702
N	 2.0766308032	 1.7136241351	-0.842104566	-0.295733
H	-0.7718350231	 1.9189277109	 0.2516926852	 0.107291
H	-0.0644331967	 1.2632519826	 1.7186315501	 0.127885
H	 0.7301373253	-0.7680004022	 0.3611938122	 0.105413
H	-1.4940076539	-1.7245136094	-0.3493595514	 0.126757
H	-2.2303348845	-0.0523721966	-0.2748220826	 0.117737
H	-0.6447913401	 0.6853362188	-1.7776772357	 0.229923
H	 1.9526840978	 3.3213866185	 1.9621845781	 0.102822
H	 3.9380642411	 2.45010978	-1.6084624805	 0.127272
H	 1.8150802316	 1.0364945174	-1.5421449373	 0.2782
62.7158	105.5575	131.4733	269.7377	304.6289	354.6469	454.2491	589.8899	665.9367	692.2776	726.1504	786.3115	807.9416	832.8281	846.7016	928.7653	935.4946	943.8781	990.1446	1016.9317	1052.8422	1121.017	1128.2711	1143.3054	1149.7419	1183.9318	1253.796	1259.6765	1264.4741	1279.6305	1312.4903	1319.6473	1384.2	1428.7297	1437.4378	1475.6625	1504.3148	1512.2519	1610.7543	2983.7096	3061.4009	3113.1923	3129.9803	3199.7617	3240.719	3250.6693	3470.5204	3635.5722
C(C1CN1)C1=CN=CN1	C([C@H]1CN1)c1cnc[nH]1	
InChI=1S/C6H9N3/c1(6-3-8-6)5-2-7-4-9-5/h2,4,6,8H,1,3H2,(H,7,9)	InChI=1S/C6H9N3/c1(6-3-8-6)5-2-7-4-9-5/h2,4,6,8H,1,3H2,(H,7,9)/t6-/m0/s1
