16
gdb 88713	3.62661	0.97926	0.84205	3.7636	70.86	-0.2827	-0.0095	0.2732	1345.4258	0.122273	-437.848015	-437.839252	-437.838308	-437.882498	31.044	
C	-0.4066336288	 1.3641407905	 0.213195964	-0.42441
C	-0.0286177321	-0.0941174722	 0.197732184	 0.080328
O	 1.320136624	-0.4354542132	-0.1422971382	-0.252343
C	 0.8588070893	-0.7566350852	 1.1720184017	 0.007917
C	 1.5292809537	-0.017422299	 2.2825761527	 0.040256
O	 0.9877758184	-0.1988458737	 3.5914107023	-0.229442
C	 2.2970254059	-0.7119503404	 3.3432227591	-0.108071
C	 2.4397143544	-2.1521676575	 3.3531069017	 0.31806
N	 2.5738039386	-3.29996493	 3.366700876	-0.327952
H	 0.3538075766	 1.9842446232	 0.6917356372	 0.127511
H	-0.5394202846	 1.7253259044	-0.8115175675	 0.138127
H	-1.3544088646	 1.5023375032	 0.7436917373	 0.135449
H	-0.7661893645	-0.7455825225	-0.2749132993	 0.103738
H	 0.7078556907	-1.8191967864	 1.3630500826	 0.123581
H	 1.8443394676	 0.9988094879	 2.0526831629	 0.121359
H	 3.1066845057	-0.1789830593	 3.8381966436	 0.145895
38.1493	99.7806	144.8376	183.1479	218.609	255.631	336.8157	399.2825	438.2642	530.103	581.9233	627.1309	774.7728	803.4616	870.7295	877.1124	968.6831	978.5371	1001.1064	1059.6025	1091.7381	1132.8714	1137.5837	1168.4162	1195.4114	1268.1897	1298.4638	1325.4262	1393.774	1412.7707	1438.1162	1478.5382	1491.1479	1516.8083	2362.1604	3045.0609	3091.6143	3107.9461	3117.5661	3129.3857	3136.3131	3144.4724
CC1OC1C1OC1C#N	C[C@H]1O[C@H]1[C@H]1O[C@H]1C#N	
InChI=1S/C6H7NO2/c1-3-5(8-3)6-4(2-7)9-6/h3-6H,1H3	InChI=1S/C6H7NO2/c1-3-5(8-3)6-4(2-7)9-6/h3-6H,1H3/t3-,4+,5-,6+/m1/s1
