17
gdb 11596	4.81268	1.23324	1.11298	2.3294	65.2	-0.2433	0.0085	0.2519	1103.0131	0.141642	-401.008533	-401.000016	-400.999071	-401.042623	29.636	
C	-0.1354287128	 1.2124901457	 0.2563645712	-0.474568
C	-0.2419479138	-0.2913422878	 0.2064551007	 0.443904
O	 0.341601554	-1.0548674813	 0.9381619181	-0.359883
O	-1.0807942199	-0.6759443445	-0.7773421861	-0.240879
C	-1.260348954	-2.1003129446	-0.958194939	-0.107745
C	-2.3603725149	-2.6456868105	-0.0890197616	 0.00908
C	-2.2511733555	-4.0416906239	 0.4109585936	-0.241972
N	-2.1204279817	-2.9111545731	 1.3361805162	-0.30969
H	 0.5770352301	 1.5011914452	 1.0278390725	 0.149865
H	 0.1805632755	 1.6012324782	-0.7153905109	 0.15051
H	-1.1164111483	 1.6437360444	 0.4760519504	 0.155748
H	-1.5094243096	-2.209910727	-2.0171488842	 0.118984
H	-0.3133936228	-2.6056414189	-0.7507461599	 0.124142
H	-3.3484132217	-2.2421780018	-0.3019088344	 0.097041
H	-3.1480973527	-4.6420524204	 0.5337354624	 0.120219
H	-1.362330701	-4.6093208523	 0.1443871702	 0.112996
H	-1.1408851408	-2.7313919174	 1.5466756607	 0.25225
50.8855	84.7276	105.9685	113.2401	253.3833	291.4903	366.8538	408.1099	523.174	612.259	658.4394	800.3285	836.5558	859.2671	931.7257	955.9392	989.6001	1027.6303	1051.2355	1065.5928	1074.7337	1130.8135	1156.5812	1234.7875	1257.8049	1267.3469	1303.9999	1335.5515	1382.6763	1397.7509	1440.5687	1468.5867	1475.5805	1478.6194	1515.2174	1808.8174	3058.7588	3061.1046	3104.1681	3112.8723	3124.1867	3132.9975	3171.5096	3189.0384	3503.3794
CC(=O)OCC1CN1	CC(=O)OC[C@H]1CN1	
InChI=1S/C5H9NO2/c1-4(7)8-3-5-2-6-5/h5-6H,2-3H2,1H3	InChI=1S/C5H9NO2/c1-4(7)8-3-5-2-6-5/h5-6H,2-3H2,1H3/t5-/m1/s1
