15
gdb 34821	5.21073	1.09903	1.01514	0.6628	72.83	-0.2572	0.0335	0.2906	1147.4921	0.110287	-420.480058	-420.472515	-420.47157	-420.511993	29.231	
C	-0.108762211	-1.1905422637	-0.1265741433	-0.420393
C	-0.0406200514	 0.0063067898	-0.0418214646	 0.32553
C	 0.0050528086	 1.4488186473	 0.0252918946	-0.234776
C	 0.1418914927	 2.1257888297	 1.4320597612	-0.051334
O	 1.5380092286	 1.644900559	 1.5067067123	-0.303371
C	 1.4048777878	 2.1467272711	 0.1223602142	-0.051333
C	 0.6962809527	 3.3719141027	 0.7226109114	 0.506283
O	 0.0323593719	 4.4286087277	 0.0992632855	-0.28141
C	 1.0581326661	 4.7227102713	 1.0931514203	-0.29889
H	-0.1590914255	-2.2492310525	-0.191897966	 0.194708
H	-0.707019772	 1.9278820536	-0.6537229303	 0.123286
H	-0.4891352142	 2.0131067429	 2.3117554703	 0.11423
H	 2.2626884882	 2.0587292961	-0.5418488517	 0.11423
H	 0.6856443471	 5.1537970595	 2.0199376209	 0.131619
H	 1.9637284205	 5.1749877656	 0.6945827552	 0.131619
113.7857	133.8795	210.7319	281.27	357.1165	397.7282	465.8308	513.1522	601.192	633.841	639.2353	720.3048	769.5131	790.2975	849.3027	871.2705	894.5876	928.1893	1006.8037	1075.2063	1090.0217	1100.2765	1112.5445	1131.4701	1136.7408	1160.1571	1168.5357	1198.8437	1255.8607	1369.1472	1471.3695	1569.7915	2241.1297	3070.0043	3098.5883	3142.7788	3146.9083	3188.2988	3504.4889
C#CC1C2OC1C21OC1	C#C[C@H]1[C@H]2O[C@@H]1[C@]12OC1	
InChI=1S/C7H6O2/c1-2-4-5-7(3-8-7)6(4)9-5/h1,4-6H,3H2	InChI=1S/C7H6O2/c1-2-4-5-7(3-8-7)6(4)9-5/h1,4-6H,3H2/t4-,5+,6-,7-
