15
gdb 27014	2.8435	1.35939	0.92502	3.4957	82.59	-0.1927	-0.0148	0.1779	1203.072	0.111496	-416.811915	-416.803257	-416.802313	-416.845038	32.13	
C	 0.1235532634	 1.5305972951	 0.054920361	-0.513852
C	 0.0154083371	 0.0498797086	 0.0294772491	 0.205387
C	-1.0748237465	-0.7473121723	-0.0444437675	 0.115507
O	-0.6649499401	-2.0883264388	-0.0377498268	-0.252846
C	 0.7075605188	-2.1187385337	 0.0419411958	 0.446192
N	 1.4661334921	-3.1310065752	 0.0730725095	-0.612206
N	 1.1106682535	-0.795475676	 0.0821319067	-0.369059
C	-2.4394439487	-0.4495941235	-0.1201866662	 0.268851
C	-3.6160968009	-0.1936151555	-0.1856154206	-0.436673
H	 0.7125914571	 1.902205018	-0.7918607437	 0.143861
H	-0.8724960346	 1.9733056431	 0.002444046	 0.159711
H	 0.6094522625	 1.8793445039	 0.9738191639	 0.143862
H	 0.9247933501	-3.9901016979	 0.030587512	 0.228422
H	 2.0781014401	-0.531972202	 0.1421270425	 0.276543
H	-4.6521828738	 0.0310040162	-0.2436318418	 0.196299
120.5089	135.0305	157.5698	175.2548	274.397	278.2736	374.5961	421.0182	467.9725	499.476	552.9974	589.8533	645.3274	662.9145	705.6739	717.0668	753.0116	808.778	963.5387	1001.9317	1051.31	1064.7328	1094.8641	1257.0573	1282.109	1336.7146	1416.6592	1451.1232	1477.9429	1493.0056	1702.9174	1794.0144	2221.9567	3028.4245	3078.1647	3140.9417	3502.7753	3544.8926	3696.1069
CC1=C(OC(=N)N1)C#C	CC1=C(O[C@@H]([NH])N1)C#C	
InChI=1S/C6H6N2O/c1-3-5-4(2)8-6(7)9-5/h1H,2H3,(H2,7,8)	InChI=1S/C6H7N2O/c1-3-5-4(2)8-6(7)9-5/h1,6-8H,2H3/t6-/m0/s1
