18
gdb 12861	2.86779	2.29814	1.7895	1.2235	66.5	-0.2476	0.0677	0.3153	818.03	0.154849	-384.931553	-384.924276	-384.923332	-384.963023	28.252	
O	-0.0234277806	 1.3986608308	-0.1415857354	-0.479263
C	 0.0164571018	-0.0036795446	-0.0014538187	 0.377869
C	 0.3673431604	-0.8304121638	-1.2702707612	-0.283833
C	-0.9255720302	-1.6686275701	-1.0660616239	-0.22431
C	-1.3793307597	-0.7004346178	 0.0658327694	-0.052208
C	-1.4300229898	-1.3009423756	 1.4656727102	-0.10504
O	-0.0664421628	-1.5739353342	 1.7891337383	-0.25228
C	 0.683605868	-0.4648388778	 1.3144352727	-0.137883
H	 0.8766630382	 1.7144630335	-0.2780865729	 0.277327
H	 0.3269981752	-0.2020613551	-2.1634005304	 0.103497
H	 1.3160602542	-1.3743142379	-1.2561954499	 0.094272
H	-1.5899043215	-1.7289855724	-1.9299364111	 0.101415
H	-0.7327724183	-2.6797040889	-0.6998074086	 0.110371
H	-2.2229823404	-0.0557694829	-0.1815341081	 0.080852
H	-1.8638698445	-0.5863064645	 2.1841466061	 0.092616
H	-1.9802769626	-2.2439205912	 1.5321246186	 0.107253
H	 1.7236233783	-0.788360119	 1.2062622197	 0.099084
H	 0.6392044543	 0.3782164014	 2.0231102651	 0.090259
72.7085	210.893	224.2757	270.3432	367.4783	388.3123	425.6211	579.8127	611.7127	688.9595	752.9357	823.412	856.5278	900.7314	925.2245	943.2544	956.1035	1021.301	1027.9003	1056.1119	1097.5642	1138.9009	1166.4047	1176.0878	1219.6223	1232.8596	1241.0556	1268.1605	1278.8693	1287.1643	1323.3042	1333.4278	1356.4231	1404.5152	1466.6662	1485.9929	1498.5229	1512.1006	2970.7356	2976.7517	3053.0701	3068.7685	3077.193	3087.3229	3104.8062	3113.7452	3129.0749	3798.2979
OC12CCC1COC2	O[C@]12CC[C@H]1COC2	
InChI=1S/C6H10O2/c7-6-2-1-5(6)3-8-4-6/h5,7H,1-4H2	InChI=1S/C6H10O2/c7-6-2-1-5(6)3-8-4-6/h5,7H,1-4H2/t5-,6-/m0/s1
