18
gdb 36532	3.92098	0.96148	0.8133	3.7044	71.94	-0.275	0.0268	0.3018	1358.5146	0.149407	-439.09977	-439.09159	-439.090646	-439.133106	30.286	
N	-0.0890842303	-1.1613802458	-0.0604309975	-0.305857
C	-0.0643502264	-0.0068714813	-0.0183408396	 0.268496
C	-0.0075363548	 1.4530446199	 0.0304530405	-0.366603
C	 1.4322501886	 1.9988882007	-0.0100882407	-0.014577
C	 2.1627297363	 1.6335299648	-1.3113722064	-0.093285
O	 3.4374881869	 2.253237105	-1.3525401365	-0.230532
C	 3.331466862	 3.6452764474	-1.2259813537	 0.013114
O	 2.753529929	 4.0360842152	-0.0066455612	-0.233452
C	 1.437639527	 3.5289743743	 0.1243549025	-0.101413
H	-0.5895856105	 1.8502230937	-0.8106715135	 0.153457
H	-0.5102963862	 1.7877533599	 0.9455628187	 0.156987
H	 2.0007990511	 1.5807869042	 0.8273651014	 0.114577
H	 2.3289397722	 0.5567666866	-1.3916949032	 0.139158
H	 1.5570114755	 1.953849227	-2.1785102434	 0.089648
H	 4.3450105059	 4.0489380045	-1.2430103065	 0.125372
H	 2.7379841896	 4.0545247451	-2.0670970868	 0.076971
H	 0.7805886648	 3.9716145214	-0.6463533904	 0.089042
H	 1.0725588694	 3.8488464174	 1.1046973864	 0.118896
65.8558	107.191	170.9082	259.6282	286.2776	378.3587	393.3874	407.2886	449.1525	472.9236	577.4736	680.0484	843.3715	912.8916	924.2664	930.7175	977.1205	982.6797	1065.3057	1070.2894	1098.7505	1121.2874	1180.9823	1200.9648	1234.762	1239.7837	1291.0565	1324.566	1333.5668	1353.3821	1370.1454	1387.7507	1426.392	1443.6519	1466.3013	1494.2797	1496.1732	1511.1967	2362.6146	2912.9097	2942.4228	2951.9518	3033.6781	3059.2422	3074.7923	3085.9119	3105.3404	3123.1596
N#CCC1COCOC1	N#CCC1COCOC1	
InChI=1S/C6H9NO2/c7-2-1-6-3-8-5-9-4-6/h6H,1,3-5H2	InChI=1S/C6H9NO2/c7-2-1-6-3-8-5-9-4-6/h6H,1,3-5H2
