20
gdb 105194	1.91383	1.53393	1.03858	14.3137	78.17	-0.17	-0.0301	0.1398	1225.7795	0.170015	-440.234476	-440.224654	-440.22371	-440.26917	36.035	
C	-0.5645273399	 1.0712845235	 0.3550560442	-0.368182
C	-0.5793523583	-0.3040657539	-0.3226676526	-0.282842
C	 0.5343203247	-0.4512803448	-1.3396933948	 0.207705
C	 1.9558172525	-0.7007003329	-0.870135008	-0.320202
C	 1.2100174843	-1.7683207497	-1.6001741033	-0.123855
N	 0.7766643722	-2.9674152161	-0.8019688219	-0.420715
H	 0.3203018141	-2.6438857379	 0.0597451821	 0.315355
H	 0.0886575503	-3.5157967521	-1.3236351772	 0.331705
H	 1.5578310476	-3.5794202556	-0.5529996381	 0.323796
C	 0.3951487629	 0.3619222853	-2.6980502062	 0.339458
O	-0.5908798114	 1.1077638716	-2.7510891924	-0.463746
O	 1.3013142413	 0.0969801517	-3.5116315202	-0.482169
H	 0.3685879048	 1.2344947972	 0.9050717869	 0.099988
H	-0.6571137673	 1.8308579946	-0.422634658	 0.178058
H	-1.3970527807	 1.1703230844	 1.0584498637	 0.098363
H	-0.5375669366	-1.0780532985	 0.4750382559	 0.021581
H	-1.5330131528	-0.4316536666	-0.8445267827	 0.128073
H	 2.7537871569	-0.2260650629	-1.4291384278	 0.161765
H	 2.132183786	-0.8360480882	 0.1959596243	 0.092247
H	 1.4605863793	-2.0142759992	-2.6254258738	 0.163616
67.6264	110.411	163.7303	183.5648	192.5265	219.2234	240.7953	298.3299	323.6682	395.6888	452.0283	529.1931	544.8314	721.1678	754.212	782.9756	803.3009	842.894	886.7967	916.5444	957.3892	979.8437	1018.577	1068.6323	1071.9017	1107.1373	1128.2884	1165.4167	1201.3336	1277.5488	1304.5141	1322.1042	1362.9325	1382.2453	1393.2712	1438.393	1446.0326	1467.6442	1490.3593	1518.7134	1640.5249	1652.4169	1785.5169	2841.2645	3036.0629	3074.7386	3098.5507	3102.1486	3151.6254	3197.9592	3218.3081	3357.2109	3449.3435	3490.4015
CCC1(CC1[NH3+])C([O-])=O	CC[C@]1(C[C@H]1[NH3])C(=O)[O]	
InChI=1S/C6H11NO2/c1-2-6(5(8)9)3-4(6)7/h4H,2-3,7H2,1H3,(H,8,9)	InChI=1S/C6H11NO2/c1-2-6(5(8)9)3-4(6)7/h4H,2-3H2,1,7H3/t4-,6-/m1/s1
