14
gdb 22715	4.80203	0.95801	0.87246	1.7835	75.61	-0.2495	-0.0167	0.2329	1273.4896	0.098008	-436.558483	-436.550358	-436.549414	-436.591239	30.686	
O	-0.0784468021	 1.3058528065	-0.0848587716	-0.382582
N	 0.037794441	-0.0869983257	 0.0192506428	-0.25248
C	-1.0963355793	-0.6448938273	-0.0206838512	 0.452092
C	-2.5626868852	-0.2054043516	-0.0290187968	-0.398134
C	-2.9091057492	-1.7085321831	 0.1493947808	 0.270523
O	-2.3439221546	-2.3894533524	-0.979811703	-0.270203
C	-1.4621432606	-2.0890345512	 0.1154597904	-0.159143
C	-4.0094010769	-2.2757582143	 0.8456856399	 0.178944
C	-4.9577748134	-2.7121500109	 1.4418579734	-0.361644
H	 0.8399299437	 1.5937069424	-0.0338226851	 0.312064
H	-2.8085014161	 0.4134749261	 0.8377327532	 0.144666
H	-2.9489007177	 0.2529141103	-0.941093327	 0.139864
H	-0.929470404	-2.9098317606	 0.5780111925	 0.128629
H	-5.7921307057	-3.1093999681	 1.9658245818	 0.197402
79.0731	134.0257	203.3882	220.9009	324.3248	395.6916	445.4494	458.2041	512.3533	522.8078	577.7225	620.3179	634.1423	680.0672	712.6837	797.0574	857.1252	953.2186	974.4078	994.8879	1016.6062	1106.5702	1116.4526	1188.414	1213.0004	1241.6426	1390.8146	1413.9363	1455.3397	1796.7853	2244.2953	3075.8565	3135.907	3215.2961	3500.1985	3811.768
ON=C1CC2(OC12)C#C	ON=C1C[C@]2(O[C@@H]12)C#C	
InChI=1S/C6H5NO2/c1-2-6-3-4(7-8)5(6)9-6/h1,5,8H,3H2	InChI=1S/C6H5NO2/c1-2-6-3-4(7-8)5(6)9-6/h1,5,8H,3H2/t5-,6+/m0/s1
