21
gdb 80643	2.64932	1.43783	1.15616	3.0011	82.26	-0.2424	-0.0204	0.222	1139.2353	0.183733	-387.091818	-387.083579	-387.082635	-387.12496	32.169	
C	-0.1159875416	 1.5300688805	 0.0371612024	-0.423434
C	 0.089438663	 0.0144433505	 0.0164957469	 0.015185
C	 0.9533850261	-0.5213320738	-1.1469882791	-0.011144
C	 1.1925267279	-1.9969243009	-0.7212740984	-0.236102
C	 2.0198080889	-1.324430813	 0.4121155539	-0.038747
C	 2.4053485104	-0.2578840654	-0.6564200785	-0.234599
C	 0.908365599	-0.6179570997	 1.226743273	-0.076168
C	 1.4208685713	 0.3729444732	 2.2414053237	 0.139817
O	 0.9381092027	 0.5369013451	 3.3346686006	-0.259432
H	 0.8280151329	 2.082288797	-0.0082211394	 0.11768
H	-0.718933071	 1.8410653543	-0.8223954802	 0.115195
H	-0.6416292871	 1.8466831895	 0.9435371352	 0.133073
H	-0.8977489167	-0.4591402381	-0.0083876796	 0.081428
H	 0.6281657789	-0.2557289816	-2.1538532556	 0.06177
H	 0.3243811764	-2.6003103942	-0.4382971482	 0.091677
H	 1.8217094867	-2.5453073974	-1.4259650609	 0.099244
H	 2.7737741428	-1.8728377684	 0.9783441204	 0.068998
H	 3.1560418838	-0.6337084706	-1.3549969875	 0.102152
H	 2.6793192078	 0.7494128583	-0.3329680701	 0.094753
H	 0.2853077999	-1.3295352023	 1.7754994651	 0.088927
H	 2.3098415881	 0.9660943371	 1.9254372064	 0.069725
47.3958	137.5105	227.4926	237.7119	256.8703	323.8911	407.3659	473.3096	481.5051	540.6599	665.4866	777.973	807.0656	843.3143	852.6378	879.2176	923.9045	948.3941	984.9796	1012.4987	1018.188	1037.0287	1043.7507	1065.9292	1077.9302	1114.9303	1122.7668	1148.8686	1158.2795	1215.2774	1226.6149	1247.5692	1262.0467	1286.0481	1306.5987	1318.1961	1326.6856	1374.5818	1415.3051	1435.6821	1489.4404	1500.4967	1503.5079	1526.1487	1820.0887	2860.3914	3034.9489	3040.1267	3050.2593	3062.887	3073.5447	3100.4253	3104.9835	3106.3638	3107.5938	3115.5706	3121.3137
CC1C2CC(C2)C1C=O	C[C@H]1[C@@H]2C[C@@H](C2)[C@H]1C=O	
InChI=1S/C8H12O/c1-5-6-2-7(3-6)8(5)4-9/h4-8H,2-3H2,1H3	InChI=1S/C8H12O/c1-5-6-2-7(3-6)8(5)4-9/h4-8H,2-3H2,1H3/t5-,6-,7+,8-/m0/s1
