20
gdb 57193	2.38657	1.28894	1.1467	4.9425	71.1	-0.2476	0.0152	0.2628	1184.1041	0.169332	-477.461665	-477.451673	-477.450728	-477.496116	37.648	
C	-0.2062299286	 1.4966497775	 0.1503116946	-0.418764
C	-0.0553668516	-0.0294516856	 0.0957421976	 0.198327
C	 0.7888910558	-0.5235454398	 1.2825891628	-0.414123
N	-1.4126473268	-0.6341747511	 0.0902368093	-0.544161
H	-1.7323268969	-0.2210192836	-1.5529334181	 0.321688
H	-1.3267351632	-1.6459863736	 0.1374110591	 0.254506
H	-1.9436167663	-0.3273291191	 0.8993658794	 0.238697
C	 0.6136706382	-0.4486516332	-1.2300522524	 0.023768
O	 0.7044257996	-1.8747580573	-1.2184284837	-0.455503
C	-0.11885355	-0.0341243373	-2.5296957628	 0.371669
O	 0.5089984807	 0.1552419625	-3.5426643759	-0.347797
O	-1.4486697949	 0.0169738822	-2.4832166759	-0.375329
H	 0.7711502995	 1.982660966	 0.0836159468	 0.130622
H	-0.8347257923	 1.8683923158	-0.6624807739	 0.14225
H	-0.6615663477	 1.7987503519	 1.0996948348	 0.115061
H	 0.299091324	-0.2658617558	 2.2277489758	 0.106904
H	 0.9247025795	-1.6062956917	 1.2394916056	 0.137263
H	 1.7801625391	-0.0580249185	 1.2813609907	 0.120742
H	 1.6121901887	 0.0033760158	-1.2854130013	 0.092241
H	 1.078895333	-2.1480344746	-2.0634012623	 0.301938
55.0348	129.5235	193.6891	223.0974	245.9035	278.9963	284.4761	315.025	344.2978	373.9207	391.0909	420.043	423.6991	481.4529	571.8392	673.8603	783.6295	804.4671	878.0785	935.7901	942.6731	952.5178	963.7672	1018.6092	1041.341	1075.4253	1105.883	1173.3612	1221.142	1290.2107	1291.2579	1337.6223	1344.6218	1399.185	1410.3642	1428.5515	1481.5679	1488.6803	1502.413	1515.31	1522.8627	1629.455	1841.4969	3027.0262	3034.2063	3042.6814	3086.9603	3099.3741	3110.2732	3130.1638	3131.0823	3493.2376	3577.7594	3809.2475
CC(C)([NH3+])C(O)C([O-])=O	CC(C)(N)[C@@H](O)C(=O)O	
InChI=1S/C5H11NO3/c1-5(2,6)3(7)4(8)9/h3,7H,6H2,1-2H3,(H,8,9)	InChI=1S/C5H11NO3/c1-5(2,6)3(7)4(8)9/h3,7H,6H2,1-2H3,(H,8,9)/t3-/m0/s1
