17
gdb 81715	3.16885	1.29394	1.02865	3.2247	82.04	-0.2389	-0.0173	0.2216	1174.301	0.133844	-384.652753	-384.644042	-384.643098	-384.685961	32.849	
C	-0.1030194644	 1.6285648233	-0.0447963244	-0.417305
C	 0.0651155509	 0.1141687482	-0.0396919933	-0.102028
C	 0.7219159473	-0.6164273372	-1.2251989514	-0.125877
C	 2.1553178182	-0.256426084	-1.3351810012	-0.317343
C	 1.7646234864	-1.3034293834	-0.2786441618	 0.095017
C	 2.3001418273	-2.6180074295	-0.2683084793	 0.163856
C	 2.7436354346	-3.7361857904	-0.2353875225	-0.406462
C	 1.1238900762	-0.5594031597	 0.8773831419	 0.331076
O	 1.2712319762	-0.5942881851	 2.062985928	-0.301003
H	 0.8174766005	 2.1422167544	-0.337241911	 0.121118
H	-0.8939095457	 1.9348538249	-0.7367990797	 0.123417
H	-0.3757626222	 1.9767677603	 0.9560039513	 0.140334
H	-0.8897349579	-0.3652791571	 0.212184743	 0.113177
H	 0.18631553	-1.1193914509	-2.0193334524	 0.117518
H	 2.703076439	-0.6829689462	-2.1682382065	 0.142905
H	 2.5184185705	 0.7149249459	-1.0134628901	 0.130825
H	 3.1344611032	-4.7227560636	-0.2013319008	 0.190774
92.7393	125.0984	172.1362	186.5265	228.116	271.3328	386.8318	441.1857	511.1612	525.1018	580.5036	610.683	632.5928	647.487	739.6631	781.1309	839.3897	858.7117	923.031	964.7961	994.8448	1018.5792	1076.464	1083.3317	1107.471	1141.0808	1195.3657	1241.8534	1285.8013	1347.6453	1367.6696	1410.5686	1488.3975	1495.1674	1501.9491	1886.3551	2234.3428	3034.4629	3039.4455	3107.4374	3113.8069	3129.3017	3208.1406	3220.4461	3502.6046
CC1C2CC2(C#C)C1=O	C[C@H]1[C@H]2C[C@@]2(C#C)C1=O	
InChI=1S/C8H8O/c1-3-8-4-6(8)5(2)7(8)9/h1,5-6H,4H2,2H3	InChI=1S/C8H8O/c1-3-8-4-6(8)5(2)7(8)9/h1,5-6H,4H2,2H3/t5-,6+,8+/m0/s1
