19
gdb 90173	3.47184	1.39499	1.34497	1.2012	74.	-0.2251	0.054	0.2791	1043.8027	0.159334	-422.967555	-422.959895	-422.958951	-422.999452	30.746	
C	 0.2086860858	 1.5904095991	 0.0696574801	-0.401179
C	 0.0518726639	 0.0831621774	 0.0074665815	 0.137298
C	 0.6869491033	-0.6144281329	-1.2458910478	-0.338271
C	 1.2097751687	-1.913151819	-0.6768006916	 0.337216
C	 2.4551779656	-2.0082030367	 0.1573643088	-0.369402
C	 1.1114683944	-1.7821876356	 0.8140979862	 0.253169
C	 0.2142925117	-3.0218108271	 0.7291443067	-0.148144
O	 0.4629106371	-3.1436812302	-0.7051851664	-0.325963
O	 0.7124427474	-0.5034024683	 1.1657733133	-0.307289
H	 1.2665787349	 1.8678235169	 0.0236983647	 0.121915
H	-0.3126346347	 2.0621646224	-0.7691666217	 0.119831
H	-0.2111169817	 1.98440541	 0.9990906853	 0.13102
H	-1.0154412095	-0.1797136625	 0.0549572366	 0.081924
H	-0.05575254	-0.7906343935	-2.0269410147	 0.125659
H	 1.4870563599	 0.0015778742	-1.668660464	 0.111028
H	 2.9550093554	-2.9673197004	 0.2551070031	 0.121714
H	 3.1015892438	-1.1380021744	 0.1487906304	 0.127214
H	 0.5168926674	-3.9198304987	 1.2794921769	 0.109001
H	-0.8390044536	-2.7969410804	 0.9312170228	 0.113257
85.649	215.8404	242.5249	278.786	336.6334	369.8371	423.7711	466.7296	561.113	594.9337	652.662	793.7293	803.6378	806.1299	862.6912	875.8151	891.3798	940.0448	941.4588	984.3046	1011.1964	1017.8827	1066.0978	1090.4916	1138.0081	1145.8528	1162.7815	1194.4548	1240.4441	1283.7078	1292.6183	1326.1509	1350.4786	1369.0298	1389.8351	1410.9645	1460.5925	1472.8276	1482.9826	1496.7941	1511.4433	2989.301	3026.3283	3040.1006	3054.9296	3080.4034	3112.7232	3118.8075	3121.5051	3125.4614	3227.8849
CC1CC23CC2(CO3)O1	C[C@H]1C[C@@]23C[C@@]2(CO3)O1	
InChI=1S/C7H10O2/c1-5-2-6-3-7(6,9-5)4-8-6/h5H,2-4H2,1H3	InChI=1S/C7H10O2/c1-5-2-6-3-7(6,9-5)4-8-6/h5H,2-4H2,1H3/t5-,6+,7-/m0/s1
