16
gdb 112141	2.89208	1.2966	1.02279	4.9602	67.89	-0.2579	-0.0685	0.1894	1167.5797	0.123439	-475.04627	-475.037819	-475.036875	-475.080195	30.31	
C	-0.1109913392	 1.3954903938	-0.1810489972	-0.248382
O	-0.1297472314	-0.025892558	-0.1547831926	-0.226037
C	 0.7221370406	-0.6249550487	-1.0665993124	 0.180561
C	 0.6333737344	-2.1376101726	-0.8894239327	-0.358974
C	-0.3870239613	-2.5516070277	-1.9417137993	 0.331173
O	-0.9825118073	-3.5873352228	-2.0283356583	-0.271523
C	-0.4911235097	-1.3748516743	-2.9006180588	 0.317189
N	-1.1568917042	-1.372584451	-3.9705813065	-0.498586
O	 0.2909725767	-0.3608198301	-2.4295941122	-0.248211
H	 0.9028980657	 1.7786413831	 0.0025359129	 0.115917
H	-0.4698451834	 1.7820803317	-1.1407629164	 0.13538
H	-0.7724084146	 1.7321303336	 0.6185899136	 0.140496
H	 1.7334320942	-0.2044982493	-1.0055695301	 0.089199
H	 1.590293572	-2.6176062308	-1.1198168364	 0.149777
H	 0.3298078399	-2.4199646976	 0.118136349	 0.159208
H	-1.0685688225	-0.4756704693	-4.4539131525	 0.232813
55.2096	92.1419	125.3585	188.3708	274.1059	331.7607	379.0306	391.6763	482.3959	581.5428	610.1902	664.2093	737.4757	779.0592	865.5604	905.5953	917.2519	1006.8398	1031.4657	1041.6643	1135.3266	1144.5093	1174.0308	1181.2778	1237.9475	1275.9829	1292.536	1387.3725	1402.1796	1437.403	1480.6949	1486.1071	1509.8169	1763.8361	1870.8577	3004.3639	3035.1189	3068.9015	3080.9861	3140.9543	3149.4327	3462.9346
COC1CC(=O)C(=N)O1	CO[C@H]1CC(=O)[C]([NH])O1	
InChI=1S/C5H7NO3/c1-8-4-2-3(7)5(6)9-4/h4,6H,2H2,1H3	InChI=1S/C5H7NO3/c1-8-4-2-3(7)5(6)9-4/h4,6H,2H2,1H3/t4-/m1/s1
