13
gdb 9001	4.63511	0.99986	0.8686	1.4014	57.91	-0.2635	-0.0906	0.1729	1226.8773	0.092949	-435.774192	-435.765827	-435.764882	-435.808644	27.525	
O	-0.3372220696	 0.2557324929	 0.0211969989	-0.221902
C	 0.1400294963	 1.3362939385	-0.1934345161	 0.154128
C	 1.6169432195	 1.5631000428	-0.5013253879	-0.247701
N	 1.8348022544	 2.6808076789	-1.3900547858	-0.31386
C	 2.3981656429	 3.84418096	-0.9836024439	 0.30465
O	 2.7761492888	 4.1089795099	 0.1422560488	-0.348911
C	 2.5386001592	 4.8654609508	-2.1166111112	 0.104732
O	 2.1795019429	 4.6516040718	-3.2455021932	-0.242388
H	-0.4665030166	 2.2700796367	-0.1734277357	 0.091195
H	 2.1228531187	 1.8068236884	 0.4415575374	 0.176652
H	 2.046060633	 0.6371269058	-0.8956416236	 0.144525
H	 1.5899140976	 2.6228920479	-2.3689347706	 0.273479
H	 3.0040240429	 5.8141685554	-1.787099387	 0.125401
48.1859	66.9762	92.0398	173.8139	203.8452	282.1056	357.0907	495.9495	511.5544	569.5801	649.1615	680.8059	785.0206	898.6131	1025.7976	1045.2693	1104.2999	1127.8922	1243.4593	1275.2719	1339.2462	1362.6528	1410.6641	1445.3055	1550.1889	1790.0246	1823.2952	1844.2058	2883.4615	2967.7602	3042.5165	3101.0215	3602.7978
O=CCNC(=O)C=O	O=CCNC(=O)C=O	
InChI=1S/C4H5NO3/c6-2-1-5-4(8)3-7/h2-3H,1H2,(H,5,8)	InChI=1S/C4H5NO3/c6-2-1-5-4(8)3-7/h2-3H,1H2,(H,5,8)
