19
gdb 52618	2.01988	1.20886	0.95077	2.1561	79.87	-0.2485	0.0365	0.2851	1356.9703	0.155133	-422.976129	-422.965491	-422.964547	-423.013229	37.282	
C	 0.0259567773	 1.5321099444	-0.1275127728	-0.501217
C	 0.0533224226	 0.07734504	-0.076143031	 0.019165
C	 0.0614475224	-1.1263161789	-0.0275823994	 0.101305
C	 0.0841900197	-2.5940993392	-0.0143328784	 0.112221
C	-1.3324980867	-3.1605553724	 0.1435310078	-0.400474
O	 0.5781282899	-3.1116834767	-1.2570026964	-0.440836
C	 0.9752861862	-3.1451557498	 1.1041779205	 0.087015
C	 2.0658076022	-2.3920268831	 1.7325009039	-0.205285
O	 0.8208257237	-2.6030867925	 2.4090357492	-0.236675
H	 0.9516530476	 1.9345402128	-0.5532215798	 0.148569
H	-0.8066325339	 1.8914879569	-0.7418823656	 0.153198
H	-0.0914491523	 1.9581955083	 0.8747483476	 0.155882
H	-1.9741777451	-2.7911759837	-0.658904288	 0.129723
H	-1.2951222513	-4.2525481709	 0.0900486977	 0.121682
H	-1.7492892877	-2.8613173519	 1.107574541	 0.139909
H	 1.3945013149	-2.6415629407	-1.4598227666	 0.281389
H	 1.0511825228	-4.2330679444	 1.0629044834	 0.09803
H	 2.9173981216	-2.9296646833	 2.1469110828	 0.114574
H	 2.2523016062	-1.3650232551	 1.4268056639	 0.121824
19.7776	69.808	88.5381	118.3656	205.2821	243.8953	250.2504	297.3802	310.8699	338.545	350.6916	422.2097	469.2507	570.6442	608.2514	615.4963	843.2583	878.3664	916.9705	960.5213	1007.5282	1044.5272	1052.1933	1054.0987	1085.705	1107.4466	1152.5275	1167.2454	1173.4868	1251.6488	1296.9357	1356.0803	1401.9281	1413.4293	1421.3731	1476.873	1477.9587	1483.6146	1491.266	1517.828	2364.4831	3029.4303	3050.5783	3089.1506	3090.6062	3093.0345	3101.6828	3129.0052	3144.8359	3183.5119	3807.2538
CC#CC(C)(O)C1CO1	CC#C[C@@](C)(O)[C@H]1CO1	
InChI=1S/C7H10O2/c1-3-4-7(2,8)6-5-9-6/h6,8H,5H2,1-2H3	InChI=1S/C7H10O2/c1-3-4-7(2,8)6-5-9-6/h6,8H,5H2,1-2H3/t6-,7-/m1/s1
