20
gdb 55690	3.0572	1.12113	1.02033	3.9162	75.15	-0.2349	0.0333	0.2682	1251.1163	0.170288	-440.31402	-440.304568	-440.303624	-440.34872	35.173	
C	-0.2352554861	 1.8747912886	-0.1803995863	-0.437145
C	-0.1552629434	 0.3570624022	-0.1837365978	 0.411133
C	-1.5199382973	-0.311526447	 0.0367809147	-0.332824
C	-2.2113559247	 0.0498244791	 1.3570168761	 0.363383
N	-1.4589365964	-0.2042803098	 2.4661585954	-0.508214
O	-3.3461782649	 0.4847578728	 1.4012860226	-0.36387
C	 0.6813503888	-0.2864357485	-1.3221764354	-0.329643
C	 1.5619396913	-0.8470336552	-0.1921170701	-0.072028
O	 0.8216290989	-0.1148620617	 0.8089883732	-0.323133
H	 0.758799156	 2.3102494109	-0.3125543159	 0.117855
H	-0.8819655527	 2.2231578136	-0.9924002568	 0.126598
H	-0.6491849255	 2.2418062934	 0.7634382387	 0.139144
H	-2.2036837659	-0.0267679184	-0.766648758	 0.125818
H	-1.3906958731	-1.399699739	-0.0013989776	 0.114119
H	-0.4684251647	-0.3774080861	 2.362510391	 0.269428
H	-1.8229877836	 0.1053726332	 3.3529628595	 0.252362
H	 0.1587649839	-1.0193369939	-1.9387015823	 0.114016
H	 1.1799231912	 0.4384356072	-1.9679168108	 0.113865
H	 1.4936690673	-1.9309609563	-0.0393783438	 0.107549
H	 2.6179326708	-0.5572808852	-0.2032079164	 0.111588
52.1699	86.4909	109.3899	185.788	220.7658	296.0351	322.5366	379.8966	387.1485	450.8085	482.6513	556.6302	600.2751	686.2041	749.7889	786.9702	850.2925	871.144	892.7991	913.7891	958.6805	984.0298	996.4922	1024.4133	1080.6659	1157.6104	1165.8353	1180.0177	1207.6532	1236.5406	1262.5692	1294.6274	1323.5446	1351.8069	1369.1239	1413.3626	1461.2741	1483.1211	1489.3285	1499.0371	1531.465	1619.3541	1801.0545	3024.0084	3039.052	3042.1389	3069.6549	3080.1287	3110.0158	3115.4551	3120.6842	3135.6155	3542.032	3695.9032
CC1(CC(N)=O)CCO1	C[C@@]1(CC(=O)N)CCO1	
InChI=1S/C6H11NO2/c1-6(2-3-9-6)4-5(7)8/h2-4H2,1H3,(H2,7,8)	InChI=1S/C6H11NO2/c1-6(2-3-9-6)4-5(7)8/h2-4H2,1H3,(H2,7,8)/t6-/m0/s1
