20
gdb 63543	2.90602	1.43042	1.27961	2.1259	78.92	-0.2285	0.0708	0.2993	1085.1189	0.169589	-403.084317	-403.075602	-403.074658	-403.117131	34.242	
C	-0.1087528268	 1.5655773975	-0.0763863685	-0.435692
C	 0.0045755735	 0.066846327	 0.02545922	 0.391543
O	-1.1580445228	-0.5550540703	-0.454538175	-0.48076
C	 1.3446248077	-0.616426846	-0.1936889711	-0.437674
C	 0.7070064567	-0.6000787649	 1.1693302457	 0.293493
C	 1.2723904208	-0.1224345387	 2.5111398512	-0.352436
C	 0.614976963	-1.3735653184	 3.0951031078	-0.019045
C	-0.8188052361	-1.4328072909	 2.7613571818	-0.236188
N	 0.1571903175	-1.8701356462	 1.7293655878	-0.184383
H	 0.7912968295	 2.0545717173	 0.3057007322	 0.114656
H	-0.2438039784	 1.8650363354	-1.1208643124	 0.129416
H	-0.9712805005	 1.926957373	 0.4930323096	 0.120758
H	-1.1699381814	-1.4566668877	-0.1100272232	 0.294103
H	 1.342917572	-1.5679698475	-0.7166239808	 0.119495
H	 2.224131081	-0.0011755373	-0.3601310237	 0.109558
H	 2.3639548907	-0.1558495772	 2.5393200246	 0.11633
H	 0.9318652539	 0.8381077778	 2.9097635939	 0.107169
H	 1.0755977619	-2.0494212592	 3.8075085405	 0.101712
H	-1.3961896426	-2.2585286142	 3.165337118	 0.122106
H	-1.3795645194	-0.5169679894	 2.5918872816	 0.125837
121.4986	146.5082	158.56	193.187	290.5928	329.9525	380.6006	397.5722	415.8022	455.3219	510.4406	614.3937	738.6487	761.4303	765.0434	809.6397	878.7723	901.7273	915.0687	932.7022	975.3582	998.5593	1025.3179	1054.3006	1073.9121	1102.5739	1105.7321	1122.4686	1150.7843	1169.5564	1190.5035	1229.9993	1240.4693	1266.7855	1348.2466	1365.289	1403.4416	1438.6989	1474.8947	1481.2202	1484.9727	1502.053	1513.2686	3035.7905	3049.9367	3100.8316	3106.3905	3112.4948	3115.134	3119.2736	3170.8832	3205.8799	3208.7563	3779.6394
CC1(O)CC11CC2CN12	C[C@@]1(O)C[C@]21C[C@H]1CN21	
InChI=1S/C7H11NO/c1-6(9)4-7(6)2-5-3-8(5)7/h5,9H,2-4H2,1H3	InChI=1S/C7H11NO/c1-6(9)4-7(6)2-5-3-8(5)7/h5,9H,2-4H2,1H3/t5-,6+,7-,8?/m0/s1
