21
gdb 112010	2.53847	1.37236	1.07085	1.3434	83.51	-0.2259	0.0186	0.2445	1220.1901	0.18223	-387.086716	-387.077792	-387.076848	-387.120046	34.863	
C	-0.1336194573	 1.6211573123	 0.0071713345	-0.387079
C	-0.0834962756	 0.0907058113	-0.0293827221	-0.180719
C	 0.7525048032	-0.4799741722	-1.1887649326	-0.086478
C	 2.2454419143	-0.2153041614	-1.126253687	-0.093558
C	 2.9659446321	-1.3261066035	-1.3066298342	-0.08143
C	 2.0958543985	-2.5278047865	-1.4530554603	-0.137102
C	 1.2528434533	-2.8682420419	-0.2250435403	-0.344207
C	 0.6845636446	-2.0087369419	-1.3250545702	 0.386881
O	-0.3202735856	-2.5397109	-2.1377467357	-0.473796
H	 0.8603542238	 2.0540745588	 0.1594816407	 0.118505
H	-0.5311786198	 2.0263645093	-0.9300214187	 0.115874
H	-0.7744460577	 1.9748476987	 0.8209176184	 0.112004
H	 0.3054617198	-0.2899244237	 0.9223982859	 0.096649
H	-1.1070844599	-0.2976915384	-0.1222520153	 0.083355
H	 0.347439799	-0.0596850755	-2.1231420362	 0.086038
H	 2.656977209	 0.7743894797	-0.9644385664	 0.094156
H	 4.0489560749	-1.3774266	-1.3218668963	 0.094341
H	 2.3455231953	-3.3272674221	-2.1410177642	 0.095788
H	 0.8606924023	-3.8793486958	-0.1807169956	 0.10924
H	 1.5336973279	-2.433798756	 0.72870808	 0.110384
H	-1.120694712	-2.6190380611	-1.6075838143	 0.281152
86.0706	129.9561	171.3523	235.6098	257.9494	297.6158	318.5184	332.8513	456.6846	485.0556	547.3136	600.5359	724.6958	743.8327	761.1209	799.279	862.9743	884.4666	919.8996	949.6236	959.0331	972.6973	997.634	1038.6617	1057.6363	1064.9502	1069.0876	1115.6557	1124.5428	1156.3456	1199.69	1253.4707	1275.6939	1300.1789	1318.2545	1343.3556	1369.9442	1381.7403	1399.8192	1412.2384	1471.8332	1484.2487	1500.441	1506.3905	1662.5073	2979.218	3010.0089	3032.2783	3056.0325	3099.6565	3103.2702	3122.5882	3177.9568	3185.6247	3208.386	3216.6158	3796.4384
CCC1C=CC2CC12O	CC[C@H]1C=C[C@H]2C[C@@]12O	
InChI=1S/C8H12O/c1-2-6-3-4-7-5-8(6,7)9/h3-4,6-7,9H,2,5H2,1H3	InChI=1S/C8H12O/c1-2-6-3-4-7-5-8(6,7)9/h3-4,6-7,9H,2,5H2,1H3/t6-,7-,8+/m0/s1
