21
gdb 102367	1.77684	1.50394	1.04013	1.9004	79.2	-0.2512	-0.0504	0.2009	1272.6016	0.178173	-424.24766	-424.236693	-424.235748	-424.284121	38.348	
C	-0.0717856307	 1.735126673	 0.0999434236	-0.416745
C	 0.0232718594	 0.2101291928	-0.0376426334	-0.201659
C	 0.749543254	-0.3581995652	-1.3150387106	 0.047548
C	 0.7294453314	-1.8979186671	-1.248606856	-0.192888
C	 1.4029425493	-2.6058416044	-2.4292761643	-0.418763
C	-0.0093070097	 0.176299709	-2.5233605808	 0.144295
O	-0.9167279914	-0.4020980172	-3.0636229541	-0.258553
C	 2.1668878974	 0.2007672958	-1.2968156141	 0.144297
O	 3.1085258671	-0.3567088834	-0.7944443299	-0.258557
H	 0.912700133	 2.210538396	 0.1455629499	 0.128971
H	-0.6291660174	 2.1927746806	-0.7229757418	 0.12898
H	-0.5965490401	 1.98594908	 1.026391287	 0.131116
H	 0.5517740595	-0.204618211	 0.8275848161	 0.124654
H	-0.9832018374	-0.2222537686	-0.0372899268	 0.124639
H	 1.2207026957	-2.1937921229	-0.3167265032	 0.113304
H	-0.3169495486	-2.211117697	-1.1834726493	 0.113301
H	 0.9125397241	-2.3594340483	-3.3749246365	 0.131016
H	 2.461519445	-2.3419799234	-2.5017959406	 0.131007
H	 1.3420942305	-3.6904429181	-2.2996337248	 0.117958
H	 0.30759145	 1.1844232244	-2.8782048704	 0.083037
H	 2.2892969687	 1.206536005	-1.76167035	 0.08304
65.4358	70.5048	98.7575	108.288	168.0589	210.2736	242.3185	261.9703	283.9968	295.0472	311.6339	381.7818	420.8502	502.9696	658.9378	752.3202	772.4693	792.9476	839.0386	943.2845	989.7673	991.3123	1011.3154	1058.7941	1081.5765	1106.9756	1139.516	1202.8855	1225.4551	1294.5731	1339.08	1345.4595	1381.364	1411.8615	1420.8861	1427.8534	1446.7335	1465.2887	1484.8967	1503.244	1504.3731	1506.5158	1508.8108	1802.9252	1844.7245	2844.6468	2867.2493	3036.6002	3042.5804	3047.4295	3053.7012	3079.1349	3094.639	3110.938	3113.0882	3113.7102	3128.2979
CCC(CC)(C=O)C=O	CCC(CC)(C=O)C=O	
InChI=1S/C7H12O2/c1-3-7(4-2,5-8)6-9/h5-6H,3-4H2,1-2H3	InChI=1S/C7H12O2/c1-3-7(4-2,5-8)6-9/h5-6H,3-4H2,1-2H3
