23
gdb 88823	2.90774	1.06515	0.8729	1.2461	85.92	-0.2444	0.0713	0.3157	1413.7302	0.205539	-388.263115	-388.253581	-388.252636	-388.297772	36.546	
C	-0.2319917415	 1.4957903219	-0.0017246787	-0.392564
C	-0.0113989742	-0.0135530105	 0.0533782403	 0.00252
C	 1.0890081344	-0.5251496416	-0.9246441496	-0.219445
C	 2.0903165657	-0.5711881014	 0.2593500464	-0.245367
C	 0.8805044908	-0.5285694523	 1.2382481323	 0.027462
C	 0.9941095933	 0.2645843787	 2.5109898317	-0.054377
C	-0.0198413825	 0.0752273105	 3.6284215772	-0.315165
C	 1.3819699673	-0.4133981661	 3.8093923096	 0.092625
O	 1.5440108036	-1.8036617505	 3.8540245529	-0.417269
H	 0.713195151	 2.0490225214	 0.0397475953	 0.109238
H	-0.7330099122	 1.7759911677	-0.9348636208	 0.10905
H	-0.8550124519	 1.8397736323	 0.830385014	 0.117353
H	-0.9784600985	-0.5192269508	-0.0318557034	 0.061829
H	 0.8657478147	-1.5229144444	-1.3122728542	 0.096989
H	 1.3380848149	 0.1254684449	-1.7676361123	 0.090797
H	 2.7625336841	-1.4315113677	 0.3241118128	 0.086365
H	 2.6959355973	 0.3387551668	 0.3210277287	 0.095683
H	 0.5822384871	-1.5509248065	 1.4886330761	 0.077364
H	 1.3777779272	 1.2748317478	 2.3903879814	 0.077043
H	-0.3541544209	 0.9369232662	 4.1952023664	 0.109019
H	-0.7721336428	-0.6926423039	 3.4811828526	 0.121855
H	 2.0277357091	 0.1397095397	 4.491576393	 0.082134
H	 2.3958616438	-2.0145695524	 3.4567642485	 0.286861
49.7263	105.6048	121.961	193.4895	230.6528	254.8125	334.8307	351.9965	374.1336	433.1369	467.6817	554.6242	683.5961	759.6578	790.4572	800.7913	853.7294	883.9804	903.7797	912.9811	953.9393	974.1771	995.587	1022.2712	1034.5388	1059.7299	1079.5166	1109.1093	1133.3241	1166.1214	1175.3105	1202.7802	1216.969	1238.2904	1256.2498	1263.7748	1283.4709	1284.6954	1301.1525	1315.0408	1367.218	1409.9823	1420.8207	1432.8219	1478.985	1486.7078	1496.9125	1498.1669	1500.5096	3025.9636	3041.0609	3044.4575	3054.9793	3063.6178	3088.4823	3090.6958	3094.5848	3097.5161	3108.8152	3132.7235	3135.9483	3221.8834	3800.8093
CC1CCC1C1CC1O	C[C@H]1CC[C@H]1[C@H]1C[C@H]1O	
InChI=1S/C8H14O/c1-5-2-3-6(5)7-4-8(7)9/h5-9H,2-4H2,1H3	InChI=1S/C8H14O/c1-5-2-3-6(5)7-4-8(7)9/h5-9H,2-4H2,1H3/t5-,6+,7+,8+/m0/s1
