14
gdb 101978	1.99896	1.41911	1.18344	3.9175	63.95	-0.2899	-0.0997	0.1901	1094.6867	0.097131	-473.829238	-473.819676	-473.818732	-473.86473	32.07	
O	 0.2322691188	 1.4503778115	 0.1149111276	-0.408165
C	 0.0945857093	 0.0579489367	 0.1348548164	-0.088117
C	-1.4009270575	-0.4016749988	 0.118296152	-0.164088
C	-2.1215475072	 0.2129024557	-1.1041203459	 0.143512
O	-1.5244970356	 0.6389621677	-2.0560338188	-0.247068
C	-1.4408068336	-1.9373199176	-0.0912377604	 0.140658
O	-2.0290291002	-2.7070598071	 0.6089987185	-0.203583
C	-2.11835968	-0.0171507477	 1.3285663409	 0.300862
N	-2.7038101842	 0.3156162111	 2.2666325354	-0.311395
H	 0.0317008647	 1.7470148145	-0.7804569474	 0.306284
H	 0.5981264183	-0.4214657153	-0.7148000183	 0.118467
H	 0.5551688166	-0.302194139	 1.0582649612	 0.147903
H	-3.2266008395	 0.2103087417	-1.0447943134	 0.143684
H	-0.8524319097	-2.2583957534	-0.9758448876	 0.121045
47.0244	72.2416	103.5244	148.3195	159.8511	230.8396	276.3363	310.5711	403.2005	414.3324	485.0885	514.9802	562.4964	722.2016	765.9203	865.284	912.8367	964.3628	1053.4379	1101.3959	1108.3128	1173.5804	1270.0408	1385.517	1410.3264	1421.916	1424.5488	1491.3497	1807.0948	1849.7982	2365.9829	2921.5183	2960.931	3020.6655	3106.2553	3803.3118
OCC(C=O)(C=O)C#N	OCC(C=O)(C=O)C#N	
InChI=1S/C5H5NO3/c6-1-5(2-7,3-8)4-9/h2-3,9H,4H2	InChI=1S/C5H5NO3/c6-1-5(2-7,3-8)4-9/h2-3,9H,4H2
