17
gdb 29968	5.50641	0.91942	0.79195	4.9965	80.86	-0.194	0.0196	0.2136	1400.8075	0.137078	-418.064821	-418.056138	-418.055194	-418.098944	31.301	
C	 0.0046230523	 1.4866024237	 0.0686396683	-0.334188
N	-0.0421575735	 0.0425606851	 0.000503046	 0.026038
C	-0.017377095	-0.7052085229	-1.1463361433	-0.074061
C	 0.0256971857	-2.0394933362	-0.8125120111	-0.268478
C	 0.0326483063	-2.0970145116	 0.6095399816	 0.337694
N	 0.0591273239	-3.2405877272	 1.4236552964	-0.401895
C	 0.0924234476	-4.5407568978	 1.0127611049	 0.142036
O	 0.103439851	-4.9297276001	-0.1353375491	-0.315394
C	-0.0058886748	-0.8012066701	 1.0859643036	-0.214632
H	 1.018662915	 1.8531867069	 0.2677369828	 0.138501
H	-0.3356647259	 1.902459377	-0.8818438378	 0.142752
H	-0.6588153218	 1.848896042	 0.8591916059	 0.138859
H	-0.0328475529	-0.225273816	-2.112116	 0.118099
H	 0.0363965345	-2.8840460053	-1.4773745489	 0.138027
H	 0.0545688066	-3.0878024938	 2.4202020802	 0.248141
H	 0.1089322483	-5.2271418904	 1.8830130719	 0.071
H	-0.0122114471	-0.4156661933	 2.0931302386	 0.107502
51.9869	77.9469	154.164	169.3505	223.6501	278.4663	388.6315	419.9632	549.1641	568.1961	609.1703	626.7203	676.387	709.4633	751.7085	835.6702	864.3856	984.9497	1009.201	1013.3517	1076.4785	1106.4981	1145.0742	1151.3405	1216.293	1273.4106	1378.8381	1409.1985	1414.4984	1445.3018	1462.0574	1486.3143	1506.6487	1518.3409	1559.119	1631.6247	1803.4276	2929.5364	3026.9086	3091.6195	3132.1573	3251.9707	3258.0237	3307.7355	3625.4863
CN1C=CC(NC=O)=C1	Cn1ccc(NC=O)c1	
InChI=1S/C6H8N2O/c1-8-3-2-6(4-8)7-5-9/h2-5H,1H3,(H,7,9)	InChI=1S/C6H8N2O/c1-8-3-2-6(4-8)7-5-9/h2-5H,1H3,(H,7,9)
