21
gdb 113489	2.67732	1.2822	1.09989	1.0194	83.92	-0.2296	0.0288	0.2584	1214.3328	0.182482	-387.075542	-387.066796	-387.065852	-387.109137	33.46	
C	-0.0058664778	 1.0418935417	 0.5112110421	-0.239173
O	-0.1680309579	-0.0108140995	-0.4206708435	-0.231542
C	-1.3715530104	-0.6892615872	-0.2519316273	 0.086714
C	-1.4951473101	-2.0277061316	-0.9068810932	-0.390256
C	-1.4345533539	-1.9403746951	 0.6027713563	 0.315163
C	-0.1911562245	-2.399333641	 1.3736846733	-0.331811
C	-0.7071565223	-2.5199659398	 2.7885996598	-0.062483
C	-2.0332736459	-2.4093162155	 2.8547307834	-0.05923
C	-2.6563500435	-2.1942163928	 1.4946321175	-0.337776
H	 0.9654864076	 1.5013248021	 0.3137216015	 0.125766
H	-0.7906403943	 1.8046323642	 0.3929782893	 0.10704
H	-0.0318067783	 0.6790789172	 1.5483109759	 0.114179
H	-2.2499658078	-0.0390221453	-0.2427437924	 0.075604
H	-2.4346597753	-2.284899205	-1.3861092193	 0.1081
H	-0.610127524	-2.3975691543	-1.4151164054	 0.119593
H	 0.1824436097	-3.3685714085	 1.0112001636	 0.104071
H	 0.6417383759	-1.6955336493	 1.267500191	 0.114662
H	-0.0524043198	-2.7096578749	 3.6321836925	 0.08905
H	-2.6257213189	-2.4922360354	 3.7592754852	 0.089126
H	-3.3684795565	-1.3586405677	 1.4770581939	 0.098655
H	-3.2218885421	-3.0839518122	 1.1786531658	 0.10455
64.4361	132.129	151.0019	174.9574	238.7854	324.6729	367.1503	396.9674	458.9633	495.779	571.8754	697.0927	778.4598	795.2234	803.923	868.348	894.8413	951.1921	974.0668	974.5183	996.9771	1021.4891	1042.5814	1057.4295	1075.6521	1125.7827	1129.5975	1162.9588	1170.5813	1185.6843	1201.4383	1231.7822	1252.7999	1279.7496	1292.17	1352.6584	1369.7783	1409.0369	1471.1697	1484.972	1486.5456	1493.4192	1497.0185	1512.4371	1686.406	2982.9752	2991.1261	2995.8183	3027.6997	3035.748	3059.7867	3066.5889	3118.3005	3122.1216	3180.0571	3205.5274	3210.2391
COC1CC11CC=CC1	CO[C@H]1C[C@]21CC=CC2	
InChI=1S/C8H12O/c1-9-7-6-8(7)4-2-3-5-8/h2-3,7H,4-6H2,1H3	InChI=1S/C8H12O/c1-9-7-6-8(7)4-2-3-5-8/h2-3,7H,4-6H2,1H3/t7-/m0/s1
