19
gdb 70434	2.86009	1.44442	1.25567	2.18	74.69	-0.2402	0.0605	0.3007	1067.1886	0.159076	-422.965458	-422.957355	-422.956411	-422.998196	31.473	
O	-0.1244246898	 1.4003753466	-0.0354436925	-0.448834
C	 0.0660465311	 0.0334914152	 0.0083179189	 0.339888
C	-0.8567783459	-0.8022616257	 0.8320155346	-0.313587
C	 0.6320594845	-0.8950337776	 1.0925917349	-0.139044
C	 1.2705821586	-1.765709587	 0.0049638445	-0.316556
C	 0.7202738779	-0.8034000704	-1.0938632439	 0.232087
C	-0.0350130873	-1.2445655643	-2.3632292283	-0.136895
O	 0.9122188392	-0.5690533612	-3.2182909405	-0.272694
C	 1.6914649773	-0.1361860289	-2.0903871775	-0.142814
H	 0.7332011811	 1.8272494248	-0.1402242267	 0.286082
H	-1.4115421676	-0.2293379974	 1.5678875285	 0.121739
H	-1.402486524	-1.6429584394	 0.4069671881	 0.105489
H	 1.0567121059	-0.6682388084	 2.062357521	 0.092136
H	 2.3639211842	-1.771972838	 0.0305232212	 0.104183
H	 0.9151112968	-2.8009532139	-0.0477508168	 0.099846
H	-0.0566449939	-2.3259446839	-2.5515126475	 0.098188
H	-1.0493046889	-0.8392238778	-2.4700642854	 0.106868
H	 1.755630789	 0.9604620059	-2.0384256435	 0.085702
H	 2.709176202	-0.5494320886	-2.1038727591	 0.098215
74.343	121.8158	193.3519	257.5677	322.9111	352.8395	414.8702	420.5187	480.9554	540.5636	643.2977	778.5414	840.4095	855.9295	863.5714	894.2023	926.014	954.7236	985.987	993.5587	1015.1003	1026.9149	1042.9385	1094.432	1113.2115	1147.5547	1161.7452	1174.1292	1194.5298	1213.7997	1223.8968	1262.1971	1289.3115	1310.617	1339.7175	1385.2545	1411.0108	1482.143	1498.8534	1505.6531	1527.3141	2985.1839	3007.0171	3028.918	3036.3731	3050.4855	3091.9195	3099.0022	3191.5489	3204.4344	3795.1799
OC12CC1CC21COC1	O[C@]12C[C@H]1CC12COC1	
InChI=1S/C7H10O2/c8-7-2-5(7)1-6(7)3-9-4-6/h5,8H,1-4H2	InChI=1S/C7H10O2/c8-7-2-5(7)1-6(7)3-9-4-6/h5,8H,1-4H2/t5-,7-/m1/s1
