19
gdb 40528	3.99595	1.15693	1.11604	1.6944	82.36	-0.2193	0.0031	0.2224	1163.9132	0.160974	-385.833843	-385.826577	-385.825633	-385.865913	29.067	
C	 0.2473321	 1.4391125733	 0.0363524492	-0.18704
O	 1.1788446828	 0.3900109719	-0.1954986919	-0.234824
C	-0.1965554553	 0.0316263262	 0.0528271829	-0.09036
C	-0.4782656648	-0.6964958103	 1.2915254341	 0.418424
C	-1.3583795574	-1.6742136374	 1.5451576608	-0.225971
C	-1.1342500193	-1.9799494446	 3.0317062899	-0.063676
C	-1.0276717085	-0.5245670921	 3.6067077528	-0.210192
C	 0.215383787	-0.4923277548	 2.6509063507	-0.128305
C	 0.4340837945	-1.983819354	 3.0761339538	-0.205977
H	 0.36615154	 1.9757283146	 0.9767044323	 0.113414
H	 0.0106635313	 2.0609159768	-0.826770858	 0.115668
H	-0.7220051899	-0.3330290354	-0.8302108175	 0.091481
H	-2.0674264021	-2.1530265037	 0.8841779543	 0.100172
H	-1.7377016684	-2.7547162982	 3.5033771715	 0.061355
H	-1.8495976429	 0.163046782	 3.3922911273	 0.090949
H	-0.7591211545	-0.4936879299	 4.6674436034	 0.093139
H	 1.0034197358	 0.2555990053	 2.7239329992	 0.070715
H	 0.8399386212	-2.0896454872	 4.0872524815	 0.092834
H	 0.9578589608	-2.6355865822	 2.3735088338	 0.098194
80.2377	134.0394	163.5273	365.8002	424.3283	494.0128	510.1538	609.2862	654.4801	782.8673	787.9025	820.9124	835.0902	851.9106	866.9823	873.8193	909.8605	934.0207	977.4422	1004.2125	1013.8232	1065.2811	1080.0832	1096.7986	1104.4325	1110.4414	1150.3235	1167.7886	1204.0161	1223.6952	1227.9957	1235.0216	1244.2753	1269.9767	1279.891	1339.8573	1408.9803	1478.7725	1515.4874	1520.5035	1681.4469	3042.9702	3052.8689	3077.6491	3107.9303	3113.063	3121.1183	3122.2374	3129.2576	3165.4983	3227.0569
C1OC1C1=CC2CC1C2	C1O[C@H]1C1=C[C@@H]2C[C@H]1C2	
InChI=1S/C8H10O/c1-5-2-6(1)7(3-5)8-4-9-8/h3,5-6,8H,1-2,4H2	InChI=1S/C8H10O/c1-5-2-6(1)7(3-5)8-4-9-8/h3,5-6,8H,1-2,4H2/t5-,6+,8-/m1/s1
