20
gdb 80451	2.43382	1.54083	1.25127	0.9858	79.83	-0.2312	0.0254	0.2566	1129.2853	0.169801	-403.168611	-403.159401	-403.158457	-403.202184	34.411	
C	-0.1039307879	 1.5617674635	 0.1005458498	-0.41474
C	 0.0628826196	 0.0604814801	 0.0750374736	-0.091307
C	 1.3612208971	-0.6372483723	-0.2381607043	-0.002124
O	 2.5529809913	 0.1146636155	-0.0659688738	-0.241861
C	 2.606482588	 0.4178221646	 1.2673172059	 0.372772
C	 3.7685420259	 1.2503260236	 1.6846275451	-0.481751
N	 1.6746158556	-0.0322490841	 2.0129274207	-0.336254
C	 0.759840405	-0.7608942932	 1.1577620694	 0.297793
C	 0.1211429344	-1.9842735948	 1.759840439	-0.471078
H	 0.7312504662	 2.0603877042	 0.5960384805	 0.12937
H	-0.1781973921	 1.9620832302	-0.9161331126	 0.119104
H	-1.0160156228	 1.8375158679	 0.6396329503	 0.121747
H	-0.7860114747	-0.4719483482	-0.3498286339	 0.088292
H	 1.4592073997	-1.4098507373	-0.9913391642	 0.103402
H	 4.70435224	 0.7843521611	 1.3608621096	 0.144724
H	 3.7205575514	 2.2403180259	 1.2196045697	 0.145316
H	 3.7662113509	 1.3610071281	 2.7685220266	 0.152794
H	-0.5293127285	-1.7054517485	 2.595290042	 0.129968
H	-0.4843860031	-2.5152863037	 1.0192474656	 0.111075
H	 0.881390084	-2.6732799227	 2.141797551	 0.122759
124.5275	130.379	149.1867	182.0608	201.4633	235.5663	263.2142	307.7544	381.1324	508.6551	563.9037	594.4034	651.5111	703.5775	754.7246	782.2128	877.0427	915.0098	937.7596	974.7761	1001.5557	1028.6528	1055.8632	1067.7438	1111.538	1118.2401	1130.9125	1162.9248	1237.0808	1270.6068	1300.4914	1353.643	1410.4781	1413.815	1416.9827	1444.7149	1474.292	1478.4431	1480.0941	1489.9116	1498.4892	1502.1848	1709.3759	3034.1388	3039.2696	3049.1918	3096.6739	3101.2912	3105.5374	3109.3226	3120.625	3135.3157	3164.3365	3181.6293
CC1C2OC(C)=NC12C	C[C@H]1[C@H]2OC(=N[C@@]12C)C	
InChI=1S/C7H11NO/c1-4-6-7(4,3)8-5(2)9-6/h4,6H,1-3H3	InChI=1S/C7H11NO/c1-4-6-7(4,3)8-5(2)9-6/h4,6H,1-3H3/t4-,6+,7-/m0/s1
