21
gdb 57776	3.39181	0.71497	0.65166	1.908	90.16	-0.2355	0.0392	0.2747	1815.8285	0.179804	-387.054908	-387.044214	-387.04327	-387.092424	38.649	
C	 0.1574510275	 1.5698787346	-0.1373396411	-0.380948
C	-0.112513137	 0.0732317451	 0.0783208509	-0.019705
O	 0.1881098816	-0.6833703493	-1.095394523	-0.416238
C	 0.5976195508	-0.4365772038	 1.2548106429	 0.100089
C	 1.2191783631	-0.8588446155	 2.1991627132	-0.037058
C	 1.9642528008	-1.3445980821	 3.3312400595	 0.1811
C	 3.0186999167	-0.3916610361	 3.8752102284	-0.455727
C	 1.2309790846	-2.2435552879	 4.3185356656	-0.285389
C	 2.2487083081	-2.8400619043	 3.3901061541	-0.286415
H	 1.2279898728	 1.7479183139	-0.2818747905	 0.114543
H	-0.3792079584	 1.9117804965	-1.0262647942	 0.122884
H	-0.1708464959	 2.1542359325	 0.7272370313	 0.122523
H	-1.1909815589	-0.0692816802	 0.2210524519	 0.113674
H	 1.147967118	-0.7444772911	-1.1546594489	 0.279851
H	 2.5645066945	 0.5486322186	 4.2032023333	 0.126235
H	 3.5352725874	-0.8372339477	 4.731009345	 0.112889
H	 3.7659828417	-0.1567787232	 3.1106499712	 0.123996
H	 1.4897478341	-2.1323274408	 5.3661765034	 0.115875
H	 0.1840036208	-2.4467537529	 4.1290237815	 0.125697
H	 1.8955523924	-3.4500219259	 2.5674983821	 0.126441
H	 3.2080537354	-3.1394426304	 3.7987092133	 0.115684
11.1493	73.8496	91.2798	179.0634	198.136	228.7936	247.825	279.8271	295.8999	339.5871	388.2946	487.0086	505.0978	539.9649	577.4092	635.3887	785.229	803.8306	838.2654	893.3194	941.7038	952.1671	993.8531	1044.6414	1045.7108	1075.0755	1077.8967	1089.4654	1116.7776	1139.8999	1194.0359	1278.1678	1292.7111	1329.8714	1352.8399	1396.231	1414.875	1417.1579	1465.5326	1486.3182	1487.1842	1490.9012	1497.4616	1502.9618	2347.572	3031.5812	3033.6449	3038.5726	3103.8484	3107.2184	3113.3578	3125.5552	3136.1547	3140.6796	3222.268	3236.5902	3805.1737
CC(O)C#CC1(C)CC1	C[C@@H](O)C#CC1(C)CC1	
InChI=1S/C8H12O/c1-7(9)3-4-8(2)5-6-8/h7,9H,5-6H2,1-2H3	InChI=1S/C8H12O/c1-7(9)3-4-8(2)5-6-8/h7,9H,5-6H2,1-2H3/t7-/m1/s1
