21
gdb 116150	2.56987	1.25716	0.97424	3.2709	75.35	-0.2563	0.0848	0.341	1288.4362	0.182762	-461.371333	-461.362285	-461.361341	-461.404989	34.442	
C	-0.0392813408	 1.5228891621	 0.0672747666	-0.403528
C	 0.0449511259	 0.0079546476	-0.0115712748	 0.140425
C	 0.8258311965	-0.5069942886	-1.2259589774	-0.205516
C	 1.0097971074	-2.0190139478	-1.0985800821	-0.093527
O	 1.5706873153	-2.3507982187	 0.1657425102	-0.270048
C	 0.8091346066	-1.8398184299	 1.2423473413	 0.191466
C	 1.5521267463	-2.2263559007	 2.5159394327	-0.072483
O	 2.8984044543	-1.8137032154	 2.4915322376	-0.418914
O	 0.6828238494	-0.4454154802	 1.1838910463	-0.26232
H	 0.9636490917	 1.9577321371	 0.1124547495	 0.129513
H	-0.5553150675	 1.9239781438	-0.8103708013	 0.113897
H	-0.5854260341	 1.8277499265	 0.9638741538	 0.126592
H	-0.9754914497	-0.4160038968	-0.0454796224	 0.062964
H	 0.2967566466	-0.2664734306	-2.1549345095	 0.099023
H	 1.80629046	-0.018426147	-1.2541114679	 0.111473
H	 0.0394896754	-2.5301342357	-1.2156346909	 0.092097
H	 1.6927505906	-2.4146786179	-1.8547512531	 0.113149
H	-0.1974917108	-2.3034710234	 1.2212380739	 0.052169
H	 1.0683356697	-1.7395287745	 3.3676302803	 0.115823
H	 1.4575603347	-3.3171828755	 2.640205512	 0.088584
H	 3.2230353124	-2.0281359045	 1.6087588551	 0.289158
91.9749	120.644	170.5001	226.436	249.9983	265.8127	321.7105	359.5316	405.3761	442.944	472.1477	508.5428	640.8384	701.7717	823.5044	867.2691	898.746	919.6711	961.7351	973.9129	988.094	1049.3047	1068.2588	1098.7985	1122.3219	1158.0403	1175.9351	1190.0607	1237.9282	1248.7396	1279.1972	1338.7778	1352.2622	1375.2241	1386.4652	1399.1998	1406.6886	1414.89	1424.8083	1454.7692	1467.3335	1483.9058	1494.9747	1499.8021	1502.9025	2904.7743	2935.8525	2970.6286	2980.405	3037.8167	3044.2094	3086.897	3092.5764	3094.4236	3118.3388	3123.2083	3792.483
CC1CCOC(CO)O1	C[C@H]1CCO[C@@H](CO)O1	
InChI=1S/C6H12O3/c1-5-2-3-8-6(4-7)9-5/h5-7H,2-4H2,1H3	InChI=1S/C6H12O3/c1-5-2-3-8-6(4-7)9-5/h5-7H,2-4H2,1H3/t5-,6+/m0/s1
