15
gdb 34767	2.19336	1.92353	1.26963	4.0695	74.61	-0.2517	0.0001	0.2518	988.1921	0.112245	-379.592708	-379.584841	-379.583897	-379.625087	29.645	
C	-0.4316186928	-1.1684836617	 0.1240591163	-0.422381
C	-0.2273063934	 0.0160656001	 0.1029912717	 0.338102
C	-0.0389402897	 1.437381601	 0.0819139384	-0.199237
C	 0.5183961094	 2.2045749357	 1.222020402	-0.023691
C	 1.5589692805	 1.3900648204	 1.9849803471	-0.289632
C	 2.3499295181	 1.3518324265	 0.6430588844	-0.097763
C	 2.7973301441	 0.0851427408	 0.0747548837	 0.305694
N	 3.2191088487	-0.8993214122	-0.3596988881	-0.327878
N	 1.2784192039	 2.1283778623	-0.0922293401	-0.159751
H	-0.5807996418	-2.2203747293	 0.1247202227	 0.213138
H	-0.7818326275	 1.9749332402	-0.5024659407	 0.133698
H	 0.066785108	 3.1301313472	 1.5622832646	 0.114094
H	 2.0858409419	 1.9417703747	 2.7630282408	 0.128649
H	 1.2108688698	 0.4340605346	 2.3793357625	 0.142257
H	 3.2206046906	 2.0109160199	 0.6905970048	 0.144702
109.7394	122.5742	165.6474	216.777	319.4424	359.9282	496.8512	512.3669	553.1139	598.4549	629.8178	679.0248	749.6002	759.47	774.5175	843.2329	928.8287	957.1926	995.4899	1040.989	1064.007	1080.3245	1103.4473	1152.4282	1225.5837	1250.6686	1269.8609	1335.5181	1358.1035	1402.9973	1486.6476	2237.9694	2355.337	3078.9841	3087.5894	3142.6651	3148.8323	3176.0186	3499.6723
C#CC1C2CC(C#N)N12	C#C[C@H]1[C@H]2C[C@@H](C#N)N12	
InChI=1S/C7H6N2/c1-2-6-7-3-5(4-8)9(6)7/h1,5-7H,3H2	InChI=1S/C7H6N2/c1-2-6-7-3-5(4-8)9(6)7/h1,5-7H,3H2/t5-,6-,7+,9?/m0/s1
