16
gdb 88509	2.52126	1.38927	1.182	4.6123	69.23	-0.2523	-0.0051	0.2472	1087.8632	0.12302	-437.846082	-437.837675	-437.836731	-437.879363	31.408	
O	 0.0232989829	 1.3050652203	 0.9295800406	-0.423114
C	 0.0227374473	 0.0717648671	 0.2906066535	 0.155029
C	-0.6038189197	-1.1485195505	 0.9044750375	-0.363789
C	-1.232255101	-0.5166889661	-0.3271305704	-0.156929
C	-2.5273898488	 0.2295700153	-0.1991390904	 0.234572
C	-3.6568681869	-0.2661168168	 0.6179435567	-0.20372
O	-2.8203931233	 0.7912262266	 1.0916725918	-0.267554
C	-2.8409400263	 1.1078379065	-1.3168399403	 0.275986
N	-3.0802606418	 1.7754464066	-2.228853172	-0.32314
H	-0.7833465192	 1.3841954727	 1.4523020013	 0.304158
H	 0.9454200994	-0.0538848402	-0.2655993963	 0.119779
H	-0.1246720615	-2.1151895116	 0.7971926346	 0.123638
H	-1.1178894544	-0.9987753534	 1.8487414618	 0.128061
H	-1.1271754926	-1.034950903	-1.2753061043	 0.112196
H	-4.6729888104	 0.0305975112	 0.3706569539	 0.147537
H	-3.5371001338	-1.2212111748	 1.1240820721	 0.137292
57.1577	138.542	172.0551	242.7164	246.7288	334.8676	388.948	409.8287	480.2512	521.7677	578.2178	610.264	704.659	791.1869	804.8804	857.4524	869.9901	935.0654	994.2264	1033.8809	1068.739	1077.6333	1121.6239	1133.4701	1135.3161	1174.6402	1200.3306	1226.7181	1342.3596	1351.9777	1395.9893	1445.1265	1483.035	1512.7992	2362.3644	3104.618	3132.1762	3157.9919	3175.5988	3205.2799	3222.172	3796.9806
OC1CC1C1(CO1)C#N	O[C@H]1C[C@H]1[C@]1(CO1)C#N	
InChI=1S/C6H7NO2/c7-2-6(3-9-6)4-1-5(4)8/h4-5,8H,1,3H2	InChI=1S/C6H7NO2/c7-2-6(3-9-6)4-1-5(4)8/h4-5,8H,1,3H2/t4-,5+,6-/m1/s1
