18
gdb 88132	2.79305	1.43504	1.09156	3.3099	73.68	-0.2562	0.006	0.2622	1140.2988	0.147675	-439.090551	-439.082139	-439.081195	-439.123789	31.335	
C	 0.0798842446	 1.4598947579	-0.3274041528	-0.425927
C	 0.1078732268	-0.0154400422	-0.0248861106	 0.00729
O	 1.3925011552	-0.6234344369	 0.1773623511	-0.289888
C	 0.4842383244	-0.5569703093	 1.2847170872	 0.311916
C	 0.8875383569	 0.2161410241	 2.5270029757	-0.330861
C	 1.0968227073	-0.9162883558	 3.5441398314	-0.095554
O	 0.2468165396	-1.9973774902	 3.1103765836	-0.246027
C	-0.0553368288	-1.8698038385	 1.7868006681	 0.37254
N	-0.6973153044	-2.7071602595	 1.0956520555	-0.542076
H	 0.7601795972	 2.0173789746	 0.3209185734	 0.123667
H	 0.3750524998	 1.6376093941	-1.3664691498	 0.136105
H	-0.9334113862	 1.8544540848	-0.1963404034	 0.127817
H	-0.568440265	-0.6377275707	-0.6111212006	 0.121826
H	 1.7853482839	 0.814048252	 2.3681994231	 0.131187
H	 0.0756417613	 0.8767498351	 2.8487438303	 0.123225
H	 2.1346888846	-1.2684658383	 3.5520564882	 0.124984
H	 0.8047088512	-0.6567376946	 4.563442128	 0.124076
H	-0.9343015283	-3.5328636967	 1.6475681715	 0.225701
75.2808	161.8411	166.6062	179.4657	191.1845	310.6629	356.977	452.1056	519.9918	549.4376	674.7581	689.5234	705.5761	792.3729	859.5014	886.6409	920.7136	956.3664	979.7153	1004.447	1016.8173	1073.2077	1098.6319	1131.6464	1151.5737	1210.4406	1219.3498	1238.452	1303.1046	1306.6589	1354.0505	1405.2391	1411.1508	1470.458	1476.2117	1488.7529	1514.9656	1524.0273	1779.2412	3039.9571	3041.667	3056.2782	3104.2099	3112.1063	3113.8482	3131.5685	3135.7391	3479.4362
CC1OC11CCOC1=N	C[C@H]1O[C@]21CCO[C]2[NH]	
InChI=1S/C6H9NO2/c1-4-6(9-4)2-3-8-5(6)7/h4,7H,2-3H2,1H3	InChI=1S/C6H9NO2/c1-4-6(9-4)2-3-8-5(6)7/h4,7H,2-3H2,1H3/t4-,6+/m1/s1
