17
gdb 84410	3.18751	1.31565	0.99162	2.3072	79.51	-0.2423	-0.0286	0.2136	1184.7005	0.137392	-414.217941	-414.209559	-414.208615	-414.251217	30.776	
C	-0.0575962284	 1.5536457912	 0.0050993939	-0.38109
C	 0.0461037047	 0.0270532592	 0.0077389995	-0.04158
N	 0.8092633731	-0.47561206	-1.146672014	-0.253857
C	 1.7710426901	-1.165767345	-0.6859982365	 0.069762
N	 1.8380017482	-1.2628128066	 0.7181666145	-0.117724
C	 2.80341966	-1.95549913	 1.4260202655	 0.086657
N	 3.7340843246	-2.5875324161	 0.8365108242	-0.452044
C	 0.7575016676	-0.5172161929	 1.246636795	 0.371442
N	 0.4072328047	-0.3035300703	 2.4441932524	-0.539625
H	 0.9377861397	 2.007290925	 0.010571381	 0.122998
H	-0.5856070394	 1.8911613299	-0.8896469191	 0.131908
H	-0.5970096083	 1.8856002844	 0.8952189251	 0.14292
H	-0.9644412194	-0.3972390175	-0.0361355145	 0.12619
H	 2.5278808093	-1.6770649067	-1.2667252356	 0.171555
H	 2.6589756147	-1.8863065925	 2.5090833473	 0.105522
H	 4.3477159888	-3.0347188939	 1.5138311505	 0.23876
H	 1.0112729401	-0.7498013581	 3.1344794308	 0.218207
67.5157	135.2814	191.3412	212.9713	228.6188	254.5799	324.196	405.6624	548.4077	584.4859	648.5547	697.5285	756.7198	816.4032	831.0398	850.938	905.0516	944.6885	959.4251	1052.4582	1069.949	1107.9202	1121.6773	1148.0473	1212.9366	1254.5275	1293.3892	1317.9513	1322.4348	1395.2452	1403.0188	1436.9433	1487.9647	1495.3611	1694.7042	1718.1508	1760.197	3038.9877	3050.1011	3067.4145	3125.7745	3140.4247	3237.1136	3473.0695	3518.841
CC1N=CN(C=N)C1=N	C[C@H]1N=CN([CH][NH])[C]1[NH]	
InChI=1S/C5H8N4/c1-4-5(7)9(2-6)3-8-4/h2-4,6-7H,1H3	InChI=1S/C5H8N4/c1-4-5(7)9(2-6)3-8-4/h2-4,6-7H,1H3/t4-/m1/s1
