13
gdb 31907	3.8596	1.12138	0.87376	5.5595	71.79	-0.2387	-0.0534	0.1853	1225.4715	0.089469	-452.770668	-452.762775	-452.76183	-452.803984	27.371	
C	-0.1962832121	 1.448342913	 0.0116947181	-0.256169
O	-0.0634259606	 0.0193910432	 0.0044628443	-0.26258
C	-1.1699383035	-0.7009003093	 0.011238582	 0.42222
C	-1.3706811512	-2.0547211365	 0.0093525716	-0.224756
N	-2.7249874883	-2.2909726628	 0.0189379518	-0.277731
C	-3.2801120879	-1.1179556522	 0.0260333735	 0.275506
O	-2.3720069238	-0.0804839802	 0.0218280962	-0.208397
C	-4.6512593484	-0.7807407366	 0.0373930995	 0.261689
N	-5.7728322833	-0.4921859511	 0.0465577724	-0.330692
H	 0.8225930936	 1.8330096967	 0.0049982091	 0.155101
H	-0.7353186603	 1.7916216308	-0.8756781842	 0.151442
H	-0.7206843766	 1.7839387888	 0.9107079464	 0.151402
H	-0.6381361875	-2.8431690539	 0.0019111992	 0.142964
61.5698	134.2899	137.9206	175.4589	251.029	315.2606	482.9055	502.2815	554.1986	601.6037	698.1482	712.8339	716.4413	811.6138	969.2868	992.4034	1059.4791	1125.5881	1175.7638	1203.7739	1265.8438	1312.8391	1371.1747	1472.7469	1488.3267	1497.3868	1561.9295	1647.6697	2346.8241	3046.8798	3122.3725	3168.7781	3287.9421
COC1=CN=C(O1)C#N	COc1cnc(o1)C#N	
InChI=1S/C5H4N2O2/c1-8-5-3-7-4(2-6)9-5/h3H,1H3	InChI=1S/C5H4N2O2/c1-8-5-3-7-4(2-6)9-5/h3H,1H3
