20
gdb 38227	3.07585	2.06306	1.72206	1.2624	82.5	-0.2168	0.0683	0.2851	878.2447	0.17503	-365.900096	-365.894046	-365.893102	-365.929883	27.67	
C	 0.0034626428	 1.7635492357	 0.0669435594	-0.230322
C	 1.4842251744	 1.4579052183	 0.0624389702	-0.050735
C	 1.1044461731	 0.2206086896	 1.0073447195	-0.321693
C	-0.0893618308	 0.1754005804	-0.0197039308	 0.315046
C	-1.4600258268	-0.2085849842	-0.5487079338	-0.317345
C	-1.2644520668	 0.4819102675	-1.9717548109	-0.24274
C	 0.2812692459	 0.4437074292	-2.2202623559	-0.061365
C	 1.5464772069	 0.817728086	-1.3534021778	-0.061493
N	 0.7784412074	-0.3993339797	-1.1536193894	-0.096199
H	-0.3928586714	 2.0613206211	 1.0405589716	 0.090084
H	-0.3841267461	 2.4150564007	-0.7124028179	 0.100973
H	 2.2518788566	 2.1827117466	 0.3345794972	 0.065219
H	 1.7538801566	-0.6550495901	 1.0146811473	 0.11341
H	 0.8607965335	 0.5496447137	 2.0183796506	 0.10119
H	-1.6133823021	-1.2848003424	-0.6602375734	 0.111057
H	-2.2928199357	 0.221223421	 0.0117216973	 0.099205
H	-1.7224623358	-0.1265538508	-2.7579637424	 0.106955
H	-1.7326628386	 1.4668593808	-2.0184128641	 0.111208
H	 0.5668048913	 0.1378648968	-3.2275169896	 0.084911
H	 2.4984647355	 0.7249947496	-1.8760094771	 0.082634
308.1736	321.7114	390.7972	467.8507	540.5459	571.7154	628.0337	636.517	683.3479	739.0297	750.3254	809.1192	837.8109	859.3099	865.3182	909.2214	936.9911	940.4843	970.3628	981.9567	1011.8498	1040.2534	1063.1432	1076.3165	1086.3321	1095.6275	1142.5907	1160.952	1192.0898	1205.2449	1207.974	1219.771	1225.5193	1259.9667	1268.706	1281.144	1312.0133	1344.1351	1361.6254	1478.6739	1484.1304	1500.0078	1527.0374	3056.2011	3067.8282	3073.7695	3083.8828	3092.5813	3102.3501	3105.3901	3118.1671	3125.7052	3153.8021	3155.7144
C1C2CC11CCC3C2N13	C1[C@H]2C[C@]31CC[C@H]1[C@@H]2N31	
InChI=1S/C8H11N/c1-2-8-3-5(4-8)7-6(1)9(7)8/h5-7H,1-4H2	InChI=1S/C8H11N/c1-2-8-3-5(4-8)7-6(1)9(7)8/h5-7H,1-4H2/t5-,6-,7+,8+,9?/m0/s1
