17
gdb 49326	2.10555	1.66982	1.06826	2.535	74.57	-0.2495	-0.0439	0.2056	1126.423	0.133414	-421.824599	-421.816046	-421.815102	-421.859111	31.254	
O	-0.3702135151	 0.5389470616	 0.6818355342	-0.238923
C	 0.3119616926	 0.9623560606	-0.2154999737	 0.148006
C	 1.3544945413	 2.047320197	-0.0921684427	-0.316837
C	 0.9713642314	 3.3809770804	-0.8159880027	 0.398622
O	 0.6663610521	 3.6383412723	-1.9402004419	-0.279751
C	 1.1427668541	 4.1903114842	 0.4754415382	-0.425106
C	 1.5116886163	 2.8774378459	 1.1926157171	 0.352382
C	 1.1253178307	 2.4910591793	 2.589976878	-0.309922
C	 2.5772986149	 2.7071600919	 2.2368904426	-0.326314
H	 0.2042104719	 0.5791786071	-1.2541247176	 0.098766
H	 2.2904065369	 1.6583516394	-0.5170685549	 0.126614
H	 1.9293849808	 4.9495101004	 0.4095189449	 0.136788
H	 0.2175385665	 4.6757044629	 0.805153967	 0.141848
H	 0.6314787113	 3.2454346658	 3.194185119	 0.115247
H	 0.7738624863	 1.4812023749	 2.7542260413	 0.144667
H	 3.2224818559	 1.8366069792	 2.1713916434	 0.117653
H	 3.071310382	 3.6006541171	 2.6052318378	 0.116259
23.543	83.999	172.0937	200.2643	258.7418	289.0398	370.1062	439.8114	495.667	535.7886	643.5856	727.3358	770.4502	806.0471	825.8142	895.8617	908.3623	955.0076	974.8797	1025.5099	1042.8776	1061.704	1068.1677	1084.6119	1119.2436	1167.7601	1188.9416	1207.3185	1242.4706	1281.033	1377.337	1424.2623	1438.1879	1468.8099	1504.9142	1816.3059	1898.2	2892.655	3024.8635	3043.4333	3093.023	3123.8881	3141.3561	3206.461	3242.3885
O=CC1C(=O)CC11CC1	O=C[C@H]1C(=O)CC21CC2	
InChI=1S/C7H8O2/c8-4-5-6(9)3-7(5)1-2-7/h4-5H,1-3H2	InChI=1S/C7H8O2/c8-4-5-6(9)3-7(5)1-2-7/h4-5H,1-3H2/t5-/m0/s1
