18
gdb 24049	6.43867	0.72039	0.68112	1.5471	86.09	-0.2004	0.0372	0.2376	1624.2371	0.148095	-364.818948	-364.810151	-364.809207	-364.853381	32.75	
C	 0.019065187	-1.2371286854	 0.1145380165	-0.443121
C	-0.0183400471	-0.035470667	 0.110261353	 0.295518
C	-0.0168819183	 1.421512099	 0.0987683894	-0.339853
C	 1.3997749849	 2.0202504881	-0.1252544696	-0.319067
C	 1.4132489984	 3.5143729292	-0.1285717473	 0.302015
C	 1.4334953338	 4.4195861864	-1.1684957755	-0.227076
C	 1.3922013616	 5.7290325445	-0.613109946	-0.133986
C	 1.3469884738	 5.591431452	 0.7535067	-0.098633
N	 1.3557692833	 4.2477346411	 1.0362861802	-0.28334
H	 0.0349414433	-2.298652309	 0.1186203215	 0.194378
H	-0.6847142008	 1.7923370619	-0.6876873079	 0.139747
H	-0.426394268	 1.7984459793	 1.0443901236	 0.123955
H	 2.0714746598	 1.6239949325	 0.6462496682	 0.110882
H	 1.7838578079	 1.658778006	-1.0829825365	 0.128259
H	 1.4765799144	 4.1625857227	-2.2164522501	 0.088694
H	 1.4011291804	 6.6624918286	-1.1544541906	 0.091738
H	 1.316192932	 6.325047986	 1.5429477184	 0.113527
H	 1.3549851236	 3.854245174	 1.9614336325	 0.256364
56.4066	60.5629	93.121	179.841	310.4481	345.9923	365.5901	468.32	486.2634	619.5708	629.5626	640.607	668.0969	709.9069	740.0915	762.2539	797.8083	852.2831	896.0459	964.242	973.2137	1005.0011	1008.0569	1056.2939	1117.2122	1142.8747	1170.3557	1256.146	1280.6293	1287.7301	1321.5366	1362.5817	1439.3005	1459.2041	1473.0013	1488.5907	1501.2113	1615.8803	2237.081	3025.5304	3033.236	3061.1151	3099.2162	3238.3889	3251.7432	3271.2214	3507.2698	3675.3707
C#CCCC1=CC=CN1	C#CCCc1ccc[nH]1	
InChI=1S/C8H9N/c1-2-3-5-8-6-4-7-9-8/h1,4,6-7,9H,3,5H2	InChI=1S/C8H9N/c1-2-3-5-8-6-4-7-9-8/h1,4,6-7,9H,3,5H2
