21
gdb 126588	5.24243	0.65647	0.63283	1.8947	85.53	-0.2381	0.0284	0.2665	1841.6536	0.184138	-383.305943	-383.296592	-383.295648	-383.341569	33.971	
C	-0.3305585137	 1.5075258387	 0.0838146942	-0.381439
C	 0.0986243492	 0.0427788754	-0.0367837934	-0.159863
C	 0.6406783798	-0.5346377496	 1.2743052139	-0.152682
C	 1.0730670993	-2.0074790453	 1.1531727898	-0.30978
C	 1.5978645	-2.5778266948	 2.4364771526	 0.344222
N	 2.9060314815	-2.7700020656	 2.6086019636	-0.291141
N	 3.0188849521	-3.2560643907	 3.8610438564	-0.181264
C	 1.8270195848	-3.382395882	 4.4913048619	-0.019006
C	 0.8731466508	-2.949609991	 3.5971699957	-0.278176
H	 0.5099495767	 2.1421728449	 0.3859501982	 0.114235
H	-0.7133203906	 1.8925381491	-0.8667038834	 0.10967
H	-1.1201632109	 1.628414251	 0.8340214476	 0.11194
H	-0.7531772956	-0.5627473657	-0.3749486208	 0.091761
H	 0.8648260765	-0.0520664474	-0.8176845433	 0.095802
H	 1.4981280536	 0.0601102901	 1.6144439022	 0.10229
H	-0.1227272842	-0.4431542879	 2.0585233054	 0.092056
H	 0.2190569699	-2.6039902617	 0.8069122879	 0.099057
H	 1.8553380477	-2.0985811898	 0.3923140967	 0.113326
H	 3.931444932	-3.4903427948	 4.2117594334	 0.272404
H	 1.7537528298	-3.7641945342	 5.49751546	 0.129024
H	-0.1928150588	-2.9100699585	 3.7543345914	 0.097562
31.9983	82.0754	90.501	121.34	239.6884	243.7333	321.3341	341.7273	433.0774	495.8064	660.3165	697.6876	735.6112	753.8433	774.2163	795.8514	841.0938	908.6884	931.1656	946.6676	987.0387	1016.2691	1062.4017	1068.8897	1086.5179	1119.3921	1122.9296	1207.5726	1239.2926	1277.4267	1295.1765	1315.4433	1330.1917	1362.0541	1395.2348	1408.0676	1412.5944	1471.2047	1481.2619	1486.0886	1492.2507	1499.3816	1499.54	1512.7173	1575.5434	3010.0448	3016.2472	3024.7506	3028.7491	3035.8205	3057.2285	3083.8094	3095.4067	3099.8411	3252.6281	3271.6821	3680.3209
CCCCC1=NNC=C1	CCCCc1n[nH]cc1	
InChI=1S/C7H12N2/c1-2-3-4-7-5-6-8-9-7/h5-6H,2-4H2,1H3,(H,8,9)	InChI=1S/C7H12N2/c1-2-3-4-7-5-6-8-9-7/h5-6H,2-4H2,1H3,(H,8,9)
