22
gdb 75436	2.40518	1.46266	1.15646	1.9858	83.51	-0.2364	0.0384	0.2748	1197.9436	0.193409	-404.392003	-404.382445	-404.381501	-404.425789	36.614	
C	 0.0447984436	 1.4676340435	 0.1005092549	-0.450372
C	-0.009650146	-0.0224695007	-0.0774859507	 0.390383
N	 0.0561961746	-0.5596122598	-1.2251673152	-0.306402
C	 0.0445934259	-2.0123067195	-1.3212204629	-0.173427
C	 0.398083796	-2.7126648688	-0.0064685966	-0.242319
C	-0.3587283854	-2.0702174798	 1.1622353097	 0.362403
C	-1.8728478171	-2.3018770015	 1.0799171461	-0.414388
C	 0.1885069494	-2.5319756718	 2.5105537515	-0.419604
O	-0.1249236387	-0.6368928669	 1.1340672884	-0.296837
H	 0.8754867829	 1.7395475142	 0.75976774	 0.134134
H	 0.1715461156	 1.9468504719	-0.8693190778	 0.141384
H	-0.8735803774	 1.8285621884	 0.5749313273	 0.132539
H	-0.9431951861	-2.3330185045	-1.6799178667	 0.107169
H	 0.7512261128	-2.3057755235	-2.1060375392	 0.106502
H	 0.172976554	-3.7833739434	-0.0543606539	 0.0975
H	 1.473381141	-2.6140196211	 0.1821256497	 0.104357
H	-2.1008397617	-3.3705751788	 1.144801326	 0.115703
H	-2.3755943726	-1.7911976514	 1.9059067617	 0.122973
H	-2.2866519953	-1.919353791	 0.1435168539	 0.129971
H	 1.2606369341	-2.3284230328	 2.5797372823	 0.120904
H	-0.3145404663	-2.0072092423	 3.3279026792	 0.122216
H	 0.0296791668	-3.6070589103	 2.6386317023	 0.11521
87.4988	132.6808	170.5692	208.2488	235.8638	274.4411	293.0829	328.0049	337.6168	426.6253	451.8868	502.2849	514.0553	614.4669	656.646	742.1714	855.5172	884.4202	896.4463	928.1242	947.1452	1000.6681	1010.5662	1035.3493	1056.5852	1067.8831	1118.5211	1153.3144	1202.1714	1252.4694	1271.9122	1280.3119	1288.6261	1367.3537	1378.6926	1399.4657	1408.092	1417.5528	1471.1334	1475.6392	1477.1495	1480.8107	1489.1311	1495.0892	1496.5294	1513.6775	1747.2164	3010.8915	3032.6263	3039.8219	3045.3119	3046.2616	3051.4399	3082.1491	3102.4971	3112.3571	3119.2248	3119.4349	3125.121	3165.7792
CC1=NCCC(C)(C)O1	CC1=NCCC(C)(C)O1	
InChI=1S/C7H13NO/c1-6-8-5-4-7(2,3)9-6/h4-5H2,1-3H3	InChI=1S/C7H13NO/c1-6-8-5-4-7(2,3)9-6/h4-5H2,1-3H3
