20
gdb 85425	2.25356	1.54832	1.22747	4.9956	74.67	-0.2572	0.058	0.3152	1125.6587	0.170491	-440.358072	-440.348957	-440.348013	-440.391326	35.174	
C	 0.1282674889	 1.6171994375	-0.238739642	-0.413742
C	-0.0545107614	 0.1281969551	 0.0683762028	-0.009014
N	 0.4876634832	-0.7282010152	-0.9758835114	-0.365472
C	 1.7526941616	-1.1784592423	-0.6574569076	 0.456234
O	 2.5617215108	-1.686276591	-1.383454783	-0.396099
O	 1.9536141708	-0.9633284839	 0.6752008826	-0.271648
C	 0.7443871523	-0.4406933484	 1.2869740662	 0.362779
C	 1.1648925613	 0.5802050976	 2.3355338419	-0.434121
C	-0.0077229329	-1.6140749289	 1.9224265301	-0.417904
H	 1.1839462746	 1.8707831194	-0.3740961743	 0.136741
H	-0.3999281174	 1.8727047856	-1.1634110716	 0.118083
H	-0.2823386143	 2.2428247199	 0.5590353686	 0.125233
H	-1.120842076	-0.0791759243	 0.2139882809	 0.088488
H	 0.2962780177	-0.5582100111	-1.950616888	 0.2551
H	 1.7800167246	 1.3711032993	 1.9022509179	 0.13017
H	 0.2870278879	 1.0344230233	 2.8051564996	 0.12001
H	 1.7492595843	 0.0853833585	 3.115852574	 0.133365
H	 0.6404287051	-2.1325915781	 2.6335973791	 0.131261
H	-0.8946290125	-1.2578287902	 2.456201886	 0.115872
H	-0.3265268987	-2.328291463	 1.1583969682	 0.134666
100.4507	127.4768	225.8965	248.1931	268.5472	275.8291	324.9178	334.7938	353.1693	441.1305	487.6622	528.624	550.5095	607.2809	712.8431	752.6633	775.0982	897.9029	928.5233	947.5234	971.5418	999.0902	1013.0282	1039.1607	1096.0388	1144.583	1180.8988	1203.4875	1239.5153	1290.9857	1346.8335	1391.6265	1401.5336	1410.9146	1411.9222	1426.4045	1474.6795	1483.1167	1491.6628	1495.3146	1504.0593	1512.6906	1887.9218	3033.9433	3037.5517	3041.4583	3050.7299	3105.0508	3113.9426	3118.4735	3122.0047	3127.9999	3136.8873	3642.8558
CC1NC(=O)OC1(C)C	C[C@H]1NC(=O)OC1(C)C	
InChI=1S/C6H11NO2/c1-4-6(2,3)9-5(8)7-4/h4H,1-3H3,(H,7,8)	InChI=1S/C6H11NO2/c1-4-6(2,3)9-5(8)7-4/h4H,1-3H3,(H,7,8)/t4-/m1/s1
