15
gdb 123704	4.08284	1.71182	1.32492	2.5922	70.14	-0.2174	0.0314	0.2488	915.4227	0.116066	-416.795701	-416.789598	-416.788654	-416.826139	24.792	
C	-0.0418099792	 1.4622779859	 0.1428962694	-0.337254
C	 1.2749983864	 0.7399692044	 0.0194607202	 0.064722
O	 2.0056925474	 0.4314279183	 1.2073480487	-0.271967
C	 1.2136021228	-0.4020122116	 1.9273838279	 0.469923
C	 1.1805599342	-1.0138457083	 3.158330441	-0.39934
C	-0.0571559786	-1.7134423072	 3.1142208022	 0.019962
N	-0.7377046243	-1.5371064778	 1.9801192452	-0.307205
N	 0.0870638152	-0.7372585525	 1.2623329286	 0.018351
C	-0.0207285038	-0.0499658632	 0.0163450344	-0.024072
H	-0.3252430609	 1.8850998166	 1.1000210085	 0.146845
H	-0.3520545466	 2.0269123783	-0.7295339449	 0.133302
H	 1.9241516744	 0.8722187709	-0.8350948509	 0.12786
H	 1.9088868122	-0.9790460729	 3.9489993007	 0.114368
H	-0.4729935524	-2.3487033565	 3.8831989281	 0.112658
H	-0.4314296569	-0.5881949944	-0.8279342792	 0.131848
123.9975	257.7066	365.2971	451.5415	470.8045	646.687	655.1488	699.1601	726.2715	755.6599	779.6101	791.8364	825.4248	879.6006	946.1261	963.7553	976.3805	1036.4287	1046.5848	1064.391	1083.7561	1123.4994	1160.7995	1187.3634	1213.0788	1280.0923	1341.399	1355.8694	1394.8766	1431.4281	1461.2368	1512.2721	1615.5688	3139.4611	3200.7836	3214.585	3236.0023	3241.8131	3290.7361
C1C2OC3=CC=NN3C12	C1[C@H]2Oc3ccnn3[C@@H]12	
InChI=1S/C6H6N2O/c1-2-7-8-4-3-5(4)9-6(1)8/h1-2,4-5H,3H2	InChI=1S/C6H6N2O/c1-2-7-8-4-3-5(4)9-6(1)8/h1-2,4-5H,3H2/t4-,5+/m0/s1
