19
gdb 36429	4.10509	0.97747	0.91023	1.6578	80.48	-0.243	0.0511	0.2941	1316.4527	0.158788	-385.816962	-385.808519	-385.807575	-385.850849	31.95	
C	-0.0334052328	-1.1603261239	-0.2482861993	-0.44057
C	-0.0496902437	 0.0361834664	-0.1334728726	 0.299426
C	-0.030409087	 1.487961555	 0.0056334679	-0.383497
C	 1.3974492983	 2.0435184115	 0.0958761876	 0.025909
C	 2.2961560828	 1.9913029807	-1.1829943001	-0.252664
C	 2.5305294397	 3.5139064844	-1.0639260723	 0.124588
O	 1.5975118847	 4.2844723112	-1.8507271904	-0.290444
C	 0.7232206263	 4.4705662182	-0.7141586124	-0.082855
C	 1.6047399438	 3.5869615841	 0.185120657	-0.121549
H	-0.0339407189	-2.216838471	-0.3525524549	 0.194881
H	-0.5538416744	 1.9360353077	-0.8481728397	 0.135604
H	-0.59585237	 1.7795148083	 0.9011351582	 0.127818
H	 1.9007683874	 1.5581857232	 0.9363630723	 0.089052
H	 3.1910974374	 1.3740624361	-1.0750562601	 0.10442
H	 1.7842575549	 1.7149442889	-2.1079305631	 0.115474
H	 3.5500838329	 3.9031059307	-1.125647405	 0.075973
H	 0.6929180116	 5.5234028452	-0.4047410106	 0.101127
H	-0.3025266461	 4.1382938402	-0.915559668	 0.101234
H	 1.8930149332	 3.9948851632	 1.1532993353	 0.076074
53.0955	69.1972	123.1848	242.1023	319.8582	349.418	383.3393	465.1984	480.1368	620.7294	636.7227	667.4299	764.994	783.196	845.66	867.8956	923.1534	927.259	951.6709	996.5946	1006.4382	1016.1794	1068.5148	1077.2251	1107.4362	1142.7816	1162.2557	1186.9703	1210.2845	1246.0187	1254.3981	1275.4794	1299.8921	1316.6545	1339.9427	1359.9734	1379.9418	1463.8606	1475.7244	1526.7157	2237.7952	3009.0168	3015.2415	3045.5801	3051.6746	3063.0385	3069.8957	3075.1162	3114.513	3123.6683	3506.8703
C#CCC1CC2OCC12	C#CC[C@H]1C[C@H]2OC[C@@H]12	
InChI=1S/C8H10O/c1-2-3-6-4-8-7(6)5-9-8/h1,6-8H,3-5H2	InChI=1S/C8H10O/c1-2-3-6-4-8-7(6)5-9-8/h1,6-8H,3-5H2/t6-,7-,8+/m0/s1
