21
gdb 92279	2.57005	1.56634	1.45735	1.5675	81.64	-0.2384	0.0197	0.2581	1044.5573	0.185062	-387.116494	-387.108592	-387.107648	-387.14916	31.334	
C	 0.7094205265	 1.2495402603	 0.3809945499	-0.396376
C	-0.015287245	-0.0139101109	-0.090996474	 0.129075
C	 0.6200006193	-0.6931608607	-1.3237835779	-0.250721
C	 1.5290955984	-1.8018517849	-0.7466247892	-0.037978
C	 3.0476610371	-1.4787484901	-0.6534869835	-0.274197
C	 3.3259374223	-1.4099134693	 0.8273784479	-0.062087
C	 2.2469949819	-1.6565241423	 1.5664251525	-0.084063
C	 1.0267207141	-1.9490560041	 0.7249791571	 0.073496
O	-0.0473416881	-1.0254577407	 0.9178912499	-0.27569
H	 1.7735775935	 1.0659090688	 0.5502783768	 0.123041
H	 0.6085578562	 2.0467127017	-0.3640171546	 0.10532
H	 0.2726626099	 1.6008219186	 1.3203221783	 0.119879
H	-1.0629786854	 0.2431452012	-0.2871292875	 0.07539
H	-0.1649475033	-1.1382293997	-1.9416970218	 0.102248
H	 1.1670198047	 0.0157713748	-1.951423386	 0.099321
H	 1.3832551831	-2.7296590636	-1.302049287	 0.076781
H	 3.652853341	-2.2556293046	-1.1375543773	 0.107063
H	 3.3091370812	-0.53958418	-1.1585448944	 0.103534
H	 4.3114171261	-1.1758646976	 1.2177467378	 0.093811
H	 2.2030733264	-1.6537838041	 2.6497075701	 0.09646
H	 0.61264033	-2.939764093	 0.9489557931	 0.075692
54.6204	122.5071	230.3577	257.4883	333.0114	379.5853	416.0978	476.507	581.7663	690.5264	737.0138	754.8946	790.4651	823.6703	854.2166	866.3035	912.8743	926.4315	961.6148	983.8873	1002.2315	1014.4057	1043.5344	1070.9645	1087.6104	1124.1718	1126.7899	1133.4653	1193.2867	1218.4236	1248.6303	1284.5301	1306.5668	1320.9435	1345.9062	1346.7342	1362.8151	1381.9977	1392.0174	1407.0549	1482.5062	1486.6027	1498.0004	1501.6614	1688.4356	3017.9065	3023.9174	3029.3723	3036.6446	3040.6755	3057.042	3087.3925	3101.4539	3106.8489	3126.3082	3175.7028	3206.5599
CC1CC2CC=CC2O1	C[C@H]1C[C@H]2CC=C[C@H]2O1	
InChI=1S/C8H12O/c1-6-5-7-3-2-4-8(7)9-6/h2,4,6-8H,3,5H2,1H3	InChI=1S/C8H12O/c1-6-5-7-3-2-4-8(7)9-6/h2,4,6-8H,3,5H2,1H3/t6-,7+,8+/m0/s1
