17
gdb 14573	13.40017	0.60193	0.58433	3.4392	75.47	-0.27	0.0327	0.3027	1782.4476	0.140463	-326.716451	-326.707233	-326.706288	-326.75121	31.904	
C	-0.0163813501	-1.2419687419	-0.0042552191	-0.429391
C	-0.0342800462	-0.0403296151	 0.0023528909	 0.288852
C	-0.0201996031	 1.4171018281	 0.0104490494	-0.36026
C	 1.4065623307	 2.0018605901	-0.0008815237	-0.180389
C	 1.4059735873	 3.5323339438	 0.0077196094	-0.180957
C	 2.8360957109	 4.1078928239	-0.003580364	-0.346449
C	 2.8544002605	 5.5690501901	 0.0047048082	 0.257499
N	 2.849067945	 6.7245694345	 0.0108658656	-0.302589
H	-0.0156881708	-2.3036915301	-0.0098592994	 0.197505
H	-0.576062664	 1.7934862374	-0.858478613	 0.134594
H	-0.5580835036	 1.7835955991	 0.8947792444	 0.134607
H	 1.954013197	 1.6212898104	 0.8694965897	 0.115865
H	 1.9360420359	 1.6311421733	-0.8864945909	 0.115865
H	 0.8607074178	 3.9146316035	-0.8627832091	 0.123422
H	 0.8785948647	 3.9047630141	 0.8933884146	 0.123415
H	 3.3968383044	 3.7488164311	 0.8675091566	 0.154195
H	 3.3789237538	 3.7587848278	-0.8899560994	 0.154215
48.1469	81.2729	101.0093	124.9824	156.1345	292.9025	336.6229	348.346	400.0102	503.4082	572.5389	621.5734	643.4141	732.9393	776.4685	904.6896	922.9464	959.3397	1024.9024	1054.514	1059.0288	1107.0573	1167.157	1248.6312	1274.5557	1320.3929	1322.4286	1327.4606	1373.9346	1396.866	1467.6405	1474.1843	1487.7113	1506.1681	2241.0877	2363.3276	3015.3733	3031.4439	3036.207	3042.5323	3046.1672	3062.1942	3075.8311	3095.1755	3507.5332
C#CCCCCC#N	C#CCCCCC#N	
InChI=1S/C7H9N/c1-2-3-4-5-6-7-8/h1H,3-6H2	InChI=1S/C7H9N/c1-2-3-4-5-6-7-8/h1H,3-6H2
