19
gdb 95299	2.04438	1.84826	1.43363	2.1294	69.74	-0.2408	0.0557	0.2965	1009.1729	0.159309	-460.146727	-460.138338	-460.137394	-460.179517	32.745	
O	 0.0610323811	 1.373578912	-0.2578644938	-0.435404
C	-0.0106944887	-0.0039201806	 0.0661093678	 0.021637
C	 0.3724837387	-0.3542514674	 1.5169496569	-0.135506
O	-0.3124845231	-1.5645030578	 1.8039576639	-0.257045
C	-1.577255283	-1.4919936741	 1.160925563	 0.079997
C	-2.6262781462	-0.5434315072	 1.8146271029	-0.249889
C	-2.5510712252	 0.3971579078	 0.5773938449	-0.29354
C	-1.4554908106	-0.520861372	-0.0463524197	 0.384277
O	-1.7501481786	-1.0935554132	-1.2982714989	-0.492945
H	 0.9872570596	 1.6321162063	-0.2863715419	 0.289859
H	 0.5911016295	-0.605617913	-0.6294398055	 0.082276
H	 1.4418585528	-0.5316962724	 1.6631263858	 0.104789
H	 0.062028285	 0.4681104338	 2.1815875636	 0.096559
H	-1.9135813531	-2.5070264653	 0.9456800866	 0.090167
H	-3.6016683095	-1.0023457893	 1.9871638674	 0.105426
H	-2.2791682546	-0.1079676587	 2.7543883944	 0.108732
H	-3.458061201	 0.3967568254	-0.03018419	 0.103803
H	-2.2430778342	 1.4269802302	 0.7638208492	 0.115494
H	-1.7061618088	-0.3900596944	-1.9561210866	 0.281315
66.0208	184.7414	243.5045	249.0027	274.2398	292.3247	350.2358	410.7731	448.1185	542.7877	554.0665	638.9392	654.0235	734.8678	816.109	843.2937	921.6666	952.8932	979.7958	1005.3939	1017.6414	1071.9882	1075.4034	1115.646	1130.4304	1160.9019	1182.9841	1212.097	1230.1271	1241.3389	1248.661	1263.2537	1291.7136	1324.8956	1335.4561	1364.2095	1388.9459	1433.5002	1467.8838	1484.4947	1519.5494	2978.7726	3008.5503	3069.9253	3077.8584	3085.7316	3106.0615	3120.6332	3139.885	3793.4107	3823.9709
OC1COC2CCC12O	O[C@H]1CO[C@H]2CC[C@@]12O	
InChI=1S/C6H10O3/c7-4-3-9-5-1-2-6(4,5)8/h4-5,7-8H,1-3H2	InChI=1S/C6H10O3/c7-4-3-9-5-1-2-6(4,5)8/h4-5,7-8H,1-3H2/t4-,5-,6+/m0/s1
