17
gdb 97338	6.5998	0.68123	0.64835	1.3857	77.08	-0.2668	-0.0305	0.2363	1729.7658	0.134789	-455.146145	-455.13689	-455.135946	-455.181232	31.964	
C	 0.0149323696	 1.4523312528	-0.1513273037	-0.319709
N	 0.0549066708	 0.0028282605	-0.1653688254	-0.188281
C	-1.0200484356	-0.6022993453	 0.0500280592	 0.111592
O	-1.0041427872	-1.9807662644	 0.038264608	-0.223595
C	-2.1728414321	-2.6367571225	 0.2941264982	 0.479626
O	-3.2266965476	-2.0970131804	 0.5233263702	-0.370917
C	-1.9664783589	-4.1071714119	 0.2454826831	-0.138045
C	-2.6062103903	-4.8959854891	 1.3479302303	-0.217314
N	-3.1555729026	-4.9371471108	 0.0010427193	-0.300761
H	 0.3619949144	 1.8298035333	-1.1190621157	 0.138318
H	-0.9811418999	 1.8729201461	 0.0542155249	 0.10803
H	 0.7149350091	 1.8227301452	 0.6051357728	 0.137862
H	-2.0046032371	-0.1763124638	 0.2526227369	 0.136235
H	-1.0392250021	-4.4454343037	-0.2013274706	 0.122896
H	-2.1142836861	-5.8044251553	 1.6818886337	 0.134853
H	-3.1346279605	-4.3339786946	 2.1123739503	 0.137237
H	-3.9604325139	-4.3127361159	-0.0475057616	 0.251971
54.8062	79.9702	115.3242	125.4041	212.8768	258.1505	271.0114	334.1037	352.0545	387.6685	572.2004	708.8903	764.9291	830.7555	874.3116	931.1857	982.8423	987.5139	1019.55	1063.9472	1105.7558	1120.9746	1137.5935	1141.2179	1176.6377	1178.5319	1207.2624	1284.8522	1317.3223	1367.607	1410.6155	1447.9371	1480.853	1496.8098	1501.593	1779.3848	1812.366	2986.7935	3073.5479	3091.7067	3118.107	3118.4032	3189.4458	3213.2721	3479.5814
CN=COC(=O)C1CN1	CN=COC(=O)[C@H]1CN1	
InChI=1S/C5H8N2O2/c1-6-3-9-5(8)4-2-7-4/h3-4,7H,2H2,1H3	InChI=1S/C5H8N2O2/c1-6-3-9-5(8)4-2-7-4/h3-4,7H,2H2,1H3/t4-/m1/s1
