23
gdb 108196	2.86746	1.41973	1.25572	1.2607	83.75	-0.2487	0.0749	0.3236	1147.9854	0.20852	-388.322374	-388.314048	-388.313104	-388.355097	33.456	
C	 0.0251651156	 1.5366226063	 0.1151491734	-0.391028
C	-0.0647872851	 0.011576398	-0.0044849194	-0.271203
C	-1.478869097	-0.5450922338	-0.0647564857	 0.424321
C	-2.3967221351	-0.0574670753	-1.2201346539	-0.260625
C	-3.8110657024	-0.2489390703	-0.5985316272	-0.216283
C	-3.4477827878	-0.8291353239	 0.786237998	 0.078577
C	-2.9853401506	-2.2950199554	 0.6363162056	-0.219217
C	-1.5769875728	-2.0937852115	 0.0055289121	-0.258357
O	-2.229155075	-0.1477522909	 1.1027537414	-0.294372
H	 1.0639078877	 1.8486318657	 0.2601632874	 0.108199
H	-0.3451838915	 2.0423176826	-0.7818906677	 0.114044
H	-0.5615925367	 1.8886530325	 0.9673794447	 0.136612
H	 0.4778775534	-0.3326194893	-0.8941833807	 0.096004
H	 0.4353114413	-0.4468729018	 0.8574150244	 0.101941
H	-2.2085088792	 0.9921238904	-1.4537570094	 0.101539
H	-2.2463886026	-0.6353480539	-2.1358384847	 0.09464
H	-4.3288619011	 0.7071318851	-0.4899060607	 0.101957
H	-4.4546822631	-0.9159359928	-1.1782573142	 0.094489
H	-4.1826248901	-0.6510618297	 1.5721862126	 0.070051
H	-2.9168250457	-2.7773188609	 1.6143525991	 0.102111
H	-3.6607191934	-2.8892919653	 0.015010948	 0.09449
H	-1.4732167596	-2.5622080417	-0.9767799971	 0.09453
H	-0.7903733393	-2.4933514841	 0.6512667741	 0.09758
90.597	121.9142	188.1472	241.4917	284.6842	358.4641	377.4193	433.2077	557.8153	581.7586	613.2669	753.8796	779.4075	811.6842	826.3327	837.9699	869.2754	925.4707	930.3674	942.1701	960.9006	974.3252	1005.4545	1022.2531	1037.598	1079.1396	1103.8325	1134.444	1176.9442	1200.245	1209.5583	1222.7908	1247.6473	1251.3763	1300.0557	1303.6189	1320.4627	1333.0089	1351.3459	1355.2259	1388.6649	1409.7686	1474.2345	1480.7308	1492.01	1496.7884	1500.2557	1509.3471	1516.7655	3024.2166	3043.2398	3053.3433	3058.3769	3059.2553	3064.2732	3070.8194	3092.7388	3099.0813	3105.4878	3111.7391	3114.6398	3122.1446	3126.2339
CCC12CCC(CC1)O2	CC[C@@]12CC[C@@H](CC1)O2	
InChI=1S/C8H14O/c1-2-8-5-3-7(9-8)4-6-8/h7H,2-6H2,1H3	InChI=1S/C8H14O/c1-2-8-5-3-7(9-8)4-6-8/h7H,2-6H2,1H3/t7-,8+
