17
gdb 45214	3.13325	1.76536	1.40446	3.8964	70.64	-0.234	-0.0313	0.2027	930.6715	0.137863	-421.818505	-421.811864	-421.81092	-421.849797	26.725	
O	 0.0586277758	 0.0274708167	-0.4474420634	-0.304021
C	 0.0124517517	 1.1855849292	-0.1295504881	 0.40603
C	-1.2601348407	 1.9965214527	 0.1660972574	-0.342851
C	-0.8099135535	 3.4260985792	 0.4899594711	-0.041345
C	-0.3574223522	 3.7010139438	 1.9625693604	-0.245562
C	 1.1129749876	 3.587252914	 1.5265788372	 0.127073
O	 1.5521820664	 2.2062845609	 1.4499059938	-0.315034
C	 1.2208759549	 2.1200910376	 0.0329587152	 0.016269
C	 0.6952845847	 3.5602584676	 0.0343803548	-0.12541
H	-1.8807807217	 1.9589313548	-0.7372624403	 0.13302
H	-1.8405988472	 1.5222164211	 0.9630820015	 0.136532
H	-1.492108815	 4.1773812298	 0.0925259861	 0.081766
H	-0.6111825719	 4.7162086304	 2.2819775066	 0.10555
H	-0.6790793235	 2.9925067613	 2.7305888687	 0.111199
H	 1.8712973009	 4.2280230621	 1.9817204124	 0.08282
H	 2.0817413146	 1.830067124	-0.574383313	 0.091275
H	 0.9841249692	 4.2741856346	-0.7327288804	 0.08269
68.5039	211.2039	314.9124	383.224	425.9279	546.9276	582.2574	638.4624	693.4353	786.7239	797.3643	815.4332	853.0453	865.9225	929.3513	937.7078	960.6081	991.0961	1006.138	1045.8001	1067.1107	1123.4469	1145.4946	1164.8163	1184.2784	1207.0318	1217.8239	1251.0398	1267.8049	1275.8259	1298.6846	1309.6802	1324.0725	1341.5836	1444.8086	1465.9936	1849.5329	3043.8231	3052.4555	3082.484	3087.0382	3092.0088	3102.5581	3114.4111	3146.912
O=C1CC2CC3OC1C23	O=C1C[C@H]2C[C@H]3O[C@@H]1[C@@H]23	
InChI=1S/C7H8O2/c8-4-1-3-2-5-6(3)7(4)9-5/h3,5-7H,1-2H2	InChI=1S/C7H8O2/c8-4-1-3-2-5-6(3)7(4)9-5/h3,5-7H,1-2H2/t3-,5+,6-,7-/m0/s1
