21
gdb 112706	2.35889	1.28548	1.10131	3.6188	74.56	-0.2397	0.0594	0.2991	1223.4642	0.182143	-461.36802	-461.358486	-461.357542	-461.402403	35.813	
C	 0.0617163757	 1.4114882288	-0.4192182279	-0.401977
C	 0.0308685063	-0.057464243	-0.0341576844	 0.149971
O	 0.4825201399	-0.848694644	-1.1380806274	-0.30741
C	 1.156464479	-2.0319178217	-0.676398774	 0.121127
C	 2.5583936821	-2.0221408386	-1.28648083	-0.064166
O	 2.4976067968	-1.8846664945	-2.6909098468	-0.426747
C	 1.1343961262	-1.9636841874	 0.8621692667	-0.3008
C	 0.9191824289	-0.4681990179	 1.1487810689	 0.096763
O	 2.1274195859	 0.278275108	 1.0909938012	-0.42621
H	 1.0853706391	 1.7304869063	-0.6205833976	 0.141109
H	-0.5471959664	 1.5739681064	-1.3125389589	 0.121287
H	-0.3437991791	 2.0263434188	 0.390271768	 0.113016
H	-1.0031520414	-0.3504848995	 0.2137077297	 0.067046
H	 0.6093190162	-2.9041951853	-1.0562604319	 0.078161
H	 3.1361992047	-1.2093887687	-0.8207236065	 0.092504
H	 3.0653952304	-2.9713694099	-1.0767974213	 0.095162
H	 1.9176586462	-1.128860446	-2.8469387439	 0.288614
H	 0.3006349393	-2.5451878519	 1.2673953297	 0.108632
H	 2.0550588087	-2.3429587502	 1.3169389551	 0.098764
H	 0.4052986077	-0.2980901783	 2.1049401275	 0.068902
H	 2.7087274736	-0.0400428411	 1.7882234936	 0.286252
63.122	111.0841	134.8994	209.4251	243.2516	265.2831	272.9856	348.4986	384.9704	401.2584	467.1628	487.3243	529.1123	705.6342	762.9057	805.7078	833.0167	864.2929	945.3522	968.0777	994.3431	1028.8615	1050.4066	1066.3577	1086.8525	1114.1562	1149.8926	1162.442	1209.8719	1216.7197	1237.4693	1275.7119	1325.5178	1340.9321	1353.3678	1372.1028	1387.7321	1404.5643	1414.3596	1424.846	1440.4023	1480.6732	1487.1682	1497.4728	1505.8749	2957.4562	2993.3376	3008.1113	3021.1503	3050.6186	3052.6849	3066.2278	3095.125	3117.9094	3148.5128	3782.5138	3826.486
CC1OC(CO)CC1O	C[C@H]1O[C@@H](CO)C[C@H]1O	
InChI=1S/C6H12O3/c1-4-6(8)2-5(3-7)9-4/h4-8H,2-3H2,1H3	InChI=1S/C6H12O3/c1-4-6(8)2-5(3-7)9-4/h4-8H,2-3H2,1H3/t4-,5-,6-/m1/s1
