15
gdb 43477	2.61577	1.84216	1.29019	3.4133	65.85	-0.2535	-0.0284	0.2251	949.4477	0.116027	-453.985698	-453.979002	-453.978058	-454.016864	26.394	
O	 0.0153737731	-0.0489591551	 0.0339620062	-0.344967
C	 0.0421193613	 1.1561196506	 0.0197997307	 0.464967
N	-1.1107948495	 1.9416562783	 0.0163340762	-0.360389
C	-1.0744369094	 3.3356493003	-0.0255376184	 0.464964
O	-2.0679966387	 4.0178254726	-0.0501487631	-0.344968
C	 0.3610387278	 3.85005418	-0.0615774931	-0.127809
C	 1.1564753793	 3.078958656	-1.1505223724	-0.246679
C	 1.2989203778	 2.0192966195	-0.0236001341	-0.127817
N	 1.101643339	 3.0958611886	 1.0189171792	-0.330139
H	-2.0112780441	 1.481184019	 0.0566979326	 0.267873
H	 0.3698528856	 4.9377157557	-0.014949664	 0.104465
H	 0.6640401146	 2.8072370897	-2.0883108378	 0.124866
H	 2.1129968757	 3.5646968205	-1.3574521053	 0.118475
H	 2.1857200287	 1.3931229537	 0.0585702315	 0.104465
H	 2.0004161788	 3.5589946107	 1.1496887419	 0.232694
132.5689	160.8291	326.39	369.3749	429.6112	451.1974	525.9691	585.6018	670.1322	734.8594	751.6278	771.4833	860.4702	860.504	912.2062	916.5956	940.8346	983.3749	1048.5133	1068.4042	1099.2296	1158.0409	1198.6494	1243.0499	1262.7958	1284.1331	1334.3243	1363.1562	1390.3421	1402.1297	1494.3112	1830.3822	1852.7577	3058.3829	3119.8447	3138.682	3139.4115	3466.3807	3593.5272
O=C1NC(=O)C2CC1N2	O=C1NC(=O)[C@@H]2C[C@H]1N2	
InChI=1S/C5H6N2O2/c8-4-2-1-3(6-2)5(9)7-4/h2-3,6H,1H2,(H,7,8,9)	InChI=1S/C5H6N2O2/c8-4-2-1-3(6-2)5(9)7-4/h2-3,6H,1H2,(H,7,8,9)/t2-,3+
