20
gdb 116575	4.50791	0.96515	0.94443	2.5555	83.4	-0.2416	0.0341	0.2758	1361.3731	0.172316	-403.141741	-403.13357	-403.132626	-403.175734	31.256	
C	 1.06384109	 0.2469955346	 0.0635618283	-0.358802
C	-0.4205449405	 0.4600082585	-0.2364104572	-0.145609
N	-1.1349113077	-0.8119097113	-0.1694776282	-0.378097
C	-1.9186533791	-1.1322212226	-1.0955445628	 0.490295
O	-2.2264094993	-0.3968709029	-2.2352429221	-0.278769
C	-3.1656526139	-1.2859418198	-2.906105864	 0.10346
C	-4.0929710425	-1.7239812536	-1.7497637234	-0.235164
C	-2.7500234854	-2.3791600746	-1.2650629463	-0.152807
C	-2.4704246248	-2.6606993862	-2.7853151252	-0.235131
H	 1.5959612022	 1.2035762497	 0.082930793	 0.105083
H	 1.1928127056	-0.2448098267	 1.0319982612	 0.12234
H	 1.5275939052	-0.3863720302	-0.6993433473	 0.113772
H	-0.8491634075	 1.1211883196	 0.52862165	 0.103508
H	-0.5450674553	 0.963321392	-1.2036407086	 0.107147
H	-3.4947743751	-0.8280097365	-3.8361087517	 0.091851
H	-4.5357224603	-0.9370033421	-1.1360407238	 0.115318
H	-4.8385209216	-2.4631327251	-2.0470201163	 0.110078
H	-2.6838642868	-3.1296622693	-0.4831714049	 0.09622
H	-3.0679041582	-3.4854440888	-3.1768629037	 0.11031
H	-1.4322788552	-2.7292967647	-3.1164499369	 0.114997
23.0154	106.5458	172.5519	212.9652	280.5695	388.1504	454.6138	492.654	532.6061	655.3216	732.5659	785.6477	820.9186	830.7762	853.7124	866.4238	889.9023	918.3121	953.0106	993.1369	1033.4206	1034.6721	1051.01	1072.7816	1102.7292	1112.2025	1128.8992	1147.3893	1183.4917	1216.1005	1241.6825	1255.677	1288.1216	1305.4983	1336.2002	1382.074	1406.0464	1476.3566	1488.225	1492.1736	1509.4198	1511.1762	1828.167	3008.5125	3036.2782	3044.9649	3072.9213	3077.8183	3106.332	3116.2653	3140.7206	3145.4705	3150.4845	3171.3154
CCN=C1OC2CC1C2	CCN=C1O[C@@H]2C[C@H]1C2	
InChI=1S/C7H11NO/c1-2-8-7-5-3-6(4-5)9-7/h5-6H,2-4H2,1H3	InChI=1S/C7H11NO/c1-2-8-7-5-3-6(4-5)9-7/h5-6H,2-4H2,1H3/t5-,6+
