17
gdb 38288	3.80113	1.59767	1.39632	1.8368	73.12	-0.2346	0.0021	0.2367	940.2892	0.138617	-421.774557	-421.768252	-421.767308	-421.805099	26.063	
C	-0.1342276703	 1.5170425045	-0.1380390631	-0.219321
C	 1.4007310235	 1.4308285587	-0.0112929135	-0.000011
O	 1.2120996401	 0.2705937421	 0.8797705424	-0.29797
C	 0.0590979386	-0.027757944	 0.016312207	-0.051541
C	 0.7107909892	-0.3116179238	-1.3106400222	 0.295672
C	 0.4432316715	-0.5979782795	-2.5771179981	-0.262143
C	 1.4392501727	 0.1753196474	-3.4333970376	-0.112349
O	 1.9906126007	 1.1723722631	-2.5523678387	-0.285528
C	 1.8973936427	 0.6317491616	-1.2499471154	 0.107498
H	-0.5855742876	 1.9535352933	 0.753962949	 0.115844
H	-0.5755731955	 1.9034088547	-1.0582242197	 0.111958
H	 2.020305194	 2.2203956802	 0.410217221	 0.087419
H	-0.6828412894	-0.689903286	 0.457118271	 0.094548
H	-0.3874927851	-1.1562407096	-2.9885962102	 0.107142
H	 2.2437159204	-0.4580484603	-3.8436354863	 0.104829
H	 0.9564354417	 0.6861149829	-4.2747172106	 0.116179
H	 2.8359743527	 0.1325470249	-0.962927225	 0.087775
161.7572	214.3825	308.171	399.4785	510.1165	529.5852	642.6189	688.5015	751.801	797.7117	829.5335	843.6623	867.6063	890.1659	917.2867	932.2418	978.1939	984.4728	1017.0685	1024.2071	1041.3003	1080.9803	1118.1987	1158.1338	1171.1447	1203.3688	1219.2137	1235.7057	1249.8277	1261.2767	1291.6287	1331.9307	1357.6743	1374.6469	1476.1307	1509.398	1738.8918	2963.4384	2983.1854	3052.8201	3078.3347	3140.556	3148.6454	3152.4597	3218.5494
C1C2OC1C1=CCOC21	C1[C@H]2O[C@@H]1[C]1[CH]CO[C@@H]21	
InChI=1S/C7H8O2/c1-2-8-7-4(1)5-3-6(7)9-5/h1,5-7H,2-3H2	InChI=1S/C7H8O2/c1-2-8-7-4(1)5-3-6(7)9-5/h1,5-7H,2-3H2/t5-,6+,7+/m0/s1
