19
gdb 54605	2.43833	1.41991	0.9178	0.9165	81.3	-0.2391	-0.0521	0.187	1266.394	0.157072	-423.060066	-423.050385	-423.04944	-423.095529	33.856	
C	 0.0247879526	 1.5411650767	-0.0603986746	-0.48713
C	 0.0313686812	 0.0253456838	 0.0500403526	 0.299165
O	 0.0804755917	-0.5175009541	 1.1388607239	-0.317118
C	-0.0247197722	-0.729492097	-1.2253747056	 0.100732
C	-0.0304215678	-2.0653188221	-1.3849621744	 0.187275
C	 0.0161107203	-3.1583459541	-0.3713943139	-0.509736
C	-0.0957682821	-2.3783715588	-2.8548406908	-0.136078
O	-0.1273866294	-1.132055352	-3.5307437701	-0.265683
C	-0.0862256102	-0.0685961996	-2.586406672	-0.171179
H	 0.8784798186	 1.8893606202	-0.6531943293	 0.140185
H	-0.8803439519	 1.8873215269	-0.5726455822	 0.140239
H	 0.0699048319	 1.9766220206	 0.9379817421	 0.141487
H	-0.8660160081	-3.8040279188	-0.4704122485	 0.132861
H	 0.8883186108	-3.8010188239	-0.547781808	 0.132904
H	 0.0601227188	-2.7583531822	 0.639074562	 0.176816
H	 0.7760745898	-2.9697286593	-3.1810850752	 0.110487
H	-0.9919188423	-2.9717100767	-3.1020343665	 0.11049
H	-0.977827437	 0.5666952172	-2.7083031765	 0.107142
H	 0.7896689854	 0.5684585132	-2.787351123	 0.107141
44.325	84.5769	114.2813	149.1472	155.9783	205.9984	254.0965	302.0208	404.4563	444.2511	469.948	621.9273	626.6938	630.2723	812.5697	916.2599	948.6054	951.0311	972.5132	1030.1396	1048.5424	1057.3585	1095.2381	1119.5798	1140.2083	1181.8662	1232.9191	1248.4517	1286.2515	1373.0955	1385.6263	1394.424	1404.5799	1461.5616	1467.9523	1475.4079	1497.4193	1509.8318	1529.6239	1684.1473	1768.0978	2961.3358	2972.7699	2977.5138	2986.6731	3021.9462	3033.2868	3064.4861	3092.8271	3155.3778	3179.2026
CC(=O)C1=C(C)COC1	CC(=O)C1=C(C)COC1	
InChI=1S/C7H10O2/c1-5-3-9-4-7(5)6(2)8/h3-4H2,1-2H3	InChI=1S/C7H10O2/c1-5-3-9-4-7(5)6(2)8/h3-4H2,1-2H3
