20
gdb 52234	5.2251	0.74151	0.71387	3.3596	81.88	-0.2573	0.0244	0.2818	1617.8184	0.17112	-403.110882	-403.101931	-403.100987	-403.146511	32.405	
N	-0.1161168617	 1.2728082883	-0.2397231349	-0.439615
C	-0.0574976006	 0.0181197292	-0.1096881411	 0.132585
O	-1.1865925566	-0.7057792257	-0.0147459997	-0.185204
C	-1.0291268415	-2.1112820712	 0.2108860225	-0.092076
C	-2.3862870015	-2.7609967556	 0.0294837078	 0.004863
C	-3.02498074	-2.817772908	-1.4000652453	-0.245731
C	-3.1508555157	-4.3411648244	-1.2606279704	-0.032934
C	-1.795832559	-4.9528452722	-1.0641250175	-0.276598
C	-2.4691773488	-4.2920083371	 0.1109918664	-0.076641
H	 0.8239537786	 1.6567708574	-0.3097983049	 0.226962
H	 0.8586163515	-0.5889339281	-0.0689148648	 0.080725
H	-0.2951485816	-2.5211529693	-0.4951348662	 0.102169
H	-0.6539289853	-2.2847091044	 1.2295251395	 0.106566
H	-3.0855965788	-2.2957781318	 0.7294124144	 0.091693
H	-3.9806129634	-2.293467576	-1.4455247989	 0.112252
H	-2.3981623199	-2.4670554718	-2.2266602463	 0.099521
H	-4.005858648	-4.930949984	-1.5667255319	 0.088424
H	-1.7741687904	-6.03706358	-1.0191231732	 0.113389
H	-0.9199141904	-4.517173972	-1.5394862229	 0.103371
H	-2.7053653968	-4.8504265634	 1.0090462373	 0.08628
23.7635	60.4265	102.5976	137.7531	201.088	292.5736	340.4536	437.2182	482.5699	643.449	676.2992	780.4437	801.8061	820.6278	842.5883	883.2938	940.2815	961.2652	988.717	995.4383	1030.0737	1042.3755	1047.2369	1065.4723	1086.4976	1108.6866	1132.7612	1135.3848	1170.1524	1210.361	1239.9918	1259.5394	1270.1647	1296.1521	1309.8129	1349.2426	1374.1274	1409.5746	1433.3325	1485.0429	1498.2108	1511.871	1747.7516	2996.3991	3015.0053	3043.6339	3050.3172	3074.8465	3107.076	3119.8415	3175.2834	3186.6488	3200.6526	3517.0259
N=COCC1CC2CC12	[NH][CH]OC[C@H]1C[C@H]2C[C@@H]12	
InChI=1S/C7H11NO/c8-4-9-3-6-1-5-2-7(5)6/h4-8H,1-3H2	InChI=1S/C7H11NO/c8-4-9-3-6-1-5-2-7(5)6/h4-8H,1-3H2/t5-,6+,7+/m0/s1
