14
gdb 14291	3.777	1.89285	1.84274	3.9755	56.49	-0.2658	0.0121	0.278	766.283	0.107761	-419.696963	-419.690317	-419.689373	-419.727848	25.137	
O	-0.0116498199	 1.330539308	 0.2186826666	-0.413725
C	-0.0263107535	-0.0488674697	 0.0368255609	 0.074816
C	-1.3817244319	-0.721019464	-0.0129697072	-0.131946
C	-2.5614162826	 0.1862744041	-0.2821108697	-0.367613
C	-2.2657566123	 0.8267540624	-1.6408389331	 0.429744
O	-2.8846953703	 1.6641675276	-2.222053379	-0.323951
O	-1.1085842742	 0.2906374703	-2.1584230073	-0.219144
C	-0.5309972498	-0.6288864862	-1.2615681022	 0.026324
H	 0.5643002826	 1.7227702865	-0.4470577967	 0.302191
H	 0.769873779	-0.5997436023	 0.5368685065	 0.099915
H	-1.5283085947	-1.6577764163	 0.5091502149	 0.107569
H	-3.5016784216	-0.368631799	-0.3481558283	 0.140554
H	-2.6906964531	 0.9841432382	 0.4523900114	 0.158984
H	-0.0555434078	-1.4635809498	-1.7608790068	 0.116282
100.0056	191.6449	236.1841	293.6598	464.275	508.7502	576.5254	607.4272	702.8609	732.8641	781.2263	800.3178	832.5719	946.2497	971.9067	1036.6418	1065.8599	1067.5653	1097.7469	1134.4474	1148.8178	1199.3139	1223.1812	1287.654	1311.0435	1339.2724	1363.0466	1431.9665	1456.8952	1896.6674	3072.8315	3108.6513	3120.7372	3190.7303	3199.1875	3803.0624
OC1C2CC(=O)OC12	O[C@H]1[C@H]2CC(=O)O[C@@H]12	
InChI=1S/C5H6O3/c6-3-1-2-4(7)5(2)8-3/h2,4-5,7H,1H2	InChI=1S/C5H6O3/c6-3-1-2-4(7)5(2)8-3/h2,4-5,7H,1H2/t2-,4+,5-/m1/s1
