16
gdb 39915	4.20919	1.49532	1.36472	1.6196	77.1	-0.2229	-0.0537	0.1692	945.9371	0.124551	-400.595243	-400.588705	-400.587761	-400.625936	26.85	
C	-0.1172049874	 1.4732969532	 0.1012675949	-0.255507
O	 1.1534484478	 0.8455591913	-0.0731062815	-0.26955
C	-0.006753351	 0.0091931117	 0.0358740635	 0.432318
C	-0.374904433	-0.912780138	 1.1588902166	-0.231579
C	-0.5849769492	-2.13304693	 0.6080484814	 0.03148
C	-1.9882308612	-2.4193971233	 0.0855518521	-0.168875
N	-1.4478089601	-1.9193881917	-1.2680898467	-0.158135
C	-0.0649154333	-2.2272953471	-0.8278305564	-0.082792
C	-0.3286414256	-0.8321693459	-1.193532077	-0.099536
H	-0.2735711747	 1.9584797988	 1.0642109516	 0.120179
H	-0.4966647074	 2.0194434004	-0.7623431427	 0.118288
H	-0.9914612572	-0.5400574992	 1.9721572958	 0.102855
H	-2.2669009245	-3.4620860998	-0.0874594663	 0.12671
H	-2.8165003342	-1.8588881995	 0.5267590074	 0.117409
H	 0.5683003138	-2.9714373714	-1.2960453924	 0.105719
H	-0.1562976628	-0.4338622594	-2.1879338301	 0.111015
123.9814	268.3629	313.919	357.6885	454.6559	493.4686	570.505	618.6155	714.1495	747.9667	769.5028	801.9584	845.4383	870.541	898.0614	909.3758	938.3236	978.0073	1008.6713	1029.4577	1057.2067	1068.7283	1119.253	1127.3698	1158.8998	1177.657	1209.4524	1237.6297	1258.7724	1289.379	1317.412	1409.9907	1505.0678	1523.6496	1559.4614	3055.7696	3075.0816	3121.2969	3160.2635	3163.5313	3175.7847	3187.3976
C1OC11C=C2CN3C2C13	C1O[C@]21[CH][C]1CN3[C@H]1[C@H]23	
InChI=1S/C7H7NO/c1-4-2-8-5(4)6(8)7(1)3-9-7/h1,5-6H,2-3H2	InChI=1S/C7H7NO/c1-4-2-8-5(4)6(8)7(1)3-9-7/h1,5-6H,2-3H2/t5-,6-,7+,8?/m1/s1
