25
gdb 118692	2.10905	1.08468	0.99346	0.9415	90.48	-0.248	0.079	0.327	1450.6985	0.22613	-389.47633	-389.464867	-389.463923	-389.512769	41.429	
C	-0.6362600692	 0.119422701	 3.4766090462	-0.222423
O	-0.620680775	-1.0879741562	 2.7571864729	-0.236305
C	-1.4674608795	-1.0605497232	 1.6199859922	-0.128668
C	-1.3061737803	-2.3609976744	 0.8679663571	 0.312599
C	 0.0801916923	-2.5307231623	 0.2703444754	-0.458528
C	-2.0056354126	-3.6081635063	 1.3794892974	-0.041976
C	-2.8180539884	-3.6426510581	 2.6571616452	-0.409693
C	-2.4811987561	-2.9458150254	 0.0998873178	-0.073608
C	-3.8354452951	-2.2806982448	-0.045358893	-0.415674
H	 0.0416393722	 0.0056095553	 4.3263829283	 0.124454
H	-0.2954551535	 0.9685443326	 2.8620265444	 0.100883
H	-1.6429289262	 0.3592543885	 3.8565258359	 0.099663
H	-2.5061393923	-0.8868842139	 1.9351075485	 0.078956
H	-1.187699833	-0.2138404816	 0.9673955909	 0.080449
H	 0.8456707009	-2.471296716	 1.0499242541	 0.130257
H	 0.1786235658	-3.4975547315	-0.2329129526	 0.106451
H	 0.2918746086	-1.7476495767	-0.4686971442	 0.105113
H	-1.4345638934	-4.5218167344	 1.2274649713	 0.075772
H	-3.4371472102	-2.7530229755	 2.7942747292	 0.110606
H	-3.4887981823	-4.5092190211	 2.6668018143	 0.1101
H	-2.1596084425	-3.7154704705	 3.5286435198	 0.126658
H	-2.1809991948	-3.4632737032	-0.8093974488	 0.076606
H	-4.1813040269	-1.8021778892	 0.87342872	 0.116417
H	-3.8162168259	-1.5138772718	-0.8281682216	 0.115539
H	-4.5938145427	-3.0192835614	-0.3288234409	 0.116354
63.6827	98.5252	115.7192	150.6099	177.7115	200.7443	214.9469	235.7126	238.1524	267.639	281.3664	358.8571	403.2351	467.4052	501.8515	551.1052	732.4944	781.0628	795.5906	931.3736	972.1404	979.4512	988.1631	1024.3413	1042.6397	1046.9636	1114.125	1128.9061	1140.0358	1154.8021	1165.5106	1181.7427	1188.8937	1224.4446	1248.5318	1295.5145	1335.6981	1375.8106	1407.4441	1416.5518	1418.9729	1431.4941	1457.7992	1480.5758	1485.3282	1486.6073	1488.996	1493.5454	1502.1179	1504.8029	1505.6369	1517.3695	1528.1623	2941.2916	2964.0617	3003.8345	3009.6281	3021.7933	3030.6624	3035.6377	3083.1873	3085.6127	3093.0605	3103.6652	3108.2008	3109.648	3114.1251	3121.8878	3132.554
COCC1(C)C(C)C1C	COC[C@@]1(C)[C@@H](C)[C@H]1C	
InChI=1S/C8H16O/c1-6-7(2)8(6,3)5-9-4/h6-7H,5H2,1-4H3	InChI=1S/C8H16O/c1-6-7(2)8(6,3)5-9-4/h6-7H,5H2,1-4H3/t6-,7+,8-
