14
gdb 129234	2.71272	1.72981	1.07835	1.2881	79.8	-0.2531	-0.0925	0.1606	1033.6505	0.102687	-428.98666	-428.979174	-428.978229	-429.020322	27.402	
N	-0.0270057915	 1.185617562	-0.6479696182	-0.456634
C	-0.0343918729	 0.0585751937	-0.0632054391	 0.364607
N	 1.1510047344	-0.4918906514	 0.4883212875	-0.29926
N	 1.5904722061	-1.6201366794	 1.1136757647	-0.068073
N	 0.8525421915	-2.4714227831	 1.6681540361	-0.198864
C	-0.5356444694	-2.4436686283	 1.7251370957	 0.019106
C	-1.4687837281	-1.7423451579	 1.0506745936	-0.133875
C	-1.321281331	-0.711971984	 0.0321410903	 0.252892
N	-2.254031985	-0.3650413773	-0.7710295209	-0.439949
H	 0.8939112786	 1.6293167928	-0.634096604	 0.219524
H	 1.9710750665	 0.0393543725	 0.2265192235	 0.267973
H	-0.8921929717	-3.1986491508	 2.420198793	 0.130655
H	-2.5024895222	-2.0066205393	 1.2630027126	 0.114772
H	-3.0889064153	-0.9329879494	-0.6024801946	 0.227125
28.3914	45.7517	284.0023	349.7588	373.7297	416.3021	438.678	516.4313	606.335	658.0902	676.6707	760.8368	803.3682	838.0888	872.4234	924.4822	947.149	954.7805	1009.6617	1014.6548	1127.2481	1138.3322	1258.9352	1307.2891	1397.5883	1438.562	1468.1414	1591.3291	1638.1766	1678.3963	1711.494	3149.7694	3177.535	3435.0196	3451.5671	3585.595
N=C1NN=NC=CC1=N	[NH][C]1NN=NC=C[C]1[NH]	
InChI=1S/C4H5N5/c5-3-1-2-7-9-8-4(3)6/h1-2H,(H3,5,6,7,8)	InChI=1S/C4H5N5/c5-3-1-2-7-9-8-4(3)6/h1-2H,(H3,5,6,7,8)
