17
gdb 14483	4.88382	1.76498	1.71896	1.968	71.61	-0.2051	0.0746	0.2797	847.6219	0.141108	-326.61535	-326.608202	-326.607257	-326.646134	27.99	
C	 0.0088869932	 1.5162230017	 0.0234472658	-0.526149
C	-0.0157361971	 0.0248542834	 0.0013873105	 0.349009
C	 0.9774106392	-0.996067007	-0.4934763556	-0.064612
C	 0.6134072314	-0.9904101911	 0.9709032099	-0.232214
C	-0.5176113082	-1.9997083369	 0.6232480644	 0.369689
C	-1.0632296391	-3.1955213664	 1.3240473746	-0.523128
C	-1.1264183951	-1.0160176994	-0.3139940268	-0.181249
N	-0.1122073129	-2.010725168	-0.8305431072	-0.218499
H	 1.006360048	 1.8808600213	 0.2924818587	 0.124339
H	-0.2449509575	 1.936640256	-0.956802947	 0.125573
H	-0.6998766339	 1.9205603969	 0.7556630264	 0.123104
H	 1.9242948047	-0.9090157564	-1.0130055582	 0.094064
H	 1.2083167135	-0.8086252277	 1.8556421168	 0.090346
H	-1.5670529002	-2.9144454755	 2.2556931965	 0.121077
H	-1.7875647376	-3.7052574964	 0.6808904423	 0.133999
H	-0.266620847	-3.9075427062	 1.5672978203	 0.126942
H	-2.1230210212	-0.9385369882	-0.7358459314	 0.087709
182.8946	205.8795	211.2398	231.6823	318.075	322.7021	555.7434	633.7487	660.1029	748.6703	756.7239	822.0819	834.954	859.3555	880.2186	897.2468	948.8482	987.2913	990.5291	1021.2118	1059.9122	1086.2695	1103.3827	1137.4394	1149.2261	1191.4963	1260.9522	1281.5708	1394.05	1408.5556	1437.5985	1447.1388	1477.7933	1481.5722	1491.4792	1498.799	3019.0702	3026.5144	3077.8196	3089.7839	3091.2127	3107.0763	3164.5496	3178.4625	3208.4546
CC12C3C1C1(C)C2N31	C[C@@]12[C@H]3[C@@H]1[C@@]1(C)[C@@H]2N31	
InChI=1S/C7H9N/c1-6-3-4(6)8-5(6)7(3,8)2/h3-5H,1-2H3	InChI=1S/C7H9N/c1-6-3-4(6)8-5(6)7(3,8)2/h3-5H,1-2H3/t3-,4+,5+,6-,7-,8?/m0/s1
