17
gdb 99009	5.26126	0.73638	0.65339	3.9659	67.98	-0.2462	-0.0112	0.2351	1677.4095	0.134545	-492.339392	-492.328925	-492.327981	-492.376921	34.453	
C	 0.2156278711	 1.27587692	 0.0371682654	-0.237412
O	-0.0703644544	-0.1275546299	 0.0643696777	-0.270723
C	-1.3886937902	-0.4338370278	-0.0177269256	 0.543946
O	-2.2804200163	 0.3611826602	-0.1070390767	-0.357804
N	-1.4970853316	-1.8222188779	 0.0214944782	-0.433047
C	-2.6680055233	-2.5804358163	-0.0351942784	 0.392882
O	-3.7758318484	-2.1181678136	-0.1288988323	-0.308072
C	-2.3969470126	-4.0946576935	 0.035012445	-0.27905
N	-3.5814449583	-4.9266577498	-0.0210429302	-0.484346
H	 1.3001210638	 1.3563412189	 0.1103894606	 0.135495
H	-0.1395562845	 1.7237891826	-0.894079258	 0.146288
H	-0.2636088042	 1.7834118197	 0.8778505359	 0.146281
H	-0.6195398938	-2.3147699891	 0.0997057187	 0.2644
H	-1.7205553045	-4.3641740848	-0.7875154551	 0.131005
H	-1.844776929	-4.3051421062	 0.9610364201	 0.131047
H	-4.2089294754	-4.6533532194	 0.7307442914	 0.239568
H	-4.0946642183	-4.7082080032	-0.8710408965	 0.23954
31.8194	60.7369	69.4616	101.2951	122.9056	167.7665	199.9117	262.5894	306.6588	349.399	409.5682	541.8025	627.3939	690.9746	731.3639	783.0491	887.1507	922.3867	942.6351	987.2954	1065.9602	1162.5939	1166.8405	1173.6547	1183.3024	1215.8981	1240.1874	1362.2081	1396.911	1463.7391	1469.0573	1481.3799	1497.4614	1519.5353	1679.5032	1815.0787	1883.7241	3015.6856	3052.3143	3054.224	3130.2564	3160.8069	3493.4218	3559.1551	3619.2347
COC(=O)NC(=O)CN	COC(=O)NC(=O)CN	
InChI=1S/C4H8N2O3/c1-9-4(8)6-3(7)2-5/h2,5H2,1H3,(H,6,7,8)	InChI=1S/C4H8N2O3/c1-9-4(8)6-3(7)2-5/h2,5H2,1H3,(H,6,7,8)
