17
gdb 32884	4.34927	0.84076	0.71134	1.8096	71.56	-0.1987	0.0163	0.2151	1526.6034	0.136333	-455.171376	-455.162268	-455.161324	-455.206426	32.569	
N	-0.0065579737	 1.2739274441	 0.5014176271	-0.598463
C	-0.0639319508	-0.0614456072	 0.1179362792	 0.257696
C	-0.9571910741	-0.7334491263	-0.6539766571	-0.128513
O	-0.5861505305	-2.065307161	-0.6464815468	-0.185126
C	 0.5122716445	-2.1136241128	 0.1298144771	 0.415037
C	 1.1627852617	-3.4376704419	 0.3336008653	-0.308742
C	 2.3645727855	-3.3595012271	 1.2680959791	-0.07165
O	 2.887276021	-4.6754432686	 1.3708934071	-0.422027
N	 0.8718244739	-0.9610065874	 0.6109286555	-0.357568
H	 0.9317039111	 1.5418261357	 0.7667899671	 0.253457
H	-0.3878391502	 1.91613899	-0.1789529759	 0.247229
H	-1.8317378054	-0.4761254897	-1.2229299542	 0.129615
H	 0.4333639578	-4.1494197557	 0.7382627176	 0.136631
H	 1.4817572585	-3.8480639534	-0.6323826302	 0.135576
H	 3.1046920597	-2.6562980448	 0.8610182307	 0.103693
H	 2.048611325	-2.967439069	 2.2450986125	 0.10531
H	 3.6435120158	-4.6496668549	 1.9637663157	 0.287843
30.905	85.767	121.9417	207.2558	246.4248	254.9976	332.2984	349.1278	363.5005	464.8103	629.4307	648.8154	665.9966	692.2626	755.3234	793.1981	806.5941	997.4155	1017.4627	1036.6275	1076.392	1092.6304	1106.797	1119.6137	1213.0676	1213.9296	1252.8296	1301.1965	1302.8626	1376.5038	1411.4682	1469.5018	1481.6887	1525.611	1603.8049	1635.4858	1676.7573	2998.4766	3027.4322	3037.2672	3071.7809	3305.5368	3554.1662	3652.4081	3836.0954
NC1=COC(CCO)=N1	Nc1coc(CCO)n1	
InChI=1S/C5H8N2O2/c6-4-3-9-5(7-4)1-2-8/h3,8H,1-2,6H2	InChI=1S/C5H8N2O2/c6-4-3-9-5(7-4)1-2-8/h3,8H,1-2,6H2
