24
gdb 58246	2.81129	0.97047	0.89045	1.2958	86.01	-0.2248	0.0674	0.2922	1482.3208	0.214964	-405.517331	-405.506284	-405.50534	-405.553474	40.593	
C	 0.8413731665	-1.906571295	-1.537703132	-0.41038
C	-0.4637044097	-2.7084156741	-1.4189239081	 0.037182
C	-0.2352790109	-3.993943233	-0.6123225979	-0.396419
C	-1.6198548954	-1.8914872354	-0.7914159275	 0.117761
O	-1.3014886006	-1.4445752796	 0.5297092897	-0.445364
C	-2.0699779407	-0.7315422774	-1.6573722544	-0.026446
C	-3.1456381796	-0.8958920769	-2.6791802992	-0.257186
N	-3.3689737841	-0.0774958347	-1.4959673985	-0.086694
C	-4.3057261246	-0.5671755292	-0.4921011643	-0.310336
H	 1.6277107402	-2.5219204546	-1.9854363709	 0.117274
H	 0.7312977906	-1.0142813611	-2.1613674537	 0.11652
H	 1.2002418418	-1.5939093266	-0.5504186265	 0.113301
H	-0.7910137623	-2.9835591096	-2.4309044973	 0.074217
H	 0.0169148069	-3.7504951957	 0.4241345537	 0.130509
H	-1.1334656018	-4.6208470451	-0.5992491862	 0.107264
H	 0.5817191014	-4.5866985925	-1.0358981464	 0.105297
H	-2.460202711	-2.5789293479	-0.6489866443	 0.079362
H	-0.7198146527	-0.6810185656	 0.4507697626	 0.281764
H	-1.2760047192	-0.0158082652	-1.8765529705	 0.082998
H	-3.0971726816	-0.3733511048	-3.6312647351	 0.112798
H	-3.6366328043	-1.8689124226	-2.722418263	 0.103208
H	-4.4375829001	-1.6599496414	-0.4841146299	 0.100673
H	-3.9633286384	-0.2599867022	 0.4994840109	 0.134622
H	-5.2841404203	-0.1150398698	-0.6827587111	 0.118075
50.4395	77.6644	121.2423	189.3393	210.3782	213.0262	236.7682	252.7571	278.1754	283.9677	360.4183	376.6549	425.7075	440.6125	545.9853	623.4139	753.4518	824.9994	862.7674	909.1401	929.499	958.8914	967.6119	1016.6465	1034.1361	1073.9994	1102.582	1110.063	1128.4401	1131.0448	1162.2835	1187.7778	1201.9241	1204.5531	1259.7422	1302.4571	1339.2031	1347.7167	1366.1195	1399.8312	1410.6644	1422.6737	1437.6058	1447.8676	1484.5777	1488.76	1497.0188	1504.393	1510.463	1511.7887	1514.5102	2982.6391	3014.5492	3031.4373	3034.5863	3053.7503	3071.7012	3078.069	3086.3669	3097.3093	3098.8796	3107.9761	3114.5731	3117.9305	3167.0116	3809.5504
CC(C)C(O)C1CN1C	CC(C)[C@@H](O)[C@H]1CN1C	
InChI=1S/C7H15NO/c1-5(2)7(9)6-4-8(6)3/h5-7,9H,4H2,1-3H3	InChI=1S/C7H15NO/c1-5(2)7(9)6-4-8(6)3/h5-7,9H,4H2,1-3H3/t6-,7-,8?/m1/s1
