13
gdb 133245	3.39724	1.42136	1.00839	3.8979	64.36	-0.2636	-0.0835	0.1801	1061.9213	0.089255	-494.066373	-494.058966	-494.058022	-494.098706	26.742	
C	-0.0317794228	 1.4460153879	-0.015573296	-0.314081
N	-0.0075340512	-0.0143440406	-0.0141670466	-0.054609
N	-0.0467753578	-0.6217645796	-1.1877083627	-0.13573
C	-0.025376124	-1.9260738354	-1.1933837264	-0.145707
C	 0.0381397954	-2.6188136478	 0.0501436913	 0.334058
F	 0.0576284556	-3.93972094	-0.0067589463	-0.048113
N	 0.0774119383	-2.0591283853	 1.2012453791	-0.374555
C	 0.0569467871	-0.6729519651	 1.2497137724	 0.474369
O	 0.0887938627	-0.0118072627	 2.2600035867	-0.36478
H	 0.8681430323	 1.8304873264	 0.4698898924	 0.162202
H	-0.0834469255	 1.7718347702	-1.0527503931	 0.152473
H	-0.8970635257	 1.8009957946	 0.5488157472	 0.162325
H	-0.0569827445	-2.4345666226	-2.1474663381	 0.152148
94.9232	121.4927	192.1579	288.8592	326.071	377.0997	468.295	489.5005	556.143	618.9787	738.768	747.8663	793.0405	796.5909	858.0396	991.576	1052.4459	1150.2827	1158.1865	1244.4289	1271.0527	1336.7645	1430.3741	1455.297	1469.5522	1504.3075	1556.1863	1672.0143	1813.6736	3063.6273	3130.9525	3181.8969	3227.7588
CN1N=CC(F)=NC1=O	Cn1ncc(F)nc1=O	
InChI=1S/C4H4FN3O/c1-8-4(9)7-3(5)2-6-8/h2H,1H3	InChI=1S/C4H4FN3O/c1-8-4(9)7-3(5)2-6-8/h2H,1H3
