19
gdb 76972	1.87501	1.6107	1.1245	3.8231	76.66	-0.237	-0.0136	0.2234	1166.7641	0.157763	-422.99739	-422.988253	-422.987309	-423.032065	33.143	
C	-0.1100114207	 1.1843855791	-1.7436741442	-0.428699
C	-0.0472444206	-0.11420549	-0.9636589501	-0.041717
C	 1.2575262132	-0.6585341343	-0.3774844289	-0.140947
C	 2.5615202797	 0.0365472172	-0.5523350906	 0.149797
O	 3.6178115487	-0.5480238247	-0.4671962261	-0.284277
C	 0.1296661708	-0.1494396073	 0.5259058951	-0.069754
C	 0.2285729742	 1.0746733145	 1.3815011424	 0.057587
C	 1.3455714986	 1.3113380514	 2.3081704422	-0.183092
O	 1.2251326012	 2.0538172444	 1.0886341823	-0.227421
H	 0.4711199818	 1.9811625925	-1.2769238413	 0.155444
H	 0.2571062142	 1.0450414652	-2.7656968224	 0.125569
H	-1.1476668343	 1.5287858264	-1.8092991768	 0.121289
H	-0.6920776214	-0.8916785877	-1.3656399875	 0.098301
H	 1.3849882105	-1.7365828018	-0.3768658324	 0.106161
H	 2.5242012731	 1.1149346361	-0.7849272031	 0.097574
H	-0.4011102342	-0.9471866533	 1.0419392835	 0.105023
H	-0.738194496	 1.5069520945	 1.6482205417	 0.102423
H	 1.1828183407	 1.8882922496	 3.2163789452	 0.122931
H	 2.1718543706	 0.6037839183	 2.3378530809	 0.133809
43.1731	77.6727	145.6488	195.3513	229.4936	247.0412	299.1584	323.9174	408.7432	477.5931	560.9973	640.2824	722.0451	772.2767	857.563	887.4961	905.0584	951.1641	978.2762	999.7651	1038.9453	1077.099	1096.6331	1112.0307	1131.4589	1151.113	1165.326	1176.5383	1188.3643	1245.8334	1292.896	1337.8107	1379.1172	1421.3289	1423.3014	1439.9101	1457.1717	1505.6708	1511.1757	1527.2288	1795.0252	2980.389	3040.7748	3086.3659	3094.9233	3095.7222	3124.162	3132.2118	3147.822	3164.132	3186.8734
CC1C(C=O)C1C1CO1	C[C@H]1[C@@H](C=O)[C@H]1[C@H]1CO1	
InChI=1S/C7H10O2/c1-4-5(2-8)7(4)6-3-9-6/h2,4-7H,3H2,1H3	InChI=1S/C7H10O2/c1-4-5(2-8)7(4)6-3-9-6/h2,4-7H,3H2,1H3/t4-,5+,6+,7-/m0/s1
