20
gdb 118208	3.2288	0.83172	0.73152	2.2628	73.31	-0.2577	0.0601	0.3179	1602.7527	0.168513	-477.460738	-477.450012	-477.449067	-477.497482	37.431	
C	 0.0519694328	 1.3821106371	-0.0975212725	-0.223658
O	 0.0156683111	-0.0237470875	-0.0755908125	-0.22919
C	 0.6958597228	-0.571903953	 1.0286670074	-0.070309
C	 0.6244912991	-2.0898901628	 0.9824108989	 0.124062
C	-0.7929502753	-2.6342053826	 0.8436975443	-0.40317
O	 1.4293979704	-2.5095961959	-0.1423343637	-0.272926
C	 2.0205345744	-3.7233439828	-0.0303362338	 0.494736
N	 2.7700144161	-3.9748691996	-1.1462539567	-0.560711
O	 1.9299157904	-4.4599873973	 0.9255267474	-0.404604
H	 1.0836619444	 1.7635096576	-0.1585060693	 0.105261
H	-0.4986687569	 1.7103392857	-0.9823711428	 0.12768
H	-0.4206810333	 1.8180430425	 0.7974813604	 0.103285
H	 1.7519657371	-0.256497474	 1.0321500469	 0.094096
H	 0.2430534832	-0.2281588996	 1.9751532401	 0.086574
H	 1.0884724437	-2.4865241148	 1.8901324187	 0.109926
H	-1.4053942274	-2.3075676608	 1.6903712804	 0.113844
H	-1.2526031751	-2.268884416	-0.0766395401	 0.137657
H	-0.7706861661	-3.7259340883	 0.8383607533	 0.136028
H	 2.605791766	-3.4209830725	-1.9697519342	 0.264503
H	 3.0747443627	-4.9250191555	-1.2688200323	 0.266916
48.7638	65.5818	95.8293	109.0305	174.6627	223.2257	233.8193	250.0704	325.017	335.3432	353.8143	432.5896	481.54	523.3303	612.9374	684.1107	784.7045	834.5153	905.0967	938.8877	970.6972	1055.6056	1089.7053	1119.5349	1135.7132	1144.8374	1185.669	1189.0069	1234.2358	1280.2985	1338.7232	1373.7337	1397.7476	1406.6469	1426.6431	1479.2534	1486.7214	1492.0416	1494.5238	1500.551	1521.9738	1610.7555	1825.0766	2951.9275	2969.9567	2991.7086	3011.986	3050.2897	3078.4668	3114.5713	3122.1742	3148.09	3613.3998	3743.4749
COCC(C)OC(N)=O	COC[C@@H](C)OC(=O)N	
InChI=1S/C5H11NO3/c1-4(3-8-2)9-5(6)7/h4H,3H2,1-2H3,(H2,6,7)	InChI=1S/C5H11NO3/c1-4(3-8-2)9-5(6)7/h4H,3H2,1-2H3,(H2,6,7)/t4-/m1/s1
