13
gdb 15207	2.64181	1.99646	1.54751	4.4648	63.48	-0.2802	-0.0266	0.2537	847.9213	0.094967	-357.62797	-357.620208	-357.619264	-357.660226	27.007	
C	-0.2164881802	 1.506129814	-0.0510934146	-0.336151
N	 0.0303210763	 0.065092966	 0.0282690848	-0.089441
C	 1.3566841457	-0.4491421963	-0.2990110096	-0.164434
C	 2.4367037767	 0.4347991457	-0.6677915885	 0.313004
N	 3.2902986536	 1.1348768682	-1.0108576432	-0.319471
C	 0.8394366918	-0.4593921696	 1.1241857906	-0.164435
C	 1.4265925701	 0.4147712747	 2.1115458994	 0.313007
N	 1.8575266581	 1.1064628032	 2.9314764245	-0.319472
H	 0.6328374732	 2.1254177154	 0.2623571443	 0.155766
H	-0.4692703229	 1.7475175419	-1.0860489861	 0.149732
H	-1.0762787365	 1.7354451777	 0.5825275059	 0.149726
H	 1.3599900306	-1.3933369141	-0.8374954128	 0.156085
H	 0.5006059036	-1.4103669967	 1.5270759453	 0.156085
99.3643	133.5587	165.468	180.6924	259.6415	347.8842	365.5208	467.7248	585.3213	638.2614	639.694	711.0705	851.5194	851.8148	999.1179	1040.329	1103.7466	1122.1123	1173.7759	1174.4334	1318.5697	1352.2355	1370.6612	1458.6186	1492.2888	1494.1458	2357.5569	2358.3179	3028.1588	3109.7183	3137.6216	3145.3446	3151.5201
CN1C(C#N)C1C#N	CN1[C@@H](C#N)[C@H]1C#N	
InChI=1S/C5H5N3/c1-8-4(2-6)5(8)3-7/h4-5H,1H3	InChI=1S/C5H5N3/c1-8-4(2-6)5(8)3-7/h4-5H,1H3/t4-,5+,8?
