20
gdb 108350	2.60106	1.60497	1.28938	2.6434	77.68	-0.2312	0.0636	0.2948	1057.5052	0.172225	-403.073546	-403.065744	-403.0648	-403.105643	31.562	
O	-0.0027799359	 1.3805907602	-0.2632696936	-0.42391
C	 0.0388443176	-0.006585645	 0.0155325951	-0.141328
C	-1.3628952485	-0.5571000992	 0.1381954454	 0.367225
C	-2.1748418864	-0.3370876355	 1.4440471101	-0.289813
C	-2.5378508985	-1.8599757738	 1.4587465196	-0.245197
C	-1.7293997556	-2.0607614467	 0.1434830955	-0.103769
C	-2.444196771	-1.8046760146	-1.1918239219	-0.034265
C	-3.4648482348	-0.7435243925	-1.1291679125	-0.249281
N	-2.0552631661	-0.3262593125	-1.2080822626	-0.196951
H	-0.5829951255	 1.4632085386	-1.0322572774	 0.29105
H	 0.5779172926	-0.5603012472	-0.7708014441	 0.084341
H	 0.5906394825	-0.1316320246	 0.9533511209	 0.100036
H	-1.5392667693	-0.0302325281	 2.2783043678	 0.108893
H	-3.0083174988	 0.366682753	 1.3837151956	 0.109623
H	-2.1088672279	-2.3970265902	 2.3074813487	 0.106388
H	-3.6014566032	-2.1058644452	 1.4028184622	 0.103404
H	-0.9697283347	-2.8418866177	 0.1190508534	 0.073366
H	-2.3187115934	-2.4223981766	-2.0761680983	 0.096521
H	-4.0030403973	-0.5249199347	-2.0472907264	 0.122899
H	-4.0448157558	-0.5640683176	-0.2300341575	 0.120766
95.7111	161.3775	215.4713	298.5302	338.4273	360.6569	433.6148	496.2497	540.7576	641.3598	667.7449	726.0273	738.9927	795.2062	860.8854	881.4064	912.7982	932.7844	941.4136	972.0363	1023.5597	1054.8276	1064.1079	1085.1674	1107.8061	1113.3799	1118.7462	1140.07	1154.1585	1216.3263	1227.6224	1231.8399	1255.5353	1267.5376	1309.1061	1322.784	1361.9519	1378.3047	1438.0093	1473.9965	1483.9899	1500.7056	1515.118	2969.2739	3060.65	3066.2121	3070.6808	3102.2085	3111.3649	3122.6516	3124.8506	3152.3211	3204.9663	3756.5642
OCC12CCC1C1CN21	OC[C@]12CC[C@H]1[C@H]1CN21	
InChI=1S/C7H11NO/c9-4-7-2-1-5(7)6-3-8(6)7/h5-6,9H,1-4H2	InChI=1S/C7H11NO/c9-4-7-2-1-5(7)6-3-8(6)7/h5-6,9H,1-4H2/t5-,6+,7+,8?/m0/s1
