20
gdb 82392	2.43567	1.70397	1.1262	2.3382	80.57	-0.2335	0.0279	0.2614	1120.4789	0.172803	-403.14299	-403.134689	-403.133745	-403.175639	32.765	
C	-0.6700035763	 1.4757663288	 0.100297041	-0.468416
C	-0.1737031269	 0.0570105474	 0.0069344455	 0.293389
C	-0.0201897181	-0.567264943	-1.1625291075	-0.153156
C	 0.4459347973	-1.9825005816	-1.3536838619	-0.270536
C	 0.9421191807	-2.6376967534	-0.0857241014	-0.028041
N	 2.0715000659	-1.9836957174	 0.6027526353	-0.348387
C	 0.7331664842	-1.9869984806	 1.2305388353	-0.065216
C	 0.129162866	-0.5997069798	 1.3411942449	 0.037536
O	 0.9875503923	 0.2224663232	 2.1349184102	-0.438592
H	 0.0472170971	 2.1025669051	 0.6385166795	 0.137672
H	-0.8451955039	 1.9047482964	-0.8896658751	 0.111621
H	-1.6098764587	 1.527044547	 0.666173126	 0.116703
H	-0.2613185947	-0.0277257305	-2.0769276602	 0.077371
H	-0.3792425426	-2.5850563207	-1.7615938384	 0.109341
H	 1.2371040031	-2.0150387927	-2.1157611034	 0.113203
H	 0.9493386378	-3.7256919496	-0.1010164836	 0.08355
H	 2.6639254598	-2.6843376515	 1.0390528607	 0.233224
H	 0.594267076	-2.6178554944	 2.104779995	 0.086777
H	-0.8041310188	-0.6648715586	 1.9169769829	 0.084701
H	 1.8596984398	 0.1244283557	 1.7286578351	 0.287254
77.3342	169.3669	212.7059	271.6745	283.1022	338.6432	364.6952	424.1313	474.725	513.7649	557.2999	658.142	732.843	778.1327	814.743	837.1417	898.3283	907.8676	934.555	977.1793	1018.427	1033.6348	1050.589	1069.4891	1075.4174	1132.0369	1157.7204	1182.8594	1209.1354	1236.6173	1263.2296	1281.8302	1328.0616	1376.2859	1385.1695	1403.2482	1408.6171	1436.93	1464.3326	1469.7153	1472.9076	1496.6159	1744.8126	2998.5657	3015.2726	3020.8752	3024.8419	3082.681	3119.9161	3122.6482	3137.0629	3140.9065	3510.3008	3754.8285
CC1=CCC2NC2C1O	CC1=CC[C@H]2N[C@H]2[C@H]1O	
InChI=1S/C7H11NO/c1-4-2-3-5-6(8-5)7(4)9/h2,5-9H,3H2,1H3	InChI=1S/C7H11NO/c1-4-2-3-5-6(8-5)7(4)9/h2,5-9H,3H2,1H3/t5-,6-,7+/m1/s1
