21
gdb 120345	3.98366	0.95555	0.8546	1.0599	84.51	-0.2257	0.0223	0.248	1424.3234	0.183186	-387.073275	-387.064578	-387.063633	-387.107072	32.921	
C	-0.0858883241	 1.4126243525	-0.0428523443	-0.225194
O	 0.0190188498	 0.0103028171	-0.0387149389	-0.233804
C	 0.6249748915	-0.4938587524	 1.1339229786	-0.058704
C	 0.6961579905	-2.0169079674	 1.0211666676	-0.059884
C	 1.560334743	-2.516426951	-0.1230906251	-0.082552
C	 2.4369377377	-3.4416613455	 0.2740399873	-0.084784
C	 2.372698448	-3.6699460504	 1.7478638375	-0.077378
C	 2.7543220377	-2.4688701314	 2.5907042809	-0.281068
C	 1.3036527945	-2.7101414566	 2.2443834341	-0.064506
H	 0.9012688018	 1.8982860611	 0.0189961703	 0.102622
H	-0.5638346573	 1.7043084328	-0.9814629193	 0.125279
H	-0.6985999527	 1.7796721719	 0.796332749	 0.101775
H	 1.6339497794	-0.0678113901	 1.2580700224	 0.084744
H	 0.0372502261	-0.2063163027	 2.0227710853	 0.082405
H	-0.3378721359	-2.3624205074	 0.8767370394	 0.08729
H	 1.4549003202	-2.1248423157	-1.1272074254	 0.103474
H	 3.1482346625	-3.9502449358	-0.3675149559	 0.092026
H	 2.4981592503	-4.6652780702	 2.1596531648	 0.084696
H	 3.0384935036	-2.6475238817	 3.6228831599	 0.10729
H	 3.3006595109	-1.6681173311	 2.1041320202	 0.112368
H	 0.6423627824	-2.9943795661	 3.0544668215	 0.083907
75.9016	98.5899	122.8437	192.7671	239.4087	300.0214	344.2098	411.8129	446.6653	597.1604	685.9418	753.7206	784.0732	789.4918	815.1497	879.0521	916.6132	945.0188	974.1325	986.6326	1022.3967	1031.5146	1068.1543	1077.5001	1096.9576	1105.7889	1117.5169	1144.06	1162.6516	1184.9967	1198.693	1227.295	1249.7756	1296.0244	1306.209	1334.3808	1367.3143	1389.9026	1416.2804	1476.6592	1480.1575	1485.5	1503.0111	1525.6388	1666.35	2950.7665	2968.4739	2983.6805	3004.7624	3009.291	3110.7086	3124.6175	3165.4093	3175.7019	3188.0257	3213.2096	3220.932
COCC1C=CC2CC12	COC[C@H]1C=C[C@H]2C[C@@H]12	
InChI=1S/C8H12O/c1-9-5-7-3-2-6-4-8(6)7/h2-3,6-8H,4-5H2,1H3	InChI=1S/C8H12O/c1-9-5-7-3-2-6-4-8(6)7/h2-3,6-8H,4-5H2,1H3/t6-,7+,8+/m0/s1
