17
gdb 108301	2.91754	1.29706	1.04701	4.3922	68.76	-0.2345	-0.0353	0.1993	1142.326	0.134455	-458.927951	-458.919491	-458.918547	-458.961591	31.011	
O	-0.1500771696	 1.5381338903	 0.072810482	-0.421771
C	 0.0557609022	 0.1324902618	 0.0953790186	-0.198021
C	-1.2906498447	-0.5149292542	-0.084775946	 0.320526
C	-2.2913169159	-0.5113541487	 1.0838633279	-0.113195
O	-2.5575445824	-1.9293358043	 0.9264863939	-0.288214
C	-1.5411262188	-2.0623544763	-0.0912678735	-0.080067
C	-2.181828782	-1.9152074418	-1.49344754	 0.419915
O	-2.6262765913	-2.6873709149	-2.2888376509	-0.288157
C	-1.9827812031	-0.3841607771	-1.4735667568	-0.415581
H	 0.6991685879	 1.9729644449	 0.195889079	 0.293284
H	 0.7346298754	-0.1880982937	-0.7120619658	 0.090707
H	 0.5017502371	-0.1929558042	 1.048814024	 0.094218
H	-1.8438053544	-0.3032583261	 2.0636820775	 0.107734
H	-3.1929774146	 0.097923389	 0.9606982901	 0.113644
H	-0.8177765057	-2.8570864388	 0.1135980385	 0.08968
H	-2.8903544677	 0.2230751817	-1.5214449543	 0.136751
H	-1.3083243626	-0.0550896974	-2.271123824	 0.138546
63.7548	90.4255	160.5897	207.276	271.5949	344.6433	355.1916	376.0585	437.9971	531.2273	607.5537	680.2445	777.3828	869.4429	904.3817	926.8973	963.139	992.3525	1006.5353	1034.9064	1064.6188	1087.9051	1107.0629	1144.2606	1172.9317	1190.8066	1204.1336	1251.0292	1260.6051	1297.3185	1308.6468	1369.623	1434.0424	1465.4001	1514.8831	1527.5046	1897.1151	2961.5887	2992.0857	3020.843	3057.0589	3073.3287	3075.5367	3112.0116	3826.9131
OCC12COC1C(=O)C2	OC[C@]12CO[C@H]1C(=O)C2	
InChI=1S/C6H8O3/c7-2-6-1-4(8)5(6)9-3-6/h5,7H,1-3H2	InChI=1S/C6H8O3/c7-2-6-1-4(8)5(6)9-3-6/h5,7H,1-3H2/t5-,6+/m0/s1
