17
gdb 89341	2.00774	1.75057	1.19472	6.4849	75.17	-0.2447	0.0245	0.2692	1077.8417	0.135836	-417.984841	-417.97611	-417.975166	-418.017954	33.075	
N	-0.1155023396	 1.4687975498	 0.082264822	-0.583723
C	-0.0308944822	 0.0646758949	-0.0527488502	 0.2777
C	-0.2904306481	-0.806107732	 1.132154656	-0.352474
C	-1.2136366123	-0.9527953054	-0.0623558912	 0.172976
C	-2.6173977882	-0.7330214236	 0.0180012488	 0.208556
N	-3.7579972422	-0.5457419668	 0.0819360025	-0.360238
C	-0.5070094728	-1.7845408386	-1.1401249278	 0.064719
O	-1.2755359511	-1.8021814912	-2.3162489682	-0.421041
C	 0.6731282818	-0.7535819729	-1.1509086931	-0.320219
H	 0.6754099048	 1.8509397849	 0.5897647826	 0.239197
H	-0.1798487372	 1.9357376477	-0.8154115973	 0.240709
H	 0.3777102608	-1.6258271952	 1.3874712266	 0.116288
H	-0.738675931	-0.2960868893	 1.9774104538	 0.146537
H	-0.2394998112	-2.8008031072	-0.8174298526	 0.075044
H	-0.8118608223	-2.3290006779	-2.9749672493	 0.290146
H	 0.6747378203	-0.2327357665	-2.1118544025	 0.110905
H	 1.6815484004	-1.1160926406	-0.9233429202	 0.094921
107.9994	127.6833	144.4473	236.1952	255.1229	340.8441	349.8901	394.0901	433.5031	455.6296	552.8075	589.4403	594.6534	695.6439	746.6711	764.1858	838.4489	863.6896	933.5548	968.7245	1030.1848	1073.4678	1090.2753	1113.2213	1176.8163	1179.0099	1219.7033	1230.448	1269.4014	1300.9118	1345.1752	1405.6523	1427.782	1466.1757	1504.65	1658.1995	2346.4389	2996.2485	3040.5791	3109.0686	3110.3469	3219.0746	3507.4001	3589.8276	3821.7682
NC12CC1(C#N)C(O)C2	N[C@@]12C[C@]1(C#N)[C@@H](O)C2	
InChI=1S/C6H8N2O/c7-3-5-2-6(5,8)1-4(5)9/h4,9H,1-2,8H2	InChI=1S/C6H8N2O/c7-3-5-2-6(5,8)1-4(5)9/h4,9H,1-2,8H2/t4-,5-,6-/m0/s1
