15
gdb 9811	3.60156	1.69489	1.27545	4.0287	68.86	-0.2518	-0.0631	0.1887	943.4911	0.116521	-362.610968	-362.602677	-362.601733	-362.644162	30.043	
C	 0.0721941711	 1.3832234811	 0.2926262365	-0.48851
C	 0.1161948056	-0.1059653161	 0.0279334032	 0.188093
C	 0.5823153557	-0.6143854086	-1.2957993966	-0.255288
N	 1.4387755129	-0.7737141269	-0.1207810316	-0.317493
C	-0.8682335836	-0.991430606	 0.7626104334	 0.240689
O	-1.0303701592	-2.1569243056	 0.4740225975	-0.291431
C	-1.6204850587	-0.3802315087	 1.846862181	 0.242219
C	-2.2459084092	 0.1062641351	 2.7535214416	-0.41168
H	 0.8016417424	 1.9007131918	-0.337990606	 0.114712
H	-0.9157489659	 1.8000609418	 0.0731537173	 0.135913
H	 0.3006517385	 1.6097834751	 1.338755133	 0.136629
H	 0.1587573068	-1.5415652037	-1.6673613764	 0.144956
H	 0.8399520306	 0.1283655308	-2.0465784009	 0.112871
H	 2.1596032821	-0.054152649	-0.1150627642	 0.233413
H	-2.8052384091	 0.5225984688	 3.5560265722	 0.214906
30.571	145.5515	211.5416	226.2021	270.6799	315.8266	350.996	367.921	472.549	556.0439	645.4919	683.3763	702.4765	748.2157	819.9819	847.3289	939.9947	977.7904	1018.0522	1043.724	1090.9309	1142.6146	1153.2523	1274.2203	1336.0634	1361.236	1420.5433	1482.2242	1491.9411	1498.8353	1760.3067	2208.2577	3036.7146	3105.6079	3108.8346	3113.0509	3212.7955	3482.0598	3492.9362
CC1(CN1)C(=O)C#C	C[C@]1(CN1)C(=O)C#C	
InChI=1S/C6H7NO/c1-3-5(8)6(2)4-7-6/h1,7H,4H2,2H3	InChI=1S/C6H7NO/c1-3-5(8)6(2)4-7-6/h1,7H,4H2,2H3/t6-/m0/s1
