16
gdb 32255	2.62773	1.59054	0.99711	2.9405	75.06	-0.2258	-0.0041	0.2217	1135.162	0.12609	-437.937703	-437.92992	-437.928976	-437.970152	29.415	
C	 0.1190638859	 1.3205249828	 0.0339086658	-0.251221
O	-0.0035142793	-0.0911954298	-0.0072880361	-0.296607
C	-1.2613311819	-0.6274089674	 0.0176301254	 0.221349
C	-2.4627206265	 0.0650506801	 0.0805223485	-0.107554
N	-3.6597604262	-0.5394638979	 0.1015879942	-0.286503
C	-3.6730243858	-1.8701007855	 0.0591805367	 0.001882
C	-2.5275572116	-2.662497828	-0.0050776802	-0.21696
C	-1.2928920275	-2.0333141102	-0.0265183213	 0.328664
O	-0.1456022598	-2.7422821385	-0.0881840129	-0.432284
H	 1.1879765813	 1.5363937166	 0.0040806066	 0.139733
H	-0.3710766452	 1.7878209594	-0.8288669733	 0.13528
H	-0.3096643819	 1.7303228945	 0.9565872031	 0.135255
H	-2.4737507093	 1.1500177884	 0.1164170362	 0.104693
H	-4.6522711364	-2.34200744	 0.0768513844	 0.105864
H	-2.5834501386	-3.74408485	-0.0381903386	 0.108643
H	 0.5831445928	-2.1063122446	-0.0921339584	 0.309765
77.4884	179.1311	219.9306	243.737	312.925	339.5859	460.8367	502.7865	510.7716	547.1939	607.1093	611.1577	769.0726	786.3738	855.1871	863.9259	917.9933	973.1484	1049.6202	1084.1018	1179.2309	1197.2341	1203.1366	1241.294	1267.1496	1316.6468	1344.9339	1400.2773	1457.1235	1484.9396	1489.0993	1507.314	1545.2177	1623.5597	1650.8379	3014.0722	3077.3294	3139.7062	3157.042	3170.836	3206.292	3761.9734
COC1=CN=CC=C1O	COc1cnccc1O	
InChI=1S/C6H7NO2/c1-9-6-4-7-3-2-5(6)8/h2-4H,1H3,(H,7,8)	InChI=1S/C6H7NO2/c1-9-6-4-7-3-2-5(6)8/h2-4H,1H3,(H,7,8)
