27
gdb 113071	2.03862	1.07868	0.87397	0.1569	95.86	-0.2706	0.0784	0.349	1562.661	0.251244	-353.561238	-353.550258	-353.549314	-353.597257	41.205	
C	-0.042189111	 1.3755322051	-0.6622332799	-0.382899
C	-0.0923928618	-0.1468913201	-0.4940543285	-0.184068
C	-1.3773907324	-0.6219728715	 0.1871590648	 0.027373
C	-2.6575192841	-0.5822771495	-0.7016878198	-0.247826
C	-2.6687533172	-2.139514013	-0.7740785531	 0.027373
C	-2.294285229	-2.7344385446	-2.1330530792	-0.184068
C	-3.4120966061	-2.584603373	-3.1706584136	-0.382899
C	-1.5787879191	-2.1678430456	 0.3522958111	-0.006562
C	-0.388051596	-3.113733826	 0.2459305314	-0.412352
H	 0.8810305771	 1.6919616275	-1.1578927001	 0.108817
H	-0.8827449995	 1.73977491	-1.2628038152	 0.117184
H	-0.0895077967	 1.8796572821	 0.3096128214	 0.112342
H	 0.0132744618	-0.6232950733	-1.4770545084	 0.094675
H	 0.7736548205	-0.4735458761	 0.0958970117	 0.092701
H	-1.4803980545	-0.076174854	 1.1322977097	 0.056389
H	-3.5295665773	-0.1611682883	-0.1949670735	 0.092406
H	-2.5473721647	-0.0675522973	-1.6622777445	 0.09
H	-3.6180232339	-2.588199812	-0.4588632176	 0.056389
H	-1.380529843	-2.2612260833	-2.5145456688	 0.094675
H	-2.0560466641	-3.7988569691	-2.0104141687	 0.092701
H	-4.3238060139	-3.0962517444	-2.8422257729	 0.112342
H	-3.6669239578	-1.5320514649	-3.3352469683	 0.117184
H	-3.1199579311	-3.009791136	-4.1360654921	 0.108817
H	-2.0746469152	-2.3535617387	 1.3116520902	 0.0652
H	 0.1643946106	-2.9910705502	-0.6899006718	 0.114688
H	 0.3163951076	-2.9479229678	 1.0688179821	 0.109709
H	-0.7137913993	-4.1585462258	 0.3019905335	 0.109709
55.7603	102.9254	120.2784	171.2914	173.6899	214.2101	225.9795	233.3998	277.3176	297.3286	364.6824	413.9608	477.4387	494.4741	693.8737	767.0061	768.7963	793.7498	819.6134	857.4702	920.174	944.9543	948.6547	960.9907	1011.2397	1015.0035	1042.939	1055.4143	1059.3354	1117.5678	1133.9393	1164.1036	1183.9728	1195.7347	1236.6157	1265.0597	1271.6267	1271.9674	1302.0263	1314.3726	1332.2	1343.6483	1370.4094	1386.1694	1395.3535	1405.6833	1407.5067	1411.4088	1479.9686	1480.3315	1494.1459	1497.4728	1497.4918	1497.9108	1501.5805	1506.7439	1508.5967	3014.1478	3014.2639	3018.9913	3023.5206	3028.5943	3029.129	3029.6853	3037.144	3045.3002	3048.8495	3054.6836	3086.0801	3093.8676	3095.687	3098.4962	3100.2285	3100.6426	3108.3963
CCC1CC(CC)C1C	CC[C@H]1C[C@@H](CC)[C@H]1C	
InChI=1S/C9H18/c1-4-8-6-9(5-2)7(8)3/h7-9H,4-6H2,1-3H3	InChI=1S/C9H18/c1-4-8-6-9(5-2)7(8)3/h7-9H,4-6H2,1-3H3/t7-,8-,9+
