12
gdb 23951	2.00073	1.92553	0.9812	3.7714	78.92	-0.2431	-0.0624	0.1807	1090.8732	0.077753	-398.360514	-398.353119	-398.352175	-398.392655	27.262	
C	 0.1449238188	-1.17476373	-0.00557701	-0.393402
C	 0.052954353	 0.0255117889	 0.0021282744	 0.271097
C	-0.0749564361	 1.4214003965	 0.0115092836	 0.169592
C	-1.179758863	 2.2491241138	 0.0317130988	 0.045815
C	-0.6806523183	 3.5937938518	 0.0318922218	-0.261942
C	 0.6707387242	 3.4849593174	 0.0120465164	-0.023039
O	 1.0527431622	 2.1821427165	-0.0004519344	-0.169681
C	-2.533602245	 1.8380550519	 0.0487628025	 0.189251
N	-3.646435041	 1.5186967544	 0.0628861955	-0.342222
H	 0.2195539922	-2.2346124602	-0.0121874245	 0.210251
H	-1.2665068712	 4.498011253	 0.0451328763	 0.147228
H	 1.471786624	 4.2050764962	 0.0045295996	 0.157052
104.8904	156.1467	185.3977	202.6051	431.0288	472.037	514.3379	521.9874	584.6309	626.2283	630.5774	659.096	704.0544	733.5555	779.1547	844.5182	911.4773	1067.7852	1095.957	1177.3933	1247.8612	1281.3615	1424.2366	1524.5832	1597.2497	2235.7482	2350.2554	3272.4613	3294.5997	3498.2542
C#CC1=C(C=CO1)C#N	C#Cc1c(cco1)C#N	
InChI=1S/C7H3NO/c1-2-7-6(5-8)3-4-9-7/h1,3-4H	InChI=1S/C7H3NO/c1-2-7-6(5-8)3-4-9-7/h1,3-4H
