15
gdb 53922	1.77688	1.63679	1.28229	1.3596	72.02	-0.2677	-0.0046	0.2631	1079.2135	0.109672	-416.815419	-416.8056	-416.804656	-416.850315	35.153	
C	 0.2507143279	 1.5684553063	 0.3038913711	-0.404502
C	 0.0597722421	 0.0515182871	 0.0555005304	-0.216192
C	 0.6162424592	-0.7363969576	 1.1595441987	 0.369929
C	 1.0954065576	-1.3690511087	 2.0599178905	-0.46649
C	-1.3724835457	-0.2591954784	-0.0890328887	 0.292883
N	-2.4892893935	-0.513236483	-0.246610233	-0.349087
C	 0.8568443334	-0.3449681979	-1.2526811733	 0.435208
N	 0.2933298919	-1.3188605978	-2.0011640219	-0.536326
O	 1.9117839741	 0.1915413845	-1.4991153464	-0.348995
H	 1.3199053149	 1.7778838521	 0.3120942785	 0.166678
H	-0.2193912859	 2.1419175993	-0.4983211262	 0.140687
H	-0.1948976203	 1.8499336579	 1.2590886719	 0.141167
H	 1.5162299683	-1.9313770891	 2.8571354124	 0.214013
H	-0.6202690461	-1.6916154971	-1.8045048928	 0.287265
H	 0.774001472	-1.6098325475	-2.8368986812	 0.27376
36.4308	123.9487	140.767	165.7745	231.4618	233.5362	280.9508	307.1706	392.3077	416.3501	479.2618	504.3167	572.9662	581.1387	601.6625	647.2484	662.1649	672.8126	761.9287	875.3386	954.9489	1078.9156	1108.3139	1156.2963	1203.3461	1329.4155	1402.7043	1485.0766	1488.4996	1621.4925	1823.8911	2242.9364	2349.3992	3064.795	3146.49	3171.37	3500.1318	3596.8952	3728.0819
CC(C#C)(C#N)C(N)=O	C[C@@](C#C)(C#N)C(=O)N	
InChI=1S/C6H6N2O/c1-3-6(2,4-7)5(8)9/h1H,2H3,(H2,8,9)	InChI=1S/C6H6N2O/c1-3-6(2,4-7)5(8)9/h1H,2H3,(H2,8,9)/t6-/m1/s1
