19
gdb 10186	2.13594	1.49021	0.92823	4.6825	73.13	-0.2341	0.0338	0.2678	1270.2382	0.165657	-361.241279	-361.231654	-361.23071	-361.276021	33.774	
C	-0.0277994853	 1.5664845509	-0.0083974019	-0.389421
C	-0.0008190943	 0.0455581346	-0.1191494122	-0.115337
N	-1.3379875398	-0.5083400813	 0.0778147785	-0.287793
C	-1.4023030039	-1.9597236329	 0.0531874153	-0.091624
C	-2.7620034716	-2.4271689754	 0.6184448047	-0.180856
N	-2.8913708329	-1.9634412536	 2.0002217716	-0.515494
C	-1.2336590398	-2.4673743831	-1.3198680278	 0.302207
N	-1.100778732	-2.8877083833	-2.3878786371	-0.332132
H	 0.9682329482	 1.9842423543	-0.1807981322	 0.117796
H	-0.7179628651	 1.9932529603	-0.7413773334	 0.131482
H	-0.3541669639	 1.8836378927	 0.9888187285	 0.113643
H	 0.3442210502	-0.2465420005	-1.1184235508	 0.122717
H	 0.7329024636	-0.3696233123	 0.5980666338	 0.07651
H	-1.7108602499	-0.2280519273	 0.9819327179	 0.232238
H	-0.6018237738	-2.4336875827	 0.6580281181	 0.093115
H	-3.550167948	-1.9601717014	 0.0211281985	 0.136004
H	-2.8444368937	-3.515844508	 0.4918441134	 0.109219
H	-3.8635924951	-1.9730567881	 2.2865204225	 0.242195
H	-2.3936298429	-2.5818079827	 2.6332385427	 0.235532
75.346	96.7668	122.7324	148.1679	176.1855	235.3517	252.8582	280.942	340.4204	396.8196	480.7194	541.7293	609.2334	791.8858	817.8977	833.0553	882.0916	941.6714	971.8053	1004.0239	1066.8324	1085.8271	1139.6369	1165.9481	1175.865	1217.603	1294.8516	1320.9713	1323.0082	1371.9998	1392.5666	1413.2346	1418.8108	1482.9927	1496.0289	1498.4934	1502.5827	1524.5284	1658.7985	2359.575	2885.4172	2919.371	3003.5493	3034.6522	3047.7413	3096.3443	3102.6725	3122.5202	3495.5939	3507.1838	3589.9322
CCNC(CN)C#N	CCN[C@@H](CN)C#N	
InChI=1S/C5H11N3/c1-2-8-5(3-6)4-7/h5,8H,2-3,6H2,1H3	InChI=1S/C5H11N3/c1-2-8-5(3-6)4-7/h5,8H,2-3,6H2,1H3/t5-/m0/s1
