18
gdb 36485	4.16202	1.06361	0.92712	3.3974	77.94	-0.239	0.0611	0.3001	1264.1223	0.147761	-401.88811	-401.87989	-401.878946	-401.921275	31.332	
C	-0.1077225452	-1.1759122628	-0.0856744174	-0.447366
C	-0.0624900179	 0.0248499988	-0.0781967787	 0.309679
C	-0.0037503125	 1.4799912648	-0.0441848258	-0.364505
C	 1.4259653174	 2.0327889401	 0.0458481372	 0.144809
O	 2.1201653175	 1.6814809573	-1.1492542146	-0.264856
C	 3.0469502842	 2.7017984366	-1.5033156861	-0.073892
C	 2.5258761593	 3.9695535239	-0.8603008526	-0.055891
N	 1.0920122981	 4.193552557	-1.1400105341	-0.328483
C	 1.5075759511	 3.5473789427	 0.1240394066	-0.093096
H	-0.1482617979	-2.2364065234	-0.1070635887	 0.190984
H	-0.4637814631	 1.9081464626	-0.9409497326	 0.15356
H	-0.5727051505	 1.8482743215	 0.819723267	 0.119913
H	 1.9311270933	 1.6041892951	 0.926838616	 0.077334
H	 4.0560856286	 2.4809934933	-1.119613868	 0.092002
H	 3.0879416037	 2.7454417008	-2.5964123338	 0.116108
H	 3.1872825173	 4.8130393593	-0.6948847073	 0.095917
H	 0.8671144166	 5.1681212369	-0.953949311	 0.233892
H	 1.3574792102	 4.0515449452	 1.0725846638	 0.093891
68.7254	102.5293	153.2166	236.5785	322.4219	350.0862	390.3849	453.2112	540.1372	611.4985	634.2423	672.3953	761.7642	808.8397	835.2475	873.0985	879.3286	946.1824	964.6324	1001.9383	1015.9218	1022.5643	1087.7029	1090.1118	1105.5877	1150.6474	1159.287	1227.8235	1237.1245	1256.0711	1293.7291	1331.0866	1362.2087	1386.2442	1396.2062	1433.8073	1460.3186	1508.8577	2241.7334	2970.7921	2979.3052	3024.245	3073.9005	3081.6135	3168.4819	3179.0778	3499.8561	3508.7005
C#CCC1OCC2NC12	C#CC[C@H]1OC[C@H]2N[C@@H]12	
InChI=1S/C7H9NO/c1-2-3-6-7-5(8-7)4-9-6/h1,5-8H,3-4H2	InChI=1S/C7H9NO/c1-2-3-6-7-5(8-7)4-9-6/h1,5-8H,3-4H2/t5-,6-,7-/m1/s1
