19
gdb 100440	5.96938	0.48033	0.4552	2.0095	101.52	-0.2327	-0.013	0.2197	2430.3945	0.155795	-385.852201	-385.840956	-385.840012	-385.891797	38.169	
C	 0.0106284361	 1.5659559252	 0.0815325007	-0.385854
C	-0.014284808	 0.0391831568	-0.0034476779	-0.172173
C	 0.7038476874	-0.4901878631	-1.2625311435	-0.100902
O	 2.060603606	-0.0505213495	-1.3281251194	-0.412469
C	 0.6052098443	-1.9471692882	-1.3591020589	 0.250668
C	 0.5488805598	-3.1569101439	-1.398733174	-0.136589
C	 0.4838635106	-4.5141280442	-1.4506306877	-0.221026
C	 0.4266662272	-5.7223572236	-1.4957503565	 0.254775
C	 0.3571960077	-7.1711555918	-1.5524385821	-0.518437
H	 1.0384127892	 1.9361830548	 0.055170469	 0.132389
H	-0.5284721714	 2.0167751737	-0.7591484756	 0.115551
H	-0.4603908793	 1.9136017859	 1.0055068332	 0.111055
H	 0.4674880428	-0.4035995202	 0.8776593776	 0.098495
H	-1.0450996665	-0.3330961548	-0.0127050828	 0.109954
H	 0.2297096067	-0.0412409863	-2.1456238629	 0.118193
H	 2.5601261266	-0.5645716843	-0.6835500747	 0.284485
H	 1.0783874457	-7.5748373746	-2.2720635446	 0.157606
H	 0.5741495928	-7.6181482025	-0.5756638171	 0.156468
H	-0.6404601478	-7.5065766993	-1.8577171628	 0.157811
5.5317	55.0394	60.1751	115.2449	149.5942	186.1201	222.9661	273.3448	288.9399	325.6884	343.3293	381.7408	490.9316	504.8172	544.4214	579.3559	677.5564	778.3583	859.4331	967.0851	982.2122	1047.6151	1048.7257	1058.1012	1107.775	1113.6329	1250.1205	1270.8483	1298.8856	1325.2487	1371.037	1405.1357	1410.7589	1420.6407	1471.3546	1472.1978	1479.9338	1494.5149	1508.6855	2272.8579	2382.0156	3018.2546	3023.7015	3030.783	3038.1049	3069.915	3085.8717	3086.1948	3103.9823	3126.4177	3800.9471
CCC(O)C#CC#CC	CC[C@@H](O)C#CC#CC	
InChI=1S/C8H10O/c1-3-5-6-7-8(9)4-2/h8-9H,4H2,1-2H3	InChI=1S/C8H10O/c1-3-5-6-7-8(9)4-2/h8-9H,4H2,1-2H3/t8-/m1/s1
