20
gdb 72196	3.25086	1.8069	1.57435	1.669	81.1	-0.2162	0.0811	0.2973	938.2461	0.17357	-365.966809	-365.960006	-365.959061	-365.997422	29.125	
C	-0.0115468802	 1.4785460314	 0.048161993	-0.472681
C	-0.0560871595	-0.0265689624	 0.1121387494	 0.335431
C	-1.3536812039	-0.7455034665	-0.222060922	-0.27626
C	-0.9999046452	-2.2271583331	-0.0671868515	-0.05578
C	-0.0992656617	-2.6514143775	-1.2625359214	-0.235052
C	 1.0974408929	-2.1663726806	-0.4374166861	 0.039802
C	 0.2857733361	-2.2426978041	 0.8742194338	-0.073945
C	 0.6872533023	-0.7837048211	 1.136200493	-0.089617
N	 1.2530409208	-0.6595050494	-0.2700730501	-0.213515
H	 0.965864536	 1.8502122704	 0.3650333912	 0.129286
H	-0.187413814	 1.8284981634	-0.9747370092	 0.120551
H	-0.7805875775	 1.9174739368	 0.6937573512	 0.112049
H	-2.1242354847	-0.4235668431	 0.4903308107	 0.096251
H	-1.7241553833	-0.5199305106	-1.2288571385	 0.098708
H	-1.8440021185	-2.8685253897	 0.1875901714	 0.065883
H	-0.0572015148	-3.7378431778	-1.3896223587	 0.098289
H	-0.2936600161	-2.1818783615	-2.2319727545	 0.094966
H	 2.0857610375	-2.6094414572	-0.5699836802	 0.073179
H	 0.3929635007	-3.0233764747	 1.6236255777	 0.066928
H	 1.1911280132	-0.3683740827	 2.0031517808	 0.085526
194.7278	212.3657	305.2508	346.1177	405.1451	467.7141	565.2996	613.425	661.6528	691.5904	763.6345	814.2841	834.1228	867.0267	877.9286	894.7649	936.0329	953.0331	961.3159	976.7676	1011.0239	1027.8784	1046.361	1052.99	1099.0891	1118.2102	1139.5825	1182.0822	1193.8922	1224.4145	1235.6612	1251.4483	1264.7793	1280.7571	1305.5858	1327.1493	1347.4204	1404.3025	1418.7727	1477.3464	1487.249	1493.2756	1499.0789	3019.7317	3032.4781	3040.9829	3062.2666	3090.4801	3093.4755	3094.6553	3102.9738	3121.7523	3138.776	3160.1383
CC12CC3CC4C3C1N24	C[C@]12C[C@H]3C[C@@H]4[C@H]3[C@H]1N24	
InChI=1S/C8H11N/c1-8-3-4-2-5-6(4)7(8)9(5)8/h4-7H,2-3H2,1H3	InChI=1S/C8H11N/c1-8-3-4-2-5-6(4)7(8)9(5)8/h4-7H,2-3H2,1H3/t4-,5-,6+,7-,8+,9?/m1/s1
