17
gdb 104974	1.98898	1.60746	1.14245	2.6716	69.77	-0.2473	-0.0852	0.1621	1118.8886	0.133314	-458.959527	-458.95015	-458.949206	-458.994478	33.274	
O	 0.3331648771	 1.1158190141	 0.1359987605	-0.421327
C	-0.0024505153	-0.2442084944	 0.3781128965	-0.156905
C	-1.4635573039	-0.5112079615	 0.0761604339	 0.187554
C	-1.846553614	-0.9344639165	-1.3362481468	-0.294016
C	-1.9139954764	-1.9380715729	-0.2363569057	-0.290198
C	-2.4803027338	 0.3303229919	 0.7739644127	 0.249223
O	-3.6233094668	 0.4676190489	 0.3870625855	-0.304751
C	-2.1577752254	 1.010799502	 2.114082022	 0.100741
O	-1.366386871	 0.5979535307	 2.919005192	-0.229479
H	 0.164480119	 1.297513264	-0.795108983	 0.28437
H	 0.6191345242	-0.9299597046	-0.2181653953	 0.08558
H	 0.2167353182	-0.4171907741	 1.4321804419	 0.147855
H	-2.7812536856	-0.5397793227	-1.7160081288	 0.145927
H	-1.0383634044	-1.0132280834	-2.0559307574	 0.117506
H	-1.1529504807	-2.7087953181	-0.1771815505	 0.128848
H	-2.8923489386	-2.2287012809	 0.1280534848	 0.140058
H	-2.8317872425	 1.8710885674	 2.3089834978	 0.109014
44.5083	89.2766	104.6466	166.5091	218.0726	251.4501	298.8813	335.979	402.804	449.1532	467.2463	577.4821	656.0057	716.2675	796.6258	840.0466	892.7672	951.7535	966.5275	1007.415	1026.4282	1061.8722	1067.9066	1097.8748	1151.5653	1200.9311	1212.243	1310.2607	1336.8083	1379.0446	1392.3379	1425.8834	1455.257	1484.8042	1507.1401	1768.2906	1823.3789	2924.9364	2985.8371	3130.5397	3136.0676	3139.2749	3225.4474	3239.0133	3801.3133
OCC1(CC1)C(=O)C=O	OCC1(CC1)C(=O)C=O	
InChI=1S/C6H8O3/c7-3-5(9)6(4-8)1-2-6/h3,8H,1-2,4H2	InChI=1S/C6H8O3/c7-3-5(9)6(4-8)1-2-6/h3,8H,1-2,4H2
