18
gdb 67283	3.03648	1.92185	1.75345	2.3316	73.72	-0.2035	0.0642	0.2676	861.1583	0.149784	-401.853529	-401.847098	-401.846154	-401.883808	27.649	
O	-0.099479584	 1.4287989713	-0.0208243928	-0.482388
C	 0.0107825605	 0.0551110439	 0.0088612871	 0.418802
C	 0.7412527474	-0.8828187966	-1.0407861487	-0.132854
C	 1.7373243942	-1.2918086061	 0.0668227879	-0.248874
C	 0.6745553932	-0.8654055329	 1.1026050381	-0.08043
N	-0.5800485582	-1.7437368894	 1.1066712191	-0.157049
C	-0.4604251095	-2.8483389622	 0.0911827696	-0.177452
C	-0.5383639946	-1.8186090189	-1.0463864481	-0.054307
C	-1.2014900089	-0.877841132	 0.0097826542	-0.05247
H	 0.7827127462	 1.8153515643	-0.0573262087	 0.284098
H	 1.0990037593	-0.5455200827	-2.0135567099	 0.06778
H	 2.1310257165	-2.3115371058	 0.0872406921	 0.100961
H	 2.5825939368	-0.5952841473	 0.1023096341	 0.092037
H	 0.974052581	-0.5628368577	 2.1076325395	 0.074459
H	 0.4099848409	-3.5039424621	 0.1864356362	 0.101301
H	-1.3655260883	-3.4616022436	 0.147870626	 0.107377
H	-0.9607447865	-2.0714333283	-2.0207717253	 0.064322
H	-2.2558043959	-0.6099969341	 0.0833578696	 0.074687
210.9227	269.9116	308.4264	430.5876	438.2589	487.0917	570.025	612.3355	701.329	747.1394	762.4231	823.333	852.0083	883.3024	915.5576	933.3425	945.493	956.7991	1003.6427	1013.3069	1029.2408	1033.9178	1099.8655	1105.2558	1135.711	1153.255	1166.15	1175.6761	1201.3784	1208.9617	1229.8479	1265.0931	1272.8008	1306.7634	1307.3677	1319.2131	1415.7039	1478.4702	1519.1486	3039.9177	3046.0372	3082.1596	3087.9959	3088.7315	3096.8078	3107.0048	3113.1016	3796.8074
OC12C3CC1N1CC3C21	O[C@@]12[C@H]3C[C@@H]1N1C[C@H]3[C@H]21	
InChI=1S/C7H9NO/c9-7-4-1-5(7)8-2-3(4)6(7)8/h3-6,9H,1-2H2	InChI=1S/C7H9NO/c9-7-4-1-5(7)8-2-3(4)6(7)8/h3-6,9H,1-2H2/t3-,4+,5+,6-,7+/m1/s1
