22
gdb 66346	2.20461	1.37914	1.30647	3.8617	85.18	-0.3019	0.043	0.3449	1166.8098	0.196226	-367.264505	-367.255646	-367.254702	-367.297458	34.83	
C	-0.0207820887	 1.5528754169	 0.010595608	-0.425165
C	-0.0252637027	 0.0111258838	 0.0023620439	 0.096669
C	 0.6738511441	-0.530745071	-1.2744552548	-0.203644
C	 0.7988049805	-2.0591079247	-1.2835341758	-0.212945
C	 1.5141872359	-2.5732223519	-0.0262314948	-0.182846
C	 0.8230332656	-2.0727166989	 1.2499716736	-0.212945
C	 0.6980603275	-0.5443560098	 1.2596956355	-0.203647
C	-1.4260025079	-0.4465709269	 0.0132988685	 0.282957
N	-2.525857121	-0.8041104367	 0.0217428119	-0.360126
H	 1.0111953874	 1.9165896556	 0.0027144901	 0.120798
H	-0.5344600271	 1.9522191705	-0.8683072316	 0.131636
H	-0.5175770169	 1.9427036663	 0.9033659566	 0.131634
H	 0.1359772845	-0.1805907387	-2.1617774743	 0.108434
H	 1.6733669288	-0.0775165114	-1.3082019569	 0.09833
H	-0.2026867489	-2.5034146029	-1.3430227484	 0.120993
H	 1.334827952	-2.3749374322	-2.1850791528	 0.096629
H	 1.5503296061	-3.6678350201	-0.032456781	 0.097304
H	 2.5571241323	-2.2260375245	-0.0343389882	 0.091558
H	-0.1771770027	-2.5177516314	 1.3238323068	 0.12099
H	 1.3761734197	-2.3981462527	 2.1376559845	 0.09663
H	 1.6980771858	-0.0913975846	 1.279200013	 0.098328
H	 0.1772693756	-0.2038104648	 2.1608408364	 0.108431
111.9981	148.1691	198.7173	236.0922	258.0533	300.85	317.4049	386.087	400.2789	443.5343	522.8226	595.493	612.8249	665.7196	790.3863	822.5147	855.9083	882.3998	899.1941	944.4031	979.9913	991.5045	1033.9398	1066.5062	1085.6571	1113.6099	1124.2529	1159.8545	1207.5901	1240.8461	1293.0809	1299.8704	1316.6302	1345.6543	1373.5419	1377.7609	1382.0451	1390.8906	1413.3643	1475.9793	1482.8204	1488.3392	1491.6685	1492.2475	1498.0554	1506.3652	2345.6599	3009.7729	3019.4374	3023.9294	3031.27	3031.6277	3040.9083	3068.2053	3070.7513	3073.293	3075.9972	3080.605	3116.3933	3120.6654
CC1(CCCCC1)C#N	CC1(CCCCC1)C#N	
InChI=1S/C8H13N/c1-8(7-9)5-3-2-4-6-8/h2-6H2,1H3	InChI=1S/C8H13N/c1-8(7-9)5-3-2-4-6-8/h2-6H2,1H3
