17
gdb 37188	3.48884	1.75616	1.61506	2.2348	70.01	-0.2471	0.063	0.3101	870.4155	0.138166	-421.712327	-421.706365	-421.705421	-421.742263	25.904	
C	 0.0847834761	 1.5357822995	 0.1606541597	-0.198449
O	 1.5141832123	 1.4294260698	-0.1384081268	-0.315888
C	 1.2753987027	 0.2074547223	-0.9042458356	 0.149854
C	 1.558947116	-1.2224554251	-0.4027284698	-0.151607
C	 0.7922722701	-0.832970625	 0.8939943038	-0.246459
C	-0.0482620196	 0.0432328538	-0.1336838464	 0.226131
C	-0.7939007187	-1.0516009499	-0.8890691991	-0.089772
O	-0.2844171067	-1.2813765959	-2.215898953	-0.247734
C	 0.3586602001	-1.9489656639	-1.1199796025	 0.052123
H	-0.0948442701	 1.8758023954	 1.1852005755	 0.110685
H	-0.4170570872	 2.2003832386	-0.5540614592	 0.111655
H	 1.3225820099	 0.4096532591	-1.9723914442	 0.101864
H	 2.522100901	-1.7345905991	-0.4163554263	 0.068375
H	 0.2546348043	-1.6303575869	 1.4127689663	 0.092897
H	 1.3748477361	-0.2342891686	 1.5931008387	 0.121867
H	-1.8074908414	-1.3838531953	-0.6944981516	 0.105485
H	 0.3016899251	-3.0327308388	-1.1232232094	 0.108975
277.5706	306.3339	400.1292	416.2192	450.8452	541.0537	603.7303	725.6665	732.4449	801.0543	833.1279	856.6681	874.2924	893.7981	908.4438	933.0079	943.4408	981.1012	1005.4736	1030.7489	1065.5934	1068.9182	1083.8592	1106.1938	1156.4274	1186.1947	1205.1069	1232.4639	1240.5896	1244.888	1266.5106	1306.2791	1327.6811	1356.4016	1373.8795	1492.1817	1512.6971	3019.9467	3070.819	3086.1437	3101.5942	3130.4733	3151.0173	3167.0411	3180.0291
C1OC2C3CC12C1OC31	C1O[C@H]2[C@H]3C[C@@]12[C@H]1O[C@@H]31	
InChI=1S/C7H8O2/c1-3-4-6(9-4)7(1)2-8-5(3)7/h3-6H,1-2H2	InChI=1S/C7H8O2/c1-3-4-6(9-4)7(1)2-8-5(3)7/h3-6H,1-2H2/t3-,4-,5-,6-,7+/m0/s1
