23
gdb 118763	3.24187	0.85156	0.78182	2.1658	82.74	-0.2546	0.0739	0.3285	1575.2611	0.203508	-425.405946	-425.395507	-425.394563	-425.441477	38.594	
C	 0.3177237324	 1.4192280433	-0.3232199726	-0.22233
O	 0.1449828916	 0.0546522468	-0.030618382	-0.237639
C	-1.1675683017	-0.4044999883	-0.2765399396	-0.108676
C	-1.2449299506	-1.8877928019	 0.0528107883	 0.322085
C	-0.2999110554	-2.6957169745	-0.8407543507	-0.448212
C	-1.1048522834	-2.2488450741	 1.5662311265	-0.29599
C	-2.3179268877	-3.2026774802	 1.4143996755	 0.174209
O	-3.2631774289	-3.3088223043	 2.4490703906	-0.435048
C	-2.6923696803	-2.4717537368	 0.0962194519	-0.324651
H	 1.3561650117	 1.6749869808	-0.0983340046	 0.126771
H	 0.1193537999	 1.6390463692	-1.3845117342	 0.103205
H	-0.3443858709	 2.0558604756	 0.285538086	 0.10163
H	-1.8882020715	 0.1601571005	 0.341221633	 0.070669
H	-1.4432469184	-0.2331606565	-1.3332889922	 0.081434
H	 0.7276508074	-2.3417923161	-0.7244777556	 0.133697
H	-0.3263263543	-3.7621369259	-0.5956130219	 0.111879
H	-0.5778152553	-2.5904148555	-1.8961165146	 0.107902
H	-0.1562369402	-2.6700850237	 1.9066759674	 0.102334
H	-1.3553124673	-1.3942803955	 2.2052403824	 0.086297
H	-1.9952698245	-4.2284941755	 1.2174504686	 0.093206
H	-3.5545782044	-2.41944583	 2.6763373194	 0.273764
H	-3.4386509079	-1.6907422821	 0.285900557	 0.0845
H	-3.0261907204	-3.0754116154	-0.7517614188	 0.098963
62.1782	94.2416	104.6408	168.8789	227.5224	236.1318	270.0033	314.9417	319.5632	345.2516	360.423	398.9313	459.4303	473.5582	640.5538	755.2794	827.6219	887.3033	898.9386	955.4785	967.4898	984.188	1003.4732	1031.8802	1059.7985	1096.848	1115.9476	1153.3671	1175.7016	1183.4365	1214.295	1219.6128	1231.8212	1254.6589	1282.2386	1303.602	1317.3023	1340.8881	1401.8346	1419.7767	1441.0392	1465.6056	1479.1773	1484.7038	1488.5819	1490.9668	1502.9722	1504.8803	1524.0212	2931.6491	2961.244	2967.9558	3009.854	3029.1544	3032.8374	3042.4322	3073.2826	3093.2925	3099.5818	3109.5097	3111.8503	3121.0614	3804.9743
COCC1(C)CC(O)C1	COC[C@@]1(C)C[C@@H](O)C1	
InChI=1S/C7H14O2/c1-7(5-9-2)3-6(8)4-7/h6,8H,3-5H2,1-2H3	InChI=1S/C7H14O2/c1-7(5-9-2)3-6(8)4-7/h6,8H,3-5H2,1-2H3/t6-,7+
