14
gdb 48666	3.95052	1.26814	1.10207	2.7406	69.22	-0.264	-0.0695	0.1945	1055.0024	0.100632	-436.698913	-436.691632	-436.690688	-436.730922	27.163	
O	-0.5748288411	 0.5442957108	-0.6844692992	-0.249608
C	 0.0976881643	 0.9468252223	 0.2296505262	 0.098461
C	 1.3182117021	 1.7850087165	 0.0456368586	 0.177004
C	 1.586850533	 2.8932128325	 1.0385876588	-0.268285
N	 2.3882606869	 1.6734436221	 1.0570777289	-0.160873
C	 3.6433336363	 1.806440722	 0.310922459	 0.36536
O	 4.7161112256	 1.8587310477	 0.8435916354	-0.307299
C	 3.3039322068	 1.8762274504	-1.1335604248	-0.194135
C	 1.9744370239	 1.8889355444	-1.2844627186	-0.141157
H	-0.1501002682	 0.7356142215	 1.2916218556	 0.097564
H	 2.0283918204	 3.8022958229	 0.6383883014	 0.148799
H	 0.9201504184	 3.0251112863	 1.8871278951	 0.144516
H	 4.061947074	 1.9646887354	-1.8991582679	 0.138879
H	 1.4110660976	 1.9242067152	-2.2069857685	 0.150774
86.2745	161.0905	205.7133	254.7595	354.3422	409.7834	470.6352	514.1743	670.0183	706.2024	766.4005	773.0165	817.4642	842.6711	866.5164	935.953	966.7312	985.1939	1040.8744	1074.8245	1106.6096	1124.6838	1155.3722	1281.3286	1302.0698	1370.9037	1422.273	1494.4598	1636.6494	1820.9471	1853.1349	2913.6261	3105.7767	3202.1332	3229.4994	3250.4516
O=CC12CN1C(=O)C=C2	O=C[C@@]12CN1C(=O)C=C2	
InChI=1S/C6H5NO2/c8-4-6-2-1-5(9)7(6)3-6/h1-2,4H,3H2	InChI=1S/C6H5NO2/c8-4-6-2-1-5(9)7(6)3-6/h1-2,4H,3H2/t6-,7?/m1/s1
