19
gdb 101153	2.65446	1.28426	0.91179	3.898	73.17	-0.2267	0.0133	0.24	1274.1832	0.161033	-456.352565	-456.343728	-456.342783	-456.38645	32.881	
O	 0.7441069487	 0.1836162588	 0.3803471773	-0.417531
C	-0.2411756532	 0.2408448452	-0.6152810242	-0.082745
C	-1.5628666794	-0.4119905171	-0.1787642242	-0.011784
O	-2.580999341	-0.2696033462	-1.1682933786	-0.429913
C	-1.37845679	-1.8710381672	 0.1817464948	 0.367909
N	-0.2511481754	-2.4059670526	 0.4886108723	-0.332887
C	-0.5331447857	-3.8156993301	 0.8161432825	-0.167288
C	-1.9863155764	-4.0689667704	 0.3244040252	-0.186648
N	-2.4837670031	-2.6917817314	 0.2308422084	-0.328297
H	 0.8354809805	-0.7635165178	 0.5921876613	 0.294468
H	-0.4367779338	 1.2945344692	-0.8399712281	 0.110989
H	 0.0855926092	-0.2438009516	-1.5553708028	 0.068754
H	-1.9396868681	 0.1114418517	 0.7076764591	 0.126732
H	-2.190259135	-0.4976186044	-2.0202916789	 0.286327
H	 0.1973778868	-4.4790442371	 0.3456705388	 0.114218
H	-0.4523180628	-3.9564989491	 1.9016548314	 0.116774
H	-2.002801045	-4.5688161513	-0.6543041648	 0.104167
H	-2.5779618237	-4.6651927649	 1.0234683966	 0.117043
H	-3.2577174025	-2.4579614036	-0.372997276	 0.249712
57.0367	154.2811	168.467	191.882	197.4665	261.1816	340.0237	374.6835	439.0338	534.9002	571.8152	604.4691	674.9985	733.7223	760.6936	870.4839	914.071	970.6866	1005.2888	1024.0957	1035.3167	1060.3445	1105.1881	1109.6236	1113.7521	1200.4751	1215.6589	1237.7796	1255.6286	1258.0728	1311.0725	1328.7877	1367.0224	1396.4336	1401.6891	1471.3945	1492.55	1500.0626	1503.8886	1529.5555	1688.6744	2920.7617	3001.5366	3024.273	3053.7394	3074.7237	3082.8012	3092.9369	3595.5367	3620.5933	3786.2177
OCC(O)C1=NCCN1	OC[C@@H](O)[C]1[N]CCN1	
InChI=1S/C5H10N2O2/c8-3-4(9)5-6-1-2-7-5/h4,8-9H,1-3H2,(H,6,7)	InChI=1S/C5H10N2O2/c8-3-4(9)5-6-1-2-7-5/h4,8-9H,1-3H2,(H,6,7)/t4-/m1/s1
