21
gdb 93885	1.90428	1.65524	1.03125	4.1814	78.08	-0.2382	-0.0146	0.2236	1218.3472	0.181686	-424.247268	-424.237578	-424.236634	-424.282213	35.488	
C	-0.7585763111	 1.2337392001	 0.1225901928	-0.413926
C	 0.0999366389	-0.0257257217	 0.0192407978	 0.019332
C	 1.1749816118	 0.0097838641	-1.0958601888	-0.21759
C	 2.2847901345	-0.9769012349	-0.6483804595	-0.254786
C	 1.8719509906	-1.4731749621	 0.7635665161	 0.116253
O	 2.9485504169	-1.6280455167	 1.6740421176	-0.4366
C	 0.8970283377	-0.4092317257	 1.2989787	-0.11913
C	 1.6401130195	 0.776624282	 1.8840525038	 0.18814
O	 1.334133445	 1.3197458499	 2.9147935629	-0.265832
H	-0.1494837567	 2.124101091	 0.3112161134	 0.125177
H	-1.3114277363	 1.4003559893	-0.8077629334	 0.113783
H	-1.4859873709	 1.1548736437	 0.936526052	 0.125853
H	-0.5666641451	-0.8753809488	-0.1806062643	 0.082018
H	 0.7477801279	-0.2452495613	-2.0696269979	 0.101475
H	 1.5788543127	 1.023674917	-1.1909980682	 0.104972
H	 2.4079668999	-1.8122550611	-1.3438808398	 0.098023
H	 3.2553426584	-0.4767622807	-0.5724425835	 0.110239
H	 1.318519522	-2.420031141	 0.6686473151	 0.073928
H	 3.5537869288	-2.2879263105	 1.3219184137	 0.285941
H	 0.2432106198	-0.794514452	 2.085488309	 0.089929
H	 2.4966749257	 1.1516690696	 1.2803823114	 0.0728
66.3734	73.6713	103.8636	192.2415	221.6274	243.5431	270.5199	299.8778	387.2165	430.9354	473.1408	511.5589	581.8213	632.872	808.7809	830.0359	866.1011	919.7728	956.5636	990.1882	1008.386	1031.2207	1032.1199	1052.3431	1116.6316	1144.379	1159.0593	1197.1072	1230.4661	1244.9162	1262.7048	1287.5064	1306.308	1316.7459	1355.3962	1366.9886	1379.1508	1418.3691	1427.8934	1443.0615	1490.9563	1494.6043	1499.3363	1512.414	1829.2848	2875.4001	2974.9908	3008.2841	3033.3967	3041.9426	3053.1192	3079.5619	3086.1834	3099.0272	3101.9354	3106.2817	3822.9574
CC1CCC(O)C1C=O	C[C@H]1CC[C@@H](O)[C@H]1C=O	
InChI=1S/C7H12O2/c1-5-2-3-7(9)6(5)4-8/h4-7,9H,2-3H2,1H3	InChI=1S/C7H12O2/c1-5-2-3-7(9)6(5)4-8/h4-7,9H,2-3H2,1H3/t5-,6-,7+/m0/s1
