23
gdb 63067	2.96732	1.35727	1.28587	0.1865	88.55	-0.2343	0.0797	0.314	1147.4233	0.207216	-351.136054	-351.127606	-351.126662	-351.16832	34.727	
C	-0.2511354862	 1.5759476568	-0.0890263606	-0.475962
C	-0.0089898566	 0.0769196066	 0.0064522963	 0.333032
C	-1.2419752685	-0.7113992558	-0.4211702501	-0.447986
C	 1.3056888161	-0.5747107017	-0.371628172	-0.085239
C	 2.6269085107	 0.2114199851	-0.3665755128	-0.272199
C	 3.0105095245	 0.4591813264	 1.1021684571	-0.026457
C	 2.2284028418	 1.4302360544	 1.952105228	-0.307733
C	 1.8706543382	-0.0374899806	 1.970813351	-0.038984
C	 0.8153488775	-0.6452605799	 1.0686274797	-0.08528
H	 0.6610013026	 2.1580417385	-0.2242753638	 0.124082
H	-0.8855036815	 1.7830059265	-0.9586490773	 0.10733
H	-0.7741544161	 1.962952014	 0.7925911168	 0.119355
H	-1.5112631474	-0.4807229782	-1.4588914264	 0.110722
H	-1.0770529083	-1.7909553793	-0.3516342329	 0.110168
H	-2.1050240851	-0.4642203762	 0.2086023395	 0.112648
H	 1.2573266418	-1.4403659573	-1.0266164993	 0.07272
H	 3.4013161015	-0.3995847429	-0.8407799915	 0.101443
H	 2.5726153873	 1.1396836416	-0.9484656698	 0.101234
H	 4.0440758195	 0.2811654143	 1.3805515824	 0.079443
H	 2.7373154879	 1.8074462776	 2.8342621452	 0.103357
H	 1.5663398947	 2.1533090431	 1.5012693273	 0.113044
H	 2.0671357717	-0.5831952575	 2.8873393917	 0.077842
H	 0.370355784	-1.5591809954	 1.4497664214	 0.073423
141.3692	168.4266	219.1247	258.3875	263.7072	305.6292	363.7721	390.5985	443.0143	548.4657	656.7722	674.0908	709.5937	741.6051	785.0674	820.7591	847.2644	894.3596	915.2372	960.0745	975.2127	981.4039	996.7145	1034.7133	1038.9456	1055.8186	1069.4675	1085.2375	1109.9856	1113.707	1125.9155	1157.2875	1199.4236	1208.1878	1228.4577	1299.0987	1315.8656	1326.7069	1355.3346	1387.3411	1407.7302	1413.1039	1433.5917	1479.2164	1487.3342	1492.8277	1499.6323	1509.7474	1520.9202	3017.9537	3029.8937	3031.7228	3072.7529	3077.9577	3081.919	3098.157	3128.3036	3134.7644	3139.8091	3147.3132	3155.0539	3168.9197	3256.4342
CC1(C)C2CC3CC3C12	CC1(C)[C@H]2C[C@H]3C[C@H]3[C@@H]12	
InChI=1S/C9H14/c1-9(2)7-4-5-3-6(5)8(7)9/h5-8H,3-4H2,1-2H3	InChI=1S/C9H14/c1-9(2)7-4-5-3-6(5)8(7)9/h5-8H,3-4H2,1-2H3/t5-,6-,7+,8-/m1/s1
