22
gdb 17815	4.11124	1.23788	1.06584	0.1274	82.83	-0.2567	0.0873	0.344	1203.7397	0.200996	-313.050873	-313.042373	-313.041429	-313.084104	32.39	
C	 0.0220356277	 1.5680508018	-0.2735011878	-0.406512
C	 0.0130694282	 0.0695383135	-0.0598098449	 0.006204
C	 1.2820378673	-0.7419615325	-0.1568243577	-0.308731
C	 0.5832169049	-0.5942667572	 1.1778582379	-0.010205
C	 1.2147485118	 0.1661400173	 2.3111585173	 0.054767
C	 0.3285617377	 0.624683388	 3.5083788052	-0.229531
C	 1.4979039627	 0.267545117	 4.4640621213	-0.209358
C	 2.0993185263	-0.6099346117	 3.3337209425	-0.229339
H	 0.9427602468	 2.0293367054	 0.0949292595	 0.115823
H	-0.0560222335	 1.8069742636	-1.3401245975	 0.114442
H	-0.8185986741	 2.0516337651	 0.2370044063	 0.115555
H	-0.8748232422	-0.4163940047	-0.4575901965	 0.078922
H	 1.260241341	-1.7027024364	-0.6599301489	 0.105011
H	 2.2110101609	-0.1947874095	-0.2907233955	 0.104548
H	 0.0344924237	-1.4732944048	 1.5127003025	 0.070366
H	 1.780197777	 1.0223124564	 1.9284712165	 0.061518
H	-0.0425364681	 1.652881841	 3.5056610725	 0.092005
H	-0.5231952985	-0.0500730213	 3.6453542875	 0.09512
H	 2.1256579074	 1.1377682917	 4.6776340769	 0.098716
H	 1.2516564355	-0.2200467616	 5.4102288322	 0.093203
H	 1.776306055	-1.6529273298	 3.4188388824	 0.095399
H	 3.1823949327	-0.5950805714	 3.1876063783	 0.092079
61.9361	120.2248	137.1279	205.2154	218.7864	340.7678	355.0219	395.3309	514.8808	628.4779	748.1005	768.4879	790.4651	851.3827	877.1912	899.619	915.2389	932.6547	950.677	971.6133	1009.7595	1036.9456	1052.7978	1062.9012	1103.2537	1115.8107	1148.9403	1196.97	1201.3379	1202.4325	1236.2069	1253.8396	1258.6384	1261.4311	1276.0491	1286.6427	1325.5905	1396.5891	1422.1371	1438.6813	1478.4824	1486.8358	1491.5525	1493.6068	1506.6329	1511.8421	3028.0709	3043.5726	3044.2249	3049.7271	3056.07	3084.5468	3093.3723	3098.489	3103.1837	3110.6842	3116.1036	3121.2138	3133.3748	3205.13
CC1CC1C1CCC1	C[C@H]1C[C@H]1C1CCC1	
InChI=1S/C8H14/c1-6-5-8(6)7-3-2-4-7/h6-8H,2-5H2,1H3	InChI=1S/C8H14/c1-6-5-8(6)7-3-2-4-7/h6-8H,2-5H2,1H3/t6-,8+/m0/s1
