29
gdb 60445	3.70606	0.52129	0.50685	0.0789	100.81	-0.2928	0.0849	0.3778	2419.2118	0.272735	-354.783043	-354.770624	-354.76968	-354.821904	45.237	
C	-0.1631774076	 1.5562059179	 0.1585218899	-0.379755
C	-0.1080600113	 0.0298892085	 0.0008171415	 0.042903
C	-1.5258364759	-0.5553382979	-0.0553054992	-0.387845
C	 0.7057022481	-0.4065694856	-1.2316389754	-0.163668
C	 2.1990247335	-0.0587086181	-1.1869870618	-0.200406
C	 2.9677823362	-0.5942964439	-2.4015527714	-0.163667
C	 4.4571340345	-0.2069004829	-2.4599306778	 0.042901
C	 5.2677270024	-0.8119941558	-1.3047890601	-0.379755
C	 5.065420439	-0.6087513166	-3.8105723527	-0.387843
H	 0.8315271903	 1.996198332	 0.2742798186	 0.11303
H	-0.6339890984	 2.020653193	-0.7168309616	 0.108793
H	-0.7519367408	 1.8377786662	 1.0380437035	 0.107751
H	 0.3897801205	-0.383338427	 0.8906957466	 0.06806
H	-2.0699029826	-0.1812120371	-0.931211688	 0.10983
H	-1.5045343791	-1.6483718193	-0.1206904394	 0.107464
H	-2.1045934227	-0.2829680722	 0.8336905071	 0.106723
H	 0.6037634407	-1.4943160241	-1.3491655271	 0.086316
H	 0.2544603212	 0.0359607407	-2.1320499636	 0.08663
H	 2.3305828122	 1.0298000951	-1.1361759535	 0.09397
H	 2.6293218429	-0.4621630792	-0.261348025	 0.093971
H	 2.882857651	-1.6906502864	-2.4330078525	 0.08663
H	 2.4768013475	-0.229498096	-3.3143814724	 0.086316
H	 4.5187064844	 0.8885070445	-2.3776032463	 0.068061
H	 6.3224666916	-0.5254075373	-1.3745914395	 0.10775
H	 4.9022412862	-0.4847181336	-0.327169442	 0.11303
H	 5.2207254936	-1.9078109214	-1.3291731196	 0.108793
H	 4.526481067	-0.1469192012	-4.6446629639	 0.107464
H	 6.1156612742	-0.3060869533	-3.8801940074	 0.106723
H	 5.0248417516	-1.6958950487	-3.9507929269	 0.10983
24.1958	58.2235	92.5823	108.6805	135.1505	221.3702	228.4023	237.9057	240.1264	257.9359	262.0405	361.7142	370.8821	414.5835	416.6033	458.3305	501.2881	739.9387	806.1059	817.0354	853.1688	925.8129	925.9311	935.4848	957.7907	964.4055	967.1495	983.0493	1031.3315	1062.5148	1063.2865	1115.5415	1164.8341	1190.0647	1194.297	1201.438	1237.1941	1268.5264	1305.9885	1325.3149	1332.3964	1355.2379	1367.2828	1371.7066	1386.8061	1395.6108	1400.9571	1402.2756	1421.6174	1423.1625	1476.9312	1479.2877	1488.366	1488.7157	1494.9051	1496.0749	1504.5741	1505.6814	1505.7434	1510.4537	1512.0172	2989.0755	2989.4842	2996.8039	2999.657	3017.7801	3021.1096	3021.7148	3025.5624	3027.4199	3027.5361	3032.5696	3063.7302	3084.9579	3084.9661	3091.3911	3091.5156	3096.5478	3096.6589	3106.0561	3106.0702
CC(C)CCCC(C)C	CC(C)CCCC(C)C	
InChI=1S/C9H20/c1-8(2)6-5-7-9(3)4/h8-9H,5-7H2,1-4H3	InChI=1S/C9H20/c1-8(2)6-5-7-9(3)4/h8-9H,5-7H2,1-4H3
