15
gdb 51919	12.22962	0.45186	0.44898	2.2489	73.9	-0.2954	-0.0404	0.255	2244.094	0.110447	-453.974438	-453.965021	-453.964077	-454.010261	31.114	
O	-0.0001388277	-0.04429221	-0.1149658333	-0.242204
C	-0.0038087886	 1.1426997411	-0.1482289893	 0.187517
O	 1.1417344333	 1.8721367585	 0.0162150217	-0.154763
C	 1.0495910357	 3.2330666991	-0.0295087002	 0.130553
N	 2.0845474508	 3.9259607441	 0.1088353856	-0.195435
C	 1.9430780894	 5.3670083139	 0.0527843766	-0.159673
C	 2.5625949448	 5.9817295385	 1.325452564	-0.322142
C	 2.5125802301	 7.4405835038	 1.3067005282	 0.253417
N	 2.4586321705	 8.59417429	 1.2724326284	-0.298238
H	-0.8956332172	 1.7739220782	-0.3097184145	 0.103632
H	 0.0337584305	 3.6172774047	-0.1934975365	 0.110661
H	 2.4963906272	 5.7351918722	-0.8179139638	 0.144303
H	 0.8991559812	 5.7014977448	-0.0515763118	 0.112737
H	 2.0321168824	 5.6169478267	 2.2115335423	 0.157242
H	 3.6018354677	 5.6506343843	 1.4166648526	 0.172391
43.9896	64.7065	107.9874	121.5425	172.0497	182.0532	273.9066	362.2682	381.0893	409.7764	506.5329	577.2357	723.3905	789.8433	950.6228	979.3924	1034.1516	1037.15	1043.321	1081.8802	1154.8771	1189.9041	1226.788	1297.2077	1312.2368	1377.5412	1405.384	1445.5773	1468.5394	1499.307	1768.4644	1900.0794	2365.6673	2982.246	2984.9671	3031.321	3055.6074	3069.2556	3102.6296
O=COC=NCCC#N	O=COC=NCCC#N	
InChI=1S/C5H6N2O2/c6-2-1-3-7-4-9-5-8/h4-5H,1,3H2	InChI=1S/C5H6N2O2/c6-2-1-3-7-4-9-5-8/h4-5H,1,3H2
