19
gdb 96106	2.7716	1.32628	1.01222	2.0968	71.15	-0.2488	0.0622	0.311	1183.417	0.159792	-460.140836	-460.132653	-460.131709	-460.173405	31.89	
O	-0.0949881167	 1.4367149574	 0.0811907146	-0.427258
C	 0.0286316467	 0.0244398663	 0.0173967452	 0.095563
C	 0.744256868	-0.5313248868	 1.2584847615	-0.101465
O	 0.7905824491	-1.9468789675	 1.242715149	-0.241829
C	-0.507033392	-2.5210237242	 1.2727563114	-0.155334
C	-1.328015125	-2.0673004161	 0.0783286851	 0.426141
C	-1.4961726244	-2.9556411241	-1.0792202149	-0.238432
O	-2.5498245556	-2.7777473705	-0.1231258043	-0.28927
C	-1.383277925	-0.5596966723	-0.0631257378	-0.294328
H	 0.7851368871	 1.8205923372	 0.0129022137	 0.285793
H	 0.5972497467	-0.2829301842	-0.8745241131	 0.075631
H	 1.7839538726	-0.1888559158	 1.2956766666	 0.098053
H	 0.2269579323	-0.1595561302	 2.1590951522	 0.09595
H	-0.377903154	-3.6057585156	 1.2711708934	 0.114374
H	-1.0318338176	-2.2366831046	 2.2008835308	 0.096699
H	-1.687503193	-2.5297696703	-2.0632830226	 0.115141
H	-1.0287939138	-3.9394243126	-1.0818044781	 0.116318
H	-1.97257629	-0.1409593925	 0.7632869645	 0.116737
H	-1.8735054853	-0.2673678034	-0.9956051971	 0.111515
111.7282	139.0658	266.1188	282.4004	286.1379	356.7292	364.1659	411.3053	430.489	461.2817	494.9666	570.1013	781.157	874.2596	889.1516	910.7613	938.213	961.4019	969.855	1005.0815	1079.3177	1098.0853	1120.2878	1124.6869	1129.4171	1166.7412	1190.2335	1233.2964	1265.6708	1286.6985	1307.2619	1328.2403	1343.8449	1379.0717	1405.52	1436.1364	1439.7826	1486.5344	1490.9354	1503.3618	1533.6014	2964.55	2969.199	2982.2647	3031.9687	3071.4479	3081.7661	3096.4745	3104.5404	3169.1724	3816.3036
OC1COCC2(CO2)C1	O[C@H]1COC[C@]2(CO2)C1	
InChI=1S/C6H10O3/c7-5-1-6(4-9-6)3-8-2-5/h5,7H,1-4H2	InChI=1S/C6H10O3/c7-5-1-6(4-9-6)3-8-2-5/h5,7H,1-4H2/t5-,6+/m1/s1
