20
gdb 86158	2.88051	1.32034	0.93858	5.2564	85.8	-0.2085	-0.0251	0.1834	1266.0393	0.171569	-403.19125	-403.182193	-403.181249	-403.224954	33.714	
C	-0.0835443236	 1.5580730951	-0.0245963268	-0.393949
C	 0.0054094689	 0.0386230188	 0.1061148189	-0.128595
C	 0.478254083	-0.6198617128	-1.1931311553	-0.165449
N	 0.6301974391	-2.0648445852	-1.0505650383	-0.055777
C	 0.7652545449	-2.8287725095	-2.2756599796	-0.337222
C	 1.2129364717	-2.5048527807	 0.0975456096	 0.048036
C	 1.4033319492	-1.7456875731	 1.2083987606	-0.264602
C	 0.8880172358	-0.3914260245	 1.2967611465	 0.373356
O	 1.0546151867	 0.3431022377	 2.2570065721	-0.367987
H	 0.8748004192	 1.9792444607	-0.348193811	 0.117184
H	-0.8483140529	 1.8515838468	-0.7506566033	 0.102531
H	-0.3227992289	 1.9968064343	 0.9450989286	 0.145426
H	-0.9948266855	-0.3611748559	 0.3356610444	 0.102818
H	-0.2331779459	-0.4235445423	-2.0021060015	 0.110734
H	 1.4461970097	-0.1798730952	-1.4950245342	 0.103172
H	 1.6540087589	-2.5337285999	-2.8549857408	 0.124872
H	 0.8441855272	-3.8926527659	-2.0410112714	 0.137379
H	-0.1159553402	-2.6817484003	-2.9082194066	 0.134486
H	 1.5270537754	-3.5452047929	 0.0767657846	 0.116175
H	 1.8868982371	-2.1689843452	 2.0793168834	 0.097413
85.6519	124.0513	159.0928	183.0657	240.4898	269.5538	305.6886	369.5478	412.4665	450.0063	458.1187	554.884	672.2851	741.6738	771.3447	815.8566	875.2648	925.8897	963.9028	976.3997	1060.1173	1084.3941	1114.4659	1142.1268	1160.5637	1172.8479	1203.6869	1218.5463	1282.2991	1307.3487	1350.504	1367.0568	1401.2586	1415.3929	1454.2957	1471.8466	1481.8686	1489.3232	1496.0449	1500.1383	1526.1242	1660.5087	1751.7285	2944.0546	2985.5228	2991.8182	3037.4118	3063.7937	3071.334	3099.1332	3124.3987	3142.8987	3165.2915	3216.7893
CC1CN(C)C=CC1=O	C[C@H]1CN(C)C=CC1=O	
InChI=1S/C7H11NO/c1-6-5-8(2)4-3-7(6)9/h3-4,6H,5H2,1-2H3	InChI=1S/C7H11NO/c1-6-5-8(2)4-3-7(6)9/h3-4,6H,5H2,1-2H3/t6-/m0/s1
