19
gdb 69093	2.49235	1.58234	1.16731	5.2035	79.93	-0.2659	0.0237	0.2896	1103.7574	0.160775	-382.088211	-382.079867	-382.078923	-382.120783	32.293	
C	-0.0348224498	 1.5231474963	-0.037961977	-0.464263
C	-0.0411092437	 0.0186501323	 0.038987797	 0.279146
C	-1.3083190412	-0.741447945	-0.3409662641	-0.269948
C	-1.1147497885	-2.1746033981	 0.2030975262	-0.252365
C	-0.1878687671	-2.0215216794	 1.4308223835	-0.283356
C	 0.6390191331	-0.7746528604	 1.1263155653	 0.144442
N	 1.2394994023	-0.6493805689	-0.217904117	-0.387409
C	 1.3710888378	-0.1602672956	 2.2056001395	 0.252286
N	 1.9275367049	 0.3264650167	 3.0949168929	-0.351691
H	 0.9106182418	 1.9262969768	 0.3306083896	 0.149392
H	-0.1631959538	 1.8510834841	-1.0752493999	 0.125172
H	-0.8525113061	 1.9466012994	 0.5543541087	 0.123866
H	-2.1646887082	-0.2538046132	 0.1394700405	 0.114523
H	-1.4934878243	-0.7210470408	-1.4206318537	 0.11077
H	-2.0616847111	-2.6525475604	 0.4627598628	 0.116325
H	-0.6466122666	-2.8136848564	-0.5521894425	 0.11173
H	-0.7659721468	-1.8452374937	 2.3443853416	 0.126709
H	 0.4356119135	-2.9034923451	 1.6075676698	 0.120332
H	 1.1326111037	-1.5191196686	-0.7350386134	 0.234337
129.1749	147.6066	183.9471	215.1148	246.2939	318.2067	387.614	432.5676	491.2985	562.8157	585.9602	607.2457	676.9856	712.6659	791.5084	881.2136	895.7624	931.8805	946.4183	1007.3368	1031.9957	1052.042	1070.4048	1079.1092	1127.442	1180.5643	1214.7657	1234.6119	1279.2465	1283.157	1312.86	1338.2816	1361.6622	1410.7793	1430.3249	1484.6287	1485.993	1492.1895	1500.4668	1513.3278	2354.9431	3034.9169	3039.7264	3048.3712	3053.7286	3076.8006	3089.1633	3100.3259	3110.7769	3133.9237	3493.8102
CC12CCCC1(N2)C#N	C[C@]12CCC[C@]1(N2)C#N	
InChI=1S/C7H10N2/c1-6-3-2-4-7(6,5-8)9-6/h9H,2-4H2,1H3	InChI=1S/C7H10N2/c1-6-3-2-4-7(6,5-8)9-6/h9H,2-4H2,1H3/t6-,7-/m0/s1
