18
gdb 57988	3.5353	0.8131	0.70719	3.7605	75.58	-0.2587	0.0122	0.2709	1579.2906	0.144744	-439.081732	-439.071407	-439.070463	-439.118669	36.533	
C	-0.0559054972	 1.522651183	-0.2602776025	-0.391191
C	-0.017408506	 0.0299646338	 0.1011545683	 0.043503
O	 0.5305609424	-0.1574115339	 1.3784308738	-0.435756
C	-1.4267012409	-0.586711456	 0.0833687341	 0.403188
O	-1.948554333	-0.9475059841	 1.1294070499	-0.396775
N	-2.0283215438	-0.6945203109	-1.1260250275	-0.317447
C	-3.3934380079	-1.1867393951	-1.2768286361	-0.292468
C	-4.2006462604	-0.3177338975	-2.1264537779	 0.280912
C	-4.8475106276	 0.3908224057	-2.8492006357	-0.435189
H	 0.9500238283	 1.9383581483	-0.1629915018	 0.135572
H	-0.4019271305	 1.6910984313	-1.2856437332	 0.103329
H	-0.7181985878	 2.059725347	 0.4250333329	 0.13201
H	 0.5998519772	-0.5023066344	-0.640307649	 0.08466
H	-0.2048421936	-0.4990184425	 1.9150202946	 0.293231
H	-1.5511040396	-0.3631289659	-1.9487587661	 0.259091
H	-3.3911091241	-2.2058122845	-1.6866858539	 0.145014
H	-3.8085180892	-1.2512988886	-0.2664786761	 0.180373
H	-5.4331246963	 1.0187255642	-3.474522744	 0.207944
23.1565	52.8052	67.4826	181.4055	208.2434	229.8122	284.7317	325.078	350.0236	378.5017	443.115	473.8949	485.5342	565.8831	624.9317	670.158	675.7278	752.9503	857.0295	929.0731	957.989	1021.8933	1058.4017	1074.1428	1101.7357	1173.5751	1237.7538	1259.0423	1290.9065	1364.8202	1376.7045	1404.6513	1443.9628	1485.7892	1487.275	1496.5483	1548.3734	1761.0628	2244.2772	2975.828	3015.5962	3038.608	3091.5182	3111.7229	3128.2294	3504.2431	3644.266	3656.9379
CC(O)C(=O)NCC#C	C[C@@H](O)C(=O)NCC#C	
InChI=1S/C6H9NO2/c1-3-4-7-6(9)5(2)8/h1,5,8H,4H2,2H3,(H,7,9)	InChI=1S/C6H9NO2/c1-3-4-7-6(9)5(2)8/h1,5,8H,4H2,2H3,(H,7,9)/t5-/m1/s1
