18
gdb 126906	2.75681	1.20803	0.96206	4.4072	75.47	-0.1997	0.0198	0.2196	1266.7211	0.149306	-431.436409	-431.427179	-431.426235	-431.471295	33.236	
C	-0.6391279651	 0.7719867819	 0.4784611185	-0.378068
C	 0.5339884933	 0.1365891278	-0.2766917775	-0.163191
N	 1.4840565777	-0.6013011629	 0.5557656608	-0.390875
C	 1.0825844289	-1.7337607372	 1.2322014401	 0.397424
C	 1.4943283217	-2.2252815713	 2.4596246343	 0.159017
N	 2.3969656147	-1.5705719872	 3.3299301574	-0.610561
N	 0.8725546264	-3.4167029646	 2.6805859079	-0.230535
N	 0.0933394129	-3.7013983155	 1.6837963731	-0.146491
N	 0.2245017095	-2.6782257131	 0.7822655436	-0.255411
H	-0.2798982022	 1.4930736248	 1.2198984003	 0.124083
H	-1.3020021044	 1.3002662582	-0.2145015935	 0.120395
H	-1.2284546226	 0.0145386343	 1.0038126709	 0.134149
H	 0.1615664851	-0.5415375585	-1.0543864643	 0.107331
H	 1.1053648532	 0.9065538074	-0.8045497295	 0.119101
H	 2.022572782	-0.0129838118	 1.1816363046	 0.248755
H	 2.0477353075	-1.5935739269	 4.2831543882	 0.246804
H	 3.300918516	-2.0353660592	 3.3430862539	 0.244742
H	-0.2889689247	-2.7174924162	-0.0817534489	 0.273331
37.9389	80.9688	139.4163	166.7997	240.6995	259.13	304.9696	318.9954	438.6998	494.1084	530.0605	623.7748	690.3229	720.04	740.8456	758.8986	838.1924	869.4312	902.6326	1007.3587	1013.4889	1059.5629	1121.1344	1150.899	1203.4701	1245.7943	1262.4279	1311.7159	1322.4141	1377.5987	1407.0831	1410.5408	1484.6652	1489.6875	1498.2502	1508.6303	1544.6457	1642.1293	1682.4735	3032.7976	3037.0099	3076.7062	3108.3617	3117.3639	3486.5438	3550.7545	3555.1096	3673.0041
CCNC1=C(N)N=NN1	CCNc1c(N)nn[nH]1	
InChI=1S/C4H9N5/c1-2-6-4-3(5)7-9-8-4/h2H2,1H3,(H4,5,6,7,8,9)	InChI=1S/C4H9N5/c1-2-6-4-3(5)7-9-8-4/h2H2,1H3,(H4,5,6,7,8,9)
