23
gdb 111092	3.50397	1.02302	0.99578	0.3115	91.71	-0.2107	0.0274	0.2381	1373.7296	0.206424	-351.134338	-351.125417	-351.124473	-351.167759	35.07	
C	-0.0670439295	 1.5776095316	-0.0463169261	-0.376853
C	-0.1885353587	 0.0505868287	-0.1285557847	-0.224871
C	 0.6621768219	-0.5414935048	-1.2495451573	 0.077529
C	 2.228696111	-0.6570543499	-1.0607403673	-0.07626
C	 1.943613048	-1.9689309838	-0.2547161619	-0.218581
C	 0.8238342832	-2.1093870926	-1.3401138082	-0.142255
C	 1.6880701097	-2.2138609827	-2.6112265613	 0.348462
C	 1.4672223514	-3.1683376214	-3.7326852557	-0.519016
C	 2.6069139405	-1.2586849435	-2.4198713161	-0.201131
H	 0.9613036904	 1.8835364173	 0.1733538111	 0.117232
H	-0.3559862954	 2.0486272701	-0.9924016751	 0.114115
H	-0.7104788695	 1.9855292248	 0.7394246824	 0.110121
H	 0.0658096827	-0.3867214007	 0.8425090805	 0.096262
H	-1.2372224643	-0.2179395328	-0.315653159	 0.093768
H	 0.3742103595	-0.0766424876	-2.1992563558	 0.058392
H	 2.8343677837	 0.1566817951	-0.6607721282	 0.053709
H	 2.7295604827	-2.7278722081	-0.2527553488	 0.088374
H	 1.5699444881	-1.8075503071	 0.759546585	 0.091301
H	-0.0222817587	-2.7903088336	-1.2290628271	 0.04975
H	 0.4742032122	-3.0373370509	-4.1825377165	 0.123854
H	 2.2143040291	-3.0363975393	-4.5210149065	 0.122819
H	 1.5159639066	-4.2106308286	-3.3909807154	 0.124008
H	 3.4248892457	-0.9518672804	-3.0574374482	 0.089273
82.0536	152.731	153.3566	185.8776	224.0677	285.5936	333.6823	392.4652	493.4004	507.7466	584.6079	614.314	737.152	781.1282	799.9339	846.2621	855.4127	869.236	904.5761	931.1766	953.1855	993.002	1005.1108	1032.6824	1062.3042	1070.3196	1088.2211	1095.3815	1119.5312	1134.5742	1183.2301	1219.8469	1227.8755	1242.2755	1246.3794	1255.7515	1293.2618	1306.7165	1343.8322	1399.3794	1412.3848	1415.035	1477.8966	1482.6231	1487.7023	1499.2145	1501.8814	1511.5318	1687.9111	3010.5519	3016.823	3031.3723	3037.0015	3053.3502	3055.6431	3069.4266	3096.3995	3100.3749	3102.1636	3102.8227	3109.8298	3119.363	3220.6857
CCC1C2CC1C(C)=C2	CC[C@H]1[C@H]2C[C@@H]1C(=C2)C	
InChI=1S/C9H14/c1-3-8-7-4-6(2)9(8)5-7/h4,7-9H,3,5H2,1-2H3	InChI=1S/C9H14/c1-3-8-7-4-6(2)9(8)5-7/h4,7-9H,3,5H2,1-2H3/t7-,8+,9-/m1/s1
