12
gdb 131004	7.07241	0.90067	0.79893	2.3336	72.45	-0.2872	-0.0814	0.2057	1286.6882	0.079069	-431.713294	-431.706107	-431.705163	-431.745443	25.476	
O	-0.0509956979	-0.045871603	-0.0003590728	-0.233122
C	-0.0055328114	 1.1450133263	 0.0089969318	 0.199674
N	 1.1899001389	 1.9005417397	 0.0019764611	-0.02137
C	 1.2626236884	 3.2639761534	 0.0124336711	-0.094978
C	 2.5999659121	 3.5831262185	 0.0001820652	 0.059491
C	 3.2675516328	 2.3154726958	-0.0176073268	-0.04127
N	 2.4193371813	 1.3128170418	-0.0165128884	-0.210391
C	 3.1820593167	 4.8733145154	 0.0043282418	 0.211682
N	 3.6718358155	 5.9222272387	 0.0075224092	-0.325981
H	-0.8823314241	 1.8166871608	 0.0242391158	 0.116139
H	 0.3829412066	 3.8870739623	 0.0273352198	 0.181754
H	 4.3322513413	 2.1348529804	-0.0308951579	 0.158373
87.4254	135.2675	201.9336	256.963	278.1533	448.716	516.3277	558.5375	636.068	640.5332	686.7443	813.0785	826.8371	918.4389	975.5349	1019.8844	1023.4867	1167.8465	1216.6209	1285.7446	1359.6578	1396.8404	1450.3277	1463.1001	1605.1286	1865.7714	2354.7913	2985.5545	3258.3417	3273.6371
O=CN1C=C(C=N1)C#N	O=Cn1cc(cn1)C#N	
InChI=1S/C5H3N3O/c6-1-5-2-7-8(3-5)4-9/h2-4H	InChI=1S/C5H3N3O/c6-1-5-2-7-8(3-5)4-9/h2-4H
