21
gdb 96090	2.98956	1.32593	1.05596	1.72	78.85	-0.2492	0.0885	0.3377	1208.3536	0.183127	-424.224186	-424.21582	-424.214876	-424.256762	33.262	
C	-0.0126551778	 1.5260870133	 0.089638881	-0.404052
C	 0.0279627911	 0.0112206839	-0.0136600749	 0.131764
C	 0.7692619742	-0.5029265529	-1.2579779296	-0.268127
C	 0.9448424164	-2.0042990424	-1.1513974	 0.43526
C	-0.0647911751	-2.95766024	-1.7503694979	-0.324371
C	 1.3423992637	-2.8500949122	-2.3126545179	-0.336478
O	 1.5210512572	-2.378557614	 0.0788786614	-0.279548
C	 0.7675980004	-1.8786898003	 1.1588126924	 0.00587
O	 0.683510586	-0.4813079739	 1.1579715134	-0.250903
H	 1.0024299103	 1.9337686692	 0.118701351	 0.126491
H	-0.5354890237	 1.9544139855	-0.771064239	 0.113723
H	-0.5317137865	 1.8330165891	 1.0016451726	 0.124587
H	-1.0015988143	-0.3880216967	-0.0303032515	 0.065366
H	 0.2185549008	-0.2395033005	-2.1670206521	 0.095748
H	 1.7551846999	-0.0244493563	-1.3054365036	 0.107784
H	-0.3011563273	-3.8495338398	-1.1814295718	 0.119133
H	-0.8877226589	-2.5539207986	-2.3307581215	 0.110407
H	 1.4839058174	-2.3691073733	-3.2745311876	 0.112851
H	 2.0236105535	-3.6672360654	-2.1047447761	 0.126146
H	-0.2469259481	-2.3186586625	 1.137672342	 0.074089
H	 1.2907778708	-2.1704014023	 2.0716603797	 0.114258
118.5155	149.3498	219.7354	241.7131	290.9332	331.0152	351.9343	417.6937	457.5584	494.6604	519.9304	678.1761	741.537	778.324	826.0428	866.602	909.841	929.5873	935.7883	964.1069	982.9067	1041.6783	1061.0387	1070.0612	1079.1259	1103.4205	1137.0915	1150.2841	1188.3943	1206.3933	1221.7234	1284.7259	1302.8096	1313.3241	1368.2658	1381.938	1395.8386	1413.0694	1445.9187	1451.6176	1468.3252	1483.2923	1495.0369	1500.1212	1509.8226	2929.9544	2948.9444	3031.1906	3042.0976	3084.3417	3112.5087	3115.8514	3120.9251	3132.5728	3136.8084	3217.714	3231.4522
CC1CC2(CC2)OCO1	C[C@H]1CC2(CC2)OCO1	
InChI=1S/C7H12O2/c1-6-4-7(2-3-7)9-5-8-6/h6H,2-5H2,1H3	InChI=1S/C7H12O2/c1-6-4-7(2-3-7)9-5-8-6/h6H,2-5H2,1H3/t6-/m0/s1
