23
gdb 122363	5.08091	0.63931	0.6315	2.0948	86.64	-0.2324	0.0822	0.3146	1886.4619	0.205227	-388.224474	-388.215091	-388.214147	-388.259797	35.082	
C	-0.0071069154	 1.6132402137	 0.2016571988	-0.380645
C	 0.026974441	 0.0855234251	 0.295944133	-0.164279
C	-1.3519392667	-0.5599336463	 0.1237847803	-0.150323
C	-1.3241847879	-2.0926449399	 0.2141118171	-0.256399
C	-2.7112741734	-2.7078156199	 0.0997713452	 0.053152
C	-3.4824429101	-2.8712219337	-1.2462785582	 0.041289
C	-2.5565315345	-4.0387181602	-1.6632190922	-0.229047
C	-2.9730927502	-4.2155917408	-0.1831564994	 0.019826
O	-4.3585959997	-3.858155787	-0.5715516621	-0.310415
H	 0.9909989453	 2.0441387964	 0.3280124489	 0.111851
H	-0.3905213875	 1.9415025761	-0.7709230064	 0.113694
H	-0.6554108387	 2.0434802637	 0.9731802037	 0.114478
H	 0.7111522908	-0.313593533	-0.4647637166	 0.094091
H	 0.4466409616	-0.2133960434	 1.2657072512	 0.095044
H	-2.0365547938	-0.1635061042	 0.886275335	 0.0955
H	-1.7747610661	-0.259978928	-0.8450400321	 0.094268
H	-0.6467525218	-2.4871513657	-0.5517944633	 0.095886
H	-0.8925447832	-2.3878404318	 1.1805044014	 0.098951
H	-3.3791040258	-2.3381869182	 0.8841697615	 0.079814
H	-3.967721362	-2.1173167627	-1.8675060621	 0.089764
H	-3.0101527908	-4.753452951	-2.3506073093	 0.107712
H	-1.5117662561	-3.8315318181	-1.9012718772	 0.096572
H	-2.844437965	-5.0764191413	 0.4746371828	 0.089217
46.8868	76.8522	98.9377	124.6246	242.2077	253.5207	288.8168	345.0288	437.1931	554.6706	627.8912	720.2106	737.1584	769.2969	814.8261	849.6827	875.8932	884.7403	919.8129	929.8829	955.5398	1008.2157	1016.6353	1037.1381	1067.103	1082.62	1091.0188	1131.9145	1150.1179	1167.4394	1170.9557	1202.2457	1219.9637	1240.5637	1263.4852	1282.6237	1285.0157	1316.887	1332.7757	1354.6878	1396.7377	1407.4743	1413.4755	1478.3423	1485.4028	1493.744	1499.2868	1502.0153	1513.2571	3004.9583	3011.5692	3019.2798	3029.0977	3029.4127	3046.7675	3060.2591	3071.2317	3080.3453	3095.5304	3101.6983	3105.3247	3113.0913	3150.6659
CCCCC1C2CC1O2	CCCC[C@H]1[C@H]2C[C@@H]1O2	
InChI=1S/C8H14O/c1-2-3-4-6-7-5-8(6)9-7/h6-8H,2-5H2,1H3	InChI=1S/C8H14O/c1-2-3-4-6-7-5-8(6)9-7/h6-8H,2-5H2,1H3/t6-,7+,8-
