14
gdb 18954	6.82159	1.50944	1.46437	2.6667	63.32	-0.2393	0.0135	0.2528	843.4232	0.107927	-378.617254	-378.611177	-378.610233	-378.647665	23.211	
O	 0.0429823652	 0.0195632756	-0.4309321961	-0.314631
C	 0.0240417517	 1.1895539926	-0.1179190514	 0.130548
N	 1.0634364015	 1.8585059612	 0.4731865218	-0.083291
C	 2.5064032316	 1.6142819523	 0.2215017903	-0.034148
C	 2.6035401718	 2.7223689123	-0.8983616133	-0.03323
N	 3.7032693044	 3.4958519314	-0.243685697	-0.34052
C	 2.8998517457	 2.9703223811	 0.9050468281	-0.031399
C	 1.5584902295	 3.2245955175	 0.1544123721	-0.022068
H	-0.8798026067	 1.8279515445	-0.2026391287	 0.074058
H	 2.9705045065	 0.6320198999	 0.2810457549	 0.116407
H	 2.4875319747	 2.6173269626	-1.9776958437	 0.103959
H	 4.58835051	 2.9887381203	-0.3194358294	 0.218656
H	 3.128927766	 3.1610367436	 1.9530236103	 0.1022
H	 0.9367618881	 4.1173800852	 0.1422355222	 0.113461
98.6362	185.5397	278.7937	449.93	516.7891	626.2287	735.2632	761.8938	789.9966	812.4889	837.1065	902.1978	915.1253	969.344	1022.82	1032.7865	1047.6747	1100.8223	1103.5476	1134.278	1158.1751	1160.5646	1168.648	1207.0525	1246.4852	1295.2098	1341.3192	1377.7156	1420.7405	1791.5768	2920.1766	3116.197	3127.0486	3150.9518	3156.5647	3414.9761
O=CN1C2C3NC2C13	O=CN1[C@H]2[C@@H]3N[C@H]2[C@H]13	
InChI=1S/C5H6N2O/c8-1-7-4-2-5(7)3(4)6-2/h1-6H	InChI=1S/C5H6N2O/c8-1-7-4-2-5(7)3(4)6-2/h1-6H/t2-,3+,4-,5+
