16
gdb 124264	2.77211	1.50603	0.9828	3.6445	74.68	-0.2068	-0.03	0.1768	1144.2552	0.125569	-434.120391	-434.11194	-434.110995	-434.153539	31.52	
C	-0.0095583764	 1.4868698983	 0.0449486539	-0.491186
C	-0.0026686198	-0.0332447917	 0.0296109337	 0.297996
O	-0.0402800398	-0.668245471	 1.0778232317	-0.357406
C	 0.0405073278	-0.707063972	-1.2572604054	 0.072606
C	 0.012804723	-0.188375936	-2.5488386129	-0.122297
N	 0.0151509107	-1.2341573537	-3.3825939362	-0.190052
N	 0.0477319432	-2.4457545889	-2.7504915212	-0.320397
C	 0.0686081282	-2.129813245	-1.4588254458	 0.338878
N	 0.1602595432	-3.0663290736	-0.4687480808	-0.587476
H	 0.8876343593	 1.8828744442	-0.4430562086	 0.135569
H	-0.8773995449	 1.8762354096	-0.4986311608	 0.1338
H	-0.0444884252	 1.8340746399	 1.0780348843	 0.1416
H	-0.014395949	 0.8283722696	-2.9084775222	 0.14317
H	-0.0003310631	-1.2205615845	-4.3877082505	 0.278694
H	-0.1420602121	-3.9979578271	-0.7038746373	 0.253049
H	-0.0737280051	-2.716231738	 0.449908228	 0.273452
82.7318	115.2363	175.5041	192.0818	318.3935	320.75	420.0722	436.8351	486.6493	508.3621	557.8956	600.247	636.2484	648.8722	753.6437	765.3733	805.6266	935.0645	946.5155	1043.4877	1048.1924	1084.1593	1127.312	1221.7727	1285.7628	1363.5973	1390.1263	1424.9265	1468.6555	1478.1624	1498.2836	1521.6241	1602.0454	1641.9433	1731.718	3037.4244	3099.5081	3152.6215	3259.9557	3556.8981	3682.5136	3691.6243
CC(=O)C1=CNN=C1N	CC(=O)c1c[nH]nc1N	
InChI=1S/C5H7N3O/c1-3(9)4-2-7-8-5(4)6/h2H,1H3,(H3,6,7,8)	InChI=1S/C5H7N3O/c1-3(9)4-2-7-8-5(4)6/h2H,1H3,(H3,6,7,8)
