18
gdb 57984	3.62993	0.89519	0.78197	3.7944	75.2	-0.2552	0.0093	0.2644	1465.9156	0.144432	-439.050445	-439.040391	-439.039446	-439.086122	36.177	
C	-0.2109726647	 1.2850368078	-0.4864764914	-0.391287
C	-0.0388188621	-0.0425108034	 0.2643445703	 0.093712
O	 0.4357892201	 0.1861428664	 1.5667776353	-0.441773
C	-1.3400592223	-0.8281394366	 0.3094706476	 0.397608
N	-1.8891183974	-1.0664675703	 1.4246130138	-0.557167
O	-1.7406055777	-1.1723824661	-0.9406316294	-0.230531
C	-3.0148553904	-1.805394549	-1.0915731183	-0.246979
C	-3.0470550291	-3.1859176472	-0.6191364115	 0.306938
C	-3.0836756652	-4.3240150551	-0.2368358319	-0.441545
H	 0.7396088712	 1.8237742293	-0.4782534483	 0.128875
H	-0.5155079665	 1.1171637997	-1.5227140684	 0.118506
H	-0.9609510966	 1.9058857458	 0.0131178585	 0.120573
H	 0.6839705085	-0.6640699383	-0.288478313	 0.094219
H	-0.2438393318	-0.1742364774	 2.1587838703	 0.293743
H	-2.7317850585	-1.6330933034	 1.3837992564	 0.234788
H	-3.7857064991	-1.2091157669	-0.5857538274	 0.145394
H	-3.2157073451	-1.7683652867	-2.1656195661	 0.159133
H	-3.1127279132	-5.3305969186	 0.1022489936	 0.215795
48.8197	62.2033	93.2837	187.9374	214.8784	240.3426	288.132	331.3787	361.1074	383.4048	403.8883	456.347	595.3931	630.129	637.594	693.4535	711.8972	819.6688	842.1106	924.8233	943.0658	999.0997	1032.0994	1058.4714	1105.4445	1107.8969	1171.1068	1261.733	1290.0404	1333.5136	1362.1766	1391.88	1404.5282	1451.2499	1478.4876	1492.8511	1500.5299	1737.6312	2241.1691	2977.8608	3024.1209	3045.3443	3095.3281	3122.6243	3132.4057	3501.1319	3533.7986	3675.9951
CC(O)C(=N)OCC#C	C[C@@H](O)C(=N)OCC#C	
InChI=1S/C6H9NO2/c1-3-4-9-6(7)5(2)8/h1,5,7-8H,4H2,2H3	InChI=1S/C6H9NO2/c1-3-4-9-6(7)5(2)8/h1,5,7-8H,4H2,2H3/t5-/m1/s1
