16
gdb 66419	2.43599	1.34429	1.16153	3.1565	72.19	-0.2511	-0.035	0.2161	1119.4027	0.122348	-437.865424	-437.856936	-437.855992	-437.898842	30.844	
C	-0.0192480053	 1.60076286	 0.0107161845	-0.493373
C	 0.0540526947	 0.1041133571	 0.0087641143	 0.155496
C	 0.6160587966	-0.9287523284	-0.926961434	 0.029921
O	 1.1004848812	-1.7406190891	 0.1719538933	-0.2767
C	 0.6653864591	-0.7602331207	 1.0725729159	 0.396037
N	 0.8377282	-0.6512462097	 2.3060053521	-0.546417
C	-0.8770353785	-0.7964576154	-0.8568194561	-0.183001
C	-1.7784743209	-1.8421721295	-0.2979647941	 0.154689
O	-2.898201341	-2.0255273677	-0.7084915116	-0.261509
H	 0.9367391871	 2.0332748	 0.3205065936	 0.143235
H	-0.2671059365	 1.9833650147	-0.9832218991	 0.130163
H	-0.7870461259	 1.9482464614	 0.7085121838	 0.151057
H	 1.2300152237	-0.8682306515	-1.8153354859	 0.137803
H	 1.3686717493	-1.4366212588	 2.6857626155	 0.238567
H	-1.3196504692	-0.2443949201	-1.6819554289	 0.122604
H	-1.3571950344	-2.4481466125	 0.5279334267	 0.101427
85.1176	118.6843	160.7217	190.7644	222.6965	255.992	336.3579	442.1106	466.4263	555.2309	642.7409	687.3281	745.497	845.1901	867.8264	871.3677	911.9116	936.5891	1005.9468	1015.3843	1035.0291	1052.683	1105.0783	1136.2964	1179.0281	1239.4925	1267.3757	1314.4301	1414.4371	1429.0819	1462.4916	1482.4071	1495.5632	1812.9589	1835.295	2942.8256	3043.3649	3112.0198	3119.2458	3160.9181	3216.4675	3484.0841
CC12C(OC1=N)C2C=O	C[C@@]12[C@@H](O[C]1[NH])[C@H]2C=O	
InChI=1S/C6H7NO2/c1-6-3(2-8)4(6)9-5(6)7/h2-4,7H,1H3	InChI=1S/C6H7NO2/c1-6-3(2-8)4(6)9-5(6)7/h2-4,7H,1H3/t3-,4+,6-/m1/s1
