16
gdb 9653	3.51309	1.36998	1.34107	4.2184	66.56	-0.2445	0.025	0.2695	997.1583	0.129621	-379.896832	-379.888282	-379.887338	-379.929746	30.817	
C	 0.0244898048	 1.0714491615	 0.3943660024	-0.253261
O	-0.1475742699	-0.0448132528	-0.4747992974	-0.240733
C	-1.3717254591	-0.6690454534	-0.3102411538	 0.10098
C	-1.5281338519	-2.0337865405	-0.8862578212	-0.360775
C	-1.4251239679	-1.8711386216	 0.6418121393	 0.113882
N	-0.2164702157	-2.1943211578	 1.3526287619	-0.571734
C	-2.6394960763	-2.0534312022	 1.3995761474	 0.278865
N	-3.6303454245	-2.1988658866	 1.979243209	-0.344944
H	 1.0037930445	 1.4971599746	 0.1684410299	 0.137454
H	-0.7486139963	 1.8308118724	 0.2150955941	 0.124072
H	-0.0113345214	 0.7676982153	 1.4477870113	 0.138273
H	-2.233665651	-0.0028725543	-0.3106922024	 0.116265
H	-2.4821247127	-2.30062699	-1.3259505034	 0.140408
H	-0.6539954379	-2.4691958205	-1.3577943041	 0.13278
H	-0.0393865176	-3.1935764953	 1.3327309432	 0.242338
H	 0.5624514731	-1.7291202787	 0.8966355535	 0.246131
103.0085	113.6021	162.7645	197.0243	264.6462	273.5859	296.5169	369.4282	474.1675	496.2493	577.9601	585.5987	711.8783	796.9929	859.8821	873.1084	914.7107	1016.2109	1063.8609	1064.0286	1121.2518	1157.9587	1184.092	1210.2899	1252.0318	1305.4409	1314.9422	1407.2497	1462.3652	1489.042	1490.7351	1508.462	1647.9324	2348.0572	3006.3015	3069.961	3115.7087	3135.2886	3140.378	3237.4523	3497.6699	3579.0917
COC1CC1(N)C#N	CO[C@H]1C[C@]1(N)C#N	
InChI=1S/C5H8N2O/c1-8-4-2-5(4,7)3-6/h4H,2,7H2,1H3	InChI=1S/C5H8N2O/c1-8-4-2-5(4,7)3-6/h4H,2,7H2,1H3/t4-,5-/m0/s1
