18
gdb 86518	3.33522	1.02197	0.83287	4.3268	81.77	-0.2418	-0.0227	0.2192	1387.8969	0.145961	-401.928938	-401.919418	-401.918474	-401.964597	33.594	
C	 0.2948067471	 1.5200555712	 0.1355857111	-0.40324
C	-0.0808293523	 0.0575153911	-0.0439042683	 0.008797
C	 0.8518311016	-0.7980063366	-0.9588608535	-0.187596
N	 1.1072485119	-1.6672739083	 0.1865486874	-0.072982
C	 0.2868757728	-0.9057373461	 1.130377521	-0.191757
C	 1.9678696251	-2.7065798186	 0.2937222326	 0.251902
O	 2.6324035094	-3.1245923848	-0.6405183583	-0.365761
C	 2.0244725519	-3.2869168574	 1.6314970579	 0.233573
C	 2.0980358391	-3.7847622878	 2.7237925053	-0.426367
H	 1.3465670944	 1.6241981998	 0.4243709971	 0.124186
H	 0.1454386423	 2.0814358569	-0.7927019778	 0.124664
H	-0.3150800394	 1.9921903027	 0.913129779	 0.122396
H	-1.1307530134	-0.0342257065	-0.33084342	 0.088739
H	 0.3741556528	-1.3071703329	-1.8018133531	 0.124284
H	 1.74931623	-0.2842060369	-1.3224238312	 0.122362
H	 0.8602242733	-0.4426202858	 1.9419987632	 0.118337
H	-0.5418853415	-1.4750063683	 1.5636098558	 0.120622
H	 2.1741674751	-4.2364968719	 3.6826757317	 0.207841
30.0737	85.8236	98.7714	116.7523	214.5665	251.1525	287.6196	336.907	383.275	475.3924	537.0856	657.6671	664.1223	674.8938	754.2181	770.6456	890.1853	892.9431	907.6742	927.3984	1028.1096	1099.3116	1122.3434	1143.6431	1157.0095	1207.4213	1213.89	1278.111	1295.7768	1322.4882	1372.132	1414.1204	1443.747	1494.9815	1497.1502	1507.8109	1525.6992	1738.7197	2223.251	3026.6357	3029.2514	3036.3971	3068.6715	3077.5412	3085.6121	3100.6215	3105.4255	3496.6038
CC1CN(C1)C(=O)C#C	CC1CN(C1)C(=O)C#C	
InChI=1S/C7H9NO/c1-3-7(9)8-4-6(2)5-8/h1,6H,4-5H2,2H3	InChI=1S/C7H9NO/c1-3-7(9)8-4-6(2)5-8/h1,6H,4-5H2,2H3
