21
gdb 78502	2.49881	1.51607	1.26728	0.9854	82.83	-0.2295	0.0815	0.311	1123.9005	0.181851	-387.046522	-387.037666	-387.036721	-387.079316	34.857	
C	-0.0152956477	 1.6218763065	 0.0161533371	-0.424714
C	 0.0971927249	 0.1021902074	-0.0069036477	 0.043847
C	 0.8309680865	-0.6245487978	-1.1323053144	-0.21141
C	 2.3167105327	-0.7637452542	-0.7201484981	 0.34862
O	 3.2943832306	-1.0710842718	-1.6466854559	-0.470109
C	 2.495190042	-0.0972469259	 0.6390177761	-0.30527
C	 1.0746826349	-0.6536588859	 0.95021634	-0.136551
C	 1.2939577413	-1.7318588754	-0.1976198135	 0.307135
C	 1.1843633333	-3.2187673602	-0.2539188872	-0.532084
H	 0.9511139735	 2.1108252323	-0.1357490181	 0.112698
H	-0.6864682165	 1.9701008332	-0.7771852924	 0.111715
H	-0.4241337911	 1.9726093248	 0.9708343222	 0.111645
H	-0.9007484653	-0.3392003574	 0.1068673019	 0.067507
H	 0.5525881615	-0.7299903862	-2.1751307891	 0.07513
H	 3.4088505663	-0.3145860984	-2.2323519401	 0.283681
H	 3.2576521069	-0.6195122689	 1.2244682657	 0.100642
H	 2.6604367157	 0.9840435036	 0.7056744096	 0.081722
H	 0.7881302568	-0.8716897965	 1.9776079942	 0.065726
H	 0.1582426216	-3.5605812727	-0.0757137845	 0.117541
H	 1.4929129274	-3.5828010331	-1.2395120861	 0.131681
H	 1.8290980847	-3.6987572434	 0.4916914202	 0.120846
146.3053	173.8468	194.7971	197.178	216.502	284.1859	299.6265	376.8959	409.9553	475.2025	577.1442	609.1561	651.3053	696.3523	729.2014	804.973	886.7361	890.9951	911.6214	937.4227	958.7858	1014.5676	1046.924	1071.2869	1087.8331	1099.7087	1117.0054	1138.6788	1157.6866	1177.8034	1189.8909	1235.1571	1255.6779	1292.5009	1300.9543	1350.4741	1392.2857	1409.2689	1413.7723	1479.1339	1485.5542	1492.7156	1494.7253	1502.6005	1523.9356	3020.366	3023.9526	3029.0218	3036.1034	3076.6382	3087.4547	3092.3162	3095.754	3110.2417	3127.1127	3175.857	3790.1276
CC1C2C3(O)CC1C23C	C[C@H]1[C@H]2[C@@]3(O)C[C@@H]1[C@@]23C	
InChI=1S/C8H12O/c1-4-5-3-8(9)6(4)7(5,8)2/h4-6,9H,3H2,1-2H3	InChI=1S/C8H12O/c1-4-5-3-8(9)6(4)7(5,8)2/h4-6,9H,3H2,1-2H3/t4-,5+,6-,7+,8+/m1/s1
