17
gdb 106653	2.71228	1.31512	1.05844	4.1378	69.46	-0.261	0.0007	0.2617	1174.7799	0.133822	-458.960937	-458.952071	-458.951127	-458.994627	32.673	
C	-0.1747759878	 1.4821226855	 0.0759592273	-0.382689
C	 0.1566872839	-0.0118131913	-0.0417444225	-0.288326
C	 0.7553833952	-0.5710124121	 1.2058009703	 0.427384
C	 0.1012017928	-1.0368438228	 2.4649945807	-0.395955
C	 1.0574278116	-1.9671482135	 1.6896867123	 0.113673
O	 0.6894363259	-3.1779166516	 1.1660844154	-0.442875
C	 2.4657855207	-1.4445785015	 1.8921213194	 0.405596
O	 3.5425871738	-1.8593357043	 2.1679144752	-0.330343
O	 2.1128374057	-0.1395982055	 1.5639120493	-0.301187
H	 0.7239691602	 2.0614490025	 0.3053588007	 0.14129
H	-0.5925532265	 1.8584217951	-0.8619166124	 0.119713
H	-0.9050517146	 1.6626826091	 0.8708853632	 0.121611
H	-0.7470336559	-0.5886155551	-0.269322003	 0.119211
H	 0.8571245507	-0.1791505482	-0.8678948483	 0.124222
H	 0.3819252789	-0.6103716787	 3.4227136565	 0.133979
H	-0.9368509408	-1.3439450483	 2.3667240158	 0.131543
H	 0.5712003463	-3.8064999393	 1.8873700499	 0.303151
75.9618	117.0447	151.2559	215.5128	248.8365	258.6148	302.8442	376.4472	419.1093	481.037	552.7279	658.0008	687.9734	745.0962	784.043	792.066	844.7818	909.1132	973.598	985.0312	999.7718	1052.8004	1070.0532	1106.3505	1109.7986	1198.586	1272.2513	1308.8975	1340.5807	1389.5223	1412.1932	1430.3195	1471.4039	1497.1188	1505.9282	1525.7535	1945.0543	3039.3937	3043.8408	3077.5892	3115.5771	3117.9533	3122.4548	3214.5111	3794.2534
CCC12CC1(O)C(=O)O2	CC[C@@]12C[C@]1(O)C(=O)O2	
InChI=1S/C6H8O3/c1-2-5-3-6(5,8)4(7)9-5/h8H,2-3H2,1H3	InChI=1S/C6H8O3/c1-2-5-3-6(5,8)4(7)9-5/h8H,2-3H2,1H3/t5-,6+/m1/s1
