18
gdb 113644	2.94607	1.15241	0.90236	2.4434	75.19	-0.2492	-0.0784	0.1708	1301.525	0.145405	-439.090775	-439.081277	-439.080333	-439.125704	33.367	
C	-0.3919132509	 1.2316761391	-0.1618744847	-0.390274
C	 0.0479225584	-0.2374403021	-0.1753412406	-0.198448
C	 0.8856600626	-0.5955597604	-1.3837951647	 0.002244
C	 0.9722681674	-2.0106808602	-1.8963887904	-0.25167
N	 0.2713031111	-0.9886415806	-2.635755918	-0.066681
C	-1.0159011262	-0.9303429304	-3.0762876389	 0.277557
O	-1.7723080424	 0.0162331414	-2.9629575553	-0.338798
C	-1.4891207742	-2.1549177864	-3.8720046108	 0.10423
O	-0.9100171192	-3.2060394082	-3.9351438782	-0.231755
H	 0.475545048	 1.9008109572	-0.1705198437	 0.112431
H	-1.0067226868	 1.4519047043	-1.0372257843	 0.160534
H	-0.9722250477	 1.4528931978	 0.7386953737	 0.113923
H	 0.6450388687	-0.4591992135	 0.718672331	 0.107834
H	-0.8287993837	-0.8945917045	-0.1367936776	 0.104909
H	 1.7721491476	 0.0232083272	-1.5223188749	 0.108364
H	 1.8932119472	-2.3768152534	-2.3412969902	 0.134357
H	 0.3723600055	-2.7674287719	-1.3983122636	 0.138336
H	-2.4662306955	-1.9625861056	-4.3613083789	 0.112907
60.9019	110.8192	121.5428	135.5533	166.9756	235.7796	253.5065	286.8651	400.7636	458.3794	489.5453	600.9921	657.6943	695.6344	795.4496	817.0694	945.9902	968.4031	998.2797	1025.5583	1068.6889	1077.4122	1125.7242	1135.9835	1162.4811	1195.2036	1212.1544	1292.6079	1341.9041	1369.7741	1405.0678	1412.908	1463.7362	1476.7412	1498.499	1515.7745	1519.0251	1760.6499	1828.5553	2936.2964	3024.5772	3038.7022	3063.3267	3103.6159	3113.8094	3115.2518	3138.413	3202.8282
CCC1CN1C(=O)C=O	CC[C@H]1CN1C(=O)C=O	
InChI=1S/C6H9NO2/c1-2-5-3-7(5)6(9)4-8/h4-5H,2-3H2,1H3	InChI=1S/C6H9NO2/c1-2-5-3-7(5)6(9)4-8/h4-5H,2-3H2,1H3/t5-,7?/m0/s1
