19
gdb 14837	2.82854	1.59959	1.13219	4.0662	75.58	-0.3005	0.0289	0.3295	1090.6957	0.16592	-327.941469	-327.933009	-327.932064	-327.974661	30.903	
C	 0.131544382	 1.4909890008	 0.2061274788	-0.390308
C	 0.217999874	-0.0353038795	 0.1124347347	-0.183007
C	 0.5998625664	-0.5155764408	-1.2869511462	 0.011243
C	 2.1055250591	-0.3441979784	-1.6541225186	-0.229948
C	 2.3417848656	-1.8483301501	-1.3601162456	-0.225646
C	 0.7987827621	-2.0702980857	-1.4355272995	-0.154506
C	 0.1791486103	-2.9535162017	-0.4627052141	 0.273952
N	-0.3077901357	-3.6453338489	 0.3263101665	-0.339311
H	 1.084516771	 1.9662259735	-0.0501958093	 0.117957
H	-0.6289778168	 1.885141692	-0.476931605	 0.11728
H	-0.1339739991	 1.807125533	 1.2190976771	 0.120286
H	 0.9443211474	-0.4111736381	 0.8446409814	 0.104143
H	-0.745786351	-0.4772797529	 0.3916288886	 0.118421
H	-0.1039976199	-0.1028803709	-2.0159582018	 0.078744
H	 2.2543980978	-0.0969511156	-2.7082194666	 0.108003
H	 2.6731464597	 0.3667624536	-1.0497063662	 0.108789
H	 2.9440708108	-2.4200216743	-2.0679261552	 0.11498
H	 2.7234803582	-2.0244828829	-0.3527557882	 0.127061
H	 0.504555368	-2.3960586632	-2.4373176011	 0.121869
86.9957	112.5817	121.6651	205.0504	218.0304	268.2872	357.0212	396.2322	535.0748	565.7042	673.5323	757.3664	768.1565	816.7267	889.7798	939.1501	952.3696	975.1906	989.7244	1042.9635	1054.477	1096.8562	1126.4191	1159.4686	1221.5705	1238.1725	1252.4319	1269.1393	1277.3035	1300.1201	1341.3535	1347.2429	1392.7161	1413.3713	1480.9889	1483.6687	1498.0922	1500.6561	1507.2672	2348.3053	3024.6729	3032.9209	3050.1404	3063.1604	3065.8861	3073.7385	3079.8103	3099.5383	3108.4839	3113.3063	3137.5364
CCC1CCC1C#N	CC[C@H]1CC[C@H]1C#N	
InChI=1S/C7H11N/c1-2-6-3-4-7(6)5-8/h6-7H,2-4H2,1H3	InChI=1S/C7H11N/c1-2-6-3-4-7(6)5-8/h6-7H,2-4H2,1H3/t6-,7-/m0/s1
