22
gdb 78268	2.4456	1.46506	1.15559	1.3892	88.03	-0.194	0.0751	0.269	1204.3797	0.192277	-367.12239	-367.113064	-367.11212	-367.155694	36.267	
C	-0.0832201402	 1.6528277494	-0.0460343515	-0.429831
C	 0.1660062059	 0.1569873989	 0.0425918179	-0.045074
C	 1.4142421585	-0.6639872736	-0.2147634461	-0.162582
C	 2.7118609545	-0.1948611734	 0.4932940838	-0.030707
C	 2.034585214	-0.2087028055	 1.8095405942	-0.097934
N	 2.4932117145	 1.0681693429	 1.2265435442	-0.099067
C	 3.7127511407	 1.5587911053	 1.8633051379	-0.322623
C	 0.7080777489	-0.7094728039	 1.1540309127	 0.291868
C	-0.0559710133	-1.8346315925	 1.7929485536	-0.488116
H	-0.1804285828	 1.9479878323	-1.097738044	 0.104677
H	-1.0311779004	 1.8974274329	 0.4484941219	 0.102111
H	 0.7143695912	 2.230701613	 0.4090507521	 0.1492
H	-0.6685542592	-0.3873894097	-0.4072891095	 0.080564
H	 1.4361017644	-1.4412557762	-0.9705276001	 0.081568
H	 3.7148629267	-0.5058840046	 0.2282751819	 0.089097
H	 2.3999035564	-0.5329165679	 2.7770097353	 0.085341
H	 4.3915728968	 0.7564839057	 2.2017548812	 0.094695
H	 4.2577737249	 2.1905260177	 1.1548144601	 0.123841
H	 3.4443077325	 2.1677272351	 2.7324134609	 0.123383
H	-0.6185355792	-1.4897887453	 2.6701279416	 0.118496
H	-0.7728796434	-2.2715044168	 1.0903385402	 0.117481
H	 0.6142519985	-2.6363274437	 2.1273558817	 0.113613
126.4105	177.8707	183.652	195.7355	214.0062	250.7954	269.6141	311.8058	346.4065	419.0684	489.3015	561.4662	658.2147	693.571	773.6262	811.3612	832.6793	851.3381	882.5435	922.7886	932.9641	959.3211	1003.7852	1041.305	1066.8965	1107.6087	1117.1394	1130.6138	1133.8315	1139.4695	1167.9009	1205.0107	1236.1375	1275.5569	1299.4915	1336.0577	1366.9365	1395.766	1414.3293	1447.8727	1470.7601	1483.4875	1490.9447	1493.2957	1499.4794	1500.6027	1515.0077	2949.8568	3011.8936	3024.8861	3064.5497	3065.0525	3069.2838	3074.6224	3095.1234	3103.1246	3167.9093	3176.6767	3192.3833	3200.6743
CC1C2C3C(N3C)C12C	C[C@H]1[C@H]2[C@@H]3[C@@H](N3C)[C@@]12C	
InChI=1S/C8H13N/c1-4-5-6-7(9(6)3)8(4,5)2/h4-7H,1-3H3	InChI=1S/C8H13N/c1-4-5-6-7(9(6)3)8(4,5)2/h4-7H,1-3H3/t4-,5-,6+,7+,8-,9?/m0/s1
