13
gdb 45916	2.94965	1.52807	1.05066	4.2459	62.11	-0.275	-0.072	0.203	1047.1435	0.09015	-489.94341	-489.935848	-489.934904	-489.976208	27.286	
N	-0.1936308285	 1.3515031672	-0.1821049841	-0.476939
C	-0.0541882617	 0.1284654498	 0.0704891654	 0.404083
C	-1.1778869266	-0.8579216833	-0.0999976082	-0.245316
N	-1.1410575957	-1.8616178114	 0.949097953	-0.341954
C	 0.004795093	-2.3680914243	 1.4760614041	 0.303891
O	 0.0620626679	-3.2951333765	 2.2477915848	-0.320806
C	 1.2979737039	-1.6450645121	 1.0348953809	 0.330552
O	 2.3832468499	-2.0874985385	 1.2268250079	-0.256042
O	 1.1668250647	-0.405415779	 0.4381637458	-0.231519
H	 0.6883420219	 1.8536054975	-0.0629147841	 0.245413
H	-2.116362995	-0.3055442405	-0.0583068942	 0.168035
H	-1.0997734811	-1.3128305422	-1.0994403197	 0.150159
H	-1.9858065426	-2.3659537867	 1.1780720483	 0.270443
64.1349	101.0311	162.6403	342.8492	385.8027	395.7756	435.0355	475.0057	541.9126	599.3661	620.3878	676.0223	800.4885	816.455	912.1105	940.189	1017.5002	1050.4922	1109.5307	1128.8349	1252.283	1319.068	1349.3063	1380.3842	1470.1513	1506.6941	1780.3379	1825.8062	1893.3297	2992.3721	3136.5537	3478.7897	3610.4328
N=C1CNC(=O)C(=O)O1	[NH][C]1CNC(=O)C(=O)O1	
InChI=1S/C4H4N2O3/c5-2-1-6-3(7)4(8)9-2/h5H,1H2,(H,6,7)	InChI=1S/C4H4N2O3/c5-2-1-6-3(7)4(8)9-2/h5H,1H2,(H,6,7)
