18
gdb 61192	3.41592	0.85326	0.77605	3.6081	78.65	-0.2479	0.0115	0.2595	1473.3801	0.146305	-398.088085	-398.07782	-398.076876	-398.123464	37.226	
N	-0.0438261159	 1.5786895389	 0.0387719717	-0.499104
C	-0.0286427316	 0.1286230184	-0.0367825839	 0.025842
C	-1.4590403332	-0.4228217256	 0.1529662197	-0.390824
C	-2.0010587458	-0.1759744347	 1.4813294162	 0.316083
C	-2.4444232212	 0.0028928074	 2.5831185893	-0.421356
C	 0.5937272422	-0.458378914	-1.3560640557	-0.143399
N	-0.068723915	-0.1118815043	-2.6126174663	-0.503772
C	 2.000313237	-0.032055345	-1.4280447045	 0.289331
N	 3.0917797836	 0.3474400497	-1.4337135276	-0.319379
H	 0.8963381692	 1.9580402809	-0.0150311296	 0.249624
H	-0.5887117625	 1.9843272017	-0.7164060139	 0.220594
H	 0.5878199343	-0.2374059245	 0.7922539601	 0.116597
H	-2.1192169567	 0.0253458677	-0.6024468759	 0.12145
H	-1.4575518986	-1.5032763213	-0.0428730978	 0.130466
H	-2.83538062	 0.1718260363	 3.5557093825	 0.198095
H	 0.5908537952	-1.5533984057	-1.2765307602	 0.131538
H	-1.0097949878	-0.4895214474	-2.630446828	 0.244473
H	-0.1324340832	 0.8961697116	-2.7179626963	 0.233744
64.0284	78.8293	107.388	178.4195	212.6729	260.1187	263.5989	311.5464	341.4411	346.5697	380.042	456.4977	516.5173	597.496	623.3969	645.0637	674.432	793.2792	842.6011	853.0136	892.9304	920.6683	981.1142	1009.5589	1115.0258	1126.6647	1169.3934	1192.933	1268.5484	1289.0659	1324.9066	1361.7148	1406.4768	1418.6216	1473.0333	1648.4948	1658.9188	2245.8431	2358.3787	3009.1511	3031.5955	3040.2701	3057.082	3491.1329	3499.9002	3507.4662	3580.3805	3594.0909
NC(CC#C)C(N)C#N	N[C@@H](CC#C)[C@@H](N)C#N	
InChI=1S/C6H9N3/c1-2-3-5(8)6(9)4-7/h1,5-6H,3,8-9H2	InChI=1S/C6H9N3/c1-2-3-5(8)6(9)4-7/h1,5-6H,3,8-9H2/t5-,6-/m0/s1
