16
gdb 55890	3.47563	0.93565	0.79417	5.462	71.09	-0.2508	-0.0004	0.2504	1380.1736	0.123861	-434.077307	-434.068261	-434.067317	-434.112172	32.198	
N	 0.813985944	 0.0852165179	-0.3087008628	-0.508568
C	-0.2825201879	 0.3831464182	 0.4344427646	 0.381658
O	-0.330901241	 1.269014465	 1.2628097532	-0.354936
C	-1.5160692154	-0.478051708	 0.1309797437	-0.261427
N	-1.1701649968	-1.7258315644	-0.5489554457	-0.094977
C	-1.0677665757	-2.9287084999	 0.2574340751	-0.240224
C	-2.2063074128	-2.7551728414	-0.7048172873	-0.142655
C	-3.5376093573	-2.5470458415	-0.1883073098	 0.28871
N	-4.6141971447	-2.3735342433	 0.1969993995	-0.326861
H	 1.6359634169	 0.6570309265	-0.2098740671	 0.2632
H	 0.7674321346	-0.6303733396	-1.0144487198	 0.268017
H	-2.0558257532	-0.6208195382	 1.0757529212	 0.142767
H	-2.1670272098	 0.1058767971	-0.5291802165	 0.152476
H	-0.2664018795	-3.6156982988	 0.0030613695	 0.138767
H	-1.3058624119	-2.8568722311	 1.3164515952	 0.148717
H	-2.1833729494	-3.2786806783	-1.6564226629	 0.145338
48.8395	72.0045	98.2254	190.0568	218.1254	299.2568	341.0834	379.0909	452.2556	521.0409	554.7924	561.9714	635.8073	688.1087	770.5373	850.5187	881.1753	903.8395	1001.152	1030.6622	1049.4541	1094.1092	1124.3638	1134.5755	1153.7006	1267.5897	1315.2257	1345.8409	1365.04	1372.9975	1469.4766	1507.1552	1592.4114	1813.3659	2354.3103	3029.5562	3082.4851	3109.4934	3152.0325	3203.9987	3595.7556	3737.1521
NC(=O)CN1CC1C#N	NC(=O)CN1C[C@H]1C#N	
InChI=1S/C5H7N3O/c6-1-4-2-8(4)3-5(7)9/h4H,2-3H2,(H2,7,9)	InChI=1S/C5H7N3O/c6-1-4-2-8(4)3-5(7)9/h4H,2-3H2,(H2,7,9)/t4-,8?/m1/s1
