21
gdb 84092	2.32159	1.46069	1.10609	2.4787	80.48	-0.2491	0.0081	0.2572	1195.5619	0.182049	-424.245082	-424.235558	-424.234614	-424.278887	36.452	
C	 0.6170042833	 1.5511796527	 0.0844154649	-0.383507
C	 0.0981284814	 0.1088268088	-0.021975868	-0.077064
C	 0.6653252514	-0.6482073969	-1.1987613611	-0.161505
C	 1.5429820115	-1.6001886955	-0.8600043057	 0.272072
C	 2.3133410449	-2.510430376	-1.7647816326	-0.497224
C	 1.7310859839	-1.6274097842	 0.6380741232	-0.005713
O	 2.9826571654	-1.040497582	 1.0464419882	-0.445659
C	 0.5266143356	-0.8054658255	 1.1739389311	 0.108588
O	 0.8267764978	-0.1380767658	 2.3745566305	-0.438473
H	 1.7121561809	 1.5838272504	 0.1098152144	 0.090892
H	 0.2895100398	 2.1501197959	-0.7714471576	 0.109396
H	 0.2508093101	 2.0177323408	 1.001992658	 0.135423
H	-0.9968054743	 0.154863504	-0.0817763119	 0.076534
H	 0.3885078356	-0.4153081304	-2.2236992091	 0.091295
H	 2.1219503941	-2.2907164458	-2.8186140749	 0.123694
H	 3.3912949136	-2.4232833542	-1.5837157525	 0.132457
H	 2.0528463943	-3.5608453016	-1.5829181415	 0.130447
H	 1.7568563082	-2.6361987119	 1.0622252997	 0.086383
H	 3.1741475233	-0.3210585007	 0.4334347484	 0.285089
H	-0.2962982455	-1.5025969829	 1.3737611353	 0.082966
H	 1.7942725444	-0.0977765991	 2.4073786611	 0.283909
85.7826	140.6395	181.7755	208.1972	223.2417	260.8139	294.5378	301.5151	355.1736	415.88	502.6837	520.5517	561.145	600.9696	642.856	755.949	785.0871	863.6901	882.6159	913.7428	966.3846	1005.6392	1022.9659	1064.2304	1083.644	1089.2944	1120.2261	1140.6429	1189.0303	1224.5964	1269.6341	1289.9273	1310.656	1325.4031	1356.1229	1371.3303	1406.416	1412.5462	1418.1365	1442.1074	1478.1121	1490.9506	1492.0484	1494.5544	1709.3095	3013.2347	3021.5608	3031.3515	3033.4098	3063.6321	3070.8378	3095.1382	3112.0391	3125.9581	3165.7412	3712.0211	3794.7838
CC1C=C(C)C(O)C1O	C[C@H]1C=C(C)[C@@H](O)[C@H]1O	
InChI=1S/C7H12O2/c1-4-3-5(2)7(9)6(4)8/h3-4,6-9H,1-2H3	InChI=1S/C7H12O2/c1-4-3-5(2)7(9)6(4)8/h3-4,6-9H,1-2H3/t4-,6-,7+/m0/s1
