19
gdb 69087	2.44286	1.61493	1.19932	4.4532	80.08	-0.2301	0.0247	0.2548	1088.6974	0.160987	-382.079449	-382.071122	-382.070178	-382.111968	32.412	
C	-0.1866393198	 1.535867801	 0.0677352322	-0.47886
C	 0.0970987275	 0.0563461652	-0.0133135187	 0.277296
C	-0.6703163121	-0.91338757	 0.8539249669	-0.360013
C	 0.815302296	-0.7287195945	 1.0981108481	 0.191315
N	 1.6958544004	-1.7469928639	 0.5377697949	-0.347567
C	 1.3134601363	-1.862631914	-0.8864875757	-0.196362
C	 0.6656855462	-0.5185689708	-1.3054460327	-0.274788
C	 1.2636451188	-0.0997261409	 2.3064139641	 0.211154
N	 1.6318389116	 0.4310036896	 3.2666418703	-0.352104
H	 0.6796865247	 2.1208780519	-0.2600422633	 0.124594
H	-1.034518495	 1.8069875302	-0.5714561707	 0.124024
H	-0.4282938708	 1.8411432587	 1.0899567978	 0.136024
H	-1.3369778835	-0.4866886151	 1.5947972168	 0.134912
H	-0.9941787297	-1.8712042179	 0.4614294949	 0.128578
H	 2.6490507668	-1.4015238388	 0.6034740166	 0.231602
H	 2.1879252474	-2.1230761823	-1.4863675099	 0.114894
H	 0.5965716673	-2.6824484477	-0.998002526	 0.120037
H	-0.0937972196	-0.656628331	-2.0817992267	 0.110162
H	 1.4176036875	 0.1758315404	-1.699585009	 0.105103
128.876	139.7691	196.838	216.8844	267.5644	326.4025	376.1465	422.8577	502.1499	561.5709	582.4138	613.9011	683.6021	721.8982	799.8251	858.2921	897.7735	931.4686	943.7752	944.2427	984.189	1028.5004	1060.6517	1076.0488	1114.7708	1129.5915	1218.2456	1240.5208	1261.0764	1276.856	1328.934	1366.1374	1374.3347	1422.8461	1461.3282	1484.4958	1486.8595	1490.8055	1503.3733	1519.152	2349.2439	3028.0453	3033.096	3049.453	3081.4361	3089.9372	3108.6668	3109.8527	3138.2076	3226.0087	3506.124
CC12CC1(NCC2)C#N	C[C@]12C[C@]1(NCC2)C#N	
InChI=1S/C7H10N2/c1-6-2-3-9-7(6,4-6)5-8/h9H,2-4H2,1H3	InChI=1S/C7H10N2/c1-6-2-3-9-7(6,4-6)5-8/h9H,2-4H2,1H3/t6-,7-/m0/s1
