18
gdb 97078	2.96026	1.15397	0.97088	2.4021	80.91	-0.244	0.0249	0.2689	1272.9425	0.146673	-401.932275	-401.923181	-401.922237	-401.966923	32.951	
C	-0.0638619543	 1.4456448471	 0.0181545844	-0.332823
N	-0.0217755625	-0.004927305	 0.1128989606	-0.326325
C	-1.0875371451	-0.6692416228	 0.0696822746	 0.444858
C	-1.1956127302	-2.1781555361	 0.1269724763	-0.318501
C	-2.6613054031	-2.405870227	 0.5129178714	-0.240253
C	-3.3450405912	-1.1666112298	-0.1114731493	-0.078978
O	-2.3525172689	-0.1249883059	-0.0288303658	-0.243018
C	-3.7609653734	-1.3777228929	-1.4978512866	 0.357454
C	-4.1059052592	-1.5677512142	-2.6329794884	-0.477797
H	 0.6752204493	 1.7727141633	-0.7211469201	 0.122958
H	-1.0431683038	 1.8538767315	-0.2546978845	 0.123299
H	 0.2385496697	 1.8786556152	 0.9793479918	 0.123274
H	-0.9819431185	-2.5909848825	-0.8650390712	 0.139484
H	-0.472422031	-2.5965000144	 0.8267320522	 0.136033
H	-3.0831801825	-3.3395790445	 0.1407787774	 0.124585
H	-2.7871075003	-2.3718697363	 1.5989041247	 0.117961
H	-4.2016827467	-0.8280383269	 0.4787840232	 0.120292
H	-4.4121959383	-1.725626729	-3.6378537807	 0.207497
55.9992	69.3825	105.6935	189.032	236.2041	249.3006	268.8083	462.7719	482.8881	520.512	580.0779	635.9656	671.7559	676.527	744.0571	798.3111	846.5069	894.193	972.5689	997.7581	1024.8277	1054.6152	1073.5268	1130.1771	1140.0226	1160.9522	1205.0364	1215.6968	1293.6739	1314.4853	1344.6664	1371.9381	1439.2465	1471.7372	1492.1647	1493.777	1499.5817	1809.7418	2237.4757	3017.4471	3056.4617	3062.2642	3072.965	3075.4654	3091.0829	3133.5908	3139.7561	3501.2857
CN=C1CCC(O1)C#C	CN=C1CC[C@@H](O1)C#C	
InChI=1S/C7H9NO/c1-3-6-4-5-7(8-2)9-6/h1,6H,4-5H2,2H3	InChI=1S/C7H9NO/c1-3-6-4-5-7(8-2)9-6/h1,6H,4-5H2,2H3/t6-/m0/s1
