25
gdb 117334	4.16305	0.6137	0.58515	2.2648	90.34	-0.2401	-0.0066	0.2334	2081.0913	0.225469	-389.532753	-389.521011	-389.520067	-389.571111	41.65	
C	 0.1116670569	 1.6173346043	 0.0586122886	-0.386345
C	-0.0785121574	 0.0991190467	 0.0259417172	-0.159241
C	 0.7912456982	-0.5836321925	-1.0294974072	-0.278449
C	 0.6656977022	-2.1020736671	-1.0547783374	 0.368638
O	 0.0602045869	-2.7073990461	-0.1979836041	-0.306478
C	 1.3308648109	-2.8090444139	-2.2318846137	-0.293408
C	 1.48998025	-4.3269990788	-2.0682097506	 0.055063
C	 1.8417750165	-4.9838617797	-3.408894352	-0.396643
C	 2.5320423717	-4.6671048375	-0.9940169304	-0.388788
H	 1.1501586965	 1.8847893389	 0.2849572272	 0.112338
H	-0.1426488119	 2.0742005476	-0.9046358986	 0.111661
H	-0.5229922844	 2.078389713	 0.8215770995	 0.115298
H	 0.1493864677	-0.3340841473	 1.0050529313	 0.115728
H	-1.1297181082	-0.1439400621	-0.1659206573	 0.107283
H	 0.5749432281	-0.197684043	-2.035788703	 0.112049
H	 1.8545503399	-0.3516091084	-0.8639257512	 0.120304
H	 0.7080536698	-2.5848561096	-3.1115161187	 0.117982
H	 2.2979848985	-2.3298576366	-2.4392081934	 0.106164
H	 0.5221464835	-4.7149955301	-1.7299571957	 0.094762
H	 2.7985187814	-4.6106575632	-3.794542739	 0.108859
H	 1.9316037513	-6.0697961852	-3.3015201328	 0.112332
H	 1.0776159556	-4.7846266543	-4.1682112537	 0.107538
H	 2.2574293629	-4.2357469119	-0.0282391475	 0.130063
H	 2.6197991228	-5.7507424383	-0.8646919375	 0.110605
H	 3.5225288606	-4.2867283351	-1.2740000702	 0.102685
33.0504	46.1179	84.2824	95.0615	124.4339	211.7373	230.8799	244.5236	254.9185	282.2294	348.2151	355.8794	412.3911	434.0523	477.4358	688.5334	716.2988	801.3581	834.2232	868.4228	895.5867	915.0345	931.8154	968.0059	972.2563	1039.1813	1052.7112	1054.4539	1138.5214	1147.0674	1164.9238	1196.1611	1236.9164	1267.4206	1299.0034	1321.1953	1329.9007	1363.1239	1386.7227	1395.6475	1400.8949	1415.0465	1420.9009	1444.7655	1454.1244	1487.2458	1489.1267	1494.6555	1500.5142	1506.229	1508.0033	1513.2222	1800.6548	2998.2481	3005.2675	3021.2108	3025.787	3027.6456	3029.3905	3035.2656	3047.2765	3048.9122	3075.5373	3085.118	3092.5649	3097.9939	3100.0109	3103.0158	3121.3218
CCCC(=O)CC(C)C	CCCC(=O)CC(C)C	
InChI=1S/C8H16O/c1-4-5-8(9)6-7(2)3/h7H,4-6H2,1-3H3	InChI=1S/C8H16O/c1-4-5-8(9)6-7(2)3/h7H,4-6H2,1-3H3
