17
gdb 112397	3.43633	1.15178	0.8959	1.5225	71.46	-0.2563	-0.0182	0.2382	1239.11	0.137981	-455.205621	-455.197533	-455.196589	-455.238818	30.558	
O	-0.0182441512	 1.4880947396	-0.1641692752	-0.424306
C	 0.0505335941	 0.088881252	-0.0818886082	-0.059098
C	-1.3401602068	-0.55787928	 0.0476156272	-0.092077
C	-1.3501983517	-2.0979016344	 0.0598602122	-0.37397
C	-2.2547850853	-2.4946599946	 1.2231795555	 0.409443
O	-2.6419897087	-3.5892890532	 1.5389154923	-0.342255
N	-2.5532106912	-1.3174419586	 1.9089705355	-0.363152
C	-2.0136352069	-0.1658052744	 1.3575208289	 0.409988
N	-2.0274993126	 1.0245538095	 1.8082929961	-0.552977
H	-0.575683237	 1.7757752289	 0.5783708123	 0.298869
H	 0.52809853	-0.2702414229	-1.0007517638	 0.108217
H	 0.6765294371	-0.2498607182	 0.7632946625	 0.082161
H	-1.9602789323	-0.1701833939	-0.768007852	 0.123375
H	-1.7115395605	-2.5515447405	-0.8645964969	 0.147675
H	-0.3542814456	-2.513551428	 0.2542574589	 0.146223
H	-3.0945127528	-1.3374746237	 2.761578534	 0.263312
H	-2.5042309687	 1.1098200125	 2.7059022508	 0.218571
53.9624	136.9796	174.9064	220.7265	318.026	369.3148	402.1838	538.3005	542.2009	611.771	626.8876	640.2039	659.6577	697.5111	790.7092	859.7931	880.0148	918.4101	1016.4345	1057.4899	1095.4926	1102.5868	1126.2586	1183.9715	1220.986	1230.4172	1271.9239	1296.1153	1334.4621	1364.993	1387.6413	1399.9003	1462.8564	1480.5482	1511.4095	1747.0499	1862.051	2942.983	3050.4256	3054.6641	3062.0955	3121.8909	3475.1222	3616.0557	3649.4434
OCC1CC(=O)NC1=N	OC[C@H]1CC(=O)N[C]1[NH]	
InChI=1S/C5H8N2O2/c6-5-3(2-8)1-4(9)7-5/h3,8H,1-2H2,(H2,6,7,9)	InChI=1S/C5H8N2O2/c6-5-3(2-8)1-4(9)7-5/h3,8H,1-2H2,(H2,6,7,9)/t3-/m1/s1
