18
gdb 7744	3.28193	1.74116	1.21441	2.8165	74.48	-0.2338	-0.0101	0.2236	1009.3502	0.154107	-347.850844	-347.843041	-347.842096	-347.883068	29.385	
C	 0.0499535905	 1.5343546979	 0.0606844345	-0.470525
C	-0.0136727395	 0.0360671539	-0.0569902045	 0.311075
C	 0.0082526833	-0.5958989375	-1.2330614743	-0.147139
C	-0.0467783542	-2.0916104747	-1.3977483062	-0.260524
C	 0.3723329915	-2.82960338	-0.1118630863	-0.301036
C	-0.3020809132	-2.2250842718	 1.1044809457	 0.385998
O	-0.9242299394	-2.8778705984	 1.9091727453	-0.310339
C	-0.1287981651	-0.7173558573	 1.2511319124	-0.390502
H	 0.9095196593	 1.8472437414	 0.6679040768	 0.122899
H	 0.1322747945	 2.0132191304	-0.9184464605	 0.122333
H	-0.8426714306	 1.9306973483	 0.5615606111	 0.126396
H	 0.062833943	-0.0069177273	-2.1460924741	 0.081493
H	-1.0619600001	-2.3998530823	-1.6872063547	 0.121839
H	 0.6006228981	-2.4022496531	-2.2260300564	 0.110274
H	 0.1458233302	-3.8971250234	-0.1522515452	 0.117892
H	 1.4567171061	-2.7112637137	 0.0199925772	 0.119445
H	 0.7731690552	-0.5444413243	 1.8606335677	 0.130154
H	-0.9620337796	-0.3397744181	 1.8557343015	 0.130266
77.268	131.9613	187.768	264.7468	307.4448	397.2192	423.9167	455.6422	499.6934	566.4613	652.7371	762.9152	805.6195	839.9799	907.5292	915.7666	952.1789	1014.5044	1032.4806	1073.702	1085.6876	1141.3007	1161.0133	1208.0324	1221.2857	1248.0899	1310.7283	1332.7452	1370.8197	1376.3098	1414.5448	1442.9305	1466.9604	1477.987	1488.9898	1491.3999	1743.448	1820.9797	2987.1159	3004.2559	3014.8374	3022.399	3051.7659	3057.0818	3060.6984	3112.9099	3113.2158	3148.2135
CC1=CCCC(=O)C1	CC1=CCCC(=O)C1	
InChI=1S/C7H10O/c1-6-3-2-4-7(8)5-6/h3H,2,4-5H2,1H3	InChI=1S/C7H10O/c1-6-3-2-4-7(8)5-6/h3H,2,4-5H2,1H3
