17
gdb 67816	2.9743	1.87308	1.60886	0.4106	71.01	-0.2184	0.0095	0.228	881.5917	0.137966	-421.820325	-421.813771	-421.812826	-421.850654	28.157	
O	-0.0842344546	 1.3533682903	-0.0794401267	-0.480869
C	 0.0374960418	-0.0377299884	-0.0573733052	 0.316679
C	 1.1359438027	-0.6769810896	-0.8048240406	-0.128079
C	 1.2103925725	-2.0124450762	-0.7435240591	-0.08928
C	 0.126483564	-2.6531363513	 0.0800359699	 0.002032
C	-1.256732851	-2.210650769	-0.4735677511	-0.238992
C	-1.3007197141	-0.7814928393	 0.0283147034	-0.143235
C	-0.3953107279	-0.7792484566	 1.2250127072	 0.026896
O	 0.1597691393	-2.0471295809	 1.4041436389	-0.256784
H	 0.6391730858	 1.7235326605	 0.4385140047	 0.284517
H	 1.8468906282	-0.0474301964	-1.3306000483	 0.096166
H	 1.9891440521	-2.5984790744	-1.2161312578	 0.094968
H	 0.242093278	-3.7278229431	 0.2142636896	 0.082721
H	-1.3062131142	-2.3132003831	-1.5599904006	 0.111088
H	-2.0641599017	-2.791886498	-0.0178784398	 0.109198
H	-2.1992875141	-0.1809908835	-0.0207062151	 0.104723
H	-0.5579195568	-0.2310884112	 2.1440939606	 0.10825
251.3654	307.0326	354.5353	364.4367	398.5562	434.7004	504.3412	604.627	636.3357	692.793	725.7921	734.9466	829.1229	863.1831	873.3289	882.7929	919.7175	942.9159	956.6766	1004.0166	1016.7107	1018.5707	1064.7726	1106.2986	1126.8216	1168.7119	1186.4275	1227.4542	1257.6657	1271.6639	1315.5651	1324.5973	1347.0658	1397.8077	1413.9428	1481.2745	1665.7492	3058.2452	3113.4213	3127.286	3175.6062	3201.6276	3206.376	3211.3463	3794.0477
OC12C=CC3CC1C2O3	O[C@]12C=C[C@@H]3C[C@H]1[C@H]2O3	
InChI=1S/C7H8O2/c8-7-2-1-4-3-5(7)6(7)9-4/h1-2,4-6,8H,3H2	InChI=1S/C7H8O2/c8-7-2-1-4-3-5(7)6(7)9-4/h1-2,4-6,8H,3H2/t4-,5+,6-,7-/m1/s1
