18
gdb 20216	3.33048	2.89538	2.03782	0.051	72.85	-0.2019	0.087	0.289	732.0472	0.157445	-310.616514	-310.610575	-310.609631	-310.646723	24.801	
C	-0.0300722093	 1.5357259815	-0.1518896596	-0.234232
C	 1.3026925076	 2.2621039556	 0.1475074413	-0.234232
C	 2.4027882608	 1.3128083	 0.5782292916	-0.028176
C	 2.1879532041	 0.102897245	 1.4524588977	-0.086082
C	 0.8506427792	-0.6272605791	 1.1480923448	-0.086004
C	 0.063237505	 0.0360985894	 0.0463677405	-0.028176
C	 1.2723815442	-0.7943575772	-0.3038146606	-0.086082
C	 2.6099084193	-0.0646422114	 0.0006658912	-0.086004
H	-0.8271327957	 1.9257457454	 0.4912829599	 0.09753
H	-0.3474148189	 1.735139317	-1.1817262531	 0.097471
H	 1.6412005475	 2.8130522567	-0.737342991	 0.09753
H	 1.1575122489	 3.0118093609	 0.9335734797	 0.097471
H	 3.3465476086	 1.8096531974	 0.795277403	 0.079387
H	 2.7684263665	-0.0797693787	 2.3478423132	 0.080055
H	 0.417142472	-1.3638882811	 1.8125365235	 0.080052
H	-0.8664549183	-0.4896124948	-0.163265752	 0.079387
H	 1.211970105	-1.6788818845	-0.9250995093	 0.080055
H	 3.5638571634	-0.3959993921	-0.3894793009	 0.080052
57.2286	335.5156	472.7057	483.6096	556.3025	683.5067	712.1656	725.7817	742.8875	797.9395	808.9323	877.7167	880.8343	893.5725	931.5034	951.2786	998.6281	1013.7483	1027.5626	1046.0343	1059.8731	1076.9377	1077.3991	1126.1293	1135.0521	1169.6263	1246.5616	1247.5081	1294.0582	1294.5662	1306.8187	1314.245	1332.9978	1377.2562	1435.1962	1453.8148	1488.6474	1509.0642	3020.7905	3035.0795	3044.9605	3070.4039	3124.6194	3125.9136	3175.7424	3185.9365	3186.4633	3197.2955
C1CC2C3C4C1C4C23	C1C[C@H]2[C@H]3[C@H]4[C@@H]1[C@H]4[C@@H]23	
InChI=1S/C8H10/c1-2-4-7-5-3(1)6(5)8(4)7/h3-8H,1-2H2	InChI=1S/C8H10/c1-2-4-7-5-3(1)6(5)8(4)7/h3-8H,1-2H2/t3-,4+,5+,6-,7+,8-
