23
gdb 58268	2.80397	1.05701	0.81606	0.0659	82.01	-0.245	0.0609	0.3059	1468.9523	0.204069	-425.413743	-425.40332	-425.402375	-425.449232	38.821	
C	 0.0598921478	 1.5518070317	-0.0929125468	-0.406369
C	 0.0438296266	 0.0257810316	-0.0573447901	 0.116729
O	 0.8069498569	-0.4836647885	 1.03368516	-0.42387
C	-1.389731317	-0.5446333876	-0.0613898363	 0.074574
O	-2.1001990763	-0.078179147	-1.2106170999	-0.430433
C	-1.4404915773	-2.0647167145	 0.0301011035	 0.046054
C	-1.1798949646	-2.7842636494	 1.3835544759	-0.219158
C	-2.3317284001	-3.7671059112	 1.0422327844	-0.221312
C	-2.8396675876	-2.7427369697	-0.0084791861	-0.230168
H	 1.0867755827	 1.9224139092	-0.1518018352	 0.118365
H	-0.5103362819	 1.9233385033	-0.9470234708	 0.133322
H	-0.4003484862	 1.960560209	 0.816473611	 0.102801
H	 0.5542530512	-0.3614888024	-0.9511016755	 0.074966
H	 0.4753372703	-0.0720895196	 1.8393704557	 0.27844
H	-1.9390920528	-0.1183634127	 0.7916958449	 0.068351
H	-1.7450796615	-0.5407670452	-1.9781938126	 0.279126
H	-0.791271713	-2.4919623789	-0.7472327201	 0.058062
H	-0.1815314814	-3.1876296147	 1.5563752	 0.106338
H	-1.441831259	-2.1394461685	 2.2290851255	 0.086091
H	-1.9583073287	-4.6811516667	 0.5710075994	 0.099632
H	-3.0150229686	-4.0497764988	 1.8465930806	 0.093862
H	-3.6061607989	-2.0797453631	 0.404872344	 0.103221
H	-3.1986733606	-3.1240877661	-0.9672555915	 0.091378
59.1307	86.9657	126.48	151.1214	229.8022	246.5592	267.3601	281.47	302.107	333.4884	380.3783	460.0062	481.8353	528.6073	657.6225	781.1694	790.0829	868.8821	899.7641	933.1025	940.6203	957.0721	983.8568	1028.6833	1037.982	1070.6572	1096.3168	1102.9986	1151.0792	1170.6189	1203.1235	1222.7994	1234.3104	1254.8289	1258.4029	1268.3441	1286.8121	1298.8287	1316.7561	1382.8916	1392.7279	1397.4583	1410.9682	1416.8695	1477.2544	1486.7398	1489.4867	1497.1232	1509.7027	2992.2551	3002.0156	3015.0943	3026.2258	3050.0815	3053.8676	3057.2936	3097.6629	3099.8172	3111.4849	3125.0536	3136.9261	3795.3808	3801.3262
CC(O)C(O)C1CCC1	C[C@@H](O)[C@@H](O)C1CCC1	
InChI=1S/C7H14O2/c1-5(8)7(9)6-3-2-4-6/h5-9H,2-4H2,1H3	InChI=1S/C7H14O2/c1-5(8)7(9)6-3-2-4-6/h5-9H,2-4H2,1H3/t5-,7-/m1/s1
