12
gdb 130260	3.29807	1.51904	1.04091	4.5231	61.4	-0.2576	-0.0708	0.1868	1028.8389	0.077275	-505.951284	-505.943726	-505.942782	-505.983682	27.766	
N	 0.0572632915	 1.4043164333	 0.0590038476	-0.547002
C	-0.0144733292	 0.0526123839	-0.0287851787	 0.387273
N	-1.1588576983	-0.5422517149	-0.0434199389	-0.194204
O	-1.125696179	-1.9546632666	-0.2114257895	-0.256842
C	-0.003261789	-2.6779566625	-0.3576172153	 0.507067
O	-0.0227054814	-3.853521717	-0.520858284	-0.329918
O	 1.1956620789	-2.0037550279	-0.3040358081	-0.252231
C	 1.2792047492	-0.654249265	-0.1200430378	 0.383079
N	 2.3734850451	-0.0366930733	-0.0206866935	-0.516447
H	 0.9573408212	 1.7861497138	 0.3037336416	 0.288614
H	-0.7750130624	 1.9066660507	 0.3209132986	 0.277198
H	 3.1740975435	-0.6655479745	-0.0916826221	 0.253413
76.1669	114.8588	254.5995	318.8379	363.7892	390.2187	425.4777	483.8247	505.1645	529.5	613.1188	700.1388	743.454	778.8382	817.8359	907.0564	925.2739	970.5688	1114.8028	1138.4572	1181.7696	1314.842	1482.6526	1609.4509	1681.7917	1755.8978	1910.9115	3497.8918	3591.2965	3721.3187
NC1=NOC(=O)OC1=N	NC1=NOC(=O)O[C]1[NH]	
InChI=1S/C3H3N3O3/c4-1-2(5)8-3(7)9-6-1/h5H,(H2,4,6)	InChI=1S/C3H3N3O3/c4-1-2(5)8-3(7)9-6-1/h5H,(H2,4,6)
