15
gdb 56074	6.62012	0.54016	0.50254	2.8018	82.75	-0.285	-0.0613	0.2237	2041.1332	0.110778	-416.794605	-416.785098	-416.784154	-416.83033	32.284	
C	-0.0036600103	 1.4345602291	-0.1762976482	-0.447464
C	-0.0209379066	-0.0445382939	 0.075290467	 0.433987
N	-0.0562745949	-0.5359132386	 1.2410084373	-0.510373
O	 0.0071453237	-0.7104470559	-1.1248833092	-0.239499
C	-0.0037365964	-2.1304155439	-1.0774914691	-0.284797
C	 0.0307725208	-2.6451378405	-2.4364808838	-0.01304
C	 0.0587994287	-3.1069469315	-3.5505261455	 0.19034
C	 0.0906251674	-3.6256278924	-4.8135904823	 0.209201
N	 0.1174948715	-4.0682267159	-5.8868560186	-0.326514
H	 0.8951685814	 1.7117657582	-0.7352847732	 0.146865
H	-0.8662685117	 1.7239719938	-0.7840676358	 0.14686
H	-0.026371928	 1.9645250517	 0.774474679	 0.154077
H	-0.0642530647	-1.5538044551	 1.2662265314	 0.226238
H	 0.865451455	-2.5069271207	-0.5183682912	 0.157056
H	-0.9077638661	-2.4949934143	-0.5678979677	 0.157064
46.2535	62.8395	127.3949	135.9325	171.4331	193.9565	269.8619	364.082	370.8354	498.0319	557.0053	578.9028	587.3057	593.3438	750.215	855.3993	901.992	985.406	1027.7853	1076.4909	1078.1463	1112.1016	1181.2525	1248.8053	1300.4082	1395.0679	1418.1011	1473.3391	1476.5115	1491.6675	1742.3492	2274.6918	2410.7189	2993.1542	3025.7283	3054.3747	3113.7695	3173.6379	3507.7891
CC(=N)OCC#CC#N	C[C]([NH])OCC#CC#N	
InChI=1S/C6H6N2O/c1-6(8)9-5-3-2-4-7/h8H,5H2,1H3	InChI=1S/C6H6N2O/c1-6(8)9-5-3-2-4-7/h8H,5H2,1H3
