18
gdb 88493	2.33702	1.42247	1.12512	4.5959	76.89	-0.2701	0.0282	0.2984	1158.916	0.146355	-401.930155	-401.92117	-401.920226	-401.964326	32.969	
C	-0.4617751747	 1.3916244685	-0.1700577654	-0.446642
C	-0.1214599726	-0.0508585406	 0.0973363541	 0.064059
O	 1.2368924911	-0.4859831575	-0.0979047734	-0.251497
C	 0.6926001645	-0.5695102588	 1.2112839635	-0.003873
C	 1.3423655881	 0.2226391696	 2.3168746185	 0.16786
C	 0.7322399806	 0.0911051314	 3.7102525868	-0.291239
C	 2.0393176619	-0.5726778832	 3.4214863564	-0.290228
C	 1.9537603056	 1.4848113997	 1.9877311255	 0.23996
N	 2.4619339796	 2.5003626606	 1.7670658612	-0.35843
H	 0.2799123038	 2.0791136896	 0.2351784685	 0.165642
H	-0.5296011547	 1.559361211	-1.2499402738	 0.13412
H	-1.4393404079	 1.6283778381	 0.2642363075	 0.122709
H	-0.8482383532	-0.7590543149	-0.3085796308	 0.093397
H	 0.4705140314	-1.5881254152	 1.5424766105	 0.087987
H	 0.7250299143	 0.9763125895	 4.3339958094	 0.147764
H	-0.1582745124	-0.5236762107	 3.7831473126	 0.133509
H	 2.0621322443	-1.6491083219	 3.2928174159	 0.136272
H	 2.9399222403	-0.1444123952	 3.8437486231	 0.148628
40.3146	142.8392	150.9287	194.2859	227.5857	237.8775	281.9438	391.8193	415.4087	509.4689	579.4038	607.0058	705.5914	777.3609	787.1736	840.7376	876.598	940.1464	968.0324	974.9635	1008.2943	1042.331	1071.8186	1091.4913	1103.2878	1168.3027	1177.9356	1196.0274	1262.3207	1290.5116	1354.8856	1401.4246	1426.7973	1465.5965	1469.1737	1493.245	1495.1268	1511.7763	2352.2751	3042.5406	3059.9763	3079.0059	3099.9776	3143.4347	3146.5567	3163.9761	3230.5656	3244.3302
CC1OC1C1(CC1)C#N	C[C@H]1O[C@H]1C1(CC1)C#N	
InChI=1S/C7H9NO/c1-5-6(9-5)7(4-8)2-3-7/h5-6H,2-3H2,1H3	InChI=1S/C7H9NO/c1-5-6(9-5)7(4-8)2-3-7/h5-6H,2-3H2,1H3/t5-,6-/m1/s1
