21
gdb 40656	3.66679	1.17851	0.99415	0.2028	87.59	-0.2243	0.0221	0.2465	1252.6768	0.18449	-349.935962	-349.928133	-349.927189	-349.968496	31.598	
C	-0.2008892427	 1.4748256856	-0.1500179366	-0.27489
C	 1.2461208405	 1.1767456661	 0.1603127255	-0.272489
C	 0.2578828879	 0.0475012096	 0.0160092542	 0.040905
C	-0.1694611297	-0.7586284053	 1.2299481465	-0.054052
C	-1.5355103393	-1.415188666	 1.0974966962	-0.095033
C	-1.5128750753	-2.7105492279	 1.418153224	-0.083768
C	-0.1331156755	-3.173566435	 1.7503742817	-0.080393
C	 0.8515333151	-3.0915605778	 0.5990968438	-0.279917
C	 0.7425744049	-1.9451788165	 1.5732508531	-0.049136
H	-0.806906045	 1.9074892807	 0.6399412485	 0.108218
H	-0.4544869297	 1.8264210331	-1.1440164691	 0.10867
H	 1.9826191232	 1.3228966265	-0.6219960889	 0.109019
H	 1.6074812214	 1.4096583233	 1.1569886644	 0.107115
H	 0.3337163879	-0.5342336007	-0.8985355489	 0.079623
H	-0.1868431633	-0.0645948173	 2.0854775782	 0.070727
H	-2.4039738557	-0.8635378973	 0.754916509	 0.091619
H	-2.369113222	-3.3761221672	 1.4072267543	 0.09219
H	 0.0306302347	-3.902320114	 2.5365693157	 0.082883
H	 1.750945825	-3.6958284991	 0.6614853455	 0.106294
H	 0.445253603	-2.9879038786	-0.4016059382	 0.110462
H	 1.5880213845	-1.768418662	 2.227363961	 0.081954
76.3412	131.7411	157.2697	295.7285	325.6459	392.4753	470.5311	516.2857	686.2422	745.2078	765.2698	783.3363	795.6494	827.0625	828.5839	869.0453	906.1279	921.0264	943.6718	958.2842	983.5284	1015.2499	1021.6921	1056.4832	1059.5145	1071.3785	1077.478	1087.1741	1103.5256	1136.4254	1137.8171	1177.5304	1196.7324	1200.8077	1227.6252	1285.7045	1296.9449	1305.595	1368.4086	1383.8702	1413.0681	1469.2481	1478.5374	1505.3321	1667.3489	2969.9808	3123.4461	3126.1115	3130.8337	3143.0196	3165.0009	3176.991	3181.928	3203.9249	3206.6885	3212.0668	3219.3304
C1CC1C1C=CC2CC12	C1CC1[C@H]1C=C[C@H]2C[C@@H]12	
InChI=1S/C9H12/c1-2-6(1)8-4-3-7-5-9(7)8/h3-4,6-9H,1-2,5H2	InChI=1S/C9H12/c1-2-6(1)8-4-3-7-5-9(7)8/h3-4,6-9H,1-2,5H2/t7-,8+,9+/m0/s1
