19
gdb 117261	4.61679	0.86183	0.81341	1.3881	72.87	-0.2467	-0.0031	0.2436	1483.7317	0.158147	-460.174694	-460.165148	-460.164204	-460.211581	32.81	
C	 0.0016426602	 1.0882704817	 0.1986943967	-0.38663
C	-0.5618543878	-0.2345522369	-0.2974898035	-0.056552
O	 0.1210689334	-0.6849287056	-1.4897322794	-0.243441
C	 1.2516429703	-1.3845466544	-1.3070017847	 0.449176
O	 1.7488524735	-1.6232041191	-0.2337588939	-0.368412
C	 1.7883921032	-1.8876523125	-2.6435491793	 0.040567
C	 3.2224651687	-2.4452864556	-2.6100228554	-0.291616
C	 2.5506710749	-3.8062867267	-2.878934123	-0.059527
O	 1.2359179565	-3.1984992944	-2.9189580629	-0.292537
H	 1.0382415234	 0.9671890336	 0.5212092148	 0.144999
H	-0.040788587	 1.8486394571	-0.5864773455	 0.126284
H	-0.5851549809	 1.4425969885	 1.0521578774	 0.122369
H	-0.4779807975	-1.0100387722	 0.4672973483	 0.134051
H	-1.6059107312	-0.1360026114	-0.6028574615	 0.117466
H	 1.543490839	-1.174565253	-3.4376610676	 0.092496
H	 3.87677787	-2.0782519434	-3.4009395584	 0.112486
H	 3.7072726636	-2.3476362893	-1.6395041635	 0.137305
H	 2.7972751792	-4.285819437	-3.8330150029	 0.106158
H	 2.6318014883	-4.5435241791	-2.0727395457	 0.115356
16.2186	56.3993	77.0133	105.4083	187.2149	227.3731	267.2674	340.1004	377.5743	466.0609	640.364	769.5176	781.1978	806.8141	825.9623	868.5387	890.4751	944.6686	976.5831	1028.2874	1031.8225	1061.4516	1105.9805	1118.2001	1163.9217	1193.6893	1215.6279	1227.8515	1267.4432	1278.0522	1329.275	1355.2297	1382.342	1402.6755	1424.3215	1480.1266	1484.9389	1488.3031	1507.74	1526.8436	1813.3262	3028.5906	3046.0576	3052.7838	3072.2392	3073.3308	3096.1676	3113.3973	3121.8914	3142.0596	3159.7127
CCOC(=O)C1CCO1	CCOC(=O)[C@H]1CCO1	
InChI=1S/C6H10O3/c1-2-8-6(7)5-3-4-9-5/h5H,2-4H2,1H3	InChI=1S/C6H10O3/c1-2-8-6(7)5-3-4-9-5/h5H,2-4H2,1H3/t5-/m1/s1
