21
gdb 119245	3.08751	0.82351	0.71391	2.723	79.76	-0.2477	-0.0248	0.2229	1641.128	0.179189	-424.22072	-424.21037	-424.209426	-424.257416	36.448	
C	-0.1671435029	 1.6417524453	-0.1123424691	-0.383237
C	-0.1243086417	 0.1204573651	-0.2790937934	-0.169045
C	-1.3299534163	-0.5757658539	 0.3690662498	-0.249712
C	-1.3768292813	-2.0753606234	 0.1330507421	 0.390601
C	-0.2690127027	-2.8939246094	 0.7867653551	-0.357379
C	-0.3009983126	-4.3744019013	 0.4642623009	 0.144668
O	-0.1588262645	-5.2461454689	 1.2837974978	-0.246542
C	-2.6617866746	-2.7141943983	-0.1915056354	-0.234579
O	-1.6950717243	-2.4551571107	-1.2164200566	-0.270824
H	 0.6973687634	 2.1167603418	-0.5857696303	 0.116066
H	-1.0700865524	 2.0641214585	-0.5667805591	 0.117913
H	-0.1656776221	 1.9263029154	 0.9458430204	 0.115137
H	-0.1036899813	-0.1377451944	-1.3443398917	 0.116957
H	 0.8088116565	-0.2619061199	 0.1525761473	 0.098662
H	-1.3371111431	-0.3842196748	 1.4505874363	 0.10091
H	-2.2510210653	-0.1390741097	-0.0340101119	 0.103526
H	 0.7004357782	-2.5187257833	 0.4276565197	 0.133769
H	-0.2848322311	-2.7703179934	 1.8740178766	 0.128643
H	-0.4447197468	-4.6069158388	-0.6118643407	 0.103383
H	-2.8254350494	-3.7664249672	 0.0414011815	 0.123338
H	-3.5667767359	-2.1107887085	-0.2417779893	 0.117745
56.1808	61.3869	69.1942	95.3556	163.955	221.1872	244.8233	301.1924	346.4737	353.1796	446.8549	467.3021	558.5604	713.5541	741.6953	793.9455	866.7507	880.0861	894.7262	926.8969	959.693	1043.5086	1049.1219	1074.5816	1098.3144	1125.8132	1137.2773	1170.0061	1207.7392	1231.7934	1267.7392	1306.5815	1326.1178	1343.136	1382.4708	1411.9898	1417.309	1426.9976	1452.8594	1472.9429	1492.531	1499.9375	1508.6564	1533.2	1829.368	2917.6617	3014.3115	3019.1483	3028.4446	3031.5502	3054.9326	3073.5565	3079.4015	3092.4118	3099.4117	3105.621	3165.5954
CCCC1(CC=O)CO1	CCC[C@@]1(CC=O)CO1	
InChI=1S/C7H12O2/c1-2-3-7(4-5-8)6-9-7/h5H,2-4,6H2,1H3	InChI=1S/C7H12O2/c1-2-3-7(4-5-8)6-9-7/h5H,2-4,6H2,1H3/t7-/m1/s1
