20
gdb 110389	4.25715	1.04221	0.96592	2.1348	79.4	-0.237	0.0754	0.3124	1293.6131	0.171064	-403.050241	-403.042075	-403.04113	-403.083063	31.955	
C	-0.0618034801	 1.5981536766	 0.080956695	-0.375795
C	 0.0275843054	 0.0822332867	-0.1308287725	-0.214901
C	-1.3332670426	-0.5871280936	-0.0722405503	 0.072423
C	-1.4878908111	-2.0976880176	 0.1308422216	-0.103558
C	-1.2187656351	-1.9234498714	 1.6547993085	-0.067462
C	-2.5174764799	-2.6299143371	 2.0686607057	 0.158671
O	-3.1217248017	-2.2723777752	 3.2761710769	-0.449527
C	-2.866050668	-1.8357417637	 0.8034274689	-0.059172
N	-2.0173213526	-0.6257543095	 1.3008380346	-0.206051
H	 0.9287817611	 2.0616432354	 0.0547655768	 0.111378
H	-0.672081394	 2.0699693287	-0.6970383942	 0.11395
H	-0.5214402903	 1.8262345462	 1.0470547592	 0.135826
H	 0.4771146044	-0.1344088223	-1.1090034899	 0.098736
H	 0.6958258225	-0.3595043895	 0.6178171545	 0.097158
H	-2.0039341049	-0.1480707204	-0.8241561367	 0.068138
H	-1.2023534475	-2.9384033651	-0.5102514657	 0.066315
H	-0.2631108969	-1.8665165977	 2.1766958934	 0.087412
H	-2.5349221933	-3.7198952585	 1.9895944653	 0.087878
H	-3.0970112754	-1.3071133298	 3.3175434158	 0.294285
H	-3.8253421999	-1.6623229323	 0.311643553	 0.084295
78.4304	148.5812	177.8442	212.6645	258.0139	360.4418	412.0167	483.8752	521.1444	590.8065	704.2278	735.4275	813.9998	834.2718	842.7799	871.5282	881.4492	921.5325	927.9171	970.7073	1027.3296	1058.4692	1083.8028	1084.523	1100.711	1126.4781	1137.4864	1141.8705	1174.8825	1194.4675	1211.7831	1237.6795	1265.9784	1292.3218	1296.2921	1322.1399	1344.5211	1407.5785	1427.7038	1451.692	1483.6948	1497.7908	1508.9152	3008.6893	3022.6331	3036.3463	3047.2955	3060.3804	3086.4688	3100.0354	3102.9866	3114.7461	3116.3578	3766.721
CCC1C2C3C(O)C2N13	CC[C@H]1[C@H]2[C@@H]3[C@@H](O)[C@H]2N13	
InChI=1S/C7H11NO/c1-2-3-4-5-7(9)6(4)8(3)5/h3-7,9H,2H2,1H3	InChI=1S/C7H11NO/c1-2-3-4-5-7(9)6(4)8(3)5/h3-7,9H,2H2,1H3/t3-,4-,5+,6-,7+/m0/s1
