14
gdb 6249	3.75861	1.40793	1.03068	1.5064	63.32	-0.2648	-0.0922	0.1726	1067.3637	0.106077	-415.906034	-415.897786	-415.896842	-415.939388	28.403	
C	-0.8124466122	 0.6047444424	 0.3566686702	-0.450316
C	 0.4522081599	-0.2037238679	 0.2388019869	 0.362422
N	 1.5394878942	-0.0406224829	 0.8808451121	-0.49064
N	 0.457361221	-1.2669603146	-0.6795928397	-0.327306
C	-0.5206865645	-1.7117534906	-1.5158698964	 0.307103
O	-1.646757911	-1.2768189781	-1.6582857657	-0.347019
C	-0.0607558987	-2.9171272935	-2.3481442738	 0.112026
O	 1.035384304	-3.4051892202	-2.2661244993	-0.238698
H	-1.0822521301	 1.0542201705	-0.602127522	 0.160541
H	-1.6568564982	-0.0262999902	 0.644525578	 0.160533
H	-0.6710243602	 1.3895903753	 1.1020944435	 0.120816
H	 1.4599647518	 0.7447059119	 1.5245096635	 0.226864
H	 1.3317029074	-1.7807793346	-0.7217802576	 0.278995
H	-0.8518490734	-3.2841020777	-3.0302757197	 0.124677
62.3142	122.4778	162.8698	168.547	178.1731	268.6976	392.7732	488.596	547.8697	547.9466	610.0646	686.4233	776.9218	845.4921	872.2744	1005.9048	1027.0875	1042.8069	1073.2659	1130.1443	1228.9963	1360.4565	1384.2517	1425.9079	1464.998	1467.8566	1528.1601	1720.1132	1792.4585	1827.7074	2964.7743	3057.9453	3128.3421	3144.4169	3503.2695	3551.948
CC(=N)NC(=O)C=O	CC(=N)NC(=O)C=O	
InChI=1S/C4H6N2O2/c1-3(5)6-4(8)2-7/h2H,1H3,(H2,5,6,8)	InChI=1S/C4H6N2O2/c1-3(5)6-4(8)2-7/h2H,1H3,(H2,5,6,8)
