22
gdb 97197	3.23107	1.07874	0.85207	2.6563	86.53	-0.2385	0.0271	0.2656	1426.3266	0.194692	-404.375831	-404.366368	-404.365423	-404.410233	35.266	
C	 0.0357352689	 1.4589113087	 0.1529165072	-0.325382
N	 0.0127099199	 0.0066019516	 0.1137025772	-0.285496
C	-1.0797615725	-0.6042731101	-0.0613244917	 0.377999
C	-1.1346550386	-2.1150249694	-0.0508801872	-0.271233
C	-2.124337076	-2.7042674317	-1.0692000683	 0.020592
C	-2.2434113476	-4.222773187	-0.9294358711	-0.40464
C	-3.4678798963	-1.9871965595	-0.8915238686	-0.205523
C	-3.2798538835	-0.4831483267	-1.0370538736	-0.082474
O	-2.2831320887	 0.0504428469	-0.1545651171	-0.261209
H	 0.9291155481	 1.8109479522	-0.3732336426	 0.117138
H	-0.8514017581	 1.9348852024	-0.2791863937	 0.11505
H	 0.1281877281	 1.7945224806	 1.1936743373	 0.123198
H	-0.1195393005	-2.4880401098	-0.198880235	 0.123097
H	-1.4511705465	-2.4270017679	 0.9557581007	 0.114093
H	-1.7526722958	-2.4773630939	-2.0794381496	 0.077618
H	-2.6205104232	-4.4963278068	 0.063040849	 0.115416
H	-2.9315100831	-4.6363909368	-1.6741497755	 0.112119
H	-1.2716600158	-4.709658585	-1.0616674224	 0.117692
H	-4.2003392525	-2.3267363847	-1.6333462383	 0.099313
H	-3.8799300419	-2.2147737886	 0.1005074445	 0.103903
H	-2.9998875276	-0.2387467547	-2.0722609459	 0.103805
H	-4.1953927367	 0.0646355602	-0.7993781755	 0.114922
71.0932	96.0803	130.6475	214.1093	235.8669	265.3061	273.0759	304.8897	389.0179	417.5859	452.8301	541.7256	611.0949	682.4631	798.2631	820.3752	883.1489	915.9627	946.9794	982.0748	1005.6428	1031.8463	1074.1279	1113.0085	1120.6919	1135.7676	1149.378	1181.7924	1200.5421	1236.661	1281.7305	1285.7974	1311.6558	1341.0875	1371.2312	1399.1127	1413.1157	1422.0804	1435.3926	1467.3931	1483.5626	1491.9662	1496.3134	1497.7569	1499.8719	1511.0579	1767.0022	2991.9262	2999.9971	3007.3	3015.309	3022.9902	3028.0495	3070.0496	3071.2038	3091.6633	3093.3174	3094.2575	3100.9039	3114.7374
CN=C1CC(C)CCO1	CN=C1C[C@@H](C)CCO1	
InChI=1S/C7H13NO/c1-6-3-4-9-7(5-6)8-2/h6H,3-5H2,1-2H3	InChI=1S/C7H13NO/c1-6-3-4-9-7(5-6)8-2/h6H,3-5H2,1-2H3/t6-/m0/s1
