17
gdb 84576	2.6493	2.03595	1.52644	2.7198	71.07	-0.2457	0.0099	0.2556	894.1852	0.137714	-421.785903	-421.779148	-421.778204	-421.816825	27.803	
O	 0.1030295836	 1.448429394	-0.0674594111	-0.439396
C	 0.0408006514	 0.0299967743	-0.0377678746	 0.08563
C	 0.6888112663	-0.5497656615	 1.2093567334	-0.105283
C	-0.1414495559	-1.2648703008	 1.9697992729	-0.074508
C	-1.5112860237	-1.351085026	 1.3647022813	-0.104922
C	-2.6048775505	-0.3422673357	 1.8215847681	 0.010599
O	-2.0514963405	 0.9776114583	 1.7616989332	-0.250733
C	-2.5183754546	 0.3816356209	 0.5414428912	 0.021259
C	-1.4026506217	-0.5493410591	 0.0226288281	-0.103511
H	-0.3145145822	 1.7451614022	 0.752028827	 0.292778
H	 0.5602692369	-0.2890687039	-0.9481470796	 0.08642
H	 1.7247415928	-0.3284779863	 1.4448245692	 0.100319
H	 0.1180596878	-1.7183465052	 2.9204768128	 0.099536
H	-1.9136967703	-2.3628155568	 1.2659210408	 0.08436
H	-3.4347847456	-0.4895400305	 2.5027773163	 0.107695
H	-3.2664083914	 0.9319474063	-0.0163555487	 0.109461
H	-1.6923148126	-1.1102539702	-0.8665887703	 0.080296
134.4757	201.9528	276.2601	339.4728	468.0574	516.9601	554.5602	612.5086	686.8397	751.4548	781.9489	792.2689	817.607	849.8968	875.1078	909.6339	927.6771	951.447	981.0741	1007.4784	1030.0096	1046.9155	1064.4396	1085.5903	1132.0489	1155.963	1228.7251	1230.8879	1250.1694	1254.8269	1278.8318	1294.1014	1335.6723	1365.8038	1385.661	1445.2134	1672.9367	3044.212	3076.1102	3108.733	3177.838	3182.6816	3198.7981	3202.7337	3764.0007
OC1C=CC2C3OC3C12	O[C@H]1C=C[C@H]2[C@H]3O[C@H]3[C@@H]12	
InChI=1S/C7H8O2/c8-4-2-1-3-5(4)7-6(3)9-7/h1-8H	InChI=1S/C7H8O2/c8-4-2-1-3-5(4)7-6(3)9-7/h1-8H/t3-,4+,5-,6-,7+/m1/s1
