18
gdb 99477	2.30553	1.06773	0.90917	3.5667	73.75	-0.2675	-0.0434	0.2241	1390.7865	0.143888	-439.101044	-439.090465	-439.089521	-439.138151	35.559	
C	-0.0324144798	 1.7206514019	 1.0677388256	-0.386929
C	 0.040382995	 0.2638069846	 1.5167023915	-0.281239
C	 1.2786011436	-0.4474149536	 1.0231031843	 0.362446
O	 2.1530834777	 0.0656845222	 0.3748603098	-0.288449
C	 1.3990765605	-1.9608503733	 1.3803157428	-0.093155
O	 0.8351455898	-2.1832789909	 2.6459124406	-0.233866
C	 1.0372427426	-3.4962351243	 3.1504360441	-0.24887
C	 0.7243745803	-2.7513156142	 0.3274274336	 0.266571
N	 0.1713515069	-3.364154949	-0.4817512565	-0.318955
H	-0.0394793937	 1.7958251446	-0.022614398	 0.136358
H	-0.9395300572	 2.1931846981	 1.453261728	 0.117377
H	 0.8314276073	 2.2846397143	 1.4285147822	 0.134482
H	 0.0230574681	 0.1677059169	 2.6090095842	 0.149184
H	-0.8297850532	-0.3140260334	 1.1756729424	 0.141906
H	 2.4709655638	-2.205400356	 1.3565568184	 0.13641
H	 0.5536802802	-4.2491657421	 2.5150767314	 0.141006
H	 2.1083627771	-3.728962321	 3.2299868108	 0.121666
H	 0.5882486009	-3.5192707346	 4.1445509848	 0.144057
29.764	63.8154	97.5508	133.0344	152.7159	179.3145	202.8018	245.6819	271.4202	338.9285	404.4206	448.6197	547.7772	609.2316	677.8717	759.2865	814.5558	925.4271	992.3043	1000.5867	1080.7481	1095.1984	1124.3397	1164.8405	1183.8195	1221.2923	1261.7119	1287.3665	1343.1049	1374.553	1416.915	1440.8987	1479.226	1488.2194	1494.4871	1498.3449	1506.9977	1830.7013	2347.2355	3001.0026	3011.9188	3031.3339	3053.8944	3064.7799	3066.8786	3126.9376	3128.6176	3139.1289
CCC(=O)C(OC)C#N	CCC(=O)[C@@H](OC)C#N	
InChI=1S/C6H9NO2/c1-3-5(8)6(4-7)9-2/h6H,3H2,1-2H3	InChI=1S/C6H9NO2/c1-3-5(8)6(4-7)9-2/h6H,3H2,1-2H3/t6-/m0/s1
