23
gdb 96444	2.02579	1.80737	1.21218	1.3158	84.4	-0.2399	0.0759	0.3157	1139.1459	0.208424	-388.280776	-388.272431	-388.271487	-388.313076	34.02	
C	-0.2604093391	 1.5297723358	 0.0380539821	-0.407634
C	-0.0241924128	 0.0113183253	 0.0168175664	 0.001691
C	 0.4560050401	-0.5047361797	-1.3609795011	-0.205043
C	 1.7636601272	 0.0803620311	-1.914172029	-0.071051
O	 2.9456051353	-0.2852241508	-1.2243614658	-0.239325
C	 3.0896606828	 0.3145593977	 0.0530926	-0.10662
C	 2.3634165616	-0.4377386885	 1.1481871822	-0.008705
C	 1.5563119534	 0.2993063312	 2.1915101558	-0.321209
C	 0.8554299819	-0.537197734	 1.1486823686	-0.00863
H	 0.6558377731	 2.1139392821	-0.0844055233	 0.117854
H	-0.9376105684	 1.8170680408	-0.7737902631	 0.109379
H	-0.7212342214	 1.8361792952	 0.9817269913	 0.118217
H	-1.0140337875	-0.4383044639	 0.1717571332	 0.073372
H	 0.562998754	-1.5953046914	-1.3143642208	 0.099612
H	-0.3249738651	-0.2966706344	-2.1059982809	 0.086861
H	 1.903182588	-0.2878545113	-2.9363814864	 0.102264
H	 1.6930361716	 1.1792061306	-1.9753322028	 0.084041
H	 4.1653175563	 0.3219153953	 0.2622414631	 0.103532
H	 2.7628045242	 1.3648740832	 0.0147785731	 0.085557
H	 2.8857994493	-1.3305285076	 1.4807488084	 0.083348
H	 1.5754062474	-0.0538735716	 3.2168861344	 0.108146
H	 1.5019361413	 1.3793672481	 2.1014778684	 0.110885
H	 0.4947455069	-1.494793933	 1.5155370862	 0.083461
128.1251	195.139	228.9182	260.4697	286.0377	316.8041	379.7391	413.9478	415.7523	467.3496	566.1401	656.9287	688.8214	805.3294	809.6703	858.8201	868.7267	935.9972	956.812	963.3625	996.8194	1003.0513	1033.5442	1064.3768	1070.4439	1089.8306	1136.4039	1143.3148	1143.3926	1170.0809	1192.8647	1243.1968	1274.6121	1286.11	1314.6614	1347.9595	1370.2874	1378.2199	1390.0934	1399.2056	1413.8671	1422.1751	1433.0762	1465.8559	1485.8049	1490.579	1493.9773	1507.397	1512.4093	2966.8142	2985.8749	2999.0274	3013.681	3037.1761	3057.5425	3058.8542	3066.3687	3100.16	3112.2223	3126.9962	3130.5923	3143.3634	3212.4733
CC1CCOCC2CC12	C[C@H]1CCOC[C@H]2C[C@@H]12	
InChI=1S/C8H14O/c1-6-2-3-9-5-7-4-8(6)7/h6-8H,2-5H2,1H3	InChI=1S/C8H14O/c1-6-2-3-9-5-7-4-8(6)7/h6-8H,2-5H2,1H3/t6-,7+,8-/m0/s1
