20
gdb 89113	3.32465	0.90025	0.76489	4.1963	76.93	-0.2369	0.0145	0.2514	1509.152	0.169107	-440.274308	-440.264455	-440.263511	-440.310669	34.58	
C	 0.2000080769	 1.2872047442	-0.3505827193	-0.414017
C	 0.2566800984	-0.1549398923	 0.1034466542	 0.026883
C	 1.5528527066	-0.8580348733	 0.3035142022	-0.248584
N	 0.691222784	-0.5512448362	 1.4485396533	-0.099036
C	 1.1420539096	 0.4630065787	 2.3909546657	-0.137428
C	 1.7008142475	-0.2101334071	 3.6387450016	-0.088112
O	 2.8953256845	-0.9384416611	 3.3321372986	-0.182262
C	 2.7992099395	-2.2752936767	 3.1937369825	 0.183521
O	 3.7244021686	-2.9550591464	 2.8635274135	-0.284418
H	 1.0929550573	 1.8498140742	-0.0679523673	 0.12206
H	 0.1152146392	 1.3278048282	-1.4414466514	 0.127838
H	-0.6738604695	 1.8009366659	 0.0658583735	 0.123234
H	-0.5853503154	-0.753020558	-0.2429968402	 0.093525
H	 1.6686641682	-1.9110559048	 0.06232122	 0.124558
H	 2.4607918238	-0.267730403	 0.1875724107	 0.11765
H	 1.9060839804	 1.1435750303	 1.9840925976	 0.102431
H	 0.2830998784	 1.0740338922	 2.6958913711	 0.108102
H	 1.9767306707	 0.5358280222	 4.3894446439	 0.118886
H	 0.9489491095	-0.8837723297	 4.0664680416	 0.11903
H	 1.7882835719	-2.6587452273	 3.4263025885	 0.086139
35.8076	46.6341	96.5986	156.2525	172.0068	208.0701	260.9124	313.1428	388.2486	433.7092	449.9381	547.5754	632.5628	733.1619	781.4106	896.018	913.7627	948.9247	966.5996	1033.1545	1040.6284	1058.8831	1070.5978	1109.406	1121.797	1150.016	1161.1589	1188.5263	1200.3569	1283.9587	1316.503	1336.2145	1390.8006	1401.8498	1408.1646	1423.4562	1430.7375	1477.0947	1493.1457	1495.1455	1500.9151	1513.9305	1862.0696	2967.2242	2982.3727	3035.6891	3036.2788	3055.7497	3094.023	3094.6662	3100.223	3104.0371	3127.5018	3181.9214
CC1CN1CCOC=O	C[C@H]1CN1CCOC=O	
InChI=1S/C6H11NO2/c1-6-4-7(6)2-3-9-5-8/h5-6H,2-4H2,1H3	InChI=1S/C6H11NO2/c1-6-4-7(6)2-3-9-5-8/h5-6H,2-4H2,1H3/t6-,7?/m0/s1
