21
gdb 86244	2.01648	1.34639	0.88201	3.0203	79.25	-0.2468	-0.0157	0.2311	1351.6841	0.181709	-424.254075	-424.244541	-424.243597	-424.289115	35.226	
C	-0.1253094321	 1.48880736	 0.1619367053	-0.406206
C	 0.1333388799	-0.0146944272	 0.1077400184	 0.041697
C	 0.8143076375	-0.5086265609	-1.178770215	-0.251563
C	 1.2617181181	-1.9358788532	-0.8298239603	 0.101024
O	 2.3481763081	-2.4430744222	-1.5856715903	-0.438781
C	 1.6961544828	-1.8372939163	 0.661328976	-0.072797
C	 1.0722325412	-0.5405496945	 1.2197808518	-0.245177
C	 1.3285116804	-3.1012960631	 1.4053297121	 0.13259
O	 0.6878348069	-3.1537851419	 2.4246361357	-0.24838
H	 0.8112966766	 2.0503060924	 0.0648581156	 0.113113
H	-0.792847846	 1.8102693	-0.6446071339	 0.111854
H	-0.5888130648	 1.7759659487	 1.1116307994	 0.117907
H	-0.8299289557	-0.5359560121	 0.2007982975	 0.078229
H	 0.165856452	-0.4682109372	-2.0608126365	 0.088534
H	 1.7098261537	 0.0908998081	-1.3891071788	 0.103109
H	 0.3963257539	-2.614636024	-0.9172152529	 0.071734
H	 2.0486880918	-2.5804643434	-2.4901041111	 0.28446
H	 2.7931041741	-1.7963072691	 0.6487348396	 0.110511
H	 1.8544556491	 0.1987871259	 1.4222777348	 0.096823
H	 0.5484942804	-0.7314947471	 2.159288903	 0.124364
H	 1.6982340019	-4.0304960228	 0.9141530495	 0.086957
39.3833	92.7816	127.0842	204.9672	236.0138	258.2309	299.1536	318.0254	378.5273	422.2292	485.4217	508.1565	565.1082	680.7514	806.8927	848.5038	889.1097	924.6051	945.6273	959.8195	1004.6107	1027.3216	1047.9942	1104.1306	1116.3683	1131.0757	1162.7921	1171.6901	1215.1633	1259.7953	1272.9276	1282.3944	1310.4941	1331.8813	1351.0338	1373.8167	1389.7891	1409.9471	1419.9393	1425.6927	1487.1853	1496.4108	1496.9913	1502.8037	1826.1462	2873.9359	2950.4653	3002.1367	3023.339	3027.0375	3029.9652	3052.009	3076.8941	3092.5763	3097.8949	3109.7131	3816.4799
CC1CC(O)C(C1)C=O	C[C@H]1C[C@@H](O)[C@@H](C1)C=O	
InChI=1S/C7H12O2/c1-5-2-6(4-8)7(9)3-5/h4-7,9H,2-3H2,1H3	InChI=1S/C7H12O2/c1-5-2-6(4-8)7(9)3-5/h4-7,9H,2-3H2,1H3/t5-,6+,7-/m1/s1
