14
gdb 25338	3.16937	1.31078	0.92728	5.4439	76.	-0.2326	-0.0851	0.1476	1163.4024	0.103044	-432.916303	-432.908986	-432.908042	-432.948398	27.223	
N	-0.2774974395	 1.2811097783	-0.1092531239	-0.539257
C	-0.0930385511	 0.0181235125	-0.1967340086	 0.384583
N	 1.1597973579	-0.637784576	-0.1284152874	-0.357103
C	 1.3121415362	-1.987577792	-0.2262971038	 0.100374
N	 0.346213414	-2.8251366702	-0.391288555	-0.330468
C	-0.9205028089	-2.2613556434	-0.4686767137	 0.193842
C	-2.0304895459	-3.2422116123	-0.6598129367	 0.110488
O	-3.1949496897	-2.940235069	-0.7490408583	-0.250211
C	-1.1726222428	-0.931409227	-0.3822584543	-0.161696
H	 0.5965850134	 1.7930100223	 0.0194823359	 0.203149
H	 1.9816488263	-0.0646443717	 0.0003096762	 0.261344
H	 2.3365383406	-2.3460574986	-0.1555636118	 0.139775
H	-1.6797761259	-4.2935491214	-0.7132389632	 0.094903
H	-2.1840894844	-0.5525054014	-0.4500105454	 0.150278
113.072	166.3778	192.6813	200.611	415.2878	415.7484	476.388	549.1651	571.6924	654.6875	663.8803	742.0412	792.1958	813.235	935.0029	937.3734	961.2428	985.817	1054.0819	1105.9313	1155.9901	1193.1698	1278.1733	1353.2366	1404.6772	1439.2435	1467.4643	1606.7961	1652.0177	1722.2778	1814.4296	2930.9689	3164.3266	3233.3364	3462.7811	3605.5389
N=C1NC=NC(C=O)=C1	[NH]C1=C[C@H](N=CN1)C=O	
InChI=1S/C5H5N3O/c6-5-1-4(2-9)7-3-8-5/h1-3H,(H2,6,7,8)	InChI=1S/C5H6N3O/c6-5-1-4(2-9)7-3-8-5/h1-4,6H,(H,7,8)/t4-/m0/s1
