21
gdb 94273	2.97029	1.51054	1.20295	1.7861	82.14	-0.2401	0.0868	0.327	1102.707	0.1832	-387.02155	-387.013554	-387.01261	-387.054119	31.658	
C	-0.2805755898	 1.4742016082	-0.0167866979	-0.401391
C	 0.0994071583	 0.0040324526	-0.0569655563	 0.042505
O	 1.3144307615	-0.2099422993	-0.8201925833	-0.298128
C	 1.9960948765	-0.8091805233	 0.2989970861	-0.181101
C	 0.7533426063	-0.6413499544	 1.1862751042	 0.374104
C	 0.7387695693	-0.0839520924	 2.6353089678	-0.112788
C	-0.7007062443	-0.6663740722	 2.7640160546	-0.228774
C	 0.1328218681	-1.7702600955	 2.0506805466	-0.112106
C	 1.2608462974	-1.4818402742	 3.0848269402	-0.231532
H	 0.5098067417	 2.0702959781	 0.449345216	 0.11665
H	-0.4302482442	 1.8442220017	-1.0360782079	 0.126515
H	-1.2103401909	 1.6284982398	 0.5407182903	 0.115717
H	-0.7256917949	-0.5883160976	-0.4796420438	 0.071633
H	 2.2981157976	-1.8443597051	 0.0903047492	 0.098486
H	 2.8860086477	-0.2358139267	 0.5922502355	 0.098426
H	 1.0927175743	 0.8917259645	 2.9719863785	 0.073259
H	-1.0407275927	-0.8958121546	 3.7775908846	 0.091176
H	-1.4890614392	-0.1841363645	 2.1819681993	 0.096509
H	-0.2152129187	-2.7444086687	 1.70237333	 0.072763
H	 2.2809695597	-1.7485042411	 2.7965199891	 0.096566
H	 1.0540379563	-1.7655862052	 4.1202716272	 0.091512
68.3988	163.1452	203.9559	234.2929	268.7574	344.3416	440.4922	467.2356	572.4214	585.9011	767.4803	789.3484	809.2907	868.4653	882.3474	902.3333	903.168	977.9406	1003.5069	1014.0073	1018.1807	1028.5113	1049.299	1085.7708	1090.0472	1104.4227	1116.1106	1145.1872	1162.8898	1167.5591	1188.4513	1194.8798	1205.0991	1243.2266	1252.1044	1283.7749	1305.679	1370.1352	1381.5122	1403.1809	1484.7442	1491.54	1501.5826	1521.8237	1536.6387	2987.0346	2998.2377	3034.6087	3035.2382	3051.558	3055.6158	3095.4176	3102.0971	3106.6437	3112.8264	3115.3259	3121.6266
CC1OCC11C2CC1C2	C[C@H]1OC[C@]21[C@H]1C[C@@H]2C1	
InChI=1S/C8H12O/c1-5-8(4-9-5)6-2-7(8)3-6/h5-7H,2-4H2,1H3	InChI=1S/C8H12O/c1-5-8(4-9-5)6-2-7(8)3-6/h5-7H,2-4H2,1H3/t5-,6-,7+,8-/m1/s1
