16
gdb 127863	2.52232	1.58289	0.97852	4.4041	81.93	-0.1888	-0.0261	0.1627	1155.4308	0.125302	-434.058028	-434.049756	-434.048812	-434.090771	31.04	
C	 0.0342372395	 1.4005516474	 0.1284269198	-0.321708
N	 0.0375845788	-0.0505359942	 0.1199888448	-0.318123
C	-1.0845054581	-0.6632214569	-0.0300031922	 0.225887
C	-2.412864335	-0.0670639163	-0.1991808252	-0.07383
N	-3.5391040921	-0.7039397758	-0.3496577073	-0.187849
N	-3.4810836255	-2.0349531802	-0.350401992	-0.231032
C	-2.3181116444	-2.7564336679	-0.2035009889	-0.12552
C	-1.1280247757	-2.1238970919	-0.0447419987	 0.298213
O	 0.0522299047	-2.765297167	 0.1047942394	-0.407667
H	 1.0588933044	 1.7577321922	 0.2633403916	 0.116725
H	-0.3440013334	 1.8337866521	-0.8113214548	 0.107484
H	-0.5715866159	 1.8228649817	 0.9460561465	 0.107504
H	-2.5073022515	 1.0119235793	-0.2048300697	 0.122148
H	-4.3662049487	-2.4970715779	-0.4681140862	 0.276354
H	-2.4260433792	-3.8349452354	-0.2242861414	 0.115317
H	-0.0926121979	-3.7179376691	 0.0801406743	 0.296096
97.3184	154.2558	203.82	215.6731	306.2358	337.488	373.3266	393.3926	489.3088	496.1915	548.1362	605.7789	606.3662	758.9567	761.4086	806.8793	901.4266	912.8645	1029.7035	1054.0435	1095.9757	1150.0928	1172.2505	1243.5912	1272.017	1327.7255	1392.611	1433.8793	1458.9423	1487.0568	1506.4534	1526.4463	1604.0811	1668.4583	1678.1089	2962.0821	3006.8041	3089.5677	3191.2996	3208.3729	3667.4794	3805.3935
CN=C1C=NNC=C1O	CN=c1cn[nH]cc1O	
InChI=1S/C5H7N3O/c1-6-4-2-7-8-3-5(4)9/h2-3H,1H3,(H,6,8)(H,7,9)	InChI=1S/C5H7N3O/c1-6-4-2-7-8-3-5(4)9/h2-3H,1H3,(H,6,8)(H,7,9)
