19
gdb 104926	2.07642	1.53993	1.02028	3.4601	72.97	-0.2524	-0.038	0.2144	1209.7949	0.154826	-460.15179	-460.141492	-460.140548	-460.187087	36.825	
C	-0.0444307483	 1.4629883823	-0.0655373034	-0.458286
C	 0.0182104761	-0.0411446515	 0.1254681283	 0.33596
C	-1.0241435467	-0.7999067871	-0.6705620926	-0.472387
O	 1.3254725221	-0.6205842171	 0.1211816976	-0.308301
C	 0.6143081996	-0.6354666339	 1.3673244757	 0.174765
C	 1.2456053784	 0.1749218299	 2.4820079005	-0.141994
O	 2.3624475526	-0.5232472134	 3.0125131767	-0.415208
C	 0.1720165714	-1.9971420555	 1.8503723375	 0.122757
O	 0.1479497821	-2.99854718	 1.1838325854	-0.251164
H	 0.7924413959	 1.9804398571	 0.4026953827	 0.132472
H	-0.0223594834	 1.690440065	-1.1366331343	 0.133462
H	-0.9796636419	 1.8642753235	 0.3382463363	 0.129105
H	-0.9097597058	-0.5570509567	-1.7323598898	 0.127429
H	-0.9142293307	-1.8761237251	-0.5483550172	 0.167513
H	-2.0328180596	-0.4988914482	-0.3681506411	 0.120111
H	 1.5232682351	 1.1757873852	 2.1362291229	 0.101781
H	 0.5390695072	 0.2905570777	 3.3115818542	 0.117949
H	 2.9795741813	-0.6639849006	 2.2849617259	 0.298721
H	-0.1485137352	-2.0030645818	 2.9152773446	 0.085313
60.8653	118.1948	120.4293	142.4231	190.7794	212.976	241.5766	291.4956	335.6328	365.9524	383.3525	426.9596	475.7991	541.1877	659.4369	705.6768	772.037	866.7923	897.7203	945.3796	975.1285	1001.2397	1036.5356	1058.7203	1125.2355	1154.2562	1174.6145	1241.33	1251.434	1364.5374	1404.9575	1409.7806	1415.2725	1426.1434	1436.7602	1472.6766	1487.8111	1495.1546	1503.2463	1514.4112	1829.5101	2892.3602	3039.2716	3041.579	3047.2455	3084.7434	3098.0364	3104.4547	3152.8635	3168.4522	3798.1611
CC1(C)OC1(CO)C=O	CC1(C)O[C@]1(CO)C=O	
InChI=1S/C6H10O3/c1-5(2)6(3-7,4-8)9-5/h3,8H,4H2,1-2H3	InChI=1S/C6H10O3/c1-5(2)6(3-7,4-8)9-5/h3,8H,4H2,1-2H3/t6-/m0/s1
