18
gdb 64729	3.35775	1.15135	1.08161	1.5263	77.09	-0.2485	0.0224	0.271	1180.0082	0.146357	-401.936405	-401.927527	-401.926582	-401.97034	33.077	
C	-0.0685608071	 1.6761361907	-0.1395837402	-0.435882
C	 0.05188912	 0.1609969113	-0.0543233305	 0.35068
C	-1.3178284534	-0.5474566474	 0.0288434117	-0.400186
C	-2.1656496612	-0.1045485874	 1.1278305791	 0.311364
C	-2.8688527711	 0.2648313497	 2.0294976865	-0.43663
C	 0.9455879884	-0.4638556825	-1.1695899141	-0.229757
N	 2.0471824484	-1.1376798007	-0.4666534017	-0.263812
C	 1.8562853653	-0.9038635208	 0.7640594355	 0.112899
O	 0.793578663	-0.1701428277	 1.1623925115	-0.244344
H	 0.9248711428	 2.1325442584	-0.1569570929	 0.127229
H	-0.5934372959	 1.9609414359	-1.0575850568	 0.120699
H	-0.6245914593	 2.0713822352	 0.7134302504	 0.145085
H	-1.836765234	-0.3901431946	-0.9259683591	 0.1348
H	-1.1391969371	-1.6265930242	 0.1099894324	 0.140475
H	-3.488347962	 0.5849413558	 2.8302763633	 0.198129
H	 0.3965931998	-1.1852660801	-1.7854251211	 0.114564
H	 1.3477348162	 0.2995865699	-1.8447980499	 0.114749
H	 2.4918851571	-1.2469232515	 1.5733438859	 0.139939
51.5761	88.0461	140.9831	236.1402	288.6335	313.1128	352.8318	375.4917	406.327	474.0978	545.6358	620.7103	645.2486	694.0493	783.9063	849.3916	899.0845	910.2613	952.0601	960.0769	982.614	989.1637	1007.2587	1104.6952	1153.9735	1175.8873	1194.4495	1251.1829	1293.6487	1320.1155	1340.9518	1349.9711	1411.981	1458.5778	1485.8212	1494.1394	1502.5046	1707.1512	2240.4793	3020.5707	3033.3804	3043.6182	3059.0817	3066.7409	3114.0005	3134.2854	3212.9552	3506.2389
CC1(CC#C)CN=CO1	C[C@@]1(CC#C)CN=CO1	
InChI=1S/C7H9NO/c1-3-4-7(2)5-8-6-9-7/h1,6H,4-5H2,2H3	InChI=1S/C7H9NO/c1-3-4-7(2)5-8-6-9-7/h1,6H,4-5H2,2H3/t7-/m1/s1
