22
gdb 77474	1.92596	1.51089	1.3837	1.8756	83.44	-0.1941	0.0738	0.268	1157.624	0.191498	-404.301939	-404.291669	-404.290725	-404.336185	38.447	
C	-0.037594265	 1.5831942573	-0.3165688803	-0.429072
C	 0.1426590495	 0.089372319	-0.1360310371	-0.121083
C	 1.4008087322	-0.6998306504	-0.4073719607	 0.289792
O	 1.4577189531	-1.7854809614	-1.2652605878	-0.46151
C	 2.6445246668	 0.0203225484	 0.1302166537	-0.249694
N	 2.0658172656	-0.0425879038	 1.4941726931	-0.098745
C	 2.0496643348	 1.1183861502	 2.3620642431	-0.336696
C	 0.8346736569	-0.6645815557	 1.0043870073	 0.269791
C	 0.1408181184	-1.7072417257	 1.8313905843	-0.477893
H	 0.8813407311	 2.1423015213	-0.1296135507	 0.12386
H	-0.3533409085	 1.8109248542	-1.3417930373	 0.110152
H	-0.8061354341	 1.9765341054	 0.3577870163	 0.118571
H	-0.7223829727	-0.4879967568	-0.4640893568	 0.084675
H	 1.2680168212	-1.4780522811	-2.1580185042	 0.285027
H	 3.5584038561	-0.5774052801	 0.0388637295	 0.108006
H	 2.8382894633	 1.0291994931	-0.2609952888	 0.085853
H	 1.5966340969	 2.0253960169	 1.9294409465	 0.094969
H	 1.4977738151	 0.8732248248	 3.2757485488	 0.120498
H	 3.0761706336	 1.3637253404	 2.6568169693	 0.117712
H	-0.4401905603	-1.2561639195	 2.6449374812	 0.115147
H	-0.5496627844	-2.2912282369	 1.2158212396	 0.124058
H	 0.8731208804	-2.3883750395	 2.2755251309	 0.126582
142.023	155.8798	168.121	169.8413	195.2616	215.7426	228.6747	256.1129	284.1361	309.4463	362.2245	433.9141	535.5072	575.7767	621.0814	658.6962	746.2249	765.4253	824.8339	944.0939	967.5713	1007.4653	1023.7687	1084.2594	1105.4534	1113.2814	1119.8395	1158.2061	1163.8948	1186.6832	1232.6409	1249.5789	1269.9827	1306.9347	1331.5989	1355.1184	1408.3067	1414.0501	1447.7203	1475.1177	1478.2616	1483.1529	1498.3451	1500.9882	1506.148	1513.1137	1522.5866	2970.2785	2999.9714	3025.9443	3028.111	3053.4681	3056.977	3081.0282	3088.0462	3092.5611	3103.8669	3114.7412	3127.9792	3797.8273
CC1C2(O)CN(C)C12C	C[C@H]1[C@@]2(O)CN(C)[C@@]12C	
InChI=1S/C7H13NO/c1-5-6(2)7(5,9)4-8(6)3/h5,9H,4H2,1-3H3	InChI=1S/C7H13NO/c1-5-6(2)7(5,9)4-8(6)3/h5,9H,4H2,1-3H3/t5-,6+,7+/m1/s1
