16
gdb 124204	4.92336	1.01003	0.84251	5.1827	76.16	-0.225	-0.0141	0.2109	1319.1739	0.124867	-434.069684	-434.06131	-434.060366	-434.103772	30.326	
C	-0.206930607	 1.366878212	-0.6912199664	-0.468418
C	 0.0783288313	-0.0933707019	-0.4355361753	 0.37407
N	 1.2206384362	-0.5831502775	-0.6908154544	-0.502966
N	-1.0464074835	-0.7607054358	 0.0902358139	-0.456007
C	-1.1944354538	-2.0745216328	 0.4510941412	 0.569589
C	-2.2755424326	-2.743792573	 0.9624793634	-0.391353
C	-1.7839816653	-4.0614669078	 1.1160268558	 0.055282
N	-0.5367798744	-4.199478945	 0.7426802211	-0.151126
O	-0.1549936555	-2.90587771	 0.310427222	-0.219379
H	 0.6912572895	 1.8318278764	-1.0936569908	 0.162382
H	-1.0265253786	 1.4896353596	-1.4087735056	 0.133427
H	-0.49358182	 1.8814050363	 0.2333280992	 0.133347
H	 1.2807537725	-1.5754262965	-0.4736260577	 0.247754
H	-1.8732703374	-0.2013378743	 0.2261310783	 0.261967
H	-3.253855767	-2.3562927703	 1.1888332058	 0.11487
H	-2.3072608742	-4.9295070596	 1.4930604494	 0.136562
38.6769	74.1208	158.1721	172.5225	294.4181	344.541	379.9541	464.8916	548.2172	570.7133	626.346	706.6319	745.8286	764.7448	881.7184	909.0284	918.0637	921.1784	940.6581	996.1042	1041.5966	1063.3431	1074.4081	1133.8579	1221.7538	1297.163	1345.6173	1372.6365	1407.7537	1473.1445	1486.7731	1508.9601	1545.4153	1651.9157	1746.6488	3033.638	3088.4536	3171.7986	3240.6971	3282.3543	3529.1465	3636.5754
CC(=N)NC1=CC=NO1	CC(=N)Nc1ccno1	
InChI=1S/C5H7N3O/c1-4(6)8-5-2-3-7-9-5/h2-3H,1H3,(H2,6,8)	InChI=1S/C5H7N3O/c1-4(6)8-5-2-3-7-9-5/h2-3H,1H3,(H2,6,8)
