13
gdb 25176	3.09565	1.52427	1.02136	2.3087	78.35	-0.2341	-0.066	0.1681	1064.6733	0.090879	-415.644929	-415.637675	-415.636731	-415.676744	27.328	
O	-0.0894281315	-0.0793084591	 0.0047070632	-0.361844
C	-0.0033169051	 1.1288439388	 0.0095531313	 0.369828
N	-1.1693943052	 1.9301221687	 0.0285953957	-0.336672
C	-1.171734434	 3.2829471653	 0.0354206872	 0.119246
N	-0.096382808	 4.0094403488	 0.0252590408	-0.27954
C	 1.0846212964	 3.3217507759	 0.0066645193	-0.053967
C	 1.2084773369	 1.9533771367	-0.001788906	-0.086648
C	 2.4711871328	 1.3106676478	-0.0211730921	 0.266078
C	 3.5502087775	 0.776888594	-0.0376574623	-0.386154
H	-2.0391046312	 1.412222178	 0.0371759414	 0.273392
H	-2.1483861302	 3.7600756638	 0.0503628452	 0.144928
H	 1.980999134	 3.9344605591	-0.0017383355	 0.13179
H	 4.4963064978	 0.2946958121	-0.0521704082	 0.199564
115.3248	140.798	199.4444	340.557	395.2875	464.0924	474.4477	578.6256	579.2685	591.017	605.9547	659.7479	731.5967	739.2489	807.2629	911.1146	944.0057	992.7415	1091.0085	1113.571	1212.6267	1264.0647	1366.0168	1415.731	1473.7094	1566.5733	1638.9536	1806.0017	2228.2016	3171.3989	3182.4181	3502.1576	3588.4767
O=C1NC=NC=C1C#C	O=c1[nH]cncc1C#C	
InChI=1S/C6H4N2O/c1-2-5-3-7-4-8-6(5)9/h1,3-4H,(H,7,8,9)	InChI=1S/C6H4N2O/c1-2-5-3-7-4-8-6(5)9/h1,3-4H,(H,7,8,9)
