18
gdb 6295	3.50975	1.19416	0.93057	4.0649	65.17	-0.2467	-0.0217	0.2251	1222.9751	0.15051	-422.086193	-422.076784	-422.07584	-422.120632	33.588	
C	-0.1646570927	 1.5472645588	-0.2165306898	-0.403119
C	 0.0300927713	 0.0388672429	-0.0891739893	 0.105466
O	-1.1979812827	-0.6005836985	 0.3026866104	-0.435971
C	 0.4646918149	-0.6132891875	-1.3995107191	-0.198688
C	 0.6755337823	-2.1286164871	-1.2816806224	 0.037844
O	-0.5202410391	-2.8624915654	-1.1367697496	-0.448531
C	 1.3851370601	-2.6895832362	-2.5078580575	 0.148551
O	 2.3025814	-2.1473023294	-3.0676307582	-0.253809
H	 0.7714341718	 2.0377482021	-0.5012022876	 0.125842
H	-0.9221010333	 1.7722404498	-0.9734385993	 0.131265
H	-0.4920996395	 1.9809574121	 0.7352462334	 0.107839
H	 0.7996839626	-0.1647217239	 0.6731351532	 0.076119
H	-1.4486391508	-0.2800569675	 1.1745206756	 0.290179
H	-0.293003755	-0.4215021234	-2.1690095777	 0.113578
H	 1.4036709524	-0.1635853238	-1.7367438626	 0.125284
H	 1.362919137	-2.3163161772	-0.4316636126	 0.084666
H	-1.0569202627	-2.3753197515	-0.4956368059	 0.296947
H	 0.9791133636	-3.6703924742	-2.838690761	 0.096537
57.9583	93.4193	133.8987	162.9158	240.4902	251.1461	289.6785	330.9297	389.3534	451.783	474.1785	497.5029	535.6082	604.555	822.6698	864.0368	891.9654	956.1809	997.9231	1031.0463	1067.8993	1116.0199	1136.4093	1157.6716	1209.2772	1261.4333	1298.6182	1311.6709	1351.8267	1381.294	1398.8258	1408.3546	1419.6618	1456.9016	1467.2454	1491.1324	1497.8182	1835.7367	2896.6533	2905.8329	2970.5411	3030.7857	3041.8108	3098.2971	3100.8738	3118.8187	3731.0116	3826.6833
CC(O)CC(O)C=O	C[C@@H](O)C[C@@H](O)C=O	
InChI=1S/C5H10O3/c1-4(7)2-5(8)3-6/h3-5,7-8H,2H2,1H3	InChI=1S/C5H10O3/c1-4(7)2-5(8)3-6/h3-5,7-8H,2H2,1H3/t4-,5-/m1/s1
