18
gdb 68397	2.58918	2.00332	1.45936	1.7481	69.79	-0.219	0.0662	0.2852	924.3326	0.149333	-439.031899	-439.024951	-439.024007	-439.062669	29.211	
O	-0.1944995702	 1.3826899429	-0.0023959141	-0.493545
C	 0.0263775986	 0.0008240422	 0.0044565684	 0.354063
C	 0.9604088552	-0.7098049088	-1.0177922502	-0.236207
N	 1.2287365266	-1.7536446753	 0.034167734	-0.117803
C	 0.9006667243	-0.7042728454	 1.0672522482	-0.238259
C	 0.1556217969	-2.7691633821	 0.0002564498	-0.207728
C	-1.2501037354	-2.1765431999	-0.0867413348	 0.030691
O	-1.7374143992	-1.4662034471	 1.0649900144	-0.253688
C	-1.3218129717	-0.7101880053	-0.0736526821	 0.026204
H	 0.658785807	 1.8263612297	 0.0494827184	 0.280653
H	 0.5372537116	-1.0751648184	-1.9585075301	 0.103519
H	 1.8793874668	-0.1480215482	-1.2199286785	 0.098209
H	 1.8055164243	-0.133685336	 1.3071080105	 0.091779
H	 0.4209226926	-1.0616104947	 1.9777909701	 0.130703
H	 0.32315012	-3.4051672626	-0.87684883	 0.110687
H	 0.2494352606	-3.4060147873	 0.8867008449	 0.121179
H	-2.011950792	-2.7614835923	-0.6010936138	 0.096457
H	-2.1078206957	-0.1645487614	-0.5917032348	 0.103085
218.2402	271.5938	313.1814	335.5892	385.97	433.6191	443.1286	476.0085	547.9997	617.4271	700.0134	778.3574	801.301	860.2768	900.4307	907.2199	926.3868	956.6608	967.2319	1024.105	1046.8327	1067.0321	1084.9007	1117.9374	1134.208	1158.8416	1205.6894	1245.1425	1258.6296	1270.2531	1293.2697	1297.7169	1346.5602	1350.7309	1405.0794	1448.9996	1472.6142	1482.4679	1515.3344	3029.5456	3033.7921	3039.2803	3079.6451	3093.2502	3113.3891	3141.3087	3142.4089	3810.162
OC12CN(C1)CC1OC21	O[C@@]12CN(C1)C[C@H]1O[C@@H]21	
InChI=1S/C6H9NO2/c8-6-2-7(3-6)1-4-5(6)9-4/h4-5,8H,1-3H2	InChI=1S/C6H9NO2/c8-6-2-7(3-6)1-4-5(6)9-4/h4-5,8H,1-3H2/t4-,5-/m1/s1
