17
gdb 125965	3.78567	1.21323	1.02846	5.5765	75.38	-0.2185	0.0122	0.2307	1160.0345	0.137422	-414.155182	-414.147241	-414.146297	-414.18826	29.587	
C	-0.553169817	 1.381816712	-0.0964709784	-0.412072
C	-0.1143167591	-0.0596998316	-0.0103366301	 0.017274
C	 1.2481700904	-0.4694317312	-0.4578800271	-0.268959
N	 0.8899845145	-0.5125919613	 0.9623344327	-0.173757
C	 1.4766085507	 0.3539713089	 1.873810431	 0.373061
C	 0.9732986488	 1.1301426731	 2.8993940156	-0.143382
N	 2.0153684419	 1.6933950047	 3.5727174011	-0.182196
N	 3.1374830226	 1.3157579187	 3.0407062118	-0.125897
N	 2.8198777611	 0.5022345097	 2.0000496805	-0.242948
H	 0.2904428156	 2.0697223998	-0.0012773192	 0.138101
H	-1.0365837388	 1.560255746	-1.0622791632	 0.130815
H	-1.275584838	 1.6241598599	 0.6893204535	 0.135634
H	-0.914398098	-0.7871434283	-0.1311050312	 0.107783
H	 1.4186169093	-1.4353816176	-0.9240952588	 0.129568
H	 1.9148266923	 0.3264034601	-0.7859579623	 0.123925
H	-0.0517189883	 1.3023370756	 3.181376698	 0.116146
H	 3.5519172518	 0.0637051116	 1.4652352662	 0.276908
51.2122	129.9642	165.4332	217.902	294.902	377.7919	419.971	530.1115	536.3443	576.7018	711.5794	725.21	801.3811	814.3509	880.0339	914.0965	987.5244	996.9713	1040.4759	1045.0334	1063.5904	1121.5404	1127.7726	1142.7008	1164.5345	1195.2614	1229.3199	1295.2705	1356.5397	1393.778	1411.1964	1425.7798	1433.9431	1484.2796	1496.2186	1508.1427	1617.2131	3043.1479	3099.3266	3106.7211	3119.3576	3137.9484	3191.7145	3277.6248	3661.2612
CC1CN1C1=CN=NN1	C[C@H]1CN1c1cnn[nH]1	
InChI=1S/C5H8N4/c1-4-3-9(4)5-2-6-8-7-5/h2,4H,3H2,1H3,(H,6,7,8)	InChI=1S/C5H8N4/c1-4-3-9(4)5-2-6-8-7-5/h2,4H,3H2,1H3,(H,6,7,8)/t4-,9?/m0/s1
