17
gdb 84646	2.75521	1.74887	1.1787	3.4836	75.13	-0.2312	-0.0116	0.2196	1023.2589	0.137858	-417.986885	-417.979388	-417.978443	-418.018678	29.729	
O	 0.7708516809	 0.0515935981	-1.0797818734	-0.41943
C	 0.1262232013	-0.5041622549	 0.0510397437	 0.008907
C	 0.7296345114	-0.0031951126	 1.3519495626	-0.11328
C	 0.0306073976	 0.0339380991	 2.4859425414	-0.079677
C	-1.3553317157	-0.493594144	 2.5094792103	-0.067489
C	-2.5545766013	 0.3472280045	 2.1703266071	-0.231071
N	-2.0296006638	-0.6321011023	 1.2266318661	-0.084154
C	-1.3752609229	-0.1855156168	 0.0673681238	 0.269977
N	-2.0041036217	 0.4423268291	-0.8386868643	-0.50048
H	 0.7584207343	 1.0111344028	-0.9805101816	 0.283605
H	 0.2731697972	-1.5879733057	-0.0412571018	 0.128632
H	 1.7611516663	 0.3342815809	 1.2975068747	 0.108675
H	 0.4692470413	 0.385456284	 3.4155211165	 0.106406
H	-1.5211816094	-1.330110228	 3.1892565826	 0.110527
H	-3.5196130234	 0.1143674396	 2.6114828822	 0.126641
H	-2.3914767317	 1.3930319228	 1.9265098459	 0.13257
H	-1.3714062704	 0.6020570036	-1.6250188357	 0.219639
96.0794	181.668	279.2962	329.3161	339.8656	365.9316	446.0923	494.0232	518.7239	581.7377	649.8235	725.606	781.0596	827.8929	873.7041	897.9914	943.4631	959.4469	993.0918	1013.8047	1052.1651	1087.914	1104.8568	1114.308	1126.0954	1163.9012	1182.8413	1253.4869	1274.7061	1287.7383	1366.7902	1390.0131	1410.3241	1429.6126	1505.5864	1701.1998	1720.2864	3030.8667	3097.1043	3114.6532	3159.5725	3181.0491	3207.7597	3462.597	3788.5809
OC1C=CC2CN2C1=N	O[C@H]1C=C[C@H]2CN2[C]1[NH]	
InChI=1S/C6H8N2O/c7-6-5(9)2-1-4-3-8(4)6/h1-2,4-5,7,9H,3H2	InChI=1S/C6H8N2O/c7-6-5(9)2-1-4-3-8(4)6/h1-2,4-5,7,9H,3H2/t4-,5-,8?/m0/s1
