23
gdb 110292	2.12512	1.31244	0.96097	1.3682	86.03	-0.2443	0.0772	0.3215	1345.7549	0.20506	-388.257762	-388.247924	-388.246979	-388.292143	37.31	
C	-0.0878424582	 1.4839828454	 0.2705408978	-0.415828
C	 0.0366951041	 0.0173309633	 0.6284896279	-0.021154
C	 1.1711178823	-0.8927032158	 0.2363062838	-0.072287
C	 0.9112635724	-0.5547395313	 1.711395024	-0.056574
C	 2.2700828427	 0.1557375234	 1.8058212238	 0.012808
C	 3.2083089378	-0.4580617342	 2.8306931417	-0.106487
O	 2.6881586463	-0.1317407571	 4.1148519055	-0.427014
C	 2.5397774679	-0.1890473534	 0.2935854368	-0.014342
C	 3.723139095	-1.0992383203	-0.0279863952	-0.411722
H	 0.8683918802	 2.0111439275	 0.3133221658	 0.119259
H	-0.4839007216	 1.6039788619	-0.7440799588	 0.112439
H	-0.7729090988	 1.9933930901	 0.9571907751	 0.116384
H	-0.9178300094	-0.5057371014	 0.5812919931	 0.080696
H	 0.9963344065	-1.8242077313	-0.2925201041	 0.072334
H	 0.5073112848	-1.1784661366	 2.5004214489	 0.082601
H	 2.2107188599	 1.2279769633	 2.0262240747	 0.071975
H	 3.2631715103	-1.5492026667	 2.700389898	 0.083502
H	 4.2259836677	-0.0559743513	 2.7023002311	 0.082557
H	 3.2350186753	-0.5637786784	 4.7773086057	 0.284589
H	 2.6098728555	 0.7011315593	-0.3431642898	 0.06529
H	 3.6836404941	-2.0401158416	 0.5300047184	 0.115945
H	 3.7181192642	-1.3540291049	-1.0935905931	 0.112565
H	 4.6802228709	-0.6139020699	 0.1898048986	 0.112465
98.0592	112.5767	172.6852	176.3233	202.3482	242.6996	258.6902	264.4847	336.9396	356.0581	459.332	502.3394	578.4864	712.9093	735.9647	803.7109	834.7938	882.1735	922.1946	928.8883	990.0696	996.3769	1019.184	1051.1401	1061.9335	1068.9754	1101.8812	1115.3237	1120.2377	1145.6077	1154.1381	1205.6518	1223.6647	1237.3428	1269.0884	1272.7017	1306.3891	1328.1483	1372.1377	1377.6498	1410.5812	1414.4632	1441.3592	1456.7306	1494.3882	1496.5434	1503.387	1503.8792	1521.9461	2967.9705	3000.5952	3020.0464	3030.631	3032.2065	3039.6979	3087.8393	3092.1563	3103.4051	3107.0009	3124.0368	3155.6156	3178.1826	3828.7917
CC1C2C1C(CO)C2C	C[C@H]1[C@@H]2[C@H]1[C@@H](CO)[C@H]2C	
InChI=1S/C8H14O/c1-4-6(3-9)8-5(2)7(4)8/h4-9H,3H2,1-2H3	InChI=1S/C8H14O/c1-4-6(3-9)8-5(2)7(4)8/h4-9H,3H2,1-2H3/t4-,5+,6+,7-,8-/m1/s1
