20
gdb 98663	4.9361	0.76761	0.74436	2.2672	77.51	-0.2232	-0.0334	0.1898	1582.9729	0.169447	-440.27039	-440.26077	-440.259825	-440.306811	34.447	
C	-0.0322262307	 1.5316627055	 0.1027720845	-0.322201
N	 0.049528463	 0.0906245985	 0.1957466697	-0.0676
C	-1.1476879232	-0.6523987435	 0.6265138465	-0.175595
C	-0.2316054864	-1.6212072193	 1.4319664455	-0.103503
C	 0.837481785	-0.4967032972	 1.2935428305	-0.175582
C	-0.6728414822	-1.9719815458	 2.8271681005	 0.340538
O	-1.0113462889	-1.1318310155	 3.6376449362	-0.335258
C	-0.6926327222	-3.436829039	 3.2292741476	-0.137212
O	-1.1210324223	-3.6063007979	 4.5442264429	-0.419116
H	 0.9533351187	 1.9423001827	-0.1411192277	 0.122833
H	-0.7191210805	 1.8111773363	-0.703131425	 0.122834
H	-0.3834932518	 2.0092243233	 1.0366775019	 0.099138
H	-1.7998256412	-0.0811242962	 1.3050482133	 0.10906
H	-1.7450430416	-1.0826827326	-0.1837593898	 0.108154
H	 0.0302243428	-2.5143113606	 0.8612892136	 0.087055
H	 1.8546276263	-0.8003733433	 1.0257482645	 0.108159
H	 0.8632957475	 0.1277805671	 2.199854284	 0.109053
H	-1.3426347894	-3.9746275564	 2.5166662083	 0.117488
H	 0.3225307297	-3.8436322101	 3.0760674977	 0.117492
H	-1.2997915226	-2.7073173961	 4.8654046454	 0.294262
10.8209	72.9714	121.9385	201.2887	217.323	240.6882	314.3474	341.2282	347.8097	370.0969	434.938	565.5167	617.7092	707.6829	811.6148	892.6378	917.4089	924.6315	978.9533	1000.886	1049.0397	1086.2402	1102.923	1140.3852	1149.4554	1164.2353	1204.3286	1234.8016	1235.4573	1242.138	1255.0737	1303.5849	1305.0837	1344.9196	1384.9139	1449.234	1451.4039	1484.3164	1486.9411	1498.3545	1500.0164	1525.6085	1786.3914	2933.8083	2958.9159	2971.6165	2984.0607	2993.0081	3057.9689	3064.9684	3066.8532	3096.2102	3099.0553	3677.029
CN1CC(C1)C(=O)CO	CN1CC(C1)C(=O)CO	
InChI=1S/C6H11NO2/c1-7-2-5(3-7)6(9)4-8/h5,8H,2-4H2,1H3	InChI=1S/C6H11NO2/c1-7-2-5(3-7)6(9)4-8/h5,8H,2-4H2,1H3
