18
gdb 18604	3.32711	2.04182	1.66748	0.4053	65.86	-0.247	0.0547	0.3017	835.0408	0.155601	-384.931117	-384.924077	-384.923133	-384.962494	27.591	
O	 0.3354266931	 1.2517612627	-0.5387195572	-0.426768
C	 0.0657677075	-0.0284987392	-0.0156245004	 0.130453
C	 0.068576348	-0.2150177405	 1.5285047194	-0.298588
C	-1.3499140075	-0.8545876964	 1.4540671014	 0.115196
O	-2.3953658508	-0.1207594466	 2.0666872724	-0.25149
C	-2.7224849681	 0.9694683752	 1.2151721944	-0.092589
C	-2.5233163777	 0.4590621987	-0.2246520303	-0.244472
C	-1.4006608534	-0.5769146391	-0.0813887771	-0.071947
H	-0.1066983689	 1.9051516314	 0.0132770392	 0.280357
H	 0.7662431344	-0.6975151863	-0.5218101488	 0.09132
H	 0.860263655	-0.8528523654	 1.9283367169	 0.105999
H	 0.0768504329	 0.7274047253	 2.0859241492	 0.103317
H	-1.4213128009	-1.8862917946	 1.8021956978	 0.079592
H	-3.7480200914	 1.2737026717	 1.440042988	 0.113541
H	-2.0687866084	 1.8351287584	 1.420713291	 0.074167
H	-3.4353732186	-0.0271290473	-0.5808121429	 0.110359
H	-2.2687810869	 1.2590000343	-0.9251199018	 0.110945
H	-1.5350735384	-1.4322647522	-0.7449392413	 0.070609
64.6142	209.4561	245.9168	300.5991	396.7283	414.5538	516.1605	582.7163	674.0578	717.4572	766.1919	844.7391	877.2203	890.7104	931.9515	950.5423	979.3119	1023.041	1030.7834	1070.1629	1078.6775	1125.9641	1146.4576	1180.4609	1212.7669	1225.6609	1251.2423	1263.555	1273.0397	1292.5567	1327.8698	1329.9937	1353.012	1393.3587	1436.4412	1463.9274	1485.8073	1523.198	2946.0103	3051.5007	3060.7026	3073.9686	3090.1921	3091.8262	3100.464	3110.671	3115.7886	3808.8651
OC1CC2OCCC12	O[C@H]1C[C@H]2OCC[C@@H]12	
InChI=1S/C6H10O2/c7-5-3-6-4(5)1-2-8-6/h4-7H,1-3H2	InChI=1S/C6H10O2/c7-5-3-6-4(5)1-2-8-6/h4-7H,1-3H2/t4-,5-,6+/m0/s1
