16
gdb 8247	6.34838	1.034	0.92871	2.4305	70.87	-0.244	-0.0223	0.2218	1193.5329	0.128033	-346.579963	-346.571816	-346.570872	-346.61342	29.771	
O	 0.1302375284	 0.0628448533	 0.331080279	-0.286146
C	 0.0362292109	 1.2183818773	 0.0380115023	 0.40558
C	-1.1502378236	 2.1900504991	-0.0905564329	-0.373595
C	-0.1795813268	 3.200734326	-0.7798465489	 0.029933
C	-0.1632591099	 4.6254575256	-0.2123617467	-0.373257
C	 0.8856210515	 5.4543649392	-0.7951160328	 0.298655
C	 1.7606644244	 6.1116893025	-1.2920734193	-0.439801
C	 1.0366297985	 2.2849148491	-0.4342704375	-0.350328
H	-2.0061535606	 1.8265319742	-0.664751655	 0.132
H	-1.5095236746	 2.5258091779	 0.889426982	 0.129261
H	-0.3462830493	 3.241933247	-1.8586821077	 0.095939
H	-1.1408980129	 5.0960143977	-0.3797682085	 0.135141
H	-0.0306033866	 4.5797014645	 0.8775950042	 0.127691
H	 2.5296229882	 6.7031836571	-1.7237002543	 0.198696
H	 1.6515681256	 2.6663825968	 0.3890199774	 0.134935
H	 1.7028548168	 1.9887288926	-1.2479091414	 0.135295
38.8724	73.4531	135.7293	285.3405	339.3187	356.0936	414.1265	461.9496	499.7464	625.1808	641.2138	649.2323	677.1013	768.4989	870.427	909.1499	940.7275	959.0462	1015.644	1054.2842	1102.4377	1115.4397	1166.2462	1193.2497	1237.7665	1248.8532	1274.005	1326.5167	1374.898	1425.4737	1444.7567	1472.3992	1895.8692	2238.8848	3010.1412	3042.755	3045.8338	3052.5892	3082.5256	3111.6357	3116.1562	3506.5856
O=C1CC(CC#C)C1	O=C1CC(CC#C)C1	
InChI=1S/C7H8O/c1-2-3-6-4-7(8)5-6/h1,6H,3-5H2	InChI=1S/C7H8O/c1-2-3-6-4-7(8)5-6/h1,6H,3-5H2
