20
gdb 62621	2.24678	1.8955	1.61932	2.2518	77.62	-0.2313	0.0644	0.2957	973.4297	0.169782	-403.088518	-403.080039	-403.079095	-403.120664	34.104	
C	-0.0419495826	 1.5907279251	-0.081775929	-0.462443
C	 0.0100609949	 0.0721122453	 0.0382415981	 0.319241
C	-1.3448126554	-0.5457659084	-0.2979470899	-0.428674
N	 1.0726057804	-0.602931185	-0.8033109929	-0.16367
C	 2.322775955	-0.6042651481	 0.0430208377	-0.040773
C	 2.0508752883	 0.0546166112	 1.3959321162	-0.32993
C	 0.6463126757	-0.5881747521	 1.2844026797	 0.342468
O	-0.1615679382	-0.7992260144	 2.3840387645	-0.481257
C	 1.2785911888	-1.6319315434	 0.2455077848	-0.149078
H	 0.947716417	 2.0476250664	-0.0225238755	 0.117845
H	-0.4776811155	 1.8745317441	-1.0450382407	 0.121733
H	-0.6682646913	 2.0163327856	 0.7096484798	 0.122234
H	-1.6233859536	-0.3051925337	-1.3282549949	 0.117745
H	-1.3268329454	-1.6336716273	-0.1928555896	 0.117777
H	-2.1156378332	-0.1553203858	 0.3729031489	 0.121205
H	 3.2612194772	-0.6773688847	-0.4900377183	 0.098653
H	 2.6457328076	-0.4375160185	 2.1736432036	 0.093835
H	 2.1242147486	 1.1394396108	 1.5127419124	 0.10099
H	 0.3799669387	-1.1036221233	 3.1196308934	 0.285596
H	 1.2377197029	-2.7010464738	 0.0831559616	 0.096502
157.8978	185.2813	205.7204	244.6357	290.4841	301.19	336.8856	380.6464	434.5462	498.6439	551.3505	637.1996	652.1895	747.743	786.4753	815.3451	844.929	911.1706	941.5085	947.8031	966.1875	978.6288	991.3143	1017.5426	1026.9103	1063.3013	1118.3332	1140.055	1187.3759	1200.8921	1228.4593	1253.0901	1256.3745	1300.5075	1335.5199	1393.678	1401.8476	1419.3086	1476.2872	1481.3368	1497.7849	1498.9452	1520.9508	3037.8867	3040.6649	3045.003	3091.6501	3103.162	3116.267	3119.5455	3129.0654	3194.4364	3210.3577	3811.3672
CC1(C)N2C3CC1(O)C23	CC1(C)N2[C@H]3C[C@]1(O)[C@@H]23	
InChI=1S/C7H11NO/c1-6(2)7(9)3-4-5(7)8(4)6/h4-5,9H,3H2,1-2H3	InChI=1S/C7H11NO/c1-6(2)7(9)3-4-5(7)8(4)6/h4-5,9H,3H2,1-2H3/t4-,5-,7-,8?/m0/s1
