20
gdb 86624	3.5644	1.02251	0.89083	1.5653	75.83	-0.2353	0.0568	0.2921	1341.169	0.170264	-440.229719	-440.220613	-440.219669	-440.264071	34.183	
O	 0.2198808509	 0.6143826614	-1.1421804713	-0.4411
C	-0.1324231888	-0.3630146734	-0.2002388881	 0.145496
C	 0.4247852289	-0.2566506132	 1.2486065354	-0.293939
C	-1.0014506008	-0.5600518333	 1.7887860157	 0.035477
C	-1.5809745211	-0.2676041358	 0.383002277	 0.05307
O	-2.0618314666	 1.0689400376	 0.3367543797	-0.446856
N	-1.163815817	-1.9603215581	 2.1378680624	-0.068641
C	-0.9556566471	-2.3032370903	 3.5406469179	-0.221643
C	-2.3261852932	-2.2924790192	 2.9568230651	-0.226832
H	-0.0850870243	 1.4538142044	-0.7745888385	 0.274418
H	 0.0690596082	-1.3359889938	-0.6527071372	 0.098941
H	 1.211690544	-0.9554178115	 1.5381812191	 0.106737
H	 0.7419730989	 0.7634760211	 1.4812224475	 0.100426
H	-1.3750642908	 0.1247615928	 2.5664404711	 0.062643
H	-2.3288620108	-0.9797257105	 0.0154940825	 0.069696
H	-2.3659331083	 1.2300467	-0.5631399465	 0.289955
H	-0.4427896655	-3.2419728037	 3.728891389	 0.117256
H	-0.703627006	-1.4985387878	 4.2295062099	 0.112313
H	-2.9874610196	-1.4809742759	 3.256194548	 0.115529
H	-2.8285475909	-3.2235361208	 2.7111098413	 0.117052
54.8132	80.7815	163.6173	190.9845	232.6296	262.3509	314.6828	389.8909	406.8925	481.7363	555.2248	618.4544	714.4665	746.0366	825.1822	858.9985	905.3163	917.4213	946.0372	977.5672	1003.8885	1044.196	1061.8454	1093.3828	1111.2053	1118.8416	1124.5748	1137.83	1173.3319	1175.0771	1209.856	1224.7656	1261.6761	1267.0092	1307.4458	1317.8177	1322.2493	1360.6185	1417.0476	1434.2292	1467.1085	1493.0628	1521.059	2972.1845	3035.8116	3066.0878	3096.1565	3096.6072	3101.2485	3128.7384	3179.2942	3193.6328	3768.5241	3807.8561
OC1CC(C1O)N1CC1	O[C@H]1C[C@@H]([C@H]1O)N1CC1	
InChI=1S/C6H11NO2/c8-5-3-4(6(5)9)7-1-2-7/h4-6,8-9H,1-3H2	InChI=1S/C6H11NO2/c8-5-3-4(6(5)9)7-1-2-7/h4-6,8-9H,1-3H2/t4-,5-,6+/m0/s1
