18
gdb 90516	4.61484	0.91646	0.89808	0.9786	77.73	-0.2358	0.0417	0.2775	1329.0133	0.145926	-401.848381	-401.839665	-401.838721	-401.882292	33.116	
O	 0.241173672	 1.3595219048	 0.1788264136	-0.43517
C	 0.0797499523	-0.0306583204	 0.0163261978	 0.139247
C	 0.283496672	-0.88663589	 1.3091178819	-0.293139
C	-1.2012189037	-1.296988405	 1.2454661054	-0.039038
C	-1.3980895713	-0.4912191424	-0.0240648589	-0.111913
N	-1.5630593689	-1.9272803652	-0.0027265492	-0.072169
C	-0.6687230995	-2.8363281875	-0.7272837789	-0.314133
C	-0.6829283489	-4.1674154123	-0.1294462907	 0.328927
C	-0.6784870031	-5.258529412	 0.3728407032	-0.448194
H	-0.3246202932	 1.6437967676	 0.9059192326	 0.280352
H	 0.695117487	-0.2916965116	-0.8493329745	 0.09018
H	 1.019748148	-1.695909178	 1.2904741807	 0.110579
H	 0.5067126428	-0.2340783153	 2.1573069614	 0.105442
H	-1.8620057241	-1.4374915969	 2.0940645286	 0.097949
H	-2.2255330728	 0.1286016713	-0.3579570354	 0.097142
H	-1.0351108676	-2.889422305	-1.7595632954	 0.139552
H	 0.3735908288	-2.4885001485	-0.7855507122	 0.125229
H	-0.6799517197	-6.2262287238	 0.8099072	 0.199156
36.2971	104.5474	176.6667	246.3679	279.6698	334.3781	347.8733	382.8563	461.1934	520.9782	579.65	613.7068	658.8464	740.7663	769.3478	835.8237	888.1692	910.7075	943.6901	970.6509	989.3757	1018.0696	1036.4733	1050.2951	1065.131	1119.3307	1140.2214	1212.0865	1223.569	1257.5395	1264.6669	1281.1501	1302.4664	1357.1565	1392.5387	1437.5911	1472.2409	1493.8835	2244.073	2993.385	3047.7552	3053.6441	3068.9653	3108.8824	3151.729	3171.6797	3506.2817	3791.5576
OC1CC2C1N2CC#C	O[C@H]1C[C@H]2[C@@H]1N2CC#C	
InChI=1S/C7H9NO/c1-2-3-8-5-4-6(9)7(5)8/h1,5-7,9H,3-4H2	InChI=1S/C7H9NO/c1-2-3-8-5-4-6(9)7(5)8/h1,5-7,9H,3-4H2/t5-,6-,7-,8?/m0/s1
