23
gdb 111140	3.31667	1.07678	0.95051	1.3665	86.5	-0.253	0.0763	0.3293	1361.4789	0.205012	-388.240677	-388.231205	-388.23026	-388.274595	37.111	
C	 0.1468648789	 1.4364736557	 0.1858848372	-0.372464
C	 0.1071534414	-0.0913531463	 0.3182900515	-0.231309
C	-1.3026139153	-0.6460330899	 0.137238248	 0.06381
C	-1.9832947541	-0.7449501869	-1.2706307995	-0.138869
C	-1.0557070738	-1.9630384381	-1.565153458	-0.241719
C	-1.5658942441	-2.1696362161	-0.1024442592	-0.126415
C	-2.9821620205	-1.7825222078	-0.6289733607	 0.478875
C	-4.0982819201	-1.3302577871	 0.3078806801	-0.488026
O	-3.5161068181	-2.7724013412	-1.4955467933	-0.485631
H	 1.1521639113	 1.8258435825	 0.3745764911	 0.110302
H	-0.1511124646	 1.7542314513	-0.8190664617	 0.116831
H	-0.5344337238	 1.9152891533	 0.8983732168	 0.111148
H	 0.819506744	-0.532017092	-0.3846951647	 0.099268
H	 0.4580752932	-0.3755172377	 1.3195003409	 0.094299
H	-1.9320222996	-0.195862326	 0.9089770264	 0.05427
H	-2.2347665776	 0.0775862796	-1.9450757236	 0.056886
H	-1.4095152652	-2.6752366488	-2.3055659961	 0.114966
H	 0.005250314	-1.7540261717	-1.6893830819	 0.087608
H	-1.3305288171	-2.9954503743	 0.5727364529	 0.06324
H	-3.7993748446	-0.5846449538	 1.0445022674	 0.125651
H	-4.9174463271	-0.8929967645	-0.278156927	 0.104918
H	-4.5012615655	-2.1983441421	 0.8384740399	 0.128069
H	-4.3198970816	-2.417131578	-1.8880727965	 0.274291
65.5298	141.876	180.921	207.1277	223.6313	259.2427	284.7989	358.2794	404.743	457.9918	465.4519	528.4387	578.1781	680.7259	731.5821	770.3344	813.2018	860.5622	894.7106	901.6241	949.3004	964.216	1014.833	1029.6772	1038.9176	1058.0988	1087.4229	1095.088	1117.1955	1138.7559	1155.2292	1171.2318	1201.0719	1210.845	1223.3859	1249.2254	1258.1054	1297.9462	1352.0674	1372.449	1407.1018	1411.2023	1443.6017	1484.5445	1495.07	1498.5027	1500.9528	1506.0841	1527.0339	3020.7896	3024.1193	3029.228	3062.0986	3073.456	3078.7498	3086.9494	3091.417	3099.9036	3102.6729	3116.8873	3143.6851	3179.2566	3812.4802
CCC1C2CC1C2(C)O	CC[C@H]1[C@H]2C[C@@H]1[C@]2(C)O	
InChI=1S/C8H14O/c1-3-5-6-4-7(5)8(6,2)9/h5-7,9H,3-4H2,1-2H3	InChI=1S/C8H14O/c1-3-5-6-4-7(5)8(6,2)9/h5-7,9H,3-4H2,1-2H3/t5-,6+,7-,8+
