23
gdb 116456	2.55667	1.28046	0.99487	1.6492	81.51	-0.2553	0.0838	0.339	1303.0121	0.206555	-425.440893	-425.431566	-425.430622	-425.474695	35.637	
C	-0.0219280594	 1.6102474175	-0.0535004972	-0.387177
C	 0.0386874524	 0.0816164994	 0.0136783756	-0.200754
C	 0.7331025956	-0.5356679423	-1.1952701854	 0.13856
O	 2.1010961358	-0.1129612487	-1.1726316905	-0.254981
C	 2.7986567484	-0.552369367	-2.3064306229	 0.018813
O	 2.8312373447	-1.9498462994	-2.4180684648	-0.237126
C	 1.5138156128	-2.4786323741	-2.511712946	-0.098605
C	 0.673822946	-2.0770690816	-1.2870851569	-0.011416
C	 1.1661956892	-2.7854641848	-0.018574047	-0.391556
H	 0.9838364927	 2.030058963	-0.1351526339	 0.134796
H	-0.5981357772	 1.9460384875	-0.9231395873	 0.109373
H	-0.4956514476	 2.0256281959	 0.8408731547	 0.109965
H	 0.5680494871	-0.2282981416	 0.9209470858	 0.111541
H	-0.973884306	-0.3362639147	 0.0774298231	 0.093732
H	 0.2649979286	-0.1311647611	-2.1124899538	 0.056554
H	 2.340653131	-0.1171297201	-3.2168338965	 0.072335
H	 3.8314409612	-0.2130983156	-2.2028213343	 0.115334
H	 1.0321913413	-2.1142508645	-3.435366773	 0.084096
H	 1.6208364826	-3.5643617697	-2.5883424813	 0.106866
H	-0.3679910569	-2.3637381638	-1.4844986849	 0.069402
H	 2.1855509096	-2.4758706072	 0.2238643006	 0.139051
H	 0.5266893569	-2.5676231973	 0.8409551791	 0.113592
H	 1.1675607013	-3.8709272001	-0.1624875733	 0.107605
100.8837	128.8759	171.7864	204.4709	207.4449	244.0546	302.3324	335.5942	366.0167	419.6406	471.6199	541.5585	612.999	751.368	760.3243	809.7778	877.3376	929.0961	935.2011	973.676	985.3008	1029.267	1037.4965	1061.573	1097.4233	1110.8356	1134.4081	1163.5081	1191.156	1211.0471	1267.5823	1295.2562	1307.9439	1317.5696	1337.8568	1358.9764	1381.783	1390.3925	1406.9514	1413.3024	1421.3518	1447.9036	1476.9026	1492.5838	1497.6247	1501.9585	1505.3674	1509.8006	1510.4711	2906.4784	2923.1563	2961.0959	3019.6108	3032.2672	3036.5071	3043.723	3075.9538	3085.3483	3102.6268	3106.7955	3109.8873	3125.0626	3131.1967
CCC1OCOCC1C	CC[C@H]1OCOC[C@H]1C	
InChI=1S/C7H14O2/c1-3-7-6(2)4-8-5-9-7/h6-7H,3-5H2,1-2H3	InChI=1S/C7H14O2/c1-3-7-6(2)4-8-5-9-7/h6-7H,3-5H2,1-2H3/t6-,7-/m1/s1
