15
gdb 44383	3.62374	1.68745	1.42798	5.5988	63.72	-0.274	0.0401	0.3141	894.6622	0.114909	-457.774451	-457.768208	-457.767264	-457.805163	25.056	
O	-0.0287236934	 0.1011256565	-0.7414583011	-0.356706
C	 0.0092451138	 1.1069474247	-0.1025803834	 0.463726
O	-1.1207455694	 1.6410364214	 0.4319854835	-0.259116
C	-1.1664944997	 2.9882881003	 0.8740926108	 0.116496
C	-0.5864680175	 3.4109624844	 2.1874719106	-0.095586
C	 0.6168723674	 2.5234947445	 2.5032793643	-0.270574
C	 1.1775057478	 2.8347102947	 1.0781904561	 0.099963
O	 1.1729926291	 1.7496216513	 0.1428342765	-0.25786
C	 0.0520563142	 3.8324278173	 0.8388009996	-0.139736
H	-2.1078474099	 3.436908459	 0.5805680078	 0.125596
H	-1.1457331057	 4.0137518358	 2.8914098676	 0.104454
H	 1.2615744951	 2.9414635133	 3.278611336	 0.121402
H	 0.4156385966	 1.4728637417	 2.7287080886	 0.127869
H	 2.1937570219	 3.2221193488	 1.0592218466	 0.11223
H	 0.1206460799	 4.7846072764	 0.3298240165	 0.107842
111.6917	211.1888	380.6733	439.1289	466.2393	530.2637	598.777	721.1515	748.2831	771.32	813.7167	824.3529	872.4	881.7195	955.5909	969.7678	1007.0205	1026.1935	1038.5224	1064.0865	1084.3406	1112.6887	1146.5518	1173.8345	1211.4941	1234.3458	1259.6994	1303.1121	1345.4475	1394.5809	1429.8378	1487.5397	1891.0932	3067.7965	3123.3154	3142.7264	3191.5303	3197.4399	3209.9589
O=C1OC2C3CC(O1)C23	O=C1O[C@H]2[C@H]3C[C@@H](O1)[C@@H]23	
InChI=1S/C6H6O3/c7-6-8-3-1-2-4(3)5(2)9-6/h2-5H,1H2	InChI=1S/C6H6O3/c7-6-8-3-1-2-4(3)5(2)9-6/h2-5H,1H2/t2-,3+,4-,5-/m0/s1
