21
gdb 76656	2.66392	1.04078	0.96006	1.9331	79.96	-0.2585	0.0167	0.2752	1382.9295	0.179527	-424.256732	-424.246083	-424.245139	-424.293677	37.221	
C	 0.1516450251	 1.431579676	 0.3506381203	-0.411435
C	 0.1723596775	-0.044160816	 0.0170204569	-0.047743
C	 0.7168353636	-0.5829376331	-1.3014761277	-0.076758
C	 1.2705374392	 0.3128734626	-2.3894145107	-0.404213
C	 1.4612228743	-0.8257877783	-0.0199558838	 0.109045
O	 2.6788534219	-0.1144230779	 0.1254674199	-0.24388
C	 3.3114011584	-0.2432025728	 1.3180705005	 0.430618
C	 4.5907405654	 0.5587327721	 1.3204022438	-0.481527
O	 2.9005547659	-0.9155614724	 2.2274380319	-0.346292
H	 1.0608586028	 1.9396081271	 0.0230788795	 0.123267
H	-0.7015966737	 1.9292145041	-0.1222532909	 0.118002
H	 0.0651411767	 1.5773095657	 1.4326897792	 0.125123
H	-0.6714776799	-0.5957062249	 0.4241751344	 0.089583
H	 0.1958693586	-1.457101439	-1.6844985448	 0.088399
H	 1.8707149124	 1.1301352111	-1.9861671091	 0.128292
H	 1.9136817448	-0.2596941894	-3.0662688962	 0.119387
H	 0.4612612001	 0.7462698163	-2.9866347043	 0.117146
H	 1.5024809298	-1.8137081219	 0.4219241737	 0.116391
H	 4.370167004	 1.6179464178	 1.1595591837	 0.148317
H	 5.0985905789	 0.4269138709	 2.2749098176	 0.14832
H	 5.2398479141	 0.2342212821	 0.502387596	 0.149959
31.2155	70.5946	97.2991	129.4667	151.0591	155.1817	214.3494	232.5551	278.3482	378.6616	453.9164	548.1302	558.2028	610.6485	651.3307	760.7215	772.9878	872.4563	918.4482	952.7454	977.1681	1004.2105	1049.5176	1053.7111	1063.2969	1111.9835	1137.4054	1156.6938	1172.5545	1185.202	1256.9806	1259.8043	1368.1478	1373.9045	1394.8448	1416.5707	1423.7929	1454.4335	1469.7218	1476.7742	1488.3359	1495.5258	1502.0193	1515.5526	1830.3263	3036.5251	3039.8508	3057.1122	3092.5586	3094.4128	3118.6911	3121.9189	3128.1322	3135.6078	3145.0966	3169.4301	3186.9596
CC1C(C)C1OC(C)=O	C[C@H]1[C@@H](C)[C@H]1OC(=O)C	
InChI=1S/C7H12O2/c1-4-5(2)7(4)9-6(3)8/h4-5,7H,1-3H3	InChI=1S/C7H12O2/c1-4-5(2)7(4)9-6(3)8/h4-5,7H,1-3H3/t4-,5+,7-
