18
gdb 17191	4.98336	1.58773	1.42176	1.8258	73.06	-0.2323	0.0885	0.3208	937.9651	0.153176	-347.712282	-347.705088	-347.704144	-347.743227	28.64	
C	-0.0951634457	 1.5657059199	-0.0007604676	-0.437511
C	-0.0150326422	 0.051223411	 0.0101648167	 0.045093
C	 1.2378973684	-0.6475305948	-0.6018614317	-0.066181
O	 2.0488335437	-0.1381997457	 0.5347321349	-0.312546
C	 0.7944779068	-0.658430615	 1.1387643438	-0.06616
C	 0.9250833392	-1.8913441279	 0.2374883693	 0.476545
C	 0.1307580986	-3.1335257673	 0.0274413602	-0.3606
C	 1.6115910897	-3.1939477082	 0.4042800511	-0.364273
H	 0.8744343431	 2.0009938903	 0.2488582356	 0.137884
H	-0.4003855886	 1.9319758518	-0.987042057	 0.11338
H	-0.8359831616	 1.9212678372	 0.7236908222	 0.113381
H	-0.9679022389	-0.4284646082	-0.2355793828	 0.073293
H	 1.6654452131	-0.5673183129	-1.6025197152	 0.090278
H	 0.6909431581	-0.5912728807	 2.2228857644	 0.090278
H	-0.5961196922	-3.4215128632	 0.7805171821	 0.115604
H	-0.1464090695	-3.4105993759	-0.9848918509	 0.115605
H	 2.3153512012	-3.5114714609	-0.3583430288	 0.117965
H	 1.8657388968	-3.5224253395	 1.4068781338	 0.117966
162.9664	204.1266	218.891	262.334	327.3243	356.2372	472.3188	606.9073	718.2072	733.8044	758.0454	775.0353	797.6678	874.2802	880.2392	917.0337	951.5943	1007.794	1029.084	1046.0722	1062.888	1078.4863	1107.4527	1110.5971	1145.0445	1147.6364	1178.3352	1193.6912	1212.1118	1221.4497	1264.7143	1388.0887	1406.2094	1426.8054	1461.8441	1493.1549	1505.8147	1524.8015	3035.0355	3061.0255	3091.4502	3105.7964	3111.92	3122.8867	3128.2117	3135.5653	3200.5034	3214.9211
CC1C2OC1C21CC1	C[C@H]1[C@H]2O[C@@H]1C12CC1	
InChI=1S/C7H10O/c1-4-5-7(2-3-7)6(4)8-5/h4-6H,2-3H2,1H3	InChI=1S/C7H10O/c1-4-5-7(2-3-7)6(4)8-5/h4-6H,2-3H2,1H3/t4-,5+,6-
