15
gdb 46449	3.6029	1.21055	1.10416	2.088	70.84	-0.2392	-0.0423	0.197	1090.3849	0.11374	-416.818338	-416.810782	-416.809838	-416.850602	28.596	
O	 0.0088523752	 0.0230646631	 0.1621386836	-0.309943
C	 0.0047203322	 1.2155557566	 0.0041484509	 0.415331
C	-1.2505432139	 2.0907162474	-0.1946981077	-0.303907
N	-0.8131728058	 3.3980422128	-0.7137957569	-0.358234
C	 0.6398725203	 3.464073644	-0.5556156464	 0.216095
C	 1.1500374782	 3.3331477726	 0.845366028	-0.311005
C	 1.1972950273	 2.11695422	-0.070453974	-0.214815
C	 1.3468240447	 4.2686607196	-1.5114692216	 0.216639
N	 1.9068524008	 4.9107529823	-2.2933620995	-0.330602
H	-1.9451067959	 1.5944940594	-0.8758734932	 0.149857
H	-1.7657970534	 2.1951267539	 0.7687350359	 0.147528
H	-1.0296869	 3.4629708842	-1.7019682566	 0.245
H	 2.1069103214	 3.7856862944	 1.0740052368	 0.156117
H	 0.4200666196	 3.3684481055	 1.646854879	 0.144855
H	 2.1530583394	 1.7102305743	-0.3722461485	 0.137083
97.5597	128.2102	167.5154	266.5493	379.2849	428.4362	491.6805	541.6749	561.5092	596.7834	635.843	690.6736	767.0615	799.7425	861.6728	911.7244	938.7604	987.8747	1025.0864	1048.5458	1073.5634	1077.4517	1162.9038	1203.0122	1236.0537	1258.9733	1319.047	1353.0052	1461.2741	1475.6294	1490.816	1845.8875	2358.284	3032.2223	3110.4818	3143.9962	3214.641	3240.8411	3541.7454
O=C1CNC2(CC12)C#N	O=C1CN[C@]2(C[C@@H]12)C#N	
InChI=1S/C6H6N2O/c7-3-6-1-4(6)5(9)2-8-6/h4,8H,1-2H2	InChI=1S/C6H6N2O/c7-3-6-1-4(6)5(9)2-8-6/h4,8H,1-2H2/t4-,6+/m0/s1
