21
gdb 106792	2.51825	1.51548	1.10867	1.7012	83.41	-0.2387	0.0083	0.247	1188.5628	0.18115	-387.098012	-387.08888	-387.087936	-387.131562	35.112	
C	 0.0388610802	 1.4148744048	-0.5242258835	-0.377182
C	 0.0351576077	 0.1175055957	 0.2963396183	-0.290805
C	-1.3344342014	-0.5064037537	 0.3780144916	 0.336793
O	-1.8624349826	-1.0453335682	-0.8690027162	-0.343898
C	-1.6765207277	-1.9431039348	 0.2359136618	 0.329175
C	-0.7119970968	-3.0777795831	 0.0219185121	-0.485404
C	-2.9710840772	-2.1892524191	 1.017428626	-0.331766
C	-3.327559088	-0.8199636508	 1.5529592206	-0.08176
C	-2.4191940642	 0.0985128156	 1.2209397016	-0.124835
H	 1.0470272344	 1.835031326	-0.5860051859	 0.111155
H	-0.3168942565	 1.2219038097	-1.540189347	 0.136869
H	-0.6120365079	 2.175012048	-0.0797418138	 0.116713
H	 0.7334956229	-0.5962036021	-0.1516408321	 0.103323
H	 0.3921626661	 0.315226054	 1.3151330087	 0.100663
H	 0.1771442866	-2.7445108006	-0.5174433628	 0.129267
H	-0.4024479972	-3.5135742419	 0.977763901	 0.119585
H	-1.1832014878	-3.8706158944	-0.5701727662	 0.126933
H	-3.7544840598	-2.5969781124	 0.3664826712	 0.121811
H	-2.8182777599	-2.9175431256	 1.8249106699	 0.107223
H	-4.2377888286	-0.6328718549	 2.1116091816	 0.098569
H	-2.4485404921	 1.1482334977	 1.487354563	 0.097572
76.0858	143.5231	169.4803	199.9544	221.5478	277.7381	303.6889	356.5337	407.3234	494.9639	523.5948	585.6309	677.0246	705.7744	741.1645	784.1968	815.1797	883.6927	926.0319	941.5362	950.6949	966.5054	977.0234	1010.2941	1084.5297	1086.2003	1102.6119	1156.0749	1192.6782	1211.6574	1224.2626	1298.6732	1317.5405	1361.9959	1377.3748	1407.255	1410.5178	1443.8447	1460.1525	1472.6751	1486.1904	1497.1193	1498.3647	1509.9189	1668.3666	3021.3013	3029.6485	3034.5759	3039.3748	3057.4496	3077.0166	3093.4553	3107.2525	3120.1583	3126.8886	3187.6877	3213.8475
CCC12OC1(C)CC=C2	CC[C@@]12O[C@]1(C)CC=C2	
InChI=1S/C8H12O/c1-3-8-6-4-5-7(8,2)9-8/h4,6H,3,5H2,1-2H3	InChI=1S/C8H12O/c1-3-8-6-4-5-7(8,2)9-8/h4,6H,3,5H2,1-2H3/t7-,8+/m1/s1
