12
gdb 129024	3.87727	1.22538	0.93111	2.2069	80.11	-0.2496	-0.0876	0.162	1142.5243	0.075244	-431.582042	-431.574251	-431.573307	-431.61478	28.391	
N	 0.0133535714	 1.3725555819	 0.0086058913	-0.505808
C	-0.0482688267	 0.1007682896	 0.0017969805	 0.39201
C	-1.2510225363	-0.6800639842	 0.0040582522	-0.278237
C	-1.1756287034	-2.0323823116	-0.0040804926	 0.274328
O	-0.006357932	-2.7024675772	-0.0144741683	-0.301693
N	 1.2701439403	-1.879502892	-0.0170056027	 0.040494
N	 1.1791354565	-0.6757487603	-0.0096369892	-0.114043
C	-2.3117933725	-2.8845982017	-0.002569933	 0.240604
C	-3.2711722993	-3.6101249236	-0.0013409688	-0.34833
H	 0.9890001122	 1.6754023997	 0.0047986246	 0.237464
H	-2.2087232749	-0.1808980305	 0.0122580137	 0.144717
H	-4.1199953653	-4.2498438201	-0.0002711177	 0.218494
74.1583	122.3865	136.2998	326.9224	333.4178	412.9234	413.5488	456.3671	554.296	609.2668	642.1287	683.2393	687.8844	738.4968	742.1079	864.6805	882.3878	909.6998	978.737	1109.3833	1176.8844	1290.2106	1371.9657	1614.9121	1713.7554	1727.5874	2235.2551	3248.3118	3474.6058	3496.5616
N=C1C=C(ON=N1)C#C	[NH]C1=N[N]OC(=C1)C#C	
InChI=1S/C5H3N3O/c1-2-4-3-5(6)7-8-9-4/h1,3,6H	InChI=1S/C5H3N3O/c1-2-4-3-5(6)7-8-9-4/h1,3,6H
