16
gdb 126106	6.67976	0.6452	0.59268	3.5091	84.18	-0.2337	-0.0227	0.2111	1824.2063	0.124259	-400.724741	-400.716173	-400.715229	-400.759743	30.154	
C	 0.0572145548	 1.5518126328	 0.0091621933	-0.366365
C	-0.0086118627	 0.0134076656	 0.0032537053	-0.328899
C	-1.3734295861	-0.4991391261	 0.0124472791	 0.223531
C	-2.5109580706	-0.9017727772	 0.0203668239	-0.129805
C	-3.8303061903	-1.4039062685	 0.0299515153	 0.059418
C	-5.0172692552	-0.7253437842	 0.0417590637	-0.041862
O	-6.0499146448	-1.5735898407	 0.0480569351	-0.158771
N	-5.56659539	-2.8812597953	 0.0402188111	-0.118346
C	-4.2655952251	-2.7693666677	 0.0292145726	-0.085943
H	 1.0985109372	 1.8863395183	 0.001840478	 0.118964
H	-0.4443355923	 1.9659089799	-0.8695787194	 0.130588
H	-0.4295106775	 1.9584866544	 0.8996276005	 0.130592
H	 0.5178617456	-0.3735877241	-0.8789239553	 0.134339
H	 0.5324948908	-0.380947771	 0.8732338956	 0.134345
H	-5.2588174599	 0.3256525671	 0.0468504448	 0.158095
H	-3.6524655937	-3.6588950733	 0.0212844666	 0.140119
27.2785	72.2521	103.616	184.4376	220.1119	316.8855	413.5751	475.467	486.6464	568.7464	613.3099	669.2248	786.7556	836.2837	877.1117	890.6741	909.692	932.4308	994.5897	1060.2902	1089.9772	1103.3864	1157.4218	1211.1776	1284.1627	1306.8087	1341.2294	1360.4025	1410.7373	1474.3111	1485.9218	1495.4104	1505.9228	1634.6846	2359.0541	3018.5901	3045.4466	3046.6861	3121.0381	3125.3155	3253.2597	3272.9923
CCC#CC1=CON=C1	CCC#Cc1conc1	
InChI=1S/C7H7NO/c1-2-3-4-7-5-8-9-6-7/h5-6H,2H2,1H3	InChI=1S/C7H7NO/c1-2-3-4-7-5-8-9-6-7/h5-6H,2H2,1H3
