13
gdb 27837	2.08869	1.89744	0.99436	3.3793	65.81	-0.2255	-0.0249	0.2006	1080.2616	0.090054	-489.971141	-489.963444	-489.9625	-490.00329	28.913	
N	 0.0476018642	 1.3440814643	-0.0613708002	-0.560779
C	-0.0144628179	-0.0073367005	-0.0262963347	 0.430195
C	-1.2067886967	-0.703464142	-0.0075210789	-0.36617
C	-1.2237273796	-2.1159611923	 0.0007415349	 0.424777
O	-2.1071374416	-2.9203452725	 0.0154283003	-0.338937
O	 0.1413868584	-2.6917018506	-0.0096820648	-0.277863
C	 1.1983244234	-1.8995382962	-0.0224365048	 0.506307
O	 2.3507716102	-2.5634370806	-0.0246659482	-0.377485
N	 1.2192919606	-0.6124884816	-0.0311671727	-0.407916
H	 0.949625116	 1.7737815422	 0.0524893166	 0.273099
H	-0.7765942298	 1.9012759143	 0.0752295947	 0.269332
H	-2.1639603167	-0.2004618141	-0.0032714084	 0.105695
H	 2.1467370695	-3.5086305205	-0.0161260438	 0.319746
153.5912	166.7501	201.7768	209.2002	337.3448	358.1901	468.128	512.0612	516.8498	555.0484	597.1844	634.2931	712.7775	717.7351	782.3936	800.4629	804.0499	968.1627	1047.3818	1091.0823	1169.9484	1264.0637	1319.1731	1425.8929	1483.0707	1593.1305	1653.2595	1705.5832	1895.791	3222.6156	3621.0997	3752.6827	3788.292
NC1=CC(=O)OC(O)=N1	Nc1cc(=O)oc(O)n1	
InChI=1S/C4H4N2O3/c5-2-1-3(7)9-4(8)6-2/h1H,5H2,(H,6,8)	InChI=1S/C4H4N2O3/c5-2-1-3(7)9-4(8)6-2/h1H,5H2,(H,6,8)
