16
gdb 43804	2.4833	1.6732	1.17347	4.1931	70.57	-0.2462	0.0092	0.2554	1048.1495	0.123043	-437.855827	-437.847731	-437.846787	-437.888627	30.345	
O	-0.0134177475	 0.0212989129	-0.0442698969	-0.363922
C	 0.0074706529	 1.220115084	-0.0239070158	 0.440022
N	-0.9773339049	 2.1905437385	-0.0224772682	-0.47299
C	-0.074838356	 3.3316307843	 0.0304983167	 0.378697
C	-0.1680294544	 4.6021035555	-0.7442448928	-0.314719
C	-0.2548610587	 4.6117874242	 0.7778269362	-0.331089
C	 1.0747365644	 2.3314137457	 0.0484278832	 0.160499
C	 2.3787871308	 2.3384968465	 0.7061921499	-0.261261
O	 2.2451159471	 2.4145531993	-0.7227993219	-0.259948
H	-1.977512886	 2.1206615983	 0.0831348316	 0.25566
H	 0.7415309312	 4.9623154925	-1.2137772835	 0.135942
H	-1.076848476	 4.7995133537	-1.3026393214	 0.122796
H	-1.2247412428	 4.8099430942	 1.2227760718	 0.121319
H	 0.5826866113	 5.0030199584	 1.3465004957	 0.123659
H	 2.7313725385	 3.2475800253	 1.1905555879	 0.123837
H	 2.78713626	 1.4041905167	 1.0863228973	 0.141497
73.1883	161.6	187.7064	214.0548	256.2028	307.0495	363.5616	519.5837	533.6129	562.9611	649.2911	726.4665	765.9136	807.2284	870.9981	885.832	925.0253	959.3711	977.7623	1016.947	1055.4074	1072.9072	1075.924	1122.455	1154.0359	1165.7855	1183.7507	1239.0828	1297.4339	1406.7946	1455.6353	1461.7418	1510.5499	1541.7324	1905.2454	3090.1859	3126.0114	3131.9534	3184.3166	3207.1044	3223.9365	3633.141
O=C1NC2(CC2)C11CO1	O=C1NC2(CC2)[C@]21CO2	
InChI=1S/C6H7NO2/c8-4-6(3-9-6)5(7-4)1-2-5/h1-3H2,(H,7,8)	InChI=1S/C6H7NO2/c8-4-6(3-9-6)5(7-4)1-2-5/h1-3H2,(H,7,8)/t6-/m1/s1
