19
gdb 119386	3.05949	1.08601	0.95832	1.4954	72.73	-0.2517	0.0638	0.3155	1303.4628	0.157525	-460.077924	-460.069036	-460.068092	-460.112265	32.848	
C	 0.495441435	 1.3765524162	-0.2187511904	-0.219625
O	 0.7874763662	-0.0019731854	-0.2162407049	-0.239178
C	-0.0987427214	-0.7497783016	-1.0162298545	-0.214287
C	 0.3551710664	-2.1782133241	-0.9713498092	 0.358984
C	 0.5260242795	-3.1413348531	 0.219824679	-0.255084
C	 0.6437222099	-3.9581979383	-1.0811694924	-0.01545
O	-0.5174685235	-3.1951900263	-1.6342653699	-0.382768
C	 1.5692677999	-2.8606173563	-1.6778421669	 0.163264
O	 1.6599159607	-2.749156047	-3.0564871444	-0.447431
H	 0.5633888877	 1.8049289653	-1.2307578508	 0.109714
H	-0.5131418818	 1.5798474449	 0.1739439453	 0.107092
H	 1.231144331	 1.865774201	 0.4236763861	 0.130433
H	-1.1360102434	-0.6752012673	-0.6489387474	 0.101774
H	-0.0883783899	-0.3972692393	-2.0616036917	 0.099879
H	 1.4140548296	-3.0286733855	 0.8452897043	 0.108258
H	-0.3841808146	-3.3255000132	 0.7900687876	 0.113113
H	 0.6414704253	-5.0372306696	-1.2336997773	 0.09936
H	 2.5592629142	-2.7238313784	-1.2395642974	 0.09652
H	 0.7567169894	-2.8950748519	-3.3760262851	 0.285432
54.6956	80.6659	128.6584	199.9103	236.2507	292.9723	340.8276	386.9932	439.8627	513.6452	586.3889	689.9624	726.4448	754.0268	770.1239	881.5194	902.0751	928.4346	982.8467	1003.4397	1022.9526	1058.8543	1126.0878	1143.4449	1154.3165	1164.0639	1180.8189	1196.9848	1213.4559	1222.2717	1235.037	1265.8094	1308.759	1337.2418	1423.4736	1446.348	1479.2456	1484.9927	1498.5217	1501.2203	1522.9105	2955.5383	2975.9404	2988.8963	3020.8108	3075.7946	3110.6551	3118.755	3127.0881	3159.3632	3726.0651
COCC12CC(O1)C2O	COC[C@@]12C[C@@H](O1)[C@H]2O	
InChI=1S/C6H10O3/c1-8-3-6-2-4(9-6)5(6)7/h4-5,7H,2-3H2,1H3	InChI=1S/C6H10O3/c1-8-3-6-2-4(9-6)5(6)7/h4-5,7H,2-3H2,1H3/t4-,5-,6-/m1/s1
