23
gdb 104159	3.22689	0.99791	0.98848	2.672	81.48	-0.2362	0.0685	0.3048	1362.7656	0.204742	-425.436667	-425.426528	-425.425584	-425.471823	37.861	
C	 0.2260497827	 1.497227455	 0.1590438863	-0.396793
C	 0.0357707271	-0.0031443992	-0.0291083755	 0.154604
C	 0.752711926	-0.5906306184	-1.2607768023	-0.298214
C	 1.2435326762	-1.972118615	-0.7787769896	 0.288001
C	 0.1344875467	-3.0322684305	-0.8809604495	-0.436286
C	 2.4930244366	-2.4243067717	-1.5299557067	-0.131001
O	 2.9768617217	-3.6117375382	-0.9155076725	-0.426487
C	 1.5459785933	-1.641616571	 0.6965530247	-0.089951
O	 0.5506913865	-0.7127061013	 1.1069660392	-0.281194
H	 1.2903703654	 1.747154505	 0.2230059875	 0.113865
H	-0.2097236207	 2.0506916782	-0.6801398604	 0.108965
H	-0.2599451566	 1.8317229916	 1.0798744053	 0.123533
H	-1.0415019599	-0.2174086367	-0.0852170606	 0.072341
H	 0.0960216403	-0.6502938466	-2.1330143616	 0.100118
H	 1.6078779836	 0.0416147674	-1.5313829796	 0.091031
H	-0.2108774816	-3.138526166	-1.9155789628	 0.103149
H	 0.5069985208	-4.003375473	-0.5465754737	 0.134065
H	-0.7258043192	-2.7611323613	-0.2623543812	 0.123994
H	 2.2478041611	-2.5975712536	-2.5905082125	 0.085115
H	 3.2515614923	-1.6257034862	-1.4912465345	 0.08192
H	 3.7438087203	-3.9180335889	-1.4074578638	 0.289186
H	 1.493800918	-2.5145332567	 1.3527544583	 0.11162
H	 2.5531079795	-1.2041988328	 0.7941126955	 0.07842
41.9661	108.8063	133.7245	204.0985	237.3248	243.8845	254.9573	293.386	337.3863	348.5624	400.5094	421.2441	481.5199	625.248	659.1556	791.4209	826.6065	902.732	912.8818	942.3512	953.9504	981.9406	992.0284	1025.4196	1060.4318	1085.4477	1101.7338	1139.1346	1179.6443	1194.8898	1216.4028	1222.8189	1245.7792	1281.8575	1310.6903	1334.1094	1360.787	1383.6447	1395.4071	1406.0056	1409.7291	1455.6171	1484.8674	1485.7752	1494.8036	1496.5472	1506.1771	1513.6598	1526.6582	2957.8529	2966.2044	2988.8276	2990.4848	3025.8018	3032.2506	3035.8191	3085.0021	3091.9107	3102.3173	3103.5637	3114.7729	3127.3329	3835.3896
CC1CC(C)(CO)CO1	C[C@H]1C[C@@](C)(CO)CO1	
InChI=1S/C7H14O2/c1-6-3-7(2,4-8)5-9-6/h6,8H,3-5H2,1-2H3	InChI=1S/C7H14O2/c1-6-3-7(2,4-8)5-9-6/h6,8H,3-5H2,1-2H3/t6-,7-/m0/s1
