19
gdb 107114	3.66225	1.13235	1.0931	2.0879	75.17	-0.2295	0.0633	0.2929	1199.8262	0.157659	-422.949755	-422.941227	-422.940283	-422.982558	33.267	
C	-0.0715040486	 1.5187992722	-0.0197562533	-0.493984
C	 0.0395120738	 0.023105672	-0.0066352917	 0.319031
C	-0.8584851242	-0.9109376837	 0.7567218179	-0.332325
C	 0.6221358584	-0.9097290851	 1.0551622088	-0.201913
C	 1.4297693484	-1.6325723857	-0.0668518023	 0.397005
C	 2.7538027166	-2.3275169454	 0.0350932918	-0.181953
O	 3.2485160508	-2.6774546509	-1.238206171	-0.414495
O	 0.5076932409	-2.1660788456	-1.045418035	-0.29881
C	 0.8590640024	-0.7646573068	-1.0868598893	-0.114822
H	 0.8996262424	 1.9934114185	-0.2038567444	 0.120229
H	-0.7607891361	 1.8605770722	-0.8017174835	 0.124043
H	-0.4465568936	 1.8915106718	 0.9386316719	 0.122574
H	-1.4662371685	-0.4274805206	 1.5159795402	 0.110327
H	-1.3177780594	-1.7646443612	 0.2747499991	 0.133894
H	 1.0346098339	-0.6539435238	 2.0228073968	 0.092896
H	 3.4874895008	-1.6626441628	 0.5054912703	 0.117363
H	 2.6463195204	-3.2092245821	 0.6910898295	 0.097867
H	 2.4917936135	-3.0302685497	-1.7240251106	 0.292904
H	 1.260167108	-0.3769163634	-2.0160496753	 0.11017
99.4586	168.9092	173.9092	211.405	284.6082	313.4987	358.0052	430.2469	441.8806	502.2221	547.7962	630.3747	679.3176	763.6784	801.8858	843.0017	891.1061	906.824	929.6673	968.7235	991.0449	1007.8276	1042.122	1074.5612	1084.5867	1101.5557	1120.1489	1125.1084	1188.3652	1225.4675	1240.9844	1282.8334	1365.8222	1376.6866	1420.4187	1438.0796	1468.5387	1484.2569	1486.9832	1499.8097	1507.7184	2954.0299	3018.8745	3059.4904	3074.677	3098.5031	3135.0842	3188.1901	3195.6622	3227.8456	3772.5731
CC12CC1C1(CO)OC21	C[C@]12C[C@H]1[C@@]1(CO)O[C@@H]21	
InChI=1S/C7H10O2/c1-6-2-4(6)7(3-8)5(6)9-7/h4-5,8H,2-3H2,1H3	InChI=1S/C7H10O2/c1-6-2-4(6)7(3-8)5(6)9-7/h4-5,8H,2-3H2,1H3/t4-,5+,6+,7-/m1/s1
