23
gdb 121614	4.10808	0.59523	0.57022	3.7186	83.2	-0.2393	-0.0079	0.2314	2042.555	0.202223	-425.450876	-425.439233	-425.438289	-425.489435	40.373	
C	 0.1110078712	 1.4956018638	-0.1194430545	-0.384705
C	-0.009479682	-0.0230727346	 0.0444709684	-0.058263
C	 0.6599393397	-0.5030212835	 1.3492737679	-0.385869
C	-1.478771367	-0.4585807101	 0.0732891771	 0.383001
O	-2.3255670278	 0.2097063349	 0.6218122385	-0.315373
C	-1.8077302226	-1.7843205549	-0.6006187774	-0.315535
C	-3.236416675	-2.2648300307	-0.3596283564	-0.161221
C	-3.5475736075	-3.563088255	-1.0913469058	-0.077417
O	-4.8895550046	-3.9171829371	-0.7972898896	-0.419206
H	 1.1588252777	 1.8072709685	-0.0696369769	 0.107771
H	-0.2972638848	 1.8270105345	-1.0792353147	 0.114147
H	-0.4457487511	 2.0036798478	 0.671708761	 0.140049
H	 0.4830074915	-0.5273752022	-0.7966255237	 0.073919
H	 0.1852576758	-0.0303423742	 2.2147327406	 0.136433
H	 0.5863142611	-1.5884476289	 1.4730907223	 0.115257
H	 1.7213423398	-0.2369988124	 1.3519754885	 0.119415
H	-1.6124837537	-1.6502199297	-1.6760045336	 0.122296
H	-1.069136534	-2.530534969	-0.2746152366	 0.116973
H	-3.4058099708	-2.4100863457	 0.7123437196	 0.117356
H	-3.9442250781	-1.493211628	-0.6766443241	 0.124844
H	-3.3995804452	-3.4252317301	-2.1759474955	 0.080926
H	-2.847557633	-4.3527109988	-0.769156917	 0.080084
H	-5.0923629296	-4.7378719547	-1.2553250982	 0.285117
24.3251	57.5624	73.8943	103.7352	135.4897	205.605	230.4486	232.8024	264.0842	267.5359	279.8992	324.2626	399.9952	502.6389	572.7777	646.5793	760.6555	801.5804	869.0497	890.0037	932.627	972.2312	1006.8359	1037.4026	1060.5445	1071.8086	1097.2726	1119.7761	1138.912	1198.616	1208.2679	1238.0236	1293.3327	1302.8328	1310.6376	1331.0838	1367.5312	1390.3662	1395.1643	1416.3829	1449.9023	1465.7211	1485.9234	1489.4319	1492.9064	1501.8272	1512.3182	1527.2725	1805.9457	2949.6025	2973.2245	2999.4842	3025.6161	3030.4343	3034.3995	3041.8715	3060.1088	3102.5972	3104.1772	3107.2183	3113.2354	3128.9638	3830.9701
CC(C)C(=O)CCCO	CC(C)C(=O)CCCO	
InChI=1S/C7H14O2/c1-6(2)7(9)4-3-5-8/h6,8H,3-5H2,1-2H3	InChI=1S/C7H14O2/c1-6(2)7(9)4-3-5-8/h6,8H,3-5H2,1-2H3
