19
gdb 35505	3.15145	1.40647	1.32334	1.6262	79.86	-0.2403	0.0493	0.2896	1043.7941	0.161434	-385.869036	-385.861614	-385.86067	-385.900744	30.259	
C	-0.1114147693	-1.2416347593	-0.169058939	-0.457318
C	-0.0606239884	-0.044350321	-0.0651265952	 0.311065
C	 0.0051954453	 1.4028474335	 0.059672945	-0.163582
C	-0.6066393809	 1.9808444275	 1.3941778928	-0.236316
C	 0.5454307874	 2.8598199388	 1.9170573582	 0.112778
C	 1.1726200466	 3.4123588347	 0.6291915232	-0.238143
C	 1.4515065796	 1.9965879607	 0.0858416685	-0.054134
C	 2.2040634736	 1.3985487353	 1.2836445543	-0.078762
O	 1.5677510107	 1.9969345879	 2.4319541732	-0.280211
H	-0.1620787387	-2.2981653734	-0.2613710996	 0.193368
H	-0.5214478199	 1.841705111	-0.7958351677	 0.103033
H	-1.5145869465	 2.5578965287	 1.1967018581	 0.100128
H	-0.8447799496	 1.1925512005	 2.1096526772	 0.123627
H	 0.2737332006	 3.5703256367	 2.6984708094	 0.074983
H	 0.4796258713	 3.9898969692	 0.0113462796	 0.097404
H	 2.0767401744	 3.9963201613	 0.8165800098	 0.10501
H	 1.9795731251	 1.9132462325	-0.863973683	 0.075951
H	 2.117900287	 0.3083197464	 1.3355807146	 0.116369
H	 3.2682002317	 1.668155019	 1.2752798809	 0.09475
102.347	152.7773	239.806	344.1221	395.9326	442.7936	503.3665	529.9139	582.6332	622.0822	629.5822	755.8163	778.7413	811.6882	850.8064	889.7211	935.2068	948.6319	951.5899	967.069	989.1234	1028.5091	1047.9946	1053.7828	1103.6445	1133.1925	1180.4104	1193.8538	1203.0706	1253.2293	1269.4376	1290.7446	1313.9403	1322.0156	1337.1022	1354.4793	1386.6875	1478.6804	1492.2192	1529.3666	2232.2529	3015.1449	3029.9068	3061.4774	3065.235	3073.0139	3114.3019	3119.2483	3121.6738	3128.5067	3504.2506
C#CC1CC2CC1CO2	C#C[C@H]1C[C@@H]2C[C@H]1CO2	
InChI=1S/C8H10O/c1-2-6-3-8-4-7(6)5-9-8/h1,6-8H,3-5H2	InChI=1S/C8H10O/c1-2-6-3-8-4-7(6)5-9-8/h1,6-8H,3-5H2/t6-,7-,8+/m0/s1
