18
gdb 117603	2.24823	1.18865	1.02717	5.0929	77.08	-0.2507	-0.0062	0.2445	1266.039	0.146293	-398.139009	-398.128747	-398.127803	-398.174335	35.988	
C	-0.5906594979	 0.9936170306	-0.0531488735	-0.336913
N	 0.5837543932	 0.1428925168	 0.1330956044	-0.281717
C	 1.1107148279	-0.4793809655	-1.0616165019	-0.184863
C	 0.7542667543	-2.0149047145	-1.134708454	-0.076525
C	 1.3243889138	-2.7636919298	 0.094554513	-0.405702
C	-0.708517884	-2.184609723	-1.1818104324	 0.321124
N	-1.8571190797	-2.3055590307	-1.1974960867	-0.336663
C	 1.3367104468	-2.5584970255	-2.3730557814	 0.291901
N	 1.8428723381	-2.9519438738	-3.3337820537	-0.323316
H	-0.4299633888	 1.8144430511	-0.771524071	 0.106275
H	-1.4337055677	 0.3937870143	-0.4035326163	 0.16127
H	-0.8710505635	 1.4281083422	 0.9099855505	 0.128276
H	 1.3116684406	 0.6477670007	 0.6184614055	 0.233135
H	 0.7516642066	-0.0008055826	-1.9826965318	 0.127555
H	 2.2038820038	-0.4283429526	-1.07340497	 0.126594
H	 0.9432868106	-2.2796574257	 0.9947451558	 0.159317
H	 1.0291184594	-3.8140927398	 0.0850817975	 0.152277
H	 2.4156578865	-2.7032585721	 0.0821795559	 0.137974
70.3358	105.2801	130.1619	136.9001	187.4891	200.261	238.3696	252.2469	288.4574	385.8548	396.1799	491.8003	531.1245	586.7871	594.6762	652.2979	724.5706	877.9077	926.9112	959.435	984.1109	1089.425	1133.4104	1154.0135	1176.4817	1184.2807	1239.9056	1338.3458	1382.9831	1404.9028	1461.5154	1480.6859	1483.793	1491.4351	1497.9378	1501.1315	1522.728	2359.6255	2364.3757	2970.3963	3012.5394	3058.9421	3083.6458	3088.6849	3131.8173	3141.3323	3159.899	3579.8514
CNCC(C)(C#N)C#N	CNCC(C)(C#N)C#N	
InChI=1S/C6H9N3/c1-6(3-7,4-8)5-9-2/h9H,5H2,1-2H3	InChI=1S/C6H9N3/c1-6(3-7,4-8)5-9-2/h9H,5H2,1-2H3
