18
gdb 47791	2.44046	1.7595	1.17997	3.6164	74.05	-0.2609	-0.0026	0.2583	1057.8392	0.149657	-439.076733	-439.069065	-439.068121	-439.109175	29.523	
N	-0.0108556489	 1.1585207277	 0.817081207	-0.487393
C	 0.0613117315	 0.087356535	 0.1409271197	 0.346763
O	 1.2519284386	-0.5242375134	-0.1123619802	-0.249719
C	 1.6082766754	-0.8939926866	-1.4508540277	-0.08654
C	 0.8942665262	-2.1289224876	-1.9883128608	-0.210277
C	-0.5327301937	-1.8720386175	-2.4741481229	-0.250734
C	-1.5083269308	-1.4394837718	-1.4056437958	 0.04915
O	-1.3540060408	-1.9834885659	-0.0987626127	-0.245229
C	-1.2291579507	-0.5606224834	-0.2505181417	 0.007258
H	 0.9322980362	 1.4921743429	 1.0285687415	 0.223176
H	 1.4614159593	-0.0328948618	-2.1184680084	 0.103634
H	 2.6825180104	-1.0847932221	-1.3876233885	 0.122179
H	 1.4840856632	-2.5133027636	-2.8289526245	 0.102633
H	 0.8953928698	-2.8991398165	-1.2113155747	 0.133883
H	-0.5336332813	-1.1138295047	-3.2692690046	 0.110245
H	-0.9265854476	-2.7889218324	-2.9300969501	 0.114836
H	-2.5459455704	-1.4144587684	-1.7484412216	 0.096169
H	-2.0647509664	 0.00867469	 0.150923966	 0.119966
64.7273	152.8828	234.5959	271.8162	331.1339	359.8543	423.2156	467.3492	573.7954	645.6735	702.3852	747.0698	798.1571	843.8236	891.9299	896.9132	944.9781	963.3152	989.2699	1043.9118	1060.5596	1104.6712	1144.7818	1150.1896	1170.1016	1223.316	1276.1687	1291.3543	1319.3673	1340.9804	1388.0445	1396.8214	1401.6514	1430.185	1460.0242	1478.5594	1482.2838	1503.8179	1721.8055	3006.916	3018.1156	3040.5381	3054.7022	3076.7739	3096.0176	3101.1304	3143.0864	3463.2478
N=C1OCCCC2OC12	[NH][C]1OCCC[C@H]2O[C@@H]12	
InChI=1S/C6H9NO2/c7-6-5-4(9-5)2-1-3-8-6/h4-5,7H,1-3H2	InChI=1S/C6H9NO2/c7-6-5-4(9-5)2-1-3-8-6/h4-5,7H,1-3H2/t4-,5-/m1/s1
