20
gdb 17072	6.0988	0.95883	0.92798	1.9228	74.82	-0.2415	0.082	0.3235	1302.3134	0.177584	-348.967147	-348.958911	-348.957967	-349.001083	29.848	
C	-0.1252928614	 1.5766472917	-0.090908523	-0.238378
C	-0.2003375382	 0.0691963756	-0.2209610699	 0.03671
C	-0.2668640875	-0.7984828519	 1.0123181695	-0.255571
C	-1.4712500048	-0.6682521043	 0.1112909671	-0.277148
C	 1.2966245288	 2.0909658634	 0.1118686903	-0.010245
C	 2.2424994752	 2.0836106453	-1.113111726	-0.075843
O	 2.4147517718	 3.5136218171	-1.0509319475	-0.272241
C	 1.5115705061	 3.6208147661	 0.0678217254	-0.091741
H	-0.5554018226	 2.0506189369	-0.9844468044	 0.099634
H	-0.7483479147	 1.8959230515	 0.7558840127	 0.092606
H	 0.3743709363	-0.3372203467	-1.0502642429	 0.083555
H	 0.2737079451	-1.7384747572	 1.0193333451	 0.11134
H	-0.3035509123	-0.302388915	 1.9772351082	 0.109156
H	-2.3131390416	-0.0865375751	 0.4730027148	 0.11041
H	-1.7520973212	-1.5186751981	-0.5001156489	 0.111788
H	 1.7405564096	 1.6200680271	 0.9930606044	 0.080321
H	 3.193609409	 1.5504845084	-0.9931083399	 0.099374
H	 1.7780239015	 1.7678382663	-2.0581295739	 0.094064
H	 0.6163229498	 4.2075483729	-0.1819139527	 0.09454
H	 1.9948047412	 4.0702921863	 0.9442137217	 0.097668
50.6804	72.9601	92.884	147.4296	289.0035	332.1516	411.2022	435.0274	753.3653	778.9568	802.5152	834.0924	868.2983	885.7973	896.9202	939.3555	965.411	991.6606	1016.9202	1043.7689	1057.4754	1077.1617	1097.909	1133.2844	1142.908	1157.7157	1165.3727	1194.8734	1199.8295	1228.1659	1257.5712	1282.4857	1311.4852	1319.2828	1371.1107	1399.7457	1418.3967	1468.1248	1482.5396	1506.7761	1514.464	1539.6928	2993.2277	3000.2489	3007.5848	3036.779	3041.5769	3043.7684	3077.6687	3126.906	3129.3225	3133.3575	3205.1016	3220.2618
C(C1CC1)C1COC1	C(C1CC1)C1COC1	
InChI=1S/C7H12O/c1-2-6(1)3-7-4-8-5-7/h6-7H,1-5H2	InChI=1S/C7H12O/c1-2-6(1)3-7-4-8-5-7/h6-7H,1-5H2
