14
gdb 124231	5.0109	1.01012	1.00645	2.3988	63.91	-0.2823	-0.0278	0.2546	1196.6262	0.101569	-466.169945	-466.161988	-466.161043	-466.203832	27.612	
C	-0.2753991452	 1.3962615872	-0.0280777063	-0.465897
C	 0.2166831553	-0.0207935657	 0.0214024196	 0.38462
N	 1.1260921267	-0.5545773312	 0.7097056953	-0.488584
O	-0.5091569565	-0.7819585226	-0.8743729283	-0.265794
C	-0.2580666281	-2.106639246	-0.9201937341	 0.53188
N	 0.5620193391	-2.6566436147	-1.8020163833	-0.273438
N	 0.3968549156	-3.9379882741	-1.5021801733	-0.058627
N	-0.4596699011	-4.1786664808	-0.5204994084	-0.098074
N	-0.892506469	-3.0057735638	-0.1358428275	-0.255584
H	 0.2960257401	 2.0280009894	 0.6528371962	 0.134604
H	-0.1879405782	 1.7884595248	-1.0457058753	 0.156733
H	-1.3341416424	 1.43398061	 0.2454211349	 0.159238
H	 1.5696061707	 0.1262172469	 1.3214175941	 0.232997
H	 0.8803437431	-4.6779900893	-1.9888105637	 0.305927
49.2878	72.6368	124.2771	133.2343	344.6468	364.4166	456.4095	560.4571	568.5726	572.3546	720.4641	743.168	830.6524	855.9029	929.8689	1017.8999	1041.0852	1064.0848	1070.5379	1080.8355	1128.1683	1208.9877	1282.0677	1337.8842	1355.8565	1411.3932	1469.8346	1480.8339	1492.7475	1555.5275	1762.1664	3052.0801	3116.4751	3151.0018	3527.9934	3649.8123
CC(=N)OC1=NNN=N1	C[C]([NH])Oc1n[nH]nn1	
InChI=1S/C3H5N5O/c1-2(4)9-3-5-7-8-6-3/h4H,1H3,(H,5,6,7,8)	InChI=1S/C3H5N5O/c1-2(4)9-3-5-7-8-6-3/h4H,1H3,(H,5,6,7,8)
