14
gdb 26900	3.12822	1.43401	0.98661	4.9408	72.03	-0.1994	-0.0395	0.1599	1101.0104	0.100728	-473.882808	-473.874836	-473.873892	-473.915034	30.431	
N	 0.0041761335	 1.3336274985	-0.1272655592	-0.558195
C	-0.0650667897	-0.024848231	-0.0466875515	 0.401644
C	-1.2424433861	-0.7306715918	 0.018574779	 0.118861
O	-2.4342537633	-0.0258211493	 0.1180543712	-0.458139
C	-1.1627631518	-2.1346539354	 0.0709354575	-0.100142
C	 0.0369780252	-2.7905520503	 0.0312095672	-0.29964
C	 1.2743677258	-2.0730766292	-0.0436608071	 0.418097
O	 2.4050682031	-2.4716489343	-0.0830554784	-0.345777
O	 1.1163774008	-0.6363146661	-0.0655682246	-0.261913
H	 0.8842222485	 1.7503785082	 0.1341257796	 0.273076
H	-0.8302936234	 1.8188971045	 0.1645228561	 0.274594
H	-2.8906822751	-0.0548642961	-0.7304655903	 0.301359
H	-2.0904660196	-2.6948866034	 0.1472516981	 0.117223
H	 0.109243222	-3.8688107342	 0.0665534122	 0.118952
115.6974	176.1968	223.5663	285.587	318.094	355.1465	419.2645	439.9467	462.216	504.7811	522.7902	602.17	695.6639	727.2765	747.0692	782.5816	810.8693	846.0399	984.1913	1038.6189	1089.8354	1167.7977	1209.8361	1286.1229	1308.5603	1435.8928	1465.4701	1554.5397	1626.355	1679.0546	1857.3537	3176.1792	3230.3184	3583.8507	3705.1838	3780.1513
NC1=C(O)C=CC(=O)O1	Nc1c(O)ccc(=O)o1	
InChI=1S/C5H5NO3/c6-5-3(7)1-2-4(8)9-5/h1-2,7H,6H2	InChI=1S/C5H5NO3/c6-5-3(7)1-2-4(8)9-5/h1-2,7H,6H2
