18
gdb 79362	2.49605	1.97733	1.79222	1.1709	68.99	-0.2311	0.0768	0.3078	873.8622	0.151435	-439.065341	-439.058713	-439.057769	-439.096005	27.636	
O	 0.0257736555	 1.4154575772	 0.0166702322	-0.448401
C	-0.0179477644	 0.0093794459	-0.0149986672	 0.149131
C	-1.4066401316	-0.6068001414	-0.1728781728	-0.086723
C	-1.8930333698	-0.7330534931	-1.5719820118	-0.034741
C	-1.1261308359	-0.0930084421	-2.712896068	-0.116323
O	 0.243841302	 0.1588405763	-2.3856246104	-0.292912
C	 0.6842613391	-0.5974099842	-1.2488008371	 0.028327
C	 0.13378533	-2.0235839009	-1.2782773065	-0.188683
N	-1.2970586311	-1.9020328101	-0.8960404516	-0.12895
H	 0.0291728114	 1.6937021414	-0.90968567	 0.286248
H	 0.4404682377	-0.3474804963	 0.9145187168	 0.089165
H	-2.1061025557	-0.5679828653	 0.6557411999	 0.093322
H	-2.9621419207	-0.8252668489	-1.7501116161	 0.09858
H	-1.1747685092	-0.744020806	-3.5991024156	 0.111701
H	-1.5828339721	 0.8645989999	-2.9892910912	 0.116555
H	 1.771828024	-0.5150225951	-1.2297280535	 0.09071
H	 0.2351860639	-2.4983046306	-2.2586888019	 0.117198
H	 0.6380912469	-2.6555212965	-0.5400608851	 0.115798
159.3967	260.3919	291.1259	402.9615	438.1958	466.2363	520.8725	561.7515	658.9854	704.1325	759.5783	783.3443	829.169	871.2033	911.9302	930.4027	949.4334	993.5463	1038.8951	1045.2508	1087.8024	1108.2227	1122.0506	1131.0178	1145.8415	1222.5403	1236.1502	1255.8479	1260.3477	1272.9884	1327.81	1331.8186	1345.7895	1363.5581	1400.95	1430.7705	1449.3109	1493.0237	1524.6629	2987.75	3045.7308	3048.643	3052.5825	3096.9169	3109.9799	3131.2686	3165.4286	3746.628
OC1C2C3COC1CN23	O[C@H]1[C@H]2[C@H]3CO[C@@H]1CN23	
InChI=1S/C6H9NO2/c8-6-4-1-7-3(2-9-4)5(6)7/h3-6,8H,1-2H2	InChI=1S/C6H9NO2/c8-6-4-1-7-3(2-9-4)5(6)7/h3-6,8H,1-2H2/t3-,4-,5-,6-,7?/m1/s1
