18
gdb 127052	5.93028	0.7333	0.6607	3.3368	75.44	-0.2513	-0.0069	0.2444	1672.7904	0.146776	-439.073007	-439.063991	-439.063046	-439.108745	31.238	
C	 0.4599887878	 1.3789347488	 0.3381236209	-0.388142
C	-0.0720054297	 0.0288395443	-0.1085346674	-0.026401
O	 0.7939538564	-0.4866787288	-1.1045680599	-0.242762
C	 0.3910406621	-1.7403349997	-1.5899993912	-0.172883
C	 1.3737201944	-2.1765720274	-2.6250963967	 0.409294
C	 2.4992160881	-1.6091732289	-3.1323619201	-0.313347
C	 2.9411830804	-2.5683923847	-4.0828502505	 0.028979
N	 2.1568621167	-3.6151361665	-4.1432910638	-0.141753
O	 1.1490194127	-3.3652454238	-3.2072694635	-0.215676
H	 1.4684384591	 1.2772024054	 0.7485753905	 0.130247
H	 0.4999606377	 2.0736952212	-0.5053781155	 0.130248
H	-0.1879669129	 1.8053138979	 1.109400137	 0.119954
H	-0.1251923288	-0.6704669834	 0.7423774749	 0.093044
H	-1.0936509707	 0.1261017829	-0.5118856703	 0.09304
H	 0.3455029814	-2.490668157	-0.7812832955	 0.117573
H	-0.6196116073	-1.6960514733	-2.032389032	 0.11758
H	 2.9340250913	-0.6622475163	-2.8658340403	 0.129709
H	 3.8083888114	-2.5303224008	-4.7273696368	 0.131296
26.0499	66.9739	100.1884	114.153	236.0182	255.3203	271.9383	340.2089	490.0431	642.2612	651.7669	738.4392	819.5254	821.0131	897.9892	919.9769	921.8653	942.5496	1021.2636	1045.3202	1047.3189	1050.9958	1148.0567	1174.1696	1188.3411	1209.0007	1245.9299	1246.2553	1296.5769	1353.2977	1392.678	1409.0771	1451.6701	1483.1568	1498.1444	1504.7041	1522.8755	1533.85	1641.4658	2948.5822	2963.314	2968.6437	2988.4057	3047.1048	3122.7238	3124.3745	3243.1439	3300.5087
CCOCC1=CC=NO1	CCOCc1ccno1	
InChI=1S/C6H9NO2/c1-2-8-5-6-3-4-7-9-6/h3-4H,2,5H2,1H3	InChI=1S/C6H9NO2/c1-2-8-5-6-3-4-7-9-6/h3-4H,2,5H2,1H3
