14
gdb 21523	3.67894	1.84651	1.26965	2.7444	60.24	-0.212	0.0103	0.2223	895.5735	0.108189	-415.84805	-415.840671	-415.839726	-415.879737	27.305	
N	-0.4111066172	 1.0326041106	-0.8136114469	-0.595548
C	-0.2301669456	-0.1912974309	-0.2340199494	 0.419106
C	-1.1244145533	-1.1011135794	 0.2815768793	 0.031825
C	-2.5957587409	-0.9011101432	 0.4742094015	-0.202057
O	-3.1643139097	-0.0631985889	-0.5358978136	-0.415454
C	-0.2834955741	-2.1934467973	 0.6129861456	-0.040884
N	 0.982257724	-1.9841119893	 0.349208568	-0.167656
O	 1.0126645235	-0.6825442479	-0.2106823947	-0.214854
H	 0.355245431	 1.6836510676	-0.7381261964	 0.266643
H	-1.3361351718	 1.4152152261	-0.6830539847	 0.272678
H	-3.1092876069	-1.8724853926	 0.524386814	 0.107448
H	-2.816093943	-0.3797441446	 1.4139939937	 0.124151
H	-3.0141025998	-0.4958943723	-1.3841341141	 0.290003
H	-0.566567896	-3.140641648	 1.0541402379	 0.1246
83.6202	181.0061	221.6032	283.4477	349.8136	384.3995	413.1841	457.7189	553.4054	628.8405	695.4146	741.0314	753.7928	888.4432	915.5772	948.0045	983.4928	1038.5351	1073.2726	1183.1428	1219.1497	1257.9965	1328.9058	1374.2384	1406.3592	1446.658	1510.8229	1549.2114	1611.2173	1683.4418	2996.4327	3041.3596	3225.617	3570.598	3689.9141	3799.8051
NC1=C(CO)C=NO1	Nc1c(CO)cno1	
InChI=1S/C4H6N2O2/c5-4-3(2-7)1-6-8-4/h1,7H,2,5H2	InChI=1S/C4H6N2O2/c5-4-3(2-7)1-6-8-4/h1,7H,2,5H2
