19
gdb 62139	6.22176	0.5918	0.5645	4.9489	79.56	-0.2736	0.0109	0.2845	1894.0062	0.157559	-419.222898	-419.212546	-419.211602	-419.259905	35.246	
C	 0.0709802123	 1.5379739752	 0.0400387861	-0.404066
C	 0.0260870629	 0.0072294877	 0.0135219175	 0.003346
C	 0.7812361991	-0.6036303338	 1.194206273	-0.082359
O	 2.146683234	-0.2107971205	 1.0947793826	-0.186255
C	 2.9118671404	-0.3839788608	 2.1921138787	 0.129126
N	 4.1482314589	-0.1429823436	 2.1401884939	-0.433539
C	-1.422832377	-0.534606287	 0.0221145361	-0.351708
C	-2.1925917938	-0.1101391571	-1.1446516806	 0.266884
N	-2.7907531421	 0.2295803318	-2.0730410968	-0.305607
H	 1.1057991315	 1.8855669013	 0.0423577242	 0.150179
H	-0.4355220717	 1.9592574578	-0.8322586427	 0.145257
H	-0.4222545793	 1.927655616	 0.9389139509	 0.113049
H	 0.5140195193	-0.3468074778	-0.9020102197	 0.117684
H	 0.3522839715	-0.2526374911	 2.1448772766	 0.106292
H	 0.7101823796	-1.7003052159	 1.1729729416	 0.10995
H	 2.3476240711	-0.7283615589	 3.0703146021	 0.086135
H	 4.5741300221	-0.3054708316	 3.050160757	 0.232565
H	-1.4228865914	-1.6307196055	 0.050349715	 0.151623
H	-1.9480843374	-0.1938378962	 0.9233947845	 0.151443
35.5843	61.173	82.1564	95.6349	153.3471	191.0493	242.9839	290.2637	326.5653	392.5405	396.4914	435.9154	590.5977	636.8487	823.4756	842.2987	889.6879	930.7733	938.5182	977.6207	1009.2086	1044.5397	1118.8271	1137.2803	1140.987	1171.307	1237.3398	1278.4859	1296.1924	1301.6864	1361.6385	1382.7086	1404.4752	1415.8627	1435.4597	1466.7355	1495.4484	1505.0625	1513.1787	1750.8593	2363.9199	2984.2712	3020.3887	3026.73	3032.3041	3034.2388	3052.8103	3074.626	3109.5138	3139.7216	3521.0528
CC(COC=N)CC#N	C[C@@H](CO[CH][NH])CC#N	
InChI=1S/C6H10N2O/c1-6(2-3-7)4-9-5-8/h5-6,8H,2,4H2,1H3	InChI=1S/C6H10N2O/c1-6(2-3-7)4-9-5-8/h5-6,8H,2,4H2,1H3/t6-/m1/s1
