12
gdb 131249	6.12004	1.07164	0.91196	1.5199	75.3	-0.2488	-0.0785	0.1703	1163.9736	0.077561	-431.645639	-431.6385	-431.637556	-431.677351	26.837	
O	 0.0697079648	 1.3300303941	-0.0712180119	-0.405438
C	 0.0613813021	-0.0076040354	-0.0584897669	 0.452081
C	-0.0146476317	-0.7261500794	-1.2647036309	-0.085167
N	-0.0222515715	-2.0397634346	-1.2421139952	-0.25277
C	 0.046080582	-2.6115191704	-0.0176649472	 0.192457
N	 0.1191005274	-1.9511885384	 1.1444790973	-0.222275
N	 0.1262200148	-0.6251120287	 1.1122209293	-0.284147
C	 0.0403860918	-4.0377540674	 0.0507412619	 0.292244
C	 0.0352890228	-5.2385161127	 0.10318341	-0.349531
H	 0.1261637	 1.6187351808	 0.8528276564	 0.31208
H	-0.0676703974	-0.215208002	-2.2224964031	 0.144856
H	 0.0308918049	-6.2997427159	 0.1513514003	 0.205609
87.1751	152.2766	248.9544	391.8445	404.1204	470.8598	473.7115	533.4152	544.9494	616.8848	646.0791	664.9138	672.678	747.4462	838.8966	876.6772	963.6439	1052.9897	1149.2722	1211.1975	1290.54	1313.3677	1402.3278	1456.7069	1572.2353	1612.9358	2243.8182	3169.6121	3501.5202	3734.3068
OC1=CN=C(N=N1)C#C	Oc1cnc(nn1)C#C	
InChI=1S/C5H3N3O/c1-2-4-6-3-5(9)8-7-4/h1,3H,(H,8,9)	InChI=1S/C5H3N3O/c1-2-4-6-3-5(9)8-7-4/h1,3H,(H,8,9)
