18
gdb 46207	3.00351	1.58602	1.24538	1.9055	77.52	-0.2402	-0.0312	0.2091	1039.1092	0.147846	-401.90906	-401.901322	-401.900377	-401.941536	29.799	
O	-0.0088143738	 0.118317131	-0.6266171924	-0.322423
C	 0.002618958	 1.2364352475	-0.1882772238	 0.339801
C	-1.0564431848	 2.1451736501	 0.4668335544	-0.339145
C	-0.015258141	 3.30962581	 0.4414771478	-0.342
C	 1.0426200145	 2.3323713409	-0.0938615138	 0.270356
C	 2.4617575825	 2.2253958411	 0.3407082516	-0.102481
C	 3.128264849	 0.9603931321	-0.1919766156	-0.252459
C	 2.687311781	 1.4499463965	-1.5971382486	-0.158802
N	 2.1085695981	 2.7317684265	-1.0307523324	-0.192124
H	-1.9582895087	 2.2875091522	-0.1340647919	 0.135191
H	-1.353383543	 1.8050075392	 1.4630314898	 0.133666
H	-0.2563280312	 4.0999478065	-0.2718043345	 0.126131
H	 0.208721642	 3.7586791737	 1.4109004734	 0.112053
H	 2.8402229189	 2.8848666841	 1.11723018	 0.100479
H	 4.2113304256	 0.9618736208	-0.0573274583	 0.113679
H	 2.7204832039	 0.0099589565	 0.1580115102	 0.127145
H	 3.5156141043	 1.6997724426	-2.2618573883	 0.114605
H	 1.9581533548	 0.8342707886	-2.1251357777	 0.136328
70.3702	131.0677	182.4551	256.1237	310.9986	375.4915	447.4139	522.3696	621.9866	719.3443	736.5543	760.9314	784.2962	826.2491	848.2074	929.3977	945.4327	961.5045	969.9553	1021.9781	1037.2027	1053.0439	1073.9139	1114.8909	1128.8386	1186.8728	1208.8898	1218.3792	1220.712	1243.6829	1267.0655	1281.25	1311.4397	1392.886	1440.3643	1479.83	1487.737	1500.6449	1860.1147	3064.843	3074.7246	3077.8201	3083.1073	3113.9896	3124.8155	3133.4324	3145.707	3148.5935
O=C1CCC11C2CCN12	O=C1CC[C@]21[C@H]1CCN21	
InChI=1S/C7H9NO/c9-6-1-3-7(6)5-2-4-8(5)7/h5H,1-4H2	InChI=1S/C7H9NO/c9-6-1-3-7(6)5-2-4-8(5)7/h5H,1-4H2/t5-,7-,8?/m1/s1
