19
gdb 73041	3.23421	1.10523	0.97079	4.7249	80.67	-0.2571	0.0291	0.2863	1269.8951	0.158888	-382.040297	-382.031539	-382.030595	-382.074252	32.779	
C	-0.2104668249	 1.5595910729	 0.1006698597	-0.48437
C	-0.0787746675	 0.0659176283	 0.0616884818	 0.324567
C	-1.254512539	-0.9370985558	 0.1081131005	-0.293012
C	-0.3615793728	-1.9199539383	 0.9274873169	-0.245048
C	 0.7863701226	-0.90017331	 0.8516972498	-0.082799
N	 1.1211866514	-0.5231243374	-0.5093042582	-0.117125
C	 1.0873824884	-1.4679316235	-1.6194238568	-0.292057
C	 2.3231108305	-2.2569312742	-1.6567619132	 0.28018
N	 3.286277769	-2.8937046589	-1.6839897369	-0.304607
H	 0.7671981564	 2.0243802271	 0.249609172	 0.13725
H	-0.6274010992	 1.9423448628	-0.8387408415	 0.122649
H	-0.877700939	 1.8719877222	 0.9108717143	 0.120855
H	-2.0908410675	-0.5533759283	 0.6963254263	 0.11319
H	-1.6470121119	-1.2810652855	-0.8544038326	 0.09993
H	-0.7251805702	-2.0548519729	 1.9477831565	 0.114314
H	-0.166216116	-2.90874589	 0.501189861	 0.110307
H	 1.5273166495	-0.7112492484	 1.6211284092	 0.101684
H	 0.2426998223	-2.1720582204	-1.6080791348	 0.138644
H	 1.012198578	-0.8966854799	-2.5516436642	 0.155448
37.1595	125.4419	187.9347	217.6508	263.1947	271.3816	320.385	384.6793	429.1255	498.7301	568.6783	632.0696	741.2262	785.7036	812.0723	911.6689	922.1589	943.2131	953.2274	963.0826	1004.2542	1011.973	1033.4122	1115.3794	1142.0339	1151.1687	1211.8283	1219.5203	1226.1289	1263.1808	1275.0921	1282.1953	1367.5415	1403.4601	1439.8089	1469.4001	1484.1211	1489.2151	1493.1446	1507.9774	2367.2606	3004.5858	3029.0753	3049.8584	3058.8951	3064.5385	3088.5425	3103.5289	3121.2437	3124.6081	3171.9899
CC12CCC1N2CC#N	C[C@]12CC[C@H]1N2CC#N	
InChI=1S/C7H10N2/c1-7-3-2-6(7)9(7)5-4-8/h6H,2-3,5H2,1H3	InChI=1S/C7H10N2/c1-7-3-2-6(7)9(7)5-4-8/h6H,2-3,5H2,1H3/t6-,7+,9?/m1/s1
