21
gdb 89467	2.21069	1.56125	1.40206	2.276	77.96	-0.2372	0.0641	0.3013	1091.8833	0.180432	-424.204892	-424.195432	-424.194488	-424.23867	36.052	
C	-0.6571040174	 1.2704730163	 0.0035695001	-0.403287
C	 0.068052898	-0.0615007547	-0.1170717606	-0.009534
C	 1.3209772329	-0.1378388672	-1.0550381969	-0.332192
C	 2.1908441256	-0.6339512883	 0.1280490213	 0.314399
O	 3.0352414597	-1.7301754934	-0.033927648	-0.473381
C	 2.7872330313	 0.4792938201	 0.9912131258	-0.110978
O	 1.5672843145	 0.6075685117	 1.757193854	-0.328594
C	 0.9466378432	-0.5209309812	 1.0871196393	 0.357514
C	 0.4457595797	-1.5641901057	 2.0482918456	-0.47794
H	 0.0280590781	 2.0536812718	 0.3382293074	 0.129827
H	-1.08756844	 1.5704997751	-0.9578138743	 0.10839
H	-1.473578667	 1.2123203739	 0.731501194	 0.114577
H	-0.6447136154	-0.8528130787	-0.3754311632	 0.065777
H	 1.2222423771	-0.8804147826	-1.8539928931	 0.09009
H	 1.6429693387	 0.8049330887	-1.507767111	 0.102781
H	 2.625860356	-2.3472413224	-0.6488339959	 0.280459
H	 3.6208932582	 0.1307436053	 1.6134496099	 0.108162
H	 3.0688703774	 1.4112920222	 0.4864771426	 0.097149
H	-0.349318182	-1.1522011212	 2.680454942	 0.12828
H	 0.0382211057	-2.4274333335	 1.5118010679	 0.109305
H	 1.2537047857	-1.9095677964	 2.6997901331	 0.129192
67.2264	171.0218	176.4571	202.1506	222.5252	242.4406	289.471	327.4505	365.4112	394.1627	435.5705	560.6161	605.5086	633.8611	698.6764	799.9101	869.5179	871.6658	905.105	925.1459	976.3749	1000.3282	1009.9013	1072.2568	1101.3213	1113.4378	1141.5703	1155.6227	1177.1678	1195.2937	1225.3821	1236.7188	1292.6897	1318.7473	1340.4849	1363.0803	1401.7211	1405.3473	1409.4021	1477.1319	1479.8551	1486.8052	1489.3861	1499.8489	1519.6356	3014.4667	3028.9116	3031.607	3034.0608	3042.6033	3064.3333	3090.8545	3094.7489	3096.605	3112.3653	3119.974	3816.6675
CC1CC2(O)COC12C	C[C@H]1C[C@@]2(O)CO[C@@]12C	
InChI=1S/C7H12O2/c1-5-3-7(8)4-9-6(5,7)2/h5,8H,3-4H2,1-2H3	InChI=1S/C7H12O2/c1-5-3-7(8)4-9-6(5,7)2/h5,8H,3-4H2,1-2H3/t5-,6-,7+/m0/s1
