21
gdb 38420	3.5633	1.30554	1.29666	1.6745	81.24	-0.2385	0.0783	0.3168	1097.3717	0.184668	-387.078422	-387.07074	-387.069796	-387.110691	30.952	
C	 0.0086408565	 1.5200499765	-0.0442255948	-0.290835
C	 1.2749267818	 0.6997605514	-0.1116125615	-0.035022
C	 2.0447432198	 0.4965418058	 1.1833893838	-0.263662
C	 0.9870901456	 0.0940854219	 2.2299568594	 0.417006
C	 1.4606148404	-0.5477673214	 3.5533232303	-0.355641
C	 0.8914257772	 0.7139576632	 4.2262933926	-0.06851
O	 0.4754252895	 1.2551526042	 2.9589750007	-0.313594
C	-0.1221567397	-0.6086401259	 1.4227075325	-0.263663
C	-0.0696276525	 0.0139968284	 0.0368820678	-0.035023
H	-0.1902971989	 2.1032827809	 0.8478417669	 0.141112
H	-0.3267043504	 1.9772999985	-0.9690468297	 0.101564
H	 1.8201141423	 0.6656624226	-1.0482964436	 0.07606
H	 2.7641768595	-0.32421617	 1.0626344614	 0.094905
H	 2.5981041131	 1.3783451108	 1.5217739377	 0.104257
H	 0.9635073813	-1.4845388695	 3.8135811015	 0.107479
H	 2.5411396364	-0.679900072	 3.6393367623	 0.107479
H	 0.0425713206	 0.5531020223	 4.9023053297	 0.100432
H	 1.623233178	 1.3592857077	 4.7277218955	 0.100431
H	 0.1034369563	-1.681269302	 1.3564973643	 0.094905
H	-1.0868555144	-0.5010855587	 1.928749122	 0.104258
H	-0.5167053324	-0.5261928547	-0.7902125788	 0.076061
68.713	135.3223	221.4733	299.7061	374.5318	376.9574	429.1526	479.4288	630.6384	762.6401	766.5656	790.7002	826.5153	858.2543	860.6819	864.6392	890.8134	947.2982	956.2996	983.5066	1030.2317	1030.4972	1046.6896	1062.5217	1087.774	1105.2108	1124.3398	1159.9864	1162.1111	1178.954	1208.4614	1211.6065	1246.427	1250.5598	1269.5067	1302.6869	1335.1579	1348.5679	1360.099	1398.6474	1466.4253	1475.309	1488.308	1499.5698	1532.7708	3013.4578	3018.3846	3024.026	3050.853	3070.029	3078.1807	3079.549	3123.9969	3134.7968	3163.0037	3172.585	3224.6924
C1C2CC3(CCO3)CC12	C1[C@H]2C[C@]3(CCO3)C[C@@H]12	
InChI=1S/C8H12O/c1-2-9-8(1)4-6-3-7(6)5-8/h6-7H,1-5H2	InChI=1S/C8H12O/c1-2-9-8(1)4-6-3-7(6)5-8/h6-7H,1-5H2/t6-,7+,8+
