21
gdb 73480	2.44575	2.14343	1.54709	1.6297	80.47	-0.2346	0.0838	0.3184	951.7464	0.185985	-387.087743	-387.080747	-387.079802	-387.118539	29.949	
C	 0.0438089808	 1.4972978097	-0.0119325849	-0.500378
C	 0.0136002378	-0.0194448041	-0.0380580191	 0.341433
C	 0.6862574198	-0.6430375313	-1.2682198305	-0.155737
O	 0.0239923997	-1.8975791006	-1.4588792198	-0.271191
C	-0.6817638236	-2.1386228837	-0.2414290338	 0.106966
C	 0.3518762413	-2.2357990716	 0.9197768054	-0.242494
C	 0.2968836994	-0.7535007913	 1.3411942448	-0.072625
C	-1.2232968732	-0.6152478676	 1.6371243518	-0.252076
C	-1.3480888292	-0.7809205128	 0.107231098	-0.075809
H	 1.0781072409	 1.8614444148	-0.0034928809	 0.118478
H	-0.4441711194	 1.9150668368	-0.8996034732	 0.118696
H	-0.4518889271	 1.9120295993	 0.8701035596	 0.119632
H	 0.5456805562	-0.0314150109	-2.1681609007	 0.096432
H	 1.7675241688	-0.7875396889	-1.1244108589	 0.090939
H	-1.3302667396	-3.0012441493	-0.3932200654	 0.073219
H	 0.0420661473	-2.8990991941	 1.7328917774	 0.09317
H	 1.3180451329	-2.5791600162	 0.5421932003	 0.103336
H	 1.0561365164	-0.3859901792	 2.0333307569	 0.057402
H	-1.6806347104	-1.3712006803	 2.2824392602	 0.088656
H	-1.5195249257	 0.3781991524	 1.9775747879	 0.099957
H	-2.2369925929	-0.5057285411	-0.4609738851	 0.061994
208.0176	227.8336	272.4651	332.0655	389.9029	425.0459	494.4375	566.4536	600.9502	692.3143	735.7557	821.1869	845.8606	858.4418	877.5351	922.0868	945.5974	952.1958	962.1658	989.5127	995.8896	1022.215	1043.2648	1059.255	1093.5684	1123.7901	1134.7658	1171.7631	1191.8116	1208.8529	1228.8604	1237.0209	1253.9117	1262.279	1284.6049	1303.6853	1309.7276	1343.8154	1389.4584	1415.6811	1488.6029	1493.1229	1498.7308	1519.085	1525.371	2988.84	3026.7796	3038.6594	3053.94	3057.8743	3083.8531	3100.5745	3105.5122	3106.7541	3110.6385	3121.3213	3124.3438
CC12COC3CC1CC23	C[C@@]12CO[C@H]3C[C@@H]1C[C@@H]23	
InChI=1S/C8H12O/c1-8-4-9-7-3-5(8)2-6(7)8/h5-7H,2-4H2,1H3	InChI=1S/C8H12O/c1-8-4-9-7-3-5(8)2-6(7)8/h5-7H,2-4H2,1H3/t5-,6+,7-,8+/m0/s1
