18
gdb 22102	4.07691	0.75359	0.68314	1.5373	73.67	-0.2434	-0.044	0.1995	1603.37	0.143551	-476.191932	-476.181565	-476.180621	-476.228908	36.068	
C	-0.2537684966	 1.584674299	-0.1055376258	-0.493756
C	-0.0331349908	 0.0991787073	-0.055020388	 0.358997
C	 0.0088431446	-0.5959281927	 1.2852932351	-0.296371
C	 1.3519314633	-0.3970979764	 2.0322904413	 0.05074
O	 1.5750311678	 0.9366958203	 2.4005970999	-0.42788
C	 1.3908077702	-1.2858140745	 3.2604439278	 0.135277
O	 1.5671959486	-0.8314743423	 4.3649971244	-0.257706
N	 0.1234971075	-0.6732160025	-1.0625132723	-0.168977
O	 0.0793138574	 0.0140917063	-2.2847191526	-0.396107
H	 0.2899291928	 2.0670482439	 0.7090982645	 0.161674
H	 0.0557903667	 1.9960373216	-1.0655998832	 0.150233
H	-1.3199910201	 1.806337064	 0.0319693725	 0.133835
H	-0.7974179546	-0.2218533932	 1.927864137	 0.116127
H	-0.1448029185	-1.6669896731	 1.1204265646	 0.118421
H	 2.1553127873	-0.7491282673	 1.360969146	 0.109503
H	 1.6760466223	 0.9277431833	 3.3663478869	 0.295852
H	 1.2453143404	-2.3715769862	 3.0903059957	 0.104883
H	 0.2286787318	-0.6955278573	-2.917920284	 0.305254
31.1056	58.284	68.2564	114.1654	161.2082	290.6934	301.5581	320.8681	342.8716	364.1991	388.4251	430.8624	487.7337	545.743	644.0827	755.5374	816.338	841.5674	883.277	967.5475	997.8128	1013.7724	1062.3317	1087.024	1147.6404	1224.1979	1251.8575	1280.8542	1322.6334	1351.3991	1392.433	1400.8102	1405.2948	1436.7876	1459.5369	1484.9305	1490.8655	1730.3619	1812.3502	2935.1135	2960.1542	3033.2848	3036.2624	3095.1983	3114.7131	3167.752	3678.0227	3824.0571
CC(CC(O)C=O)=NO	CC(=NO)C[C@@H](O)C=O	
InChI=1S/C5H9NO3/c1-4(6-9)2-5(8)3-7/h3,5,8-9H,2H2,1H3	InChI=1S/C5H9NO3/c1-4(6-9)2-5(8)3-7/h3,5,8-9H,2H2,1H3/t5-/m1/s1
