19
gdb 87280	2.6288	1.2419	1.05651	2.7116	77.01	-0.2474	-0.0281	0.2194	1219.6433	0.157202	-423.002198	-422.993102	-422.992158	-423.036032	33.631	
C	 0.0859244125	 1.5212217452	-0.0173284695	-0.427293
C	 0.1155681447	 0.0115050315	 0.0416712317	-0.026609
C	 1.3623039594	-0.7680365808	-0.1965547809	-0.325306
C	 0.7677733754	-0.7752926609	 1.2044810112	 0.2213
C	 1.4738808293	 0.0063358588	 2.255916964	 0.067474
O	 2.315580112	 0.8499680949	 2.04110359	-0.279515
C	 0.0541893767	-2.0161605305	 1.6520765784	 0.006009
C	 0.5353676881	-2.8856620375	 2.7337713424	-0.198313
O	-0.5681840511	-1.99685703	 2.9397241862	-0.23341
H	 1.0077827541	 1.954786436	 0.3737650277	 0.156525
H	-0.0312529198	 1.8467014761	-1.0567184014	 0.120968
H	-0.7558400393	 1.9240271685	 0.555433142	 0.122501
H	-0.8028409961	-0.4638238836	-0.2971980858	 0.09754
H	 1.3139130151	-1.6938692393	-0.7602497481	 0.117752
H	 2.2898799395	-0.2129001076	-0.2896640055	 0.142685
H	 1.1481906495	-0.222512976	 3.2903596432	 0.103433
H	-0.5552222092	-2.4810256842	 0.8740383268	 0.093003
H	 0.2862280595	-3.9456301716	 2.73107781	 0.122808
H	 1.4496466196	-2.6268929093	 3.2668385377	 0.118449
74.4992	147.1093	166.9987	192.9751	217.8772	226.6582	284.159	337.9587	391.3137	436.796	499.57	610.9457	735.239	756.9351	842.211	864.6171	895.5847	912.0221	945.6719	1018.1577	1032.6289	1062.64	1081.7159	1099.9264	1102.0091	1128.4973	1158.3739	1175.2348	1201.8047	1255.2081	1285.5293	1336.8314	1391.8889	1420.8935	1437.9747	1443.8395	1474.6309	1501.105	1504.2204	1530.5974	1795.7768	2934.8813	3038.2739	3081.0257	3084.5955	3095.7366	3123.6066	3129.3856	3144.8907	3170.2443	3222.4056
CC1CC1(C=O)C1CO1	C[C@H]1C[C@]1(C=O)[C@H]1CO1	
InChI=1S/C7H10O2/c1-5-2-7(5,4-8)6-3-9-6/h4-6H,2-3H2,1H3	InChI=1S/C7H10O2/c1-5-2-7(5,4-8)6-3-9-6/h4-6H,2-3H2,1H3/t5-,6+,7+/m0/s1
