23
gdb 109950	2.12788	1.48049	1.06832	1.0288	86.6	-0.2404	0.076	0.3164	1262.6511	0.204515	-388.260059	-388.250269	-388.249325	-388.294599	36.838	
C	 0.2633925095	 1.6220774788	 0.4611321664	-0.239547
O	 0.5270299259	 0.271698572	 0.1505748717	-0.238524
C	 0.7690917086	-0.5345516624	 1.2741571492	 0.078558
C	-0.4422477143	-1.2028070979	 2.019475946	-0.028148
C	-1.732469648	-1.2471808176	 1.2071470255	-0.388297
C	 0.3587889334	-2.5454641634	 2.0034221112	-0.323657
C	 1.2977311333	-1.9306309592	 0.9582669913	 0.339275
C	 1.5324651702	-2.4401127234	-0.4340437654	-0.302929
C	 2.6811587067	-2.3257415296	 0.5413398074	-0.344228
H	 1.1015714184	 2.0820118596	 1.007662693	 0.104792
H	 0.1248011307	 2.1521260801	-0.4845103	 0.125719
H	-0.6466398132	 1.7402023444	 1.0672754662	 0.108225
H	 1.4230688894	-0.0003458198	 1.9826732141	 0.057132
H	-0.6380821541	-0.8000780425	 3.0176394624	 0.059989
H	-1.5520197686	-1.626721997	 0.1973314344	 0.128102
H	-2.4656374184	-1.9013337285	 1.6913551051	 0.108107
H	-2.182843568	-0.2542965919	 1.1092024433	 0.111997
H	 0.8543242851	-2.7599157092	 2.9554108713	 0.096452
H	-0.2038883098	-3.4317645071	 1.69513634	 0.096832
H	 1.1670076867	-3.4321762181	-0.6807104029	 0.105645
H	 1.4732001729	-1.7180739134	-1.2404899217	 0.126901
H	 3.409459235	-1.5364885338	 0.3807365083	 0.110234
H	 3.0963924086	-3.23987396	 0.9542108533	 0.10737
67.7119	109.5675	158.2198	179.1233	214.2372	227.2131	241.2148	295.4012	337.7778	385.872	475.371	512.6461	621.7057	778.4285	797.8848	806.1062	827.444	893.8306	903.4187	935.7608	948.2336	993.8783	1023.6907	1054.0524	1067.2839	1074.8185	1089.5801	1127.0129	1158.0741	1181.3575	1189.3021	1192.9332	1206.8663	1232.3536	1246.6689	1275.5892	1295.7764	1351.736	1381.4651	1398.3065	1412.5237	1460.4486	1479.716	1485.1933	1489.8786	1495.4311	1495.7564	1501.7658	1510.9912	2960.5701	2978.7766	3027.2171	3033.4906	3041.3413	3056.2096	3091.2717	3096.6485	3112.2513	3113.8571	3119.58	3128.7026	3200.2908	3222.0379
COC1C(C)CC11CC1	CO[C@H]1[C@@H](C)CC21CC2	
InChI=1S/C8H14O/c1-6-5-8(3-4-8)7(6)9-2/h6-7H,3-5H2,1-2H3	InChI=1S/C8H14O/c1-6-5-8(3-4-8)7(6)9-2/h6-7H,3-5H2,1-2H3/t6-,7-/m0/s1
