17
gdb 117115	2.65126	0.99063	0.80461	2.8241	70.28	-0.2709	-0.018	0.2529	1453.1483	0.134488	-455.182293	-455.172183	-455.171239	-455.218735	34.447	
C	-0.179323386	 1.4828481123	 0.0443049925	-0.394218
C	-0.0247115331	-0.0227925573	-0.0193439274	-0.052137
O	-1.3556208858	-0.5966874448	-0.068110507	-0.237849
C	-1.4199957434	-1.9265411644	-0.0752177089	 0.475817
O	-0.4834544941	-2.6802369018	-0.0818912087	-0.34973
C	-2.886689874	-2.398968933	-0.0495311656	-0.209386
N	-2.9478233361	-3.7574718676	-0.5615259413	-0.502579
C	-3.3973623461	-2.2348583043	 1.3303463036	 0.255261
N	-3.8211386521	-2.1566877665	 2.4032235143	-0.318237
H	 0.8084180501	 1.9512580737	 0.0813103734	 0.130499
H	-0.7067635624	 1.8599192389	-0.8361098561	 0.134754
H	-0.7365155078	 1.7805673727	 0.9365230684	 0.140377
H	 0.5228380948	-0.3470498488	-0.9091823615	 0.131981
H	 0.4926657257	-0.4250764877	 0.8562902557	 0.134967
H	-3.4650833696	-1.7237659154	-0.690264915	 0.153553
H	-2.174025802	-4.287382402	-0.1703545221	 0.25778
H	-3.8158135682	-4.2052904339	-0.2895330142	 0.249147
33.5316	66.4789	96.2167	143.9076	176.5219	235.3081	246.6305	264.9822	314.2938	352.575	432.8515	449.7892	589.2644	673.3448	790.9872	809.8023	854.9348	882.2402	927.1464	968.6332	1042.966	1131.8072	1135.9311	1181.4755	1190.9413	1270.0314	1294.4734	1323.7828	1380.1307	1403.3231	1426.0881	1485.2969	1495.7359	1517.2012	1637.0205	1835.7951	2345.3877	3049.8934	3053.7718	3060.1634	3101.2695	3125.1372	3132.7766	3506.0037	3597.4539
CCOC(=O)C(N)C#N	CCOC(=O)[C@@H](N)C#N	
InChI=1S/C5H8N2O2/c1-2-9-5(8)4(7)3-6/h4H,2,7H2,1H3	InChI=1S/C5H8N2O2/c1-2-9-5(8)4(7)3-6/h4H,2,7H2,1H3/t4-/m0/s1
