18
gdb 85578	2.75483	1.4257	1.08307	0.753	73.38	-0.2506	-0.0332	0.2174	1129.3502	0.147654	-439.127318	-439.118789	-439.117845	-439.160923	31.827	
C	 0.63965868	 1.3045548957	-0.2994945702	-0.40294
C	-0.0584491868	 0.0182936647	 0.1522461163	 0.020657
O	-0.1698177396	-0.9290401348	-0.9224589523	-0.26
C	 0.8524929908	-1.7904166546	-1.2133796154	 0.397608
N	 0.8681163034	-2.4600397196	-2.2863422701	-0.512751
C	 1.9156421486	-1.9555336304	-0.1565293467	-0.310608
C	 1.2960720969	-1.8827357952	 1.2474097588	-0.317754
C	 0.5944232407	-0.5529121625	 1.4186477359	 0.371785
O	 0.5485009678	 0.0668712719	 2.4533266856	-0.308641
H	 1.6787610177	 1.117794338	-0.5873724339	 0.128005
H	 0.1149770062	 1.7282509197	-1.1591308281	 0.135806
H	 0.6315842523	 2.0264819144	 0.5204235738	 0.150222
H	-1.095337144	 0.2521826923	 0.413112272	 0.128155
H	 0.0683868012	-2.2069368611	-2.8707594482	 0.220395
H	 2.4204648117	-2.9048316744	-0.3364725312	 0.147809
H	 2.6707392175	-1.1670452951	-0.2685317707	 0.13279
H	 0.5486996689	-2.6796458705	 1.3618016394	 0.144089
H	 2.0313196666	-2.0040482086	 2.0456599148	 0.135373
55.1786	93.7206	182.5042	217.9492	245.7128	360.6053	413.0909	418.1539	431.8578	498.2298	606.6902	614.5015	693.4386	750.7783	785.0824	884.3791	909.7263	926.2124	979.9437	1003.9589	1044.3691	1083.5586	1108.7681	1145.5272	1163.6616	1189.3091	1253.724	1308.6685	1312.2761	1328.2889	1352.7636	1395.3095	1398.6566	1457.8117	1476.9073	1490.63	1494.5241	1755.4468	1825.0816	3026.6491	3038.3343	3048.3438	3068.1391	3114.5517	3123.5181	3132.1611	3140.6254	3463.1008
CC1OC(=N)CCC1=O	C[C@H]1O[C]([NH])CCC1=O	
InChI=1S/C6H9NO2/c1-4-5(8)2-3-6(7)9-4/h4,7H,2-3H2,1H3	InChI=1S/C6H9NO2/c1-4-5(8)2-3-6(7)9-4/h4,7H,2-3H2,1H3/t4-/m1/s1
