18
gdb 83711	2.57097	1.76504	1.24948	2.8195	72.41	-0.2627	0.0233	0.286	1027.2758	0.148951	-439.090508	-439.082716	-439.081772	-439.12305	29.666	
C	 0.0594759142	 1.6152969259	-0.0005332513	-0.397644
C	 0.0841080168	 0.0875379889	-0.0059469947	-0.10856
C	 0.8172822189	-0.5607041122	-1.1754132429	 0.087145
O	 2.0669961133	 0.0814232781	-1.5250565078	-0.288523
C	 2.8282847857	-1.0924168747	-1.1580753521	-0.093785
C	 1.5767470633	-1.7618202995	-0.5720858999	 0.036781
O	 1.4797449993	-1.6419062245	 0.8447144242	-0.251304
C	 0.7740450856	-0.5191522411	 1.2074474676	 0.402932
N	 0.6886944074	-0.0871291741	 2.3880049913	-0.530655
H	 1.0686053428	 2.0088471106	-0.139395469	 0.140207
H	-0.5746448294	 1.9985951157	-0.8052869994	 0.111661
H	-0.3261433637	 1.9712981262	 0.956840444	 0.146771
H	-0.9458636032	-0.296051769	-0.0045798694	 0.107151
H	 0.194706521	-0.7330832055	-2.0583790763	 0.083539
H	 3.2456004525	-1.5976601576	-2.0380577288	 0.107561
H	 3.6239278362	-0.8729862701	-0.4391351701	 0.121887
H	 1.3425761158	-2.7864679889	-0.8606373407	 0.100488
H	 1.2274453235	-0.6693822681	 3.0307794854	 0.224348
83.3813	120.5358	203.7117	228.5587	262.347	389.1418	455.6766	481.3206	592.773	649.2589	717.3084	776.3772	833.5686	879.5159	893.378	902.8648	934.6094	971.9034	1008.0989	1032.0074	1049.7781	1070.3451	1112.6726	1134.3042	1148.9543	1175.6769	1230.814	1253.9568	1273.9341	1295.3008	1322.2165	1356.5308	1358.3487	1383.3045	1407.0621	1491.6892	1503.8196	1508.5008	1780.0162	3014.5819	3022.854	3052.7475	3065.4747	3086.6351	3115.4665	3126.3637	3144.9283	3479.1114
CC1C2OCC2OC1=N	C[C@H]1[C@H]2OC[C@H]2O[C]1[NH]	
InChI=1S/C6H9NO2/c1-3-5-4(2-8-5)9-6(3)7/h3-5,7H,2H2,1H3	InChI=1S/C6H9NO2/c1-3-5-4(2-8-5)9-6(3)7/h3-5,7H,2H2,1H3/t3-,4+,5+/m0/s1
