20
gdb 57787	3.66454	0.70858	0.62915	1.1592	87.31	-0.2267	0.0243	0.251	1812.4067	0.168399	-403.0849	-403.07443	-403.073486	-403.122006	37.202	
C	-0.0175585169	 1.6417832046	 0.1546760952	-0.38328
C	 0.023715742	 0.1070747851	 0.1088046107	-0.020915
O	 0.7716728189	-0.4295137665	 1.1990559331	-0.41346
C	-1.3257406423	-0.4626784702	 0.0389131519	 0.066325
C	-2.4439989204	-0.9160425947	 0.0135937409	 0.070368
C	-3.7789513475	-1.4477803628	 0.0214469563	-0.180598
C	-4.3054843474	-2.173981713	-1.1844967107	-0.23683
N	-4.0444830188	-2.9007037166	 0.0422573733	-0.0773
C	-2.904164053	-3.8087439938	 0.045519049	-0.310249
H	 1.0026059401	 2.0297367005	 0.2143011741	 0.125824
H	-0.5042915376	 2.0462163423	-0.7375344563	 0.125268
H	-0.5765502336	 1.9835415184	 1.0317769156	 0.117065
H	 0.5861015979	-0.2011529751	-0.7811573473	 0.117138
H	 0.2367715041	-0.3220112595	 1.9935124902	 0.28185
H	-4.4893924427	-0.8817690126	 0.6200525232	 0.113054
H	-5.3492566394	-2.0603097397	-1.4657614878	 0.120294
H	-3.6115418337	-2.2964683522	-2.0145956122	 0.117521
H	-2.050560724	-3.4547898751	-0.5503602856	 0.116498
H	-2.5651962226	-3.9560543789	 1.0751818786	 0.12767
H	-3.233900333	-4.77430295	-0.3497881521	 0.123759
16.7292	72.3748	96.5461	156.7959	183.648	220.2461	250.5522	288.6885	331.6876	369.7726	385.5572	487.1662	522.3015	543.7236	611.6517	708.01	756.7733	846.2969	894.4504	955.8529	1019.666	1027.8489	1055.8987	1086.548	1105.4651	1114.6179	1127.9398	1164.2799	1201.3683	1209.3248	1280.8555	1322.2816	1336.2516	1374.4835	1398.1383	1417.3251	1450.5296	1487.1175	1489.0355	1491.5505	1494.4588	1506.7792	2344.6718	2999.5	3035.3813	3040.1413	3080.362	3093.0757	3111.2499	3114.7162	3124.9188	3127.4239	3182.5686	3803.8546
CC(O)C#CC1CN1C	C[C@@H](O)C#C[C@H]1CN1C	
InChI=1S/C7H11NO/c1-6(9)3-4-7-5-8(7)2/h6-7,9H,5H2,1-2H3	InChI=1S/C7H11NO/c1-6(9)3-4-7-5-8(7)2/h6-7,9H,5H2,1-2H3/t6-,7+,8?/m1/s1
