20
gdb 29264	5.26813	0.90832	0.82981	1.6789	89.21	-0.1844	0.0484	0.2328	1451.4911	0.171962	-366.043791	-366.034922	-366.033977	-366.077765	33.576	
C	-0.0151469785	 1.537874618	 0.0083470886	-0.499351
C	 0.0006196633	 0.0389706521	 0.0117158686	 0.297352
C	-0.0281692909	-0.7831707951	-1.0894651205	-0.18445
N	 0.0005882729	-2.0897973383	-0.6536366075	-0.33381
C	 0.0477097713	-2.1259142162	 0.7210025358	 0.35865
C	 0.0485959362	-0.8174609277	 1.1543014402	-0.352174
C	 0.0872072919	-3.3771411003	 1.4993334981	-0.072707
C	-0.6684486996	-4.6197058459	 1.0692526374	-0.27498
C	 0.835175635	-4.604968219	 1.016840556	-0.275043
H	 0.8791508351	 1.95596983	 0.4858999809	 0.120745
H	-0.0564490361	 1.9299971085	-1.01236513	 0.114293
H	-0.8808477879	 1.9374955907	 0.5500637103	 0.120729
H	-0.066449015	-0.5490949633	-2.1417977162	 0.10718
H	-0.0118010637	-2.8934414341	-1.2560471122	 0.253214
H	 0.0805157889	-0.5055329456	 2.1883334129	 0.081879
H	 0.1226960901	-3.1959448093	 2.5681852715	 0.091051
H	-1.154861889	-5.2130729693	 1.8356047387	 0.116812
H	-1.2183492895	-4.5735898632	 0.1347381763	 0.106912
H	 1.3177430213	-4.5488881057	 0.0463630071	 0.10688
H	 1.3852695542	-5.1881465461	 1.7471003341	 0.116816
51.2404	102.7105	142.7919	159.4342	260.6866	286.343	371.1707	419.926	461.0343	586.5056	635.363	684.4503	689.8853	706.0964	786.7574	797.6404	813.2573	901.2012	905.4463	986.8579	990.9228	1005.0914	1057.2749	1059.3904	1063.7551	1069.1111	1128.7796	1136.4075	1162.5835	1200.2054	1220.032	1277.0424	1314.9138	1372.1424	1416.4457	1421.0967	1464.2814	1473.2315	1482.8131	1498.388	1505.155	1561.6582	1639.152	3020.5347	3067.0756	3099.6095	3127.6529	3132.6075	3166.8087	3205.367	3222.3449	3232.8365	3255.1171	3684.1134
CC1=CNC(=C1)C1CC1	Cc1c[nH]c(c1)C1CC1	
InChI=1S/C8H11N/c1-6-4-8(9-5-6)7-2-3-7/h4-5,7,9H,2-3H2,1H3	InChI=1S/C8H11N/c1-6-4-8(9-5-6)7-2-3-7/h4-5,7,9H,2-3H2,1H3
