16
gdb 26434	4.21319	1.06831	0.91632	3.2934	74.71	-0.2191	-0.0026	0.2165	1242.3775	0.12464	-437.934483	-437.92617	-437.925226	-437.968373	29.615	
C	 0.3102536696	 1.3914450277	-0.0509193877	-0.361963
N	-0.0813890658	-0.0172654733	-0.0140217307	-0.176449
C	-0.4866544403	-0.5891857049	 1.174008214	 0.142215
O	-0.498011706	-0.0244496448	 2.24303151	-0.32389
C	-0.0120464553	-0.7809538527	-1.171350575	 0.412452
C	 0.4903052971	-2.0179054129	-1.4395264216	-0.26389
C	 0.1941558425	-2.2727517208	-2.8196809822	-0.165343
C	-0.4407767969	-1.1675391399	-3.2831176869	-0.012813
O	-0.586933673	-0.2476735226	-2.2865736022	-0.171886
H	 1.3529330964	 1.4888082703	-0.3686276116	 0.135462
H	-0.3265132162	 1.948386591	-0.7427774772	 0.146077
H	 0.1945804665	 1.7836348719	 0.9588925545	 0.170725
H	-0.8013978446	-1.6374917385	 1.0273898227	 0.091419
H	 1.025319741	-2.6516706498	-0.751163986	 0.119491
H	 0.4423671139	-3.1557011576	-3.3870752466	 0.118421
H	-0.8242164088	-0.873899393	-4.2457127935	 0.139973
51.042	98.4295	123.7638	147.7915	302.2873	329.4979	384.2146	449.6031	475.8866	613.2857	693.8346	742.8803	805.0497	807.0903	853.5312	900.388	921.5546	1012.7058	1033.9726	1039.8663	1103.5223	1142.1886	1158.7356	1192.7777	1239.7713	1302.2046	1356.2227	1417.4167	1433.309	1440.0982	1496.3064	1512.4839	1550.2764	1649.3751	1801.5112	2981.6111	3047.0902	3112.745	3167.5353	3257.1876	3270.7648	3290.952
CN(C=O)C1=CC=CO1	CN(C=O)c1ccco1	
InChI=1S/C6H7NO2/c1-7(5-8)6-3-2-4-9-6/h2-5H,1H3	InChI=1S/C6H7NO2/c1-7(5-8)6-3-2-4-9-6/h2-5H,1H3
