18
gdb 45178	2.82061	1.87482	1.61344	3.0208	74.41	-0.218	-0.022	0.196	899.1455	0.15074	-401.924429	-401.91795	-401.917006	-401.955099	27.111	
O	 0.0057993537	-0.019642962	-0.1592969295	-0.328816
C	-0.0029671484	 1.1793937947	-0.025962759	 0.410449
C	-1.2746360434	 2.0231381555	 0.1194521061	-0.328837
C	-0.8878837098	 3.3367540735	 0.8078503692	-0.059217
C	 0.0251689953	 2.9724509028	 2.0065841186	-0.178769
N	 1.2322974248	 3.0846000942	 1.1228370981	-0.137353
C	 0.4132892974	 3.9439641237	 0.170239562	 0.020018
C	 1.0207907633	 3.2013505018	-1.0221972969	-0.259517
C	 1.247904804	 2.04546755	-0.0030055538	-0.096898
H	-1.7027221421	 2.1900322409	-0.8769272694	 0.128305
H	-2.0139803791	 1.4583981967	 0.6956470556	 0.127733
H	-1.7392054453	 4.0032282907	 0.9654844353	 0.070807
H	 0.0890128411	 3.751811724	 2.7715732176	 0.113082
H	-0.1297304878	 2.0038437541	 2.4949960715	 0.113627
H	 0.5153271218	 5.0287680699	 0.2573557849	 0.077268
H	 0.4187991391	 2.9998026419	-1.9106784629	 0.110942
H	 1.9679513725	 3.6577782025	-1.3161562353	 0.125735
H	 2.1561175629	 1.444795225	-0.054401222	 0.09144
112.4952	317.5612	351.5814	380.9873	445.0745	484.2125	538.5402	632.5869	707.8743	740.2007	749.986	824.216	851.5216	905.3999	920.4411	934.554	972.5603	977.6268	988.8551	1041.8487	1059.3681	1073.4948	1088.6458	1160.0761	1169.1888	1202.2989	1213.8704	1239.7918	1254.5764	1262.4678	1277.9222	1294.068	1300.392	1344.9734	1350.1319	1453.4986	1488.2687	1502.0933	1828.5796	3036.6148	3037.5467	3067.0373	3072.5148	3081.9608	3090.3782	3095.4062	3114.1918	3129.5524
O=C1CC2CN3C2CC13	O=C1C[C@H]2CN3[C@H]2C[C@H]13	
InChI=1S/C7H9NO/c9-7-1-4-3-8-5(4)2-6(7)8/h4-6H,1-3H2	InChI=1S/C7H9NO/c9-7-1-4-3-8-5(4)2-6(7)8/h4-6H,1-3H2/t4-,5-,6+/m0/s1
