13
gdb 21217	7.0288	1.36519	1.15282	3.9567	58.18	-0.2305	0.0279	0.2584	980.4227	0.095657	-431.904606	-431.897242	-431.896297	-431.936487	26.024	
C	 0.0083676101	 1.386429469	 0.1205918424	-0.329379
N	-0.0719973104	-0.050007852	-0.1028781628	-0.392951
C	 0.6169674635	-0.6044441925	-1.1230115619	 0.537693
N	 1.2303748401	 0.0109561184	-2.0781129835	-0.242867
O	 1.7006085786	-1.0725899693	-2.9051661022	-0.247424
C	 1.3482176387	-2.2500818224	-2.3351562698	 0.51003
N	 1.5690539714	-3.4283657828	-2.7009523177	-0.580617
O	 0.6425554277	-1.9569956392	-1.1859813181	-0.217083
H	 1.007238158	 1.7083888079	 0.4400055202	 0.141081
H	-0.2373591126	 1.9053842727	-0.8084756806	 0.168704
H	-0.7223991225	 1.6619650614	 0.8823011509	 0.139511
H	-0.1954095618	-0.6492096018	 0.6983498618	 0.269474
H	 2.1036162493	-3.4422482794	-3.5658564288	 0.243827
97.2803	127.8183	185.0986	195.2454	326.5261	375.1184	437.886	540.3146	689.6554	709.8192	740.1638	770.942	782.307	908.1012	963.4133	983.2645	1038.4708	1127.3155	1155.8931	1186.587	1266.8447	1356.546	1457.8923	1483.9879	1509.6647	1569.4852	1717.2356	1818.1177	3028.9241	3108.6283	3148.5837	3546.0406	3635.2284
CNC1=NOC(=N)O1	CNC1=NO[C@H]([NH])O1	
InChI=1S/C3H5N3O2/c1-5-3-6-8-2(4)7-3/h4H,1H3,(H,5,6)	InChI=1S/C3H6N3O2/c1-5-3-6-8-2(4)7-3/h2,4H,1H3,(H,5,6)/t2-/m1/s1
