19
gdb 47005	2.62417	1.7567	1.41829	4.5519	73.92	-0.2548	0.0188	0.2736	981.9371	0.163172	-423.086959	-423.079739	-423.078795	-423.118817	28.498	
O	-0.0111362815	 0.0070962264	-0.3581781361	-0.332785
C	-0.0152306634	 1.1472950759	 0.0174462342	 0.415219
O	-1.194948855	 1.7163186359	 0.3853952295	-0.240214
C	-1.2718772534	 3.0138266222	 1.0098782361	-0.06708
C	-0.0055114808	 3.8563056383	 0.8740183643	-0.025669
C	 0.2967756665	 4.2234880302	-0.5993769703	-0.213722
C	 1.148976907	 3.0385571991	-1.1400326182	-0.221643
C	 1.2191756664	 2.0374191583	 0.0461908005	-0.123479
C	 1.1830290953	 2.9657206095	 1.2708256877	-0.246105
H	-2.1318336725	 3.5132979995	 0.5521652961	 0.11755
H	-1.5030671579	 2.8439058634	 2.0689450277	 0.113147
H	-0.1238866846	 4.739479652	 1.5086459106	 0.076527
H	-0.6214482291	 4.3717023705	-1.174785825	 0.107235
H	 0.8582725637	 5.1603471566	-0.6490268612	 0.105066
H	 0.7264523884	 2.5820075426	-2.0381890003	 0.122565
H	 2.1616811931	 3.3661433328	-1.3918705502	 0.107365
H	 2.0859356228	 1.3789327051	-0.0088281298	 0.095701
H	 2.1132882936	 3.5383013836	 1.3470455209	 0.102371
H	 1.0309308216	 2.4375900079	 2.2175034333	 0.107952
89.174	130.2842	218.3654	345.6338	392.075	424.9304	477.6078	585.9516	684.9793	729.3591	787.294	799.1685	827.0212	860.7636	893.4178	931.5332	961.8425	972.0517	982.5439	1023.2855	1052.0734	1073.5665	1099.8033	1135.8437	1190.3423	1192.6127	1223.4815	1240.1254	1262.6744	1287.3683	1310.5388	1336.1449	1351.3207	1355.3788	1359.6024	1425.8401	1490.0092	1497.2145	1510.2429	1520.1563	1845.863	3024.8822	3044.257	3053.2756	3061.8788	3072.5593	3076.588	3090.8165	3091.5465	3112.0738	3118.7142
O=C1OCC2CCC1C2	O=C1OC[C@@H]2CC[C@H]1C2	
InChI=1S/C7H10O2/c8-7-6-2-1-5(3-6)4-9-7/h5-6H,1-4H2	InChI=1S/C7H10O2/c8-7-6-2-1-5(3-6)4-9-7/h5-6H,1-4H2/t5-,6+/m1/s1
