21
gdb 108421	2.63895	1.49805	1.17129	1.998	82.07	-0.2387	0.0128	0.2516	1140.9028	0.18356	-387.088028	-387.079706	-387.078762	-387.120812	32.452	
C	-0.2462186128	 1.5891205712	-0.1010707499	-0.387005
C	-0.0462252845	 0.0705705255	-0.0325729181	-0.274918
C	 0.8302996264	-0.4849831819	-1.1508432523	 0.310726
C	 0.1582688414	-0.5358696342	-2.5493649518	-0.122774
O	 0.0856315928	-1.9765360567	-2.5330588942	-0.296819
C	 0.8705069712	-2.0329222295	-1.3115400928	 0.039788
C	 2.3212326558	-2.3551613754	-1.5318635135	-0.088022
C	 3.0841746058	-1.2644320291	-1.4488570747	-0.066856
C	 2.3014540767	-0.0107571627	-1.1308018657	-0.337911
H	 0.7048753937	 2.1245476885	-0.0137669006	 0.119108
H	-0.7082521331	 1.8865297791	-1.0487907723	 0.118375
H	-0.8973881583	 1.9360166849	 0.7067942394	 0.115595
H	 0.4001989911	-0.1984419286	 0.9341938514	 0.09619
H	-1.023571126	-0.4273973882	-0.0685899592	 0.10332
H	-0.8386554756	-0.0834829909	-2.6204179122	 0.096901
H	 0.7786798294	-0.1628791795	-3.3752620636	 0.094333
H	 0.3734738385	-2.6624581307	-0.5633303646	 0.070828
H	 2.6738018244	-3.3574568514	-1.7472104904	 0.099654
H	 4.1614753894	-1.2490818489	-1.581653095	 0.09771
H	 2.4947791396	 0.7902342668	-1.8561760201	 0.106806
H	 2.5848074041	 0.3947365918	-0.1493551799	 0.10497
101.7308	128.9746	177.236	226.9981	254.586	334.8261	349.8506	406.5265	502.2763	607.6541	662.9025	745.5062	787.9858	794.7176	874.0447	915.1509	924.3915	955.0995	968.9573	977.2484	996.4622	1009.5772	1017.3259	1023.4361	1050.6268	1113.8895	1129.3607	1152.0545	1164.5179	1225.3898	1241.0734	1272.1098	1300.4633	1321.951	1339.0601	1364.5768	1369.6301	1378.7474	1413.8137	1479.7969	1489.1917	1501.4447	1506.6252	1520.8766	1677.651	3002.4702	3006.7657	3013.6978	3031.638	3035.2703	3037.0942	3047.2928	3051.0838	3102.0113	3106.8258	3176.4885	3206.3529
CCC12COC1C=CC2	CC[C@]12CO[C@H]1C=CC2	
InChI=1S/C8H12O/c1-2-8-5-3-4-7(8)9-6-8/h3-4,7H,2,5-6H2,1H3	InChI=1S/C8H12O/c1-2-8-5-3-4-7(8)9-6-8/h3-4,7H,2,5-6H2,1H3/t7-,8-/m0/s1
