23
gdb 115722	2.64557	1.14996	0.92217	1.6264	85.49	-0.2627	0.0825	0.3453	1379.493	0.205701	-388.261582	-388.252143	-388.251199	-388.296154	35.416	
C	 0.0788845542	 1.5279320324	-0.1908194064	-0.387084
C	 0.003413148	 0.0346328079	 0.1433904228	-0.174609
C	-1.4196541174	-0.5197716473	 0.0450037963	 0.005471
C	-1.9456230062	-0.71357999	-1.4105144431	-0.230912
C	-1.6995567618	-2.2404312368	-1.2865241275	-0.240558
C	-1.5765920705	-2.0698093703	 0.2510426709	-0.012896
C	-0.5098863665	-2.8357435033	 0.9871472242	 0.05899
C	-0.1012109693	-4.1915635317	 0.5959233236	-0.184338
O	 0.7334244091	-3.0667205335	 0.3131682207	-0.230259
H	 1.1064618366	 1.8978376353	-0.1199996888	 0.11165
H	-0.2761475728	 1.7311826177	-1.2069010429	 0.116005
H	-0.5366950206	 2.1192049818	 0.4967960407	 0.109934
H	 0.6694703799	-0.5312442235	-0.5179240127	 0.114086
H	 0.3853273175	-0.1260263917	 1.1595313137	 0.092733
H	-2.076778939	 0.0783139395	 0.6863654855	 0.058309
H	-3.0060631581	-0.4668588993	-1.5098750009	 0.096352
H	-1.397469313	-0.191776808	-2.1993708574	 0.097225
H	-2.48313346	-2.9072550733	-1.6540885619	 0.09161
H	-0.7443026275	-2.5411543876	-1.7238379705	 0.119754
H	-2.5337679532	-2.2770037243	 0.7445866848	 0.072876
H	-0.3859735952	-2.5664792658	 2.0383835094	 0.088798
H	 0.2831646263	-4.8820888557	 1.3453345277	 0.11273
H	-0.5609337804	-4.6591076026	-0.2736772382	 0.114132
80.4708	98.6461	113.8157	148.2311	220.9088	226.7965	263.9735	331.7985	378.6054	481.9992	602.381	665.3771	747.0386	766.0659	810.2876	833.11	884.3815	911.8198	940.1742	953.8648	965.0697	986.9879	1002.7442	1039.0206	1083.5275	1095.9502	1113.2264	1143.8318	1162.4069	1167.4146	1176.1864	1223.9692	1253.1657	1257.1605	1271.8816	1280.3027	1286.8613	1310.9383	1343.0729	1368.0271	1392.1756	1412.8912	1427.2412	1481.5809	1485.0704	1499.7639	1502.3898	1508.0818	1527.6184	3024.4029	3026.4222	3029.3844	3038.122	3056.2847	3064.1305	3065.9761	3081.7373	3087.1238	3095.9733	3100.9921	3102.2531	3121.4415	3169.5675
CCC1CCC1C1CO1	CC[C@H]1CC[C@H]1[C@H]1CO1	
InChI=1S/C8H14O/c1-2-6-3-4-7(6)8-5-9-8/h6-8H,2-5H2,1H3	InChI=1S/C8H14O/c1-2-6-3-4-7(6)8-5-9-8/h6-8H,2-5H2,1H3/t6-,7+,8+/m0/s1
