17
gdb 48660	2.21724	1.5789	1.14437	3.6024	76.41	-0.2519	-0.0586	0.1933	1097.054	0.134473	-421.825584	-421.817162	-421.816218	-421.858894	30.807	
O	-0.2361928305	 0.2105287146	-0.1486586521	-0.265945
C	-0.0253903506	 1.400378706	-0.1992558964	 0.062084
C	 1.3109138582	 1.9905733908	-0.0214143096	 0.2227
C	 1.5157388418	 3.4215233302	 0.3705980302	-0.371357
C	 1.9822569053	 3.0603685373	-1.0038890255	 0.20238
C	 3.2754366151	 2.2381568973	-0.9693310491	-0.300674
C	 2.6223650139	 1.2065392304	 0.0044832251	-0.29096
C	 1.3292189029	 3.6222987793	-2.2017879972	 0.065348
O	 0.2600707127	 4.1885781881	-2.1999428288	-0.268917
H	-0.8368157302	 2.1323662624	-0.3947577932	 0.098396
H	 0.6216126913	 4.0371868806	 0.3820031035	 0.154774
H	 2.2519540039	 3.6507223126	 1.1369116667	 0.127596
H	 3.5157903509	 1.7989779503	-1.9404917114	 0.120623
H	 4.1551631934	 2.7728922623	-0.5993093327	 0.111995
H	 3.083653423	 1.1122334091	 0.9913082911	 0.113287
H	 2.5093493766	 0.212947786	-0.4295418997	 0.138237
H	 1.9005334325	 3.4732586625	-3.1452418012	 0.080433
85.3677	110.5477	177.7506	187.584	234.6275	269.7689	370.679	405.2891	471.1652	532.8956	674.8615	716.9194	765.1235	798.6738	819.5894	943.3138	946.7955	975.1779	1005.7903	1030.0053	1049.2455	1094.5027	1107.6318	1153.6503	1211.7175	1244.5013	1248.013	1272.4567	1339.26	1375.0548	1428.702	1436.9853	1472.4671	1481.7024	1504.0539	1788.0656	1796.3048	2883.6157	2917.1405	3055.049	3069.0773	3107.9958	3114.4103	3140.3972	3213.0061
O=CC12CC1(CC2)C=O	O=C[C@]12C[C@]1(CC2)C=O	
InChI=1S/C7H8O2/c8-4-6-1-2-7(6,3-6)5-9/h4-5H,1-3H2	InChI=1S/C7H8O2/c8-4-6-1-2-7(6,3-6)5-9/h4-5H,1-3H2/t6-,7+
