20
gdb 58672	1.87618	1.5775	1.20872	4.2242	80.6	-0.2306	0.0302	0.2608	1163.671	0.17021	-399.306837	-399.296888	-399.295944	-399.341075	36.899	
C	 0.1319857992	 1.2517604398	-0.3914113669	-0.335861
N	-0.0027332402	-0.1042250194	 0.1355752349	-0.118949
C	 0.6139200737	-0.2507214306	 1.4564983466	-0.349537
C	-1.353288974	-0.5962951627	 0.0980193291	 0.178385
C	-1.8799012955	-1.0923663722	-1.2472523925	-0.351146
C	-1.5387850007	-2.085512855	-0.1647111805	-0.01923
N	-0.3636204463	-2.9119626467	-0.1790808361	-0.522098
C	-2.3063932014	 0.0539257385	 0.9822613	 0.260349
N	-3.0264513707	 0.6024467743	 1.7039289348	-0.359602
H	 1.1936694067	 1.5091356202	-0.4489235528	 0.123279
H	-0.2901295459	 1.3009879129	-1.3987257619	 0.124279
H	-0.3724906719	 2.0076983956	 0.2331155695	 0.122176
H	 0.1437228204	 0.3902741915	 2.2202858953	 0.123038
H	 0.5399720805	-1.2926032026	 1.7755881983	 0.149176
H	 1.6716901278	 0.0194334609	 1.3865630677	 0.120283
H	-2.9189436687	-0.8962935251	-1.4857066815	 0.133929
H	-1.1823520445	-0.99540487	-2.0720916901	 0.124822
H	-2.3779461418	-2.5443486113	 0.3491757374	 0.121753
H	-0.504738522	-3.7088565217	-0.7925513804	 0.235702
H	 0.4151750554	-2.3726436165	-0.5456908709	 0.239253
98.8201	131.1645	149.1339	178.2857	231.1629	241.2412	260.7646	276.476	338.2016	376.8918	394.7128	447.7517	509.1717	581.5457	625.7446	653.5866	817.4711	856.6351	896.2401	914.8934	973.687	1039.947	1054.7739	1063.4373	1079.5148	1126.1963	1151.9708	1190.2491	1198.5337	1241.3776	1266.0759	1281.8195	1334.2145	1424.7048	1443.4315	1468.1988	1474.1182	1484.3859	1499.5924	1502.1434	1518.2438	1635.4259	2333.3342	2971.4769	2977.4131	3074.0298	3079.4529	3117.3025	3131.3411	3136.6981	3161.4816	3233.3613	3491.522	3574.188
CN(C)C1(CC1N)C#N	CN(C)[C@]1(C[C@H]1N)C#N	
InChI=1S/C6H11N3/c1-9(2)6(4-7)3-5(6)8/h5H,3,8H2,1-2H3	InChI=1S/C6H11N3/c1-9(2)6(4-7)3-5(6)8/h5H,3,8H2,1-2H3/t5-,6-/m1/s1
