18
gdb 104142	3.18174	1.09651	1.0542	4.2844	68.02	-0.2396	0.0353	0.2749	1195.8493	0.147836	-476.263411	-476.254548	-476.253604	-476.296897	33.539	
O	-0.1247189414	 1.4894156822	 0.0486150783	-0.436505
C	 0.0177316456	 0.0713173713	 0.0179815998	-0.132219
C	-1.399874556	-0.506261019	-0.0004688746	 0.413482
O	-2.1163199395	-0.0085959005	 1.1114072059	-0.486117
C	-2.1079690885	-0.1775617051	-1.3510296388	-0.232715
N	-1.8046261004	-1.3409769588	-2.1637267733	-0.304395
C	-1.461760199	-2.4632375784	-1.4550144845	 0.407428
O	-1.2688541552	-3.5658911147	-1.9157000202	-0.381076
C	-1.3779932006	-2.0394091031	 0.014185989	-0.399105
H	 0.7290592739	 1.8843516667	 0.2447689701	 0.299016
H	 0.577626645	-0.2584624569	-0.8687771783	 0.106647
H	 0.5351296846	-0.2917170694	 0.9165836718	 0.103684
H	-1.8703533196	 0.9228083309	 1.1900628877	 0.287209
H	-3.1833368334	-0.0614305514	-1.164652391	 0.112787
H	-1.7281979681	 0.7454076351	-1.7979128614	 0.122171
H	-2.0339373293	-1.4144008917	-3.1426215105	 0.250656
H	-0.5005756252	-2.4748607957	 0.4972927065	 0.124118
H	-2.2648083929	-2.4071654814	 0.5405390934	 0.144936
76.8804	132.7052	160.5886	240.1885	243.8479	318.9415	352.1442	394.4259	434.8653	476.3413	497.3677	534.8251	596.721	656.4964	689.4706	789.0352	873.3356	909.3501	951.9699	984.4188	1054.5722	1068.9008	1101.4064	1122.4366	1148.8518	1190.6824	1221.1169	1253.0583	1259.0862	1286.6092	1322.228	1331.3218	1409.7201	1442.1949	1447.691	1464.337	1508.5489	1538.6166	1836.0845	2996.0311	3020.5853	3040.5667	3065.174	3088.6394	3115.8771	3634.8884	3763.3636	3846.1383
OCC1(O)CNC(=O)C1	OC[C@@]1(O)CNC(=O)C1	
InChI=1S/C5H9NO3/c7-3-5(9)1-4(8)6-2-5/h7,9H,1-3H2,(H,6,8)	InChI=1S/C5H9NO3/c7-3-5(9)1-4(8)6-2-5/h7,9H,1-3H2,(H,6,8)/t5-/m0/s1
