19
gdb 82323	2.54052	1.7343	1.28666	0.9669	73.62	-0.2479	0.0675	0.3155	1023.4577	0.160271	-422.999676	-422.991911	-422.990967	-423.031644	31.202	
O	 0.4342659658	 0.8125793834	 0.8183716821	-0.436229
C	-0.014737789	-0.3149526239	 0.0887542531	 0.048958
C	-1.5037607136	-0.282927394	-0.1740815218	-0.04274
C	-1.9955221334	 0.5995664202	-1.2953108604	-0.288446
C	-1.7389375676	-0.8635431171	-1.5581061321	-0.038717
C	-0.3916245174	-1.2419454586	-2.1636291187	-0.316637
C	 0.5998262998	-0.4593813125	-1.3111015311	 0.412394
C	 1.5299307009	 0.5358323867	-1.8538387196	-0.246742
O	 1.9950142085	-0.7386895156	-1.3807663117	-0.312728
H	 1.3445365559	 0.638113406	 1.0815525386	 0.289336
H	 0.2206746457	-1.237375398	 0.6456439904	 0.075282
H	-2.1713452024	-0.5008150938	 0.6508730263	 0.087927
H	-3.0309361838	 0.9168770222	-1.243420642	 0.111858
H	-1.3254280109	 1.3430285472	-1.7131624337	 0.121157
H	-2.5881480364	-1.5101336102	-1.7460701442	 0.086352
H	-0.2114062244	-2.3172892794	-2.0432879916	 0.11328
H	-0.3037488726	-1.0110504544	-3.2300287434	 0.10559
H	 1.5895079904	 0.6789033715	-2.9320394524	 0.11227
H	 1.8123992343	 1.3924048603	-1.2469293878	 0.117834
97.9852	192.8903	245.6384	279.8316	348.7564	372.4677	387.381	434.6149	536.8678	589.913	608.7194	770.1843	789.0909	831.1882	871.831	888.1972	918.1239	924.8892	943.4144	1015.6909	1028.5838	1059.8347	1076.0287	1102.4135	1110.2152	1132.4946	1134.6364	1160.232	1184.698	1203.5007	1229.9574	1250.5137	1301.9967	1342.9136	1348.7708	1394.0443	1418.5519	1442.0059	1488.2062	1495.0134	1529.0128	2962.3264	3033.7285	3077.0438	3089.7812	3137.2169	3173.4884	3183.4146	3184.0394	3221.2918	3807.3953
OC1C2CC2CC11CO1	O[C@H]1[C@H]2C[C@H]2C[C@]21CO2	
InChI=1S/C7H10O2/c8-6-5-1-4(5)2-7(6)3-9-7/h4-6,8H,1-3H2	InChI=1S/C7H10O2/c8-6-5-1-4(5)2-7(6)3-9-7/h4-6,8H,1-3H2/t4-,5-,6-,7+/m0/s1
