18
gdb 84047	3.46787	1.19839	0.98887	1.7181	88.2	-0.224	-0.022	0.2021	1222.4775	0.147726	-364.767601	-364.759362	-364.758418	-364.800158	32.255	
C	-0.1260699209	 1.5808631036	 0.0966658311	-0.393549
C	 0.0160453385	 0.053186094	 0.0131532502	-0.020049
C	 0.8028731627	-0.4268015176	-1.1904565115	-0.200775
C	 1.8216330514	-1.2430359416	-0.8665049463	 0.252432
C	 2.7298279876	-1.8776188089	-1.745070382	 0.207002
C	 3.5167246549	-2.4490003981	-2.457253382	-0.428661
C	 1.9002529608	-1.3836472738	 0.6290003356	-0.186754
N	 2.1836515642	-0.0829500764	 1.2925082168	-0.328347
C	 0.7903769967	-0.5661663077	 1.1799476362	-0.055485
H	 0.8585562654	 2.0419555517	 0.2041366249	 0.143131
H	-0.6051978563	 1.9815302024	-0.8022114948	 0.111999
H	-0.7388818693	 1.8665552727	 0.9578485396	 0.111103
H	-0.9923572333	-0.3866663328	-0.0179181495	 0.084464
H	 0.5696926766	-0.1091594573	-2.2003781058	 0.101014
H	 4.2085117814	-2.9387031496	-3.0964781851	 0.190274
H	 2.2587674941	-2.3013730989	 1.0809945312	 0.095345
H	 2.5116626326	-0.2643561858	 2.2396636128	 0.229826
H	 0.2621657331	-0.8506575258	 2.0837365185	 0.087029
108.5632	139.7918	187.14	232.0296	259.976	380.8098	413.5041	491.6604	521.948	568.6999	580.9798	636.5708	648.2078	708.7765	810.7357	853.9791	865.8474	876.0643	889.568	917.9073	947.0595	1028.8946	1060.0254	1101.2761	1117.8705	1135.4811	1164.6971	1183.8111	1248.2516	1268.8719	1313.9675	1332.6739	1371.3113	1397.0249	1415.759	1493.8314	1505.085	1654.47	2221.5228	2989.1249	3037.8729	3101.7034	3130.532	3163.301	3181.4046	3201.2094	3480.1805	3504.0709
CC1C=C(C#C)C2NC12	C[C@H]1C=C(C#C)[C@H]2N[C@@H]12	
InChI=1S/C8H9N/c1-3-6-4-5(2)7-8(6)9-7/h1,4-5,7-9H,2H3	InChI=1S/C8H9N/c1-3-6-4-5(2)7-8(6)9-7/h1,4-5,7-9H,2H3/t5-,7-,8+/m0/s1
