17
gdb 49660	3.00176	1.4286	1.28211	4.7401	72.02	-0.2345	-0.015	0.2196	1027.0573	0.136593	-421.804822	-421.797447	-421.796503	-421.837836	28.247	
O	 0.1465056035	-0.1497611512	-0.1817003458	-0.276338
C	-0.0048905989	 1.038557318	-0.0201284572	 0.145157
C	 1.1636227878	 1.9704051994	 0.027292867	-0.108783
C	 1.1244541156	 3.4688438676	-0.2182896619	-0.08994
C	-0.1656810519	 4.2888990254	-0.0601188989	-0.270829
C	-0.535942626	 4.2143335638	 1.4163847633	 0.042272
O	-0.8402617526	 2.897872719	 1.8970167667	-0.250083
C	 0.4779612589	 3.4145924233	 2.1267935084	 0.028956
C	 1.52700178	 2.956280742	 1.1449186797	-0.081275
H	-1.0103756367	 1.4830110543	 0.056939135	 0.096637
H	 2.0415697808	 1.4770454993	-0.3817864003	 0.111507
H	 1.8651374978	 3.8509783167	-0.9121704408	 0.100972
H	 0.0459429162	 5.3322316117	-0.3190839398	 0.116241
H	-0.9860437577	 3.960418381	-0.7062810699	 0.12594
H	-1.1127523525	 5.0126339831	 1.8773708546	 0.103296
H	 0.7436013209	 3.5645882286	 3.169055694	 0.106294
H	 2.5574720448	 2.950938778	 1.480024366	 0.099977
24.6039	128.4763	248.4623	313.8659	356.2529	398.32	485.4356	605.9525	691.6185	711.886	747.0776	809.6133	842.0618	859.303	887.9344	930.5232	950.5224	985.0078	1018.358	1030.34	1051.9109	1071.7517	1091.9728	1115.8811	1124.486	1206.4293	1226.9798	1259.5236	1294.3656	1313.7188	1343.9532	1355.2365	1386.6212	1428.2515	1446.0609	1478.8398	1797.8996	2996.8328	3049.4488	3087.6503	3142.983	3146.7918	3161.2872	3166.4943	3186.6051
O=CC1C2CC3OC3C12	O=C[C@H]1[C@H]2C[C@H]3O[C@H]3[C@@H]12	
InChI=1S/C7H8O2/c8-2-4-3-1-5-7(9-5)6(3)4/h2-7H,1H2	InChI=1S/C7H8O2/c8-2-4-3-1-5-7(9-5)6(3)4/h2-7H,1H2/t3-,4+,5-,6-,7-/m1/s1
