15
gdb 75233	3.83426	1.18599	1.05754	3.7483	68.3	-0.2449	-0.0452	0.1997	1119.2212	0.112658	-453.944652	-453.9369	-453.935956	-453.976927	29.278	
N	 0.0545025568	 1.3399598691	 0.0738424412	-0.578206
C	-0.0150376409	-0.0275877642	-0.0140031933	 0.403133
N	-1.1029317332	-0.6953487876	-0.117717245	-0.298945
C	-0.7996628951	-2.1250733119	 0.0030550839	-0.23223
C	 0.7153732986	-2.2507515407	 0.0847894897	 0.301634
O	 1.4086500157	-1.7047807601	-1.0504788163	-0.276122
C	 1.2380361753	-0.8599510206	 0.08588605	-0.154538
C	 1.4199662453	-3.3572989838	 0.7861012251	 0.088085
O	 0.8704920095	-4.1449126685	 1.5138945338	-0.252176
H	 0.8660393984	 1.781669037	-0.330907095	 0.25958
H	-0.8151199751	 1.812924091	-0.1298403904	 0.264291
H	-1.2543342135	-2.5459518908	 0.9069125349	 0.138418
H	-1.2048075987	-2.6745771129	-0.8537145563	 0.127773
H	 2.1449246482	-0.5264614151	 0.5838228787	 0.117945
H	 2.5096818887	-3.3978991709	 0.5700848691	 0.091359
92.0996	181.7625	197.446	255.1272	322.5284	390.5006	409.779	435.4789	491.2403	585.281	634.1161	699.1727	723.8105	799.0506	830.4829	908.1523	946.7413	983.0374	992.254	1051.8999	1057.4749	1175.1112	1200.067	1240.8849	1248.0997	1311.8591	1370.7669	1412.7153	1439.7915	1475.9662	1628.0297	1717.0402	1819.2861	2902.6943	3046.5232	3081.9636	3152.2458	3564.587	3676.1175
NC1=NCC2(OC12)C=O	NC1=NC[C@]2(O[C@@H]12)C=O	
InChI=1S/C5H6N2O2/c6-4-3-5(2-8,9-3)1-7-4/h2-3H,1H2,(H2,6,7)	InChI=1S/C5H6N2O2/c6-4-3-5(2-8,9-3)1-7-4/h2-3H,1H2,(H2,6,7)/t3-,5-/m0/s1
