16
gdb 125203	3.22471	1.56383	1.07709	2.7993	72.58	-0.2182	-0.0069	0.2114	1082.2251	0.125469	-437.876877	-437.869263	-437.868319	-437.909391	28.073	
C	 0.0551905919	 1.5159773992	 0.0351889502	-0.502464
C	-0.0838816134	 0.0381709961	 0.0404655879	 0.274215
C	-1.1108701571	-0.8411900298	-0.0497863131	 0.176698
O	-2.4623962179	-0.8478036887	-0.1713235307	-0.292405
C	-2.8245331514	-2.2361105871	-0.4346494324	-0.101155
C	-1.6146479448	-3.1485113319	-0.0423152788	-0.368464
C	-0.5271846735	-2.1188096012	 0.0221723321	 0.310182
N	 0.7693223615	-2.0775358548	 0.1501647945	-0.241482
O	 1.0615401706	-0.7047917919	 0.1648523194	-0.22911
H	 0.7152515446	 1.8486925859	-0.7729179108	 0.147939
H	-0.924773528	 1.9771269995	-0.1052288165	 0.14522
H	 0.4773571746	 1.880748887	 0.9779244308	 0.147841
H	-3.7300580268	-2.4498487534	 0.1356699698	 0.127793
H	-3.0477584272	-2.327137862	-1.5034010458	 0.12396
H	-1.7662104022	-3.6291480177	 0.929663975	 0.140795
H	-1.4443484909	-3.9339751591	-0.7817684814	 0.140436
100.4401	105.1557	156.99	237.5864	317.6607	336.504	515.2651	586.0722	600.668	633.466	695.9265	763.754	793.6767	838.5183	908.7771	940.6505	984.9755	989.3286	1063.4837	1073.4111	1094.9905	1191.3801	1200.1423	1231.5986	1269.4392	1285.9178	1389.4929	1415.5419	1473.3548	1473.9246	1484.8341	1491.7435	1514.3151	1588.1926	1736.2709	3036.7147	3044.5504	3055.9746	3091.1957	3107.1382	3123.0761	3132.5626
CC1=C2OCCC2=NO1	Cc1c2OCCc2no1	
InChI=1S/C6H7NO2/c1-4-6-5(7-9-4)2-3-8-6/h2-3H2,1H3	InChI=1S/C6H7NO2/c1-4-6-5(7-9-4)2-3-8-6/h2-3H2,1H3
