13
gdb 133137	2.3689	1.86684	1.05088	2.4237	69.3	-0.2468	-0.085	0.1618	1036.548	0.086453	-493.978758	-493.970774	-493.96983	-494.011666	28.746	
C	 0.0060692848	 1.5159250649	 0.036003046	-0.479504
C	-0.050848119	 0.0262049339	 0.0937785752	 0.283453
C	-1.1337265869	-0.7328346681	-0.1581533961	 0.107181
F	-2.2903570929	-0.1707689413	-0.4948360856	-0.048239
C	-1.0725699284	-2.1676850995	-0.0711814397	 0.310023
N	-2.0442770491	-2.9578038006	-0.291922415	-0.503123
N	 0.2257678959	-2.6691490615	 0.3004209366	-0.153788
N	 1.2193689022	-1.9999764513	 0.5329380962	 0.051044
O	 1.1290515931	-0.5453591053	 0.4371652289	-0.286167
H	 0.7555711193	 1.8361743016	-0.6947808907	 0.15993
H	-0.9660535968	 1.9216821158	-0.2430765279	 0.160237
H	 0.3010125931	 1.9196674252	 1.0098640701	 0.159931
H	-1.7370747852	-3.923713644	-0.162297488	 0.239022
81.387	124.4572	145.4935	265.2896	305.425	309.6906	465.7989	493.6767	517.8746	537.356	538.3552	584.1331	706.2502	763.5898	888.8123	899.8161	958.0178	1011.0224	1062.2164	1129.4133	1237.0086	1262.8985	1395.8537	1433.7847	1474.4357	1475.8718	1645.8638	1712.1972	1734.2187	3047.3814	3105.3026	3161.8629	3473.7619
CC1=C(F)C(=N)N=NO1	CC1=C(F)C(=N[N]O1)[NH]	
InChI=1S/C4H4FN3O/c1-2-3(5)4(6)7-8-9-2/h6H,1H3	InChI=1S/C4H4FN3O/c1-2-3(5)4(6)7-8-9-2/h6H,1H3
