19
gdb 82572	3.40035	1.33383	1.16403	2.4818	74.7	-0.2405	0.0668	0.3073	1109.2333	0.158588	-422.958849	-422.950718	-422.949774	-422.991692	31.02	
C	-0.0221653773	 1.5481892109	-0.0433289767	-0.422046
C	 0.0396430723	 0.0419817795	 0.0800021186	-0.031096
C	 1.2838610127	-0.7619932049	-0.1286262569	 0.068073
O	 2.4448438146	-0.0474190743	 0.3207657757	-0.31666
C	 1.9609324959	-0.0907273326	 1.6817059479	 0.365366
C	 2.8639665017	-0.7807432032	 2.7209504949	-0.129527
O	 2.8375509908	 0.3862905881	 3.5679470177	-0.276546
C	 2.1219900158	 1.1510556262	 2.5756258774	-0.133253
C	 0.6498917798	-0.7267460761	 1.2454269637	-0.232968
H	 0.9509706393	 1.9978137756	 0.1666750705	 0.13833
H	-0.30359678	 1.8357164932	-1.0618728824	 0.119442
H	-0.7608429886	 1.9771937663	 0.6414266683	 0.118122
H	-0.8406006355	-0.4801351108	-0.2930221262	 0.092721
H	 1.4328333361	-1.5538332765	-0.8532321992	 0.105604
H	 2.4547048862	-1.6666014123	 3.2216521212	 0.103232
H	 3.8673059641	-1.0018387871	 2.335752171	 0.110864
H	 2.7450580085	 1.9329795598	 2.1221808984	 0.110645
H	 1.2040304476	 1.595695705	 2.9759006705	 0.107995
H	 0.1167141458	-1.4877183968	 1.8000047557	 0.101704
87.7531	118.3154	174.4087	195.4175	281.9976	343.4766	352.5564	475.6999	532.4475	630.4903	729.863	796.9169	819.9069	870.2662	881.388	903.4626	935.4803	985.2271	999.2235	1021.8766	1031.4891	1032.8339	1056.1009	1075.3334	1117.7455	1135.2289	1150.5518	1155.7197	1181.6498	1195.8358	1228.3074	1298.0902	1309.3322	1335.1646	1385.5985	1409.4306	1436.3603	1492.4303	1494.6559	1503.405	1521.1699	3008.5098	3020.4043	3038.1133	3065.2387	3069.1091	3096.2599	3118.3521	3133.3045	3181.1147	3199.2149
CC1C2OC3(COC3)C12	C[C@H]1[C@H]2OC3(COC3)[C@@H]12	
InChI=1S/C7H10O2/c1-4-5-6(4)9-7(5)2-8-3-7/h4-6H,2-3H2,1H3	InChI=1S/C7H10O2/c1-4-5-6(4)9-7(5)2-8-3-7/h4-6H,2-3H2,1H3/t4-,5+,6-/m1/s1
