18
gdb 102149	2.30965	1.14115	0.85971	4.6931	74.01	-0.2524	0.0083	0.2607	1351.4979	0.145997	-439.080188	-439.070359	-439.069414	-439.115586	35.031	
C	 0.1540840465	 1.4136220706	-0.4633587201	-0.330902
N	 0.0020519794	 0.0290701228	-0.006632513	-0.319587
H	 0.5800446295	-0.582320588	-0.5744356771	 0.239529
H	-0.3299914029	 0.1528577843	 1.8614335412	 0.305281
C	-1.3786916554	-0.4526411231	-0.0258442058	-0.102127
C	-1.4310326019	-1.9902430528	-0.2025928532	-0.377589
C	-0.8065731003	-2.4281032699	-1.4440562915	 0.280328
C	-0.2615653705	-2.750841363	-2.466224048	-0.429949
C	-2.0746673585	-0.1142021949	 1.3092526766	 0.423678
O	-1.2157925224	 0.1953849882	 2.2893238782	-0.364985
O	-3.2654212683	-0.1675610058	 1.4584235497	-0.343942
H	 1.2121283436	 1.6868268047	-0.4431361297	 0.131491
H	-0.2340727352	 1.5781551347	-1.4798325205	 0.121544
H	-0.3792874321	 2.0857727406	 0.2162764896	 0.142584
H	-1.9736906541	 0.0037951812	-0.8287098952	 0.107021
H	-0.9309613837	-2.4671748199	 0.6501867297	 0.144427
H	-2.4815583017	-2.2943475584	-0.1652130512	 0.168516
H	 0.1995394582	-3.0603768512	-3.3716798497	 0.204682
59.0276	79.185	114.0427	139.1983	200.1116	222.343	253.4985	336.4561	355.334	399.8511	502.9588	554.2321	631.1584	658.3676	664.7813	725.6655	789.1817	839.2525	887.665	924.9903	982.1744	1027.8257	1043.0051	1139.4342	1156.1458	1171.0236	1219.9623	1263.9584	1277.3839	1348.7656	1359.2272	1416.6181	1464.6053	1469.1105	1484.7221	1499.4912	1518.5639	1871.7708	2235.5526	2993.3599	3014.2947	3034.4316	3079.395	3090.2162	3119.9942	3443.8401	3503.4309	3519.6959
C[NH2+]C(CC#C)C([O-])=O	CN[C@@H](CC#C)C(=O)O	
InChI=1S/C6H9NO2/c1-3-4-5(7-2)6(8)9/h1,5,7H,4H2,2H3,(H,8,9)	InChI=1S/C6H9NO2/c1-3-4-5(7-2)6(8)9/h1,5,7H,4H2,2H3,(H,8,9)/t5-/m0/s1
