14
gdb 18511	6.36948	1.16313	1.09258	5.0181	59.46	-0.2686	0.0039	0.2726	1044.5787	0.105914	-419.647984	-419.640893	-419.639949	-419.680403	25.085	
O	-0.0567380867	-0.0155643962	-0.0897521652	-0.269185
C	-0.0132724432	 1.1757367901	-0.0607717599	 0.169493
O	 1.128253691	 1.8613047137	 0.1529710244	-0.185091
C	 1.0714239683	 3.277550319	 0.1797446896	 0.12147
C	 1.6145721353	 3.9862206416	 1.4685217831	-0.292974
C	 2.5940196847	 4.7367105444	 0.5557429619	 0.029671
O	 3.409881421	 3.7396911228	-0.0576180286	-0.227186
C	 2.1370867403	 4.0069259924	-0.6441326769	-0.001561
H	-0.8898794484	 1.8386461428	-0.2067836455	 0.076623
H	 0.0628694808	 3.6247615136	-0.0735292401	 0.096292
H	 0.8623934601	 4.6065263992	 1.9598019415	 0.115709
H	 2.0957546215	 3.3255003543	 2.1912179953	 0.135753
H	 2.9963535773	 5.7374019158	 0.6488115673	 0.117673
H	 2.114221428	 4.2803659663	-1.692474157	 0.113312
46.3406	114.4335	149.0534	305.9468	356.8429	395.1296	519.4787	676.6198	759.5673	829.2377	852.9036	902.5767	917.1264	946.8201	1013.8745	1034.2931	1042.671	1053.5268	1103.8479	1159.8358	1187.8101	1211.4042	1237.447	1245.078	1283.691	1379.311	1387.4012	1439.4422	1467.561	1872.764	2933.7837	3041.6256	3080.6773	3144.3265	3188.9318	3209.4997
O=COC1CC2OC12	O=CO[C@H]1C[C@H]2O[C@@H]12	
InChI=1S/C5H6O3/c6-2-7-3-1-4-5(3)8-4/h2-5H,1H2	InChI=1S/C5H6O3/c6-2-7-3-1-4-5(3)8-4/h2-5H,1H2/t3-,4+,5-/m0/s1
