18
gdb 98554	3.67822	1.1759	0.99149	1.4087	73.71	-0.2437	-0.0042	0.2395	1227.1574	0.147403	-439.069661	-439.060988	-439.060044	-439.103592	31.374	
C	-0.0010490776	 1.3330781573	-0.0694648447	-0.240305
O	 0.1770319703	-0.088280249	-0.0434576906	-0.235362
C	 0.6855731529	-0.5820456781	 1.1005753604	 0.373245
O	 1.0135040259	 0.0966449663	 2.0445259357	-0.378243
C	 0.7981250899	-2.0617740861	 1.0731621934	 0.225486
C	 0.8088341631	-2.8835095555	-0.1618781962	-0.270282
N	-0.3796483655	-2.9762201064	 0.6847904927	-0.152613
C	 0.0137071758	-3.8622443766	 1.844600299	-0.152533
C	 1.1351457078	-2.8953782002	 2.3023859215	-0.311018
H	 0.9570744754	 1.8438189898	 0.0559897561	 0.14082
H	-0.4309979879	 1.5597046332	-1.0449732948	 0.134475
H	-0.675566501	 1.6508906876	 0.7295013317	 0.143113
H	 0.625664472	-2.3662005033	-1.0967403901	 0.13939
H	 1.4916916936	-3.7301388073	-0.2204589983	 0.11187
H	-0.8179878715	-3.9458689993	 2.545385076	 0.119673
H	 0.3192909627	-4.8645084653	 1.5275611815	 0.109023
H	 2.1565800194	-3.2801097193	 2.3623026224	 0.106941
H	 0.8984063746	-2.3709826478	 3.2280655142	 0.136322
61.3847	108.7582	128.6465	164.7715	209.6081	311.0518	317.2221	410.8007	476.0723	493.7784	712.856	749.3842	775.9832	789.6266	839.2169	869.1417	943.4997	961.9429	991.2027	1015.1324	1088.8541	1102.7243	1132.4269	1176.4908	1179.7575	1199.4624	1215.0041	1219.0797	1264.3931	1283.758	1332.0248	1386.8572	1475.7301	1482.1933	1488.6809	1492.0726	1498.215	1515.1224	1802.7418	3052.2934	3052.9472	3069.4184	3098.2931	3119.3563	3127.0506	3142.9039	3160.2708	3214.271
COC(=O)C12CN1CC2	COC(=O)[C@]12CN1CC2	
InChI=1S/C6H9NO2/c1-9-5(8)6-2-3-7(6)4-6/h2-4H2,1H3	InChI=1S/C6H9NO2/c1-9-5(8)6-2-3-7(6)4-6/h2-4H2,1H3/t6-,7?/m0/s1
