17
gdb 122786	2.99977	0.82232	0.71472	4.213	70.54	-0.2477	-0.0832	0.1645	1553.8526	0.134079	-455.139976	-455.129907	-455.128962	-455.176863	34.151	
O	 0.2621050198	 0.2958140946	-0.0748898265	-0.42334
C	-0.5714173513	-0.8561549252	-0.15245531	-0.088317
C	-2.008134138	-0.3627198262	-0.1896205651	-0.129526
N	-2.207133808	 0.4678921266	-1.3726307913	-0.288356
C	-3.5025248212	 1.0959452678	-1.4674528294	-0.270074
C	-4.5561781719	 0.1489866566	-2.0270185837	 0.300477
O	-5.7293186779	 0.1944155293	-1.7632675093	-0.256608
C	-4.0511556628	-0.8661736769	-2.9844133328	 0.241683
N	-3.7359109286	-1.6742826623	-3.7492942522	-0.312952
H	 1.1680796388	 0.0308623507	-0.2558316628	 0.295368
H	-0.3650647227	-1.4350130988	-1.0631604324	 0.112188
H	-0.4292707406	-1.5127993174	 0.7183638859	 0.096439
H	-2.6795685446	-1.2292979457	-0.2304588011	 0.112816
H	-2.2273751105	 0.1793172386	 0.7475990737	 0.098017
H	-1.4597643426	 1.1496999554	-1.4160466344	 0.24242
H	-3.9083010605	 1.5040215723	-0.5265812923	 0.124256
H	-3.4444752171	 1.9290872807	-2.1814094461	 0.145511
33.9918	48.8182	72.0233	137.4512	183.0961	243.235	272.5005	276.9804	296.1517	349.0498	466.1346	546.6875	578.2862	683.4769	691.9327	779.4488	868.089	912.9723	982.946	1057.5315	1099.5873	1116.3326	1140.619	1195.7662	1210.7035	1250.6988	1287.1626	1305.8754	1365.0566	1390.9783	1452.1751	1457.0126	1494.1717	1507.2545	1513.2958	1804.2553	2335.2722	2949.6542	2969.9347	2992.6629	3037.4078	3043.2101	3050.7804	3561.7298	3841.6049
OCCNCC(=O)C#N	OCCNCC(=O)C#N	
InChI=1S/C5H8N2O2/c6-3-5(9)4-7-1-2-8/h7-8H,1-2,4H2	InChI=1S/C5H8N2O2/c6-3-5(9)4-7-1-2-8/h7-8H,1-2,4H2
