21
gdb 68023	2.52224	1.8411	1.37189	1.5197	81.79	-0.2448	0.0935	0.3383	1039.4786	0.182413	-387.065401	-387.05733	-387.056386	-387.097155	33.422	
C	 0.0179529448	 1.4925161486	 0.1275440254	-0.499389
C	 0.0177080094	-0.0030418947	-0.0172680461	 0.402586
C	 0.8778934681	-0.7919750018	-1.0466589005	-0.299599
C	 0.723174651	-1.8409395118	 0.0925141136	 0.402588
C	 1.7151763101	-2.9291142502	 0.3916318409	-0.499391
O	 0.7370269389	-0.7215613944	 1.0374058034	-0.349532
C	-0.7883577064	-2.1804720884	 0.0059400276	-0.088696
C	-1.6594840198	-1.6370586149	 1.1109333372	-0.305393
C	-1.3298481283	-0.7697716343	-0.078319084	-0.088694
H	 1.0384874179	 1.8819898401	 0.1771437284	 0.124151
H	-0.4907075807	 1.9563721315	-0.7240890631	 0.119561
H	-0.5108505595	 1.7874491301	 1.0396838591	 0.130494
H	 0.4512876202	-1.0143983944	-2.028936363	 0.085935
H	 1.8970330978	-0.4054089038	-1.1240570108	 0.096217
H	 2.7322136892	-2.5305471538	 0.4408186848	 0.124153
H	 1.4820925283	-3.404875814	 1.3497240646	 0.130492
H	 1.6801809061	-3.6989346893	-0.3863978087	 0.119562
H	-1.1233513503	-2.9898246656	-0.6318633619	 0.082228
H	-2.6727676142	-2.0236136645	 1.1509786864	 0.103364
H	-1.2120926109	-1.4080515535	 2.0699212429	 0.127136
H	-2.0935228919	-0.4623086609	-0.7828281962	 0.082227
196.1859	202.539	227.8814	243.2134	245.794	351.3927	382.8755	463.529	518.9227	597.4491	602.6285	634.4986	717.3963	786.587	797.3828	816.8277	822.3101	862.6788	920.7593	950.9	953.77	1014.0881	1015.6483	1036.0041	1038.4238	1088.7718	1098.405	1121.9434	1167.0054	1181.6679	1189.1757	1192.5745	1221.5591	1252.3573	1296.53	1323.3658	1377.6097	1411.2214	1421.5355	1461.4227	1479.5064	1480.1025	1489.2484	1492.2584	1494.4653	3037.3851	3037.4109	3053.0357	3106.3274	3106.4008	3115.9428	3116.4324	3124.1899	3138.034	3177.2302	3186.7093	3230.3747
CC12CC(C)(O1)C1CC21	C[C@@]12C[C@@](C)(O1)[C@H]1C[C@@H]21	
InChI=1S/C8H12O/c1-7-4-8(2,9-7)6-3-5(6)7/h5-6H,3-4H2,1-2H3	InChI=1S/C8H12O/c1-7-4-8(2,9-7)6-3-5(6)7/h5-6H,3-4H2,1-2H3/t5-,6+,7+,8-
