22
gdb 57361	2.04812	1.54374	1.19679	4.0731	85.8	-0.2821	0.0381	0.3202	1180.7289	0.192314	-367.228173	-367.218082	-367.217138	-367.262626	38.673	
C	 0.1830999895	 1.5243254902	 0.2655039452	-0.435919
C	-0.0017595555	 0.0189685994	 0.0076427079	 0.165065
C	 0.5511404839	-0.7615757971	 1.2167879077	-0.413232
C	-1.5062292728	-0.2729480219	-0.1607006836	-0.413227
C	 0.7407728839	-0.4541348706	-1.2691288854	 0.202442
C	 0.8629883519	 0.408083576	-2.5193886699	-0.307987
C	 2.0853523472	 0.1179051289	-1.7008224727	-0.307974
C	 0.5853242506	-1.8668240281	-1.5377139603	 0.253723
N	 0.4586992122	-2.9977390457	-1.749435783	-0.368058
H	 1.2305744837	 1.7965332991	 0.4244626783	 0.117779
H	-0.2175707347	 2.1403624321	-0.544755826	 0.117777
H	-0.3606269071	 1.7978594186	 1.1749429506	 0.12279
H	 0.0261200962	-0.468374804	 2.1315215974	 0.112567
H	 0.4258730173	-1.8405578125	 1.0881692529	 0.139432
H	 1.6178868204	-0.5603433	 1.3607741007	 0.113942
H	-1.9219728755	 0.2803215797	-1.009360601	 0.113941
H	-1.6911690293	-1.3377703936	-0.3291708305	 0.139421
H	-2.0549010266	 0.0259598465	 0.738166953	 0.11257
H	 0.7530989818	-0.0859599268	-3.4772215486	 0.139404
H	 0.4416490281	 1.4046459475	-2.4765672667	 0.128071
H	 2.500319063	 0.9159242619	-1.0979359297	 0.12807
H	 2.8181407618	-0.5761868996	-2.0943387662	 0.139402
44.064	154.5012	195.4932	206.2426	262.9557	266.9336	285.1724	293.8524	308.0304	365.3138	382.2589	439.1147	449.645	576.8493	597.1183	607.7965	777.0746	813.8191	898.7303	899.3247	928.6611	943.0078	957.9456	964.628	974.5157	1044.5357	1058.445	1071.5671	1094.7217	1194.4086	1202.5349	1230.4109	1241.0279	1300.6695	1306.9063	1397.5642	1402.7951	1432.7959	1464.5829	1481.8736	1484.3796	1490.5587	1502.5357	1503.2006	1511.8798	1520.8861	2342.8656	3031.7148	3034.0287	3042.2955	3100.2076	3100.6857	3107.7387	3110.7741	3112.4546	3115.1211	3152.0892	3154.2947	3233.7297	3246.9552
CC(C)(C)C1(CC1)C#N	CC(C)(C)C1(CC1)C#N	
InChI=1S/C8H13N/c1-7(2,3)8(6-9)4-5-8/h4-5H2,1-3H3	InChI=1S/C8H13N/c1-7(2,3)8(6-9)4-5-8/h4-5H2,1-3H3
