16
gdb 128369	6.62548	0.9024	0.80334	0.7238	69.09	-0.2216	0.0212	0.2428	1404.2218	0.124308	-471.200983	-471.192025	-471.191081	-471.235125	30.961	
C	 0.0099913689	 1.4032830127	 0.0979629919	-0.324029
N	-0.0558048294	-0.0301720864	-0.1189531584	-0.375327
C	-1.2441396717	-0.6844874673	-0.0420516506	 0.468615
N	-2.4085427136	-0.0629737908	-0.0156751651	-0.250185
O	-3.3272588569	-1.1658789668	 0.0033049701	-0.23165
C	-2.5721489699	-2.2630023916	 0.0037461035	 0.535308
O	-3.1540046814	-3.4446623977	 0.0282674288	-0.253036
C	-4.5897239402	-3.4671991319	 0.0523795719	-0.250155
N	-1.2902791735	-2.0616684841	-0.0214708877	-0.438792
H	 1.0239250948	 1.7471762993	-0.1157649073	 0.126429
H	-0.6801681064	 1.9049603	-0.5851196072	 0.157028
H	-0.2597637987	 1.694017438	 1.1225862677	 0.127406
H	 0.7365438014	-0.58812334	 0.1551246522	 0.257637
H	-4.9693297448	-2.9602137611	 0.9431900006	 0.150494
H	-4.9985021545	-2.9881476225	-0.8409914351	 0.150923
H	-4.8606846241	-4.5219620495	 0.0731614246	 0.149334
77.7479	111.4965	130.8068	152.6842	164.3309	260.6665	264.8186	380.3974	390.7273	453.6743	611.5678	676.6787	718.0064	765.5074	786.7965	909.7204	996.239	1015.6276	1092.5703	1146.0426	1164.0221	1177.4813	1184.3661	1205.6079	1343.3565	1376.9178	1456.3304	1472.6289	1482.7963	1486.5017	1497.3242	1512.9464	1552.5811	1638.0791	1675.5285	3010.8974	3051.2035	3092.9915	3127.9793	3135.7383	3167.6348	3645.8436
CNC1=NOC(OC)=N1	CNc1noc(OC)n1	
InChI=1S/C4H7N3O2/c1-5-3-6-4(8-2)9-7-3/h1-2H3,(H,5,7)	InChI=1S/C4H7N3O2/c1-5-3-6-4(8-2)9-7-3/h1-2H3,(H,5,7)
