21
gdb 111053	3.04163	1.15429	0.98591	2.2509	79.99	-0.2299	0.0904	0.3203	1314.774	0.180318	-424.151688	-424.142215	-424.14127	-424.186404	34.856	
C	-0.0835277051	 1.5551345777	-0.1903072763	-0.382271
C	-0.0500972715	 0.0411173459	 0.0435749097	-0.319354
C	-1.4153376236	-0.5657845327	 0.1670176345	 0.382983
C	-2.5950246041	-0.2640881956	 1.1349862373	-0.275865
C	-3.098567541	-1.2053003328	 0.0193334115	-0.005749
O	-2.3716955461	-0.3859805957	-0.9685615643	-0.347784
C	-1.811511279	-2.0630906005	 0.219019404	 0.132528
O	-1.3202072646	-2.8373105154	-0.8206927701	-0.247205
C	-1.9248423531	-4.1094224767	-0.9121396332	-0.238545
H	 0.9272117038	 1.9497880772	-0.3277982477	 0.111967
H	-0.6700672141	 1.7920387296	-1.0819247116	 0.141241
H	-0.5360331764	 2.0790826069	 0.6578552219	 0.115414
H	 0.4625452552	-0.4623031136	-0.7843192451	 0.12587
H	 0.5127965678	-0.1973656927	 0.9549652621	 0.103163
H	-2.5391230308	-0.6373872559	 2.1616451498	 0.092255
H	-2.9853912765	 0.7505770327	 1.0680917102	 0.113975
H	-4.1181144783	-1.5017599188	-0.2261240403	 0.091759
H	-1.7145690413	-2.5707846925	 1.1915012006	 0.060082
H	-1.4259955106	-4.6467343964	-1.7216714635	 0.131185
H	-1.8082146252	-4.6827219691	 0.0210484193	 0.10383
H	-2.9977862755	-4.0378249116	-1.142327329	 0.110521
66.1045	76.9435	131.955	177.061	191.6031	227.0404	290.5532	316.6736	358.9382	488.0121	558.8118	619.3962	684.1196	731.2516	788.1124	800.468	897.6137	923.7412	933.9787	966.6181	989.8839	1028.1441	1057.5344	1067.3281	1127.8622	1134.6347	1154.7554	1170.0249	1183.4828	1201.2331	1215.1833	1237.2781	1260.7888	1288.9126	1320.5113	1383.5063	1409.6163	1416.0533	1472.0691	1482.8645	1488.3742	1494.9311	1497.3307	1507.3552	1509.6995	2974.6542	2984.7309	3028.5463	3030.7019	3042.0263	3060.0347	3069.4983	3109.0287	3120.1782	3121.8442	3124.1789	3156.6634
CCC12CC(O1)C2OC	CC[C@@]12C[C@@H](O1)[C@H]2OC	
InChI=1S/C7H12O2/c1-3-7-4-5(9-7)6(7)8-2/h5-6H,3-4H2,1-2H3	InChI=1S/C7H12O2/c1-3-7-4-5(9-7)6(7)8-2/h5-6H,3-4H2,1-2H3/t5-,6-,7+/m1/s1
