15
gdb 5600	3.68772	1.86247	1.28241	1.3493	63.37	-0.1795	0.0546	0.2341	903.8309	0.12062	-399.828996	-399.821712	-399.820768	-399.860353	27.951	
O	 0.6924428113	-0.0738830772	 0.7020718377	-0.422248
C	-0.1533023852	 0.3178629979	-0.4016410471	-0.202718
C	-1.5188639539	-0.2782592276	-0.2765580507	 0.104856
C	-1.749148767	-1.522346022	 0.2743953024	 0.326936
O	-0.8989471306	-2.4147364087	 0.8280333423	-0.440438
N	-3.0820673385	-1.7950388117	 0.2174189886	-0.304194
C	-3.7399711366	-0.727746278	-0.3752829201	-0.091665
C	-2.7988377063	 0.2191494337	-0.6835208302	-0.261433
H	 0.2944236997	 0.297503126	 1.4983167575	 0.287718
H	-0.2026699545	 1.4125107739	-0.4815228588	 0.106649
H	 0.3861654199	-0.0431066006	-1.2858892323	 0.121987
H	-0.0525338745	-1.9406419162	 0.9043364559	 0.303904
H	-3.5045977865	-2.6285678877	 0.5872994866	 0.264331
H	-4.8073484397	-0.7478741743	-0.5165843492	 0.116257
H	-2.9919328276	 1.1686449124	-1.1604664025	 0.09006
102.2663	197.7131	235.3421	286.6488	380.9579	444.1817	450.18	456.4378	619.0544	631.1546	682.4676	691.3417	714.0864	756.6043	809.4646	914.4709	969.4862	1004.0176	1082.4149	1086.3041	1165.6712	1205.2602	1251.4955	1272.4826	1362.7725	1394.5595	1400.6989	1424.2151	1509.5471	1527.753	1577.9956	1641.6525	3007.7228	3045.0074	3239.634	3279.5529	3649.0174	3684.0975	3792.4344
OCC1=C(O)NC=C1	OCc1c(O)[nH]cc1	
InChI=1S/C5H7NO2/c7-3-4-1-2-6-5(4)8/h1-2,6-8H,3H2	InChI=1S/C5H7NO2/c7-3-4-1-2-6-5(4)8/h1-2,6-8H,3H2
