18
gdb 52302	4.12934	0.94198	0.80763	4.8547	76.17	-0.2394	0.0008	0.2402	1397.634	0.147447	-439.07732	-439.068604	-439.06766	-439.112085	30.994	
N	-0.6027426368	 1.1066208112	-0.1202849661	-0.444979
C	-0.7398695118	-0.1025892113	-0.4536431442	 0.13839
O	-0.4168895408	-1.0767997663	 0.4249885733	-0.18504
C	-0.6721089571	-2.4186684398	 0.0315061219	-0.094047
C	-2.1099314853	-2.845163757	 0.3428054625	 0.075838
O	-3.0232495	-2.1382279926	-0.5016690471	-0.278177
C	-3.8236066248	-3.0529647287	-1.2500676166	-0.115838
C	-3.3369875611	-4.4158103715	-0.8475481422	-0.091034
C	-2.3758011803	-4.300242592	 0.0610065377	-0.099924
H	-0.8676570832	 1.708160382	-0.897496732	 0.225921
H	-1.0982116881	-0.483945866	-1.4164587875	 0.091602
H	-0.4711362448	-2.5613940788	-1.0383067844	 0.108535
H	 0.029706256	-3.0343402224	 0.6024966457	 0.116761
H	-2.31481036	-2.5796244268	 1.3922782816	 0.102559
H	-4.8872774065	-2.9004977564	-1.0092941509	 0.113805
H	-3.7058972979	-2.8611392941	-2.3276698366	 0.10908
H	-3.7459145491	-5.333771162	-1.2500667831	 0.113991
H	-1.8407729785	-5.1036451274	 0.5509024781	 0.112557
55.4344	70.8391	85.3698	145.1668	206.1757	313.2874	348.1648	414.7624	494.8547	644.4434	704.9377	765.7219	815.2886	817.0727	847.8617	936.8685	961.5153	970.0123	1005.1884	1021.8678	1037.5437	1044.4036	1091.5576	1117.1328	1134.1032	1150.9184	1198.46	1250.0167	1279.6442	1323.0603	1351.6317	1367.4763	1390.983	1402.6952	1423.2855	1487.1655	1520.0588	1690.5796	1744.0028	2978.2005	2982.2765	2998.2019	3024.2028	3058.5948	3092.2796	3208.98	3232.9994	3516.5964
N=COCC1OCC=C1	[NH][CH]OC[C@H]1OCC=C1	
InChI=1S/C6H9NO2/c7-5-8-4-6-2-1-3-9-6/h1-2,5-7H,3-4H2	InChI=1S/C6H9NO2/c7-5-8-4-6-2-1-3-9-6/h1-2,5-7H,3-4H2/t6-/m0/s1
