16
gdb 37602	2.96023	2.41365	2.0565	1.1258	64.31	-0.233	0.0687	0.3017	748.076	0.129021	-437.856509	-437.851355	-437.850411	-437.885763	22.936	
C	-0.0197675467	 1.471394823	 0.0548145082	-0.154849
C	 1.4525278721	 1.8495565043	 0.0129479415	 0.028406
O	 1.9865370162	 1.4846634848	 1.2989487217	-0.2522
C	 2.3812723027	 0.1508630589	 1.0549642211	 0.141545
O	 3.191200705	 0.2649048255	-0.1084893078	-0.242319
C	 2.1306669657	 0.7674222022	-0.9342148458	 0.022961
C	 1.0934760742	-0.3765999101	-0.8894036758	-0.069652
C	 1.1579992011	-0.6839345141	 0.5642965406	-0.055826
N	-0.0252267893	-0.0017372554	-0.0251113445	-0.12896
H	-0.4935310839	 1.8220222648	 0.9746843821	 0.122176
H	-0.5853410642	 1.8488150599	-0.8048090319	 0.105012
H	 1.6947433876	 2.8900005588	-0.2034004332	 0.092055
H	 2.9409093584	-0.2471407897	 1.8992124036	 0.098171
H	 2.5079287185	 1.102474256	-1.8968401637	 0.09187
H	 0.9490981057	-1.0839298583	-1.6974254777	 0.098213
H	 0.9596650469	-1.6579480806	 0.9960650918	 0.103396
336.4048	428.5732	518.2291	597.0076	634.5165	678.3064	733.1462	739.9893	800.2297	812.7268	870.9033	879.9809	887.1309	906.4305	931.24	974.2092	975.7835	989.9338	1015.3423	1061.0387	1072.6544	1080.2935	1122.3425	1200.3645	1224.2455	1232.2299	1245.3616	1268.6019	1297.1444	1300.662	1311.2744	1335.557	1356.4904	1375.7222	1489.3677	3043.9044	3109.8033	3117.1091	3152.0208	3162.6051	3177.4901	3187.4933
C1C2OC3OC2C2C3N12	C1[C@H]2O[C@@H]3O[C@H]2[C@H]2[C@@H]3N12	
InChI=1S/C6H7NO2/c1-2-5-3-4(7(1)3)6(8-2)9-5/h2-6H,1H2	InChI=1S/C6H7NO2/c1-2-5-3-4(7(1)3)6(8-2)9-5/h2-6H,1H2/t2-,3-,4+,5-,6-,7?/m1/s1
