16
gdb 126057	2.98673	1.62368	1.11107	3.9185	72.	-0.2351	-0.0414	0.1937	1052.3765	0.124433	-434.033191	-434.024986	-434.024042	-434.067315	29.183	
C	 0.0529117886	 1.5961057174	-0.0398397104	-0.367608
C	-0.0041886957	 0.0713507271	 0.0690066156	-0.098752
N	 0.6945949674	-0.5839217882	-1.0830396686	-0.326681
C	 1.5358742324	-1.7343649428	-0.666472623	-0.28457
C	 1.618184276	-1.5094946905	 0.8068499375	 0.377487
C	 0.769707853	-0.5236163112	 1.2011489331	 0.242169
N	 0.9059658321	-0.4034908037	 2.551050068	-0.172169
N	 1.7274669672	-1.1882052331	 3.030349896	-0.043403
O	 2.2841475129	-2.0274440794	 1.7891577935	-0.270371
H	 1.091163936	 1.9329528238	-0.0949968674	 0.125962
H	-0.4678344559	 1.9331817969	-0.9411787364	 0.115266
H	-0.4270961393	 2.0611232189	 0.8273850315	 0.12402
H	-1.0616609266	-0.2365960204	 0.1196823145	 0.086218
H	 0.0413348394	-0.8463255166	-1.8084540934	 0.228231
H	 1.0888219629	-2.7172153898	-0.8837874835	 0.125216
H	 2.5177055497	-1.7087812083	-1.1554951069	 0.138986
24.8652	91.2395	158.759	217.221	232.6619	297.561	446.1392	487.4519	546.3877	637.9739	659.8406	681.3457	721.3299	773.4153	927.8184	943.596	991.176	1033.8524	1063.6332	1093.2709	1109.3334	1169.0512	1186.7203	1258.4651	1322.9529	1370.91	1396.3978	1406.1634	1439.4214	1488.3716	1492.2898	1501.0884	1508.0768	1522.0275	1593.2394	2955.0299	2980.1983	3035.0058	3039.4987	3111.0894	3127.5899	3577.4512
CC1NCC2=C1N=NO2	C[C@H]1NCc2c1nno2	
InChI=1S/C5H7N3O/c1-3-5-4(2-6-3)9-8-7-5/h3,6H,2H2,1H3	InChI=1S/C5H7N3O/c1-3-5-4(2-6-3)9-8-7-5/h3,6H,2H2,1H3/t3-/m1/s1
