20
gdb 124449	3.12509	1.21337	1.08291	0.4683	79.8	-0.2565	0.0009	0.2574	1208.4067	0.171415	-399.348546	-399.339351	-399.338407	-399.383462	34.417	
C	 0.0551699917	 1.5300347297	 0.0649034628	-0.402377
C	-0.0072718266	-0.0122650065	 0.0032385862	 0.133513
C	 0.6854076939	-0.6006632459	 1.2524052829	-0.402354
C	-1.4767292631	-0.465061769	-0.0292782974	-0.396577
C	 0.7214523224	-0.4865482706	-1.2344283768	 0.328064
N	 0.1354028807	-1.1996017201	-2.2002591038	-0.292829
N	 1.1105030809	-1.4005873348	-3.079026548	-0.076421
N	 2.293432567	-0.8834637963	-2.7817419515	-0.198269
C	 2.0705647539	-0.2945348733	-1.6079783795	-0.133286
H	 1.088846046	 1.8890545829	 0.0961410401	 0.111574
H	-0.4303528448	 1.9779569862	-0.8075005242	 0.119727
H	-0.4535486613	 1.8954308488	 0.9634080695	 0.111851
H	 0.1831145404	-0.2568423857	 2.1629609781	 0.111845
H	 0.6558372908	-1.694467324	 1.2392485046	 0.119733
H	 1.734279997	-0.2930145513	 1.3121704719	 0.111574
H	-1.9964554593	-0.0632875339	-0.9030462139	 0.121478
H	-1.5553392821	-1.5545569031	-0.071913868	 0.121526
H	-1.9929111708	-0.1159473719	 0.871070854	 0.101674
H	 0.957472824	-1.9197569218	-3.9279212148	 0.290351
H	 2.8644916493	 0.2262489906	-1.0971890724	 0.119201
13.4171	154.4165	199.0113	214.9614	268.4685	274.6565	327.1786	334.1408	339.8417	449.8811	473.7807	503.8322	590.4586	722.4648	757.3265	834.484	883.4438	932.0388	939.4215	961.8445	995.1908	1015.6758	1043.1834	1049.8309	1150.3185	1183.3142	1215.0637	1229.461	1250.503	1265.8048	1366.6901	1395.6229	1397.4228	1401.6484	1429.7534	1466.416	1476.5055	1482.7437	1483.1275	1499.6054	1502.8111	1517.6487	1562.1204	3028.0057	3031.3715	3041.0779	3096.6347	3101.34	3105.8707	3107.4941	3112.0727	3121.7647	3268.3882	3672.8925
CC(C)(C)C1=NNN=C1	CC(C)(C)c1n[nH]nc1	
InChI=1S/C6H11N3/c1-6(2,3)5-4-7-9-8-5/h4H,1-3H3,(H,7,8,9)	InChI=1S/C6H11N3/c1-6(2,3)5-4-7-9-8-5/h4H,1-3H3,(H,7,8,9)
