18
gdb 17883	2.82095	2.33454	2.16902	1.7523	70.87	-0.2321	0.0057	0.2379	781.8903	0.155664	-347.791965	-347.785268	-347.784324	-347.822322	27.194	
C	-0.2207431942	 1.6127171544	 0.0684136251	-0.431911
C	 0.0257546414	 0.1164033091	 0.0066049017	 0.029147
C	 0.8245099012	-0.5667625898	-1.1348171117	 0.068867
C	 2.0910296313	 0.2068382546	-1.5389522624	-0.265759
C	 2.8747521605	 0.5622051796	-0.2919548598	-0.061185
C	 2.3955290293	 0.1797537441	 0.891983279	-0.054066
C	 1.1051958698	-0.6114521571	 0.8639216191	 0.024508
O	 1.2100345863	-1.6118606883	-0.1978430375	-0.297971
H	 0.7067927331	 2.1868126249	 0.0040014506	 0.123925
H	-0.8762176896	 1.9281783386	-0.751189706	 0.115718
H	-0.7184517892	 1.8851878712	 1.005740061	 0.116485
H	-0.914019407	-0.4316546617	 0.1204812883	 0.08572
H	 0.2779607474	-0.9610717646	-1.9966053117	 0.070562
H	 2.7001428951	-0.4103513098	-2.2121926838	 0.116407
H	 1.8271856365	 1.1111248012	-2.1050341036	 0.105768
H	 3.8052291082	 1.1130703956	-0.3955654506	 0.093205
H	 2.8839970472	 0.4092670578	 1.8330099838	 0.089792
H	 0.8246506425	-1.0524403797	 1.8228666585	 0.070785
193.1334	216.5703	235.7871	327.619	405.3246	494.976	537.7499	586.9045	652.1161	712.4243	797.6776	830.5178	875.7118	892.7627	919.3058	958.379	961.0841	971.8812	999.1098	1062.6377	1081.5924	1100.7634	1142.2948	1163.8926	1174.5277	1220.6584	1244.9995	1311.9634	1322.1221	1334.2002	1369.201	1382.5237	1403.8786	1414.1084	1464.3006	1493.4435	1504.4974	1695.3073	3012.7253	3032.5528	3043.3288	3060.4341	3070.6729	3088.9592	3090.0178	3121.0989	3162.1013	3190.7277
CC1C2CC=CC1O2	C[C@H]1[C@H]2CC=C[C@@H]1O2	
InChI=1S/C7H10O/c1-5-6-3-2-4-7(5)8-6/h2-3,5-7H,4H2,1H3	InChI=1S/C7H10O/c1-5-6-3-2-4-7(5)8-6/h2-3,5-7H,4H2,1H3/t5-,6+,7-/m1/s1
