21
gdb 90921	3.26629	1.41781	1.348	1.4656	82.67	-0.236	0.0651	0.3011	1054.2348	0.184784	-387.000969	-386.993563	-386.992619	-387.032262	31.432	
O	 0.4186549298	 1.2580285526	-0.3304916731	-0.428437
C	 0.1319194423	-0.0756269235	-0.0013115304	 0.045447
C	 0.2441124597	-0.4175203585	 1.5659835307	-0.335913
C	-1.3012719123	-0.1502898064	 1.6140080372	 0.019703
C	-2.7479299686	-0.7716835825	 1.6603762818	-0.07709
C	-2.8859761702	-0.0961312627	 0.2112939989	-0.329371
C	-1.3737185387	-0.5118328665	 0.1475007935	 0.271633
C	-1.5256339121	-2.0614526203	 0.1398907438	-0.234439
C	-2.5466137591	-2.2468059687	 1.300984327	-0.206481
H	-0.1402324024	 1.8327083923	 0.2037487049	 0.28068
H	 0.7422282841	-0.6801560646	-0.677677761	 0.086219
H	 0.5631953598	-1.4428981043	 1.7546623278	 0.112713
H	 0.8754443024	 0.2648990428	 2.1408745071	 0.099214
H	-1.4266707463	 0.9332326951	 1.7338981128	 0.060365
H	-3.4547522645	-0.5318704365	 2.457333695	 0.061688
H	-3.5969562603	-0.5533483118	-0.48535357	 0.090778
H	-3.0478003092	 0.981962339	 0.2678942931	 0.097482
H	-1.9154621499	-2.3980135381	-0.8256145552	 0.096397
H	-0.588204922	-2.5943873575	 0.3115210215	 0.095409
H	-2.1394716022	-2.8254541744	 2.134962322	 0.09781
H	-3.4763485302	-2.7271673055	 0.9830223826	 0.096193
159.9382	195.6474	270.169	336.3243	358.2005	425.8768	447.4211	479.7179	600.3755	657.0848	671.0085	757.1951	794.42	827.7701	833.9362	842.7374	922.3856	941.7602	953.7049	959.2838	979.3231	1020.2258	1022.4266	1053.8992	1082.634	1112.4967	1135.2342	1141.1576	1157.6831	1184.1256	1193.9784	1202.0117	1231.0806	1240.8706	1256.9435	1258.8598	1286.9404	1313.4395	1329.5072	1399.8703	1432.4068	1471.9306	1491.9317	1497.4757	1522.9445	3008.2919	3042.4873	3050.551	3059.2816	3068.8844	3075.3722	3089.2	3095.1876	3108.1129	3122.0308	3138.2795	3798.8789
OC1CC2C3CC12CC3	O[C@H]1C[C@@H]2[C@H]3C[C@@]12CC3	
InChI=1S/C8H12O/c9-7-3-6-5-1-2-8(6,7)4-5/h5-7,9H,1-4H2	InChI=1S/C8H12O/c9-7-3-6-5-1-2-8(6,7)4-5/h5-7,9H,1-4H2/t5-,6-,7+,8-/m1/s1
