14
gdb 128977	3.96247	1.73829	1.20825	5.1213	81.32	-0.2095	-0.058	0.1515	938.092	0.106236	-395.770519	-395.764673	-395.763729	-395.800557	23.981	
N	 0.0118435561	 1.2486766901	 0.0092633647	-0.201794
C	 1.1074507896	 2.054160619	 0.0025916209	 0.018096
C	 2.3690989383	 1.5139977976	-0.0129766325	-0.2822
C	 2.4628311095	 0.1147052034	-0.0214336356	 0.324091
C	 3.4430711093	-0.8601334889	-0.0365293214	-0.336983
C	 2.730720853	-2.0920174915	-0.0359559724	-0.013163
N	 1.3988212253	-1.9832967247	-0.0219783217	-0.329122
C	 1.1874031687	-0.6410878617	-0.0126942219	 0.343781
N	-0.0047781812	-0.0842141527	 0.0022700151	-0.271341
H	-0.9096008977	 1.6592074243	 0.0207192891	 0.286676
H	 0.8990263464	 3.1157967095	 0.0103830781	 0.138721
H	 3.2343174724	 2.1661956893	-0.0181635318	 0.11888
H	 4.5147891484	-0.7306418625	-0.0466116444	 0.097624
H	 3.188844152	-3.0759040913	-0.0458296462	 0.106733
233.4741	245.2082	432.0992	453.0412	569.6913	576.6055	609.4964	629.1191	674.6131	765.766	772.7563	790.5387	831.1189	886.6444	920.9529	929.6613	957.4806	1032.6013	1053.1757	1120.3607	1219.7402	1247.0722	1313.9008	1328.6634	1350.5655	1414.4731	1449.7155	1502.8675	1586.5559	1610.1386	1634.938	3189.6914	3199.8785	3227.4014	3244.9581	3627.0367
N1C=CC2=CC=NC2=N1	[nH]1ccc2ccnc2n1	
InChI=1S/C6H5N3/c1-3-7-6-5(1)2-4-8-9-6/h1-4,8H	InChI=1S/C6H5N3/c1-3-7-6-5(1)2-4-8-9-6/h1-4,8H
