24
gdb 121446	2.22523	0.84946	0.6582	0.6695	90.17	-0.2393	0.034	0.2734	1831.5403	0.215103	-405.564252	-405.552654	-405.551709	-405.602802	40.314	
C	-1.7274163429	 1.722753778	-1.1431544862	-0.379567
C	-1.2182068379	 0.3288825222	-0.7701248012	-0.149877
C	-2.3372648013	-0.6013721847	-0.283066007	-0.147282
N	-1.8274762537	-1.9352796703	-0.0470249631	-0.308836
C	-1.9051412254	-2.5100458079	 1.0782573396	 0.396524
C	-2.5152522199	-2.0545223842	 2.3862706597	-0.267493
C	-3.89398337	-2.6913101758	 2.6305733623	-0.374498
O	-1.4121052751	-3.7653564647	 1.2360720868	-0.248281
C	-0.8414870142	-4.3756719986	 0.0819934339	-0.223142
H	-0.910447304	 2.3653923883	-1.4850652571	 0.112783
H	-2.4692732668	 1.6724411504	-1.9481676844	 0.113867
H	-2.2024388133	 2.2176017718	-0.288391273	 0.111524
H	-0.7275939359	-0.141487382	-1.6297040799	 0.105067
H	-0.4559870185	 0.4043018305	 0.0154669065	 0.093312
H	-2.8322429123	-0.1462001302	 0.5892256672	 0.081727
H	-3.1018806381	-0.6688175474	-1.070042718	 0.099487
H	-1.831135605	-2.3472295328	 3.1888559041	 0.120714
H	-2.5939936127	-0.965569105	 2.4063006619	 0.113176
H	-4.608809216	-2.3926589033	 1.8575822858	 0.123841
H	-3.8197450175	-3.7818115436	 2.6203841809	 0.134273
H	-4.2954170991	-2.3830513727	 3.600350506	 0.115991
H	 0.0090859221	-3.7960781788	-0.2883467592	 0.129115
H	-0.5172746908	-5.3674027568	 0.4022120408	 0.119237
H	-1.5762743514	-4.4540392823	-0.7246729164	 0.128339
30.6666	41.8866	86.2998	104.2719	141.1479	182.9779	210.8639	232.5512	238.4441	274.5158	311.7005	356.5822	447.7821	474.6121	614.6655	701.2741	754.5133	779.8539	808.2777	893.9225	898.2166	968.7829	1014.7779	1045.3303	1080.3709	1099.39	1123.7275	1131.4862	1171.6948	1179.4428	1220.0139	1254.139	1270.9974	1311.4588	1318.4934	1330.4347	1350.8717	1395.1275	1407.7864	1412.7136	1470.9767	1474.4726	1476.5284	1489.8876	1496.9554	1500.1891	1500.515	1502.338	1509.4283	1519.0351	1752.2144	2974.6326	3013.4968	3028.3871	3032.0835	3039.9469	3042.6962	3060.9217	3067.4089	3096.3692	3102.905	3103.7028	3109.2317	3113.4004	3129.0791	3140.5814
CCCN=C(CC)OC	CCCN=C(CC)OC	
InChI=1S/C7H15NO/c1-4-6-8-7(5-2)9-3/h4-6H2,1-3H3	InChI=1S/C7H15NO/c1-4-6-8-7(5-2)9-3/h4-6H2,1-3H3
