14
gdb 51440	3.20867	1.21273	0.97848	3.9929	64.79	-0.2512	-0.0532	0.198	1161.1818	0.098893	-473.771018	-473.762953	-473.762008	-473.804972	28.122	
N	-0.0652169604	 1.238419459	 0.092334202	-0.43105
C	-0.1751510962	 0.0194705798	-0.2041173596	 0.121416
O	-1.0638328744	-0.7500623735	 0.4775270556	-0.193524
C	-1.0584901391	-2.1186953423	 0.1661967814	-0.018589
C	-2.2514243669	-2.9078987942	 0.6973135917	 0.000938
O	-3.3987396558	-2.4422404459	 0.0058484726	-0.214944
C	-2.5975451214	-3.452325301	-0.644841198	-0.112318
C	-1.4687635531	-2.6404936685	-1.2664812116	 0.39826
O	-0.9948714554	-2.5124023508	-2.3532481824	-0.291777
H	 0.6257370271	 1.6813527431	-0.5099208175	 0.2349
H	 0.3688259912	-0.5250299988	-0.9844706641	 0.116659
H	-0.1018896548	-2.5931423942	 0.434587371	 0.116894
H	-2.3840717375	-3.373394969	 1.6653948678	 0.134318
H	-3.0766910532	-4.3788842738	-0.9337110189	 0.138819
54.8427	86.79	101.9701	181.4507	230.2712	316.7064	463.0681	519.6392	593.7159	696.8453	754.124	820.3532	827.2096	851.6381	903.9181	924.5216	980.9108	1026.6068	1033.3064	1043.3069	1064.4003	1168.975	1203.2946	1212.7442	1258.2387	1287.1476	1346.9142	1366.6982	1428.0826	1749.1203	1906.9223	2997.5739	3062.2126	3206.7694	3219.0012	3519.5355
N=COC1C2OC2C1=O	[NH][CH]O[C@H]1[C@H]2O[C@H]2C1=O	
InChI=1S/C5H5NO3/c6-1-8-3-2(7)4-5(3)9-4/h1,3-6H	InChI=1S/C5H5NO3/c6-1-8-3-2(7)4-5(3)9-4/h1,3-6H/t3-,4+,5-/m1/s1
