20
gdb 107945	3.9214	1.21987	1.11103	1.8451	79.16	-0.2223	0.0768	0.2991	1178.4838	0.170019	-403.076756	-403.068184	-403.06724	-403.10971	32.984	
C	 0.0629527591	 1.3403976855	-0.0250776224	-0.26813
O	 0.0216389957	-0.0751800177	-0.026307635	-0.295969
C	-1.2543505383	-0.5933597319	 0.0158669062	 0.409257
C	-2.1763713977	-0.5293259133	 1.2523137714	-0.212787
N	-2.7875630981	-1.8283587859	 0.8135716462	-0.184918
C	-1.5729238765	-2.1324756169	-0.0010974678	-0.184479
C	-2.8294811692	-1.7702726711	-0.7009191238	 0.354522
C	-3.8456838385	-2.6257019835	-1.3880286356	-0.493581
C	-2.2699926312	-0.4211357907	-1.1571576749	-0.359045
H	 1.1153723511	 1.6292769187	-0.0536663428	 0.132369
H	-0.4473495116	 1.7616511478	-0.9028087794	 0.116065
H	-0.396616685	 1.759983897	 0.8813189901	 0.115419
H	-1.6421361686	-0.6980177243	 2.1911634884	 0.110673
H	-2.8764402865	 0.3080046418	 1.3564821314	 0.091759
H	-0.9801072318	-3.0336234937	 0.0856442071	 0.097542
H	-3.9760183905	-3.5676191429	-0.8484042115	 0.134083
H	-4.8185202686	-2.1226723211	-1.4270949813	 0.122665
H	-3.5394246578	-2.8506148089	-2.4152288914	 0.117912
H	-2.9301909888	 0.4537558802	-1.1523016044	 0.089062
H	-1.772365927	-0.516880739	-2.1260915107	 0.107582
81.4548	166.8398	181.6147	195.6625	249.6588	293.3117	373.9839	395.971	458.6381	477.2017	593.1426	642.3685	714.7754	748.5113	828.4097	901.2255	937.2309	959.959	966.4433	998.0998	1016.0674	1026.4566	1055.568	1113.8137	1125.2015	1148.4487	1155.4883	1165.5517	1181.5424	1191.9719	1231.1691	1263.1798	1274.9739	1348.3831	1393.2035	1432.6497	1483.9091	1484.4627	1489.6861	1491.2794	1493.719	1506.3216	1515.9013	2991.494	3027.6695	3030.8727	3037.3094	3043.8264	3092.3233	3101.764	3104.3774	3117.6415	3126.1793	3202.9204
COC12CN3C1C3(C)C2	CO[C@]12CN3[C@H]1[C@]3(C)C2	
InChI=1S/C7H11NO/c1-6-3-7(9-2)4-8(6)5(6)7/h5H,3-4H2,1-2H3	InChI=1S/C7H11NO/c1-6-3-7(9-2)4-8(6)5(6)7/h5H,3-4H2,1-2H3/t5-,6-,7+,8?/m0/s1
