19
gdb 26204	3.77299	1.02285	0.86464	2.201	80.23	-0.1667	0.0544	0.2211	1359.7583	0.158829	-419.220193	-419.210567	-419.209623	-419.254753	35.508	
C	 0.323557858	 0.6149092446	 1.2423307746	-0.322968
N	-0.1639013479	 0.2527243793	-0.0780197137	-0.157582
C	 0.92339241	-0.0563966068	-1.006406752	-0.331321
C	-1.2211314313	-0.6706899829	-0.0703389429	 0.38298
C	-1.6907416513	-1.5320168384	 0.9041203125	-0.391226
C	-2.8368233002	-2.1856005887	 0.3582345093	 0.334518
O	-3.6164772938	-3.1326410423	 0.961443092	-0.453427
C	-3.0348978285	-1.7233447358	-0.9168333703	-0.18469
N	-2.0267411161	-0.8011492622	-1.1691344353	-0.315268
H	 1.0103619578	 1.4624124482	 1.1520990622	 0.117617
H	-0.5163280157	 0.9107939119	 1.8749902014	 0.131925
H	 0.8662700309	-0.2057386769	 1.7450224092	 0.101244
H	 1.5470204889	-0.8999253593	-0.6623848288	 0.106209
H	 0.5188531398	-0.3149360189	-1.9869885719	 0.120411
H	 1.565246873	 0.8230729283	-1.1209066907	 0.118293
H	-1.2503952656	-1.7023845207	 1.8745372017	 0.08157
H	-3.2792161603	-3.2781500684	 1.8493469418	 0.293162
H	-3.7736623406	-1.978979751	-1.6559992715	 0.113586
H	-2.009878887	-0.1663674401	-1.9474860175	 0.254968
41.6302	134.3639	174.3242	184.048	219.7192	258.2232	292.0541	329.5885	362.1271	383.376	464.3578	504.566	572.264	611.9874	671.6439	699.0702	714.0891	750.2806	932.0312	991.6375	1019.7101	1070.8291	1112.5564	1121.647	1162.2947	1172.2309	1181.0079	1224.6119	1280.6091	1316.965	1352.028	1441.1214	1451.92	1464.7447	1476.5164	1484.6981	1494.1821	1501.9016	1511.627	1579.2908	1661.3616	2944.474	2956.0057	3065.339	3069.1496	3121.6001	3124.4724	3243.2155	3284.5852	3686.4159	3849.3067
CN(C)C1=CC(O)=CN1	CN(C)c1cc(O)c[nH]1	
InChI=1S/C6H10N2O/c1-8(2)6-3-5(9)4-7-6/h3-4,7,9H,1-2H3	InChI=1S/C6H10N2O/c1-8(2)6-3-5(9)4-7-6/h3-4,7,9H,1-2H3
