21
gdb 62918	2.63552	1.65487	1.52462	1.6725	81.9	-0.2319	0.0055	0.2374	1015.2225	0.183103	-387.083002	-387.07491	-387.073966	-387.114738	33.232	
C	-0.1855542538	 1.605311957	 0.0459647855	-0.471042
C	-0.0091841619	 0.0929582585	 0.0091844968	 0.320247
C	-1.3591000993	-0.6104975615	 0.1775356879	-0.444125
C	 0.8212008296	-0.5813945271	-1.1266821675	 0.057105
C	 2.0748722159	 0.2112306199	-1.5326707182	-0.283083
C	 2.8573490498	 0.5729850831	-0.2863216368	-0.064083
C	 2.37740982	 0.1954279311	 0.8988622662	-0.059862
C	 1.0976396084	-0.6107088714	 0.8705245342	 0.007998
O	 1.2303298922	-1.6132014405	-0.1858611428	-0.303552
H	 0.7599791047	 2.1446984229	-0.0291649166	 0.122197
H	-0.8339525021	 1.9313284521	-0.7757995682	 0.112486
H	-0.671848261	 1.9116756103	 0.9795272293	 0.113048
H	-2.0522593945	-0.314816799	-0.6185668159	 0.108412
H	-1.241099271	-1.69579304	 0.1462997753	 0.133984
H	-1.8212933371	-0.3389895607	 1.1334493749	 0.10841
H	 0.2807610999	-0.9928482979	-1.9857099945	 0.067248
H	 2.6903520609	-0.3954169629	-2.2098219758	 0.115821
H	 1.7967389206	 1.1133655705	-2.0948816882	 0.106954
H	 3.785333836	 1.1275439417	-0.3914517168	 0.09373
H	 2.8616359855	 0.4331017809	 1.8399843113	 0.09049
H	 0.8173069272	-1.054236797	 1.8295140199	 0.067617
182.1431	215.4597	234.1521	243.6695	281.7588	357.0337	368.5821	416.0345	482.1369	508.1331	592.5901	621.8315	699.2237	776.798	836.2819	876.3007	884.5094	928.335	948.4016	961.137	966.7034	968.6176	987.593	1008.9549	1028.6271	1075.6894	1146.0187	1161.6872	1189.8243	1212.1176	1236.5177	1263.4107	1291.2535	1330.8682	1338.1923	1364.7664	1395.58	1395.9461	1417.644	1464.5802	1483.6518	1493.0727	1501.5136	1516.308	1694.4891	3013.4499	3024.8228	3030.8253	3043.0633	3054.6284	3077.2892	3081.2383	3087.1019	3126.5114	3130.9077	3163.4244	3191.4863
CC1(C)C2CC=CC1O2	CC1(C)[C@H]2CC=C[C@@H]1O2	
InChI=1S/C8H12O/c1-8(2)6-4-3-5-7(8)9-6/h3-4,6-7H,5H2,1-2H3	InChI=1S/C8H12O/c1-8(2)6-4-3-5-7(8)9-6/h3-4,6-7H,5H2,1-2H3/t6-,7+/m0/s1
