16
gdb 131782	6.02454	0.74692	0.69893	1.6168	68.17	-0.249	-0.0024	0.2466	1550.5063	0.12396	-475.016641	-475.007978	-475.007034	-475.051013	31.036	
O	-0.0555866424	 1.4393969188	-0.1464723164	-0.417103
C	 0.0648899252	 0.0285590367	-0.1033542024	-0.070968
C	-1.3413799328	-0.529844103	 0.1400387738	-0.296842
C	-1.3661879117	-2.0167349847	 0.2141218472	 0.456796
C	-1.6603401018	-2.8969090455	 1.2079133639	-0.448627
C	-1.4676995835	-4.1613851738	 0.5874850829	 0.474466
O	-1.6440029829	-5.3504850696	 1.1833286313	-0.418111
N	-1.088905051	-4.0624984191	-0.6636507041	-0.259707
O	-1.0234883373	-2.6844993462	-0.9057930307	-0.224399
H	 0.812449466	 1.8110712498	-0.3280161475	 0.29068
H	 0.4604484391	-0.3772790529	-1.0453095618	 0.111782
H	 0.7347603279	-0.2980199385	 0.7072832331	 0.096034
H	-1.7340703898	-0.1180599507	 1.0735554416	 0.129379
H	-1.993547108	-0.1844457168	-0.6701434447	 0.138496
H	-1.9691689764	-2.6926845866	 2.2185018328	 0.12637
H	-1.4471491606	-6.0359913977	 0.5307034611	 0.311753
45.0524	90.1035	103.5141	244.6659	252.5342	299.5609	345.1777	401.5186	454.7714	462.8788	633.0405	694.3534	729.2448	786.8901	794.5903	811.9343	956.167	995.4404	1015.7537	1049.8115	1065.8767	1085.0971	1160.0511	1210.1871	1232.3784	1241.3027	1298.4457	1330.0134	1336.0728	1456.3897	1479.6826	1530.5948	1539.5095	1557.0353	1662.0603	2980.6155	3021.2651	3050.6764	3108.1238	3287.1524	3779.201	3833.303
OCCC1=CC(O)=NO1	OCCc1cc(O)no1	
InChI=1S/C5H7NO3/c7-2-1-4-3-5(8)6-9-4/h3,7H,1-2H2,(H,6,8)	InChI=1S/C5H7NO3/c7-2-1-4-3-5(8)6-9-4/h3,7H,1-2H2,(H,6,8)
