18
gdb 70042	4.08013	1.07376	0.94885	4.855	85.5	-0.2463	-0.0403	0.206	1254.3575	0.148627	-364.839907	-364.831852	-364.830907	-364.872312	31.257	
C	-0.0450160594	 1.506028779	 0.0141667071	-0.484204
C	 0.056329932	-0.000383421	-0.0040402233	 0.337894
C	-0.812811265	-0.8216160231	 0.9069195033	-0.31785
C	 0.6939275978	-0.7927735431	 1.1381372832	-0.111541
C	 1.439386474	-1.9003665396	 0.4995844426	-0.153362
C	 1.3030848142	-1.8821657984	-0.8381811485	 0.173353
C	 0.4947284319	-0.6797936071	-1.3073366897	-0.384746
C	 1.8317373661	-2.8445018912	-1.7373288937	 0.202397
N	 2.253928816	-3.6093443164	-2.4992604749	-0.341078
H	 0.8960237584	 1.9710582306	-0.3001449446	 0.12313
H	-0.8324233546	 1.8570641073	-0.6629456616	 0.125414
H	-0.2838340897	 1.8754049702	 1.0162691362	 0.119435
H	-1.4250606571	-0.2794884092	 1.620500078	 0.11756
H	-1.2487896748	-1.7475841187	 0.5454643089	 0.119944
H	 1.0761732031	-0.3215110062	 2.0366118669	 0.097528
H	 1.9984129036	-2.6467714516	 1.0511050279	 0.123086
H	-0.3550680779	-0.9773517694	-1.932170341	 0.129555
H	 1.1151393613	-0.0124494322	-1.9193453969	 0.123486
105.9619	149.0675	208.6038	232.3959	309.249	351.2819	387.5323	461.0554	517.459	567.2021	571.7821	624.0474	735.892	813.2323	864.2867	886.3678	903.3239	932.1391	952.3233	996.8413	1021.6877	1058.2281	1071.2957	1089.0843	1104.2397	1178.2697	1190.0961	1248.5075	1268.6547	1316.6886	1329.2683	1396.7305	1421.2365	1475.0242	1486.649	1493.6947	1502.1714	1656.2706	2332.0669	3023.8881	3027.8726	3065.1669	3086.2428	3102.6934	3124.0242	3174.8819	3211.2596	3213.8093
CC12CC1C=C(C2)C#N	C[C@]12C[C@H]1C=C(C2)C#N	
InChI=1S/C8H9N/c1-8-3-6(5-9)2-7(8)4-8/h2,7H,3-4H2,1H3	InChI=1S/C8H9N/c1-8-3-6(5-9)2-7(8)4-8/h2,7H,3-4H2,1H3/t7-,8+/m1/s1
