21
gdb 72465	2.44464	1.83565	1.43157	1.2948	81.69	-0.2374	0.0245	0.2619	1005.5994	0.185588	-387.120352	-387.112793	-387.111849	-387.151709	31.877	
O	-0.0488972509	 1.4047148053	 0.0037473457	-0.498439
C	 0.0082984254	-0.0138642566	 0.0094215883	 0.414836
C	 0.669211654	-0.5970865438	 1.2977908345	-0.255111
C	-0.1780996246	-1.8413830669	 1.6882460824	-0.204
C	-1.1118190447	-2.0444848504	 0.463357673	-0.057695
C	-1.4138995688	-0.5894139391	 0.0652921464	-0.24644
C	-0.3486953489	-2.7151762573	-0.6612443134	-0.065714
C	 0.4818270553	-2.0245735263	-1.4428234619	-0.051207
C	 0.6989571911	-0.541609874	-1.2647445201	-0.310858
H	 0.8507048105	 1.7382430016	-0.082486183	 0.270401
H	 1.7204099331	-0.851010918	 1.1302117917	 0.091097
H	 0.6354293891	 0.1681065482	 2.0778609295	 0.102014
H	 0.4323884876	-2.7236115939	 1.8974816012	 0.09412
H	-0.7767316655	-1.637608257	 2.5824877256	 0.095194
H	-2.0071390423	-2.617561101	 0.7178693975	 0.062035
H	-1.9903169069	-0.0728724859	 0.8402320478	 0.096853
H	-1.9452027257	-0.4973525247	-0.8856310712	 0.096522
H	-0.4699911137	-3.7868191143	-0.7959207505	 0.083301
H	 1.0319921538	-2.5176586246	-2.2404344052	 0.084507
H	 0.314209191	 0.011938387	-2.1329365952	 0.109655
H	 1.776810411	-0.3222515683	-1.2181611029	 0.088929
139.3455	264.9767	278.1119	290.1317	357.6276	415.9968	431.8732	458.0363	490.6587	577.3584	635.6118	725.3292	772.5119	798.272	842.8798	859.0985	907.2524	941.0263	947.7397	954.1048	991.8241	996.1918	1007.8541	1026.6055	1083.2113	1098.3425	1130.1394	1158.1574	1176.4634	1204.4826	1237.6449	1249.5022	1267.8431	1275.9082	1308.9238	1331.451	1351.5898	1356.3525	1400.1374	1411.2133	1473.7419	1485.1924	1491.4695	1512.4489	1710.5632	2988.2222	3022.9939	3040.7609	3046.9653	3052.0382	3074.3463	3086.2993	3102.1501	3105.5474	3146.3341	3170.6099	3802.403
OC12CCC(C1)C=CC2	O[C@@]12CC[C@@H](C1)C=CC2	
InChI=1S/C8H12O/c9-8-4-1-2-7(6-8)3-5-8/h1-2,7,9H,3-6H2	InChI=1S/C8H12O/c9-8-4-1-2-7(6-8)3-5-8/h1-2,7,9H,3-6H2/t7-,8-/m0/s1
