21
gdb 108483	2.14749	1.61765	1.26072	2.105	78.06	-0.2348	0.0682	0.303	1129.0477	0.181039	-424.186965	-424.177772	-424.176828	-424.220912	34.486	
C	 0.3451806169	 1.160913167	-0.0267037526	-0.265362
O	 0.1603754045	-0.2398076072	 0.0440433692	-0.289425
C	 0.717870916	-0.8208826197	 1.1793050957	 0.360853
C	 2.2700232329	-0.9197501875	 1.2711100041	-0.305344
C	 2.1447608217	-2.4555663124	 1.5368241227	-0.232617
C	 0.6054775276	-2.3422665869	 1.4406065644	 0.050603
O	-0.0116507833	-2.1144371288	 2.7234194669	-0.316297
C	-0.0576303437	-0.6747168098	 2.5197925738	 0.106933
C	 0.4844933948	 0.100506255	 3.7021354328	-0.415189
H	 1.4103861192	 1.4338098595	-0.0221940027	 0.111708
H	-0.1005264161	 1.496829924	-0.9655545159	 0.130789
H	-0.1505618782	 1.6829983142	 0.8049929018	 0.110529
H	 2.7297826641	-0.69721721	 0.3053983181	 0.111295
H	 2.7672399781	-0.3240185868	 2.0394349788	 0.099291
H	 2.5985189036	-3.0718508224	 0.7569354942	 0.104471
H	 2.4860973981	-2.8031896142	 2.5134586264	 0.111483
H	 0.047158966	-3.0409427175	 0.8135801593	 0.080299
H	-1.0904075837	-0.3640276619	 2.3021214412	 0.077552
H	 1.5187301875	-0.1743767965	 3.9266364731	 0.122312
H	 0.440372501	 1.1784942271	 3.5121418192	 0.115575
H	-0.1185425869	-0.1104336253	 4.5912270594	 0.130541
77.6998	94.3411	167.8166	192.4122	202.934	261.192	308.7262	353.673	405.9495	440.7552	506.9081	624.5357	643.3981	738.7745	822.2119	860.0412	885.2137	911.3054	947.6675	990.7776	1023.2684	1051.4722	1089.5222	1108.7814	1113.1577	1149.0586	1178.8156	1181.6724	1194.2387	1212.0644	1232.343	1245.2932	1261.9103	1278.4068	1305.7129	1349.6191	1388.7965	1406.3735	1460.9846	1475.3401	1480.6505	1484.3323	1490.5042	1502.0283	1506.4343	2985.4226	2990.7892	3034.9762	3036.7162	3064.5578	3069.7606	3088.2833	3103.8676	3113.5223	3118.3245	3120.0945	3133.6528
COC12CCC1OC2C	CO[C@]12CC[C@H]1O[C@H]2C	
InChI=1S/C7H12O2/c1-5-7(8-2)4-3-6(7)9-5/h5-6H,3-4H2,1-2H3	InChI=1S/C7H12O2/c1-5-7(8-2)4-3-6(7)9-5/h5-6H,3-4H2,1-2H3/t5-,6+,7-/m0/s1
