14
gdb 34109	3.63263	1.56832	1.35119	3.5125	64.67	-0.2462	-0.0135	0.2328	917.3762	0.101706	-436.635189	-436.628633	-436.627689	-436.66613	25.694	
N	 0.0872773475	-1.1059894976	 0.0403822817	-0.322955
C	 0.0243752242	 0.0469069202	 0.009838112	 0.208265
C	-0.091613423	 1.4920217352	-0.0215651963	 0.278857
C	-1.0057416201	 2.1431214528	 1.0214059538	-0.101548
O	-1.0539172542	 3.5106792405	 0.6114427965	-0.262066
C	-0.6017783724	 3.5773183245	-0.7177917093	 0.072669
C	 0.7851542085	 3.0350606377	-1.0173088899	 0.056961
O	 1.1932683946	 2.1849984353	 0.0603161131	-0.318173
C	-0.4449042791	 2.2241561811	-1.3472086933	-0.248019
H	-2.0084129909	 1.6922908588	 1.0221364967	 0.117058
H	-0.5690337975	 2.0836140914	 2.0213892021	 0.141625
H	-0.9880272317	 4.4214780796	-1.2754015275	 0.126095
H	 1.5546251483	 3.4943598558	-1.6252023452	 0.123846
H	-0.8772233942	 1.8098857646	-2.2462973144	 0.127386
149.3309	160.1505	261.2988	395.1565	482.622	514.5034	532.2959	588.407	694.6257	741.8565	778.6521	804.6091	864.4052	884.5369	955.9538	980.9188	1021.7489	1035.7928	1058.8333	1075.3298	1083.4032	1108.2556	1154.8934	1183.9515	1221.9933	1251.3117	1291.84	1362.4384	1402.3931	1496.8863	2366.9438	3008.5824	3106.6416	3196.0801	3203.5743	3223.6918
N#CC12COC3C(O1)C23	N#C[C@@]12CO[C@H]3[C@@H](O1)[C@@H]23	
InChI=1S/C6H5NO2/c7-1-6-2-8-4-3(6)5(4)9-6/h3-5H,2H2	InChI=1S/C6H5NO2/c7-1-6-2-8-4-3(6)5(4)9-6/h3-5H,2H2/t3-,4+,5-,6-/m0/s1
