16
gdb 131875	5.5822	0.82836	0.75546	3.9184	66.86	-0.2415	0.0075	0.249	1454.1332	0.126095	-471.21502	-471.20678	-471.205835	-471.249047	29.417	
O	-0.0736849535	 1.4257278395	-0.0475534192	-0.419925
C	-0.0377412409	 0.014463076	 0.0052629677	-0.068459
C	-1.430343278	-0.5882002767	 0.0517492394	-0.072229
O	-2.0747720459	-0.1853348637	-1.1664607559	-0.271457
C	-3.3537394097	-0.5357625749	-1.307550489	 0.454692
N	-4.0254965623	-1.265927422	-0.4288257827	-0.312653
N	-5.2480245154	-1.338614986	-1.0302459463	-0.196646
C	-5.2353754249	-0.6697451496	-2.1955457349	 0.033778
N	-4.0454677666	-0.1421807489	-2.4107713209	-0.330294
H	-0.6283929913	 1.6561077392	-0.8016620336	 0.2952
H	 0.5111635019	-0.4101895458	-0.8500544393	 0.098556
H	 0.5005508663	-0.2599134822	 0.9183355767	 0.113467
H	-1.3991642495	-1.6824032503	 0.1139728482	 0.115244
H	-1.9984243765	-0.2046224089	 0.9062436998	 0.126001
H	-5.9944127714	-1.8442297364	-0.5838901152	 0.283117
H	-6.0945989322	-0.5916745895	-2.8447030948	 0.151607
47.5427	75.0725	142.7146	184.0243	292.3286	347.048	410.8023	480.0691	489.4503	500.4562	667.9527	759.0209	775.8992	860.5559	901.2497	907.1679	992.367	1015.2872	1070.643	1101.2566	1105.4182	1130.2734	1185.5278	1237.0749	1263.7009	1303.0096	1354.3098	1388.8351	1399.718	1437.4022	1478.3422	1494.0293	1498.2624	1536.5685	1588.3668	2986.151	3034.4298	3081.2451	3088.7611	3259.621	3674.655	3802.8084
OCCOC1=NNC=N1	OCCOc1n[nH]cn1	
InChI=1S/C4H7N3O2/c8-1-2-9-4-5-3-6-7-4/h3,8H,1-2H2,(H,5,6,7)	InChI=1S/C4H7N3O2/c8-1-2-9-4-5-3-6-7-4/h3,8H,1-2H2,(H,5,6,7)
