18
gdb 20792	3.06283	1.78144	1.23535	2.62	74.17	-0.2225	0.0283	0.2508	1016.6003	0.155018	-344.021458	-344.013026	-344.012082	-344.055162	30.106	
C	 0.0195010949	 1.6410187852	 0.1492510229	-0.361279
C	 0.0170719579	 0.1076968204	 0.0154259972	-0.30822
C	-1.3594642448	-0.4896384437	-0.013205048	 0.129993
C	-2.1545129159	-0.7590214598	-1.1175477366	 0.278621
C	-1.9244634298	-0.5733011943	-2.5819588745	-0.505963
N	-3.3165728154	-1.2644635782	-0.6231596097	-0.245058
N	-3.3429279888	-1.3516983675	 0.7212233399	-0.233419
C	-2.1575484371	-0.8788958938	 1.0898766048	-0.078867
H	 1.041651387	 2.0325166961	 0.1817847343	 0.108143
H	-0.4971994027	 2.1094089461	-0.6946483468	 0.113784
H	-0.4942362458	 1.9530801575	 1.0638225511	 0.121237
H	 0.5650059167	-0.1737391296	-0.8923626773	 0.097019
H	 0.5797346602	-0.3251850364	 0.8511115958	 0.10588
H	-2.3292541334	-1.4095326426	-3.1624896723	 0.129032
H	-2.3880114916	 0.3459558075	-2.9601457921	 0.139227
H	-0.8543735351	-0.5108811844	-2.7947444043	 0.142274
H	-4.1136630905	-1.5849123723	-1.1469792657	 0.265229
H	-1.901431886	-0.8377129101	 2.1396677314	 0.102368
46.2915	67.253	155.2973	202.7756	243.5527	275.9077	384.421	417.8824	501.7824	625.3479	683.0178	691.3669	723.0808	786.127	886.5961	945.7467	972.1371	1001.1088	1053.4062	1057.519	1083.951	1141.7211	1189.8316	1237.3666	1294.6098	1304.0605	1352.5551	1389.5215	1408.4041	1415.7421	1448.3927	1480.3473	1485.3814	1490.5721	1496.6279	1506.4835	1524.9751	1626.1272	3024.3549	3026.5013	3033.1169	3056.5876	3078.9793	3103.4394	3109.5581	3117.4939	3231.3582	3666.3954
CCC1=C(C)NN=C1	CCc1c(C)[nH]nc1	
InChI=1S/C6H10N2/c1-3-6-4-7-8-5(6)2/h4H,3H2,1-2H3,(H,7,8)	InChI=1S/C6H10N2/c1-3-6-4-7-8-5(6)2/h4H,3H2,1-2H3,(H,7,8)
