15
gdb 24571	2.29663	2.08446	1.28173	2.2244	77.11	-0.2245	-0.045	0.1795	960.6289	0.113821	-416.788897	-416.781547	-416.780603	-416.820721	27.685	
O	-0.0150311047	 1.2579492032	-0.3067738177	-0.204657
C	 0.883331639	 2.1790536582	 0.0688648845	 0.078103
C	 1.9789908252	 2.1312808554	 0.8472154784	-0.173797
C	 2.5433407678	 1.1297981986	 1.7467143848	-0.025575
N	 1.9915002657	 0.4874511298	 2.7034601542	-0.189105
C	 0.6510214903	 0.4522296272	 2.9945064072	 0.06937
N	-0.2756543833	-0.1424861907	 2.3435163204	-0.230182
C	-0.0501240959	-0.7164325633	 1.1056035328	-0.048711
C	 0.0818196005	-0.1029155838	-0.0729796746	 0.002439
H	 0.6531129146	 3.109853969	-0.4426552177	 0.126247
H	 2.5894071751	 3.0297929927	 0.778139183	 0.111944
H	 3.6289557768	 1.0122663364	 1.6723886645	 0.118754
H	 0.3970709891	 0.8652964499	 3.9727407732	 0.126637
H	-0.0876685031	-1.8043522385	 1.0806371504	 0.119783
H	 0.0941584129	-0.6612362241	-1.0014561036	 0.11875
122.2391	159.8465	192.1146	235.9621	315.8626	417.9552	468.8583	536.9324	622.889	710.7053	745.4917	778.6697	818.4958	839.681	899.1291	913.1315	941.0397	962.7941	984.7179	993.6946	1048.477	1102.7347	1169.5787	1287.2641	1356.3098	1400.3558	1427.8182	1435.5997	1460.1753	1643.216	1685.2345	1702.1848	1727.2452	3074.85	3114.3072	3141.3973	3142.5454	3177.1864	3204.7791
O1C=CC=NC=NC=C1	o1cccncncc1	
InChI=1S/C6H6N2O/c1-2-7-6-8-3-5-9-4-1/h1-6H/b4-1-,5-3-,7-2-,8-6-	InChI=1S/C6H6N2O/c1-2-7-6-8-3-5-9-4-1/h1-6H/b4-1-,5-3-,7-2-,8-6-
