21
gdb 62830	2.54322	1.81832	1.46559	1.7084	83.24	-0.2378	0.0547	0.2925	1006.829	0.181708	-386.949614	-386.941457	-386.940513	-386.981592	33.338	
C	-0.1370385822	 1.4711807865	 0.3645188597	-0.471766
C	 0.0075030217	-0.0161834122	 0.015060956	 0.347582
C	-1.4048050533	-0.558756431	-0.2413733665	-0.45749
C	 1.1030856677	-0.4626350547	-0.9883283361	-0.138977
C	 2.2109685294	-0.0799650726	 0.1038140274	-0.33014
C	 1.0772833262	-0.8505327331	 0.8621437599	 0.172994
C	 0.5375162456	-2.0169018377	 1.7089615681	-0.195061
O	 0.186081896	-2.7113143571	 0.4545170567	-0.305814
C	 1.1600266405	-1.8598345024	-0.2501638959	 0.102512
H	 0.774721828	 1.9503885256	 0.7226989754	 0.112243
H	-0.4879393041	 2.0350975972	-0.5075244389	 0.115985
H	-0.893994849	 1.5924940064	 1.1474270266	 0.115433
H	-1.9293559726	 0.1272123209	-0.917441511	 0.100906
H	-1.4200981173	-1.5547834619	-0.6768575241	 0.13924
H	-1.985915096	-0.5907677155	 0.6878829312	 0.108404
H	 1.1604317398	-0.2264765769	-2.0568547557	 0.067775
H	 3.1624952336	-0.6093955341	 0.0223524656	 0.105021
H	 2.374927454	 0.9811267471	 0.2829263762	 0.107761
H	 1.2872884649	-2.5880704338	 2.2697582184	 0.110639
H	-0.3445729692	-1.8297772274	 2.3285862448	 0.113999
H	 2.0751269463	-2.4360207933	-0.4157815579	 0.078753
144.071	171.3737	186.5809	255.0862	324.8209	378.4517	408.4671	434.1618	470.9853	519.1802	611.0495	640.5299	714.2639	797.3075	821.4033	848.0511	878.3488	902.0469	942.2993	957.441	965.9673	998.465	1004.7704	1020.0965	1028.2352	1102.5242	1118.0534	1149.6689	1158.1314	1169.3414	1177.776	1206.7436	1226.8907	1248.4158	1293.5532	1297.9036	1369.0764	1407.7001	1425.6867	1481.3218	1483.9277	1495.0838	1505.9388	1509.8266	1532.7075	3023.9918	3026.4032	3034.5527	3043.0911	3057.4891	3075.0093	3083.6093	3086.0337	3092.7077	3127.526	3154.5757	3172.0608
CC1(C)C2CC11COC21	CC1(C)[C@H]2C[C@]31CO[C@@H]23	
InChI=1S/C8H12O/c1-7(2)5-3-8(7)4-9-6(5)8/h5-6H,3-4H2,1-2H3	InChI=1S/C8H12O/c1-7(2)5-3-8(7)4-9-6(5)8/h5-6H,3-4H2,1-2H3/t5-,6-,8-/m0/s1
