17
gdb 24315	2.72041	2.451	1.50301	3.5344	77.57	-0.2021	-0.0159	0.1861	869.3242	0.140282	-380.835686	-380.829505	-380.82856	-380.865942	25.672	
C	-0.1493059691	 1.5270997741	-0.1193660083	-0.322827
C	 1.4095980882	 1.7458302957	 0.0722540668	 0.002795
C	 2.1307678896	 1.7780849415	 1.4596928016	-0.243115
C	 3.0690991002	 0.4931162902	 1.440128167	-0.290346
C	 2.1694582789	-0.441710455	 0.6655367863	 0.189228
N	 1.3794604721	-1.4272432654	 1.0578021866	-0.27185
C	 0.1284566371	-1.142322472	 0.5004561849	-0.107199
C	 0.1920737608	 0.0145073937	-0.2547151797	 0.032547
N	 1.5520316766	 0.3224553548	-0.2731757198	 0.055909
H	-0.7689422178	 1.748686509	 0.7511386645	 0.132755
H	-0.5586288543	 2.0318011258	-0.9969175033	 0.125532
H	 1.8618009699	 2.4352683813	-0.6460671536	 0.09496
H	 2.6846746976	 2.7044297785	 1.6323322833	 0.110018
H	 1.4027878033	 1.6682580279	 2.2696307088	 0.126045
H	 4.0124603697	 0.7132724813	 0.9308265773	 0.12285
H	 3.2908360155	 0.1222099466	 2.4406737856	 0.134473
H	-0.7197368383	-1.7669107479	 0.7392862519	 0.108225
168.6023	295.1	303.1278	365.6204	532.6472	576.5808	643.4926	688.3939	708.4264	739.362	781.9065	843.1714	850.4821	856.2442	897.1312	930.2932	1003.1008	1011.8995	1041.7151	1068.119	1114.1782	1137.177	1173.072	1194.7326	1218.9182	1240.0693	1258.1642	1290.098	1299.1234	1322.4999	1339.2462	1389.1541	1450.7006	1468.5683	1480.2938	1489.1419	1516.3935	3057.3869	3060.185	3063.7235	3074.5926	3110.8531	3133.0993	3143.0721	3246.7596
C1C2CCC3=NC=C1N23	C1[C@H]2CC[C]3[N][CH][C]1N23	
InChI=1S/C7H8N2/c1-2-7-8-4-6-3-5(1)9(6)7/h4-5H,1-3H2	InChI=1S/C7H8N2/c1-2-7-8-4-6-3-5(1)9(6)7/h4-5H,1-3H2/t5-/m1/s1
