20
gdb 71732	2.53742	2.02333	1.47474	1.7983	81.1	-0.2175	0.0785	0.296	974.321	0.171705	-365.96592	-365.958187	-365.957243	-365.997493	31.401	
C	 0.0532387237	 1.4612096329	 0.0062207064	-0.500757
C	 0.0577293965	-0.0448463575	-0.0358946245	 0.254782
C	 0.2014055789	-0.8051003509	-1.3451518237	-0.217655
N	 0.1230454978	-2.2059329404	-0.9175434688	-0.126081
C	-0.7691482494	-2.2946724144	 0.2545312435	-0.061512
C	 0.7076790673	-2.3173575468	 0.4290143038	-0.124803
C	 0.6727194798	-0.8913096149	 1.0654010564	 0.303418
C	 1.5293675627	-0.4343556507	 2.2056352823	-0.52086
C	-0.8372723568	-0.8730380301	 0.8713189472	-0.19353
H	 0.9968772773	 1.8728739101	-0.3697117252	 0.120527
H	-0.7555729295	 1.8675477574	-0.6114678738	 0.121891
H	-0.0905261488	 1.8393119065	 1.02277649	 0.120048
H	-0.6063145649	-0.5861895992	-2.0525914169	 0.100927
H	 1.1620747331	-0.6221313001	-1.8397369308	 0.100572
H	-1.5161591024	-3.0765761407	 0.3032244175	 0.090798
H	 1.4031706385	-3.1169318764	 0.6548932847	 0.087354
H	 2.587943525	-0.3995638129	 1.9191883016	 0.119789
H	 1.2459740841	 0.5664292872	 2.5459547809	 0.12092
H	 1.4430352921	-1.1094430182	 3.0648775909	 0.122257
H	-1.6115968848	-0.4687132211	 1.5090096186	 0.081913
180.6324	187.0792	212.7581	225.5225	293.8612	326.2665	422.4861	544.063	593.6553	614.3617	725.5186	755.8458	771.0749	790.493	841.6647	862.6693	899.5187	919.6692	944.7811	948.3443	975.1354	1015.2892	1036.3416	1048.7664	1108.253	1129.9412	1146.4421	1177.3713	1181.903	1207.9592	1221.9525	1257.291	1276.7413	1314.696	1354.2992	1412.4491	1422.4259	1443.6065	1483.6121	1492.4272	1495.3203	1497.3322	1507.9935	3018.9256	3026.4851	3037.0017	3073.9696	3080.7851	3084.9677	3096.7169	3102.3074	3178.225	3194.1737	3208.4034
CC12CN3C4C3C1(C)C24	C[C@@]12CN3[C@H]4[C@@H]3[C@]1(C)[C@@H]24	
InChI=1S/C8H11N/c1-7-3-9-4-5(7)8(7,2)6(4)9/h4-6H,3H2,1-2H3	InChI=1S/C8H11N/c1-7-3-9-4-5(7)8(7,2)6(4)9/h4-6H,3H2,1-2H3/t4-,5-,6-,7+,8+,9?/m1/s1
