15
gdb 49472	2.24967	1.88311	1.36474	4.3106	69.3	-0.2671	-0.0555	0.2116	955.5757	0.112213	-416.766123	-416.758167	-416.757222	-416.799381	28.556	
O	-0.8839265436	 1.3287374971	-0.056132282	-0.231694
C	 0.2318285128	 0.9848870578	-0.3530754212	 0.133922
C	 1.4876240765	 1.7478336563	-0.0156555634	-0.07777
C	 1.5902472834	 2.8635081555	 0.9378863569	-0.038747
C	 0.6592943106	 2.7025386531	 2.141113773	-0.277253
C	 1.4004591636	 1.3575191896	 2.4035479427	-0.10756
C	 0.6649705133	 0.1006368109	 2.4611112941	 0.303065
N	 0.103820471	-0.9087124119	 2.5151427576	-0.323855
N	 2.3207352206	 1.5481932948	 1.212166276	-0.159912
H	 0.4109190752	 0.0676853797	-0.9524457322	 0.104635
H	 2.1646418638	 1.791429414	-0.8680570524	 0.124063
H	 2.1445807243	 3.7648147868	 0.6987372152	 0.116142
H	 0.8468337823	 3.4249788598	 2.9353462999	 0.126776
H	-0.403420956	 2.652892208	 1.9162196168	 0.162518
H	 2.0305835123	 1.4174883784	 3.2940930391	 0.14567
47.8856	111.0782	144.0783	227.5253	253.5917	336.6999	404.857	517.0718	570.2806	690.5653	721.193	755.4776	771.4489	859.9536	876.5325	958.6811	980.7929	1019.2707	1055.72	1070.0943	1077.7731	1102.2489	1160.718	1229.4482	1249.4166	1275.6763	1339.9621	1358.173	1418.175	1437.4484	1484.4143	1817.5464	2352.8199	2915.993	3084.3431	3105.5317	3123.9598	3171.7294	3177.8276
O=CC1C2CC(C#N)N12	O=C[C@H]1[C@H]2C[C@@H](C#N)N12	
InChI=1S/C6H6N2O/c7-2-4-1-5-6(3-9)8(4)5/h3-6H,1H2	InChI=1S/C6H6N2O/c7-2-4-1-5-6(3-9)8(4)5/h3-6H,1H2/t4-,5+,6-,8?/m0/s1
