20
gdb 6708	6.15373	0.71982	0.6711	1.9016	77.88	-0.2565	0.0578	0.3143	1670.8473	0.17395	-348.978071	-348.968018	-348.967074	-349.013421	36.041	
C	 0.0018537892	 1.5784546881	 0.0664183718	-0.402692
C	 0.0076119177	 0.0498754478	 0.0340648589	 0.13153
O	 0.7497597884	-0.4851749994	 1.1290648375	-0.426711
C	-1.4088067847	-0.5384095544	-0.0273124739	-0.192533
C	-1.4240192296	-2.0653052334	-0.1324190539	-0.169361
C	-2.8529252227	-2.6440063228	-0.118886977	-0.357924
C	-2.8825566762	-4.0973306125	-0.2312794133	 0.293783
C	-2.8804222196	-5.295631103	-0.3267016492	-0.437663
H	 1.0243951579	 1.9603115756	 0.1288351827	 0.124756
H	-0.471616954	 1.9942884951	-0.8288123147	 0.116134
H	-0.554870234	 1.9464918206	 0.9379005929	 0.105265
H	 0.5629421434	-0.2846593294	-0.8517426037	 0.089553
H	 0.344075779	-0.1602919602	 1.9409753749	 0.27522
H	-1.9596655347	-0.2206261066	 0.8716774175	 0.082074
H	-1.9402996802	-0.0970181064	-0.8810935215	 0.094489
H	-0.921904551	-2.3789928939	-1.0553045561	 0.107307
H	-0.8467942149	-2.4913426365	 0.6930463788	 0.123127
H	-3.3614423897	-2.3399856906	 0.8060326578	 0.125638
H	-3.4355353995	-2.2042716576	-0.9396863634	 0.126037
H	-2.8884996248	-6.3538951906	-0.4100834761	 0.191971
53.118	80.1536	93.0066	144.8454	204.5816	236.3739	287.2725	304.5357	349.321	369.1365	462.5876	478.7047	546.8254	614.3178	632.896	742.8859	825.7828	854.0233	933.287	964.5754	989.3839	1020.5495	1054.1355	1085.7085	1111.8751	1150.1356	1174.501	1255.1741	1280.526	1312.5024	1330.765	1343.8429	1374.2276	1395.2203	1405.1402	1421.5828	1472.7741	1476.0081	1491.8088	1495.2128	1505.8171	2238.7149	2989.5726	3010.746	3021.2704	3029.7225	3035.831	3041.228	3048.3578	3092.8439	3101.8834	3118.6132	3507.9012	3793.4742
CC(O)CCCC#C	C[C@@H](O)CCCC#C	
InChI=1S/C7H12O/c1-3-4-5-6-7(2)8/h1,7-8H,4-6H2,2H3	InChI=1S/C7H12O/c1-3-4-5-6-7(2)8/h1,7-8H,4-6H2,2H3/t7-/m1/s1
