17
gdb 62894	3.27331	1.51082	1.1873	3.4979	68.83	-0.2457	0.0575	0.3033	1041.1533	0.133112	-458.854812	-458.846694	-458.84575	-458.886886	31.863	
C	-0.0518396014	 1.5687560314	-0.0074207264	-0.483566
C	-0.0557321431	 0.051982126	-0.0104113333	 0.428332
O	-1.3260606446	-0.4859625149	-0.2774593236	-0.476631
C	 1.2006724634	-0.670725121	-0.6339288406	-0.153407
O	 1.9768534713	-0.1835253339	 0.5319511642	-0.311247
C	 0.7140937482	-0.6808997334	 1.1298168917	-0.124274
C	 0.8360113817	-1.9040658535	 0.2050471888	 0.581453
C	 0.2050280116	-3.1959272934	 0.0247052302	-0.288886
O	 1.5980561387	-3.0513339142	 0.4097708551	-0.290607
H	 0.9378009534	 1.9533731788	 0.2367911058	 0.153759
H	-0.3382451167	 1.9514262657	-0.9953609112	 0.109824
H	-0.7769128313	 1.9440699466	 0.7216292651	 0.127124
H	-1.7547510653	 0.0665163491	-0.9386305279	 0.285183
H	 1.6588940078	-0.5871901055	-1.6194467562	 0.096675
H	 0.5986744028	-0.6119877737	 2.2110928448	 0.1011
H	-0.4498504338	-3.5946101995	 0.7967788073	 0.124418
H	 0.0409836673	-3.5874903445	-0.9773331138	 0.120749
151.0573	185.7964	237.7412	241.7934	274.521	337.5343	363.3981	382.8535	456.2124	495.4175	610.5155	651.9735	741.3569	771.757	792.4484	864.9962	876.6274	891.1502	958.4826	1014.2709	1058.5529	1096.6814	1106.4826	1110.1509	1129.3145	1134.1306	1157.2361	1173.6147	1222.4996	1234.2295	1245.1885	1392.5235	1407.7426	1465.7862	1492.2831	1503.171	1565.7267	3027.9422	3092.3156	3094.282	3124.5872	3132.8573	3159.5576	3182.4627	3820.1883
CC1(O)C2OC1C21CO1	C[C@@]1(O)[C@H]2O[C@@H]1[C@]12CO1	
InChI=1S/C6H8O3/c1-5(7)3-6(2-8-6)4(5)9-3/h3-4,7H,2H2,1H3	InChI=1S/C6H8O3/c1-5(7)3-6(2-8-6)4(5)9-3/h3-4,7H,2H2,1H3/t3-,4+,5-,6-
