18
gdb 36602	5.2793	0.79173	0.77702	4.7119	77.17	-0.2498	0.0356	0.2854	1470.5692	0.14739	-401.900446	-401.89215	-401.891206	-401.93429	30.856	
N	-0.0347646003	-1.1060217291	-0.1339694284	-0.304728
C	-0.0261305372	 0.0478447023	-0.0718322525	 0.257426
C	 0.0074334376	 1.5050954826	 0.0114788728	-0.341556
C	 1.4461424744	 2.057449905	 0.0887572694	-0.348517
C	 1.451934576	 3.5576389994	 0.1260626459	 0.43729
C	 0.7718228238	 4.5465908392	 1.1176200795	-0.259583
C	 1.3079202029	 5.330583708	-0.0998504421	 0.055662
C	 2.6378227619	 4.5478293804	-0.0215011188	-0.269867
O	 0.7676073307	 4.2740868341	-0.9890423641	-0.34825
H	-0.4980184428	 1.9285587874	-0.8623490794	 0.177288
H	-0.5672315158	 1.817426551	 0.8905163369	 0.154055
H	 1.9528036908	 1.6712971104	 0.9795576892	 0.130397
H	 2.0164531902	 1.7180329817	-0.782080153	 0.136949
H	-0.3151426687	 4.4788367014	 1.1793765987	 0.108669
H	 1.2475030865	 4.7081894713	 2.0882609445	 0.100061
H	 1.1284576355	 6.3650461298	-0.3888312182	 0.103011
H	 3.2848050118	 4.7098799976	 0.8442710856	 0.099561
H	 3.1864676827	 4.4707150874	-0.9609475061	 0.112131
58.6174	81.6825	108.2473	202.6452	307.4691	362.409	400.3976	507.745	521.1943	599.423	695.9195	709.5912	768.1036	802.1185	893.7577	904.2333	929.6087	966.9999	985.232	987.3212	1019.3775	1036.3272	1095.0355	1106.471	1121.3527	1159.3687	1204.168	1217.1298	1235.879	1245.5482	1283.7835	1313.7415	1332.2148	1393.256	1464.9307	1468.6811	1479.0576	1513.0993	2363.5266	3047.3571	3056.4834	3060.1649	3068.5736	3085.5875	3105.4402	3132.6966	3144.4825	3150.2179
N#CCCC12CC(C1)O2	N#CCC[C@@]12C[C@@H](C1)O2	
InChI=1S/C7H9NO/c8-3-1-2-7-4-6(5-7)9-7/h6H,1-2,4-5H2	InChI=1S/C7H9NO/c8-3-1-2-7-4-6(5-7)9-7/h6H,1-2,4-5H2/t6-,7+
