18
gdb 51083	3.56479	1.32005	1.18152	3.5372	77.28	-0.2278	0.0126	0.2403	1081.3375	0.148889	-401.938638	-401.930976	-401.930032	-401.971681	29.982	
O	-0.2063018784	 0.0134144408	 0.0251996829	-0.322866
C	-0.0526906469	 1.2147119272	-0.027994591	 0.13152
N	 1.1499909297	 1.8529752127	-0.0267804409	-0.426362
C	 2.417730816	 1.1780700146	-0.0517927018	 0.386556
C	 3.0559582744	 0.5505286728	-1.3495124761	-0.241921
C	 4.3382882831	 0.6405506546	-0.4536644558	-0.073033
C	 3.7432706396	 1.9914737608	 0.0771284995	-0.274378
C	 3.9425781038	-0.3026804131	 0.6932490538	-0.097044
C	 2.6829836336	 0.0460159392	 0.9586568453	-0.089965
H	-0.8968543187	 1.9327424383	-0.0720736992	 0.073777
H	 1.1480081029	 2.8519081762	-0.1620082148	 0.244991
H	 2.7079115159	-0.4406781582	-1.6420726706	 0.113996
H	 3.063222441	 1.2406243557	-2.1998049706	 0.088361
H	 5.3418269684	 0.5797238538	-0.8690002323	 0.069402
H	 3.8195623701	 2.8110830202	-0.6469155105	 0.089781
H	 4.0356259821	 2.3174248175	 1.0778182938	 0.100886
H	 4.5615870806	-1.0673446059	 1.1395516958	 0.102789
H	 1.9643683129	-0.3397559873	 1.6637219227	 0.123512
26.3173	143.8122	197.4911	313.119	377.163	462.3216	509.2401	537.1965	548.9057	575.1524	696.2587	719.9044	813.6218	836.1342	851.511	900.3171	906.5078	942.3458	950.3071	1008.341	1031.5845	1033.0044	1054.4518	1073.9459	1095.9034	1156.2239	1167.4799	1180.4854	1218.4947	1230.3248	1258.0231	1282.0808	1346.3069	1432.8242	1476.7289	1509.2057	1515.8822	1632.0466	1805.077	2925.6636	3033.7338	3052.1971	3116.0761	3138.0806	3141.6667	3232.7672	3272.7337	3625.9748
O=CNC12CC(C1)C=C2	O=CN[C@@]12C[C@@H](C1)C=C2	
InChI=1S/C7H9NO/c9-5-8-7-2-1-6(3-7)4-7/h1-2,5-6H,3-4H2,(H,8,9)	InChI=1S/C7H9NO/c9-5-8-7-2-1-6(3-7)4-7/h1-2,5-6H,3-4H2,(H,8,9)/t6-,7-
