18
gdb 119302	2.16718	1.28719	0.94607	3.719	72.97	-0.2697	0.0211	0.2908	1285.9954	0.146413	-439.057943	-439.048538	-439.047593	-439.092981	32.603	
C	-0.0589605458	 1.35624445	 0.1453298589	-0.230441
O	-0.0291113998	-0.0545409534	 0.1770790643	-0.235793
C	-1.2669788419	-0.6420761094	-0.1253821509	-0.110858
C	-1.0840265678	-2.1597575694	-0.1085730495	 0.081588
C	-0.8338330455	-2.7218603558	 1.32016583	-0.099755
O	-2.2040350488	-3.1553848832	 1.422364049	-0.266209
C	-2.4291667393	-2.9304013258	 0.0215002295	-0.121452
C	-0.1772029308	-2.6061806102	-1.1565882294	 0.248672
N	 0.522601354	-2.9856907769	-1.9944492777	-0.337965
H	 0.9453047082	 1.7054271159	 0.3931719569	 0.139132
H	-0.3328500089	 1.732234248	-0.8517361683	 0.115323
H	-0.7716549571	 1.7635971787	 0.8787405268	 0.110268
H	-2.0302563187	-0.3737346514	 0.62421955	 0.105499
H	-1.6346198706	-0.3171085224	-1.1125281751	 0.107095
H	-0.1292646439	-3.5604757696	 1.3526084105	 0.123149
H	-0.56553969	-1.9775244339	 2.0746709139	 0.129985
H	-3.3357971377	-2.3460102579	-0.1709261748	 0.117626
H	-2.4618382857	-3.8627773934	-0.5540621643	 0.124136
64.4848	100.7382	108.88	137.228	190.2959	205.4767	242.8567	334.066	377.2204	411.2681	547.394	564.271	675.1199	846.7682	923.4452	940.7836	973.8875	992.0493	1011.4012	1038.9186	1089.0551	1154.7638	1161.0655	1165.3702	1176.951	1205.5215	1230.9133	1257.5845	1304.092	1310.5202	1372.1516	1415.0574	1480.1287	1486.6838	1500.7362	1510.848	1525.5967	1536.4007	2358.2714	2959.1494	2981.6043	2996.9236	3024.4509	3030.382	3039.4165	3077.5842	3102.1294	3127.772
COCC1(COC1)C#N	COCC1(COC1)C#N	
InChI=1S/C6H9NO2/c1-8-3-6(2-7)4-9-5-6/h3-5H2,1H3	InChI=1S/C6H9NO2/c1-8-3-6(2-7)4-9-5-6/h3-5H2,1H3
