21
gdb 114735	2.24898	1.51416	1.13144	0.9657	77.19	-0.2497	0.0818	0.3315	1164.0499	0.18314	-424.217436	-424.208633	-424.207689	-424.250628	34.003	
C	-0.8217255651	 1.2133763726	-0.0784939516	-0.410497
C	 0.0332769219	-0.058081635	-0.0775464694	-0.026695
C	 1.1974426398	-0.0200867297	-1.053676742	 0.048678
O	 2.3366478662	 0.7151524055	-0.5778688255	-0.263341
C	 2.347274668	-0.721590322	-0.4793592337	 0.044676
C	 1.9800571857	-1.2460449716	 0.8921934642	-0.252289
C	 0.6913275658	-0.468481511	 1.2824721661	-0.007572
C	 1.0144533777	 0.7004902243	 2.2161199318	-0.0959
O	 1.5304615152	 0.1400539334	 3.4210686904	-0.426144
H	-0.2235869852	 2.0977644205	 0.1586243117	 0.131408
H	-1.2685065716	 1.3707214012	-1.0660342868	 0.110399
H	-1.63946918	 1.1491000414	 0.646230731	 0.116865
H	-0.6040660956	-0.8941022203	-0.40031192	 0.076837
H	 1.0150108685	 0.0512663588	-2.1242380896	 0.08724
H	 3.0995435704	-1.2174959665	-1.0881143418	 0.089604
H	 1.78747051	-2.322935186	 0.8147036432	 0.097171
H	 2.7670619068	-1.1102756087	 1.6383865024	 0.123251
H	 0.0122325158	-1.1224600197	 1.838691866	 0.07944
H	 1.7447115578	 1.3671787318	 1.7410273164	 0.111241
H	 0.1033292219	 1.2805606202	 2.4239260378	 0.08049
H	 1.8510058362	 0.8615433307	 3.9694103595	 0.285137
101.0378	136.6687	204.6189	215.0624	257.3527	270.3069	296.7359	357.4353	422.3804	463.8292	513.9488	642.1896	741.8899	796.5549	835.0293	859.9235	884.7283	898.4316	963.3325	972.8097	1001.0441	1029.7361	1061.8607	1064.2465	1096.0345	1117.8651	1135.75	1154.3713	1200.4591	1224.7797	1262.4088	1264.7434	1280.2195	1318.4078	1331.846	1340.972	1362.7713	1377.7726	1410.1301	1436.8406	1457.2525	1490.296	1499.0077	1504.8135	1534.278	2989.4762	2999.3676	3035.4597	3036.6667	3045.1001	3064.0108	3097.2661	3101.9447	3114.9935	3130.2132	3147.0983	3835.3096
CC1C2OC2CC1CO	C[C@H]1[C@H]2O[C@H]2C[C@H]1CO	
InChI=1S/C7H12O2/c1-4-5(3-8)2-6-7(4)9-6/h4-8H,2-3H2,1H3	InChI=1S/C7H12O2/c1-4-5(3-8)2-6-7(4)9-6/h4-8H,2-3H2,1H3/t4-,5+,6+,7-/m1/s1
