20
gdb 93763	2.90502	1.29261	0.9284	4.1218	84.62	-0.2222	-0.0422	0.18	1287.9532	0.171017	-403.185527	-403.176477	-403.175533	-403.219148	34.113	
C	 0.0520144026	 1.5645160431	-0.0363668026	-0.405262
C	 0.0582899647	 0.0407761854	-0.0056473979	-0.073819
N	 0.7621712114	-0.5018051126	-1.1675391596	-0.312059
C	 0.7465404863	-1.9539035008	-1.2309502565	-0.254376
C	 1.2748941165	-2.5675259104	 0.0400753834	 0.326594
C	 1.7529176417	-3.9859971657	-0.0463137666	-0.477299
C	 1.2864657054	-1.8557984	 1.1778530593	-0.246558
C	 0.7221661913	-0.5000945463	 1.2693812458	 0.409071
O	 0.7185090371	 0.1306938489	 2.3088718491	-0.344617
H	 1.0728484424	 1.943994321	-0.1362621349	 0.128863
H	-0.5405605972	 1.9341589679	-0.8798975166	 0.10118
H	-0.3723619599	 1.9526817142	 0.8906048556	 0.142151
H	-0.9935832236	-0.3168834128	 0.0452116549	 0.071572
H	 0.3694485107	-0.1127003191	-2.0178743788	 0.221115
H	-0.2638023271	-2.3816112289	-1.4109604504	 0.095807
H	 1.3656703164	-2.2780982072	-2.0767468719	 0.112262
H	 2.6170420933	-4.064729244	-0.7180496432	 0.13838
H	 2.0376077956	-4.3777708454	 0.9325473072	 0.134652
H	 0.9735980327	-4.6351005516	-0.4654583408	 0.134825
H	 1.6743317598	-2.2686186658	 2.1049010948	 0.097519
75.7793	139.3843	185.844	204.4861	215.899	276.3697	308.5342	391.1981	399.9241	448.3737	501.0619	530.2565	635.9619	684.8898	740.2132	804.9987	866.5772	897.6697	964.202	992.025	1026.0754	1041.3376	1073.6856	1098.5366	1131.7947	1164.441	1187.4037	1228.6879	1265.0837	1295.4258	1334.7116	1355.3301	1403.8595	1408.179	1414.0859	1476.2137	1478.5486	1480.9179	1485.3788	1497.3578	1505.7095	1699.6838	1773.3698	2856.9876	2867.1264	3020.8047	3039.1682	3043.1417	3069.0922	3111.5181	3125.675	3147.432	3172.7946	3524.7408
CC1NCC(C)=CC1=O	C[C@H]1NCC(=CC1=O)C	
InChI=1S/C7H11NO/c1-5-3-7(9)6(2)8-4-5/h3,6,8H,4H2,1-2H3	InChI=1S/C7H11NO/c1-5-3-7(9)6(2)8-4-5/h3,6,8H,4H2,1-2H3/t6-/m1/s1
