19
gdb 91367	2.19961	1.98725	1.44365	3.2622	68.84	-0.2392	0.0508	0.29	968.5566	0.161997	-460.167296	-460.159795	-460.158851	-460.199115	30.648	
O	 0.3116572072	 1.3402691042	-0.2912895895	-0.446954
C	 0.0759988822	-0.0189052043	-0.0280702969	 0.157678
C	 0.6444229001	-0.5809565771	 1.3208132838	-0.268989
C	-0.5812318154	-1.3250743857	 1.883091234	 0.089679
C	-1.5931670652	-0.3233379523	 2.4726140119	-0.267602
C	-2.1924013835	 0.2941033669	 1.1722594553	 0.115648
O	-2.0199110625	 1.7037385614	 1.0373075439	-0.439349
C	-1.4060353298	-0.4785100672	 0.079062586	-0.007623
O	-1.2677257092	-1.7647337696	 0.6875129116	-0.265698
H	-0.3150173165	 1.8456825271	 0.2442142667	 0.289308
H	 0.5240932872	-0.5684142241	-0.8610303817	 0.091856
H	 1.4807120646	-1.2626504199	 1.1513807482	 0.104359
H	 0.9917448683	 0.2312497398	 1.9644269783	 0.101602
H	-0.3653552113	-2.189949912	 2.510010321	 0.078216
H	-2.3582762109	-0.8382955811	 3.058353367	 0.105942
H	-1.1280582994	 0.4416906186	 3.1009165935	 0.099266
H	-3.2573892101	 0.0487256497	 1.0836714502	 0.085722
H	-2.4669979919	 2.1409290726	 1.7677920964	 0.294612
H	-1.9260793939	-0.566315647	-0.8742843997	 0.082331
74.3221	251.2257	274.2479	332.0582	345.0847	414.3172	446.4374	505.1111	531.9735	570.0554	580.8298	725.3944	798.599	813.67	830.8544	881.3918	929.7262	939.287	999.787	1010.5526	1029.925	1053.1779	1072.8479	1096.7296	1120.1626	1149.0095	1180.6154	1201.2345	1237.2085	1258.424	1294.0543	1307.8424	1316.0369	1333.5784	1340.8359	1362.185	1367.2624	1422.3121	1475.8394	1482.0382	1496.1549	3024.8544	3059.1035	3060.2799	3068.6907	3108.8992	3114.4361	3122.7751	3129.1464	3736.595	3831.3075
OC1CC2CC(O)C1O2	O[C@H]1C[C@H]2C[C@@H](O)[C@@H]1O2	
InChI=1S/C6H10O3/c7-4-1-3-2-5(8)6(4)9-3/h3-8H,1-2H2	InChI=1S/C6H10O3/c7-4-1-3-2-5(8)6(4)9-3/h3-8H,1-2H2/t3-,4-,5+,6+
