13
gdb 43518	2.67621	1.47738	1.04021	2.4484	66.65	-0.2791	-0.0143	0.2648	1082.1984	0.089242	-452.762918	-452.755157	-452.754213	-452.795788	28.473	
N	-0.0859330449	 1.3085802656	-0.0192572585	-0.518728
C	 0.0271259511	 0.0518402512	 0.0085813353	 0.380058
N	 1.1232428497	-0.7896565143	-0.0041206867	-0.419252
C	 0.7862890916	-2.1404380772	-0.019003554	 0.496005
O	 1.5305143594	-3.0729355025	-0.0472521856	-0.367238
O	-0.5700613392	-2.2307682856	-0.0075629213	-0.232736
C	-1.1672087336	-0.9142110403	 0.048724613	-0.131625
C	-1.9911162489	-0.7681009857	 1.2368859762	 0.365007
C	-2.6774760085	-0.6493751837	 2.2137308791	-0.450965
H	 0.816864026	 1.7828274605	-0.0506521891	 0.224294
H	 2.0872812759	-0.4990364071	-0.022784803	 0.279554
H	-1.7715032252	-0.7831318661	-0.8552098417	 0.159482
H	-3.2846281233	-0.5404459248	 3.0789256962	 0.216144
65.6184	127.3393	140.0197	250.8333	356.0662	427.8526	473.5113	510.0724	562.2868	637.9908	645.0689	667.8828	690.1077	737.6099	765.777	858.7559	896.7949	960.7775	1006.6358	1065.4709	1100.2338	1186.2351	1298.2806	1331.2537	1361.7266	1390.0439	1788.6553	1915.9273	2251.791	3060.2036	3479.7467	3500.9284	3661.0483
N=C1NC(=O)OC1C#C	[NH][C]1NC(=O)O[C@H]1C#C	
InChI=1S/C5H4N2O2/c1-2-3-4(6)7-5(8)9-3/h1,3H,(H2,6,7,8)	InChI=1S/C5H4N2O2/c1-2-3-4(6)7-5(8)9-3/h1,3H,(H2,6,7,8)/t3-/m0/s1
