16
gdb 125226	4.50409	1.04654	0.85438	0.4961	75.19	-0.2396	-0.028	0.2116	1311.6254	0.124797	-434.084178	-434.075597	-434.074653	-434.117781	31.407	
C	 0.0754949347	 1.4692362998	-0.0053054938	-0.491206
C	-0.0887050595	-0.008477416	 0.004961552	 0.448375
C	-1.1522657556	-0.8397579853	-0.1447773068	-0.437752
C	-0.5878112674	-2.1381081196	-0.0226840281	 0.42446
N	 0.7087780377	-2.0860950977	 0.1842449559	-0.225488
O	 1.0322292101	-0.7406587633	 0.2032316154	-0.216939
C	-1.2896222869	-3.4406265925	-0.0917862864	 0.253655
N	-0.4565735169	-4.5329930864	-0.0520993917	-0.554294
N	-2.5648567368	-3.4215802106	-0.2123732545	-0.517368
H	 0.7667245988	 1.7816674739	-0.7948024351	 0.152052
H	-0.8887726306	 1.9508147401	-0.1760631901	 0.146455
H	 0.4801128422	 1.8258589485	 0.9475492462	 0.151706
H	-2.1862482213	-0.5973351441	-0.3151455323	 0.14137
H	 0.4926827817	-4.3799457249	 0.2527582496	 0.272947
H	-0.8609574039	-5.4286036403	 0.1662748028	 0.249027
H	-2.9469440363	-4.3686326417	-0.2505624231	 0.202999
73.7841	91.8932	149.8238	174.2521	301.3113	330.2521	370.5173	394.4636	465.8148	525.709	611.4591	619.0404	644.4753	717.5895	783.8788	855.2788	866.44	953.6135	1010.625	1020.8982	1028.4092	1066.5592	1095.6624	1126.3045	1152.6728	1267.8636	1368.5581	1412.9997	1473.4279	1482.7897	1501.9996	1525.3465	1632.4354	1642.2659	1714.874	3043.8625	3100.4122	3141.9333	3300.3691	3453.2829	3581.2029	3705.3084
CC1=CC(=NO1)C(N)=N	Cc1cc(no1)C(=N)N	
InChI=1S/C5H7N3O/c1-3-2-4(5(6)7)8-9-3/h2H,1H3,(H3,6,7)	InChI=1S/C5H7N3O/c1-3-2-4(5(6)7)8-9-3/h2H,1H3,(H3,6,7)
