23
gdb 60353	3.46203	0.69903	0.66757	1.0881	89.41	-0.2532	0.0573	0.3105	1819.8515	0.201525	-388.262946	-388.251467	-388.250523	-388.300521	41.208	
C	 0.101214385	 1.4828086345	 0.2393633843	-0.393461
C	-0.0259199714	-0.0239404734	-0.004457162	 0.159832
C	-1.4715955475	-0.4459366604	-0.2427575418	-0.387721
O	 0.7071969072	-0.4410081335	-1.1533183913	-0.261015
C	 2.1061113114	-0.5007854435	-0.9926465334	-0.059974
C	 2.6994121954	-1.1254139295	-2.2680748967	-0.160998
C	 2.3969439261	-0.2685515864	-3.5126862152	-0.384105
C	 4.1341234903	-1.3388984148	-2.0948041951	 0.313124
C	 5.3172428224	-1.49025205	-1.9435802601	-0.473177
H	 1.1372945728	 1.7804294636	 0.4232922255	 0.118257
H	-0.267375996	 2.0379245477	-0.6293793944	 0.121807
H	-0.4877484297	 1.7779296643	 1.1135929893	 0.114998
H	 0.36562849	-0.5619257218	 0.8757349033	 0.06503
H	-1.8743105134	 0.063790657	-1.1239067552	 0.122349
H	-1.5315888685	-1.5238138692	-0.4141628907	 0.120306
H	-2.0960696837	-0.1921171689	 0.6188300598	 0.112496
H	 2.5461797983	 0.4967721544	-0.8404484374	 0.096524
H	 2.3708881109	-1.1166536708	-0.1189063879	 0.094939
H	 2.212317292	-2.1014635484	-2.3949549467	 0.112575
H	 1.3192838257	-0.1180329897	-3.6007945398	 0.133246
H	 2.8821532176	 0.7092273418	-3.4316300268	 0.120205
H	 2.7666345429	-0.7563883072	-4.4179844699	 0.121182
H	 6.3610435024	-1.6370398958	-1.8162223777	 0.193581
28.0876	58.2397	99.399	141.138	181.4092	205.9945	218.1183	238.0839	270.8194	287.8381	344.3238	409.5919	436.4245	488.0761	531.6849	561.4734	626.4031	642.055	807.9343	854.6368	925.8137	932.7043	937.1431	942.7804	949.5246	1086.2614	1114.0458	1121.7595	1151.9724	1167.7194	1174.0087	1201.4987	1263.082	1305.9415	1344.9522	1363.9228	1370.3473	1394.7046	1398.5838	1414.1172	1431.2652	1480.8375	1484.8245	1492.9454	1495.5075	1499.8809	1508.324	1522.1751	2235.5739	2956.2671	2974.5571	3005.2078	3026.3634	3037.6379	3043.0426	3047.176	3108.0949	3113.5276	3116.7549	3118.2134	3123.1777	3140.5791	3504.8393
CC(C)OCC(C)C#C	CC(C)OC[C@@H](C)C#C	
InChI=1S/C8H14O/c1-5-8(4)6-9-7(2)3/h1,7-8H,6H2,2-4H3	InChI=1S/C8H14O/c1-5-8(4)6-9-7(2)3/h1,7-8H,6H2,2-4H3/t8-/m0/s1
