20
gdb 5881	3.91442	0.87561	0.85492	1.2816	81.01	-0.2406	0.0369	0.2775	1470.3465	0.173578	-348.978277	-348.967804	-348.96686	-349.014457	36.963	
C	-0.0049355589	 1.5304348664	-0.0070806334	-0.390555
C	 0.0026442519	-0.0154179708	 0.0002714099	 0.076632
C	 0.7499610403	-0.5248819622	 1.2534131171	-0.390317
C	-1.4503968273	-0.541538908	 0.0119477296	-0.390331
C	 0.6868050413	-0.4991721549	-1.2054009832	 0.14829
C	 1.2473962029	-0.9023195197	-2.1921535397	 0.008065
C	 1.9290396797	-1.3678468366	-3.3932048969	-0.214464
O	 1.968956454	-2.7913593742	-3.4026298576	-0.409751
H	 1.0143003783	 1.927117996	-0.0166769898	 0.119057
H	-0.5279466479	 1.9153178068	-0.8871982005	 0.119024
H	-0.51269725	 1.9076329115	 0.8872521185	 0.109778
H	 0.2498915325	-0.1692150453	 2.1608673423	 0.107939
H	 0.7711234317	-1.6179551609	 1.2770056325	 0.123811
H	 1.7827851389	-0.1654968474	 1.2655019081	 0.118951
H	-1.9991559963	-0.1927764586	-0.8674019474	 0.118844
H	-1.4688987695	-1.6348971752	 0.0116579701	 0.123761
H	-1.9723391699	-0.1873528406	 0.9075901654	 0.107948
H	 1.4019453481	-0.9808727994	-4.2809918848	 0.112842
H	 2.9462369386	-0.9432056772	-3.419114168	 0.112844
H	 2.4293065118	-3.0582187496	-4.2049348223	 0.287631
21.3426	85.5959	111.0345	197.6305	215.7796	227.4206	270.0987	273.733	286.6576	331.1216	357.0575	362.3547	503.8134	545.599	571.6885	659.0479	831.2723	931.7992	933.3759	964.1701	1024.9941	1028.6636	1049.4694	1050.5752	1084.9673	1222.5954	1223.7427	1247.024	1250.7082	1295.0007	1395.3543	1395.7209	1428.6173	1459.5741	1473.9884	1485.1603	1485.6362	1498.1328	1498.1981	1504.9527	1518.3395	2365.1527	2959.3986	2976.2289	3031.6779	3032.1908	3038.6573	3103.5883	3104.4253	3110.5176	3113.9711	3118.111	3119.6789	3816.1679
CC(C)(C)C#CCO	CC(C)(C)C#CCO	
InChI=1S/C7H12O/c1-7(2,3)5-4-6-8/h8H,6H2,1-3H3	InChI=1S/C7H12O/c1-7(2,3)5-4-6-8/h8H,6H2,1-3H3
