17
gdb 80432	3.48828	1.26262	1.12489	2.0238	68.39	-0.241	-0.0369	0.2041	1095.3832	0.13319	-458.919619	-458.911022	-458.910077	-458.952932	32.234	
C	-0.0301623325	 1.7074223578	 0.0140925358	-0.471523
C	 0.099383385	 0.1992516942	 0.0397608725	 0.281269
O	 1.2047545394	-0.3506923481	-0.7668030559	-0.345345
C	 1.6124186335	-1.1974957515	 0.3197289018	 0.01071
C	 2.1354721795	-0.3379675404	 1.4082222202	 0.121334
O	 2.8147542186	 0.846558806	 1.1517440364	-0.430206
C	 0.6270582419	-0.529231489	 1.2839727571	-0.223196
C	-1.1716116854	-0.5042001251	-0.4362675674	 0.149929
O	-2.2738483163	-0.0292063587	-0.3724561934	-0.248394
H	 0.815484017	 2.184652965	 0.5080332117	 0.140469
H	-0.100387617	 2.0598493837	-1.0199688181	 0.13229
H	-0.9554635254	 1.9900863312	 0.5224663554	 0.148172
H	 1.8654883437	-2.2256887276	 0.0881498509	 0.111468
H	 2.5482184293	-0.8680525258	 2.262533899	 0.119734
H	 2.771355863	 0.9788926951	 0.1949350278	 0.297916
H	 0.0135073671	-0.9353059666	 2.0775187468	 0.114253
H	-0.9835877313	-1.5220728402	-0.8421919906	 0.09112
60.0476	152.3094	181.3947	198.6478	263.4582	287.7414	345.1881	393.4095	445.5809	504.0496	583.851	671.9599	719.4173	731.6905	805.854	841.2969	901.603	940.6671	965.8122	989.5499	1021.3485	1042.3974	1054.1479	1066.5278	1126.6867	1160.1153	1208.0851	1247.6664	1270.8399	1321.6226	1352.6988	1392.4435	1412.6151	1453.209	1483.836	1496.6502	1834.8787	2901.7019	3053.2425	3124.0004	3155.4504	3161.1109	3179.2383	3201.815	3757.9234
CC1(OC2C(O)C12)C=O	C[C@]1(O[C@H]2[C@@H](O)[C@@H]12)C=O	
InChI=1S/C6H8O3/c1-6(2-7)3-4(8)5(3)9-6/h2-5,8H,1H3	InChI=1S/C6H8O3/c1-6(2-7)3-4(8)5(3)9-6/h2-5,8H,1H3/t3-,4+,5-,6+/m1/s1
