18
gdb 38475	3.54721	1.76385	1.59184	1.635	75.22	-0.2172	0.0752	0.2924	893.7072	0.149708	-401.832746	-401.826458	-401.825514	-401.862895	27.287	
C	 0.0484833787	 1.4640793836	-0.2362667463	-0.240684
C	 1.2954645575	 0.7006030559	 0.0284117813	-0.017833
C	 1.8681330633	 0.642442688	 1.4675889708	-0.382331
C	 0.6649253716	 0.1461562403	 2.2327587921	 0.388222
C	 0.0484274809	-0.6639596501	 3.401504429	-0.303913
C	-1.0951181975	-0.1145497431	 2.4756724286	 0.007171
O	-0.4038563544	 1.1787037347	 2.4724876472	-0.336048
C	-0.2506825038	-0.5791817597	 1.2443182613	 0.047509
N	-0.0344964092	-0.0012523235	-0.0793434365	-0.161677
H	-0.3419010047	 2.1043543426	 0.5412632643	 0.150849
H	-0.1537140067	 1.7828937007	-1.2563517679	 0.10741
H	 1.9938428772	 0.515470114	-0.7827746699	 0.092371
H	 2.6925036813	-0.0761177196	 1.5183399899	 0.118582
H	 2.2298011835	 1.6110827576	 1.8223980781	 0.128623
H	 0.2328675381	-1.7405189212	 3.4365505309	 0.103999
H	 0.0858070134	-0.1848089971	 4.3792381254	 0.116257
H	-2.1706630293	-0.1149765598	 2.6537589625	 0.09963
H	-0.1309820699	-1.6631472435	 1.165473119	 0.081865
239.4931	274.7288	352.4856	401.0089	446.1035	511.0099	607.9002	677.7334	708.6818	744.2963	776.2923	797.3034	810.9973	874.9092	889.6059	906.5984	939.5413	972.0816	996.3034	1025.6413	1055.746	1085.6422	1101.1389	1115.8686	1128.0129	1143.1987	1156.9855	1185.4195	1191.7317	1202.5778	1242.4311	1268.8136	1282.2609	1303.7118	1373.6899	1386.6015	1465.5176	1485.0252	1492.0733	3057.702	3063.6162	3075.5531	3109.1723	3114.2039	3117.4792	3149.2535	3159.8888	3248.252
C1C2CC34CC(O3)C4N12	C1[C@H]2C[C@@]34C[C@@H](O3)[C@H]4N12	
InChI=1S/C7H9NO/c1-4-3-8(4)6-5-2-7(1,6)9-5/h4-6H,1-3H2	InChI=1S/C7H9NO/c1-4-3-8(4)6-5-2-7(1,6)9-5/h4-6H,1-3H2/t4-,5-,6-,7+,8?/m1/s1
