19
gdb 119506	3.93191	1.03278	0.94078	1.5632	75.75	-0.2277	0.0621	0.2898	1316.4159	0.157477	-422.931455	-422.922906	-422.921962	-422.96527	32.046	
C	-0.1231285356	 1.4478222437	-0.1102168166	-0.220274
O	 0.0127850043	 0.0462924072	-0.0944992132	-0.237087
C	-1.2122910592	-0.6184224822	 0.1276561716	-0.192668
C	-0.9710340882	-2.0884141669	 0.0291896179	 0.415585
O	-1.9594926829	-2.9684501201	 0.5841418726	-0.295368
C	-0.5869573794	-3.1125832251	 0.9947495732	-0.056333
C	 0.200555782	-3.8971662517	-0.1008355512	-0.083977
C	-0.6796087212	-4.2496950728	-1.2712941749	-0.291156
C	-0.2004804583	-2.8319419102	-1.1128031013	-0.125054
H	 0.8672053573	 1.8692398116	-0.2976430211	 0.129331
H	-0.809813019	 1.7825434316	-0.9038409092	 0.106532
H	-0.4978062352	 1.8327645904	 0.8513145396	 0.106501
H	-1.6294705488	-0.3827784027	 1.1199617861	 0.101568
H	-1.9599504735	-0.3100593393	-0.6251002096	 0.09479
H	-0.3770960522	-3.0669667134	 2.0567471953	 0.106163
H	 1.1789695055	-4.3271029439	 0.0643873732	 0.094209
H	-0.1831785963	-4.8104962919	-2.0569775924	 0.110703
H	-1.7219670332	-4.4965406006	-1.1141726292	 0.134512
H	 0.4295940537	-2.3184457237	-1.8251245408	 0.102024
67.3312	82.1654	115.7576	222.268	258.8778	329.7309	362.6686	412.1017	496.7714	594.4866	657.3761	733.6128	756.7988	813.9224	846.1601	882.6774	917.3045	933.4805	985.6484	992.8006	1014.0063	1049.211	1055.4326	1066.0427	1101.5687	1146.4687	1169.0979	1172.6649	1190.5118	1226.3619	1238.2461	1269.3774	1283.5047	1308.8319	1397.6478	1459.1897	1478.0337	1485.3648	1497.5412	1504.9178	1520.9537	2944.1076	2971.7961	2992.1835	3016.0604	3117.2835	3139.4816	3188.3494	3207.1814	3218.9358	3232.1555
COCC12OC1C1CC21	COC[C@]12O[C@H]1[C@H]1C[C@@H]21	
InChI=1S/C7H10O2/c1-8-3-7-5-2-4(5)6(7)9-7/h4-6H,2-3H2,1H3	InChI=1S/C7H10O2/c1-8-3-7-5-2-4(5)6(7)9-7/h4-6H,2-3H2,1H3/t4-,5+,6-,7+/m0/s1
