18
gdb 46571	3.10232	1.68281	1.33933	3.7994	76.3	-0.2329	0.028	0.2609	976.2402	0.150865	-401.916691	-401.909935	-401.908991	-401.947618	27.972	
O	-0.1719758755	-0.0947815961	-0.1743889921	-0.376945
C	-0.0354138858	 1.0973401038	-0.0193062576	 0.347543
N	-1.0797606074	 2.0128199399	 0.0465580176	-0.303347
C	-0.7437010247	 3.415062938	 0.345785818	-0.298223
C	 0.6906934773	 3.2059565953	 0.7921352819	 0.319233
C	 2.1403367495	 3.7677399538	 0.7739704144	-0.311223
C	 2.2560428607	 2.2421521233	 1.1707890076	-0.075247
C	 1.062725875	 2.4798467889	 2.1261979077	-0.252243
C	 1.2186041681	 1.9727073148	 0.034477955	-0.104732
H	-2.0293792762	 1.6845776744	-0.0356437794	 0.248593
H	-0.8285673955	 4.0535709092	-0.5443454028	 0.112933
H	-1.3975893358	 3.8198682317	 1.1261412573	 0.11481
H	 2.544012646	 4.0525248844	-0.2010870302	 0.099818
H	 2.4107439568	 4.488243669	 1.5504370214	 0.097781
H	 3.1758462721	 1.6962518058	 1.3792260922	 0.0843
H	 1.2450363512	 3.1250330987	 2.9894566643	 0.090558
H	 0.4706433334	 1.6041875669	 2.3995926535	 0.116696
H	 1.5860795506	 2.1505011782	-0.9828701485	 0.089695
134.2824	228.1208	290.0394	348.5428	472.8178	493.2301	569.1953	576.8035	614.8531	650.4793	749.8818	781.7549	846.0427	888.8985	901.0507	931.9033	972.3393	1004.6486	1005.5537	1024.5194	1044.3987	1050.7111	1103.3081	1135.1324	1148.778	1158.2902	1193.4789	1202.5513	1219.393	1220.0859	1249.5563	1303.4343	1322.1399	1351.6728	1428.2314	1500.006	1515.9012	1541.3723	1825.1803	3006.5487	3042.5042	3052.4856	3059.6879	3060.7085	3117.1061	3120.9853	3127.1058	3636.372
O=C1NCC23CC(C2)C13	O=C1NC[C@@]23C[C@@H](C2)[C@@H]13	
InChI=1S/C7H9NO/c9-6-5-4-1-7(5,2-4)3-8-6/h4-5H,1-3H2,(H,8,9)	InChI=1S/C7H9NO/c9-6-5-4-1-7(5,2-4)3-8-6/h4-5H,1-3H2,(H,8,9)/t4-,5-,7+/m0/s1
