23
gdb 100143	3.69333	0.66715	0.66091	3.0863	83.31	-0.2482	-0.0186	0.2296	1781.0204	0.201709	-425.438021	-425.426561	-425.425616	-425.475314	40.693	
C	-0.1952537647	 1.5763104209	 0.0581113979	-0.41326
C	-0.0028387622	 0.0489889469	 0.0683147472	 0.25549
C	 0.7613981525	-0.380893638	 1.3339999512	-0.411616
C	-1.3865007349	-0.6283204556	 0.0653646999	-0.085299
O	-2.1112138382	-0.2197889127	 1.2160143248	-0.426201
C	 0.722105899	-0.4327433779	-1.2121822925	-0.220517
C	 2.1587734597	 0.0858842052	-1.4075603758	-0.2918
C	 2.7051401097	-0.3279088511	-2.7543641635	 0.163623
O	 3.7107358592	-0.965821481	-2.930191028	-0.238596
H	 0.7585262299	 2.1063116263	 0.1398035524	 0.10937
H	-0.6875917165	 1.9066921942	-0.864152986	 0.102912
H	-0.8216998315	 1.8814025003	 0.8991890525	 0.137266
H	 0.1696096781	-0.1588506204	 2.2247416411	 0.134905
H	 0.9648666738	-1.4580261169	 1.3243028794	 0.105938
H	 1.7187825141	 0.1406612064	 1.4242200988	 0.111036
H	-1.9245420742	-0.3501305972	-0.8556447218	 0.081171
H	-1.2531562769	-1.7221260681	 0.0540987453	 0.083278
H	-2.9644037543	-0.6620193486	 1.208830028	 0.289418
H	 0.7490364732	-1.5304808558	-1.2114733868	 0.105202
H	 0.121634953	-0.1405113394	-2.0851983911	 0.095034
H	 2.1629311996	 1.1843189547	-1.3813910208	 0.120178
H	 2.8383219163	-0.278861895	-0.6338677542	 0.125241
H	 2.0828450051	 0.0060764329	-3.619516388	 0.067226
51.8861	57.1162	95.7074	125.9032	154.1543	221.7793	230.5916	248.3824	271.6972	287.8263	327.3181	356.788	399.1057	411.1733	529.0033	577.1567	746.5206	769.7771	850.7459	898.9966	932.2084	960.7451	980.1288	1002.0353	1020.6297	1064.8308	1095.1355	1100.9448	1185.8154	1196.4149	1216.3825	1235.1719	1272.5951	1290.9183	1304.1225	1353.5196	1381.7146	1397.522	1412.0957	1430.1669	1455.8452	1465.606	1481.8994	1488.8184	1497.6666	1500.0919	1514.102	1521.6092	1836.9714	2842.1497	2957.34	2990.2614	3003.7019	3024.5505	3029.917	3035.7669	3044.5851	3094.9593	3099.3463	3114.0755	3126.1153	3129.55	3840.2451
CC(C)(CO)CCC=O	CC(C)(CO)CCC=O	
InChI=1S/C7H14O2/c1-7(2,6-9)4-3-5-8/h5,9H,3-4,6H2,1-2H3	InChI=1S/C7H14O2/c1-7(2,6-9)4-3-5-8/h5,9H,3-4,6H2,1-2H3
