20
gdb 76830	2.35112	1.6069	1.30537	3.6945	78.31	-0.241	0.0295	0.2705	1076.3107	0.171384	-403.163599	-403.154928	-403.153984	-403.196763	33.305	
C	-0.5338709939	 1.5465024945	-0.3386771841	-0.41646
C	-0.1798134198	 0.0705568222	-0.2188142145	 0.001261
C	 1.0273596146	-0.5175965776	-1.0436528485	-0.002533
C	 1.8476339467	 0.3876549692	-1.9551143814	-0.409202
C	 1.6831682634	-1.0223198032	 0.2864932079	-0.210935
C	 0.4920123463	-0.4191265389	 1.1006735036	 0.000354
N	 1.4594312584	 0.4937219105	 1.7127666411	-0.319605
C	 2.5483805619	 0.0479361511	 0.9845992148	 0.424869
O	 3.6895652519	 0.4206529915	 0.9258225074	-0.36849
H	 0.3219278563	 2.191861171	-0.1204764662	 0.118946
H	-0.8795156859	 1.7871043592	-1.3492174149	 0.122268
H	-1.3391936867	 1.8109518461	 0.3562742765	 0.113657
H	-1.0768428275	-0.5284208694	-0.4068060924	 0.075665
H	 0.684243776	-1.3794840904	-1.6233331106	 0.08039
H	 2.2523646146	 1.2554471069	-1.4276560246	 0.133893
H	 2.6978674168	-0.1600518599	-2.3745056222	 0.125077
H	 1.2399104349	 0.7510174921	-2.7908069486	 0.111136
H	 2.0116615781	-2.0579714677	 0.3482986847	 0.093035
H	-0.111106641	-0.9846644699	 1.8124608904	 0.082142
H	 1.3251816649	 1.3778755529	 2.1844997816	 0.244533
70.5895	143.7813	209.1264	218.0132	234.4156	254.2616	351.8176	429.9111	459.4402	516.5154	537.1554	632.7222	730.753	742.925	782.9535	860.3152	867.7401	893.2948	938.5162	975.6052	1013.215	1033.242	1072.6717	1092.0224	1138.3862	1149.3358	1165.3959	1174.935	1196.7024	1223.7255	1273.4803	1303.7567	1337.7171	1356.1887	1364.0085	1370.4475	1410.6208	1419.1997	1489.1425	1490.5812	1502.2893	1505.8535	1882.5206	3031.3813	3037.2189	3041.1509	3059.7573	3094.0172	3097.4245	3099.9367	3109.2991	3119.2204	3138.1339	3585.8574
CC1C(C)C2C1NC2=O	C[C@H]1[C@@H](C)[C@@H]2[C@H]1NC2=O	
InChI=1S/C7H11NO/c1-3-4(2)6-5(3)7(9)8-6/h3-6H,1-2H3,(H,8,9)	InChI=1S/C7H11NO/c1-3-4(2)6-5(3)7(9)8-6/h3-6H,1-2H3,(H,8,9)/t3-,4+,5-,6+/m1/s1
