13
gdb 133381	3.14154	1.42527	0.98136	3.7801	67.32	-0.2253	-0.0649	0.1605	1086.0842	0.088735	-494.010366	-494.002803	-494.001859	-494.042469	28.732	
N	 0.0328227518	 1.3683703125	 0.1953071131	-0.560578
C	-0.0174927953	 0.0104015256	-0.0260053219	 0.296407
N	-1.1643905054	-0.5611497355	-0.1972823436	-0.176139
O	-1.1591035402	-1.9244963687	-0.5273740136	-0.294634
C	-0.0125911205	-2.6906912127	-0.6342408415	 0.424908
N	-0.0791704908	-3.9250426487	-0.9261275613	-0.534819
C	 1.2521076527	-2.0179736799	-0.3950993101	-0.300287
C	 1.23883705	-0.7168921265	-0.1071090511	 0.285158
F	 2.3424860364	-0.0130473668	 0.1373788546	-0.063185
H	 0.8163390898	 1.6938170715	 0.7400864288	 0.268448
H	-0.8543571023	 1.7846386114	 0.4391121247	 0.27127
H	-1.0506062782	-4.212696096	-1.052396826	 0.229147
H	 2.160109612	-2.6011400062	-0.4606709222	 0.154305
86.6478	193.4962	275.3714	309.1953	348.8952	363.9845	417.6591	443.7075	528.9666	565.6102	590.0314	669.6272	718.9289	737.2826	803.5546	847.5763	887.5483	918.1344	964.1058	1096.976	1160.7342	1218.9728	1274.6331	1339.0207	1479.7794	1617.6297	1642.2039	1707.6544	1749.5119	3241.1671	3485.4744	3575.5712	3690.4975
NC1=NOC(=N)C=C1F	NC1=NOC(=C[C]1F)[NH]	
InChI=1S/C4H4FN3O/c5-2-1-3(6)9-8-4(2)7/h1,6H,(H2,7,8)	InChI=1S/C4H4FN3O/c5-2-1-3(6)9-8-4(2)7/h1,6H,(H2,7,8)
