17
gdb 36108	3.64841	1.14525	1.03767	4.6809	75.84	-0.2227	0.0298	0.2525	1167.6131	0.136516	-380.795337	-380.787665	-380.786721	-380.827996	29.758	
N	-0.1506876908	-1.1359933591	 0.243643713	-0.30728
C	-0.0987025924	 0.0089295795	 0.0968052395	 0.264592
C	-0.012225858	 1.4597839647	-0.1036135292	-0.455438
C	 1.4080769987	 1.965919828	-0.0850237158	 0.364443
C	 2.1427545521	 2.4039610038	 1.1518832718	-0.327699
C	 1.9005233352	 3.4007375202	 0.0433145373	-0.138155
C	 2.837891795	 3.1655186656	-1.178368253	-0.049828
N	 3.763078922	 2.049263115	-0.8610126279	-0.332284
C	 2.3747205248	 1.7702055993	-1.2982535702	-0.116953
H	-0.4992196905	 1.6996387763	-1.0580148577	 0.14937
H	-0.5976647501	 1.9547947482	 0.679369298	 0.152972
H	 1.5105841059	 2.5460553224	 2.0235970347	 0.110782
H	 3.140680537	 2.0402238393	 1.3573049141	 0.15223
H	 1.314244252	 4.3003836163	 0.180007976	 0.095178
H	 3.0740857024	 3.896066767	-1.9404417805	 0.099898
H	 4.3652584942	 1.9148476347	-1.6725459206	 0.234979
H	 2.1645195725	 1.1626537788	-2.1690984996	 0.103194
58.197	104.074	240.0899	283.8695	391.7855	406.8829	435.497	448.8061	577.483	688.4731	737.6697	791.2963	826.4293	843.2266	861.1614	897.3906	913.5389	924.0758	947.8523	979.1984	985.9627	1023.6938	1054.4381	1103.4273	1105.5034	1120.9069	1174.1175	1221.044	1258.0852	1276.9151	1318.0463	1332.4608	1353.7426	1396.4822	1454.0287	1474.6803	2360.858	3025.4858	3072.2107	3138.5778	3191.7187	3196.7879	3208.8672	3237.8613	3480.6266
N#CCC12CC1C1NC21	N#CC[C@]12C[C@H]1[C@H]1N[C@@H]21	
InChI=1S/C7H8N2/c8-2-1-7-3-4(7)5-6(7)9-5/h4-6,9H,1,3H2	InChI=1S/C7H8N2/c8-2-1-7-3-4(7)5-6(7)9-5/h4-6,9H,1,3H2/t4-,5+,6+,7-/m0/s1
