20
gdb 107252	2.48716	1.57714	1.18381	3.353	78.62	-0.2132	0.0624	0.2757	1127.9072	0.168841	-403.058556	-403.049634	-403.04869	-403.091964	34.279	
C	 0.240965604	 1.1599329724	 0.4592435223	-0.379415
C	 1.2537971289	 1.4154487794	-0.6664189453	-0.3109
C	 1.3513575907	 0.2669216984	-1.6210903269	 0.424584
O	 1.9966358483	-0.9349759957	-1.1880878269	-0.266906
C	 2.4456940193	-0.3189404545	-2.3974950738	-0.08143
C	 1.4584999792	-0.6874365654	-3.5561638692	-0.165145
N	 0.4006144698	-1.5656983379	-2.9895632838	-0.352663
C	 0.3334269321	-0.0988523527	-2.7942729496	 0.262677
C	-0.8298113926	 0.7381564236	-3.2246850302	-0.516144
H	-0.7681857756	 1.009814394	 0.0621579617	 0.119518
H	 0.5143471358	 0.2640096094	 1.023566546	 0.140508
H	 0.2064488101	 2.0059194941	 1.1519314723	 0.112655
H	 0.9815806813	 2.3230331483	-1.2198042036	 0.100362
H	 2.2482510024	 1.590303599	-0.240762411	 0.112759
H	 3.4946315692	-0.0586988016	-2.48060743	 0.104142
H	 1.6748758336	-0.6564626023	-4.6162696504	 0.09392
H	-0.2326996469	-1.7797221332	-3.7621932346	 0.223326
H	-1.681388469	 0.623538757	-2.5435541064	 0.132275
H	-0.5675101482	 1.8015010457	-3.2530176967	 0.126479
H	-1.1640457625	 0.4533974521	-4.2285289039	 0.1194
76.2316	125.8348	183.1227	209.0209	226.7103	255.5265	368.1095	379.1376	443.1766	463.1016	576.3163	611.0101	704.8743	749.0487	789.9485	819.2741	844.433	860.9111	915.2839	933.5973	961.9431	997.0801	1003.7884	1031.7056	1060.1261	1096.6676	1109.1532	1122.2256	1174.6643	1222.4614	1270.3759	1295.002	1327.3235	1345.648	1403.6828	1407.6932	1431.5303	1461.0563	1475.9745	1483.8429	1496.6119	1496.7354	1509.0436	3020.6243	3028.8013	3040.6743	3068.726	3082.0724	3091.8183	3109.0237	3121.0033	3181.1267	3199.2514	3450.6699
CCC12OC1C1NC21C	CC[C@]12O[C@H]1[C@H]1N[C@@]21C	
InChI=1S/C7H11NO/c1-3-7-5(9-7)4-6(7,2)8-4/h4-5,8H,3H2,1-2H3	InChI=1S/C7H11NO/c1-3-7-5(9-7)4-6(7,2)8-4/h4-5,8H,3H2,1-2H3/t4-,5+,6-,7+/m1/s1
