18
gdb 115225	4.23972	1.0265	0.86231	3.1857	69.54	-0.2394	0.0256	0.265	1314.653	0.148226	-476.248509	-476.239754	-476.23881	-476.282346	31.701	
C	 0.0046853849	 1.3817440625	-0.0320173094	-0.245817
O	 0.0757131821	-0.0368354076	-0.0208156669	-0.237253
C	 0.7037033866	-0.5622911691	 1.0891142224	 0.221089
C	 0.5602028576	-2.0787368856	 1.0323447806	-0.180436
N	 1.4051537916	-2.6773364137	 2.0539359066	-0.326662
C	 2.4906416525	-2.092841684	 2.6369107889	 0.382642
O	 3.1917164772	-2.6547267274	 3.4562779993	-0.372416
C	 2.74922429	-0.6404677798	 2.2338812454	-0.194093
O	 2.0795911452	-0.2242180781	 1.0583663428	-0.260842
H	 1.0026282207	 1.8302871676	-0.0621615135	 0.13679
H	-0.5494194659	 1.6598172619	-0.9301333367	 0.133691
H	-0.5311922709	 1.7570264192	 0.8521027748	 0.11008
H	 0.261461474	-0.164955517	 2.0261249347	 0.059125
H	-0.4842259563	-2.3570354513	 1.2053886307	 0.121386
H	 0.8405175564	-2.4045357611	 0.0225500031	 0.12962
H	 1.2599080398	-3.6440830302	 2.3062301083	 0.252547
H	 2.4787042738	-0.0080357713	 3.0956437322	 0.122256
H	 3.8202257708	-0.5242425649	 2.0592328669	 0.148294
75.7397	109.5163	158.7615	168.8031	188.1683	286.732	374.3434	414.5901	460.0185	508.7412	533.36	572.7913	641.1695	728.0117	810.5796	903.0669	1011.7425	1036.3856	1050.3869	1101.3662	1117.7775	1125.9106	1179.7455	1181.9603	1232.7002	1254.9319	1270.7137	1312.3511	1360.6287	1384.5646	1407.8191	1415.2179	1469.7483	1479.4639	1484.8774	1488.7482	1511.9015	1517.6709	1799.9926	2892.3504	2979.3758	3001.1876	3025.9525	3079.9933	3083.6078	3121.9301	3137.18	3611.0601
COC1CNC(=O)CO1	CO[C@H]1CNC(=O)CO1	
InChI=1S/C5H9NO3/c1-8-5-2-6-4(7)3-9-5/h5H,2-3H2,1H3,(H,6,7)	InChI=1S/C5H9NO3/c1-8-5-2-6-4(7)3-9-5/h5H,2-3H2,1H3,(H,6,7)/t5-/m1/s1
