20
gdb 97712	5.05897	0.68508	0.66935	2.2953	91.11	-0.237	0.0403	0.2773	1777.7416	0.171584	-365.911373	-365.902529	-365.901585	-365.946397	32.796	
C	-0.044085956	 1.5527272935	 0.0529351539	-0.364774
C	 0.0131418958	 0.0155754489	-0.0188528164	-0.336396
C	 0.6886628949	-0.4777896917	-1.213693313	 0.4386
C	 1.2496570821	-0.8700573973	-2.2067101167	-0.519864
C	 1.9178410225	-1.3412160238	-3.3906619167	 0.284995
C	 3.3592172721	-1.0545421666	-3.8974001159	-0.198541
N	 2.8251196699	-1.9827671562	-4.9988448691	-0.167677
C	 2.2365478593	-2.7963882481	-3.8360256499	-0.198279
C	 1.5390758189	-1.1501651784	-4.8861218216	-0.198587
H	 0.9625674254	 1.9792881879	 0.0575693817	 0.129028
H	-0.5798201915	 1.9622359208	-0.8076580775	 0.129021
H	-0.5586734004	 1.8722213329	 0.963955931	 0.115785
H	 0.5219822525	-0.3744819731	 0.872178942	 0.131011
H	-1.0058278204	-0.3912936763	 0.0152038514	 0.131019
H	 3.583665697	-0.0427101857	-4.2449601691	 0.10394
H	 4.1912437264	-1.478854042	-3.3293467637	 0.104146
H	 2.9848388023	-3.3504593536	-3.2632541246	 0.104256
H	 1.3973620333	-3.4342942105	-4.1254508791	 0.104236
H	 0.6476634038	-1.6648186842	-5.2542443885	 0.104143
H	 1.6268921922	-0.1455331565	-5.3080644581	 0.103938
29.486	76.3305	98.0045	191.9184	221.6194	330.3001	393.9561	466.157	499.5355	560.8365	597.0408	599.5152	787.521	792.2204	793.8942	827.1815	925.5676	947.8482	975.2521	988.8947	991.1466	1023.142	1046.9128	1089.2221	1105.2002	1135.0665	1136.0587	1166.7052	1167.3057	1198.7711	1199.6855	1285.0625	1285.9351	1322.1177	1357.402	1410.0972	1474.3401	1495.1627	1505.4868	1510.6256	1511.4578	1563.3669	2354.7916	3019.1718	3045.116	3046.3836	3049.5602	3049.7165	3059.4556	3117.5435	3118.6884	3123.9733	3124.3456	3124.4964
CCC#CC12CN(C1)C2	CCC#C[C@@]12CN(C1)C2	
InChI=1S/C8H11N/c1-2-3-4-8-5-9(6-8)7-8/h2,5-7H2,1H3	InChI=1S/C8H11N/c1-2-3-4-8-5-9(6-8)7-8/h2,5-7H2,1H3
