16
gdb 73773	2.3645	1.66473	0.98876	2.1133	74.35	-0.2616	-0.0791	0.1825	1145.2695	0.123402	-437.986708	-437.977632	-437.976687	-438.021266	31.849	
C	 0.081127132	 1.5201283856	 0.0523096475	-0.494321
C	-0.0286517432	 0.0354230453	-0.0034386028	 0.071493
C	-1.0950784012	-0.780802846	 0.0237150436	 0.071502
C	-2.5544970434	-0.4971740693	 0.1194551385	-0.494319
C	-0.60925084	-2.2038584944	-0.063691071	 0.395805
O	-1.2730443243	-3.2117114726	-0.0676996038	-0.3376
N	 0.7796895594	-2.1304705928	-0.1404167261	-0.417784
C	 1.2150066876	-0.8075962169	-0.1101554626	 0.395807
O	 2.3603752135	-0.4307249928	-0.1602116798	-0.337601
H	 0.691095435	 1.828087634	 0.9085779383	 0.153183
H	 0.5904137971	 1.9011679663	-0.8396236388	 0.153181
H	-0.8967563203	 1.9992944853	 0.1286278012	 0.130786
H	-3.0835712357	-0.9109710558	-0.7459654029	 0.153183
H	-2.9830804515	-0.9840811215	 1.0022561976	 0.153183
H	-2.7595405652	 0.573546796	 0.1760114923	 0.130785
H	 1.3893447801	-2.9292984905	-0.208872811	 0.272716
51.7405	89.5867	130.5822	132.1389	253.8997	257.0166	265.2073	383.5979	465.4544	510.9385	516.5826	644.5095	645.8534	690.3776	746.5051	794.1883	836.4142	958.0068	1040.1472	1062.8442	1067.6596	1122.3502	1157.6743	1330.2009	1332.0982	1348.0272	1415.1174	1417.3717	1470.4525	1471.4385	1477.4256	1481.3215	1728.9614	1819.8004	1859.3055	3040.0288	3040.8576	3091.6124	3091.8745	3132.2744	3135.7136	3660.2365
CC1=C(C)C(=O)NC1=O	CC1=C(C)C(=O)NC1=O	
InChI=1S/C6H7NO2/c1-3-4(2)6(9)7-5(3)8/h1-2H3,(H,7,8,9)	InChI=1S/C6H7NO2/c1-3-4(2)6(9)7-5(3)8/h1-2H3,(H,7,8,9)
