25
gdb 118125	2.00888	1.16929	0.86145	1.0751	90.25	-0.2435	0.0816	0.3251	1508.8171	0.226663	-389.480654	-389.469536	-389.468592	-389.517464	40.517	
C	 0.0777476446	 1.4910590736	-0.0148698061	-0.388805
C	 0.0715296166	-0.0129876692	 0.205901015	-0.0366
O	-1.2237595377	-0.5013577534	-0.0855264326	-0.253617
C	-1.3802156163	-1.91207848	 0.0340431072	 0.118824
C	-1.5284392896	-2.3282758821	 1.5039135813	-0.399925
C	-2.5972990481	-2.353582105	-0.7669557284	-0.012806
C	-3.69336127	-1.38907377	-1.1542928536	-0.290759
C	-2.8402138589	-2.0294913095	-2.2245069572	-0.004382
C	-1.8836031427	-1.2179070127	-3.0714199697	-0.418704
H	 1.065215918	 1.9044032663	 0.2120045731	 0.11381
H	-0.168519637	 1.7327724834	-1.0528877877	 0.127298
H	-0.6583270501	 1.9760161239	 0.6326610934	 0.126747
H	 0.8154370574	-0.5033469192	-0.4440892587	 0.086842
H	 0.3535296384	-0.2398786608	 1.2455069185	 0.090496
H	-0.4815393839	-2.4001941986	-0.3821621177	 0.063
H	-1.6132067455	-3.4164841341	 1.5871943748	 0.112893
H	-0.6661927248	-2.0180041186	 2.1006238454	 0.111787
H	-2.428187805	-1.8762783302	 1.9322737524	 0.125979
H	-2.9280124704	-3.3444159898	-0.4656365719	 0.075913
H	-4.7270683266	-1.698733878	-1.0434280414	 0.099227
H	-3.5063888891	-0.342961611	-0.9413454955	 0.126429
H	-3.3250130279	-2.834693784	-2.7728968726	 0.075125
H	-1.4520789873	-0.3961992475	-2.4984009422	 0.1371
H	-1.0615642762	-1.8385046327	-3.4478526607	 0.105488
H	-2.4006832379	-0.7963305611	-3.9409096152	 0.108641
53.4245	57.3551	86.2635	148.8081	176.3009	213.3762	222.5351	256.7185	281.1395	292.9183	366.7083	390.816	440.1051	547.8171	585.0638	757.4969	787.9233	820.4853	852.8664	859.6442	910.9498	944.7319	956.0036	1003.491	1039.3578	1074.6329	1089.9075	1108.1378	1115.3398	1129.5608	1151.4315	1161.8804	1183.7137	1188.3258	1203.4453	1252.2382	1297.5029	1340.7122	1362.8133	1390.2264	1401.5942	1402.8129	1413.8903	1423.1548	1436.9453	1484.3158	1489.2719	1491.8836	1494.3591	1499.0775	1501.4806	1507.8796	1530.1105	2943.8195	2964.6068	2997.3683	3027.0982	3039.7015	3043.5487	3077.8566	3108.4655	3115.6832	3117.0828	3118.4655	3120.2453	3131.7666	3137.9184	3144.4804	3226.3578
CCOC(C)C1CC1C	CCO[C@@H](C)[C@H]1C[C@H]1C	
InChI=1S/C8H16O/c1-4-9-7(3)8-5-6(8)2/h6-8H,4-5H2,1-3H3	InChI=1S/C8H16O/c1-4-9-7(3)8-5-6(8)2/h6-8H,4-5H2,1-3H3/t6-,7+,8+/m1/s1
