19
gdb 95944	2.11951	1.52569	1.28612	1.679	71.15	-0.2575	-0.0363	0.2212	1094.6267	0.157823	-460.1735	-460.164295	-460.163351	-460.207587	33.85	
C	-0.5168401232	 1.2508315726	 0.0853453019	-0.412415
C	 0.0682757258	-0.1572873494	 0.0157812017	-0.042624
C	 1.0881891543	-0.3743348872	-1.1364600647	-0.111388
O	 2.2403217952	-1.0088002769	-0.5658726474	-0.265844
C	 1.8068211092	-1.6485985659	 0.6236914801	-0.139645
C	 0.8890622775	-0.588928574	 1.2657715741	 0.283125
O	 1.6576433803	 0.462870372	 1.8242881005	-0.487882
C	 0.0358117372	-1.1533923662	 2.3842299437	 0.127335
O	-0.830467002	-1.9732882116	 2.2142649387	-0.265293
H	 0.263708455	 1.9924718606	 0.2745097166	 0.124115
H	-1.0156569835	 1.5061120334	-0.8550304314	 0.117409
H	-1.2580995068	 1.3334107078	 0.8861634963	 0.125703
H	-0.7433457747	-0.8852292631	-0.0789433717	 0.106397
H	 0.6643453423	-1.0055246294	-1.9288275002	 0.107333
H	 1.4211963974	 0.5653347995	-1.5888229125	 0.109883
H	 1.2427643598	-2.5706828668	 0.4200558134	 0.111681
H	 2.68438857	-1.8787732845	 1.232557061	 0.120434
H	 2.3886627631	 0.6301178976	 1.2170482264	 0.291655
H	 0.293849233	-0.7564039784	 3.3890729035	 0.100018
70.8511	89.0018	175.6645	211.0308	225.6967	248.6962	262.0111	356.2667	417.261	423.0671	499.2368	537.0058	694.9208	697.0511	741.2932	865.0289	916.2717	940.6603	956.094	983.8277	1028.7292	1064.299	1079.7663	1112.6773	1140.4594	1174.092	1191.0125	1240.9767	1261.7216	1301.8027	1326.2631	1364.6671	1376.3139	1394.2553	1408.783	1419.4567	1492.1064	1499.5798	1504.3906	1524.0947	1826.0555	2914.9261	3001.3185	3013.0382	3040.457	3061.3614	3077.5401	3105.2002	3108.2274	3122.1673	3789.7335
CC1COCC1(O)C=O	C[C@H]1COC[C@]1(O)C=O	
InChI=1S/C6H10O3/c1-5-2-9-4-6(5,8)3-7/h3,5,8H,2,4H2,1H3	InChI=1S/C6H10O3/c1-5-2-9-4-6(5,8)3-7/h3,5,8H,2,4H2,1H3/t5-,6+/m0/s1
