23
gdb 101699	3.72547	0.82469	0.78741	2.304	82.19	-0.2458	0.0581	0.3039	1590.6737	0.203742	-425.415837	-425.405394	-425.40445	-425.451397	39.384	
C	 0.1097786686	 1.5235099418	-0.1741146061	-0.384102
C	 0.022135035	-0.0032431371	-0.1208733634	-0.17982
C	-1.3897268097	-0.518804357	 0.1698903717	 0.124979
O	-2.326640263	-0.0764338384	-0.8254466695	-0.43896
C	-1.434494973	-2.0461440765	 0.358393285	-0.31239
C	-2.8479846579	-2.6042486936	 0.2521021226	 0.452386
O	-3.8269790224	-1.8303995546	 0.8904210557	-0.479219
C	-3.2708048902	-3.3486732651	-0.9964924847	-0.326269
C	-3.0759965655	-4.0803380434	 0.3191390992	-0.312108
H	 1.1183025522	 1.8544242563	-0.439128935	 0.110101
H	-0.5901710576	 1.9223185377	-0.9130336945	 0.128907
H	-0.1431025102	 1.9657533678	 0.79579777	 0.115521
H	 0.360558486	-0.4334947059	-1.0748198167	 0.085446
H	 0.7013523526	-0.3966210285	 0.646302967	 0.10005
H	-1.7573877372	-0.049166604	 1.0892696743	 0.098902
H	-2.1419772118	-0.5558143446	-1.6411140637	 0.283971
H	-0.7929589049	-2.5372442708	-0.3852027346	 0.089167
H	-1.007869072	-2.2775076235	 1.3426199183	 0.108637
H	-3.8802659946	-1.0136700997	 0.3740256626	 0.289287
H	-4.2909020256	-3.1996505062	-1.332141396	 0.115318
H	-2.5466511374	-3.5138753134	-1.788559693	 0.098109
H	-2.2167015171	-4.7338101949	 0.4266431134	 0.108397
H	-3.9670995941	-4.4074259564	 0.8420468375	 0.123688
57.0962	81.9928	118.9082	135.5753	211.9205	265.7878	288.0537	302.3942	333.0933	357.5164	433.2878	455.7149	458.5865	569.3902	610.6088	752.2624	777.3293	778.9969	828.7645	890.4846	920.9986	928.4116	948.0914	985.4032	994.1867	1032.901	1046.4074	1068.6499	1078.2467	1114.6204	1138.5037	1176.9322	1190.4748	1261.9362	1287.1487	1295.7935	1309.8786	1350.3554	1355.8418	1388.9461	1405.4672	1412.2539	1436.5602	1452.0159	1475.2817	1485.9545	1495.1751	1501.293	1508.765	3003.0606	3016.058	3037.7383	3042.5887	3048.3413	3066.6935	3103.0011	3121.6483	3123.2335	3135.5214	3212.7859	3229.2735	3738.3546	3799.9861
CCC(O)CC1(O)CC1	CC[C@@H](O)CC1(O)CC1	
InChI=1S/C7H14O2/c1-2-6(8)5-7(9)3-4-7/h6,8-9H,2-5H2,1H3	InChI=1S/C7H14O2/c1-2-6(8)5-7(9)3-4-7/h6,8-9H,2-5H2,1H3/t6-/m1/s1
