20
gdb 88633	3.71953	1.11341	1.02799	3.0471	79.84	-0.2255	0.0835	0.309	1233.5465	0.171379	-403.07439	-403.066331	-403.065386	-403.10739	31.954	
O	-0.0799359623	 1.4500564083	 0.2710855879	-0.432712
C	 0.0905342859	 0.077536381	 0.1381051886	 0.134163
C	-0.4649278924	-0.8594463936	 1.1841672232	-0.342347
C	-1.1224589486	-0.7657325357	-0.1800725606	-0.013025
N	-2.3397369975	-0.0024583029	-0.252518717	-0.100479
C	-3.2628906741	-0.0614995223	-1.3696808717	-0.041466
C	-3.419762738	-1.4842467737	-1.9362790818	-0.245791
C	-3.8032573566	-1.9869298737	-0.5067731266	-0.244598
C	-3.6572445425	-0.5440937904	 0.009239994	-0.035212
H	-1.0357799816	 1.5931707486	 0.1826858766	 0.282113
H	 1.0360674291	-0.1740044659	-0.3330708618	 0.096735
H	 0.074419574	-1.768105468	 1.4294017371	 0.109545
H	-0.9930234803	-0.3981216909	 2.0118632322	 0.118847
H	-1.0074907086	-1.6080493268	-0.8576287877	 0.086511
H	-3.5039525276	 0.8605523783	-1.8873051004	 0.096943
H	-4.2602319732	-1.5510960397	-2.6301682242	 0.110248
H	-2.5410276501	-1.9245299077	-2.4164594923	 0.106949
H	-4.8314374245	-2.3506599805	-0.4579823109	 0.108612
H	-3.1462526433	-2.7252170837	-0.038775487	 0.109543
H	-4.266895718	-0.0680605508	 0.7694710225	 0.09542
49.441	143.2644	193.2323	224.4531	301.4693	395.4466	471.6732	501.2695	531.7155	597.4948	747.3626	774.2427	792.1158	803.6372	814.4483	841.7812	887.1998	946.7518	953.2314	964.0646	987.931	1026.7978	1034.5513	1038.684	1065.969	1102.0957	1115.5735	1128.7629	1136.4859	1146.769	1216.9709	1224.0039	1226.7433	1249.8484	1279.0447	1284.2015	1349.7426	1377.3758	1391.5333	1438.0528	1478.2472	1479.6841	1499.4906	3058.5808	3066.0542	3106.9665	3123.0318	3126.7091	3131.0036	3153.8437	3165.3939	3177.1859	3223.4951	3681.4035
OC1CC1N1C2CCC12	O[C@H]1C[C@H]1N1[C@H]2CC[C@@H]12	
InChI=1S/C7H11NO/c9-7-3-6(7)8-4-1-2-5(4)8/h4-7,9H,1-3H2	InChI=1S/C7H11NO/c9-7-3-6(7)8-4-1-2-5(4)8/h4-7,9H,1-3H2/t4-,5+,6-,7+,8?/m1/s1
