17
gdb 37645	3.26979	2.37181	2.10755	1.1635	71.57	-0.2141	0.0533	0.2674	747.7544	0.140772	-380.776947	-380.771821	-380.770877	-380.806055	23.279	
C	-0.054097413	 1.5155469525	 0.0164071474	-0.174682
C	 1.4985519166	 1.5166300594	-0.0084039325	-0.08477
C	 2.023076391	 1.3041432443	 1.4049517787	-0.037047
C	 1.2390349775	 0.3353130316	 2.2073536545	-0.058278
C	 0.4883918946	-0.6026679804	 1.2414989301	-0.029993
C	 1.8705419442	-0.8567877613	 0.6036129356	-0.016843
C	 1.3811755489	 0.0581531818	-0.5362803348	 0.009489
N	-0.0582899003	 0.0160251423	-0.0327060407	-0.159862
N	 2.6029616817	-0.0394387507	 1.6519229163	-0.165309
H	-0.5472834112	 1.9678518139	 0.8826771916	 0.103998
H	-0.5083449622	 1.8986450507	-0.9017045137	 0.109403
H	 2.0434201886	 2.2735117321	-0.5748952401	 0.072327
H	 2.5330073715	 2.110860923	 1.9208163957	 0.096686
H	 1.0639154357	 0.4314897931	 3.2739346773	 0.092529
H	-0.1453859742	-1.3682256873	 1.6873000188	 0.082094
H	 2.3052118411	-1.8330195254	 0.4040799916	 0.084792
H	 1.5662936498	-0.1625144795	-1.5889623958	 0.075465
358.9018	409.9932	570.8402	617.4209	670.216	695.8731	743.6291	777.1342	806.9319	824.9191	844.795	876.7665	880.8512	913.0035	939.7375	948.0215	975.5283	982.8339	997.9125	1043.0724	1050.7429	1072.9932	1084.3053	1164.6545	1177.4793	1188.1738	1202.4948	1215.172	1225.0778	1251.3436	1261.6539	1272.7528	1295.7932	1299.9898	1337.3936	1390.1227	1497.7828	3044.5975	3088.1774	3096.8131	3102.0908	3114.4508	3147.84	3157.8604	3173.4634
C1C2C3C4C5C(C2N15)N34	C1[C@H]2[C@H]3[C@H]4[C@@H]5[C@@H]([C@H]2N15)N34	
InChI=1S/C7H8N2/c1-2-3-6-5(8(1)3)7-4(2)9(6)7/h2-7H,1H2	InChI=1S/C7H8N2/c1-2-3-6-5(8(1)3)7-4(2)9(6)7/h2-7H,1H2/t2-,3+,4+,5+,6-,7+,9?/m1/s1
