18
gdb 111931	4.13021	1.26981	1.18102	1.5513	80.41	-0.2145	-0.0381	0.1765	1096.6937	0.147473	-401.805608	-401.798039	-401.797094	-401.837716	29.471	
C	-0.2449053471	 1.302024775	 0.063055098	-0.237662
O	 0.0609748056	-0.0736590592	-0.0110522102	-0.241968
C	 0.7894855195	-0.5460659876	 1.0962814196	 0.114266
C	-0.1755781774	-0.9200168529	 2.23543164	-0.154208
C	 0.1461184077	-2.1497857961	 2.6869546965	 0.008699
C	-0.5161244334	-3.3114625562	 1.9509330651	-0.164482
N	 0.742751315	-3.3025290334	 1.0626899324	-0.146043
C	 1.4125124371	-1.926968007	 0.8343323087	-0.061373
C	 1.4985041148	-2.6103657192	 2.1344474397	-0.087911
H	 0.6682340111	 1.913991612	 0.1235574908	 0.109405
H	-0.7897608058	 1.5616845091	-0.8472797162	 0.131867
H	-0.8740335486	 1.5374967083	 0.9342444737	 0.112948
H	 1.6068267794	 0.1592080526	 1.3303828774	 0.074752
H	-1.2123674288	-0.6164131892	 2.1121368092	 0.101501
H	-0.5241695691	-4.292848946	 2.4344522257	 0.118251
H	-1.4671093188	-3.1148222882	 1.4493697531	 0.118167
H	 2.1690799272	-2.0360154558	 0.0633398393	 0.105295
H	 2.3552031615	-3.0412217461	 2.6393307971	 0.098495
100.4827	125.9218	180.4799	267.938	370.7934	391.4997	469.2958	529.0055	589.4166	687.7053	719.6952	747.6212	814.315	853.2399	886.9072	925.7673	958.2455	993.7662	1012.2567	1015.4737	1033.0387	1065.7314	1074.9071	1120.5339	1144.8568	1182.4958	1195.1948	1219.5122	1236.8213	1253.7025	1268.3173	1294.3661	1340.7091	1370.5403	1478.6064	1485.29	1504.988	1507.7327	1581.6214	2934.1699	2980.0529	3028.7696	3048.2238	3115.438	3121.1502	3155.2194	3169.2621	3182.2002
COC1C=C2CN3C1C23	CO[C@H]1[CH][C]2CN3[C@@H]1[C@@H]23	
InChI=1S/C7H9NO/c1-9-5-2-4-3-8-6(4)7(5)8/h2,5-7H,3H2,1H3	InChI=1S/C7H9NO/c1-9-5-2-4-3-8-6(4)7(5)8/h2,5-7H,3H2,1H3/t5-,6+,7-,8?/m0/s1
