13
gdb 132466	3.30155	1.38838	0.97737	1.2467	67.32	-0.2061	-0.0404	0.1657	1076.6559	0.089436	-497.885956	-497.878919	-497.877975	-497.917455	27.313	
O	 0.0359056907	 1.3550159643	 0.0072918578	-0.424379
C	-0.0405065272	 0.0117466801	 0.0009367585	 0.297661
C	-1.1994612752	-0.6863603295	 0.0045102993	-0.188043
C	-1.1630495739	-2.1256030396	-0.0030246365	-0.35334
C	 0.0360198632	-2.7199572321	-0.0134125666	 0.377847
F	 0.2472254372	-4.0174770804	-0.021304737	-0.042413
O	 1.2082715321	-2.0615181878	-0.0172691554	-0.234
C	 1.2416750188	-0.6815995105	-0.0104568075	 0.342367
N	 2.3280361166	-0.0194430549	-0.0137878749	-0.579568
H	 0.9892585473	 1.5587821032	 0.0024801136	 0.310528
H	-2.1480229565	-0.1643427886	 0.0129906513	 0.126535
H	-2.0610181181	-2.7256961125	-0.0005561688	 0.129465
H	 3.1580346449	-0.6070915417	-0.0218813538	 0.237338
136.0605	174.9999	324.0658	353.1664	387.2605	404.1519	470.6241	518.4583	586.9571	608.3925	636.0742	752.7051	758.2898	782.5019	800.8524	815.5419	903.2866	975.2662	1051.7129	1104.7071	1212.8402	1280.0494	1290.5556	1317.989	1404.3369	1472.2902	1659.3765	1703.6878	1750.9768	3214.6476	3244.0665	3534.0768	3627.9376
OC1=CC=C(F)OC1=N	OC1=C(OC(=CC1)F)[NH]	
InChI=1S/C5H4FNO2/c6-4-2-1-3(8)5(7)9-4/h1-2,7-8H	InChI=1S/C5H5FNO2/c6-4-2-1-3(8)5(7)9-4/h2,7-8H,1H2
