13
gdb 24392	3.84544	1.7196	1.19694	1.0231	63.22	-0.2256	-0.0157	0.2099	927.8591	0.092629	-452.772935	-452.766791	-452.765847	-452.803713	23.484	
C	-0.0172138337	 1.5115409225	-0.0503828715	-0.275616
N	 1.3647063593	 1.988982025	 0.1231632545	-0.242633
C	 2.3429915064	 1.2167408817	 0.2674516978	 0.117143
O	 2.3628484875	-0.1824012412	 0.2970902496	-0.240291
C	 1.1153580964	-0.6599692775	 0.1413364756	 0.399909
C	-0.0342077269	 0.0176209775	-0.023778031	 0.12062
N	-1.0632234923	-0.9130617143	-0.1418987707	-0.315967
C	-0.4705947207	-2.0562936059	-0.0413813391	 0.043828
O	 0.8906261764	-1.9872872146	 0.1372375763	-0.186054
H	-0.631567136	 1.9558794529	 0.7433071934	 0.137166
H	-0.401962356	 1.9223547864	-0.9927265144	 0.137167
H	 3.3580971383	 1.5783923806	 0.3947102247	 0.146836
H	-0.8918987888	-3.0471439232	-0.077944595	 0.157893
101.7139	243.062	316.5061	417.0038	490.2675	516.7267	638.232	657.1621	704.5221	748.1258	789.453	856.7885	932.6979	935.0193	943.6256	1036.6636	1036.9427	1082.8727	1157.0328	1234.5957	1266.8521	1285.0201	1368.263	1392.1843	1454.9465	1501.8048	1541.1816	1698.5005	1763.3877	3017.9001	3035.5585	3202.2914	3292.3725
C1N=COC2=C1N=CO2	C1N=COc2c1nco2	
InChI=1S/C5H4N2O2/c1-4-5(8-2-6-1)9-3-7-4/h2-3H,1H2	InChI=1S/C5H4N2O2/c1-4-5(8-2-6-1)9-3-7-4/h2-3H,1H2
