17
gdb 126068	3.82323	1.07063	1.01968	3.5174	74.81	-0.2338	0.0156	0.2494	1212.9346	0.137517	-418.008794	-418.000827	-417.999883	-418.041938	29.621	
C	-0.0423115457	 1.5029576318	-0.2777818797	-0.429102
C	-0.0344395881	 0.0259539184	 0.0100594382	 0.085083
O	 1.2202691087	-0.6591276292	-0.0471612929	-0.256436
C	 0.5603209189	-0.5850150962	 1.2223080211	-0.092936
C	 1.2516824065	 0.171395062	 2.2857180274	 0.218356
C	 0.9243364254	 0.2355680487	 3.6277523309	-0.141364
N	 1.8507881825	 1.0345763266	 4.209577084	-0.176483
N	 2.7747882216	 1.4945160144	 3.3465458375	-0.226305
C	 2.4148383841	 0.9727775935	 2.1780756153	-0.080818
H	 0.7181001193	 2.0310063217	 0.3009516864	 0.136957
H	 0.1433142144	 1.6829046467	-1.3418786778	 0.129334
H	-1.0220781435	 1.9274269732	-0.0328102539	 0.12026
H	-0.8491320877	-0.5340757539	-0.4555139691	 0.087533
H	 0.1230174084	-1.5314251882	 1.5469001517	 0.088519
H	 0.1247257332	-0.2155562949	 4.1941332816	 0.134784
H	 1.9165027092	 1.2949413706	 5.178900539	 0.276109
H	 3.0014219427	 1.1605427248	 1.2921701104	 0.126509
56.072	125.1632	162.2838	200.8299	283.4204	385.3555	437.0981	511.7791	527.9091	654.5138	697.3709	722.2995	788.3795	794.5166	865.6542	904.9468	951.7032	971.1307	1004.7638	1031.3803	1068.8003	1091.9896	1152.5988	1171.1798	1172.9756	1239.9566	1283.2736	1297.4662	1383.616	1392.4127	1406.8828	1428.4402	1462.8253	1488.5615	1496.6855	1500.9378	1613.7186	3039.092	3073.5534	3087.2625	3099.715	3137.0987	3259.0978	3262.9943	3675.3656
CC1OC1C1=CNN=C1	C[C@H]1O[C@H]1c1c[nH]nc1	
InChI=1S/C6H8N2O/c1-4-6(9-4)5-2-7-8-3-5/h2-4,6H,1H3,(H,7,8)	InChI=1S/C6H8N2O/c1-4-6(9-4)5-2-7-8-3-5/h2-4,6H,1H3,(H,7,8)/t4-,6-/m1/s1
