20
gdb 41613	3.91618	1.24166	1.13028	2.6545	78.17	-0.2312	0.0787	0.3098	1141.1432	0.17323	-403.101358	-403.093791	-403.092847	-403.133656	29.891	
C	-0.0842303026	 1.4797091782	-0.0966634144	-0.260325
C	 1.4616797124	 1.488886676	 0.0221840346	-0.154396
N	 1.5281060272	-0.0084389403	 0.185166423	-0.182034
C	 0.0148944875	-0.0406439317	-0.0304661961	-0.091117
C	 0.9387203498	-0.6030118368	-1.0339914601	 0.323334
C	 1.1864849058	-0.0898443018	-2.4536488849	-0.320374
C	 1.1399105176	-1.3878391552	-3.2748647407	-0.088344
O	 1.6448463671	-2.3909381116	-2.4073107959	-0.244535
C	 1.0873436583	-2.1288789864	-1.1289554749	-0.147388
H	-0.5725102604	 1.9106909002	 0.7791303087	 0.114477
H	-0.5397042768	 1.9070957773	-0.9952589182	 0.103175
H	 2.0299702168	 1.8699755515	-0.8319675676	 0.104254
H	 1.8310346457	 1.9706319272	 0.9291749787	 0.113448
H	-0.6283389768	-0.681514702	 0.5677878854	 0.089953
H	 0.4572386898	 0.6504175667	-2.7915690594	 0.106531
H	 2.1844445291	 0.3559082666	-2.5218636202	 0.120189
H	 0.1047186164	-1.6182452815	-3.5789939102	 0.08853
H	 1.7658016332	-1.367356655	-4.1702090343	 0.111382
H	 1.7596768916	-2.5212054872	-0.3629157428	 0.126642
H	 0.1049908183	-2.6201126441	-1.0297622806	 0.086598
60.5855	186.2063	227.1766	257.7871	290.9089	415.9014	428.6038	533.4671	644.3262	746.7832	752.3866	783.1324	828.4019	847.7335	888.2256	950.2069	959.2515	966.8204	975.3639	992.0417	1033.1311	1043.2005	1099.1136	1107.9382	1129.3706	1145.3636	1189.0293	1214.5249	1221.8037	1240.0562	1262.7503	1271.7917	1277.6022	1300.5176	1314.899	1356.5632	1396.1521	1435.3663	1479.308	1490.5512	1505.8063	1511.3533	1520.884	2959.1756	2965.9648	3046.9638	3051.6247	3059.2002	3096.9993	3104.6474	3105.353	3105.5666	3122.7825	3138.3051
C1CN2C1C21CCOC1	C1CN2[C@@H]1[C@]12CCOC1	
InChI=1S/C7H11NO/c1-3-8-6(1)7(8)2-4-9-5-7/h6H,1-5H2	InChI=1S/C7H11NO/c1-3-8-6(1)7(8)2-4-9-5-7/h6H,1-5H2/t6-,7-,8?/m0/s1
