18
gdb 45199	3.33145	1.60241	1.33575	3.0981	77.1	-0.2191	-0.0219	0.1972	980.7525	0.149543	-401.899856	-401.893104	-401.89216	-401.930772	28.027	
O	-0.0864023282	 0.0046164217	 0.348469631	-0.291011
C	-0.0668599513	 1.1663332722	 0.0883271747	 0.306686
C	-1.1373285061	 2.2402889076	-0.3076352479	-0.306729
N	-0.0052019033	 3.0286989964	-0.8322001036	-0.090705
C	 0.4022233943	 4.4323878991	-0.6125728954	-0.183945
C	 1.7321780359	 4.1477319154	 0.1426665241	-0.039435
C	 1.2075236523	 3.1936975562	 1.2514199847	-0.255801
C	 0.9790075774	 2.2859755744	-0.0080262135	 0.207749
C	 2.3119961983	 2.8445197937	-0.5485185241	-0.304215
H	-1.8829934694	 1.9446064233	-1.050795691	 0.128807
H	-1.6492585779	 2.6416014823	 0.5817271079	 0.112032
H	 0.5325705192	 4.9574156156	-1.5642704075	 0.106923
H	-0.2939012428	 5.0108184808	 0.009416018	 0.100106
H	 2.3737767547	 4.9987996853	 0.3724054543	 0.075828
H	 1.991391211	 2.8090740599	 1.90524933	 0.111037
H	 0.3369677675	 3.5061772079	 1.8338640268	 0.098865
H	 2.4256649255	 2.8316413328	-1.633485209	 0.11202
H	 3.2112632128	 2.4923968456	-0.0424273196	 0.111788
133.9271	225.2089	276.5254	395.2509	455.2744	505.8549	540.4831	580.6333	607.3515	652.5827	791.2962	821.7405	845.3281	860.7512	916.9273	929.6825	934.7888	963.0829	997.2228	1009.332	1051.9562	1083.1084	1091.1806	1105.6521	1144.5493	1157.448	1178.2509	1197.4822	1214.6788	1232.6775	1251.4225	1272.2332	1285.4583	1327.9517	1473.5589	1484.8915	1504.253	1524.3972	1917.168	2979.6555	3014.1784	3065.0036	3068.3179	3082.478	3086.149	3114.8914	3135.299	3154.1352
O=C1CN2CC3CC12C3	O=C1CN2C[C@H]3C[C@@]12C3	
InChI=1S/C7H9NO/c9-6-4-8-3-5-1-7(6,8)2-5/h5H,1-4H2	InChI=1S/C7H9NO/c9-6-4-8-3-5-1-7(6,8)2-5/h5H,1-4H2/t5-,7+
