20
gdb 22830	2.17036	1.49798	0.95675	1.8604	78.42	-0.2467	0.0045	0.2511	1241.4322	0.171859	-440.268482	-440.259696	-440.258752	-440.301703	34.15	
O	 0.0171903168	 1.330773551	-0.0095729921	-0.40033
N	 0.0607502444	-0.0680392876	-0.0279048502	-0.217595
C	-1.0851982291	-0.6245408593	 0.0100060157	 0.353662
C	-2.4315278809	 0.0478122755	 0.0460766719	-0.306384
C	-3.3427100943	-0.5048088411	-1.0706680235	-0.192956
C	-3.3951456442	-2.0384530524	-1.0504914325	-0.20523
C	-1.9887432502	-2.6436282395	-1.146826394	-0.204606
C	-1.0785698091	-2.1409963367	-0.0116980889	 0.08787
O	 0.2120345998	-2.6869919401	-0.1366117618	-0.447831
H	 0.9500025139	 1.5653084684	-0.055079747	 0.307674
H	-2.8943507836	-0.1628156838	 1.0203627318	 0.11642
H	-2.3141728871	 1.1291245077	-0.030839814	 0.134705
H	-4.34649221	-0.0806312621	-0.9626817681	 0.098579
H	-2.959759168	-0.1672178453	-2.0420370635	 0.10718
H	-3.8779857333	-2.3751719788	-0.1224883266	 0.096358
H	-4.0182012336	-2.4043851696	-1.8734250583	 0.09936
H	-2.022109546	-3.7369357131	-1.1075379522	 0.105306
H	-1.5208715009	-2.370196725	-2.1009160447	 0.102884
H	-1.5237353372	-2.4733017817	 0.9447576799	 0.078222
H	 0.8244404627	-1.9381099164	-0.1112959421	 0.286711
78.2571	154.1212	230.0252	251.2596	290.1009	315.2632	331.032	366.3433	416.039	435.1974	465.1457	526.1629	625.7103	666.1774	770.8714	833.2555	859.0214	884.3573	931.8272	957.9714	1011.6795	1049.4054	1077.6086	1105.6545	1129.5232	1135.5741	1157.407	1254.4763	1258.6752	1277.4972	1295.8254	1336.2144	1349.3058	1367.6028	1378.0811	1380.4231	1414.7717	1442.7879	1477.6394	1486.6121	1488.2575	1501.435	1745.0237	2926.9438	3013.9331	3016.2744	3029.9368	3033.7481	3070.3192	3076.5166	3086.1394	3128.3159	3723.2139	3822.3227
ON=C1CCCCC1O	ON=C1CCCC[C@H]1O	
InChI=1S/C6H11NO2/c8-6-4-2-1-3-5(6)7-9/h6,8-9H,1-4H2	InChI=1S/C6H11NO2/c8-6-4-2-1-3-5(6)7-9/h6,8-9H,1-4H2/t6-/m1/s1
