15
gdb 102010	2.45705	1.14765	0.93733	2.7351	68.86	-0.2558	-0.0662	0.1895	1257.5988	0.107679	-457.733083	-457.72302	-457.722076	-457.769323	33.824	
O	 0.1039406949	 1.4047764319	 0.1049032016	-0.42613
C	 0.1274172501	 0.0033368093	-0.1189855332	-0.107223
C	-1.31580504	-0.4926766567	 0.054530388	-0.207641
C	-2.210880007	 0.0876135496	-1.0418004419	 0.156157
O	-2.9913146344	-0.5483170154	-1.6999560046	-0.23801
C	-1.3927697956	-2.0136933161	 0.1004132785	 0.234415
O	-0.4671948629	-2.711654924	-0.2544384245	-0.293926
C	-2.6257756949	-2.5728731436	 0.614005507	 0.28152
C	-3.6428467136	-3.0238683811	 1.0724945375	-0.398236
H	 0.9725526778	 1.7597915119	-0.1051796238	 0.29598
H	 0.4892157393	-0.246502961	-1.1257530501	 0.117963
H	 0.7753621449	-0.5176594235	 0.5979187705	 0.11723
H	-1.6951817043	-0.0826455071	 1.0021502279	 0.134544
H	-2.061825141	 1.1759460342	-1.19149303	 0.115029
H	-4.5409993133	-3.4358569283	 1.4647552269	 0.218329
47.6469	60.1836	95.9957	122.2434	163.4668	209.5641	244.5291	259.977	311.87	382.0187	479.7198	539.2156	617.2648	651.2216	708.6503	751.3138	792.175	913.8849	971.6413	1025.6853	1061.0572	1115.4477	1137.6894	1226.8973	1246.0415	1297.614	1307.6678	1414.1927	1449.1818	1522.4292	1762.6599	1825.332	2216.1786	2937.42	3005.9074	3017.8014	3044.338	3494.7311	3834.883
OCC(C=O)C(=O)C#C	OC[C@@H](C=O)C(=O)C#C	
InChI=1S/C6H6O3/c1-2-6(9)5(3-7)4-8/h1,3,5,8H,4H2	InChI=1S/C6H6O3/c1-2-6(9)5(3-7)4-8/h1,3,5,8H,4H2/t5-/m1/s1
