14
gdb 131436	3.46853	1.58345	1.09451	1.9983	69.42	-0.2212	-0.0201	0.2011	1019.1083	0.102807	-436.682194	-436.675594	-436.67465	-436.713062	26.19	
O	 0.0893815315	 1.3531926804	 0.0811704612	-0.416142
C	 0.0730661992	 0.0118037566	 0.0833016241	 0.294683
N	 0.0772568477	-0.6718098999	-1.0462248516	-0.264976
O	 0.0565388186	-2.0378313083	-0.6731798806	-0.23383
C	 0.0413938266	-2.0758103713	 0.6560984419	 0.39302
C	 0.0502049806	-0.8377741598	 1.2193238521	 0.117042
C	 0.0322243456	-0.9966161629	 2.6735757698	-0.218506
C	 0.0131137325	-2.3157268994	 2.9544006812	-0.089163
C	 0.0168840444	-3.1614940416	 1.6820985267	-0.418143
H	 0.1030921628	 1.6423396704	-0.8417675281	 0.311892
H	 0.0340532868	-0.1907224095	 3.3940985188	 0.115845
H	-0.0031545308	-2.7582794632	 3.941029707	 0.108085
H	-0.8709008993	-3.801301013	 1.6056493704	 0.150096
H	 0.8903556105	-3.8226732485	 1.6250889271	 0.150096
168.4424	226.9047	278.4574	363.1251	439.8424	483.6299	521.7036	614.5348	624.703	655.2231	699.065	748.7043	796.1273	869.5662	923.5206	931.2997	934.4447	944.9037	1047.8866	1129.3418	1149.1289	1208.8985	1230.273	1271.8383	1375.7362	1382.0053	1431.4579	1513.5651	1568.1927	1602.8242	1639.4331	3041.2273	3073.3075	3221.8456	3243.7481	3772.0079
OC1=NOC2=C1C=CC2	Oc1noc2c1C=CC2	
InChI=1S/C6H5NO2/c8-6-4-2-1-3-5(4)9-7-6/h1-2H,3H2,(H,7,8)	InChI=1S/C6H5NO2/c8-6-4-2-1-3-5(4)9-7-6/h1-2H,3H2,(H,7,8)
