13
gdb 133294	4.07095	1.13922	0.89507	1.1291	68.22	-0.2549	-0.1046	0.1503	1189.1642	0.08626	-493.975444	-493.967415	-493.966471	-494.009146	28.152	
C	-0.0298888132	 1.438749093	-0.1308675289	-0.325342
N	 0.0240931168	-0.0152208341	-0.1375233782	-0.310063
C	-1.0168623659	-0.6737235926	 0.1387365064	 0.47248
O	-2.2227460139	-0.0370093442	 0.4496624114	-0.294927
N	-3.414162069	-0.7564524842	 0.7706773421	 0.067755
N	-3.3876257498	-1.9899240219	 0.772250645	-0.160932
C	-2.2304755657	-2.698068679	 0.4705136968	 0.398866
F	-2.4095044305	-4.0002611037	 0.525270095	-0.041276
C	-1.0673096191	-2.1192563459	 0.1602162727	-0.360165
H	 0.9613815947	 1.8299041524	-0.3679828882	 0.126838
H	-0.742995531	 1.822356036	-0.8719732202	 0.132466
H	-0.3384942691	 1.8328805912	 0.845902514	 0.132211
H	-0.1703371942	-2.6761321671	-0.072711158	 0.162089
41.2253	104.5599	148.0537	189.125	307.4694	377.4483	414.1117	452.4166	514.2701	547.7395	678.4439	730.0524	747.3377	789.3864	897.9138	905.5918	970.4455	1025.3977	1106.8474	1152.272	1206.8161	1291.8442	1340.9875	1437.7984	1484.2267	1497.7639	1601.662	1711.9312	1759.0769	3009.7788	3062.1207	3118.106	3241.4202
CN=C1ON=NC(F)=C1	C[N]C1=CC(=N[N]O1)F	
InChI=1S/C4H4FN3O/c1-6-4-2-3(5)7-8-9-4/h2H,1H3	InChI=1S/C4H4FN3O/c1-6-4-2-3(5)7-8-9-4/h2H,1H3
