19
gdb 31069	2.23724	1.45812	0.89764	2.6039	81.82	-0.1788	0.036	0.2147	1318.147	0.15842	-419.256008	-419.245977	-419.245033	-419.291881	34.799	
C	-0.0565235822	 1.4299210859	 0.0880744984	-0.230826
O	-0.0236021279	 0.0111836071	 0.0245880932	-0.281229
C	 0.6158819417	-0.6091564773	 1.0428676876	 0.301423
C	 0.7537200681	-1.9707550341	 1.1618162652	 0.186622
C	 0.2979676242	-3.1005404297	 0.3076590064	-0.51473
N	 1.4685618779	-2.1152554329	 2.3466644498	-0.342241
C	 1.7151788803	-0.8788047332	 2.8590596439	 0.335184
C	 2.4650713302	-0.6436629891	 4.1271560908	-0.497272
N	 1.2033707047	 0.059210759	 2.0808933105	-0.388324
H	 0.9533571061	 1.8542619372	 0.0820509987	 0.125444
H	-0.6029215826	 1.7566019387	-0.7989122735	 0.118108
H	-0.5686183868	 1.7782582878	 0.9916174257	 0.125406
H	 1.1313001951	-3.7035644799	-0.076597366	 0.121263
H	-0.3829006901	-3.7816331478	 0.8351148976	 0.12116
H	-0.2406025983	-2.6960502452	-0.5523033094	 0.151951
H	 1.753072465	-2.9915082167	 2.7513738021	 0.255975
H	 3.4949907954	-1.0165630311	 4.0722325042	 0.129048
H	 2.5004058764	 0.4300023327	 4.3159303271	 0.154812
H	 1.9847919628	-1.1283904116	 4.9855543979	 0.128226
49.7375	56.6482	121.5809	159.8542	182.4303	185.8727	238.9327	251.6529	348.6139	364.4504	491.4446	552.3777	612.6524	623.2724	669.842	728.5468	823.981	968.8435	1021.3528	1043.82	1057.0689	1066.1485	1073.6855	1181.2511	1202.7747	1210.4826	1225.8642	1320.9245	1402.1695	1410.1899	1429.0109	1456.363	1479.2316	1482.4818	1482.9713	1484.4876	1496.8215	1504.9724	1511.4394	1570.9548	1667.9222	3006.3017	3024.2899	3026.117	3046.0484	3070.673	3088.7417	3125.5562	3131.5972	3146.5858	3659.4908
COC1=C(C)NC(C)=N1	COc1c(C)[nH]c(C)n1	
InChI=1S/C6H10N2O/c1-4-6(9-3)8-5(2)7-4/h1-3H3,(H,7,8)	InChI=1S/C6H10N2O/c1-4-6(9-3)8-5(2)7-4/h1-3H3,(H,7,8)
