15
gdb 52010	3.21352	0.95835	0.7703	4.0909	73.98	-0.2759	-0.0028	0.2731	1406.4961	0.110323	-416.770048	-416.760574	-416.75963	-416.8055	32.566	
N	-0.3654934669	 1.1816827123	 0.1906648626	-0.432765
C	-0.4408268936	-0.0493939259	 0.4354572174	 0.131286
O	-0.7048934809	-0.9138843863	-0.5799358523	-0.180296
C	-0.8326095459	-2.2819397362	-0.267615888	-0.094605
C	-2.3315103026	-2.6893013801	-0.1459818489	-0.322518
C	-2.4641405714	-4.1428890997	-0.07629432	 0.316116
C	-2.5244287636	-5.3404967079	-0.0338200053	-0.416314
C	-2.9505699614	-2.0367477288	 1.0181984563	 0.298422
N	-3.4046417038	-1.5097423837	 1.940107485	-0.318727
H	-0.153388779	 1.6960483227	 1.0427608307	 0.23874
H	-0.3059116189	-0.5454531886	 1.4047288001	 0.105434
H	-0.3976639533	-2.8482509022	-1.0938114846	 0.14614
H	-0.3037280649	-2.5434485206	 0.6558457835	 0.135562
H	-2.8361101745	-2.3117417585	-1.0447885346	 0.17627
H	-2.5962441693	-6.3999791565	 0.006076678	 0.217255
53.8621	61.4775	130.2397	137.2258	147.0996	202.5371	347.089	353.9481	372.3131	454.5852	566.9263	580.1921	655.5615	661.8747	682.7981	815.458	827.3943	957.6298	1001.3598	1035.8133	1041.1559	1083.4751	1150.8702	1222.4054	1268.193	1310.178	1348.0257	1394.7143	1421.8869	1497.2424	1751.9467	2250.568	2365.4802	3034.8841	3042.5416	3050.9493	3119.8776	3500.3205	3525.8936
N=COCC(C#C)C#N	[NH][CH]OC[C@@H](C#C)C#N	
InChI=1S/C6H6N2O/c1-2-6(3-7)4-9-5-8/h1,5-6,8H,4H2	InChI=1S/C6H6N2O/c1-2-6(3-7)4-9-5-8/h1,5-6,8H,4H2/t6-/m0/s1
