16
gdb 6304	3.51617	1.18767	1.06385	3.8762	67.16	-0.2652	0.0072	0.2724	1154.8832	0.128739	-379.974805	-379.965453	-379.964509	-380.010348	31.63	
C	 0.1470113563	 1.75227223	 0.1929239265	-0.388757
C	 0.0851608032	 0.2348068418	-0.049788616	-0.098085
N	 0.6999097557	-0.1601286581	-1.3064553227	-0.318864
C	-0.0488704451	-0.6722769719	-2.33846647	 0.420042
C	 0.7537339958	-1.121517636	-3.5458835101	-0.491472
O	-1.2592605954	-0.7678138929	-2.2740572456	-0.36045
C	 0.6988758197	-0.5012331055	 1.0690449258	 0.264115
N	 1.2054395234	-1.0583586099	 1.9455504024	-0.316939
H	 1.1828579115	 2.100457949	 0.2366202583	 0.131262
H	-0.3654095375	 2.2649690497	-0.6242034719	 0.142501
H	-0.3414051466	 2.0090602189	 1.1364823134	 0.144307
H	-0.9608540757	-0.0780930233	-0.1379596646	 0.173458
H	 1.703730849	-0.127034057	-1.3818784968	 0.256666
H	 0.9664209897	-2.1918131357	-3.45462647	 0.159986
H	 0.1502779477	-0.9733686412	-4.4420204785	 0.158946
H	 1.7036042083	-0.5901936878	-3.6496531102	 0.123286
32.8394	54.1489	78.625	171.9087	189.6974	231.9456	307.7814	365.4108	412.8318	435.0378	562.3392	580.3863	604.993	637.2031	834.7803	909.633	977.0771	1006.6648	1052.165	1092.1478	1110.8575	1167.5488	1250.174	1339.0571	1344.5033	1395.6885	1408.7123	1466.0293	1486.8271	1489.093	1491.8253	1524.6099	1786.491	2358.0976	3049.1783	3049.3945	3072.5323	3116.859	3127.4336	3138.7662	3154.4165	3644.1352
CC(NC(C)=O)C#N	C[C@@H](NC(=O)C)C#N	
InChI=1S/C5H8N2O/c1-4(3-6)7-5(2)8/h4H,1-2H3,(H,7,8)	InChI=1S/C5H8N2O/c1-4(3-6)7-5(2)8/h4H,1-2H3,(H,7,8)/t4-/m1/s1
