16
gdb 14406	3.36645	2.5986	2.05643	2.5401	62.99	-0.2398	0.0697	0.3095	713.6155	0.132063	-383.691479	-383.685436	-383.684492	-383.721196	25.112	
O	-0.0171911632	 1.4251918509	-0.0718158373	-0.476544
C	 0.0208960936	 0.0424911842	-0.0937695185	 0.395413
C	 0.4162173697	-0.8145068795	-1.3107010022	-0.315672
C	-0.3205048148	-1.9425351906	-0.5407541829	-0.093544
C	 0.6178826697	-2.1662558868	 0.666298609	-0.206571
C	 0.3518163151	-0.7667441101	 1.2448655375	-0.004686
O	-1.0716966067	-0.849821884	 1.5502949951	-0.290076
C	-1.241456812	-0.808312257	 0.1326664431	 0.063035
H	 0.8836246652	 1.7584642837	 0.0026605608	 0.283088
H	-0.128157672	-0.4750586509	-2.1964480796	 0.107301
H	 1.4715612298	-0.96957042	-1.5548906801	 0.090342
H	-0.7424043982	-2.8026513022	-1.0539201199	 0.074957
H	 0.291657351	-2.9401593903	 1.364129965	 0.109367
H	 1.6526491589	-2.3512660706	 0.3646569604	 0.094161
H	 0.955655052	-0.363471777	 2.0575059893	 0.078519
H	-2.247328148	-0.6073661399	-0.2310242897	 0.090912
211.1416	276.165	334.7703	432.1263	464.4563	522.7009	616.3549	689.803	723.0652	782.5141	851.4995	880.3642	914.4665	923.7012	938.7152	966.04	995.3999	1003.0578	1035.5418	1059.5509	1102.8467	1131.5183	1146.5048	1177.459	1196.1971	1223.0106	1233.446	1253.0256	1300.4529	1305.2182	1322.9361	1402.4839	1480.5747	1506.1736	3048.8487	3063.1505	3107.9921	3120.1211	3126.0237	3143.0069	3154.2606	3802.3806
OC12CC3CC1OC23	O[C@@]12C[C@H]3C[C@@H]1O[C@@H]23	
InChI=1S/C6H8O2/c7-6-2-3-1-4(6)8-5(3)6/h3-5,7H,1-2H2	InChI=1S/C6H8O2/c7-6-2-3-1-4(6)8-5(3)6/h3-5,7H,1-2H2/t3-,4+,5-,6+/m1/s1
