17
gdb 24108	6.74419	0.74499	0.70744	3.3723	80.42	-0.2258	0.0213	0.2471	1550.4833	0.136858	-380.870935	-380.862487	-380.861542	-380.905134	30.747	
C	 0.0049858999	-1.2132102985	-0.0092039101	-0.432358
C	-0.0322096846	-0.0124124759	-0.0355914245	 0.292542
C	-0.0257447413	 1.4433018318	-0.0633692964	-0.346737
C	 1.4072571784	 2.0124358254	 0.0474264542	-0.179311
N	 1.4310464577	 3.4618662881	 0.0186333221	 0.029895
C	 1.3027827187	 4.2703302778	-1.0927467847	-0.137376
C	 1.3191999115	 5.5554121041	-0.6192199223	-0.086971
N	 1.4503568246	 5.5651627047	 0.7500356939	-0.271212
C	 1.5106124253	 4.2999846502	 1.0950237098	-0.000221
H	 0.0182582577	-2.2748888752	 0.0127396624	 0.202988
H	-0.4849659893	 1.8061517162	-0.9905473453	 0.144063
H	-0.631133032	 1.8432786119	 0.758748129	 0.14652
H	 1.8629012955	 1.6814067637	 0.9838695346	 0.138728
H	 2.0225272064	 1.6253561625	-0.7695485564	 0.138013
H	 1.2271820822	 3.8575231567	-2.0855839161	 0.125359
H	 1.2522792678	 6.4722171637	-1.1850925622	 0.109312
H	 1.6208270516	 3.919071953	 2.1003642018	 0.126763
60.978	62.9845	90.0152	171.6569	321.1347	352.8953	368.7839	468.328	630.676	640.2955	659.1562	678.5082	728.1672	747.2716	774.0291	816.9946	857.4762	915.9988	973.837	1021.8871	1040.924	1053.6969	1100.5436	1144.3155	1180.6297	1264.359	1293.4674	1304.8089	1311.9455	1389.4488	1395.7023	1414.5419	1472.7649	1492.053	1532.8879	1545.272	2241.7407	3034.1064	3065.8597	3068.9293	3118.4291	3240.3934	3246.7834	3273.4886	3505.6498
C#CCCN1C=CN=C1	C#CCCn1ccnc1	
InChI=1S/C7H8N2/c1-2-3-5-9-6-4-8-7-9/h1,4,6-7H,3,5H2	InChI=1S/C7H8N2/c1-2-3-5-9-6-4-8-7-9/h1,4,6-7H,3,5H2
