13
gdb 131024	2.30863	1.73512	0.9906	4.2938	77.68	-0.2546	-0.0669	0.1878	1091.7513	0.089416	-415.609949	-415.602437	-415.601493	-415.642178	27.539	
O	-0.0640441643	 0.0010717986	 0.0002899409	-0.252036
C	-0.0015099302	 1.1947551925	 0.0083820053	 0.1822
N	 1.2017011951	 1.9281220187	 0.0001877028	-0.13041
N	 2.4121931891	 1.3191670109	-0.0179850811	-0.206894
C	 3.287881785	 2.3069648749	-0.0206165201	 0.02275
C	 2.6668343715	 3.5802981633	-0.0041850186	-0.346886
C	 1.3161650702	 3.3147120905	 0.0091416097	 0.317214
C	 0.2084097625	 4.1859873197	 0.0281317386	 0.246317
C	-0.7268296071	 4.9445049722	 0.0440757904	-0.432365
H	-0.8668931887	 1.876703054	 0.0232161029	 0.12337
H	 4.3449217823	 2.0829224781	-0.0342273927	 0.135139
H	 3.1285587589	 4.5537172309	-0.0022185529	 0.132005
H	-1.5516041244	 5.6141956256	 0.0574354548	 0.209594
135.6686	139.1544	154.5661	253.3677	264.8031	445.6435	451.3881	571.2801	593.7395	615.4247	660.5846	685.9194	695.376	832.1092	844.1623	919.6492	932.2232	1033.0785	1054.0529	1104.5111	1237.7158	1298.4275	1343.7214	1363.5868	1446.3364	1468.6507	1580.412	1850.0432	2232.1182	3019.1561	3245.1329	3280.2345	3497.0099
O=CN1N=CC=C1C#C	O=Cn1nccc1C#C	
InChI=1S/C6H4N2O/c1-2-6-3-4-7-8(6)5-9/h1,3-5H	InChI=1S/C6H4N2O/c1-2-6-3-4-7-8(6)5-9/h1,3-5H
