13
gdb 130862	3.91684	1.16772	0.89954	0.3387	70.34	-0.2569	-0.1048	0.152	1170.5325	0.09076	-452.791665	-452.784513	-452.783569	-452.82368	26.181	
O	-0.0510877247	-0.0232388587	-0.0007600292	-0.24486
C	-0.0042510051	 1.1817087664	 0.0087205651	 0.106273
C	 1.2649380005	 1.958801231	 0.0010542558	 0.211477
C	 1.2442207162	 3.3180295329	 0.012864038	-0.327342
C	 2.489044855	 4.0760869763	 0.005201618	 0.456685
O	 2.6095127542	 5.2863229397	 0.0146853494	-0.377382
N	 3.611738076	 3.2351005795	-0.0142404116	-0.264848
N	 3.6631254735	 1.8966896185	-0.0261968798	-0.18465
C	 2.5229792468	 1.2708709378	-0.0188831578	-0.049599
H	-0.9247452867	 1.8039536236	 0.0240943547	 0.09333
H	 0.3197689272	 3.8862334567	 0.0281077763	 0.141505
H	 4.5124005834	 3.6971543178	-0.0201814678	 0.282263
H	 2.5547306537	 0.1889311285	-0.0284377012	 0.157149
100.083	172.9286	194.9182	239.1108	392.4652	416.3629	465.373	562.4386	603.6886	662.6366	740.7442	755.3657	777.6614	918.2486	920.6507	933.8388	1029.1623	1041.3526	1134.8861	1175.8237	1239.2754	1333.7111	1411.2948	1418.6499	1446.9464	1584.6917	1652.1597	1791.184	1808.6086	2906.1048	3195.0619	3224.554	3588.9186
O=CC1=CC(=O)NN=C1	O=Cc1cc(=O)[nH]nc1	
InChI=1S/C5H4N2O2/c8-3-4-1-5(9)7-6-2-4/h1-3H,(H,7,9)	InChI=1S/C5H4N2O2/c8-3-4-1-5(9)7-6-2-4/h1-3H,(H,7,9)
