12
gdb 131987	4.82438	1.10197	0.89786	5.3288	63.08	-0.2619	-0.1039	0.158	1170.7077	0.077433	-505.84253	-505.835169	-505.834225	-505.874883	26.71	
N	-0.0259147676	 1.3678079914	 0.1493108035	-0.589258
C	 0.0437619782	-0.0007785318	 0.0409108941	 0.453777
N	-1.0545332257	-0.7389370376	 0.0056599116	-0.199562
O	-0.6226640775	-2.0683798789	-0.0166185337	-0.184633
C	 0.7044332848	-2.0593437798	-0.0107872297	 0.566495
C	 1.2212712768	-0.8081584174	 0.0253554125	-0.402082
N	 1.3810790737	-3.3378350231	-0.0377890233	 0.34506
O	 2.6055631982	-3.2881803038	-0.041747237	-0.355292
O	 0.6905886613	-4.3428780126	-0.0542573361	-0.332941
H	 0.7182817981	 1.8781652884	-0.3011863095	 0.266663
H	-0.9408016869	 1.749572957	-0.0470747044	 0.272042
H	 2.2574638966	-0.5205830616	 0.048754762	 0.159728
71.1782	156.7415	190.4253	303.0024	356.7096	380.9439	420.3853	549.6459	591.6976	598.8547	711.4841	726.3951	777.3573	836.4082	843.199	946.7809	992.7724	1034.788	1125.4231	1141.9168	1331.1512	1393.7836	1471.8955	1538.748	1633.6906	1646.9383	1669.513	3299.7724	3571.2338	3676.3827
NC1=NOC(=C1)N(=O)=O	Nc1noc(c1)N(=O)=O	
InChI=1S/C3H3N3O3/c4-2-1-3(6(7)8)9-5-2/h1H,(H2,4,5)	InChI=1S/C3H3N3O3/c4-2-1-3(6(7)8)9-5-2/h1H,(H2,4,5)
