15
gdb 49582	2.01406	1.74725	1.11596	3.1232	71.12	-0.2461	-0.0319	0.2143	1076.3352	0.109976	-420.549282	-420.541076	-420.540132	-420.582719	30.004	
O	 0.0021676321	-0.0941345426	 0.0479454422	-0.252736
C	 0.0227980847	 1.0895186525	-0.1785984519	 0.159059
C	 1.257951924	 1.945134576	-0.029968584	-0.143395
C	 1.5390808746	 2.9293060956	-1.1854005895	 0.002173
O	 0.4215641814	 3.8197197289	-1.265765033	-0.228357
C	 1.4375366516	 4.102519085	-0.3079617711	 0.023837
C	 1.1753120735	 3.2199422127	 0.9334127752	-0.245356
C	-0.0299447094	 3.4641901644	 1.698825367	 0.337939
C	-1.0309848425	 3.6633008459	 2.3335406147	-0.440485
H	-0.8770923012	 1.6340839657	-0.5268611752	 0.107261
H	 2.1094049895	 1.3130771793	 0.226365052	 0.104872
H	 2.1126124593	 2.7587297304	-2.0879756855	 0.124442
H	 1.9074922447	 5.0774847558	-0.3470578355	 0.122726
H	 2.0516032506	 3.2084262004	 1.5886445059	 0.122953
H	-1.9170878429	 3.8406646501	 2.8916373587	 0.205065
60.2554	106.6277	138.0599	185.8295	286.6929	348.411	433.1347	477.8132	525.9722	627.4196	634.8065	652.4185	752.6883	819.0987	842.009	869.4625	898.8783	944.0203	1004.2183	1044.6592	1052.2559	1081.8888	1093.6905	1173.0908	1227.0233	1230.895	1250.2238	1284.9939	1329.0526	1388.7427	1425.1229	1821.8358	2238.1366	2943.0602	3065.7358	3112.779	3192.7239	3207.7058	3502.2781
O=CC1C2OC2C1C#C	O=C[C@H]1[C@H]2O[C@H]2[C@H]1C#C	
InChI=1S/C7H6O2/c1-2-4-5(3-8)7-6(4)9-7/h1,3-7H	InChI=1S/C7H6O2/c1-2-4-5(3-8)7-6(4)9-7/h1,3-7H/t4-,5+,6-,7+/m0/s1
