18
gdb 72273	2.80567	1.86485	1.63983	0.5429	69.87	-0.2195	0.0779	0.2974	890.8772	0.150448	-439.038412	-439.031725	-439.03078	-439.068932	28.448	
O	 0.1723186967	 1.4042383293	-0.1105972673	-0.488565
C	 0.0407432261	 0.0244608867	-0.081678487	 0.440639
C	 0.4040157408	-0.7547227027	-1.3428655281	-0.310498
C	-0.5097193196	-1.8837837679	-0.7878072454	 0.080437
O	 0.1978052865	-2.7902796215	 0.0471007159	-0.267504
C	 1.0712583614	-2.0842130384	 0.9307617334	-0.099901
C	 0.4314392767	-0.7364947513	 1.2555736051	-0.105282
N	-1.0238927517	-0.9221084698	 1.5385039208	-0.319035
C	-1.2718126265	-0.7961387088	 0.0977878028	-0.089108
H	-0.2057160221	 1.7604546258	 0.701684433	 0.28852
H	-0.0467634806	-0.2745770683	-2.2162395365	 0.112607
H	 1.4477908783	-0.9961745911	-1.5589728494	 0.105268
H	-1.0887510072	-2.4804486056	-1.4916512112	 0.085563
H	 1.1832819656	-2.7033703981	 1.82800648	 0.108161
H	 2.0690574987	-1.9543635224	 0.4846451807	 0.099339
H	 0.9920704629	-0.1659873551	 2.0035230206	 0.070993
H	-1.2456586824	-1.840292496	 1.9223110381	 0.217568
H	-2.2680036835	-0.4930541248	-0.2317214555	 0.070797
231.2294	295.0116	318.6158	351.4392	399.7701	437.0705	470.3132	538.7989	629.0231	685.2932	697.9515	794.9744	839.1937	860.7777	894.4629	909.6914	976.1023	981.4364	995.4558	1032.3391	1047.7355	1066.3746	1077.6512	1137.5899	1141.1105	1167.5884	1193.8203	1206.8564	1236.9111	1250.8124	1263.5554	1311.4625	1336.0195	1345.9589	1370.7368	1397.6728	1401.6311	1484.4026	1518.8827	2988.2874	3051.8644	3059.6496	3061.428	3087.6932	3113.7519	3121.9069	3460.3319	3798.5886
OC12CC3OCC1NC23	O[C@@]12C[C@H]3OC[C@@H]1N[C@@H]23	
InChI=1S/C6H9NO2/c8-6-1-3-5(6)7-4(6)2-9-3/h3-5,7-8H,1-2H2	InChI=1S/C6H9NO2/c8-6-1-3-5(6)7-4(6)2-9-3/h3-5,7-8H,1-2H2/t3-,4+,5-,6+/m1/s1
