19
gdb 99329	2.99542	0.78056	0.67689	1.7817	77.55	-0.2437	0.0117	0.2554	1711.1598	0.157083	-456.368846	-456.358201	-456.357257	-456.40644	35.829	
C	 0.1444995149	 0.8843878762	-1.671531104	-0.332704
N	 0.2879864909	-0.5242801007	-1.362627045	-0.301563
C	 1.0338376518	-0.9695269399	-0.3233003724	 0.370995
O	 1.6678666181	-0.2673796474	 0.44384718	-0.375845
C	 1.0281375938	-2.4914999005	-0.1336696591	-0.19581
O	 0.3842265181	-3.199189303	-1.1879777439	-0.216294
C	 1.1789576159	-3.7012184242	-2.1656012592	 0.130454
N	 0.680694177	-4.0904356198	-3.2495114036	-0.208268
C	 1.57629649	-4.6728268713	-4.227992507	-0.316942
H	 0.7862091649	 1.4381581599	-0.9850278277	 0.16988
H	 0.4512000845	 1.0943681298	-2.7015656916	 0.129553
H	-0.8906597901	 1.2185473166	-1.5398321893	 0.130251
H	-0.2220156864	-1.2116167367	-1.8955227817	 0.271947
H	 2.0655193189	-2.8181140356	-0.0013528228	 0.138457
H	 0.4839052235	-2.7189878972	 0.7869044959	 0.151157
H	 2.2465342648	-3.7426395213	-1.8995664692	 0.089106
H	 1.5008142757	-4.116950395	-5.1690303711	 0.130742
H	 2.6331246378	-4.6874711996	-3.9164489922	 0.101336
H	 1.2664409458	-5.7020846403	-4.4406067161	 0.133549
30.3825	59.7169	84.5993	92.8224	153.0918	197.2748	221.2851	234.3069	292.306	339.5851	410.0762	467.5289	541.2589	617.5434	632.7612	666.7778	871.8266	977.6676	1005.8149	1032.5504	1080.0288	1103.6204	1141.4686	1153.4303	1155.6101	1176.1025	1201.3744	1268.2905	1305.924	1362.8093	1401.3307	1441.7157	1450.4954	1474.1047	1481.1085	1495.6306	1500.1626	1505.0903	1572.2024	1780.4438	1789.5347	2973.8047	2999.9128	3031.3862	3050.7487	3064.0083	3083.4618	3085.2885	3108.445	3152.3095	3632.2631
CNC(=O)COC=NC	CNC(=O)COC=NC	
InChI=1S/C5H10N2O2/c1-6-4-9-3-5(8)7-2/h4H,3H2,1-2H3,(H,7,8)	InChI=1S/C5H10N2O2/c1-6-4-9-3-5(8)7-2/h4H,3H2,1-2H3,(H,7,8)
