17
gdb 21996	2.46483	1.56225	0.96181	3.8013	84.01	-0.1691	0.0045	0.1736	1178.3214	0.137165	-418.008742	-418.000303	-417.999359	-418.041371	32.38	
C	 0.0985669769	 1.4782907052	 0.0733419838	-0.477394
C	 0.0142595241	-0.0187697602	 0.0341151557	 0.2093
C	-0.0963162152	-0.69369058	-1.1315329702	-0.073955
N	-0.1747719164	-2.0711477098	-1.1821017564	-0.344408
C	-0.1419385187	-2.8076874043	-0.0259476265	 0.010778
C	-0.0331779729	-2.2141670421	 1.1814054746	-0.222736
C	 0.0528965682	-0.7661994171	 1.2913654943	 0.290635
N	 0.1596238512	-0.0862353164	 2.3918997009	-0.279258
O	 0.1831597168	-0.9535156236	 3.5141625448	-0.412982
H	 1.0245413319	 1.7991210881	 0.5626568682	 0.138065
H	 0.0584311978	 1.908690103	-0.9311952413	 0.102045
H	-0.7181118925	 1.894354121	 0.6731007691	 0.138072
H	-0.1293991334	-0.190115547	-2.0901040219	 0.117209
H	-0.2562190815	-2.5326084932	-2.0702910018	 0.260353
H	-0.2085607968	-3.8817056574	-0.151494108	 0.125264
H	-0.0089043509	-2.8105889638	 2.0807220184	 0.122176
H	 0.2632463713	-0.3275544126	 4.2397599062	 0.296835
117.1701	188.5601	209.5389	224.4836	294.5359	320.1478	338.1025	357.6451	483.0132	500.4438	509.8711	542.7404	610.0463	727.9858	785.5302	818.2158	858.0944	859.9524	943.7531	978.4749	1006.3686	1051.2303	1065.8212	1152.3891	1184.2205	1253.4327	1285.8057	1350.0626	1414.9759	1425.4726	1442.5996	1463.3909	1492.8246	1524.5537	1637.6042	1653.7282	1719.5483	3032.396	3087.1269	3113.4858	3203.9779	3205.438	3255.0531	3682.7885	3835.8926
CC1=CNC=CC1=NO	Cc1c[nH]ccc1=NO	
InChI=1S/C6H8N2O/c1-5-4-7-3-2-6(5)8-9/h2-4,9H,1H3,(H,7,8)	InChI=1S/C6H8N2O/c1-5-4-7-3-2-6(5)8-9/h2-4,9H,1H3,(H,7,8)
