17
gdb 54222	2.19024	1.47009	1.33931	2.9798	69.85	-0.2465	-0.0523	0.1942	1074.1464	0.131563	-458.981121	-458.97156	-458.970616	-459.01608	33.696	
C	 0.2204417285	 1.230489666	-0.608825182	-0.477217
C	-0.045247844	 0.1088392532	 0.3693121717	 0.345595
O	 0.6871786371	-0.1563633742	 1.2921649317	-0.294808
C	-1.3094780214	-0.7368991807	 0.1389193105	 0.1696
C	-2.014024257	-1.0661953029	 1.4483206578	-0.427404
O	-2.1948948056	-0.1814420118	-0.8716010215	-0.317145
C	-2.0345495554	-1.2822286747	-1.7876743448	-0.196175
C	-1.076671839	-1.9534622141	-0.7999734	 0.308957
O	-0.4480951805	-2.9615368918	-0.7491897599	-0.256658
H	 1.1313860066	 1.7535177036	-0.3168322806	 0.143372
H	 0.3315190256	 0.8331404893	-1.6241308037	 0.141022
H	-0.6289522974	 1.9188918544	-0.6408512668	 0.157954
H	-2.4293272382	-0.1532424169	 1.8852636921	 0.136482
H	-2.8282683552	-1.7770952663	 1.2880057944	 0.123277
H	-1.2876088056	-1.4902391623	 2.1437151769	 0.164327
H	-2.9690927449	-1.8243318119	-1.9768360238	 0.141607
H	-1.5865151637	-0.9866117788	-2.7449121018	 0.137215
44.1439	101.4346	131.1753	150.689	187.1761	214.5623	250.7961	329.5277	426.4633	455.8607	474.9649	543.9886	602.0202	651.4876	717.5737	846.9282	881.1623	955.4075	973.4434	1012.4696	1026.8049	1036.3136	1124.8488	1136.1043	1142.3373	1188.8069	1238.4409	1297.7679	1384.7094	1392.0604	1453.0756	1466.4062	1479.2692	1482.4689	1488.7522	1805.2899	1927.9001	3020.9096	3044.3486	3050.0809	3068.941	3108.2884	3122.6297	3151.6478	3160.161
CC(=O)C1(C)OCC1=O	CC(=O)[C@@]1(C)OCC1=O	
InChI=1S/C6H8O3/c1-4(7)6(2)5(8)3-9-6/h3H2,1-2H3	InChI=1S/C6H8O3/c1-4(7)6(2)5(8)3-9-6/h3H2,1-2H3/t6-/m1/s1
