20
gdb 75640	2.04133	1.81501	1.17289	3.6916	80.83	-0.2269	0.0188	0.2457	1137.8965	0.168997	-403.158227	-403.148472	-403.147528	-403.192372	35.601	
C	 0.2834069062	 1.3598191361	 0.054321473	-0.353581
N	-0.2515030945	 0.0139567729	 0.030310808	-0.138173
C	-0.1095220785	-0.9105154147	-1.0097569861	 0.382789
O	-0.0610856983	-0.7629417885	-2.2015860047	-0.368585
C	-0.0127940586	-2.0783531961	-0.0301346298	 0.093246
C	-0.6279230564	-3.4377397397	-0.1762382628	-0.496701
C	 1.1854643707	-1.7560378382	 0.875255092	-0.372435
C	-0.1157978693	-1.0259339911	 1.0655184023	 0.324805
C	-0.9486295569	-0.9899269508	 2.3096469757	-0.484331
H	 1.3144929607	 1.3929951731	 0.4346995705	 0.116443
H	 0.2773125114	 1.7380610185	-0.9709007867	 0.156652
H	-0.3365461213	 2.0176254202	 0.6715543688	 0.126872
H	-0.1041949056	-4.0208844682	-0.9410261531	 0.139622
H	-0.5763261277	-3.9993943792	 0.7621999968	 0.118565
H	-1.6793415516	-3.3693495815	-0.473385111	 0.131229
H	 1.419964547	-2.5314261161	 1.6010384211	 0.117015
H	 2.0557245255	-1.2408555929	 0.4778321831	 0.12009
H	-0.6146057819	-0.1996009549	 2.9917460301	 0.127964
H	-2.0001752547	-0.8067205415	 2.0674195295	 0.131735
H	-0.8758242462	-1.9390565171	 2.8489107934	 0.126781
118.3746	142.1569	157.8288	169.4013	172.8075	201.6251	219.1564	255.6553	339.2115	370.9716	483.4113	551.5576	602.4649	668.6236	714.5133	759.4823	798.0356	900.7914	936.9605	954.5756	982.4265	1000.4829	1071.5802	1089.974	1109.9664	1149.369	1151.7824	1179.2379	1253.824	1333.9094	1345.0751	1396.8676	1416.658	1432.4067	1441.3945	1478.8519	1484.1434	1485.464	1496.6671	1497.8988	1508.0492	1512.2385	1877.3431	2999.6978	3030.8121	3032.8425	3074.4399	3092.0978	3097.8118	3101.6409	3106.7461	3113.3915	3126.7741	3191.783
CN1C(=O)C2(C)CC12C	CN1C(=O)[C@@]2(C)C[C@@]12C	
InChI=1S/C7H11NO/c1-6-4-7(6,2)8(3)5(6)9/h4H2,1-3H3	InChI=1S/C7H11NO/c1-6-4-7(6,2)8(3)5(6)9/h4H2,1-3H3/t6-,7-/m1/s1
