23
gdb 87890	3.76085	0.9925	0.90318	0.2695	92.58	-0.2231	0.037	0.2601	1427.9667	0.205382	-351.170112	-351.160673	-351.159729	-351.204521	36.249	
C	 0.2100661845	 1.5292228001	-0.3526399012	-0.40932
C	 0.1196970897	 0.0412441224	-0.0950607349	-0.035525
C	 1.367028621	-0.7995981973	 0.0368968855	-0.338204
C	 0.4812744408	-0.5662680741	 1.239214195	 0.362661
C	 0.9822447621	 0.2773092085	 2.4252016635	-0.342267
C	 0.6463572402	-0.5797233334	 3.6184853486	-0.166343
C	-0.0649474713	-1.6646086724	 3.3060789255	 0.338788
C	-0.5883627158	-2.7073469066	 4.2425171953	-0.489929
C	-0.3373610662	-1.7309021176	 1.8188340736	-0.384984
H	 1.078966132	 1.9712844551	 0.1449164434	 0.11629
H	 0.3052544556	 1.7357543157	-1.4245299012	 0.114087
H	-0.6808547131	 2.0563079435	 0.0082979746	 0.113922
H	-0.71355848	-0.4428072067	-0.6014983199	 0.074976
H	 1.3803367199	-1.7893339149	-0.4099088002	 0.101889
H	 2.3241605373	-0.285421644	 0.0073339973	 0.101908
H	 2.0558999461	 0.4965516192	 2.3575268041	 0.099656
H	 0.4773663244	 1.2529040994	 2.4853228069	 0.101891
H	 0.9435661062	-0.3094545912	 4.6269421225	 0.079458
H	-0.3110866019	-2.496071084	 5.2790329704	 0.120732
H	-1.6829892258	-2.7743796192	 4.1903185522	 0.121995
H	-0.2056701498	-3.7030679054	 3.9834446831	 0.122262
H	-1.4144703144	-1.6231034025	 1.6175013047	 0.09828
H	-0.0461772216	-2.6995353446	 1.3896581612	 0.097776
35.2058	151.5738	180.8898	189.6928	210.7564	247.3502	279.3172	390.83	418.3096	428.1973	441.6938	517.2912	633.8788	755.8055	803.9871	822.9848	872.0509	882.2563	915.1445	920.9627	956.0998	991.1569	1011.7157	1024.4584	1037.9406	1052.438	1080.9186	1095.9218	1128.8576	1169.3114	1184.4178	1189.7259	1209.947	1240.8658	1278.9931	1296.0585	1331.9567	1360.4475	1407.8466	1414.1172	1425.8741	1478.9193	1483.5276	1488.1521	1489.2788	1490.8725	1494.5522	1504.3149	1729.8532	2984.1873	2993.4633	3013.6744	3018.5174	3024.8278	3025.1707	3057.9008	3083.0355	3095.327	3107.6461	3108.8603	3120.0179	3179.4133	3193.5132
CC1CC11CC=C(C)C1	C[C@H]1C[C@]21CC=C(C)C2	
InChI=1S/C9H14/c1-7-3-4-9(5-7)6-8(9)2/h3,8H,4-6H2,1-2H3	InChI=1S/C9H14/c1-7-3-4-9(5-7)6-8(9)2/h3,8H,4-6H2,1-2H3/t8-,9-/m0/s1
