15
gdb 5831	2.96384	1.72165	1.41942	3.3339	62.29	-0.281	-0.0901	0.1909	921.2934	0.115012	-399.82246	-399.813279	-399.812335	-399.856441	32.184	
C	 0.0498650362	 1.4805986013	 0.1414493987	-0.443346
C	 0.0330797574	-0.0563514199	 0.1331650465	 0.231032
C	 0.7463084989	-0.6492847554	 1.3445908547	-0.404161
O	-1.2956571945	-0.5619718144	 0.1418089631	-0.446224
C	 0.7212648011	-0.5356485894	-1.1591766792	 0.296783
O	 1.8626685589	-0.8965004449	-1.2625335985	-0.274057
C	-0.167305434	-0.5051920711	-2.3511715371	 0.21887
N	-0.8518171225	-0.4306346645	-3.2805205829	-0.303749
H	 1.0732218843	 1.8641971491	 0.1787619958	 0.14345
H	-0.4340758523	 1.8887515123	-0.7534210224	 0.132564
H	-0.4941775852	 1.8362351715	 1.0209332691	 0.142852
H	 0.3081590583	-0.2440669516	 2.259537933	 0.127781
H	 0.6290118972	-1.7354565472	 1.3533472207	 0.139753
H	 1.8115092881	-0.4147115871	 1.3155021216	 0.140766
H	-1.8398051317	-0.0425435488	-0.461533833	 0.297685
33.1486	137.3751	182.275	203.0296	250.3103	277.8654	293.302	317.2045	351.1141	375.886	412.567	494.4684	603.2843	675.4466	758.9831	845.5604	943.4458	980.5326	1007.9629	1059.584	1129.8545	1214.8723	1244.6229	1371.1579	1396.8754	1416.6102	1475.3942	1481.9334	1494.2339	1505.0764	1806.6487	2332.4955	3032.8329	3059.9611	3105.4556	3126.6441	3135.9256	3150.7371	3799.5643
CC(C)(O)C(=O)C#N	CC(C)(O)C(=O)C#N	
InChI=1S/C5H7NO2/c1-5(2,8)4(7)3-6/h8H,1-2H3	InChI=1S/C5H7NO2/c1-5(2,8)4(7)3-6/h8H,1-2H3
