14
gdb 24094	7.71708	0.79289	0.72223	0.4192	70.29	-0.2223	-0.0027	0.2196	1454.7797	0.100108	-436.660776	-436.652706	-436.651762	-436.694742	28.622	
C	-0.0027920396	-1.1602145242	-0.0045685778	-0.408411
C	 0.0221746577	 0.0399312681	 0.0022403671	 0.298095
C	 0.0067556849	 1.4938245008	 0.0110268286	-0.244126
O	 1.3621061774	 1.9660247971	-0.0023324839	-0.274452
C	 1.5095458217	 3.3005535801	 0.0038067231	 0.361527
C	 2.6816145079	 3.9900017984	-0.0062341223	-0.156301
O	 2.3552782005	 5.3259278875	 0.0056516562	-0.135956
C	 1.0149562995	 5.352176934	 0.0219814573	 0.085175
N	 0.4480595156	 4.1850746732	 0.0218619777	-0.335637
H	-0.0208197028	-2.2220757886	-0.0106429547	 0.203607
H	-0.5315221176	 1.8831013793	-0.861578956	 0.148662
H	-0.5105206837	 1.8726760019	 0.9007533312	 0.14867
H	 3.7234787849	 3.7314512821	-0.0203370869	 0.152549
H	 0.5403149236	 6.3203515603	 0.0334627205	 0.156597
43.0394	63.2278	115.9598	233.4174	316.2889	339.1826	428.1332	514.299	612.1905	639.6624	671.9079	685.1222	736.5083	762.3672	829.5259	936.4321	974.1507	995.299	1016.8119	1061.0573	1084.8491	1166.8959	1250.2027	1250.4348	1333.0446	1348.6839	1394.4133	1491.8385	1546.0175	1656.9345	2251.5955	3028.6304	3061.0517	3278.9042	3318.5817	3505.8738
C#CCOC1=COC=N1	C#CCOc1cocn1	
InChI=1S/C6H5NO2/c1-2-3-9-6-4-8-5-7-6/h1,4-5H,3H2	InChI=1S/C6H5NO2/c1-2-3-9-6-4-8-5-7-6/h1,4-5H,3H2
