21
gdb 74670	2.76724	1.77863	1.41606	0.3024	86.17	-0.2106	0.0246	0.2352	1015.1386	0.185653	-349.970765	-349.963422	-349.962477	-350.002109	30.629	
C	-0.0435360387	 1.5061849461	 0.0445234083	-0.496535
C	-0.057981463	 0.0115597944	-0.0153673814	 0.325435
C	-0.0371796668	-0.7634720444	-1.1054428016	-0.185813
C	-0.0308890226	-2.2131228723	-0.7546912461	-0.078805
C	 1.0817278395	-2.7468258796	 0.1629287884	-0.040004
C	 2.1952921133	-1.8136427541	 0.6442083471	-0.23118
C	 1.5112494664	-0.9135353793	 1.7069022463	-0.193138
C	 0.0292383638	-0.8504435018	 1.2449610065	-0.140112
C	-0.2326375695	-2.289024547	 0.7398675685	-0.078537
H	 0.8478167226	 1.8873130453	 0.5590997484	 0.124485
H	-0.0668709619	 1.9485434925	-0.9553480017	 0.121693
H	-0.9084554477	 1.8859843043	 0.6044405989	 0.12164
H	-0.0082592835	-0.4010307057	-2.1274845006	 0.082039
H	-0.4963354047	-2.9317777791	-1.4215457569	 0.075958
H	 1.2955080523	-3.8070169738	 0.0785799243	 0.077818
H	 3.0276026653	-2.3822033728	 1.0685005999	 0.093099
H	 2.6028356743	-1.2100832781	-0.1734287391	 0.10218
H	 1.5603600291	-1.3933924635	 2.6913388219	 0.093245
H	 1.9794915754	 0.07226622	 1.7987966199	 0.089691
H	-0.6412573915	-0.517530789	 2.0435430764	 0.05992
H	-0.9466368221	-2.9482110319	 1.2181710627	 0.07692
141.7131	177.6804	244.2968	282.4824	331.4444	458.0111	531.1997	566.4218	665.3929	713.6769	723.6942	743.7957	809.9125	839.139	850.7204	864.43	897.0543	927.171	958.3509	972.9655	1007.7203	1015.8599	1025.098	1033.7585	1053.4341	1074.7259	1095.5018	1138.8674	1175.3227	1190.5391	1197.5601	1263.8452	1273.0062	1289.4632	1304.7068	1327.3555	1351.6076	1356.2813	1389.5615	1413.6703	1476.538	1483.7253	1489.4892	1496.4615	1704.2039	3012.5847	3031.1567	3047.7398	3055.7743	3057.4522	3075.2041	3091.5524	3106.1374	3153.9688	3162.8837	3181.8491	3187.9223
CC1=CC2C3CCC1C23	CC1=C[C@H]2[C@H]3CC[C@@H]1[C@@H]23	
InChI=1S/C9H12/c1-5-4-8-7-3-2-6(5)9(7)8/h4,6-9H,2-3H2,1H3	InChI=1S/C9H12/c1-5-4-8-7-3-2-6(5)9(7)8/h4,6-9H,2-3H2,1H3/t6-,7+,8-,9+/m0/s1
