16
gdb 48936	4.15381	1.3699	1.23392	3.0529	74.74	-0.2285	-0.0402	0.1883	1005.9938	0.1254	-400.716094	-400.709222	-400.708278	-400.747432	27.062	
O	-0.1745785057	 0.0837828279	 0.3521344473	-0.261039
C	-0.0000590894	 1.2115253221	-0.0435806301	 0.063472
C	 1.3103421772	 1.886415825	-0.0556754939	 0.238628
C	 2.5087151267	 1.5137530561	 0.7936239314	-0.303287
C	 2.8816259105	 3.0344174113	 0.7470365365	-0.057882
C	 3.7769487121	 3.2557582964	-0.4457075722	-0.081609
C	 3.0355302287	 3.1220512953	-1.5466461717	-0.071773
C	 1.6196043906	 2.9397663248	-1.127022006	-0.113407
N	 1.4590199271	 3.3719617974	 0.2601936748	-0.162845
H	-0.8362490281	 1.8300222033	-0.4421169076	 0.077383
H	 2.172737017	 1.2100107584	 1.7863057404	 0.133706
H	 3.2363413744	 0.794752033	 0.4106051138	 0.11202
H	 3.1507185692	 3.521885173	 1.6818803257	 0.092405
H	 4.8538248739	 3.3432496281	-0.3840138518	 0.114653
H	 3.3650162445	 3.1141577048	-2.5765416038	 0.11568
H	 0.799462451	 3.1910652231	-1.7928896227	 0.103895
99.6831	174.1653	247.7388	361.537	394.4479	445.7374	537.523	694.9508	712.5618	745.7578	758.1008	802.9974	816.1486	861.4832	874.618	938.154	950.8095	983.904	1009.6538	1023.0927	1059.3288	1095.0074	1109.2852	1144.4738	1191.8657	1230.8386	1234.4608	1289.366	1322.9785	1349.8184	1382.6479	1424.8762	1487.9481	1652.7507	1803.6612	2875.1537	3071.8742	3130.1564	3137.9111	3160.779	3215.3437	3240.4344
O=CC12CC3C=CC1N23	O=C[C@@]12C[C@H]3C=C[C@@H]1N23	
InChI=1S/C7H7NO/c9-4-7-3-5-1-2-6(7)8(5)7/h1-2,4-6H,3H2	InChI=1S/C7H7NO/c9-4-7-3-5-1-2-6(7)8(5)7/h1-2,4-6H,3H2/t5-,6+,7+,8?/m1/s1
