12
gdb 27985	3.87973	1.24763	0.94405	5.1521	59.28	-0.2278	-0.0365	0.1913	1111.3781	0.07634	-509.821133	-509.813298	-509.812354	-509.853823	27.687	
O	 0.0431656774	 1.337085174	 0.0080993195	-0.409827
C	-0.0633916774	 0.0097697085	 0.0011082478	 0.415738
C	-1.128067368	-0.7936667693	 0.0025707202	-0.256615
N	-0.6111615753	-2.1197212291	-0.0078739947	-0.181766
C	-1.3878995097	-3.2805973534	-0.0103193922	 0.172333
O	-0.9645284379	-4.4015377989	-0.0191097612	-0.259195
C	 0.7891490861	-2.069990514	-0.0153038436	 0.524732
O	 1.6054623151	-2.933338287	-0.0251399268	-0.336224
O	 1.1049274071	-0.7072255608	-0.0095733427	-0.258332
H	 0.979746135	 1.5706030892	 0.0030947211	 0.324058
H	-2.1805935794	-0.5803539047	 0.0096679093	 0.165615
H	-2.463377523	-3.0207603444	-0.0028779966	 0.099483
92.5815	168.9338	196.9035	200.0283	213.2426	343.6269	357.3116	464.2173	562.3141	624.6005	645.2185	676.3409	762.3112	793.2444	843.8038	970.7456	1022.9705	1058.9916	1171.2148	1217.5572	1248.6031	1374.8221	1415.2424	1445.2281	1793.6972	1825.8457	1940.5567	2957.8287	3309.849	3811.6924
OC1=CN(C=O)C(=O)O1	Oc1cn(C=O)c(=O)o1	
InChI=1S/C4H3NO4/c6-2-5-1-3(7)9-4(5)8/h1-2,7H	InChI=1S/C4H3NO4/c6-2-5-1-3(7)9-4(5)8/h1-2,7H
