24
gdb 120737	3.47082	0.77396	0.70158	2.7223	86.77	-0.2472	0.0673	0.3145	1751.32	0.216798	-405.534609	-405.524072	-405.523128	-405.570637	39.107	
C	-0.2638055052	 1.5140831022	 0.0638667512	-0.381249
C	-0.2086955812	 0.0030399932	-0.1736683978	-0.158311
C	 1.016998057	-0.4290359302	-0.9897662204	-0.199323
C	 1.0721569903	-1.9264746253	-1.1976081162	-0.009543
N	 0.19019897	-2.5220963039	-2.2239788431	-0.358255
C	 1.6531160428	-2.610092909	-2.3845303964	-0.055541
C	 2.2016424117	-1.8995803355	-3.6250024431	 0.129354
C	 2.5400900039	-2.9125896522	-4.7246709336	-0.391178
O	 1.2829781891	-0.9328144874	-4.103188116	-0.433353
H	 0.618003642	 1.8617609493	 0.6139190603	 0.111496
H	-0.2964597228	 2.0613511117	-0.8845697679	 0.119053
H	-1.1492031522	 1.7960547173	 0.6423633317	 0.109264
H	-0.2092874997	-0.5208663243	 0.7921774503	 0.085677
H	-1.1141920285	-0.3238335454	-0.6995317164	 0.105144
H	 1.0212628767	 0.0733613431	-1.9607138993	 0.127418
H	 1.933348957	-0.1198624793	-0.4676707307	 0.091136
H	 1.1487470793	-2.4935614004	-0.2685617203	 0.080691
H	-0.2133669916	-3.4012339414	-1.91796403	 0.235741
H	 2.1169351193	-3.5767322822	-2.1941537234	 0.08185
H	 3.1177077697	-1.3592383256	-3.3488141002	 0.083287
H	 1.654393852	-3.4999766772	-4.9911073649	 0.113219
H	 2.8824167997	-2.3865772776	-5.6194469462	 0.123042
H	 3.3289186357	-3.602395213	-4.403499922	 0.103415
H	 0.4104964953	-1.2634955167	-3.8335761155	 0.286966
57.9847	75.4821	94.1818	134.8687	212.6324	240.9556	251.6868	281.6625	294.5263	344.9812	413.9447	474.0041	565.8473	572.6596	639.8676	750.8043	773.3366	820.3826	880.7744	898.1327	902.5341	929.9968	966.3856	1010.8311	1045.3279	1056.4841	1063.6953	1092.4034	1121.152	1134.8676	1157.121	1196.3806	1236.6976	1270.8124	1286.5672	1304.4465	1310.8125	1334.5788	1356.7572	1387.4803	1400.2326	1412.4933	1417.3413	1453.2258	1472.7752	1488.1053	1495.135	1495.846	1496.9911	1498.9912	1512.1365	3010.4524	3012.1074	3016.9038	3028.4586	3029.2735	3052.163	3086.4805	3095.3891	3097.1124	3100.92	3109.1081	3119.1098	3122.1501	3526.3663	3669.8165
CCCC1NC1C(C)O	CCC[C@H]1N[C@H]1[C@@H](C)O	
InChI=1S/C7H15NO/c1-3-4-6-7(8-6)5(2)9/h5-9H,3-4H2,1-2H3	InChI=1S/C7H15NO/c1-3-4-6-7(8-6)5(2)9/h5-9H,3-4H2,1-2H3/t5-,6-,7+/m1/s1
