17
gdb 39185	2.26484	1.80581	1.61555	1.9451	72.99	-0.2446	-0.027	0.2177	943.4892	0.137269	-421.828121	-421.820854	-421.81991	-421.859807	28.41	
C	 0.2031857391	 1.4219137275	-0.006975128	-0.20842
C	 1.6091837571	 2.0151722686	-0.2587104333	-0.278816
C	 2.5549377208	 1.3075241152	-1.2046230481	-0.054954
C	 2.6729435912	-0.0064801698	-1.4165508028	-0.047047
O	 1.9544883317	-0.9383448341	 1.7510724383	-0.288559
C	 1.4507316669	-0.7249837342	 0.6934567888	 0.368941
C	 0.1433171176	-0.0956976508	 0.1821240233	-0.02166
O	 0.3626253436	-0.7811260367	-1.0775631293	-0.292086
C	 1.7685754048	-1.031855497	-0.7907506349	-0.069114
H	-0.2265342808	 1.9128851604	 0.8732603548	 0.110245
H	-0.4521015835	 1.6461071038	-0.8555559118	 0.127029
H	 1.4815867393	 3.0480597517	-0.5997946191	 0.111706
H	 2.1275858328	 2.098449229	 0.7086506654	 0.138195
H	 3.2558146458	 1.9639834143	-1.7158825872	 0.101895
H	 3.4560598609	-0.3729174828	-2.0734025418	 0.097125
H	-0.7861580362	-0.4123401898	 0.6670135121	 0.103346
H	 2.057439569	-2.0583730655	-1.0326065462	 0.102174
110.9174	150.8039	204.7191	321.3595	392.144	434.3045	459.3764	508.5808	615.6185	705.9114	744.8997	765.2414	802.5694	879.0444	881.3442	910.3661	959.4365	981.0012	987.9286	1021.9867	1061.5395	1074.0447	1097.9538	1168.8158	1206.0144	1235.7088	1265.6917	1276.89	1304.5351	1341.861	1370.5549	1381.1524	1414.9482	1464.079	1475.5491	1701.4747	1920.4811	3000.9371	3038.1408	3060.5627	3065.3578	3078.6706	3087.5702	3146.8597	3177.059
C1CC2C3OC22C1OC32	C1CC=C[C@H]2C(=O)[C@@H]1O2	
InChI=1S/C7H8O2/c1-2-4-7-3(1)5(9-7)6(7)8-4/h3-6H,1-2H2	InChI=1S/C7H8O2/c8-7-5-3-1-2-4-6(7)9-5/h1,3,5-6H,2,4H2/t5-,6+/m0/s1
