18
gdb 112357	3.39397	1.14866	0.89163	2.504	74.1	-0.2752	-0.0146	0.2607	1293.7426	0.14785	-439.153437	-439.144813	-439.143869	-439.187374	31.679	
C	-0.0648576904	 1.6335579977	-0.2275123698	-0.395047
C	 0.0412315166	 0.1163433363	-0.0501190148	-0.190613
C	-1.3063179216	-0.5839554052	 0.1848108178	-0.139183
C	-1.2750645176	-2.1192044975	 0.1444017164	-0.329778
C	-2.2655287426	-2.5347097339	 1.2039490592	 0.405341
N	-2.7916017646	-3.6652106401	 1.3509864545	-0.514221
O	-2.5101109182	-1.4511797285	 2.0385844629	-0.213756
C	-1.9245424303	-0.2956028384	 1.5510230498	 0.433772
O	-1.9625933011	 0.7219567872	 2.1718707528	-0.311998
H	 0.9241480722	 2.0706697927	-0.3933323026	 0.116098
H	-0.6880594994	 1.8836293636	-1.093555253	 0.113555
H	-0.5076487867	 2.1004392419	 0.6542923096	 0.156282
H	 0.4941872716	-0.3297992667	-0.9437286321	 0.10701
H	 0.7129497501	-0.1194233485	 0.7847438007	 0.110006
H	-2.0323605381	-0.2111574452	-0.5512541152	 0.12324
H	-1.5298444425	-2.5560818205	-0.8213168679	 0.147724
H	-0.28318281	-2.4937746227	 0.4243066476	 0.144435
H	-3.4171615874	-3.6787559922	 2.1581357842	 0.237133
50.9206	115.7872	134.177	190.7692	245.04	304.9002	343.6942	403.0356	515.1954	548.5037	628.1203	635.8865	717.7049	757.199	824.1784	883.2794	913.7876	939.2636	955.6097	1024.6133	1052.2798	1077.3531	1106.4503	1140.1724	1145.4061	1189.6394	1262.0923	1283.6266	1308.1805	1327.717	1358.7902	1375.8659	1415.0414	1473.5923	1488.2877	1498.1414	1514.466	1793.6377	1903.6772	3016.3939	3027.1906	3039.0771	3049.29	3062.4848	3103.6237	3132.495	3141.166	3480.7118
CCC1CC(=N)OC1=O	CC[C@H]1C[C]([NH])OC1=O	
InChI=1S/C6H9NO2/c1-2-4-3-5(7)9-6(4)8/h4,7H,2-3H2,1H3	InChI=1S/C6H9NO2/c1-2-4-3-5(7)9-6(4)8/h4,7H,2-3H2,1H3/t4-/m0/s1
