20
gdb 49559	3.03677	1.31464	1.22191	4.3187	80.51	-0.2318	0.0343	0.2661	1118.3422	0.174034	-403.169624	-403.161903	-403.160958	-403.202402	30.114	
O	-0.0130770993	-0.0144419343	-0.1559678818	-0.342035
C	 0.03507676	 1.1916248855	-0.0123799752	 0.119328
N	 1.1557020638	 1.8996348978	 0.249778437	-0.016342
C	 2.5677321191	 1.5179430707	 0.0236624402	-0.011424
C	 2.6988278993	 2.8167265068	-0.8279574957	-0.233801
C	 1.4973645547	 3.3217711045	 0.0246198914	-0.021411
C	 1.9733159598	 3.8936687223	 1.3688286885	-0.194184
C	 3.234257476	 3.1291280777	 1.8589526323	-0.210255
C	 3.2963163865	 1.6562306813	 1.36719993	-0.201158
H	-0.8603534295	 1.8471979651	-0.0567933795	 0.061078
H	 2.6966590371	 0.5479909617	-0.4572944178	 0.104949
H	 3.6348894372	 3.3767965409	-0.7842176623	 0.1041
H	 2.4095599731	 2.6443400037	-1.8659462505	 0.115543
H	 0.7191622663	 3.9203083827	-0.4555895939	 0.084116
H	 2.2000396576	 4.9613807322	 1.2724144639	 0.099282
H	 1.1504462874	 3.8017752255	 2.0855230953	 0.109958
H	 4.1195527636	 3.6544222112	 1.4867832516	 0.107788
H	 3.3026905317	 3.169989933	 2.9494770961	 0.104277
H	 2.8183004664	 0.9777900613	 2.0807428976	 0.120249
H	 4.3412750191	 1.3412436103	 1.271583513	 0.099943
41.828	168.4118	205.0143	274.8782	316.1505	378.2228	428.2188	529.5177	593.8369	611.211	771.1842	793.6294	815.9657	832.8329	878.2824	899.6108	923.1931	940.6203	1027.4122	1045.6496	1047.7168	1077.8713	1087.9362	1097.3292	1106.2612	1184.305	1208.8004	1232.8141	1247.9224	1259.6962	1310.6358	1316.3783	1325.8946	1351.9332	1373.2371	1377.4712	1407.3419	1444.407	1481.4239	1482.4019	1489.1905	1514.9158	1781.089	2907.4182	3036.9649	3041.1572	3051.1396	3074.2989	3075.6406	3083.5765	3084.3373	3099.5842	3117.8048	3137.492
O=CN1C2CC1CCC2	O=CN1[C@H]2C[C@@H]1CCC2	
InChI=1S/C7H11NO/c9-5-8-6-2-1-3-7(8)4-6/h5-7H,1-4H2	InChI=1S/C7H11NO/c9-5-8-6-2-1-3-7(8)4-6/h5-7H,1-4H2/t6-,7+
