14
gdb 125117	2.35618	1.91112	1.06207	2.2038	71.06	-0.2413	-0.0895	0.1518	1042.855	0.099549	-469.974928	-469.966862	-469.965918	-470.007692	29.664	
C	-0.0181442266	 1.5669135692	 0.032480668	-0.488278
C	 0.0015358089	 0.0731354544	-0.0201308244	 0.080424
C	-0.0161946322	-0.6547916294	-1.1566618812	 0.396468
O	-0.0541115203	-0.1076697925	-2.3833020146	-0.406547
N	 0.0030785498	-2.0490780914	-1.1704520296	-0.213885
N	 0.038132824	-2.729774665	-0.1380968696	 0.054567
O	 0.059448804	-2.0662223163	 1.1039411848	-0.27693
C	 0.0429009536	-0.6755042452	 1.2221240737	 0.380762
N	 0.0641496961	-0.1311999189	 2.3673579097	-0.527136
H	 0.8680160204	 1.9362970846	 0.5588043514	 0.156629
H	-0.0536994037	 1.9963918678	-0.9687944685	 0.141685
H	-0.881649741	 1.9112096694	 0.6107549026	 0.156771
H	-0.0602432013	-0.8323683996	-3.0234308854	 0.313571
H	 0.0924812084	-0.8313936572	 3.108558823	 0.2319
104.3924	120.1883	140.3754	271.9948	274.2559	342.2365	456.6931	498.8036	499.8016	515.8989	534.5531	656.4336	673.9231	755.2293	807.5796	849.5225	912.4985	923.5571	1018.8769	1056.0857	1098.3655	1196.7796	1290.1088	1313.1454	1393.4289	1420.1127	1472.5031	1477.0025	1585.6428	1720.8359	1741.5423	3047.0017	3098.9395	3154.8237	3496.5467	3777.2316
CC1=C(O)N=NOC1=N	CC1=C(O[N]N=C1O)[NH]	
InChI=1S/C4H5N3O2/c1-2-3(5)9-7-6-4(2)8/h5,8H,1H3	InChI=1S/C4H5N3O2/c1-2-3(5)9-7-6-4(2)8/h5,8H,1H3
