17
gdb 44776	2.39268	2.17836	1.58405	3.5189	72.42	-0.2409	-0.0126	0.2282	890.9524	0.137053	-421.735888	-421.729209	-421.728265	-421.766669	27.58	
O	 0.1320575302	 0.1131824736	 0.1024237314	-0.343959
C	 0.0484143992	 1.3078270482	 0.0338726256	 0.437225
C	-1.2066240129	 2.1936321323	 0.034143543	-0.32552
C	-0.4855972378	 3.5316961827	-0.093967349	-0.109589
C	 0.6954843342	 3.3799785445	 0.9956681868	-0.333255
C	 1.2123782207	 2.3135320087	-0.0621815302	 0.100338
C	 2.1522611573	 1.8391064743	-1.1984632014	-0.191345
O	 1.140971929	 2.3614061162	-2.160341571	-0.322536
C	 0.7146777939	 3.2713455226	-1.0850770471	 0.146913
H	-1.8534670605	 1.9463589348	-0.8124698283	 0.138706
H	-1.7848007407	 2.0882755586	 0.9564755342	 0.126499
H	-1.0813804171	 4.4423762629	-0.142170082	 0.084534
H	 1.3294639095	 4.2631553285	 1.0670843368	 0.127669
H	 0.4032837842	 3.0323458288	 1.989575352	 0.121537
H	 3.0975858175	 2.3791335233	-1.3076196399	 0.113704
H	 2.2808630843	 0.7597979572	-1.2976925719	 0.14193
H	 1.3053377589	 4.1903989829	-1.1767455092	 0.087147
142.561	229.9008	303.4344	374.2103	423.5649	494.5297	566.3544	604.0865	622.9208	709.1716	777.1275	792.0313	800.7582	864.6846	890.7489	923.2455	969.6178	988.9329	998.9573	1008.8396	1036.9171	1073.3103	1108.7018	1130.3611	1144.0496	1176.2007	1201.4623	1216.5178	1241.6727	1267.1604	1286.3437	1318.0327	1401.5024	1461.1251	1495.288	1500.0202	1870.3379	3029.6909	3054.0618	3063.2491	3073.2197	3110.7451	3126.1396	3135.5303	3152.0144
O=C1CC2CC11COC21	O=C1C[C@H]2C[C@]31CO[C@@H]23	
InChI=1S/C7H8O2/c8-5-1-4-2-7(5)3-9-6(4)7/h4,6H,1-3H2	InChI=1S/C7H8O2/c8-5-1-4-2-7(5)3-9-6(4)7/h4,6H,1-3H2/t4-,6-,7+/m0/s1
