21
gdb 95004	2.98237	1.64184	1.34138	1.2115	81.96	-0.2409	0.0893	0.3302	1037.7324	0.185185	-387.050619	-387.043268	-387.042324	-387.082116	30.256	
C	-0.2263980327	 1.5769852191	 0.00410053	-0.398803
C	 0.036325732	 0.06809433	-0.0400939817	 0.090748
O	 0.7248021324	-0.3068043906	-1.2317826129	-0.266784
C	 2.1383049715	-0.2674109019	-1.1325298017	-0.120072
C	 2.6343686173	-0.7571083146	 0.2180848715	 0.002092
C	 1.68068582	-1.6967321826	 1.0270036156	-0.066386
C	 2.4277644368	-1.2405675495	 2.3086851159	-0.237258
C	 2.2137521771	 0.0537482343	 1.4819064572	-0.065266
C	 0.7602598538	-0.4442522394	 1.2004730624	 0.007017
H	 0.709488242	 2.1424517179	 0.057831555	 0.116396
H	-0.7657317479	 1.8918104986	-0.8933596811	 0.121426
H	-0.8285088197	 1.8406947232	 0.880373671	 0.111032
H	-0.9286604358	-0.4505613389	-0.1123909917	 0.079781
H	 2.5087839796	-0.9140229784	-1.9359941408	 0.105251
H	 2.5261059652	 0.7475060999	-1.3288038166	 0.085194
H	 3.6875663653	-1.0553412561	 0.1838991727	 0.061634
H	 1.3705700617	-2.7084162496	 0.7614696254	 0.071246
H	 1.8750212201	-1.3170395664	 3.2496502321	 0.087678
H	 3.4609593067	-1.5826367513	 2.419982515	 0.087682
H	 2.5274774609	 1.0656964236	 1.745300816	 0.066059
H	 0.0984549139	-0.4570875871	 2.0730826268	 0.061333
127.0235	182.6978	227.3458	303.3907	356.9554	436.8724	464.4275	490.2673	622.1882	733.7222	783.5159	802.6745	831.5646	845.8987	879.8478	905.0827	928.7445	969.3303	1006.1902	1021.5347	1027.4552	1048.0189	1064.8984	1072.3712	1107.8339	1118.6171	1122.7397	1152.3459	1174.0676	1192.3893	1208.9276	1237.9488	1246.0244	1261.2153	1286.839	1343.5597	1356.223	1380.1203	1397.2737	1401.8266	1425.3334	1487.9527	1496.3087	1511.3611	1516.4839	2951.3352	3016.8907	3035.1811	3042.047	3047.9984	3051.7578	3060.5737	3091.4187	3103.5567	3103.8754	3107.3483	3117.4765
CC1OCC2C3CC2C13	C[C@H]1OC[C@@H]2[C@H]3C[C@@H]2[C@@H]13	
InChI=1S/C8H12O/c1-4-8-5-2-6(8)7(5)3-9-4/h4-8H,2-3H2,1H3	InChI=1S/C8H12O/c1-4-8-5-2-6(8)7(5)3-9-4/h4-8H,2-3H2,1H3/t4-,5-,6+,7-,8+/m1/s1
