20
gdb 37039	2.90916	1.73834	1.3674	1.5141	83.1	-0.2292	0.0347	0.2639	1009.7029	0.174059	-365.989906	-365.982706	-365.981762	-366.02114	30.001	
C	-0.040343162	 1.5424248123	-0.008052671	-0.304807
C	 1.5295045623	 1.5853625067	-0.0229047031	-0.304812
C	 1.5366740002	 0.053058325	 0.1091240041	 0.284677
C	 2.3804724879	-0.8460528294	 0.9684296598	-0.353731
C	 1.5220422575	-1.8798392696	 1.666851568	-0.039979
C	 0.1883551165	-1.9163298229	 1.67941662	-0.039977
C	-0.7383140208	-0.93139225	 0.9978081697	-0.353725
C	 0.0387338361	 0.0120831252	 0.1232467894	 0.284667
N	 0.7936890001	-0.5668608125	-0.9886809105	-0.384894
H	-0.4546863842	 2.0321749705	 0.8771397285	 0.105313
H	-0.5656146756	 1.9223696331	-0.8915882658	 0.093449
H	 2.0164281816	 1.9929653505	-0.9160293278	 0.093451
H	 1.9331225114	 2.0975061119	 0.8545346416	 0.10531
H	 3.1631417261	-1.3472424287	 0.3827271966	 0.110481
H	 2.9094735412	-0.24560141	 1.722519854	 0.105505
H	 2.067246366	-2.6519918823	 2.2049452286	 0.082096
H	-0.3035884228	-2.7168572124	 2.2272846085	 0.082096
H	-1.5032800209	-1.4749357696	 0.4266700922	 0.110482
H	-1.2850841527	-0.3603899843	 1.7620289404	 0.105504
H	 0.769772422	 0.0207518365	-1.8202322431	 0.218895
117.1129	207.0909	312.7682	328.9274	399.0448	412.0297	489.6034	539.4557	562.5856	675.3413	718.3133	751.7257	778.604	841.8785	859.5944	889.2359	933.0162	948.2022	965.2688	970.4791	1007.4842	1015.8174	1069.1953	1086.1191	1135.0544	1144.3925	1175.7158	1195.1583	1225.3198	1235.3106	1240.9323	1243.2619	1264.5795	1291.0076	1364.4101	1393.9195	1413.0364	1456.9424	1470.6478	1472.3664	1479.5339	1505.0665	1717.7688	3003.4933	3003.6729	3028.7151	3028.9303	3033.1886	3041.7091	3088.36	3106.2184	3139.3034	3162.9407	3463.3214
C1CC23CC=CCC12N3	C1C[C@@]23CC=CC[C@@]12N3	
InChI=1S/C8H11N/c1-2-4-8-6-5-7(8,3-1)9-8/h1-2,9H,3-6H2	InChI=1S/C8H11N/c1-2-4-8-6-5-7(8,3-1)9-8/h1-2,9H,3-6H2/t7-,8+
