15
gdb 19680	5.85953	1.53353	1.44081	2.2299	65.43	-0.252	-0.0258	0.2261	861.8352	0.119645	-362.594994	-362.588728	-362.587784	-362.625619	24.021	
O	 0.0919221821	-0.053876549	 0.0016336196	-0.259352
C	 0.0840757669	 1.1502249199	-0.0392689211	 0.157623
C	 1.3117572479	 2.0166868059	-0.0244230308	-0.105754
C	 1.2674222558	 3.0597790732	-1.1516774787	-0.045205
C	 0.5660114396	 4.0527560128	-0.2988311796	-0.052469
C	 1.1328977	 3.2461330498	 0.9311241595	-0.099904
C	 2.43001458	 4.0304212241	 0.6771144428	-0.153374
N	 1.96811871	 4.3176814848	-0.7190465337	-0.146987
H	-0.8731456652	 1.7199282483	-0.0917006631	 0.074267
H	 2.2055849056	 1.3989912436	 0.0978894529	 0.090588
H	 1.2002197912	 2.8886609727	-2.2173844049	 0.114817
H	-0.2631388817	 4.7269744724	-0.4626013718	 0.108939
H	 0.6921097607	 3.1194770602	 1.918011477	 0.09104
H	 2.4742076539	 4.974912674	 1.2248181447	 0.117899
H	 3.3859608532	 3.5013771573	 0.7594613075	 0.107873
93.5566	171.9344	295.2879	406.8475	463.021	505.0118	748.3144	761.8417	796.5157	826.7961	849.0569	919.7768	941.9028	968.4743	982.4852	999.6907	1017.7927	1060.4876	1075.8465	1124.4711	1145.9273	1167.3928	1177.7455	1203.0191	1222.7441	1249.2133	1290.7592	1299.6899	1327.7512	1428.9877	1509.8398	1826.5381	2858.716	3042.5545	3081.6771	3110.3571	3138.0663	3207.4338	3220.7714
O=CC1C2C3C1CN23	O=C[C@H]1[C@H]2[C@H]3[C@@H]1CN23	
InChI=1S/C6H7NO/c8-2-4-3-1-7-5(3)6(4)7/h2-6H,1H2	InChI=1S/C6H7NO/c8-2-4-3-1-7-5(3)6(4)7/h2-6H,1H2/t3-,4-,5-,6+,7?/m1/s1
