18
gdb 127635	2.47561	1.7897	1.05228	1.3292	84.95	-0.2042	-0.0428	0.1615	1127.5037	0.149096	-398.151823	-398.143488	-398.142544	-398.184521	31.713	
C	-0.0187829514	 1.4144708831	-0.0410456309	-0.336481
N	-0.0041275806	-0.0378392217	-0.0031261649	-0.064877
N	-0.0299588434	-0.6337698039	-1.2126010491	-0.214808
C	-0.0184560954	-1.9323712225	-1.239328039	-0.003148
C	 0.0196801268	-2.7386737006	-0.0624075736	-0.218295
C	 0.0457878254	-2.1516459188	 1.1584688962	 0.281035
C	 0.0862171987	-2.9074089071	 2.4485825729	-0.468693
C	 0.0341735061	-0.6904352661	 1.2423792379	 0.315735
N	 0.058267421	-0.1059524558	 2.3901318053	-0.569419
H	 0.8793838924	 1.8257270015	 0.4342833077	 0.140654
H	-0.0485507042	 1.7116505853	-1.087212983	 0.155881
H	-0.8988414211	 1.8089964501	 0.4801307704	 0.140651
H	-0.0399664623	-2.3767466894	-2.2282526339	 0.121115
H	 0.0274309027	-3.8198101682	-0.1578884399	 0.104268
H	 0.0936590921	-3.9862595927	 2.2761515443	 0.110902
H	 0.9699112189	-2.6224966249	 3.0287225387	 0.149759
H	-0.7736586256	-2.6417605197	 3.0721083771	 0.149674
H	 0.0468048597	 0.9078663617	 2.3163175338	 0.206048
92.3365	165.8255	202.3875	226.908	251.3967	298.4879	372.4391	428.6441	497.2269	523.6633	554.7142	598.5449	706.1178	759.6215	777.7665	864.4394	884.5506	917.5348	940.0528	1001.0583	1047.0323	1066.6223	1106.8598	1147.1679	1191.1916	1273.921	1278.1155	1312.1028	1395.9541	1406.4425	1419.4454	1440.5687	1460.6527	1477.6499	1482.9351	1510.7746	1591.9898	1641.1276	1691.0708	3023.5024	3040.9695	3076.7477	3097.5124	3128.2737	3174.8899	3177.1046	3196.0197	3525.0059
CN1N=CC=C(C)C1=N	CN1N=CCC(=C1[NH])C	
InChI=1S/C6H9N3/c1-5-3-4-8-9(2)6(5)7/h3-4,7H,1-2H3	InChI=1S/C6H10N3/c1-5-3-4-8-9(2)6(5)7/h4,7H,3H2,1-2H3
