21
gdb 101905	6.04079	0.48143	0.4634	2.5734	76.94	-0.2519	-0.0238	0.2281	2279.2437	0.179588	-461.367209	-461.356374	-461.35543	-461.404729	37.726	
O	 0.1530510246	 1.4148173524	 0.0054336334	-0.423107
C	 0.1322470185	 0.0053966065	 0.0278151569	-0.061652
C	-1.3018185523	-0.5215722085	 0.1174200969	 0.092473
O	-2.081551738	 0.0796663386	-0.9260924132	-0.43736
C	-1.3872332324	-2.0477843509	 0.0948215734	-0.21288
C	-2.8173592125	-2.5745586335	 0.2582824665	-0.190047
C	-2.9044968089	-4.1072800628	 0.1702105841	-0.277182
C	-4.3344084972	-4.5941251242	 0.2345356251	 0.160641
O	-4.7578541057	-5.3982764603	 1.0234631474	-0.23521
H	-0.590127468	 1.6723520242	-0.5559338998	 0.284938
H	 0.6148309461	-0.4216326606	-0.8720548838	 0.070099
H	 0.7156210097	-0.3218994922	 0.8955995792	 0.108724
H	-1.7513446193	-0.1364399012	 1.0407520772	 0.100937
H	-1.7806694676	-0.2922510642	-1.7645556723	 0.281582
H	-0.9621524999	-2.4162714007	-0.8513725444	 0.089523
H	-0.7472891507	-2.4494237333	 0.8910118377	 0.109733
H	-3.2166575827	-2.2432416957	 1.2250640984	 0.115191
H	-3.4545323479	-2.1186809341	-0.5082697856	 0.115093
H	-2.4895042546	-4.4364729839	-0.7944432063	 0.115871
H	-2.333635577	-4.5946361873	 0.9663319766	 0.122158
H	-5.005995744	-4.1338558383	-0.5292800274	 0.070475
45.642	52.8285	82.0762	99.7271	141.5897	158.3988	234.9663	269.5363	315.9798	355.5809	422.1177	477.5602	504.4234	516.0298	589.7133	743.8607	807.8295	853.9088	896.3103	967.2145	1000.5424	1042.3467	1052.6748	1085.4884	1100.4632	1110.1205	1134.7048	1174.9335	1211.7477	1242.1345	1272.1266	1293.0504	1320.665	1337.7158	1360.8237	1384.6389	1399.1582	1421.2886	1431.1187	1444.9756	1464.1852	1478.3309	1504.0637	1508.4499	1837.9901	2848.1508	2924.709	2996.3503	3005.2163	3032.4083	3042.2164	3050.8493	3067.8361	3075.0962	3097.7113	3762.7826	3777.6162
OCC(O)CCCC=O	OC[C@@H](O)CCCC=O	
InChI=1S/C6H12O3/c7-4-2-1-3-6(9)5-8/h4,6,8-9H,1-3,5H2	InChI=1S/C6H12O3/c7-4-2-1-3-6(9)5-8/h4,6,8-9H,1-3,5H2/t6-/m0/s1
