20
gdb 14511	3.47218	1.77724	1.4716	1.4535	74.78	-0.2579	0.0701	0.328	935.3847	0.177886	-348.940845	-348.932992	-348.932048	-348.972738	30.938	
C	-0.123184748	 1.5644127212	-0.0415411494	-0.482506
C	-0.0176367802	 0.034178579	-0.0426938982	 0.361098
C	-1.4037033072	-0.5093372865	-0.4218548485	-0.147398
O	-2.3848187041	-0.2269929987	 0.5732664349	-0.419167
C	 1.2465619318	-0.6585102427	-0.6826257051	-0.089895
C	 2.0879255209	-0.1242519683	 0.5139291228	-0.229372
C	 0.7675027531	-0.672195422	 1.1353836108	-0.08863
C	 0.9749392271	-1.9078882238	 0.2111056252	-0.2353
H	-0.2066922984	 1.9394905338	-1.0685956022	 0.112286
H	-1.0349992168	 1.8546169585	 0.4877617171	 0.134875
H	 0.7146524614	 2.0771053448	 0.4308302801	 0.111434
H	-1.7519979271	 0.0083870488	-1.3229120303	 0.105302
H	-1.3946492642	-1.5786204183	-0.6583269584	 0.090009
H	-2.1258906873	-0.6958880818	 1.3731437904	 0.282705
H	 1.5296302977	-0.6530147038	-1.7375090812	 0.066289
H	 2.9892421882	-0.6961191733	 0.7489889742	 0.08906
H	 2.287084926	 0.9440405084	 0.5695426105	 0.095227
H	 0.5011216227	-0.6797808362	 2.1954690731	 0.062192
H	 0.1197454532	-2.5421067586	-0.0157271451	 0.091325
H	 1.8514671915	-2.5200803005	 0.4371271192	 0.090467
92.1575	160.7917	174.708	283.0721	307.2972	386.1275	414.9898	452.2707	534.6949	602.0692	678.2386	778.7596	799.5701	861.0934	893.5079	897.4186	935.4523	951.0291	1004.0036	1012.6801	1024.6595	1048.8086	1080.1045	1089.4562	1108.5207	1122.8287	1161.6378	1184.5744	1192.6569	1216.3479	1229.1267	1244.9073	1255.3417	1308.4434	1382.4423	1406.5577	1422.4165	1486.5298	1498.6245	1507.7658	1530.6984	1560.304	3031.8983	3037.6012	3065.0324	3067.6088	3071.8628	3078.2169	3092.3724	3103.4958	3134.3526	3146.54	3156.5623	3814.8137
CC1(CO)C2CC1C2	C[C@@]1(CO)[C@H]2C[C@@H]1C2	
InChI=1S/C7H12O/c1-7(4-8)5-2-6(7)3-5/h5-6,8H,2-4H2,1H3	InChI=1S/C7H12O/c1-7(4-8)5-2-6(7)3-5/h5-6,8H,2-4H2,1H3/t5-,6+,7-
