22
gdb 123082	6.49336	0.4622	0.43736	3.2394	81.5	-0.263	0.0362	0.2992	2460.0149	0.192028	-441.492386	-441.481182	-441.480237	-441.530168	38.555	
C	-0.2206033184	 1.4356217298	 0.0124727518	-0.441096
C	 0.0914411515	-0.0340473094	 0.001120831	 0.409688
N	 1.2841743993	-0.4662667973	-0.0131339756	-0.520879
O	-1.0668356392	-0.7524609755	 0.008468048	-0.242366
C	-0.9788553519	-2.1748008862	-0.0006356854	-0.086827
C	-2.3955556371	-2.7308004041	 0.0104034437	-0.210106
C	-2.4142855213	-4.2615928713	 0.0017082048	-0.170922
C	-3.8270875421	-4.8305582297	 0.0124340313	-0.073941
O	-3.7244398799	-6.2455561835	 0.003170418	-0.420726
H	 0.7069191229	 2.0061618453	 0.0085799041	 0.146337
H	-0.822750353	 1.7007273121	-0.8621893036	 0.136735
H	-0.809149248	 1.6901442911	 0.8994179214	 0.13669
H	 1.3356911352	-1.4841062343	-0.0195452137	 0.215393
H	-0.436358273	-2.5097034273	-0.8960538186	 0.110597
H	-0.4185122684	-2.5199637255	 0.879769038	 0.110599
H	-2.9144892185	-2.34772813	 0.8972939063	 0.110914
H	-2.9322101478	-2.3375321393	-0.861349812	 0.110912
H	-1.8944953562	-4.6451200937	-0.8848803709	 0.10952
H	-1.8770400191	-4.6553279937	 0.8732885032	 0.109521
H	-4.3640361679	-4.4738461626	 0.9068437735	 0.086512
H	-4.3816699011	-4.4635128007	-0.8669085127	 0.086512
H	-4.6131023261	-6.612682204	 0.0099829374	 0.286934
46.6725	68.821	79.6657	112.1907	134.949	150.0439	186.3121	210.1123	261.2993	265.1812	370.0886	452.9803	509.3746	560.7732	614.7359	757.7187	818.1257	878.0701	885.0459	954.0992	980.8191	1014.9262	1051.704	1068.6359	1075.7084	1082.6882	1106.1621	1140.7755	1182.0142	1220.1725	1234.3111	1288.2672	1297.3622	1316.5984	1324.7583	1329.0086	1376.9583	1402.7405	1434.6052	1466.0768	1474.7569	1478.0954	1492.3804	1502.7037	1525.4625	1531.5341	1734.4895	2959.5894	2984.9072	2995.5791	3027.2592	3032.909	3036.9886	3050.4559	3061.4042	3086.3247	3108.1822	3169.5001	3497.0507	3830.5747
CC(=N)OCCCCO	C[C]([NH])OCCCCO	
InChI=1S/C6H13NO2/c1-6(7)9-5-3-2-4-8/h7-8H,2-5H2,1H3	InChI=1S/C6H13NO2/c1-6(7)9-5-3-2-4-8/h7-8H,2-5H2,1H3
