16
gdb 64604	2.47719	1.58036	1.30526	5.7479	72.08	-0.2402	-0.031	0.2092	1016.3726	0.123594	-434.097244	-434.088561	-434.087617	-434.130912	31.335	
C	-0.0198413929	 1.5977283892	 0.0210920734	-0.415262
C	 0.0508399899	 0.0752468497	 0.0118425291	 0.107153
C	-1.3536892607	-0.5530002294	-0.0858826738	 0.179892
O	-2.3756196946	 0.0725098247	-0.0964438383	-0.235297
N	 0.8161615056	-0.4502817775	-1.142433194	-0.271398
C	 1.7212043411	-1.207204756	-0.6551685136	 0.054369
N	 1.7443157253	-1.31908546	 0.7268695631	-0.347252
C	 0.7456991203	-0.4995339808	 1.259725176	 0.341773
N	 0.4243177067	-0.2548527493	 2.4612457907	-0.526016
H	 0.9866093025	 2.0232548188	 0.0247962049	 0.116083
H	-0.5527098103	 1.9504747686	-0.8635490314	 0.13909
H	-0.5510283735	 1.9305288383	 0.9148287764	 0.152544
H	-1.3382730424	-1.6616934029	-0.1653600015	 0.084984
H	 2.4513561204	-1.748840797	-1.2483888568	 0.143308
H	 2.4501518265	-1.7946493853	 1.2647179857	 0.262519
H	 1.0156132661	-0.745255411	 3.1337244901	 0.213511
71.8816	78.3222	177.5622	201.0672	252.2156	281.7858	289.5131	401.9648	446.4492	510.4811	599.4645	673.4206	689.9066	752.3523	834.941	854.7106	903.8751	933.3152	952.6591	1012.7374	1059.0884	1085.8047	1157.4483	1165.2547	1201.9716	1293.7069	1346.3646	1399.5255	1411.105	1423.1499	1478.7686	1485.5525	1669.0944	1755.1983	1846.2707	2896.3051	3059.7055	3137.7826	3152.3947	3192.6235	3463.1062	3652.8472
CC1(C=O)N=CNC1=N	C[C@@]1(C=O)N=CN[C]1[NH]	
InChI=1S/C5H7N3O/c1-5(2-9)4(6)7-3-8-5/h2-3H,1H3,(H2,6,7,8)	InChI=1S/C5H7N3O/c1-5(2-9)4(6)7-3-8-5/h2-3H,1H3,(H2,6,7,8)/t5-/m0/s1
