18
gdb 36214	4.69084	0.94928	0.87516	3.9363	81.85	-0.2394	0.0002	0.2396	1329.4166	0.149109	-364.829889	-364.821984	-364.82104	-364.862898	30.245	
N	-0.197283867	-1.0195404653	 0.5887542698	-0.313376
C	-0.1063433505	 0.0767894345	 0.2353408312	 0.26633
C	 0.0280790974	 1.4713392146	-0.2012691791	-0.445469
C	 1.4559419401	 1.9535677265	-0.1720658967	 0.319082
C	 2.1228695221	 2.4942725769	-1.1963855538	-0.185684
C	 3.47600294	 2.9672535008	-0.7936344021	-0.062168
C	 3.4876242357	 4.0686184467	 0.2503991795	-0.276054
C	 3.5850018141	 2.6316540505	 0.6881722889	-0.036333
C	 2.3011096557	 1.9074777054	 1.0894030223	-0.321566
H	-0.3861598979	 1.5636534599	-1.2106493578	 0.156298
H	-0.6042466264	 2.0838960716	 0.4564591467	 0.15663
H	 1.7280121411	 2.616118129	-2.1995370358	 0.096273
H	 4.3113337996	 2.8795514792	-1.479000889	 0.091639
H	 4.3881814367	 4.6680902777	 0.3338478456	 0.113525
H	 2.5638570393	 4.6130506664	 0.4209487815	 0.109153
H	 4.523833587	 2.2939700425	 1.1096417498	 0.091857
H	 1.7958895862	 2.385496834	 1.9395653968	 0.11064
H	 2.4952776369	 0.8702107794	 1.3918713422	 0.129226
56.0052	97.4201	183.604	303.7138	338.0212	386.289	392.6063	474.1634	508.0866	668.6911	706.7459	790.4288	807.9112	848.9309	861.843	893.2259	926.5042	936.6011	951.8576	996.7479	1022.8808	1051.6411	1069.2176	1093.8837	1105.0501	1174.1397	1182.7241	1215.5381	1217.9713	1286.7174	1322.8443	1325.2029	1359.2348	1380.5203	1452.0431	1473.6809	1484.8669	1703.9931	2361.1955	3015.6865	3018.7326	3044.4601	3080.0294	3122.3339	3170.8088	3184.0917	3189.9421	3212.2446
N#CCC1=CC2CC2C1	N#CCC1=C[C@H]2C[C@H]2C1	
InChI=1S/C8H9N/c9-2-1-6-3-7-5-8(7)4-6/h3,7-8H,1,4-5H2	InChI=1S/C8H9N/c9-2-1-6-3-7-5-8(7)4-6/h3,7-8H,1,4-5H2/t7-,8+/m0/s1
