21
gdb 70815	2.35456	1.63108	1.47605	1.2505	83.36	-0.2445	0.0732	0.3177	1059.4225	0.180901	-387.033747	-387.024787	-387.023843	-387.066398	35.421	
C	-0.0266900284	 1.4588137626	-0.0315236002	-0.522172
C	 0.0189951835	-0.0441254898	-0.0650691893	 0.317479
C	 0.5751733204	-0.9703513202	-1.169421364	-0.362102
C	 0.069283497	-1.9551519871	-0.0935256596	 0.287123
C	 0.0923927479	-3.4592911789	-0.1073524369	-0.528914
C	 0.5143330581	-1.0082065229	 1.0764995985	-0.125186
C	-0.8692996045	-1.0422830079	 1.7620157335	-0.348059
C	-1.1601869656	-1.0201045807	 0.247832796	 0.340541
O	-2.3732865847	-0.9479994591	-0.4154758931	-0.48091
H	 0.9784644398	 1.8862842968	-0.1173071187	 0.116006
H	-0.6277563916	 1.8477627253	-0.8606142265	 0.126934
H	-0.4686768815	 1.8262708833	 0.9011957913	 0.118337
H	 0.0388298041	-0.9685857046	-2.1240563568	 0.093689
H	 1.6579929192	-0.9395929933	-1.3372585476	 0.080278
H	 1.1143671688	-3.8403190517	-0.2130876884	 0.121741
H	-0.3226895867	-3.8778383361	 0.8169914278	 0.114956
H	-0.4930447161	-3.8532774546	-0.9465247554	 0.117734
H	 1.5010680948	-0.9922351361	 1.5368183375	 0.071459
H	-1.1256791625	-1.9554806626	 2.3101200565	 0.08454
H	-1.1611599372	-0.1575319178	 2.3362327445	 0.094231
H	-2.8909335847	-1.7301339146	-0.1952175093	 0.282295
182.0115	190.6003	203.0604	205.8396	223.5823	250.5488	281.0276	310.4202	448.2862	465.1985	497.6487	579.7087	653.7448	676.7664	704.507	778.2737	857.6188	880.3284	919.3945	930.8172	980.6378	989.0105	1023.0396	1044.7643	1074.7393	1102.3619	1134.6097	1142.5472	1161.5827	1167.3065	1184.1735	1217.2872	1244.7337	1271.7679	1306.5305	1340.2613	1389.9366	1408.7409	1414.2816	1486.507	1487.5966	1492.629	1494.5958	1509.0329	1516.5126	3019.5927	3026.0276	3029.6895	3037.929	3082.8414	3086.2885	3087.2347	3091.6996	3093.5276	3095.8838	3129.1601	3802.0616
CC12CC3(C)C1CC23O	C[C@@]12C[C@@]3(C)[C@@H]1C[C@@]23O	
InChI=1S/C8H12O/c1-6-4-7(2)5(6)3-8(6,7)9/h5,9H,3-4H2,1-2H3	InChI=1S/C8H12O/c1-6-4-7(2)5(6)3-8(6,7)9/h5,9H,3-4H2,1-2H3/t5-,6-,7+,8-
