20
gdb 40361	3.66985	1.25749	1.191	1.0829	78.26	-0.2405	0.073	0.3135	1124.7752	0.173327	-403.101	-403.093414	-403.09247	-403.133584	30.298	
C	 1.2002803995	 1.0325459931	 0.1071074338	-0.236557
N	 0.5556761397	 0.0741428627	-0.8027925093	-0.316391
C	-0.1742906912	 0.5434135868	 0.3895392083	-0.171673
C	-0.4846257418	-0.4854410232	 1.4239437404	 0.502665
C	-1.8480446334	-1.2255929728	 1.4805935444	-0.277
C	-1.4412742828	-1.2246512074	 2.9662144589	 0.07832
C	-0.2313600257	-2.1804476293	 3.0142299651	-0.221796
C	 0.5314515707	-1.5953785633	 1.7826860804	-0.265466
O	-0.79816167	 0.0709148442	 2.750877224	-0.342703
H	 2.0472354471	 0.6382649589	 0.6591728734	 0.123594
H	 1.3073232184	 2.0673246517	-0.2072291939	 0.114413
H	 0.2102449156	 0.5519644083	-1.6303829244	 0.235314
H	-0.9773157239	 1.2625850265	 0.2386037118	 0.084522
H	-2.6819445385	-0.5507174875	 1.2819117404	 0.101737
H	-1.9614889577	-2.1754231314	 0.9515530174	 0.095139
H	-2.1586376916	-1.2334321365	 3.7866936524	 0.074716
H	 0.3263115868	-2.07160058	 3.9466427202	 0.105609
H	-0.5128268437	-3.2304528163	 2.89560958	 0.096969
H	 0.6778819886	-2.3065831993	 0.9682126475	 0.114667
H	 1.5003299241	-1.1748670653	 2.058452249	 0.103923
42.8762	168.9518	190.7466	288.8143	365.0232	419.2535	479.5778	548.2065	606.0036	713.9634	825.1633	828.3792	843.5251	861.073	875.1637	896.6572	913.878	936.2454	951.5086	965.6009	975.0079	1011.3056	1030.324	1080.8453	1105.2727	1112.7556	1136.3002	1157.7343	1167.613	1216.6578	1231.2072	1244.3983	1250.5902	1283.2953	1285.9041	1294.0276	1316.7292	1347.4536	1459.8965	1482.0176	1482.7302	1508.2501	1514.8432	3062.1818	3064.8852	3081.5664	3111.5955	3115.0168	3123.2121	3123.8554	3133.5182	3138.8069	3202.1464	3509.2384
C1NC1C12CC(CC1)O2	C1N[C@H]1[C@@]12C[C@@H](CC1)O2	
InChI=1S/C7H11NO/c1-2-7(6-4-8-6)3-5(1)9-7/h5-6,8H,1-4H2	InChI=1S/C7H11NO/c1-2-7(6-4-8-6)3-5(1)9-7/h5-6,8H,1-4H2/t5-,6-,7+/m1/s1
