21
gdb 68414	2.50545	1.82131	1.41179	1.4666	81.89	-0.2435	0.0746	0.3181	1014.0604	0.184165	-387.070147	-387.062415	-387.061471	-387.101692	32.542	
O	-0.1383531005	 1.3755558492	 0.0231952684	-0.496026
C	 0.0142262882	-0.0073680799	 0.0311095192	 0.342445
C	 0.8982715311	-0.8009070046	-0.9832630546	-0.287793
C	 0.7050494321	-1.9269887548	 0.0748531697	-0.025902
C	 0.7521549146	-0.8047983429	 1.1534989036	-0.287789
C	-0.8099601225	-2.215468608	-0.0292782958	-0.307503
C	-1.3114224351	-0.7575717384	-0.0609014864	 0.408298
C	-2.5544375785	-0.2621098145	 0.6148467722	-0.343382
C	-2.4510077651	-0.2593542123	-0.8977572832	-0.343382
H	 0.7321487069	 1.7805223639	 0.08335894	 0.280592
H	 0.5102708625	-0.9579719609	-1.9932681238	 0.094669
H	 1.9280726423	-0.4333063361	-1.0185123515	 0.083108
H	 1.3780891871	-2.7815905368	 0.119318981	 0.064432
H	 1.7674772971	-0.4375761698	 1.3299373744	 0.083108
H	 0.2303154644	-0.9654302846	 2.1007080197	 0.094669
H	-1.0650905494	-2.7719400888	-0.9369534269	 0.097018
H	-1.1861343016	-2.775177532	 0.8331862842	 0.097018
H	-3.209385746	-0.9901826347	 1.0831405817	 0.102294
H	-2.5067087507	 0.69769386	 1.1180068481	 0.120918
H	-2.335484005	 0.7022518035	-1.3862635111	 0.120916
H	-3.035928052	-0.9855747678	-1.453472269	 0.102293
131.6441	236.4083	245.7149	276.5469	376.8619	399.8001	405.6257	447.0009	534.7207	553.329	637.1127	734.2634	786.3602	828.2631	836.0298	872.4929	895.4568	926.322	931.3259	938.5165	986.4415	988.1946	993.5408	1042.1659	1055.0354	1078.1676	1081.7503	1099.0596	1122.2842	1142.241	1188.1398	1189.2127	1193.452	1234.1534	1256.1268	1277.6118	1291.3208	1309.7126	1351.3534	1424.9134	1458.1569	1482.0208	1493.7786	1502.7726	1526.3583	3039.9267	3046.6777	3054.5733	3082.6817	3109.9383	3113.8008	3123.4566	3126.5295	3127.0619	3205.9249	3219.9926	3826.7304
OC12CC(C1)CC21CC1	O[C@@]12C[C@@H](C1)CC12CC1	
InChI=1S/C8H12O/c9-8-4-6(5-8)3-7(8)1-2-7/h6,9H,1-5H2	InChI=1S/C8H12O/c9-8-4-6(5-8)3-7(8)1-2-7/h6,9H,1-5H2/t6-,8-
