14
gdb 14090	3.65582	1.74842	1.44549	1.3444	60.06	-0.2492	-0.0376	0.2116	863.2567	0.105096	-419.643973	-419.636634	-419.635689	-419.675664	27.069	
O	 0.0616805099	 1.2960284265	-0.04932324	-0.424448
C	 0.0933714896	-0.0796509857	 0.1166541826	 0.07135
C	-0.4934599232	-0.7094696247	 1.3546867842	-0.382321
C	-1.2522893062	-0.7780967107	 0.0600421748	 0.275975
O	-2.4011553226	 0.0406341247	-0.2077302311	-0.327426
C	-2.9261555492	-0.9156664749	-1.1702337233	-0.189298
C	-1.7486872739	-1.8568911919	-0.8457250975	 0.272922
O	-1.3956584897	-2.9499149667	-1.1715826147	-0.290876
H	-0.8437034354	 1.5276874046	-0.3050262071	 0.30077
H	 0.9445553708	-0.5605063735	-0.3578223824	 0.122995
H	-0.0655141646	-1.6363140504	 1.7230764977	 0.141096
H	-0.9031261368	-0.040207371	 2.1041667262	 0.142344
H	-3.9189810337	-1.2802866292	-0.8886664867	 0.144648
H	-2.9417335249	-0.5195980871	-2.1911175328	 0.142269
114.6271	124.3594	189.2884	257.2123	339.4733	409.6067	468.7641	521.0699	597.4762	620.5167	741.72	798.4747	832.5353	869.8853	983.8668	990.2514	1004.7194	1033.264	1053.9401	1094.0493	1138.4254	1166.0794	1196.9316	1286.143	1304.043	1369.3771	1408.9438	1449.908	1479.3506	1915.2687	3044.4301	3103.2079	3128.8033	3150.138	3228.0068	3717.5646
OC1CC11OCC1=O	O[C@H]1C[C@]21OCC2=O	
InChI=1S/C5H6O3/c6-3-1-5(3)4(7)2-8-5/h3,6H,1-2H2	InChI=1S/C5H6O3/c6-3-1-5(3)4(7)2-8-5/h3,6H,1-2H2/t3-,5+/m0/s1
