18
gdb 51423	4.65217	0.97771	0.95653	1.8359	74.34	-0.2411	0.0174	0.2586	1271.5747	0.148777	-439.048996	-439.041264	-439.04032	-439.082066	29.232	
N	-0.0841981643	 1.2649513745	-0.0355802704	-0.440058
C	-0.0437055116	 0.0050366998	-0.0761445206	 0.118527
O	-1.1339506908	-0.7141447564	 0.2655457163	-0.204896
C	-1.0372510023	-2.1176786608	 0.0991838279	 0.144654
C	-2.3601963566	-2.8268148881	 0.5124525238	-0.110435
C	-2.9232372387	-2.3803151201	-0.8777260354	-0.246334
C	-1.4629882772	-2.6785581747	-1.2922622605	 0.066792
O	-1.3185106948	-4.089272653	-1.0884768813	-0.279891
C	-1.9708330649	-4.2728514017	 0.19707367	-0.085618
H	 0.8199765678	 1.6497981142	-0.3010132739	 0.231132
H	 0.8179521015	-0.6150897518	-0.3591995796	 0.090348
H	-0.0972658706	-2.5016051384	 0.5116209137	 0.086754
H	-2.8565668244	-2.6143833441	 1.4575149866	 0.088864
H	-3.7021280586	-2.9915429937	-1.3379257673	 0.103349
H	-3.1727963622	-1.321326285	-0.9052604736	 0.134716
H	-1.0099179217	-2.3854815835	-2.2379559321	 0.086867
H	-1.2643446931	-4.7091110067	 0.912175386	 0.10657
H	-2.8322062476	-4.9419464906	 0.0915160502	 0.10866
59.2589	93.3406	146.922	291.9074	346.5496	385.8578	413.9797	496.0534	641.4022	693.7547	824.287	838.9971	853.6439	899.9186	917.2361	938.9942	945.9355	992.0647	995.59	1031.4309	1045.0648	1063.6021	1079.931	1103.8285	1137.8317	1155.5743	1183.1183	1221.6637	1243.4313	1259.5203	1270.9636	1282.571	1298.3646	1356.1066	1385.8026	1423.1778	1486.5948	1530.3599	1747.3748	3023.1131	3029.0411	3046.6131	3070.6624	3085.4254	3139.2192	3142.9919	3167.6912	3518.7814
N=COC1C2CC1OC2	[NH][CH]O[C@H]1[C@H]2C[C@@H]1OC2	
InChI=1S/C6H9NO2/c7-3-9-6-4-1-5(6)8-2-4/h3-7H,1-2H2	InChI=1S/C6H9NO2/c7-3-9-6-4-1-5(6)8-2-4/h3-7H,1-2H2/t4-,5-,6-/m0/s1
