20
gdb 68368	2.93802	1.52925	1.20892	3.3146	80.11	-0.2474	0.0281	0.2755	1086.2345	0.172363	-403.164464	-403.156599	-403.155655	-403.196635	31.792	
C	-0.0784753393	 1.5459518137	 0.1267975821	-0.477366
C	 0.0499831356	 0.0417379461	-0.0219642935	 0.300531
C	 1.214428244	-0.5534958529	-0.8765279775	-0.274974
C	 1.1406492513	-1.7647872078	 0.0786269835	 0.11361
C	 0.6053533587	-0.8074956277	 1.1658427882	-0.274971
O	 0.1144815713	-2.6774732135	-0.3408889652	-0.258573
C	-1.1068467263	-2.1383867735	-0.6380918422	 0.386601
N	-2.0778569605	-2.8553348559	-1.0170078143	-0.531626
C	-1.2483186821	-0.6282663428	-0.4924723476	-0.318561
H	 0.8643415137	 1.9899798453	 0.4632021287	 0.112251
H	-0.35093023	 2.0161214867	-0.8252284488	 0.119361
H	-0.852798023	 1.8068425845	 0.8575542751	 0.11936
H	 1.044099228	-0.7404107322	-1.9402515431	 0.106954
H	 2.1442154193	 0.0055720153	-0.7409674352	 0.103045
H	 2.0210001204	-2.3792827512	 0.264741212	 0.085968
H	 1.4210563338	-0.2960068358	 1.6839601245	 0.103043
H	-0.0994607654	-1.2173036378	 1.8943695717	 0.106951
H	-1.7953007601	-3.8369293153	-1.0548607772	 0.217146
H	-2.065433414	-0.4309059235	 0.2103470481	 0.130621
H	-1.5675393154	-0.2232537616	-1.4592433493	 0.130627
72.4174	215.2487	244.0058	264.5384	365.6462	396.7785	437.7556	438.953	470.2117	550.0506	599.8469	658.1899	800.2751	834.1876	846.8277	897.7441	902.1184	914.7698	926.8206	941.6016	1010.9808	1012.8669	1020.4562	1075.678	1084.5552	1117.5642	1187.3373	1201.4004	1207.1383	1239.194	1260.8319	1277.2564	1281.817	1306.1207	1360.5806	1401.0345	1413.1098	1466.7772	1466.8361	1491.1668	1493.2864	1499.5983	1751.7672	3022.1615	3043.1232	3052.8727	3059.416	3079.2142	3088.0707	3095.0871	3114.4761	3115.4512	3120.1444	3463.0882
CC12CC(C1)OC(=N)C2	C[C@@]12C[C@@H](C1)O[C]([NH])C2	
InChI=1S/C7H11NO/c1-7-2-5(3-7)9-6(8)4-7/h5,8H,2-4H2,1H3	InChI=1S/C7H11NO/c1-7-2-5(3-7)9-6(8)4-7/h5,8H,2-4H2,1H3/t5-,7+
