19
gdb 39941	2.96856	1.59818	1.24892	1.3672	81.83	-0.2235	0.014	0.2376	1045.6831	0.161752	-382.021145	-382.01375	-382.012806	-382.052918	29.948	
C	-0.2809457594	 1.4795181176	 0.0086941601	-0.282591
N	 1.1166842751	 1.0314727054	-0.0042414942	-0.362056
C	 0.0236732372	 0.0206989592	 0.0296672726	 0.333669
C	-0.0523068297	-0.7579090272	 1.288960197	-0.115896
C	-0.0579630159	-2.0891137631	 1.295410779	-0.078496
C	 0.0371313239	-2.9189303519	 0.041419546	-0.216948
N	-0.2408431535	-2.2283523626	-1.2222294849	-0.109665
C	-1.5289336867	-1.5476672532	-1.331770154	-0.258892
C	-0.2652908173	-0.7634623247	-1.2208811355	-0.101702
H	-0.5946090223	 1.9805883756	 0.9214342793	 0.116951
H	-0.7136698729	 1.8891199599	-0.9013951977	 0.111874
H	 1.4930141241	 1.090168222	-0.9486409435	 0.230044
H	-0.0746668159	-0.1911992965	 2.2150197867	 0.095229
H	-0.0937393806	-2.632482481	 2.236465923	 0.093478
H	 1.0507168604	-3.3394708638	-0.0302995977	 0.122894
H	-0.6387816586	-3.781513521	 0.1030564377	 0.113702
H	-2.0324363485	-1.6509482792	-2.2894035451	 0.112497
H	-2.1842999586	-1.5421984291	-0.4632040781	 0.115998
H	 0.1428336092	-0.3164295564	-2.1285543207	 0.079908
74.55	226.0105	266.399	312.2297	338.0371	406.9604	455.9947	523.1091	557.8929	679.6505	719.0846	726.339	842.7555	857.7753	905.8727	908.0917	922.1078	948.4126	981.7851	990.8286	1004.5667	1039.8474	1066.7473	1077.6546	1107.6675	1119.5174	1144.6862	1164.2899	1195.0655	1256.9786	1273.3948	1302.048	1321.1877	1344.851	1374.0052	1407.9167	1443.8996	1480.0286	1502.7595	1509.6325	1722.6224	3001.4722	3038.0714	3087.0332	3096.5316	3097.5873	3152.2176	3178.1078	3181.3123	3183.8411	3481.57
C1NC11C=CCN2CC12	C1N[C@]21C=CCN1C[C@@H]21	
InChI=1S/C7H10N2/c1-2-7(5-8-7)6-4-9(6)3-1/h1-2,6,8H,3-5H2	InChI=1S/C7H10N2/c1-2-7(5-8-7)6-4-9(6)3-1/h1-2,6,8H,3-5H2/t6-,7-,9?/m0/s1
