20
gdb 100415	3.03842	0.72676	0.71261	0.9773	86.5	-0.2352	0.0282	0.2634	1744.2367	0.167332	-403.129336	-403.117985	-403.117041	-403.168211	37.975	
C	-0.4563350523	 1.1748184322	 0.0400291507	-0.225021
O	 0.1763823701	-0.1033569337	-0.016749189	-0.23772
C	 0.889860958	-0.4675513776	 1.0698774921	 0.418378
C	 1.5073196526	-1.8298818207	 0.8775913687	-0.496036
N	 0.9709077406	 0.3049998654	 2.0739336335	-0.296914
C	 1.7571409437	-0.1315382886	 3.2292239466	-0.319941
C	 3.2028200426	 0.0202608776	 3.0445299406	 0.114156
C	 4.388980077	 0.1500466437	 2.8802670617	 0.022417
C	 5.8233033278	 0.3171298652	 2.6921709563	-0.49639
H	 0.2827049377	 1.9684542209	 0.1800165474	 0.135659
H	-0.9707280526	 1.2909358345	-0.915126895	 0.121968
H	-1.1681345884	 1.2205771038	 0.8690396079	 0.131926
H	 1.305149013	-2.2010151364	-0.1268953072	 0.139605
H	 2.5868647156	-1.7781200786	 1.0423739786	 0.157525
H	 1.0979797734	-2.5397471623	 1.6043862904	 0.142517
H	 1.4434568807	 0.4774217312	 4.0850792136	 0.130769
H	 1.5386578784	-1.175594673	 3.5050901923	 0.115804
H	 6.3542907277	-0.6370438634	 2.7829006266	 0.145065
H	 6.0475274133	 0.7271019608	 1.7011097678	 0.148317
H	 6.245195401	 1.002766269	 3.4354109465	 0.147917
20.336	42.3099	61.916	97.3488	170.3754	173.1469	187.9724	228.5563	240.5194	308.6566	348.1556	373.5751	451.4911	522.2361	585.0508	658.0438	773.1953	799.3486	970.6574	1004.918	1052.5971	1055.4704	1059.188	1074.6777	1089.915	1159.8418	1180.2513	1218.369	1251.5107	1318.9241	1353.8279	1398.5628	1415.427	1467.516	1474.3349	1478.4655	1479.6173	1482.0233	1488.4221	1494.7735	1499.7784	1733.0681	2368.0517	2972.8395	3026.0036	3043.0721	3044.1352	3048.6846	3085.6768	3086.8751	3111.7366	3115.6798	3146.2374	3156.7586
COC(C)=NCC#CC	COC(=NCC#CC)C	
InChI=1S/C7H11NO/c1-4-5-6-8-7(2)9-3/h6H2,1-3H3	InChI=1S/C7H11NO/c1-4-5-6-8-7(2)9-3/h6H2,1-3H3
