25
gdb 120318	2.91926	0.93793	0.9002	0.1469	92.19	-0.2551	0.0788	0.3338	1511.081	0.230938	-352.365473	-352.355962	-352.355018	-352.400491	36.185	
C	-0.0206223569	 1.5814064437	-0.0147537567	-0.381922
C	-0.0635921494	 0.059833023	-0.1759312678	-0.152444
C	 0.9374927805	-0.4648734878	-1.2162078229	-0.209782
C	 0.9056523649	-1.9759918273	-1.339719763	 0.001268
C	-0.0397045221	-2.7790096438	-2.2100028797	-0.050889
C	-0.741555401	-2.1224610131	-3.3936796549	-0.2163
C	 0.3706030386	-1.494376799	-4.277040603	-0.217129
C	 1.7043629392	-2.1619340246	-3.8470824829	-0.212866
C	 1.451699415	-2.799545847	-2.4859918178	-0.078754
H	 0.9744165786	 1.9191348796	 0.2964189029	 0.112243
H	-0.2587446305	 2.0868879562	-0.957584967	 0.111715
H	-0.7385441964	 1.9257178677	 0.73644329	 0.109445
H	 0.1390353019	-0.41797737	 0.7918619911	 0.091618
H	-1.075792783	-0.2544813468	-0.4606210463	 0.09909
H	 0.7382202773	 0.0210883419	-2.1755453974	 0.095605
H	 1.9506351179	-0.1511156772	-0.9266557125	 0.091353
H	 1.0790414727	-2.4541788591	-0.3758253884	 0.075492
H	-0.5334596388	-3.6318046604	-1.7551735259	 0.072983
H	-1.2800980924	-2.8975734212	-3.9506357601	 0.097461
H	-1.4891595954	-1.378991052	-3.0942915783	 0.095583
H	 0.1705383905	-1.6465536938	-5.3416797661	 0.093906
H	 0.4165275271	-0.4124867166	-4.1306229572	 0.106852
H	 1.9821886605	-2.9523069145	-4.5536519671	 0.096815
H	 2.5332773496	-1.445109859	-3.8397074693	 0.095325
H	 2.0527311414	-3.6659902687	-2.2285398898	 0.073332
56.6742	76.4133	106.8186	160.8253	213.8427	238.8343	254.7613	349.2727	458.4317	496.7572	663.1228	682.3083	737.5705	756.911	778.5429	807.4396	873.2469	878.0741	886.3734	900.4707	928.2767	983.0362	1000.6935	1025.1189	1033.3106	1057.081	1091.6797	1097.5632	1113.7818	1134.9007	1152.1356	1185.2021	1227.5279	1236.244	1254.3792	1271.1611	1300.1937	1308.6923	1320.654	1324.545	1332.073	1361.9094	1374.4613	1393.7905	1410.2572	1452.1421	1480.8863	1490.3795	1493.9079	1497.4458	1498.7681	1510.5028	1517.608	3006.6913	3017.2007	3027.1083	3031.5426	3032.3661	3046.8117	3056.9174	3062.2785	3064.0067	3082.7382	3093.6256	3098.9619	3099.2238	3107.2012	3147.2282	3159.1775
CCCC1C2CCCC12	CCC[C@H]1[C@H]2CCC[C@@H]12	
InChI=1S/C9H16/c1-2-4-7-8-5-3-6-9(7)8/h7-9H,2-6H2,1H3	InChI=1S/C9H16/c1-2-4-7-8-5-3-6-9(7)8/h7-9H,2-6H2,1H3/t7-,8+,9-
