21
gdb 26334	3.90783	1.01311	0.82833	1.4495	88.81	-0.1643	0.0546	0.2189	1443.9255	0.182304	-383.298623	-383.288644	-383.2877	-383.33374	36.59	
C	 0.0498514954	 1.4032350082	 0.2057073289	-0.327564
N	 0.008016055	 0.0480853009	-0.3188030615	-0.153197
C	 1.2157413734	-0.7109679228	-0.0696502489	-0.320022
C	-1.1891001505	-0.6564417882	-0.1086682499	 0.338745
C	-1.3204046506	-1.9981207287	 0.1958221813	-0.199661
N	-2.6728803542	-2.2831098165	 0.2446078898	-0.318135
C	-3.4062439764	-1.1544651516	-0.0031085031	 0.34596
C	-4.8995516521	-1.1625447975	-0.0089845824	-0.501457
C	-2.514722297	-0.1282937236	-0.2264582124	-0.35403
H	 0.9569794499	 1.8999995658	-0.1524791459	 0.112645
H	-0.8069444012	 1.9761391671	-0.1549516194	 0.126528
H	 0.0467824988	 1.4439061536	 1.3098258355	 0.098141
H	 1.3290810017	-1.019224024	 0.9866336674	 0.093994
H	 1.2177523125	-1.6149072853	-0.6870420734	 0.122633
H	 2.0871038613	-0.1098071073	-0.3445041554	 0.112356
H	-0.5860778639	-2.7635778832	 0.376310706	 0.105638
H	-3.0592198431	-3.1880383875	 0.445538032	 0.250568
H	-5.3173244985	-1.4708926265	 0.9580197782	 0.123025
H	-5.2764042286	-0.1602805822	-0.2250285458	 0.135254
H	-5.3076732731	-1.8396763361	-0.7701714463	 0.124115
H	-2.7900264489	 0.8876436255	-0.4628332045	 0.084464
45.2704	83.8116	139.4613	187.3994	204.6179	244.9722	260.9249	329.0692	353.5344	383.7159	418.3539	493.4359	580.8904	624.1749	639.9656	687.4897	704.291	771.7842	929.3339	977.5332	1006.7531	1018.5957	1060.1121	1076.4438	1125.3047	1138.38	1162.3621	1178.146	1228.0834	1261.3412	1299.2995	1355.3411	1415.6282	1432.5144	1442.6936	1459.2811	1473.2904	1480.3321	1482.8722	1492.1985	1501.0022	1508.2245	1517.3276	1566.4951	1639.2593	2929.4829	2945.3821	3013.6454	3056.2734	3059.907	3070.7413	3106.4892	3121.2844	3121.7487	3248.911	3279.5053	3687.3675
CN(C)C1=CNC(C)=C1	CN(C)c1c[nH]c(C)c1	
InChI=1S/C7H12N2/c1-6-4-7(5-8-6)9(2)3/h4-5,8H,1-3H3	InChI=1S/C7H12N2/c1-6-4-7(5-8-6)9(2)3/h4-5,8H,1-3H3
