22
gdb 118766	3.60586	0.8654	0.80576	2.8396	80.69	-0.2059	0.075	0.2809	1546.0523	0.191863	-441.443049	-441.432786	-441.431842	-441.478622	37.295	
C	-0.0193861416	 1.3765899034	 0.0894165305	-0.226222
O	-0.0851623018	-0.0248922361	-0.0417722944	-0.254402
C	 0.6851017751	-0.5309503645	-1.1170655159	-0.127568
C	 0.6064079297	-2.0456262315	-1.032206808	 0.404857
O	 1.056909936	-2.4774160756	 0.2318415782	-0.490725
C	-0.7213750964	-2.7140441084	-1.5057028948	-0.213514
N	 0.0746749779	-3.6795480755	-2.2862865989	-0.063177
C	-0.3786313008	-4.0516030927	-3.6039676658	-0.318946
C	 1.2870583707	-2.8516615086	-2.1606364858	-0.213011
H	 1.0125354796	 1.7205408855	 0.2586643791	 0.11038
H	-0.4100623531	 1.8854958847	-0.8048646095	 0.109769
H	-0.6326380792	 1.6542079217	 0.949983471	 0.131066
H	 0.299820923	-0.1637728918	-2.0809696382	 0.087876
H	 1.7355563703	-0.2087508563	-1.0219969696	 0.09415
H	 0.6364061337	-1.8903532125	 0.8733637315	 0.283068
H	-1.3445778662	-3.15985859	-0.7237082472	 0.102702
H	-1.3383865664	-2.0420867171	-2.1248461035	 0.075218
H	-0.5362383118	-3.1842435955	-4.2766829196	 0.081101
H	 0.3530060947	-4.7155852589	-4.0772275915	 0.119568
H	-1.3257211965	-4.5970284599	-3.5314423523	 0.120244
H	 1.502049199	-2.2342954912	-3.0498111764	 0.075123
H	 2.191800744	-3.3949347592	-1.8697526187	 0.112443
54.3701	84.1702	105.3623	166.8859	226.7084	229.4007	291.4538	294.3762	333.1972	345.1185	383.8752	422.0663	467.3235	489.3663	684.5281	779.8032	908.4111	925.7249	952.5967	973.6992	985.3958	1004.5483	1074.6906	1115.024	1131.5401	1141.2802	1161.3857	1181.2618	1190.5992	1222.1672	1230.4003	1239.7139	1270.1139	1298.4256	1306.7162	1333.5306	1387.6146	1440.2349	1451.9672	1478.5223	1483.9044	1485.7302	1486.0561	1498.2126	1499.4855	1513.8493	1520.8746	2901.9651	2951.323	2961.1026	2968.0097	2979.9853	3006.472	3026.0603	3051.8327	3065.4563	3069.0007	3095.0467	3117.1312	3773.2327
COCC1(O)CN(C)C1	COCC1(O)CN(C)C1	
InChI=1S/C6H13NO2/c1-7-3-6(8,4-7)5-9-2/h8H,3-5H2,1-2H3	InChI=1S/C6H13NO2/c1-7-3-6(8,4-7)5-9-2/h8H,3-5H2,1-2H3
