21
gdb 103210	3.46221	1.28576	1.12254	1.2979	82.83	-0.2618	0.0736	0.3353	1162.4024	0.182277	-387.008097	-386.999686	-386.998742	-387.040777	33.327	
C	-0.1325761488	 1.5755454071	 0.0066047483	-0.468674
C	-0.0674606274	 0.0497685455	 0.0014647823	 0.332915
C	-1.4259981307	-0.5482066894	-0.3415845888	-0.144734
O	-1.7629602456	-0.1472434694	-1.6668383896	-0.425378
C	 1.1645721883	-0.6084315662	-0.6770251649	-0.057428
C	 2.1073310421	-0.2786707207	 0.5355044417	-0.050289
C	 2.6138415625	-1.7277359765	 0.6347864949	-0.280759
C	 1.1274263836	-1.8666116376	 0.2625374289	-0.051488
C	 0.7096585148	-0.6417386525	 1.1537313518	-0.096624
H	 0.8429115997	 2.0277929285	 0.2032728513	 0.108591
H	-0.4942694808	 1.9424139374	-0.957649826	 0.134052
H	-0.8270073816	 1.9314896716	 0.7775122172	 0.104691
H	-1.3970626396	-1.6444241365	-0.2630165188	 0.081948
H	-2.1765743453	-0.1867566219	 0.3813767263	 0.078081
H	-2.6417444309	-0.4812679179	-1.867542946	 0.286063
H	 1.4469943278	-0.6024157054	-1.7311649176	 0.069364
H	 2.6621032843	 0.6464153426	 0.6920449476	 0.071111
H	 3.3419011543	-2.0474205492	-0.1180952813	 0.090188
H	 2.9091066005	-2.0809685911	 1.6284929226	 0.088488
H	 0.5534380673	-2.7795753625	 0.1027836152	 0.06948
H	 0.4714111856	-0.673878466	 2.2200370951	 0.060401
85.8378	184.3904	203.0247	235.5123	260.9625	275.3553	354.4582	382.0597	482.6221	535.576	652.6385	747.366	815.386	838.7393	850.1554	874.0388	887.8923	920.5132	951.0248	962.4458	972.9002	1004.385	1027.9219	1055.5072	1072.4954	1095.5631	1128.4698	1143.698	1153.0198	1155.6032	1170.8627	1189.2305	1198.5899	1225.344	1248.2156	1260.0731	1280.1841	1315.9231	1349.9615	1407.0418	1457.2517	1488.8052	1505.5947	1513.0749	1519.0127	2959.9323	3010.8906	3031.1793	3033.5686	3076.5152	3089.1814	3095.708	3097.2793	3105.6023	3114.8754	3124.1587	3832.8249
CC1(CO)C2C3CC2C13	C[C@@]1(CO)[C@H]2[C@@H]3C[C@H]2[C@H]13	
InChI=1S/C8H12O/c1-8(3-9)6-4-2-5(6)7(4)8/h4-7,9H,2-3H2,1H3	InChI=1S/C8H12O/c1-8(3-9)6-4-2-5(6)7(4)8/h4-7,9H,2-3H2,1H3/t4-,5+,6-,7+,8-
