16
gdb 53884	4.04543	0.82852	0.72631	1.1708	68.34	-0.2435	-0.041	0.2025	1487.0512	0.123088	-471.252271	-471.242662	-471.241718	-471.288203	33.518	
N	-0.2348104537	 1.1044202814	-0.6517254078	-0.522149
C	-0.0347740945	-0.0430754698	 0.0191158387	 0.409705
O	 1.0016249657	-0.3801780243	 0.5710287201	-0.389292
C	-1.2660768023	-0.9499669038	 0.0462169563	 0.275649
N	-2.3414866001	-0.5542897091	-0.5267721973	-0.55842
N	-1.0025592267	-2.1011568218	 0.720061682	-0.308175
C	-1.9895029795	-3.113815337	 0.9743318153	-0.273559
C	-2.3710004735	-3.9053131965	-0.2798631649	 0.160585
O	-3.4531319281	-4.3959405684	-0.454964109	-0.227078
H	 0.5068861516	 1.778798904	-0.7250674242	 0.267627
H	-1.144849067	 1.2647912074	-1.0565570016	 0.285234
H	-3.1097643617	-1.2208748862	-0.457118098	 0.224382
H	-0.0737947036	-2.1443126224	 1.1167393037	 0.270866
H	-1.5748653997	-3.8305781274	 1.6928047207	 0.148467
H	-2.9069031952	-2.7043872844	 1.4170897732	 0.142797
H	-1.5442104217	-4.0008651717	-1.0196981671	 0.093363
44.3869	53.7642	83.8211	114.0257	206.0902	282.8078	332.423	362.9745	386.562	483.9073	529.9866	536.916	560.1525	657.6632	668.6381	713.3799	824.9762	840.139	854.038	1033.7853	1048.201	1101.5563	1113.4705	1198.1737	1253.0825	1292.372	1333.1981	1395.7367	1403.8209	1448.5316	1548.6781	1587.0159	1712.7773	1796.3724	1841.3634	2885.2725	3024.4148	3078.8389	3486.8197	3582.2595	3591.4969	3735.2897
NC(=O)C(=N)NCC=O	NC(=O)C(=N)NCC=O	
InChI=1S/C4H7N3O2/c5-3(4(6)9)7-1-2-8/h2H,1H2,(H2,5,7)(H2,6,9)	InChI=1S/C4H7N3O2/c5-3(4(6)9)7-1-2-8/h2H,1H2,(H2,5,7)(H2,6,9)
