25
gdb 76210	2.14653	1.31511	1.19449	1.2443	88.5	-0.2493	0.0715	0.3208	1269.7806	0.225665	-389.498661	-389.487753	-389.486809	-389.533223	42.386	
C	-0.7768374209	 1.0376639906	 0.1441780228	-0.427554
C	-0.0240938584	-0.2833581617	 0.0687903213	-0.023481
C	 0.8359742241	-0.6577607032	-1.1936482155	 0.332951
C	 0.1899909121	-1.6946518387	-2.1122824194	-0.446393
C	 1.3263628563	 0.5351617396	-2.0192294948	-0.449486
C	 1.9275119502	-1.2171434059	-0.2247929652	-0.329018
C	 1.2030302217	-0.5520533828	 0.9867420997	 0.40136
C	 1.9182011023	 0.6647074249	 1.5654976182	-0.45833
O	 0.8277899029	-1.4367152498	 2.035587413	-0.479431
H	-0.1276964255	 1.9024289751	-0.0233981785	 0.110679
H	-1.5742774445	 1.0749443556	-0.6062864687	 0.112787
H	-1.2468658757	 1.1595324504	 1.1260375111	 0.119903
H	-0.7260605222	-1.1019508275	 0.2587887714	 0.079521
H	-0.6811314857	-1.2760891455	-2.631118432	 0.108678
H	 0.8948700504	-2.0400673155	-2.8781744874	 0.107708
H	-0.1467296084	-2.5702085047	-1.5476760035	 0.112411
H	 1.8163216313	 1.2990189054	-1.4082711047	 0.112053
H	 2.0529060207	 0.2026695948	-2.7697394497	 0.110158
H	 0.4993834818	 1.0186920684	-2.5514296369	 0.111739
H	 1.8988311686	-2.3066112734	-0.142118176	 0.094111
H	 2.9572483523	-0.8995192737	-0.4175903948	 0.083835
H	 2.2042932881	 1.3860537751	 0.7954517254	 0.120742
H	 1.2856486509	 1.1731312465	 2.2994283742	 0.123071
H	 2.8414901305	 0.3500040917	 2.0695544519	 0.102527
H	 1.6029852772	-1.5931183957	 2.5862878882	 0.269458
86.4575	195.1322	206.8224	218.8481	228.9862	233.7154	239.7683	251.6717	282.0994	325.2466	332.2974	341.0584	396.2976	422.4778	511.8997	534.8986	576.1529	727.313	751.2645	849.4377	878.6369	898.4553	943.0291	950.3738	974.8793	983.8263	1019.6776	1040.063	1082.7696	1085.9829	1133.9482	1165.7396	1203.2409	1211.1066	1241.9611	1253.885	1283.9876	1322.5203	1363.1375	1383.3643	1400.6153	1406.8996	1410.8533	1422.5361	1474.9397	1479.5383	1484.2035	1487.1246	1491.0958	1497.7691	1502.4013	1507.5699	1509.01	3015.9469	3020.4425	3025.193	3030.366	3043.2029	3051.1707	3077.8042	3086.1759	3088.5529	3091.6662	3093.3797	3099.2369	3103.6817	3105.9697	3120.2427	3795.5083
CC1C(C)(C)CC1(C)O	C[C@H]1C(C)(C)C[C@]1(C)O	
InChI=1S/C8H16O/c1-6-7(2,3)5-8(6,4)9/h6,9H,5H2,1-4H3	InChI=1S/C8H16O/c1-6-7(2,3)5-8(6,4)9/h6,9H,5H2,1-4H3/t6-,8-/m0/s1
