25
gdb 77921	2.11291	1.33692	1.3047	0.1735	94.02	-0.2743	0.0879	0.3622	1251.9518	0.227431	-352.312222	-352.301666	-352.300722	-352.347495	39.709	
C	 0.4789315653	 1.4890006417	-1.1888859677	-0.45151
C	 0.424701166	-0.010716398	-0.8834532826	 0.023622
C	 1.6429231707	-0.9955964355	-0.9133707985	-0.109724
C	 2.1220491007	-0.4427941641	 0.4636022563	 0.03344
C	 2.9190175637	 0.8547211491	 0.6115907845	-0.457534
C	 0.5541698526	-0.579607344	 0.5727654894	 0.291689
C	-0.3062212922	-0.2470028381	 1.7644330236	-0.522476
C	 0.7630039076	-1.9925983488	-0.0859379806	 0.032745
C	-0.3773578262	-2.8031913178	-0.6871423119	-0.456432
H	 1.0508530443	 1.6938189953	-2.1015345512	 0.114593
H	-0.5367169951	 1.8616951232	-1.3602778638	 0.108706
H	 0.9040540987	 2.0922675861	-0.3866578178	 0.121676
H	-0.4335985153	-0.4146055133	-1.4247054523	 0.05795
H	 2.2687328751	-1.2390291104	-1.7758325466	 0.055773
H	 2.6177014663	-1.2095737286	 1.0721830195	 0.055545
H	 2.6044414214	 1.422469499	 1.4956972491	 0.113154
H	 3.9781773662	 0.6128489823	 0.750854797	 0.110529
H	 2.8576428264	 1.5172127676	-0.2511500173	 0.123587
H	-0.2736207449	 0.8248762891	 1.9922836357	 0.117374
H	-1.3539070068	-0.5146364213	 1.5850145868	 0.116609
H	 0.0290485231	-0.7868359259	 2.6574657637	 0.115427
H	 1.3672967915	-2.6586398159	 0.5416558466	 0.055319
H	-1.0380621451	-2.2367469058	-1.3473868552	 0.119224
H	 0.0233503388	-3.6421919441	-1.2672650746	 0.115785
H	-0.9977795731	-3.2301810317	 0.1094310178	 0.114929
49.274	124.3479	154.9213	164.4386	182.7073	192.8055	210.948	252.6291	339.1744	360.6369	394.0167	447.2335	519.983	623.1653	633.4842	725.0431	775.1289	779.9561	797.054	828.2544	924.1327	1005.3441	1016.2024	1021.45	1036.2482	1044.2492	1059.1692	1109.448	1114.8596	1129.9644	1158.1068	1168.3056	1177.1563	1198.2481	1220.5918	1247.3123	1263.8398	1316.501	1397.793	1405.2358	1406.728	1410.569	1416.8976	1435.9738	1469.8435	1487.5537	1490.2865	1493.3352	1496.0806	1498.6074	1500.0655	1507.43	1528.6026	3008.1752	3019.4388	3025.3284	3031.6249	3032.639	3033.3802	3065.9003	3077.9016	3082.515	3083.4492	3084.6502	3086.3593	3087.2998	3115.5366	3132.9585	3152.0965
CC1C2C(C)C1(C)C2C	C[C@H]1[C@H]2[C@@H](C)[C@]1(C)[C@H]2C	
InChI=1S/C9H16/c1-5-8-6(2)9(5,4)7(8)3/h5-8H,1-4H3	InChI=1S/C9H16/c1-5-8-6(2)9(5,4)7(8)3/h5-8H,1-4H3/t5-,6-,7+,8-,9+/m0/s1
