21
gdb 105888	2.04043	1.48459	1.31721	0.9434	78.79	-0.2384	0.074	0.3125	1147.5766	0.180703	-424.181635	-424.171957	-424.171013	-424.215788	36.224	
C	-0.3149531457	 1.3336663989	-0.1180684755	-0.259312
O	 0.2184328974	 0.0313114778	 0.0650867155	-0.280179
C	 0.7708512637	-0.5123302243	-1.0780339639	 0.388035
C	-0.0961281626	-1.0849483357	-2.1524662595	 0.024579
O	 0.0421841083	-0.7220034142	-3.4998872119	-0.419971
C	 0.8568308559	-2.0077164822	-1.4347343542	-0.210724
C	 2.2837396324	-1.8002382244	-1.9588968524	-0.248644
C	 2.2370083788	-0.3026432911	-1.5002394472	-0.027215
C	 2.6184311359	 0.8015798162	-2.4807491522	-0.425887
H	 0.466333046	 2.0643125731	-0.3675550009	 0.115387
H	-1.0728928103	 1.348525095	-0.9133109629	 0.115607
H	-0.7794371577	 1.6230110899	 0.8274989826	 0.124893
H	-1.1292235956	-1.1989828404	-1.8198121042	 0.091743
H	-0.1356125368	-1.5023074527	-4.036376774	 0.286366
H	 0.5026752746	-2.8684091228	-0.8798185492	 0.092181
H	 3.0352005473	-2.389994757	-1.4311877354	 0.102
H	 2.4044175927	-1.9510560929	-3.0354205572	 0.093226
H	 2.8237946448	-0.2052665701	-0.5805352291	 0.080137
H	 2.0321387404	 0.7283644434	-3.3986006048	 0.142243
H	 2.45238603	 1.7933846237	-2.0454960202	 0.108929
H	 3.6814437005	 0.7344235096	-2.7401428632	 0.106604
74.887	142.7629	171.3113	184.9198	206.6045	224.2838	279.7418	294.3621	354.3349	377.2185	408.6049	527.0907	574.1552	671.202	717.9843	818.0338	840.7288	875.8425	911.9981	966.0156	1000.2062	1029.123	1048.9479	1080.2158	1117.8934	1123.5002	1145.7764	1178.7449	1183.1861	1211.6027	1230.1213	1238.6599	1248.4258	1293.4164	1305.2114	1333.6588	1376.8194	1405.5392	1453.8771	1482.004	1487.4843	1493.9324	1503.373	1504.475	1510.8053	2996.5855	3028.7356	3046.7139	3051.8327	3058.7438	3084.6928	3094.5331	3115.3415	3118.252	3137.4459	3181.8242	3795.7842
COC12C(O)C1CC2C	CO[C@]12[C@@H](O)[C@H]1C[C@H]2C	
InChI=1S/C7H12O2/c1-4-3-5-6(8)7(4,5)9-2/h4-6,8H,3H2,1-2H3	InChI=1S/C7H12O2/c1-4-3-5-6(8)7(4,5)9-2/h4-6,8H,3H2,1-2H3/t4-,5-,6+,7+/m1/s1
