14
gdb 129859	5.37201	1.26124	1.025	4.6889	70.88	-0.1957	0.0079	0.2035	1074.9071	0.103813	-432.862118	-432.855063	-432.854119	-432.893374	27.355	
N	 0.1331742796	 1.3895708525	 0.1461340518	-0.604404
C	-0.0356162363	 0.0003731567	 0.0349358789	 0.335383
C	-1.1499616749	-0.8029310142	 0.0415423838	-0.434231
C	-0.6686474461	-2.159281961	 0.003719152	 0.192305
C	 0.7037533889	-2.0832246699	-0.0303955991	 0.481399
N	 1.1252326059	-0.7916548407	-0.028497293	-0.443144
O	 1.3135134959	-3.2603914522	-0.0964674679	-0.252774
N	 0.2638816551	-4.2371816025	-0.1017280114	-0.160351
C	-0.8672816076	-3.5639051552	-0.0453023244	-0.120171
H	 0.4287181254	 1.8223062602	-0.724576662	 0.249294
H	-0.7247438991	 1.8348925041	 0.4461419703	 0.253611
H	-2.1699764176	-0.4528950363	 0.0477718415	 0.099938
H	 2.0545462773	-0.4453293493	 0.1371658561	 0.27417
H	-1.7842159065	-4.1374140522	-0.0412505767	 0.128976
151.973	170.1273	282.4705	310.6348	341.786	404.8957	511.8612	563.3118	600.5888	637.5433	728.1757	757.5244	766.4896	802.3866	817.2908	839.6928	899.4047	957.0857	1000.6631	1140.0337	1176.3622	1198.389	1222.8971	1262.7947	1392.367	1439.9369	1483.8848	1560.5807	1600.3649	1623.0355	1656.3645	3235.2526	3255.3441	3491.7011	3606.2029	3679.2019
NC1=CC2=C(N1)ON=C2	Nc1cc2c([nH]1)onc2	
InChI=1S/C5H5N3O/c6-4-1-3-2-7-9-5(3)8-4/h1-2,8H,6H2	InChI=1S/C5H5N3O/c6-4-1-3-2-7-9-5(3)8-4/h1-2,8H,6H2
