19
gdb 85663	2.18219	1.48151	1.05314	1.7982	84.04	-0.2385	0.0138	0.2523	1217.9449	0.156697	-385.868411	-385.858925	-385.857981	-385.902941	35.097	
C	 0.3326671544	 1.4765884538	-0.2541719136	-0.386642
C	-0.0002516521	 0.0133296424	 0.0414850513	 0.089358
O	 0.4358541592	-0.8254666591	-1.0408921177	-0.275836
C	 1.380223884	-1.7890832365	-0.5777637497	-0.145981
C	 2.6726691818	-1.6487577458	-1.2607092056	 0.342305
C	 3.739697949	-1.550232118	-1.8053399473	-0.475638
C	 1.481391162	-1.5674408023	 0.9254910041	 0.316387
C	 2.3599374301	-2.4121830661	 1.7866079311	-0.495423
C	 0.6884950473	-0.5526417638	 1.2513575974	-0.220953
H	 1.414773568	 1.6126768548	-0.3347741382	 0.125076
H	-0.1300196478	 1.7843040117	-1.1960631779	 0.126298
H	-0.0459568538	 2.1250628079	 0.5433345421	 0.109407
H	-1.0942992031	-0.0899961581	 0.1241363926	 0.082673
H	 0.9890523105	-2.7973369449	-0.7953633564	 0.105898
H	 4.6765591646	-1.4571093632	-2.2969528628	 0.198774
H	 3.4013969658	-2.3590129296	 1.4493248105	 0.144415
H	 2.3164186603	-2.0960648188	 2.8316065161	 0.127867
H	 2.0660897848	-3.4683891407	 1.7365320412	 0.12995
H	 0.5419406549	-0.1539541834	 2.2481706527	 0.102063
43.0689	132.9097	136.6781	178.7799	220.4078	231.3692	288.0171	358.7426	384.5846	472.9671	500.2602	581.9402	616.6968	628.845	667.2991	734.1238	831.2231	851.5304	893.5414	920.7817	989.908	1009.5703	1029.3229	1066.4879	1074.2628	1102.554	1129.7122	1207.7552	1269.7406	1318.0964	1340.465	1347.7811	1372.3758	1397.897	1413.3137	1476.9438	1484.3654	1489.8975	1493.3544	1740.4488	2231.3665	2955.1403	2968.4663	3024.2106	3036.8631	3076.1619	3110.2732	3120.3504	3123.9111	3205.3167	3501.8793
CC1OC(C#C)C(C)=C1	C[C@H]1O[C@@H](C#C)C(=C1)C	
InChI=1S/C8H10O/c1-4-8-6(2)5-7(3)9-8/h1,5,7-8H,2-3H3	InChI=1S/C8H10O/c1-4-8-6(2)5-7(3)9-8/h1,5,7-8H,2-3H3/t7-,8+/m1/s1
