16
gdb 22903	2.13814	1.6978	0.98147	1.3494	70.01	-0.2413	-0.076	0.1654	1143.8459	0.123343	-474.999822	-474.991301	-474.990356	-475.033171	31.588	
O	-0.1310845183	 1.2275615947	 0.6953328084	-0.343983
N	-0.0965993528	-0.1308823876	 0.480127255	-0.230876
C	-1.1780136352	-0.6304891862	 0.0221418377	 0.262239
C	-1.2556240577	-2.127116806	-0.2116599498	 0.073132
O	-0.458950242	-2.8981269929	 0.6519190768	-0.436203
C	-2.7571992185	-2.4221611272	-0.0384843376	-0.244174
C	-3.4568293852	-1.1779909342	-0.61433679	-0.335155
C	-2.5173485648	-0.0107242893	-0.2925986868	 0.343362
O	-2.7986970673	 1.1601915475	-0.2849332498	-0.29789
H	 0.7460263554	 1.4076443392	 1.0549177291	 0.317097
H	-0.9787679149	-2.3209710242	-1.2649586914	 0.087327
H	 0.328952194	-2.3755839467	 0.8463562411	 0.291938
H	-3.055321863	-3.3551176773	-0.5203360102	 0.115286
H	-2.9576458605	-2.5153119767	 1.0339900593	 0.124294
H	-3.5472150079	-1.2407053735	-1.7071789372	 0.13632
H	-4.4577052515	-0.9903053495	-0.2206052946	 0.137287
62.9994	157.6183	190.5001	212.5157	252.4729	310.9815	337.3782	437.4025	490.2724	501.9994	515.4179	569.1971	621.5566	704.695	725.1306	847.6618	941.0019	989.6755	1024.9072	1055.3932	1083.7107	1103.6692	1155.6624	1214.8293	1220.1783	1276.9646	1293.2882	1311.9375	1370.9601	1410.7381	1428.121	1455.4245	1501.7531	1709.9301	1830.595	2923.4587	3031.9237	3060.5454	3114.0027	3120.7497	3780.2845	3793.6091
ON=C1C(O)CCC1=O	ON=C1[C@@H](O)CCC1=O	
InChI=1S/C5H7NO3/c7-3-1-2-4(8)5(3)6-9/h3,7,9H,1-2H2	InChI=1S/C5H7NO3/c7-3-1-2-4(8)5(3)6-9/h3,7,9H,1-2H2/t3-/m0/s1
