23
gdb 118690	2.06927	1.20804	1.06293	1.7439	82.75	-0.2221	0.0692	0.2913	1348.0129	0.202398	-425.407325	-425.396232	-425.395287	-425.443467	40.26	
C	-0.1355338778	 1.4677521573	 0.3434786602	-0.388136
C	-0.1283879956	-0.041773401	 0.1711019569	-0.063119
O	 0.8430779287	-0.5826958964	 1.0687672438	-0.307877
C	 0.8229483246	-1.9863077197	 1.1957830454	 0.371883
C	 1.0307860803	-2.7766186956	-0.0751803592	-0.470045
C	 1.4276445656	-2.4826180754	 2.4982267787	-0.134288
C	 2.1053249154	-1.5564858507	 3.4837529016	-0.400991
C	-0.0809966745	-2.4782815199	 2.3083532584	 0.062334
O	-0.8779356396	-1.5525595775	 2.9860092506	-0.436369
H	 0.8609181382	 1.87813147	 0.1571000795	 0.131148
H	-0.8372876742	 1.9261770786	-0.3596308832	 0.119502
H	-0.4348776913	 1.7473271227	 1.3583463205	 0.120675
H	-1.1185093779	-0.4684919598	 0.3851557432	 0.108061
H	 0.1290830454	-0.3014476846	-0.8649541085	 0.100789
H	 1.9765109931	-2.4992092735	-0.5548099063	 0.123343
H	 1.06862595	-3.8455924046	 0.1522798883	 0.121424
H	 0.2217217363	-2.6253956834	-0.7974285768	 0.11992
H	 1.8939574097	-3.4622278949	 2.41836169	 0.08103
H	 1.6391655097	-0.5704366616	 3.5063937444	 0.118421
H	 2.0615429095	-1.9736590875	 4.4951588984	 0.119424
H	 3.1587616004	-1.4127519195	 3.222411692	 0.116814
H	-0.6000936618	-3.4257464908	 2.1992014672	 0.095447
H	-0.5316589141	-0.6807707024	 2.7578435651	 0.290609
70.4724	86.1097	113.8027	122.7209	186.3976	204.0415	228.0569	251.8555	272.6725	283.7663	340.1557	428.4697	432.9615	506.285	572.863	628.9769	727.8373	789.5468	826.4506	828.8415	896.7493	965.8839	987.1562	1015.7454	1069.4201	1089.7436	1119.3914	1122.8683	1136.9682	1152.3805	1170.4286	1187.8443	1238.574	1284.7533	1301.4634	1321.292	1383.0055	1402.8532	1411.7244	1416.5476	1428.788	1465.003	1484.2663	1485.4014	1489.0592	1497.9814	1500.2395	1508.0331	1529.0635	2998.6002	3028.5458	3035.1369	3040.7906	3042.6241	3092.8065	3097.0522	3111.0139	3114.2018	3121.8974	3123.2991	3139.3691	3155.3238	3777.0338
CCOC1(C)C(C)C1O	CCO[C@@]1(C)[C@@H](C)[C@H]1O	
InChI=1S/C7H14O2/c1-4-9-7(3)5(2)6(7)8/h5-6,8H,4H2,1-3H3	InChI=1S/C7H14O2/c1-4-9-7(3)5(2)6(7)8/h5-6,8H,4H2,1-3H3/t5-,6+,7-/m0/s1
