18
gdb 23310	3.09973	1.23737	0.96703	1.8653	75.9	-0.2455	-0.0014	0.2441	1220.7468	0.147301	-439.042473	-439.034168	-439.033224	-439.075363	31.874	
C	 0.1399238882	 1.5819660322	 0.0365707343	-0.403421
C	 0.0106254424	 0.057890777	 0.0312388384	-0.01004
C	 0.6146414579	-0.6241363765	-1.2312093977	-0.336175
C	 1.2116342496	-1.9238431227	-0.7351487858	 0.432303
N	 1.4562681849	-3.0052464273	-1.3609324939	-0.2472
O	 1.1254516628	-2.8980252294	-2.7199357617	-0.387805
C	 1.4398032154	-1.8170680611	 0.726771798	-0.059468
O	 2.1515705503	-0.6037738701	 1.064345323	-0.260692
C	 0.7285968207	-0.6161805642	 1.1943135499	 0.044039
H	 1.195221567	 1.8724633641	 0.0314124247	 0.13444
H	-0.3398526362	 2.0212350304	-0.8436643159	 0.118139
H	-0.327906626	 2.0185272032	 0.9252338452	 0.114237
H	-1.0500516946	-0.2160991588	 0.1065736471	 0.082748
H	-0.1219567706	-0.8023542985	-2.017078769	 0.13193
H	 1.4046750183	-0.0033901428	-1.6683811972	 0.134881
H	 1.3294805451	-3.7798523328	-3.0496143006	 0.308635
H	 1.657896788	-2.6892619557	 1.3328575517	 0.107325
H	 0.3495132468	-0.522816127	 2.2097755795	 0.096125
85.5404	149.3207	190.2511	241.0496	266.882	344.2751	372.3616	442.6161	458.6259	511.0783	586.2982	640.718	691.7836	819.5771	849.2226	853.8323	879.1596	913.4167	948.5769	988.6977	1014.2872	1041.0874	1096.633	1113.8163	1144.5753	1200.1367	1234.0495	1255.9287	1276.0488	1313.7666	1326.9533	1361.0827	1401.9241	1414.7254	1424.3762	1469.5593	1496.8795	1502.4852	1757.4006	3020.8833	3034.1251	3053.2132	3101.8226	3110.6689	3115.224	3138.9094	3186.9261	3816.7483
CC1CC(=NO)C2OC12	C[C@H]1CC(=NO)[C@H]2O[C@@H]12	
InChI=1S/C6H9NO2/c1-3-2-4(7-8)6-5(3)9-6/h3,5-6,8H,2H2,1H3	InChI=1S/C6H9NO2/c1-3-2-4(7-8)6-5(3)9-6/h3,5-6,8H,2H2,1H3/t3-,5-,6+/m0/s1
