20
gdb 126619	4.5776	0.82848	0.75219	0.5459	83.31	-0.2424	0.0068	0.2492	1596.655	0.171624	-399.354282	-399.3447	-399.343756	-399.390569	33.374	
C	-0.0582447627	 1.5271110124	-0.0018173914	-0.381368
C	-0.0245688098	-0.0024803461	-0.0304707562	-0.17559
C	 0.7530330493	-0.5339421364	-1.2393039298	-0.125548
N	 0.7939669296	-1.9861140879	-1.2836374119	 0.142034
N	 1.7608575843	-2.6845764125	-0.7017673518	-0.22924
C	 1.3891813356	-3.9512198282	-0.894112389	-0.133283
C	 0.1733926866	-3.9728001164	-1.5997806083	 0.305756
C	-0.65346713	-5.1252503123	-2.070315109	-0.497175
N	-0.1836809611	-2.7044886985	-1.829812114	-0.296187
H	 0.9518554988	 1.9475521305	 0.0550296419	 0.119788
H	-0.5369299846	 1.9327631802	-0.8999669711	 0.119645
H	-0.6178302493	 1.8898397765	 0.8649545021	 0.121207
H	 0.4411464105	-0.3899328849	 0.8825595763	 0.11802
H	-1.0427684245	-0.4053724708	-0.0656974455	 0.119311
H	 0.2937568315	-0.1990723893	-2.1729386572	 0.1323
H	 1.7904933794	-0.1919028402	-1.2156484415	 0.134011
H	 1.9968052983	-4.7674150506	-0.5356277255	 0.11674
H	-0.9612369453	-5.7644748203	-1.2360292455	 0.133003
H	-1.5518643353	-4.7590178541	-2.5712022155	 0.142791
H	-0.1004497312	-5.7549403411	-2.775553787	 0.133785
35.0749	49.5723	83.7812	89.0672	229.5165	256.2164	271.9498	302.9084	384.0767	423.8779	656.0225	696.3608	699.4678	754.8324	791.6072	865.3731	881.5341	903.8956	995.6071	1021.1682	1045.2475	1059.2283	1068.3864	1118.6613	1124.3005	1204.8896	1249.8561	1313.562	1331.2814	1352.4889	1388.2203	1403.6334	1405.2429	1415.1447	1416.6664	1437.5441	1472.2549	1485.379	1493.3265	1499.2699	1499.4979	1509.5261	1559.9234	3032.4045	3038.7078	3042.1991	3072.4025	3075.2931	3090.5802	3100.5563	3110.4764	3130.2145	3133.6878	3262.1977
CCCN1N=CC(C)=N1	CCCn1ncc(C)n1	
InChI=1S/C6H11N3/c1-3-4-9-7-5-6(2)8-9/h5H,3-4H2,1-2H3	InChI=1S/C6H11N3/c1-3-4-9-7-5-6(2)8-9/h5H,3-4H2,1-2H3
