15
gdb 15507	3.7299	1.9218	1.298	5.8017	65.06	-0.2388	0.0044	0.2432	899.6071	0.121499	-396.023739	-396.016397	-396.015453	-396.055768	26.2	
N	 0.0793817455	 1.3122701426	 0.1244910401	-0.418591
C	-0.0338326471	 0.0492814976	 0.1002797244	 0.081398
N	-1.2344199184	-0.6353640161	-0.0086507519	-0.11978
C	-1.2632079634	-2.0881463465	-0.1548042675	-0.170409
C	-2.7515717519	-2.4168512567	 0.0594068544	-0.176732
N	-3.3738443059	-1.1739573961	-0.3628958809	-0.354198
C	-2.5260476083	-0.0855132907	-0.1801117726	 0.470482
O	-2.8429193455	 1.0735791252	-0.1840679237	-0.367763
H	 1.0615585785	 1.562310255	 0.2268800618	 0.22583
H	 0.8017037403	-0.6604615949	 0.174652103	 0.085857
H	-0.9376544173	-2.3892067918	-1.1592602347	 0.124309
H	-0.6192141216	-2.5786646431	 0.579503724	 0.125732
H	-3.0730133335	-3.2655680427	-0.5496410413	 0.122929
H	-2.9550033241	-2.6500325975	 1.1146149927	 0.114182
H	-4.3496762373	-0.9965436143	-0.1832445479	 0.256753
76.2914	142.1796	199.0474	214.5585	225.034	473.8825	484.8061	531.6989	698.5087	733.3574	757.8344	783.1013	812.7309	903.8694	968.7993	1060.0405	1082.936	1120.8517	1129.5644	1209.7598	1221.3163	1244.4551	1260.0083	1340.4461	1351.5498	1433.6266	1436.3932	1440.4054	1520.0489	1533.776	1724.2669	1871.8145	2996.2897	3011.7438	3019.819	3084.5659	3093.0993	3498.7373	3640.8138
N=CN1CCNC1=O	[NH][CH]N1CCNC1=O	
InChI=1S/C4H7N3O/c5-3-7-2-1-6-4(7)8/h3,5H,1-2H2,(H,6,8)	InChI=1S/C4H7N3O/c5-3-7-2-1-6-4(7)8/h3,5H,1-2H2,(H,6,8)
