19
gdb 62140	5.93049	0.61079	0.57971	3.627	79.54	-0.2717	0.0051	0.2768	1847.3431	0.155651	-423.018549	-423.008102	-423.007158	-423.055454	36.291	
C	-0.1862065386	 1.414292241	 0.2168010501	-0.403673
C	-0.047835191	-0.1004248481	 0.0428051805	 0.017221
C	-1.4081706796	-0.7997790771	 0.0128255428	-0.089083
O	-2.088130245	-0.6147682674	 1.2590632835	-0.182336
C	-3.3307675883	-0.0963520447	 1.2468548928	 0.17135
O	-3.9706730217	 0.0721325586	 2.2399634259	-0.272373
C	 0.7281546786	-0.4705859908	-1.2454967971	-0.36762
C	 2.1035201231	 0.0109554452	-1.2485060139	 0.295536
C	 3.2371049265	 0.4099105618	-1.2313144383	-0.428549
H	 0.7977123924	 1.8890968252	 0.2346076559	 0.139372
H	-0.7563242771	 1.8541374426	-0.6111221839	 0.109836
H	-0.6998805858	 1.6550662219	 1.1507025831	 0.136826
H	 0.5091220207	-0.5048918589	 0.8962053595	 0.107956
H	-2.0248625097	-0.4115149813	-0.8106586349	 0.107113
H	-1.2874258387	-1.8790027932	-0.133168483	 0.120181
H	-3.6814148694	 0.1510330037	 0.2252687716	 0.07762
H	 0.7303829178	-1.5615298201	-1.3709115656	 0.131142
H	 0.1982835422	-0.0637445307	-2.1182906095	 0.130438
H	 4.2403766537	 0.7577684523	-1.2260434196	 0.199043
33.2951	52.2224	85.1925	122.816	163.9318	235.1307	244.7946	297.9154	346.8999	372.9432	380.7292	414.3144	562.6719	623.1391	644.1705	674.6877	841.0977	889.5114	925.0292	932.5584	985.5028	1044.5989	1050.6158	1112.3213	1133.277	1137.6118	1197.3105	1253.6053	1292.2228	1309.0488	1359.8446	1386.559	1397.3718	1415.2684	1435.3832	1470.88	1496.5979	1501.6585	1507.9899	1868.0948	2240.0193	2941.7046	3002.2063	3008.0961	3029.7198	3037.1373	3050.0004	3070.1613	3107.1839	3131.7124	3506.0738
CC(COC=O)CC#C	C[C@@H](COC=O)CC#C	
InChI=1S/C7H10O2/c1-3-4-7(2)5-9-6-8/h1,6-7H,4-5H2,2H3	InChI=1S/C7H10O2/c1-3-4-7(2)5-9-6-8/h1,6-7H,4-5H2,2H3/t7-/m1/s1
