15
gdb 113640	2.46029	1.1662	0.9692	1.5403	69.02	-0.2723	-0.0758	0.1965	1228.6655	0.109227	-457.70198	-457.692738	-457.691793	-457.737017	32.379	
O	-0.9460253673	 0.0473330377	-2.0848602884	-0.41384
C	-0.1655816872	-0.3743210749	-0.9798553249	-0.10203
C	-0.9229927752	-0.1707857103	 0.3094938774	 0.031628
O	-1.9555224354	-1.1156112258	 0.6051408457	-0.247648
C	-0.8471263698	-1.0555541618	 1.4962834626	-0.04923
C	 0.0729839021	-2.2425546265	 1.6065422305	 0.206303
O	 0.9164892065	-2.2785263265	 2.4765007171	-0.279561
C	-0.118291934	-3.338144341	 0.6744257589	 0.287749
C	-0.252793817	-4.2870616029	-0.0539401647	-0.429981
H	-1.7313704258	-0.5108809857	-2.1068791097	 0.295061
H	 0.1513226206	-1.4194501391	-1.0801660653	 0.110711
H	 0.7305690501	 0.2552796233	-0.9771716223	 0.124129
H	-1.2124337871	 0.8641580128	 0.4996302977	 0.116321
H	-1.0385141056	-0.6021986603	 2.4684612542	 0.128165
H	-0.3723399848	-5.123611509	-0.6993398689	 0.222223
49.2955	70.6286	119.7015	147.5553	205.3964	264.237	301.8321	378.6404	437.4744	452.4483	521.6185	653.9381	658.112	688.99	720.9364	775.3663	829.3152	901.5122	960.9719	1035.5581	1071.67	1101.1871	1131.7692	1218.4817	1236.6173	1285.1129	1352.1868	1378.5904	1418.6393	1467.5492	1490.1101	1758.2223	2212.3963	3034.5127	3084.0498	3106.6886	3126.9782	3492.0258	3804.9126
OCC1OC1C(=O)C#C	OC[C@H]1O[C@H]1C(=O)C#C	
InChI=1S/C6H6O3/c1-2-4(8)6-5(3-7)9-6/h1,5-7H,3H2	InChI=1S/C6H6O3/c1-2-4(8)6-5(3-7)9-6/h1,5-7H,3H2/t5-,6+/m1/s1
