18
gdb 89198	2.47768	1.54751	1.22638	4.8289	72.21	-0.2387	0.0236	0.2623	1076.2447	0.147122	-439.090004	-439.081462	-439.080518	-439.12292	32.692	
C	-0.0961239168	 1.5792767664	-0.0094625242	-0.414048
C	 0.043543149	 0.0650255724	 0.0436949187	 0.034074
C	 1.0914569731	-0.6142842589	-0.8966614661	-0.33619
C	 1.7582287114	-1.3214023569	 0.3219558297	 0.278352
O	 2.0455461888	-2.6706878997	 0.2776975649	-0.466128
C	 0.7391600093	-0.5763794152	 1.2841837622	-0.083419
N	 1.8951491689	 0.150231588	 1.8076157809	-0.316797
C	 2.841650497	-0.426529974	 0.979448385	 0.377132
O	 4.0166528619	-0.2374389224	 0.8293685383	-0.353161
H	 0.8695237768	 2.0730406523	 0.1402838873	 0.119774
H	-0.4825728225	 1.9023411794	-0.9816802323	 0.123499
H	-0.7862085369	 1.9432090871	 0.7600599227	 0.1169
H	-0.9380799874	-0.4002933874	-0.0935333425	 0.077985
H	 0.6447412363	-1.3295691934	-1.5952201563	 0.099828
H	 1.7489123531	 0.0478813121	-1.4657144165	 0.123582
H	 1.4109248106	-3.1085178693	-0.2991143988	 0.285897
H	 0.1282274845	-1.0727798771	 2.0389907718	 0.085525
H	 1.9399823729	 1.0442451768	 2.2769782351	 0.247195
79.3992	172.7641	224.4047	240.5601	252.9754	277.5315	310.3235	379.4576	444.6849	509.4734	576.6167	623.9144	706.5337	730.1831	790.0024	830.3411	880.2954	896.0574	933.4891	970.9085	1037.8356	1045.4327	1092.9218	1105.0527	1124.6142	1180.2203	1204.6118	1232.5079	1266.4753	1283.5018	1336.027	1357.1533	1361.7215	1403.8199	1410.8067	1478.5016	1495.461	1501.9336	1895.5249	3029.8128	3042.4504	3051.9125	3095.593	3102.0946	3104.6917	3107.5438	3592.7314	3808.232
CC1CC2(O)C1NC2=O	C[C@H]1C[C@]2(O)[C@H]1NC2=O	
InChI=1S/C6H9NO2/c1-3-2-6(9)4(3)7-5(6)8/h3-4,9H,2H2,1H3,(H,7,8)	InChI=1S/C6H9NO2/c1-3-2-6(9)4(3)7-5(6)8/h3-4,9H,2H2,1H3,(H,7,8)/t3-,4-,6-/m0/s1
