18
gdb 93590	4.69046	0.9705	0.8313	4.3741	81.56	-0.2668	-0.0417	0.2251	1358.7748	0.148281	-401.981241	-401.972775	-401.971831	-402.014351	31.659	
C	-0.0127723273	 1.5234707846	 0.0900238094	-0.405373
C	 0.0228696342	 0.0078559242	-0.014409011	 0.12664
C	 0.7437581808	-0.4978273359	-1.2713245242	-0.25818
C	 1.0546895834	-1.961632855	-1.1630445534	-0.139039
C	 0.9781945937	-2.6091907185	 0.0069407492	 0.13754
C	 0.6172738499	-1.8767024309	 1.2884603748	-0.164617
O	 0.6916510782	-0.4797879766	 1.1467568701	-0.254123
C	 1.2214926746	-4.0102494534	 0.1117259523	 0.216693
N	 1.4071975875	-5.1464235639	 0.2425897658	-0.33124
H	 1.0044113866	 1.9232282448	 0.1450974487	 0.129449
H	-0.5115272729	 1.9577527186	-0.7816126686	 0.118785
H	-0.5513194352	 1.8311210232	 0.9898243891	 0.129357
H	-1.0078494603	-0.3859795954	-0.0233865638	 0.074372
H	 0.1262702722	-0.3143359614	-2.159516566	 0.119012
H	 1.6738812133	 0.0683241804	-1.4238427593	 0.127623
H	 1.3397084487	-2.4991012512	-2.062251321	 0.119344
H	-0.3884765222	-2.1924185446	 1.6172910205	 0.11549
H	 1.3177725847	-2.1497771089	 2.0842232473	 0.138268
77.3785	147.4009	202.2683	206.9921	237.6132	309.3892	366.5323	394.3451	465.4261	523.634	558.1201	578.3831	639.2586	784.9078	856.8611	886.8238	922.0613	943.305	1032.776	1038.5766	1066.4366	1107.3794	1146.1601	1161.1585	1171.4412	1233.7975	1276.3982	1324.206	1344.4199	1383.113	1392.428	1405.6678	1414.1675	1458.9784	1483.8345	1487.8893	1501.1364	1701.0935	2334.7296	2953.7119	2958.6231	3011.3833	3044.3102	3053.1836	3075.287	3117.872	3126.2406	3180.5484
CC1CC=C(CO1)C#N	C[C@H]1CC=C(CO1)C#N	
InChI=1S/C7H9NO/c1-6-2-3-7(4-8)5-9-6/h3,6H,2,5H2,1H3	InChI=1S/C7H9NO/c1-6-2-3-7(4-8)5-9-6/h3,6H,2,5H2,1H3/t6-/m0/s1
