17
gdb 33705	3.78741	1.49405	1.25146	1.0429	83.91	-0.2207	0.0087	0.2294	1011.2127	0.136673	-347.490891	-347.483877	-347.482933	-347.521895	29.317	
C	 0.0829666984	-1.1407331212	-0.0018856123	-0.373796
C	 0.0161281688	 0.0607015397	-0.0145183644	 0.132161
C	-0.0671012475	 1.4897140045	-0.0143692216	 0.205398
C	-1.2196528672	 2.201102424	 0.624430958	-0.170495
C	-1.3152098204	 3.4381171074	 0.1309239462	-0.089247
C	-0.1414504717	 3.6980900897	-0.784911091	-0.133911
C	 1.1512876512	 3.7453845104	 0.1290247923	-0.235419
C	 1.308918381	 2.2496079753	-0.0971939098	-0.10331
C	 0.3397369074	 2.2815869838	-1.2452125631	-0.099105
H	 0.1381353928	-2.2007372647	 0.0047345331	 0.181884
H	-1.8313989675	 1.7466937621	 1.3924048354	 0.104293
H	-2.0061650711	 4.2066790502	 0.4545421865	 0.100589
H	-0.2496293086	 4.4927018866	-1.5207965958	 0.075329
H	 1.9597898669	 4.2811229699	-0.37538915	 0.108364
H	 1.0298585407	 4.1266118533	 1.1475915317	 0.097853
H	 2.2122556902	 1.6649771519	 0.0226851027	 0.10004
H	 0.3960395268	 1.8688218572	-2.2447744677	 0.09937
147.1142	153.1126	353.0558	372.9227	465.7738	495.1997	527.5904	565.1357	574.8966	654.67	685.5618	719.4674	749.4249	806.0617	850.5956	862.92	876.8243	896.3336	932.4443	937.9393	992.9664	1005.7122	1024.1188	1072.1686	1084.3648	1114.4721	1180.1258	1182.2087	1225.7144	1233.4527	1263.243	1308.8744	1328.6351	1373.4056	1485.8394	1647.6115	2235.6997	3047.4998	3105.3812	3128.4673	3186.7069	3199.7087	3203.0482	3231.0614	3504.9682
C#CC12C=CC3CC1C23	C#C[C@@]12C=C[C@H]3C[C@@H]1[C@@H]23	
InChI=1S/C9H8/c1-2-9-4-3-6-5-7(9)8(6)9/h1,3-4,6-8H,5H2	InChI=1S/C9H8/c1-2-9-4-3-6-5-7(9)8(6)9/h1,3-4,6-8H,5H2/t6-,7+,8-,9+/m0/s1
