15
gdb 28594	5.31908	0.99658	0.88703	2.8712	71.21	-0.2051	0.001	0.206	1267.3269	0.113376	-453.945403	-453.937504	-453.93656	-453.978631	28.772	
N	 0.1203669639	 1.3136412414	-0.3820845369	-0.597909
C	-0.0503987061	-0.0222661831	-0.0713656731	 0.340914
C	-1.1014185365	-0.8046219382	 0.3028640749	-0.190209
N	-0.6239296703	-2.0724226578	 0.6057307232	-0.298523
C	 0.648575274	-2.0164889352	 0.3954275498	 0.397899
O	 1.077550643	-0.7757113455	-0.0186352094	-0.203467
C	 1.6676730535	-3.0709761545	 0.4908408363	-0.060199
C	 1.2977287583	-4.4305516864	 0.8982760015	-0.164016
O	 1.5936487988	-4.1480153563	-0.4666361478	-0.227537
H	 0.8288600874	 1.4735477534	-1.087302585	 0.263038
H	-0.7453953427	 1.7720720558	-0.629691725	 0.262394
H	-2.1448620599	-0.5476104053	 0.381842597	 0.112913
H	 2.6785599859	-2.7114921369	 0.6722925154	 0.107689
H	 2.0285584991	-5.0434016863	 1.4243202428	 0.115032
H	 0.2525537215	-4.6372213851	 1.1169555863	 0.141982
43.8301	139.2511	168.0731	204.3216	289.1248	333.7133	429.961	478.3805	644.8176	669.8858	707.4982	735.0732	757.5721	784.6089	825.1085	905.1328	969.9312	1008.0363	1030.4549	1095.4137	1102.5998	1140.1998	1159.5631	1167.0865	1230.0349	1285.3118	1291.2479	1401.8561	1459.0578	1521.4524	1609.6537	1629.4963	1670.9079	3089.3953	3136.8884	3187.0805	3269.7383	3546.2983	3648.076
NC1=CN=C(O1)C1CO1	Nc1cnc(o1)[C@H]1CO1	
InChI=1S/C5H6N2O2/c6-4-1-7-5(9-4)3-2-8-3/h1,3H,2,6H2	InChI=1S/C5H6N2O2/c6-4-1-7-5(9-4)3-2-8-3/h1,3H,2,6H2/t3-/m1/s1
