19
gdb 33168	3.27909	1.06067	0.8564	3.3881	77.53	-0.1974	0.0468	0.2443	1376.4952	0.160001	-419.244967	-419.235758	-419.234813	-419.279632	33.383	
C	 0.0049992353	 1.5613877579	 0.0039455927	-0.382217
C	 0.0105297202	 0.0310982764	 0.0125065323	-0.17335
C	-1.4089569982	-0.548768965	 0.0055190181	-0.160366
N	-1.4356238816	-2.0030034572	 0.0049035492	-0.041693
C	-1.6552717543	-2.8441453392	-1.0612416527	-0.007481
N	-1.5803363519	-4.1056636446	-0.7236899961	-0.267538
C	-1.2918446549	-4.1127344379	 0.6272882567	-0.21368
C	-1.2009232257	-2.822925602	 1.0802526058	 0.322959
O	-0.9484675374	-2.241231125	 2.2814103447	-0.443286
H	 1.0243723972	 1.9573525936	 0.0113050038	 0.121398
H	-0.4977628979	 1.9548281823	-0.8867013546	 0.117031
H	-0.5136352059	 1.9623306848	 0.881755915	 0.120414
H	 0.5533651415	-0.3522745551	-0.8593834232	 0.108872
H	 0.5344116516	-0.339348048	 0.9000063719	 0.122411
H	-1.9635353579	-0.193320058	 0.8804754826	 0.128776
H	-1.9542507436	-0.2150612835	-0.8831726702	 0.11823
H	-1.8705782647	-2.4558285954	-2.0458558557	 0.121202
H	-1.1734056303	-5.0293215097	 1.1846954357	 0.096825
H	-0.8516591417	-2.9359723945	 2.9398125741	 0.311494
56.0938	87.2338	98.1211	224.6445	239.4036	262.1911	276.5355	305.4059	384.456	464.7747	662.9137	677.0268	694.0601	752.5241	767.6069	769.7698	776.0444	879.9963	902.2492	935.5967	1043.4644	1109.9518	1122.905	1129.2206	1160.7503	1240.2699	1251.9907	1293.4758	1306.7054	1325.1902	1333.4602	1395.362	1404.3136	1416.95	1477.5367	1493.8421	1495.2145	1502.0433	1510.556	1556.21	1613.2853	3032.2069	3037.7106	3049.513	3071.8339	3091.389	3107.2907	3110.8884	3241.5267	3245.746	3844.825
CCCN1C=NC=C1O	CCCn1cncc1O	
InChI=1S/C6H10N2O/c1-2-3-8-5-7-4-6(8)9/h4-5,9H,2-3H2,1H3	InChI=1S/C6H10N2O/c1-2-3-8-5-7-4-6(8)9/h4-5,9H,2-3H2,1H3
