20
gdb 30150	3.51813	1.1981	1.04469	2.0194	85.09	-0.2002	0.0436	0.2438	1217.4728	0.172554	-366.03369	-366.025384	-366.02444	-366.066984	32.158	
C	-0.5480977282	 1.3331359758	 0.14118658	-0.410104
C	-0.055464402	-0.0951232918	 0.0824066358	 0.000897
C	 1.3610344514	-0.3914557157	-0.3458802867	-0.313926
C	 0.9471728818	-0.6358730658	 1.081955583	 0.003378
N	 1.4657678622	 0.2026458215	 2.1209633979	 0.03303
C	 2.7746670183	 0.6061443781	 2.2625086705	-0.094996
C	 2.8894943377	 1.2985783046	 3.4442954114	-0.173987
C	 1.603671433	 1.3099732829	 4.053828444	-0.169672
C	 0.7519953902	 0.6252283806	 3.2202017429	-0.095554
H	 0.2322161172	 2.0073223268	 0.5031472392	 0.137907
H	-0.8566167115	 1.6738759523	-0.8528746861	 0.11828
H	-1.4090082887	 1.4319692729	 0.8108186054	 0.119278
H	-0.8035484815	-0.8193068674	-0.2290856575	 0.088835
H	 1.5660430491	-1.2530993165	-0.9707880974	 0.117666
H	 2.0019319584	 0.4632293455	-0.5330889507	 0.125355
H	 0.8206490021	-1.6735297181	 1.3810274833	 0.105705
H	 3.5054064083	 0.3543784702	 1.5113348267	 0.114953
H	 3.7922318158	 1.7509045041	 3.8256445522	 0.090974
H	 1.3332868271	 1.7747934744	 4.9897422253	 0.090833
H	-0.2990573607	 0.3995572057	 3.304333651	 0.11115
57.1147	100.7071	170.3177	215.627	253.9091	353.4567	414.9352	532.3527	614.1429	623.9414	684.0944	692.4155	746.1536	788.4648	805.7065	841.5334	849.1686	884.2591	887.8964	935.6778	981.3006	1032.6194	1068.5136	1080.4302	1090.4726	1100.1882	1113.1723	1136.619	1151.4835	1197.8992	1214.9617	1281.8001	1331.8978	1368.985	1388.0181	1407.2588	1423.053	1434.5597	1488.144	1491.8432	1503.5471	1528.889	1562.353	3035.893	3094.7633	3117.3883	3124.994	3139.1293	3146.1166	3225.6934	3238.2983	3250.4407	3265.97	3274.06
CC1CC1N1C=CC=C1	C[C@H]1C[C@H]1n1cccc1	
InChI=1S/C8H11N/c1-7-6-8(7)9-4-2-3-5-9/h2-5,7-8H,6H2,1H3	InChI=1S/C8H11N/c1-7-6-8(7)9-4-2-3-5-9/h2-5,7-8H,6H2,1H3/t7-,8+/m0/s1
