23
gdb 121956	5.43042	0.522	0.49935	1.6951	88.99	-0.259	0.0547	0.3137	2197.7506	0.202489	-388.259999	-388.248536	-388.247592	-388.297472	40.843	
C	 0.0518741055	 1.629821584	 0.0350533128	-0.392645
C	-0.0031591621	 0.0978461383	 0.0146785747	 0.029217
C	-1.4418600962	-0.4481941506	 0.0500519761	-0.18613
C	-2.2262898571	-0.0995257244	 1.3190382435	-0.183915
C	-3.5979901401	-0.7612460073	 1.3589765041	-0.071824
O	-4.2433571311	-0.3592703111	 2.5578662912	-0.421582
C	 0.730478435	-0.4670138588	-1.2287529003	-0.364004
C	 2.152400411	-0.1483542202	-1.272711794	 0.300502
C	 3.3255197223	 0.1152850868	-1.2866964867	-0.442297
H	 1.0847784444	 1.9801451525	-0.0409231235	 0.130218
H	-0.5093106947	 2.0508397184	-0.8085764007	 0.108377
H	-0.37412113	 2.036618838	 0.955917584	 0.119094
H	 0.5258484344	-0.2783973282	 0.900607312	 0.08482
H	-1.9859112815	-0.0790229172	-0.8317321791	 0.092213
H	-1.4035112649	-1.5416233962	-0.0537200738	 0.089482
H	-1.6645866968	-0.4129663674	 2.2079449395	 0.105177
H	-2.3701654758	 0.9827296586	 1.4050677476	 0.111428
H	-4.1811947285	-0.4611956315	 0.4723413288	 0.082814
H	-3.4840313524	-1.8571970645	 1.3154267424	 0.082726
H	-5.1099578687	-0.7746847858	 2.58739609	 0.284867
H	 0.6077739679	-1.5575308795	-1.2549433655	 0.124343
H	 0.2428340989	-0.0848666159	-2.1365845955	 0.124909
H	 4.3620254903	 0.343805562	-1.3096511576	 0.192209
47.825	67.7652	88.8932	103.074	138.3214	172.9333	243.1339	267.342	272.8927	303.2839	351.5389	376.4114	415.8348	492.2078	559.9487	613.0225	635.0969	756.4013	833.9258	862.0373	894.9964	924.3688	978.9831	1008.1106	1016.6505	1055.9835	1076.4694	1114.2479	1129.2065	1175.4923	1208.974	1233.9423	1255.031	1285.9171	1306.5096	1320.0856	1322.295	1361.1479	1379.5354	1392.1608	1415.3551	1462.8435	1467.5519	1483.6629	1498.3748	1500.8788	1507.1701	1528.6396	2235.466	2954.9818	2979.97	2995.76	3006.9124	3016.0679	3027.85	3031.3188	3036.0591	3047.7255	3084.6104	3100.8637	3120.6538	3506.8766	3831.026
CC(CCCO)CC#C	C[C@@H](CCCO)CC#C	
InChI=1S/C8H14O/c1-3-5-8(2)6-4-7-9/h1,8-9H,4-7H2,2H3	InChI=1S/C8H14O/c1-3-5-8(2)6-4-7-9/h1,8-9H,4-7H2,2H3/t8-/m1/s1
