20
gdb 70479	3.31163	0.95984	0.85152	4.0291	80.84	-0.2321	-0.0139	0.2182	1401.8612	0.169636	-403.118529	-403.109371	-403.108427	-403.153176	33.735	
C	-0.2274992291	 1.5141726883	-0.0056257052	-0.51065
C	 0.0963163579	 0.0528606907	 0.0221287175	 0.331924
N	-0.6853259709	-0.9128097012	 0.8324148959	-0.369612
C	 0.784888498	-0.8035100163	 1.0294077534	-0.100461
C	 1.4129315639	-1.6807622477	-0.0533250714	-0.242551
C	 0.701168239	-0.7772984628	-1.1319258286	-0.041939
C	-0.2853880057	-1.418409013	-2.1149444532	-0.293217
C	 0.3900128069	-2.3795850615	-3.0614892693	 0.155487
O	 0.3997168523	-2.2773641617	-4.2625197053	-0.244112
H	 0.5970090908	 2.0920647365	-0.4367644357	 0.127696
H	-1.1233273847	 1.7132833969	-0.6057139137	 0.132412
H	-0.4117555345	 1.8953466832	 1.0048860556	 0.11935
H	-1.1311141403	-0.3815339469	 1.5803669133	 0.224902
H	 1.1909742826	-0.5458637504	 2.0006239425	 0.093246
H	 2.5014387445	-1.6130611887	-0.1028177015	 0.106843
H	 1.1130905044	-2.7317036728	-0.0203601574	 0.107567
H	 1.4437724818	-0.1833975827	-1.6738579933	 0.083665
H	-1.0298104653	-1.9708361155	-1.5262642656	 0.136798
H	-0.8001727884	-0.6569138795	-2.7095078159	 0.111678
H	 0.9127375169	-3.228668645	-2.5615989421	 0.070973
56.4045	71.552	153.8465	163.1096	210.1508	250.1683	301.9511	400.4033	433.3001	492.8815	547.7144	636.688	692.1478	800.0981	836.0445	853.8533	901.517	917.7457	928.0809	977.0943	1012.942	1026.5819	1076.8718	1088.2369	1098.3718	1114.6532	1135.5377	1173.8618	1218.1831	1236.4484	1244.4706	1289.581	1310.2775	1327.9746	1363.4964	1410.668	1430.5148	1446.0549	1466.7154	1481.0117	1483.9934	1497.6533	1829.0741	2854.6075	3023.2903	3027.1943	3057.7786	3063.0509	3085.5279	3093.3912	3096.2629	3121.7231	3182.4724	3468.4601
CC12NC1CC2CC=O	C[C@]12N[C@H]1C[C@H]2CC=O	
InChI=1S/C7H11NO/c1-7-5(2-3-9)4-6(7)8-7/h3,5-6,8H,2,4H2,1H3	InChI=1S/C7H11NO/c1-7-5(2-3-9)4-6(7)8-7/h3,5-6,8H,2,4H2,1H3/t5-,6+,7-/m1/s1
