17
gdb 37577	3.86355	1.60138	1.38074	1.5134	71.16	-0.239	0.0687	0.3077	932.6287	0.137247	-421.701843	-421.695385	-421.694441	-421.732718	26.247	
C	-0.0096802315	 1.5973652302	 0.1358874775	-0.097042
O	 1.3991393965	 1.9085535919	-0.025420166	-0.28508
C	 2.1289227912	 0.8251324417	-0.6457679577	-0.211222
C	 1.0395987867	-0.1656363449	-0.9401151797	 0.32578
C	-0.076347746	 0.0771676009	 0.0775991433	-0.09077
C	-0.7702731083	-0.7993205466	-0.9945148093	-0.126323
C	 0.0382931163	-0.1674751202	-2.1574709791	 0.042447
O	 0.5118416173	-1.4370728168	-2.6971529853	-0.323531
C	 0.5584886488	-1.6207193726	-1.2589611492	-0.03461
H	-0.3243660165	 2.0312389883	 1.0885000914	 0.108485
H	-0.5903037186	 2.07045379	-0.6692798984	 0.094781
H	 2.6440683948	 1.200765058	-1.5365331481	 0.113636
H	 2.8773902863	 0.4412602812	 0.0595245447	 0.106891
H	 0.0645393661	-0.3945570105	 1.0545495166	 0.080055
H	-1.784497136	-1.1957045686	-1.042420437	 0.088703
H	-0.2254860257	 0.6254141536	-2.8552301177	 0.105419
H	 0.8848175584	-2.5782992756	-0.8541947963	 0.102382
106.2396	225.5472	283.1769	328.7706	512.092	603.6215	649.3678	708.7817	723.9268	784.1786	831.6896	850.1929	871.4877	886.7351	911.2827	923.8987	964.5819	1005.8534	1035.1965	1058.329	1083.3255	1093.8884	1105.5962	1138.2467	1151.9548	1166.2086	1180.8511	1207.4369	1223.5129	1256.4627	1276.0499	1316.3832	1360.3282	1367.8483	1397.4592	1514.7811	1521.789	2995.8343	3016.3089	3063.0423	3064.5906	3091.7574	3117.032	3128.3662	3140.2998
C1OCC23C1C1C2OC31	C1OC[C@@]23[C@@H]1[C@H]1[C@@H]2O[C@@H]31	
InChI=1S/C7H8O2/c1-3-4-5-7(3,2-8-1)6(4)9-5/h3-6H,1-2H2	InChI=1S/C7H8O2/c1-3-4-5-7(3,2-8-1)6(4)9-5/h3-6H,1-2H2/t3-,4-,5-,6+,7+/m0/s1
