25
gdb 118065	3.5094	0.68354	0.60044	0.1881	86.03	-0.2567	0.0733	0.33	1937.8386	0.22608	-426.629968	-426.618032	-426.617087	-426.667599	42.828	
C	 0.0088574215	 1.5700202423	-0.1078149662	-0.382201
C	 0.049069329	 0.040672375	-0.057426793	-0.160601
C	 0.6724300365	-0.4989345189	 1.2348874932	-0.194985
C	 0.7639377694	-2.0301252418	 1.2734453479	 0.110687
O	 1.4767599279	-2.5221848702	 0.1338867398	-0.431771
C	 1.3634562893	-2.58540934	 2.5824337494	 0.017045
C	 0.6057575699	-2.1290109399	 3.8375172894	-0.408441
C	 1.4307419841	-4.1147093855	 2.5272250813	-0.083146
O	 2.1596424418	-4.567301093	 3.6627963192	-0.426722
H	 1.0168719502	 1.9961111328	-0.0468909537	 0.110584
H	-0.4455988773	 1.9262181863	-1.0376533595	 0.111404
H	-0.5718494306	 1.982306502	 0.7252734206	 0.111367
H	-0.96991426	-0.3570322055	-0.1551160413	 0.092824
H	 0.6081577476	-0.3510392117	-0.9132300144	 0.106787
H	 1.6840650119	-0.0816450941	 1.3615127872	 0.080133
H	 0.0900265379	-0.1460679375	 2.093377515	 0.101305
H	-0.2472539828	-2.4441138449	 1.1517967213	 0.082577
H	 2.3747099464	-2.1743911547	 0.1854868359	 0.275255
H	 2.4020950425	-2.2262084833	 2.6537705513	 0.067696
H	-0.4671839914	-2.338417195	 3.7437391544	 0.10731
H	 0.9796071315	-2.6721947278	 4.7079745841	 0.137058
H	 0.72445311	-1.0593767387	 4.0270490181	 0.113033
H	 0.4054241587	-4.5230566434	 2.5269440161	 0.078048
H	 1.9119819297	-4.426834655	 1.592660006	 0.099209
H	 2.2002775864	-5.5269485972	 3.6271590479	 0.285546
51.2613	75.8455	90.5421	115.3011	130.4035	216.0584	237.7549	246.8205	255.9068	289.6582	310.8277	316.7033	363.9907	380.8638	446.6063	527.3429	578.2839	748.9493	842.7295	865.7913	898.5657	916.8599	934.1008	986.2951	1040.2511	1061.8215	1069.2452	1079.7403	1107.19	1131.6639	1146.5045	1170.6606	1223.7282	1243.5788	1258.3241	1287.5738	1295.181	1324.1979	1349.8414	1361.0691	1380.7802	1397.1603	1405.6794	1413.1778	1415.3752	1452.5776	1479.323	1494.4947	1496.7467	1499.6021	1510.9751	1512.43	1526.724	2955.2338	2986.8749	2988.8584	3015.8015	3024.4055	3027.2914	3032.0661	3046.9006	3060.2855	3075.2731	3096.4531	3100.6135	3105.2682	3132.7747	3790.4395	3835.8978
CCCC(O)C(C)CO	CCC[C@@H](O)[C@@H](C)CO	
InChI=1S/C7H16O2/c1-3-4-7(9)6(2)5-8/h6-9H,3-5H2,1-2H3	InChI=1S/C7H16O2/c1-3-4-7(9)6(2)5-8/h6-9H,3-5H2,1-2H3/t6-,7+/m0/s1
