22
gdb 69652	3.85368	1.13991	1.06624	1.4875	86.47	-0.2422	0.0865	0.3287	1249.5179	0.194933	-367.168832	-367.160342	-367.159398	-367.20162	33.786	
C	 0.3026787746	 1.5333701673	 0.1289816509	-0.48324
C	 0.0264911925	 0.0602962309	 0.1166621349	 0.358223
C	-1.3398822535	-0.6056402854	-0.1326012555	-0.399401
C	-0.9458555122	-1.7412202056	 0.8600584238	 0.373982
C	-1.7755703549	-2.0191521633	 2.1415446905	-0.281918
C	-1.3693803843	-3.5142778459	 2.0356171215	-0.207394
C	-0.9751719832	-3.2628308149	 0.5545878112	-0.286486
C	 0.4101334225	-1.0457554678	 1.0613195191	-0.155773
N	 1.1091744893	-0.8663780088	-0.2100203685	-0.365955
H	 1.315580725	 1.7286768041	 0.4906719006	 0.13082
H	 0.219728916	 1.955124628	-0.8801526423	 0.118673
H	-0.4088318679	 2.0636171366	 0.7711688058	 0.113722
H	-2.1847685218	-0.018275756	 0.2405578457	 0.102189
H	-1.5462495577	-0.8940995794	-1.1705894206	 0.088519
H	-1.4940835477	-1.4734767907	 3.0469806171	 0.096772
H	-2.8463570158	-1.8731844359	 1.9669990788	 0.097741
H	-0.4991318703	-3.7462077189	 2.6554318211	 0.105358
H	-2.1421504328	-4.260675311	 2.2319146297	 0.096907
H	-1.78897055	-3.520017049	-0.1312391849	 0.098991
H	-0.0522320497	-3.7200963559	 0.1847653544	 0.095082
H	 0.9957562783	-1.0259998058	 1.975717562	 0.082722
H	 0.8442533037	-1.5673106126	-0.9015023956	 0.220465
107.8243	116.7103	196.8212	213.0783	288.4906	326.6995	361.9793	411.9076	453.401	534.1597	651.5222	690.2671	778.4383	798.6015	821.2138	865.7808	883.578	902.8897	935.5738	941.1178	966.5777	986.1928	1002.3548	1048.9858	1056.1698	1107.3411	1129.0083	1147.448	1165.6256	1180.9557	1205.7212	1215.8831	1238.8125	1252.6148	1254.632	1272.9775	1276.0823	1298.3999	1318.827	1399.7977	1446.907	1473.7834	1482.0353	1485.0195	1485.1139	1495.7669	1506.0672	3023.5936	3027.553	3040.5758	3045.442	3062.561	3082.5967	3085.8767	3087.6763	3093.5084	3118.0249	3118.6219	3154.1435	3446.5783
CC12CC3(CCC3)C1N2	C[C@]12CC3(CCC3)[C@H]1N2	
InChI=1S/C8H13N/c1-7-5-8(3-2-4-8)6(7)9-7/h6,9H,2-5H2,1H3	InChI=1S/C8H13N/c1-7-5-8(3-2-4-8)6(7)9-7/h6,9H,2-5H2,1H3/t6-,7-/m0/s1
