15
gdb 48807	2.26686	1.54248	1.14035	3.4312	70.94	-0.2702	-0.0549	0.2153	1074.4246	0.112403	-416.780416	-416.772507	-416.771563	-416.813321	28.739	
O	-0.1087571651	 0.0060433333	 0.0188348385	-0.25056
C	-0.0133999057	 1.1996469103	-0.1237808487	 0.078868
C	 1.2494520424	 1.9403509209	 0.0712756037	 0.240122
C	 1.331770761	 3.3951459656	 0.3575529403	-0.2818
N	 1.7361625448	 2.9626227175	-0.9754216111	-0.153093
C	 3.1146763769	 2.3733883078	-0.826568365	-0.170831
C	 2.6237580523	 1.2700409372	 0.1648914048	-0.234572
C	 3.2515506461	 1.1933419358	 1.4752162036	 0.275884
N	 3.7627950394	 1.172855659	 2.5118411409	-0.323143
H	-0.8725532876	 1.8329548693	-0.4339133158	 0.092827
H	 0.3988060805	 3.950576322	 0.3610767021	 0.144364
H	 2.0784971794	 3.742700387	 1.0687398767	 0.14805
H	 3.4572521983	 1.9698759202	-1.7788920935	 0.140511
H	 3.8491536962	 3.0809288272	-0.4342606942	 0.137446
H	 2.6044769211	 0.2800072571	-0.2938935623	 0.155927
84.9356	130.4113	138.3685	219.2775	258.9128	358.872	453.3667	479.4752	529.1541	564.5117	696.1911	744.8973	775.7381	832.1666	885.7837	977.697	995.0508	1030.4007	1052.01	1076.5521	1110.989	1137.9039	1179.9283	1207.0046	1268.6721	1310.8683	1317.3616	1380.7495	1427.8685	1489.9717	1506.7566	1811.4246	2357.1385	2904.2789	3076.4491	3107.6154	3107.9417	3148.2584	3204.2463
O=CC12CN1CC2C#N	O=C[C@]12CN1C[C@H]2C#N	
InChI=1S/C6H6N2O/c7-1-5-2-8-3-6(5,8)4-9/h4-5H,2-3H2	InChI=1S/C6H6N2O/c7-1-5-2-8-3-6(5,8)4-9/h4-5H,2-3H2/t5-,6+,8?/m1/s1
