19
gdb 7347	3.94242	1.12567	0.97319	4.2154	69.28	-0.2538	0.0226	0.2764	1255.5419	0.163857	-402.241402	-402.231653	-402.230709	-402.277544	34.202	
C	-0.003318005	 1.2140713888	-0.5165463147	-0.372436
C	-0.1180852376	 0.0810418497	 0.5046992252	-0.149398
N	-1.3968966088	-0.6137207596	 0.4384555478	-0.311637
C	-1.5351193415	-1.8804715281	-0.0190908781	 0.393546
O	-0.598705634	-2.5786388206	-0.3860752264	-0.398512
C	-2.9669450342	-2.4458160145	-0.0655726583	 0.045651
C	-3.824603215	-1.7263411887	-1.1173309034	-0.389728
O	-2.8894073298	-3.8172837679	-0.3482178594	-0.437481
H	 0.9676819595	 1.7106267065	-0.4249044205	 0.124078
H	-0.098377926	 0.8281012947	-1.5354168779	 0.134889
H	-0.7810881466	 1.9703420078	-0.3638917726	 0.112983
H	 0.6468519314	-0.6774642234	 0.3278903385	 0.15407
H	 0.0244994396	 0.4685370168	 1.5205947335	 0.110669
H	-2.2273790593	-0.1148684114	 0.7157016087	 0.2486
H	-3.4244024471	-2.3024036308	 0.9270758731	 0.081137
H	-3.35300505	-1.7979125123	-2.1019664486	 0.129549
H	-4.8043141719	-2.2077688297	-1.1701975194	 0.134379
H	-3.9735616632	-0.6681755584	-0.8763399966	 0.097679
H	-1.9483402005	-3.9714618689	-0.5427304407	 0.291962
19.5291	55.7214	74.9991	187.5933	220.9278	252.4899	283.7184	345.3579	377.5377	436.2359	481.0002	493.6328	505.133	661.4419	746.8959	783.4634	877.9323	904.4748	936.5913	1046.8394	1066.3247	1099.8311	1115.4359	1172.2851	1177.6608	1248.7581	1290.5745	1321.7381	1366.1489	1392.0184	1403.0739	1412.2216	1445.596	1484.6343	1486.6687	1492.9295	1496.2526	1502.4814	1564.3784	1761.5369	2969.0735	3035.572	3035.8096	3036.5489	3099.2553	3108.9121	3118.7619	3125.9717	3130.5653	3632.7938	3639.7289
CCNC(=O)C(C)O	CCNC(=O)[C@@H](C)O	
InChI=1S/C5H11NO2/c1-3-6-5(8)4(2)7/h4,7H,3H2,1-2H3,(H,6,8)	InChI=1S/C5H11NO2/c1-3-6-5(8)4(2)7/h4,7H,3H2,1-2H3,(H,6,8)/t4-/m1/s1
