17
gdb 34537	3.92617	1.18415	1.00616	4.7797	82.36	-0.2274	-0.0395	0.1879	1163.2788	0.139306	-380.876476	-380.869085	-380.868141	-380.908303	29.163	
N	 0.0169872643	-1.1719190589	 0.0493016906	-0.342361
C	-0.0276976571	-0.0130632882	 0.0314407089	 0.208213
C	-0.0213844901	 1.4092851649	 0.0144096159	 0.11134
C	-1.1685948326	 2.1178335845	 0.0639784108	-0.100724
C	-1.1840041253	 3.5837772249	 0.0325550978	-0.101684
C	-0.2635433433	 4.3685060366	 0.975857688	-0.296667
C	 0.1333292369	 4.230080478	-0.4488828532	 0.02006
N	 1.2219632812	 3.383600722	-0.8530827393	-0.285179
C	 1.323095051	 2.118914161	-0.1158228632	-0.293134
H	-2.1193940233	 1.5944691073	 0.0864525371	 0.117618
H	-2.1268628464	 4.0514212278	-0.2264501697	 0.096346
H	-0.620992747	 5.3376477861	 1.3046104804	 0.126909
H	 0.2560584913	 3.8058485367	 1.7418080132	 0.132997
H	 0.0373723069	 5.1076665436	-1.0794083597	 0.107703
H	 1.1037021893	 3.1699312974	-1.8393358376	 0.229978
H	 1.7576358285	 2.3123523306	 0.8717089744	 0.134715
H	 2.0352854057	 1.4767045355	-0.6399199943	 0.13387
102.0964	160.3399	247.8383	283.0563	398.8968	423.2153	464.4733	554.0866	574.6918	594.531	661.3476	740.2333	768.3004	797.5113	871.0313	887.9329	901.5029	963.4043	989.2272	1042.3355	1053.2925	1067.7018	1091.2907	1120.325	1173.5662	1198.2127	1239.7113	1266.5295	1338.6384	1359.1984	1387.9083	1415.7519	1472.9978	1496.2196	1510.6544	1666.0238	2323.7687	3036.9335	3098.9618	3146.7819	3165.8927	3171.5629	3184.1232	3233.6895	3502.6853
N#CC1=CC2CC2NC1	N#CC1=C[C@H]2C[C@H]2NC1	
InChI=1S/C7H8N2/c8-3-5-1-6-2-7(6)9-4-5/h1,6-7,9H,2,4H2	InChI=1S/C7H8N2/c8-3-5-1-6-2-7(6)9-4-5/h1,6-7,9H,2,4H2/t6-,7+/m0/s1
