12
gdb 131068	5.78436	1.00181	0.85568	1.1327	64.93	-0.2581	-0.0882	0.1698	1212.786	0.077966	-468.830745	-468.823556	-468.822611	-468.863633	24.732	
O	 0.0670699455	-0.0622673019	 0.1115836796	-0.232518
C	-0.0295544236	 1.11257001	-0.0242635187	 0.167299
O	 1.0844345086	 1.9220901106	 0.1410954065	-0.237805
C	 0.9672589708	 3.2722377423	 0.0780072008	 0.461214
C	 2.1540112778	 4.0163191146	-0.0289425308	-0.054174
N	 2.1209053267	 5.3361672439	-0.0699295121	-0.1551
N	 0.9364315756	 5.9584791482	-0.0173337163	-0.188954
C	-0.1502240699	 5.2051109085	 0.0787586414	 0.114401
N	-0.2037115647	 3.8651798985	 0.1384907765	-0.329016
H	-0.9289293189	 1.679722159	-0.2886577209	 0.150017
H	 3.1234466344	 3.5325929905	-0.0767547488	 0.153477
H	-1.0967453524	 5.7356140258	 0.1199005928	 0.15116
50.3762	95.287	177.0414	228.1679	382.1873	399.3724	505.8041	567.3158	657.1016	737.7141	816.5134	934.3363	941.4902	996.8195	1019.2617	1043.2376	1045.0253	1068.6284	1190.5219	1277.7938	1331.2485	1352.9045	1397.0619	1470.4062	1570.6866	1598.7572	1883.2722	3095.7579	3189.5225	3199.7225	50.3752	95.2872	177.0414	228.168	382.1873	399.3724	505.8042	567.3158	657.1015	737.7141	816.5134	934.3362	941.4904	996.8192	1019.2618	1043.238	1045.0249	1068.6284	1190.5223	1277.7938	1331.2484	1352.9041	1397.0623	1470.406	1570.6864	1598.7572	1883.2726	3095.7579	3189.5224	3199.7225
O=COC1=CN=NC=N1	O=COc1cnncn1	
InChI=1S/C4H3N3O2/c8-3-9-4-1-6-7-2-5-4/h1-3H	InChI=1S/C4H3N3O2/c8-3-9-4-1-6-7-2-5-4/h1-3H
