14
gdb 5290	4.91172	1.54114	1.18169	2.4981	64.69	-0.2435	-0.0404	0.2031	954.1791	0.107207	-382.59123	-382.584027	-382.583083	-382.623209	25.84	
C	-0.0235738707	 1.4989436249	 0.00846233	-0.497242
C	 0.0356820627	-0.0197823062	 0.0020745433	 0.300721
O	 1.0937331141	-0.6166920548	-0.0088127002	-0.312751
C	-1.24459991	-0.7529186753	 0.0095398269	 0.150011
C	-2.5179820372	-0.2541807305	 0.0217399239	-0.082953
O	-3.4234499096	-1.2534656041	 0.0250433349	-0.143726
C	-2.720948325	-2.4286385917	 0.0148821896	 0.010229
C	-1.3907769041	-2.185614018	 0.0052602825	-0.280171
H	 0.9911517078	 1.8975942732	 0.0013540255	 0.144259
H	-0.5676104891	 1.8672975159	-0.868131382	 0.138426
H	-0.5524766907	 1.8603723559	 0.8971234641	 0.138452
H	-2.9218823042	 0.7450621454	 0.0288602878	 0.149036
H	-3.320086502	-3.323670001	 0.0161880213	 0.14649
H	-0.5855450817	-2.9015352338	-0.0039146876	 0.139219
77.3634	119.644	182.8283	188.4315	368.5983	496.9675	555.2487	621.909	623.001	679.3679	755.8028	809.6913	872.37	891.06	935.8423	977.6739	1029.2449	1046.4541	1101.3825	1139.515	1197.2784	1261.7399	1329.9561	1379.6291	1410.9926	1468.6581	1477.6753	1543.9892	1603.598	1775.3421	3038.5242	3100.941	3155.0823	3272.4448	3275.1353	3295.1083
CC(=O)C1=COC=C1	CC(=O)c1cocc1	
InChI=1S/C6H6O2/c1-5(7)6-2-3-8-4-6/h2-4H,1H3	InChI=1S/C6H6O2/c1-5(7)6-2-3-8-4-6/h2-4H,1H3
