12
gdb 21643	7.46458	1.29424	1.10445	3.4105	65.56	-0.2268	-0.0401	0.1867	976.7417	0.086693	-373.736936	-373.730085	-373.729141	-373.767853	25.261	
N	-0.0783740682	 1.3806356389	 0.1530777811	-0.592583
C	 0.048265047	 0.0026106263	 0.0456293802	 0.397362
N	-1.0322907565	-0.7825352009	 0.0173036047	-0.276934
N	-0.546846935	-2.0364032315	-0.0072803631	-0.275225
C	 0.8123265661	-2.0720430705	-0.0109692248	 0.31559
C	 1.241769001	-0.7548391861	 0.0263963333	-0.387831
C	 1.5363828729	-3.2865253565	-0.0426670364	 0.227372
N	 2.1151769486	-4.2894505807	-0.0704154971	-0.336562
H	 0.6253413114	 1.9001530758	-0.3518496572	 0.253846
H	-1.0090625963	 1.7002848991	-0.080038964	 0.258065
H	-1.180721067	-2.8171022605	-0.0313633135	 0.290183
H	 2.261313206	-0.4083845933	 0.0480102868	 0.126717
136.404	154.1121	264.782	322.6776	385.573	428.5473	530.9857	537.6833	573.997	653.0961	689.0662	729.5305	763.2402	812.1294	1000.646	1043.0002	1096.3005	1184.4665	1225.2523	1309.0936	1428.2322	1478.3879	1537.9985	1599.7563	1650.7997	2346.8164	3279.3704	3557.1943	3655.7528	3678.744
NC1=NNC(=C1)C#N	Nc1n[nH]c(c1)C#N	
InChI=1S/C4H4N4/c5-2-3-1-4(6)8-7-3/h1H,(H3,6,7,8)	InChI=1S/C4H4N4/c5-2-3-1-4(6)8-7-3/h1H,(H3,6,7,8)
