23
gdb 122974	6.08501	0.4876	0.46737	2.1704	80.33	-0.2533	0.0606	0.3139	2371.4411	0.203033	-462.551669	-462.540288	-462.539344	-462.589537	39.85	
C	-0.071311302	 1.4918002773	-0.0798161793	-0.384426
C	-0.008089046	-0.0254258689	-0.0304228696	-0.029147
O	 0.6708531713	-0.4865641979	-1.1806646122	-0.245295
C	 0.7771802155	-1.8912514071	-1.2398534009	-0.049642
C	 1.5203004049	-2.2625242253	-2.5176975129	-0.231707
C	 1.6550723846	-3.7699179038	-2.7157297023	 0.093374
O	 0.3795267404	-4.4245047253	-2.797866013	-0.439649
C	 2.4786811737	-4.1425983227	-3.9510733248	-0.061583
O	 2.5220327557	-5.5411582758	-4.1250973995	-0.424593
H	 0.9361374943	 1.9167778353	-0.1055715629	 0.126449
H	-0.6057167471	 1.8247669109	-0.9741524113	 0.12539
H	-0.5906199437	 1.8813901674	 0.8008178351	 0.114768
H	 0.5159993499	-0.3614402467	 0.8807043554	 0.085353
H	-1.0238766308	-0.4548099345	 0.0092347253	 0.084725
H	 1.3209400294	-2.2764255457	-0.3594333457	 0.085483
H	-0.2192634335	-2.3606605509	-1.2299196284	 0.094467
H	 0.9943620579	-1.8209526858	-3.3755846768	 0.098947
H	 2.516983131	-1.8060925879	-2.497542224	 0.113408
H	 2.1304834521	-4.2258570772	-1.8385521043	 0.098232
H	-0.1333449387	-3.9744856557	-3.480581206	 0.282422
H	 2.0458403909	-3.6372249441	-4.8350664906	 0.070985
H	 3.5099176835	-3.7879416393	-3.8454968981	 0.107807
H	 1.6310825266	-5.8498005864	-3.9129202133	 0.284232
41.8161	59.1754	81.8411	117.2821	133.4146	159.3602	204.4131	248.7528	260.1835	323.0136	353.4251	404.2895	463.8771	500.095	518.4751	595.3449	796.1649	821.2451	860.35	900.4635	960.2654	1017.1208	1049.0498	1078.6004	1097.0653	1104.3433	1115.1919	1157.9145	1169.5765	1184.2515	1209.0385	1224.7886	1269.3285	1292.3341	1297.2953	1326.7471	1353.5676	1385.2744	1393.5424	1408.9841	1421.9841	1445.8563	1452.6601	1483.6284	1483.6577	1499.6674	1507.4075	1519.1884	1540.1302	2927.5059	2946.434	2958.0581	2975.9003	2993.6244	3017.5979	3044.8529	3044.9882	3063.5362	3075.8536	3119.4955	3121.0216	3760.4986	3780.2373
CCOCCC(O)CO	CCOCC[C@@H](O)CO	
InChI=1S/C6H14O3/c1-2-9-4-3-6(8)5-7/h6-8H,2-5H2,1H3	InChI=1S/C6H14O3/c1-2-9-4-3-6(8)5-7/h6-8H,2-5H2,1H3/t6-/m1/s1
