21
gdb 98581	2.83031	0.96853	0.92906	3.6512	81.13	-0.237	-0.0081	0.2289	1411.7812	0.179896	-424.228241	-424.217788	-424.216844	-424.263856	37.675	
C	-0.2521301978	 1.2220925157	-1.4095277263	-0.417529
C	-0.0367519448	-0.0574926095	-0.6313785545	-0.021032
C	 1.3130998905	-0.6150224928	-0.308570889	-0.021025
C	 2.6126288439	 0.038834757	-0.724420693	-0.417542
C	 0.438180311	-0.0672853621	 0.8309927554	-0.162396
C	 0.7793355815	 1.1817502922	 1.5615677644	 0.390094
O	 1.3008668723	 2.1595256705	 1.0702720143	-0.318732
C	 0.4075361931	 1.1410481705	 3.0451712523	-0.176223
O	 0.7599894101	 2.3500435843	 3.6604758251	-0.3964
H	 0.4555696947	 1.9998963133	-1.1244445592	 0.160234
H	-0.152320978	 1.0304450853	-2.483761899	 0.113486
H	-1.2611093611	 1.6108160023	-1.2354309266	 0.114875
H	-0.802294923	-0.8075367748	-0.817480648	 0.089038
H	 1.3624157908	-1.7016454015	-0.2997882647	 0.089036
H	 2.5798801742	 1.1224923292	-0.6162004112	 0.160247
H	 3.4409518876	-0.3315071102	-0.1110831943	 0.114879
H	 2.8392813598	-0.2050455302	-1.7683638141	 0.11348
H	-0.0243309403	-0.8227748073	 1.4602746302	 0.07912
H	-0.6747847498	 0.9282259704	 3.1082877088	 0.10747
H	 0.9201114516	 0.2691091538	 3.4898479693	 0.107455
H	 0.5130627836	 2.2945756436	 4.5880315603	 0.291465
50.2291	107.9979	148.9124	163.5951	181.6568	201.6072	234.9797	236.2233	292.9087	346.1421	368.0372	427.1959	501.0185	611.4606	694.0316	720.6315	783.3205	834.7514	913.122	939.595	983.1102	1019.7616	1039.9185	1058.9355	1088.4574	1112.4867	1134.7699	1154.7689	1157.5712	1194.2612	1233.09	1253.1213	1270.7329	1377.837	1402.1127	1420.2807	1420.6999	1431.4059	1445.3879	1487.7761	1494.1311	1498.3645	1507.5773	1517.9772	1794.8608	2943.4658	2964.8505	3035.8957	3038.1348	3089.4197	3090.7941	3118.5501	3126.0082	3143.6914	3156.8371	3163.6923	3837.1625
CC1C(C)C1C(=O)CO	C[C@H]1[C@@H](C)[C@H]1C(=O)CO	
InChI=1S/C7H12O2/c1-4-5(2)7(4)6(9)3-8/h4-5,7-8H,3H2,1-2H3	InChI=1S/C7H12O2/c1-4-5(2)7(4)6(9)3-8/h4-5,7-8H,3H2,1-2H3/t4-,5+,7-
