22
gdb 13716	5.59553	0.76324	0.72777	1.7228	79.75	-0.2563	0.0926	0.349	1656.1647	0.198528	-350.199923	-350.190089	-350.189144	-350.235336	34.991	
C	-0.0619918912	 1.5612671154	-0.3773652488	-0.380225
C	-0.0183906026	 0.1057602058	 0.0955747901	-0.166459
C	-1.3871061147	-0.5807233372	 0.053342174	-0.150097
C	-1.3497571684	-2.0408740791	 0.5268866144	-0.22908
C	-2.7137159605	-2.6859709572	 0.4809443114	 0.066406
O	-3.234453818	-3.0363578074	-0.8097697078	-0.266426
C	-2.9881554506	-4.0900263219	 0.1291075282	 0.076792
C	-1.9458036896	-5.1173432352	-0.2318066115	-0.418814
H	 0.9296298159	 2.0233062002	-0.3424317816	 0.110461
H	-0.4262074861	 1.6307867171	-1.4083360279	 0.115949
H	-0.7312040411	 2.1613983154	 0.249253989	 0.113227
H	 0.6891870413	-0.4599032893	-0.5252352816	 0.095062
H	 0.3776594732	 0.0636959353	 1.1191938919	 0.092069
H	-2.0975526308	-0.0153995487	 0.6726645507	 0.090594
H	-1.784130527	-0.5527602594	-0.9691687776	 0.112318
H	-0.6443183762	-2.605427715	-0.0909220413	 0.100578
H	-0.976501843	-2.0856151183	 1.5596220369	 0.095931
H	-3.4530896219	-2.1947678192	 1.1202468348	 0.081401
H	-3.9043723623	-4.518278679	 0.5436417052	 0.082965
H	-1.043319868	-4.6591215747	-0.6403207813	 0.128226
H	-1.6715433416	-5.707704938	 0.6494866052	 0.120289
H	-2.3434549269	-5.8068810996	-0.9840143026	 0.128835
47.5305	87.0232	103.5017	126.4734	172.725	230.5957	247.1696	280.3446	369.0692	407.6146	480.9392	541.6207	734.2618	758.6643	798.9338	829.0441	905.3126	915.8383	952.5512	990.0907	1027.6987	1054.4012	1066.9276	1082.2352	1136.456	1150.6644	1178.5498	1193.3947	1245.8611	1275.3434	1307.1795	1317.7532	1332.9651	1356.2756	1395.3737	1404.4685	1412.6778	1421.6331	1469.3909	1472.9764	1486.2273	1492.5914	1498.2472	1499.6164	1512.3779	1514.2481	3007.9851	3013.1367	3018.3972	3029.3777	3036.7819	3038.3635	3057.5293	3061.0324	3076.1602	3087.3824	3096.5462	3097.6337	3101.2648	3137.2614
CCCCC1OC1C	CCCC[C@H]1O[C@H]1C	
InChI=1S/C7H14O/c1-3-4-5-7-6(2)8-7/h6-7H,3-5H2,1-2H3	InChI=1S/C7H14O/c1-3-4-5-7-6(2)8-7/h6-7H,3-5H2,1-2H3/t6-,7+/m0/s1
