18
gdb 44072	3.11751	1.63829	1.46115	4.0365	76.73	-0.2241	0.0234	0.2475	955.0837	0.149667	-401.888589	-401.881692	-401.880748	-401.919504	28.895	
O	-0.0578802402	 0.011005231	 0.0384796194	-0.383286
C	 0.0310299441	 1.2132095255	 0.0894658629	 0.424444
N	-0.9680340767	 2.1586269059	 0.2139924455	-0.33871
C	-0.281852482	 3.4702597393	 0.0491507608	 0.309027
C	-1.0770134093	 4.3682007874	-0.9383687908	-0.330562
C	-0.4132816237	 3.4849563497	-2.0884511944	-0.282768
C	 0.7291389163	 3.2039512058	-1.0486665547	 0.024062
C	 1.2558004337	 2.1327319875	-0.0050612213	-0.21746
C	 0.8750603647	 3.2625966584	 1.083140503	-0.316699
H	-1.9231434326	 1.9853476302	-0.0548307439	 0.24773
H	-2.1679413401	 4.3881925865	-0.8569391342	 0.104741
H	-0.700130383	 5.3928195467	-0.963963975	 0.121131
H	-1.0279594154	 2.6226051754	-2.3465525597	 0.12285
H	-0.1168477663	 4.0029508469	-3.0020862403	 0.109359
H	 1.4523550942	 4.021370719	-1.1132290659	 0.087589
H	 2.2308499681	 1.6519488691	-0.0438612311	 0.091188
H	 1.6111556803	 4.0678217766	 1.1124164246	 0.112803
H	 0.6145495979	 2.9185050589	 2.0868405352	 0.114562
130.2362	277.1541	296.827	359.7488	385.5669	473.4252	508.1609	584.3407	609.8925	678.5155	727.7198	780.799	805.6001	814.8575	853.3881	877.8402	904.6076	931.8591	975.4223	1010.3039	1023.7118	1071.035	1080.9768	1110.6304	1139.6208	1163.0116	1181.2044	1192.7297	1214.719	1227.5593	1240.1886	1243.1474	1288.8211	1349.1969	1381.8271	1478.1522	1485.7013	1490.7387	1861.4964	3056.5868	3063.8715	3070.4806	3085.8283	3121.5342	3141.9908	3148.4934	3150.1545	3646.7392
O=C1NC23CCC2C1C3	O=C1N[C@]23CC[C@@H]2[C@H]1C3	
InChI=1S/C7H9NO/c9-6-4-3-7(8-6)2-1-5(4)7/h4-5H,1-3H2,(H,8,9)	InChI=1S/C7H9NO/c9-6-4-3-7(8-6)2-1-5(4)7/h4-5H,1-3H2,(H,8,9)/t4-,5-,7+/m1/s1
