20
gdb 10979	2.77897	2.39621	1.7148	0.2795	79.1	-0.2201	0.02	0.2401	869.4792	0.17756	-311.843824	-311.836293	-311.835349	-311.874836	30.669	
C	-0.1830626288	 1.5414883384	-0.0300746398	-0.436673
C	 0.0151938867	 0.0309644886	-0.0002251155	 0.029386
C	 1.1931933564	-0.5958451355	-0.8429795185	-0.084097
C	 2.1323839342	-0.2093961957	 0.3470661065	-0.255169
C	 0.862398043	-0.6054304577	 1.1846152972	 0.304004
C	 0.6748678412	-0.2202528314	 2.6342103553	-0.514318
C	 0.754027494	-2.0876720832	 0.7838169755	-0.12272
C	 0.9704230991	-2.0808053326	-0.5345307429	-0.095485
H	 0.7415033462	 2.1080354265	 0.1094974788	 0.116281
H	-0.6151503123	 1.8477683629	-0.9895072906	 0.11569
H	-0.8830363121	 1.8522771922	 0.7541368446	 0.116417
H	-0.9475448709	-0.4653873627	-0.1594275441	 0.061139
H	 1.3964422702	-0.2950607326	-1.8710440925	 0.053492
H	 3.0283232903	-0.8184334933	 0.4898547124	 0.088582
H	 2.3850842793	 0.8532349287	 0.396674874	 0.089034
H	 0.7479725682	 0.8630538136	 2.7752808108	 0.114566
H	-0.3062051277	-0.5387560203	 3.0055703519	 0.115142
H	 1.4363739398	-0.6887879766	 3.2681624454	 0.116916
H	 0.5355407613	-2.9082240556	 1.4539290405	 0.092255
H	 0.978400822	-2.8953097537	-1.245094939	 0.095561
185.6024	202.3816	205.7555	261.2641	328.7192	346.8084	479.8233	532.7413	548.576	616.0213	678.8387	711.2932	794.2145	821.3824	842.5824	885.5041	903.4342	926.5202	935.8716	1006.0905	1041.6661	1057.0464	1075.8761	1087.2162	1105.1816	1121.2334	1185.8087	1201.4763	1223.4871	1238.4606	1249.9943	1279.3199	1342.1454	1373.0987	1407.5563	1414.7127	1486.936	1491.8587	1496.4114	1497.753	1513.1608	1624.3733	3023.8553	3028.7177	3048.6708	3057.2087	3084.8511	3085.8558	3095.2094	3107.7058	3111.2656	3119.7237	3209.8168	3238.8451
CC1C2CC1(C)C=C2	C[C@H]1[C@H]2C[C@]1(C)C=C2	
InChI=1S/C8H12/c1-6-7-3-4-8(6,2)5-7/h3-4,6-7H,5H2,1-2H3	InChI=1S/C8H12/c1-6-7-3-4-8(6,2)5-7/h3-4,6-7H,5H2,1-2H3/t6-,7+,8-/m0/s1
