13
gdb 133678	3.30039	0.95638	0.87182	3.0045	51.5	-0.314	0.0182	0.3321	1246.978	0.084429	-584.263507	-584.25472	-584.253776	-584.297939	30.632	
O	-0.0987998967	 1.4202090878	 0.0048766443	-0.408341
C	 0.0001731036	 0.0227268661	-0.0146275327	-0.016427
C	 0.6745683265	-0.5226804966	-1.2939898412	-0.383955
C	-0.0190381809	-0.0871179861	-2.5014214376	 0.270967
N	-0.5690665287	 0.2472474686	-3.4600827189	-0.290965
C	 0.7602996029	-0.467608763	 1.223502436	 0.279012
F	 0.1306175595	-0.1368545871	 2.3470131474	-0.05568
F	 0.9191751982	-1.7983863417	 1.2075129402	-0.075662
F	 1.9872062894	 0.0921631221	 1.257411234	-0.096164
H	 0.7915854852	 1.7908445809	 0.0432794392	 0.298023
H	-1.0212875217	-0.3617549245	 0.0555202564	 0.144683
H	 1.7149582387	-0.1793269926	-1.3319149554	 0.16087
H	 0.6991139139	-1.6162419439	-1.2645416817	 0.173638
61.2341	78.3294	125.4188	213.6827	246.4512	319.25	356.2948	393.693	405.073	432.3403	504.2716	570.9513	595.8477	700.6765	848.7644	884.8958	959.4962	1032.5816	1128.9813	1163.8656	1194.6491	1231.3635	1269.1416	1310.9368	1335.8882	1381.2072	1436.0363	1467.8186	2372.3695	3051.1573	3090.1454	3104.8835	3792.1538
OC(CC#N)C(F)(F)F	O[C@@H](CC#N)C(F)(F)F	
InChI=1S/C4H4F3NO/c5-4(6,7)3(9)1-2-8/h3,9H,1H2	InChI=1S/C4H4F3NO/c5-4(6,7)3(9)1-2-8/h3,9H,1H2/t3-/m0/s1
