20
gdb 88733	3.61134	0.92691	0.79967	4.3147	82.42	-0.2307	-0.0097	0.221	1458.4846	0.169118	-403.113937	-403.104589	-403.103645	-403.14882	34.262	
C	-0.187697987	 1.5421768023	-0.1855244761	-0.413054
C	-0.0202983092	 0.0516874444	 0.0113214244	 0.028363
C	 1.2948290406	-0.6189578485	-0.2051030363	-0.255425
N	 0.7228863848	-0.529547458	 1.1360870335	-0.091021
C	 1.3631051864	 0.3257592371	 2.09100375	 0.053072
C	 0.7423921272	 0.4316376481	 3.4406064721	-0.319176
C	 2.0513268683	-0.3392701799	 3.2822575982	-0.130555
C	 2.0265297911	-1.8130407612	 3.437324899	 0.166448
O	 2.9320646725	-2.4520515779	 3.917937009	-0.277352
H	 0.7459690983	 2.0917727167	-0.0427744355	 0.120759
H	-0.5348196633	 1.742523159	-1.2044402308	 0.126992
H	-0.9328700662	 1.9512885282	 0.5052383139	 0.128121
H	-0.9155654209	-0.5226554634	-0.2231430599	 0.095232
H	 1.3586763782	-1.6166801525	-0.631113667	 0.12007
H	 2.1415109509	 0.0267111305	-0.4368235876	 0.110399
H	 1.8872108685	 1.2068477071	 1.7175479836	 0.08802
H	 0.7794064533	 1.3737303892	 3.9746402848	 0.126295
H	-0.149105741	-0.1624839169	 3.6107474583	 0.132117
H	 2.9599823854	 0.1270813523	 3.6466056774	 0.105192
H	 1.095959492	-2.3008632467	 3.0799651289	 0.085502
43.3539	90.994	133.2339	174.7137	213.1617	223.7243	300.1838	384.4255	411.471	444.0189	479.4643	588.4128	730.3205	793.4782	837.8162	848.5007	873.7613	907.3817	954.7584	991.9798	1029.7175	1049.8794	1055.9914	1071.8916	1100.9569	1120.4405	1132.734	1150.1156	1183.0051	1190.07	1193.8154	1215.1751	1334.1573	1342.24	1401.3379	1405.2411	1422.2839	1435.612	1477.2901	1492.2303	1497.4931	1511.1258	1811.6298	2919.198	3037.5437	3079.874	3088.9426	3098.3671	3105.9198	3126.2364	3139.7739	3177.3291	3179.9032	3231.6825
CC1CN1C1CC1C=O	C[C@H]1CN1[C@H]1C[C@H]1C=O	
InChI=1S/C7H11NO/c1-5-3-8(5)7-2-6(7)4-9/h4-7H,2-3H2,1H3	InChI=1S/C7H11NO/c1-5-3-8(5)7-2-6(7)4-9/h4-7H,2-3H2,1H3/t5-,6-,7-,8?/m0/s1
