21
gdb 64257	3.2429	1.15763	1.13107	1.1955	78.41	-0.2303	0.0683	0.2986	1210.3372	0.181559	-424.218598	-424.209639	-424.208694	-424.252462	35.28	
C	 0.1762919025	 1.5175265895	 0.0804561229	-0.444466
C	-0.0495848083	 0.0077588654	-0.0119186998	 0.394757
O	-1.4359120788	-0.2988964856	-0.1020424096	-0.47594
C	 0.7720174624	-0.6103073187	-1.1684195182	-0.146941
O	 2.0661970689	-0.8114688185	-0.6274304234	-0.28375
C	 1.8651864229	-1.3087188655	 0.6838230805	 0.469863
C	 2.3270828902	-2.7127254355	 0.9717706638	-0.325826
C	 3.0961718167	-1.5105191166	 1.4997850783	-0.343876
C	 0.5416109375	-0.7469158441	 1.2042485607	-0.358088
H	 1.2460389523	 1.740392393	 0.1338551099	 0.136251
H	-0.2260642143	 2.0268576028	-0.804595878	 0.10225
H	-0.3147495589	 1.927781311	 0.9677142934	 0.122383
H	-1.8266812682	 0.2803142874	-0.7646950537	 0.276137
H	 0.3014150072	-1.5590987175	-1.4698658805	 0.093181
H	 0.8694166098	 0.0385271473	-2.0439662573	 0.093808
H	 1.7594586187	-3.3145249627	 1.6743367776	 0.109675
H	 2.7739739123	-3.2618926139	 0.1505696368	 0.1195
H	 4.0425053983	-1.2782065728	 1.0238468504	 0.122978
H	 3.0531681271	-1.2896942389	 2.5612794261	 0.112377
H	 0.6783916097	-0.0849077476	 2.0636577756	 0.105134
H	-0.151676128	-1.5402743884	 1.4931558946	 0.120594
28.4207	161.3595	250.9882	273.7746	283.4863	285.7737	332.6721	355.4177	431.9228	437.1569	476.6851	511.6111	619.5516	757.7776	779.0285	795.1955	849.219	904.79	924.6128	941.8836	956.3628	981.538	985.3286	996.3712	1045.9108	1074.3822	1093.7	1136.3596	1149.6078	1170.925	1189.4635	1221.6208	1266.7397	1282.4155	1291.0067	1351.3619	1370.5611	1394.6703	1406.198	1452.0563	1487.1497	1492.9644	1497.1477	1499.6791	1517.6497	2986.1051	3021.4404	3060.1023	3085.0155	3092.5979	3108.9527	3120.2711	3127.1316	3131.3641	3212.9626	3227.2877	3809.4676
CC1(O)COC2(CC2)C1	C[C@@]1(O)COC2(CC2)C1	
InChI=1S/C7H12O2/c1-6(8)4-7(2-3-7)9-5-6/h8H,2-5H2,1H3	InChI=1S/C7H12O2/c1-6(8)4-7(2-3-7)9-5-6/h8H,2-5H2,1H3/t6-/m0/s1
