16
gdb 62592	3.01319	1.63051	1.34469	2.7594	68.42	-0.2502	-0.0173	0.2329	961.1431	0.123067	-437.838207	-437.830521	-437.829577	-437.869972	30.041	
C	 0.0372455995	 1.5709956183	 0.1060243921	-0.477186
C	 0.0868017123	 0.0534985716	 0.0313154876	 0.416241
O	-1.2096187266	-0.5109747379	 0.0654688807	-0.47313
C	 0.826715084	-0.6629917388	-1.0942987526	-0.061974
C	 2.2954602917	-0.738646002	-0.7834154249	-0.199044
N	 1.3027314465	-1.7620718931	-0.2239101702	-0.139832
C	 1.0871957342	-0.7276430431	 0.9406486528	-0.215993
C	 2.4645480569	-0.17107727	 0.5886955347	 0.462485
O	 3.368641354	 0.3173788349	 1.2037818061	-0.338956
H	 1.031501328	 2.0171886629	 0.0218919119	 0.141021
H	-0.5949853772	 1.9623985771	-0.6963019051	 0.135113
H	-0.3898656833	 1.89443183	 1.063213687	 0.11964
H	-1.6725850485	-0.1513590003	 0.8300584743	 0.283591
H	 0.4585050842	-0.8551541267	-2.0968803213	 0.116107
H	 3.0374429121	-0.9993767263	-1.527492123	 0.127043
H	 0.822594842	-1.0630217366	 1.94048699	 0.104875
134.328	195.6181	221.6848	267.1287	287.7685	375.583	381.4954	470.9418	531.619	619.2685	629.256	724.2624	764.5183	818.5152	846.0294	868.9426	911.9421	966.6029	981.3653	1027.0438	1027.4529	1089.8167	1111.3164	1133.1647	1140.6338	1164.2225	1198.1708	1216.3449	1285.5533	1327.4399	1402.6696	1415.5161	1489.0059	1494.8967	1889.2768	3031.3306	3099.7738	3126.4617	3162.1901	3175.3941	3209.3821	3806.418
CC1(O)C2C3N2C1C3=O	C[C@@]1(O)[C@H]2[C@@H]3N2[C@H]1C3=O	
InChI=1S/C6H7NO2/c1-6(9)4-2-3(8)5(6)7(2)4/h2,4-5,9H,1H3	InChI=1S/C6H7NO2/c1-6(9)4-2-3(8)5(6)7(2)4/h2,4-5,9H,1H3/t2-,4-,5+,6-,7?/m1/s1
