18
gdb 129884	4.26916	1.04189	0.89885	2.5569	81.02	-0.1897	0.0283	0.218	1309.3084	0.149563	-398.121869	-398.113531	-398.112587	-398.155737	31.429	
N	 0.1193189287	 1.4269854909	-0.3026190202	-0.608395
C	 0.0280806861	 0.0379516421	-0.1071285125	 0.159264
C	-1.0255334835	-0.8023843314	-0.4221291143	-0.119352
N	-0.6165828686	-2.0719135637	-0.1269050508	 0.043727
N	 0.6323628635	-2.1035534254	 0.3585596464	-0.269372
C	 1.0320665481	-0.8308108448	 0.3726932973	-0.054737
C	-1.3308840401	-3.3056536259	-0.2688760535	 0.101254
C	-2.8147176696	-3.3811199048	-0.0318397101	-0.287078
C	-2.25781493	-3.5414405395	-1.4303137586	-0.286213
H	 0.7598721392	 1.8619411718	 0.3489082582	 0.243678
H	-0.7767558643	 1.8921946111	-0.2350088702	 0.240612
H	-2.0025920119	-0.5917794389	-0.825581206	 0.119028
H	 2.0224181687	-0.5797955372	 0.7241828639	 0.100403
H	-0.7062658824	-4.1197857913	 0.073075682	 0.121283
H	-3.2038810431	-4.2527441991	 0.4823180054	 0.123758
H	-3.331297223	-2.4567979892	 0.2019075306	 0.122802
H	-2.4021243661	-2.7230214073	-2.1269481883	 0.125287
H	-2.2607469718	-4.5242690573	-1.8880611592	 0.12405
31.3945	121.6455	156.7135	168.6112	309.3182	352.3431	431.1756	447.7516	583.912	634.8765	663.9203	708.1225	723.0031	769.9796	780.1987	808.659	838.1409	915.4479	939.7628	998.4033	1032.3632	1058.2026	1070.2927	1089.5587	1107.4015	1128.9552	1178.5966	1196.4024	1223.8446	1243.3739	1314.9215	1404.0213	1424.1523	1448.2327	1463.1907	1489.8415	1506.1993	1630.8527	1658.9004	3136.7276	3139.654	3211.0313	3217.368	3233.1184	3239.7513	3260.8185	3536.0904	3623.1712
NC1=CN(N=C1)C1CC1	Nc1cn(nc1)C1CC1	
InChI=1S/C6H9N3/c7-5-3-8-9(4-5)6-1-2-6/h3-4,6H,1-2,7H2	InChI=1S/C6H9N3/c7-5-3-8-9(4-5)6-1-2-6/h3-4,6H,1-2,7H2
