16
gdb 99506	2.61836	1.12648	0.81638	2.4115	66.42	-0.2898	-0.0138	0.2761	1354.3249	0.122151	-475.056958	-475.046995	-475.046051	-475.09366	33.439	
C	-0.2038186165	 1.3251759637	 0.0873248964	-0.247032
O	-0.1725535622	-0.1006968902	 0.2760893135	-0.223924
C	 0.8849611907	-0.5715574588	 0.940657224	 0.488484
O	 1.7819858694	 0.1001742464	 1.3797249255	-0.359822
C	 0.8571860048	-2.0966299933	 1.0778362199	-0.334224
C	 1.3439397627	-2.5245982518	 2.4930605086	-0.059553
O	 1.5015425246	-3.9161003843	 2.5929134937	-0.414575
C	-0.438038029	-2.7090521484	 0.7898139117	 0.291583
N	-1.440898879	-3.2605962702	 0.6298381989	-0.326268
H	 0.6655737176	 1.6507272516	-0.4882221571	 0.149541
H	-1.1252858981	 1.5267554139	-0.4568526567	 0.149063
H	-0.2041323893	 1.8353959833	 1.052952048	 0.150456
H	 1.5860770657	-2.4906010135	 0.3581163848	 0.170107
H	 2.3218947805	-2.0689265307	 2.6541362755	 0.149628
H	 0.6507796208	-2.1250331335	 3.2464384164	 0.115212
H	 0.6295998872	-4.3263270741	 2.5606071371	 0.301323
16.8914	97.5446	123.1521	128.4034	143.2057	183.356	258.2337	295.4458	354.1391	393.098	400.1005	505.6473	554.7293	649.0651	789.8246	840.1299	902.8255	1019.2402	1054.9972	1069.97	1095.7252	1178.4408	1187.272	1210.667	1249.0098	1281.5544	1331.0263	1393.8278	1409.0236	1473.7333	1483.5085	1494.3749	1505.12	1822.2875	2359.435	3011.512	3047.2144	3060.2768	3131.9355	3139.2017	3174.0592	3799.0843
COC(=O)C(CO)C#N	COC(=O)[C@@H](CO)C#N	
InChI=1S/C5H7NO3/c1-9-5(8)4(2-6)3-7/h4,7H,3H2,1H3	InChI=1S/C5H7NO3/c1-9-5(8)4(2-6)3-7/h4,7H,3H2,1H3/t4-/m1/s1
