19
gdb 81129	3.35053	1.10616	0.98096	3.6936	80.23	-0.2403	0.0301	0.2704	1252.1737	0.159843	-382.010264	-382.001758	-382.000814	-382.043903	32.	
C	-0.0815211357	 1.565851223	-0.0597514048	-0.446218
C	 0.10718554	 0.062663921	 0.0027753441	 0.034573
N	 1.3074477878	-0.5671377142	-0.747479432	-0.153543
C	 2.1562263224	-0.1383129462	 0.464643073	-0.216046
C	 0.8739150569	-0.6762357107	 1.1368595657	 0.294977
C	 0.515613508	-0.7525176079	 2.6191171817	-0.481183
C	 1.4797223259	-1.5424860638	 3.3818251154	 0.259846
N	 2.2606859092	-2.1722003062	 3.9555233016	-0.307303
C	 0.9993479901	-1.8141416313	 0.1006030658	-0.201468
H	-0.2676676903	 1.8674572433	-1.0956288463	 0.140491
H	-0.9585127773	 1.8533080314	 0.5303332782	 0.122398
H	 0.7708542791	 2.1405389876	 0.3083073704	 0.123571
H	-0.8246262691	-0.4295710651	-0.300252965	 0.074553
H	 3.0694935733	-0.7263354567	 0.5802894303	 0.118602
H	 2.3764658591	 0.9281828861	 0.5083263151	 0.106711
H	 0.4701434741	 0.2562914428	 3.0465325163	 0.155606
H	-0.4801273874	-1.1952642735	 2.7414395218	 0.154424
H	 0.0885589106	-2.3372845209	-0.2041827452	 0.10306
H	 1.8463042533	-2.4974939389	 0.1920790239	 0.116946
53.7084	101.2085	163.3997	191.5969	287.5179	361.808	369.729	389.6258	470.5051	577.1309	603.4677	676.718	752.1917	782.5392	833.182	879.6494	888.6869	940.2317	976.8779	998.3377	1023.5186	1050.704	1100.7973	1112.0651	1155.117	1161.7257	1176.0744	1197.1505	1201.7452	1247.5376	1266.7469	1308.0742	1324.4175	1406.5711	1430.8301	1456.9908	1490.1615	1494.5691	1521.4651	1558.4515	2360.6333	3031.4639	3036.2754	3041.9473	3056.2982	3075.151	3077.8259	3101.9108	3123.956	3128.8208	3145.711
CC1N2CC1(CC#N)C2	C[C@H]1N2C[C@]1(CC#N)C2	
InChI=1S/C7H10N2/c1-6-7(2-3-8)4-9(6)5-7/h6H,2,4-5H2,1H3	InChI=1S/C7H10N2/c1-6-7(2-3-8)4-9(6)5-7/h6H,2,4-5H2,1H3/t6-/m1/s1
