23
gdb 85974	2.58806	1.22976	1.01296	1.5549	85.56	-0.2626	0.0893	0.3519	1310.7021	0.204356	-388.267285	-388.257659	-388.256715	-388.30158	36.779	
C	-0.7461836518	 0.7836054763	-0.9479686381	-0.409483
C	 0.3144926974	-0.1456469921	-0.3789234244	 0.071124
C	 1.6691766664	-0.2731067553	-1.1298699484	-0.280635
C	 2.4195352539	-0.2120310965	 0.2419273495	 0.295562
C	 3.6301507543	 0.717974265	 0.3075656424	-0.457628
C	 1.0948744765	 0.3047995488	 0.885919143	-0.289668
C	 2.8315884267	-1.5944695992	 0.7068442886	 0.053278
C	 2.7967900538	-2.0333072904	 2.1067303969	-0.191298
O	 1.8201323972	-2.4945143054	 1.1677742931	-0.241068
H	-0.3390867018	 1.7862943183	-1.1254890915	 0.105498
H	-1.1347716279	 0.4093623672	-1.9019961255	 0.112595
H	-1.5949235908	 0.8865050816	-0.2621862205	 0.112955
H	-0.1067949517	-1.1398300545	-0.2069163269	 0.090034
H	 1.8249110499	-1.1679863691	-1.73975243	 0.095098
H	 1.88370123	 0.607714169	-1.7446517659	 0.088017
H	 3.3778451049	 1.7106785961	-0.0781595337	 0.113211
H	 3.9868088694	 0.8361801753	 1.33718316	 0.114411
H	 4.4638710412	 0.331738094	-0.2914440989	 0.113355
H	 1.1104089014	 1.3942418827	 0.9956125526	 0.087237
H	 0.7880309876	-0.1389361909	 1.8355324881	 0.10269
H	 3.5712755762	-2.0723015574	 0.0585541854	 0.087563
H	 3.4999226307	-2.7879740534	 2.4561586462	 0.11428
H	 2.4210267267	-1.3597143899	 2.8754451478	 0.112874
71.4137	93.5322	195.9217	209.5384	214.1237	225.8103	305.2281	307.1011	355.2192	393.6376	466.833	514.8396	569.4945	720.904	820.589	823.5048	865.9702	898.8375	904.3521	907.8762	936.2033	955.7739	1006.4714	1012.1891	1078.8272	1082.8549	1104.3701	1133.425	1154.2279	1174.7091	1180.8601	1200.2049	1218.8303	1243.8011	1282.824	1289.0431	1299.7481	1321.2305	1371.3796	1407.1766	1409.6753	1430.6893	1468.1552	1488.8119	1492.86	1494.6336	1495.5404	1499.6489	1528.3685	3018.6222	3020.2768	3037.2552	3048.0258	3063.3393	3070.2305	3084.1601	3085.0228	3085.1931	3087.9819	3095.1606	3098.9788	3110.9	3169.6425
CC1CC(C)(C1)C1CO1	C[C@H]1C[C@@](C)(C1)[C@H]1CO1	
InChI=1S/C8H14O/c1-6-3-8(2,4-6)7-5-9-7/h6-7H,3-5H2,1-2H3	InChI=1S/C8H14O/c1-6-3-8(2,4-6)7-5-9-7/h6-7H,3-5H2,1-2H3/t6-,7-,8-/m1/s1
