17
gdb 51267	4.27434	1.07943	0.92912	5.1129	76.83	-0.2328	-0.0157	0.2171	1245.1731	0.137443	-418.030557	-418.022795	-418.021851	-418.063479	29.336	
O	-0.3844315677	 0.0215977858	 0.0892092774	-0.258255
C	-0.0921896687	 1.1859664794	 0.0866433579	 0.155093
N	 1.1858594973	 1.7224744106	 0.0781335343	-0.381669
C	 2.4139520389	 1.0661895597	 0.075497978	 0.405346
N	 2.5731043698	-0.1953346717	 0.1632103862	-0.239516
C	 3.985320403	-0.4750736638	 0.0512399564	 0.017591
C	 4.6177901422	-0.1661988102	-1.2811975966	-0.282461
C	 4.7433629126	 0.8301117196	-0.1510113737	-0.056594
C	 3.6808280313	 1.9116550115	-0.0642519027	-0.354568
H	-0.8412884648	 2.0051068826	 0.087496208	 0.076795
H	 1.2291077166	 2.7301270662	 0.0663515416	 0.254607
H	 4.3514386498	-1.3013519177	 0.6484388086	 0.097099
H	 5.5152454255	-0.7122014872	-1.5524941715	 0.115633
H	 3.9520171245	 0.0532258004	-2.1108307752	 0.116585
H	 5.7167268022	 1.006839986	 0.288429754	 0.092512
H	 3.6350292353	 2.5609165686	-0.9472115136	 0.121343
H	 3.8164611523	 2.5623906503	 0.809538451	 0.120458
48.7869	144.5435	166.949	266.6132	328.8128	345.9369	471.8661	521.4248	590.8225	600.8769	708.3297	789.6654	791.7969	814.2388	894.5754	909.9665	956.3159	987.0975	1019.319	1037.6822	1055.3378	1077.3752	1096.6093	1114.1748	1133.7936	1182.3535	1198.9375	1247.2633	1318.4491	1326.4184	1368.7734	1446.1781	1468.8279	1479.9096	1537.2975	1707.3339	1847.7015	2914.6987	3021.8768	3058.1818	3121.2551	3183.7189	3191.6743	3213.2001	3623.6892
O=CNC1=NC2CC2C1	O=CNC1=N[C@H]2C[C@H]2C1	
InChI=1S/C6H8N2O/c9-3-7-6-2-4-1-5(4)8-6/h3-5H,1-2H2,(H,7,8,9)	InChI=1S/C6H8N2O/c9-3-7-6-2-4-1-5(4)8-6/h3-5H,1-2H2,(H,7,8,9)/t4-,5-/m0/s1
