21
gdb 82175	2.63104	1.58391	1.24929	1.0489	80.72	-0.2384	0.08	0.3183	1090.8115	0.183145	-387.068025	-387.059789	-387.058845	-387.100086	33.874	
C	 0.0218360209	 1.6304636039	-0.0515489292	-0.385487
C	 0.0156869665	 0.0979535946	-0.0072677457	-0.010997
C	 0.7195149757	-0.5861494107	-1.1928915381	-0.03501
C	 2.2002344154	-0.4030035223	-1.4252904173	-0.308481
C	 1.7029414761	-1.6023171073	-0.6563197375	-0.111476
C	 1.6385696819	-1.5584685073	 0.8673186936	 0.404259
O	 1.6557443229	-2.7901439393	 1.5263096563	-0.476418
C	 2.1004178784	-0.3201658525	 1.594269329	-0.369683
C	 0.6284088089	-0.5180181943	 1.2594831248	-0.088209
H	 1.041247289	 2.0272985513	-0.0147815213	 0.11138
H	-0.4447439025	 1.9980243369	-0.9715342773	 0.110648
H	-0.5290348363	 2.0510953343	 0.7961813607	 0.111485
H	-1.0309243873	-0.2319216733	-0.0361808328	 0.077655
H	 0.1096025956	-0.8048814543	-2.0634086181	 0.081587
H	 2.5552126562	-0.5794827524	-2.4358517671	 0.106562
H	 2.7464949445	 0.3801762035	-0.9129004123	 0.11002
H	 1.8025926552	-2.5921884448	-1.0866205166	 0.083885
H	 2.5735518123	-3.0743467997	 1.5975417031	 0.280638
H	 2.3546019101	-0.4591993827	 2.6402578568	 0.10886
H	 2.6917670469	 0.4370033524	 1.0931314128	 0.108184
H	-0.0290529105	-0.696803796	 2.1035015861	 0.090598
144.3655	186.1149	224.9553	263.1962	293.8077	333.1211	392.3286	414.7681	467.0297	530.0901	598.1337	639.1324	692.6064	765.5587	801.4541	821.1992	885.814	923.538	943.8728	945.2477	963.8815	994.9825	1025.5135	1043.6012	1049.0331	1055.667	1069.4501	1100.2554	1106.0938	1145.5624	1153.1682	1202.2377	1216.1866	1252.3371	1304.4604	1332.1082	1344.8272	1351.8364	1380.0951	1406.6925	1414.1205	1480.251	1492.4769	1497.9445	1504.3031	3016.662	3032.8977	3098.6389	3104.7004	3128.6274	3135.5162	3154.5265	3165.8444	3176.6438	3210.56	3219.0526	3794.1764
CC1C2CC2C2(O)CC12	C[C@H]1[C@H]2C[C@H]2[C@@]2(O)C[C@@H]12	
InChI=1S/C8H12O/c1-4-5-2-6(5)8(9)3-7(4)8/h4-7,9H,2-3H2,1H3	InChI=1S/C8H12O/c1-4-5-2-6(5)8(9)3-7(4)8/h4-7,9H,2-3H2,1H3/t4-,5+,6+,7-,8-/m0/s1
