17
gdb 73771	2.3606	1.59621	0.9693	2.4023	79.22	-0.2422	-0.0797	0.1625	1179.0783	0.133687	-421.904227	-421.894789	-421.893845	-421.941642	32.621	
C	 0.1003174508	 1.5328342228	 0.0543438578	-0.499159
C	-0.0267496265	 0.0480195432	 0.0046271884	 0.109604
C	-1.1313534299	-0.7322751094	 0.0275813899	 0.109598
C	-2.571416403	-0.354428015	 0.1097961926	-0.49916
C	-0.7473295834	-2.1752477644	-0.0469887617	 0.333931
O	-1.5275449102	-3.0988350121	-0.0312316997	-0.311976
C	 0.7713634686	-2.2583840783	-0.139269016	-0.457342
C	 1.2025894024	-0.7978407249	-0.087523642	 0.333935
O	 2.3337115437	-0.3712445065	-0.1114962805	-0.311973
H	 0.8320620936	 1.8217897351	 0.8155584193	 0.155898
H	 0.4894955156	 1.9114432358	-0.8980472086	 0.153448
H	-0.849831332	 2.0283855804	 0.261430244	 0.129656
H	-3.0844063191	-0.6131848068	-0.8238778124	 0.153448
H	-3.0669607979	-0.9322911801	 0.8964947012	 0.155896
H	-2.7153441052	 0.710622776	 0.3000315258	 0.129656
H	 1.1975922583	-2.8375077783	 0.6856116673	 0.15713
H	 1.0915986241	-2.7390971376	-1.0691308453	 0.157411
4.665	64.2366	90.8182	110.5585	247.1216	265.8291	271.7786	378.8027	434.6384	526.3142	536.8371	589.8427	621.1061	665.2708	687.407	809.6943	934.7887	942.779	1021.2097	1041.6338	1061.9281	1118.8121	1119.6204	1135.3824	1237.7382	1265.6574	1331.9096	1411.2446	1413.1555	1422.2629	1468.2016	1470.3224	1473.236	1476.0112	1692.4296	1796.072	1832.7111	3039.6619	3040.6737	3065.0256	3093.2321	3093.6344	3106.1748	3133.8094	3137.6128
CC1=C(C)C(=O)CC1=O	CC1=C(C)C(=O)CC1=O	
InChI=1S/C7H8O2/c1-4-5(2)7(9)3-6(4)8/h3H2,1-2H3	InChI=1S/C7H8O2/c1-4-5(2)7(9)3-6(4)8/h3H2,1-2H3
