21
gdb 114818	2.6293	1.28677	1.14013	1.1741	78.64	-0.2434	0.0799	0.3233	1204.9585	0.181356	-424.188989	-424.179742	-424.178798	-424.223023	34.862	
C	-0.4601287204	 1.6705060054	 0.0500890467	-0.237029
O	-0.3682961841	 0.3914425095	 0.6366302651	-0.247585
C	-1.2756832117	-0.5368478655	 0.1035233387	 0.081611
C	-1.0151484846	-1.1478746428	-1.3115155356	-0.283369
C	-1.2069751907	-2.5774453685	-0.7205323777	-0.061251
C	 0.1183936485	-3.3054131873	-0.4036548853	-0.217452
C	 0.2375211469	-2.5002204103	 0.9277001471	-0.295507
C	-1.2051646757	-1.9465390537	 0.7158226643	 0.379135
O	-2.1758937314	-2.3111524394	 1.6551202059	-0.488205
H	 0.2721732918	 2.3117578836	 0.5469173601	 0.125679
H	-0.2359045544	 1.646694654	-1.0267438272	 0.109195
H	-1.4629990299	 2.1061519173	 0.1825738852	 0.104493
H	-2.3079085446	-0.1602652052	 0.1807050546	 0.067495
H	-1.7260494015	-0.8547754628	-2.0862158463	 0.10155
H	-0.0002539446	-0.9630845755	-1.6758231774	 0.101583
H	-2.0493026928	-3.1522954524	-1.1037698932	 0.071097
H	-0.021336203	-4.3750492057	-0.227943635	 0.102955
H	 0.9239693415	-3.1763577135	-1.1319842843	 0.094469
H	 0.3233727169	-3.1181723441	 1.8241114694	 0.098173
H	 1.0098090835	-1.7292788007	 0.9479235401	 0.114172
H	-1.9287543298	-1.9249543226	 2.5033459847	 0.278791
72.9806	99.668	169.5393	186.3129	218.9329	242.0577	312.6583	353.0145	392.2189	461.8757	501.218	591.0579	663.6675	744.8358	784.0415	842.8514	880.0992	923.8398	939.9374	969.968	1008.9461	1032.91	1043.576	1080.2407	1123.0903	1156.7595	1175.8743	1180.2113	1186.1351	1199.9089	1218.2519	1245.0364	1250.0451	1260.6144	1275.9334	1296.6077	1320.3855	1362.9293	1394.0446	1469.2712	1473.0373	1482.9437	1487.0934	1493.4277	1509.1364	2973.2544	2981.482	3023.9018	3052.6951	3057.1824	3071.7937	3100.1264	3110.1104	3112.1165	3122.8404	3133.1742	3790.2315
COC1CC2CCC12O	CO[C@H]1C[C@H]2CC[C@@]12O	
InChI=1S/C7H12O2/c1-9-6-4-5-2-3-7(5,6)8/h5-6,8H,2-4H2,1H3	InChI=1S/C7H12O2/c1-9-6-4-5-2-3-7(5,6)8/h5-6,8H,2-4H2,1H3/t5-,6+,7+/m1/s1
