18
gdb 22938	2.56104	1.51242	1.08117	1.026	75.62	-0.2305	0.0056	0.2362	1129.8402	0.14664	-439.033973	-439.025405	-439.024461	-439.06694	32.616	
C	-0.2994062392	 1.4846039146	-0.0923209921	-0.479337
C	 0.0078682	 0.0099602526	-0.0232547584	 0.206975
C	-0.6706516583	-0.886902024	 1.0251270647	-0.365165
C	 0.8122054502	-0.6770908224	 1.0592684852	 0.082248
O	 1.6311012931	-1.6850292632	 0.5247963166	-0.267829
C	 1.3015414198	-1.8836843377	-0.8488923523	-0.173358
C	 0.4171439352	-0.7208880405	-1.2471031056	 0.33173
N	 0.1105846205	-0.3384798864	-2.4214766716	-0.241675
O	 0.6917016194	-1.1868943783	-3.386232283	-0.396904
H	 0.5273323731	 2.0378003087	-0.5487017051	 0.127656
H	-1.1934651385	 1.6660572208	-0.6968336038	 0.136016
H	-0.4771504369	 1.8926738384	 0.9070762559	 0.112771
H	-1.2710138651	-0.3689720399	 1.765779789	 0.120309
H	-1.0546204257	-1.856657986	 0.7276147079	 0.123492
H	 1.2903438239	-0.1420372615	 1.871939489	 0.108377
H	 2.2195221875	-1.9104899884	-1.4450431388	 0.14061
H	 0.7844323204	-2.8423557923	-0.9964971598	 0.126195
H	 0.4213055205	-0.7725844045	-4.2122861877	 0.307892
101.7269	162.2081	180.6465	209.8969	233.4133	293.6283	348.8595	421.3184	448.5393	494.4181	539.1198	607.7268	670.9852	756.7238	821.0477	845.8513	897.0937	958.2851	977.6818	1004.0373	1018.4282	1030.5725	1043.5248	1097.4803	1118.4781	1139.8134	1166.1786	1201.2874	1277.1651	1316.0951	1348.5862	1386.2791	1417.9023	1427.4389	1479.1591	1483.9149	1499.0747	1500.8746	1755.4918	3008.6289	3037.4497	3071.1626	3105.3601	3110.3044	3130.6757	3179.1758	3221.0562	3822.6385
CC12CC1OCC2=NO	C[C@]12C[C@H]1OCC2=NO	
InChI=1S/C6H9NO2/c1-6-2-5(6)9-3-4(6)7-8/h5,8H,2-3H2,1H3	InChI=1S/C6H9NO2/c1-6-2-5(6)9-3-4(6)7-8/h5,8H,2-3H2,1H3/t5-,6-/m1/s1
