23
gdb 72259	2.60098	1.78093	1.57349	0.0519	87.91	-0.2543	0.0849	0.3393	1012.3551	0.209172	-351.149864	-351.142429	-351.141485	-351.180934	32.065	
C	 0.0266576402	 1.5336307166	 0.0013701614	-0.505244
C	-0.0134532845	 0.0234893759	-0.0484489694	 0.383912
C	 0.3868603785	-0.7330984403	-1.3293835824	-0.288315
C	-0.5474329659	-1.8823660072	-0.852238745	-0.025877
C	 0.2545117412	-2.8642154382	 0.0122794655	-0.208908
C	 1.1149288429	-2.0460560953	 1.0082942436	-0.215827
C	 0.3949004712	-0.7230075333	 1.2962853437	-0.060134
C	-1.114777802	-1.0011094923	 1.5589279334	-0.24237
C	-1.3207149144	-0.83337734	 0.0456995984	-0.055421
H	 1.0613528337	 1.8992881049	 0.005931486	 0.112658
H	-0.4766532037	 1.9735401916	-0.8672330507	 0.109085
H	-0.4603547873	 1.9231441924	 0.902866737	 0.112204
H	-0.0144169458	-0.2172336702	-2.2085638058	 0.087643
H	 1.4403481692	-0.9702405989	-1.5169291124	 0.083074
H	-1.1393030963	-2.3950212548	-1.6137418206	 0.056114
H	-0.4270981514	-3.5332965137	 0.5489501091	 0.096809
H	 0.8850606085	-3.501150879	-0.6181086323	 0.090088
H	 1.275299851	-2.6041838987	 1.937672416	 0.090112
H	 2.1074314004	-1.8474632456	 0.5888102493	 0.096459
H	 0.9301567988	-0.1144901022	 2.0303426592	 0.053282
H	-1.3807558675	-1.9480945584	 2.0405688421	 0.08557
H	-1.596444701	-0.1862008283	 2.1074376679	 0.093326
H	-2.2798286056	-0.4981950648	-0.3557769939	 0.051761
211.1432	219.5399	270.5402	291.0907	378.9874	392.8178	415.8593	478.485	564.9012	650.6997	669.7168	784.3638	797.3586	822.0857	850.7142	863.739	895.0009	931.0497	939.1045	950.7963	965.1553	1020.0917	1029.5583	1048.74	1060.9142	1090.1839	1100.8045	1140.8255	1161.9829	1166.2797	1195.3547	1226.714	1232.0556	1242.2974	1269.3864	1274.4735	1299.7243	1313.0668	1321.1604	1341.447	1356.1995	1377.3472	1408.9609	1482.4655	1484.5959	1490.3243	1492.0601	1500.1442	1515.062	3013.6557	3026.3456	3030.0938	3036.3225	3040.404	3059.3843	3064.6702	3069.5128	3074.5968	3075.314	3079.5972	3083.8255	3085.806	3090.8744
CC12CC3CCC1CC23	C[C@@]12C[C@H]3CC[C@@H]1C[C@@H]23	
InChI=1S/C9H14/c1-9-5-6-2-3-7(9)4-8(6)9/h6-8H,2-5H2,1H3	InChI=1S/C9H14/c1-9-5-6-2-3-7(9)4-8(6)9/h6-8H,2-5H2,1H3/t6-,7-,8-,9-/m1/s1
