19
gdb 80798	1.89679	1.69275	1.20577	4.3982	81.61	-0.2565	0.0096	0.2661	1138.0094	0.15953	-382.020065	-382.011361	-382.010417	-382.053168	33.06	
C	-0.1918704927	 1.5623610212	 0.7904371546	-0.437705
C	-0.1016558539	 0.0797423085	 0.4855331806	 0.018739
C	 1.0707524077	-0.4842051603	-0.3744028719	-0.07538
N	 1.988432962	-0.1514119284	 0.7955322983	-0.343583
C	 0.776654737	-0.8513556368	 1.3907240718	 0.217044
C	 0.6395511908	-1.1043714547	 2.8050617336	 0.157486
N	 0.5077625164	-1.3292464203	 3.9317513267	-0.349074
C	 0.8221394504	-1.9045303628	 0.2276309013	-0.00054
C	-0.3464888237	-2.8051575366	-0.1389907021	-0.449702
H	 0.7873414976	 1.9794684739	 1.0265493381	 0.151128
H	-0.6054696636	 2.0980321653	-0.0710006362	 0.117587
H	-0.8634483781	 1.7379965037	 1.6374882072	 0.127612
H	-1.0798642728	-0.337706549	 0.2478093157	 0.082053
H	 1.3412874596	-0.2194217095	-1.3966620664	 0.092395
H	 2.7802374077	-0.8028614691	 0.8008591098	 0.214583
H	 1.7464826646	-2.4924719393	 0.2722101437	 0.080019
H	-1.3009430353	-2.28049337	-0.2168282657	 0.129925
H	-0.1539567405	-3.2893802477	-1.1022531514	 0.128833
H	-0.4607804234	-3.5965759882	 0.6089905723	 0.138579
115.0611	138.2862	164.2993	202.1389	245.2634	258.6725	329.87	371.2459	518.2985	522.9024	548.4321	599.2819	630.4232	771.9365	786.0554	805.1901	867.133	912.3181	948.4272	1021.5755	1053.2856	1060.972	1075.3107	1121.5266	1163.3073	1169.7078	1184.6963	1205.5096	1212.6267	1258.4975	1267.2479	1294.3102	1391.4767	1405.6326	1422.4297	1427.9864	1490.6664	1493.541	1500.5034	1505.4945	2349.3763	3037.2677	3039.8834	3043.227	3095.95	3101.4196	3110.3317	3120.2249	3130.4028	3152.9885	3382.8971
CC1C2NC1(C#N)C2C	C[C@H]1[C@H]2N[C@]1(C#N)[C@H]2C	
InChI=1S/C7H10N2/c1-4-6-5(2)7(4,3-8)9-6/h4-6,9H,1-2H3	InChI=1S/C7H10N2/c1-4-6-5(2)7(4,3-8)9-6/h4-6,9H,1-2H3/t4-,5-,6-,7+/m0/s1
