18
gdb 11357	4.1184	1.48048	1.15137	1.4069	69.73	-0.2141	0.0612	0.2753	1064.0491	0.155086	-381.142772	-381.134549	-381.133604	-381.175448	29.877	
C	-0.011264724	 1.3524942097	 0.0834733353	-0.23239
O	-0.1291412129	-0.0605047267	-0.1013759433	-0.262327
C	 0.5377301733	-0.5512188257	-1.1484941642	 0.476627
N	 1.2547452398	 0.1100332052	-1.9728513735	-0.381013
C	 1.7621771666	-0.8793321413	-2.9419193452	 0.068622
C	 3.2365317149	-0.6639201423	-3.2644009063	-0.384251
C	 1.4519839686	-2.2687144704	-2.3034044238	-0.192452
N	 0.3886686212	-1.9168483669	-1.3553985201	-0.36628
H	 1.0347325721	 1.6359660746	 0.2284384869	 0.138738
H	-0.4001801067	 1.8873678509	-0.786925451	 0.141128
H	-0.5992292535	 1.5855053992	 0.9719230766	 0.127166
H	 1.1825409243	-0.7756099179	-3.8712902793	 0.079138
H	 3.843568347	-0.739606171	-2.3561684358	 0.112066
H	 3.5942179802	-1.4096228005	-3.9831942589	 0.105891
H	 3.3920416715	 0.3297480993	-3.6931317119	 0.124712
H	 1.1130956319	-3.0099244415	-3.0319229628	 0.109019
H	 2.3387818721	-2.6689478752	-1.7890651045	 0.094423
H	 0.2714107635	-2.4836746295	-0.5272947582	 0.241182
111.2151	119.5409	149.4448	209.139	233.015	266.2291	340.9071	472.9587	498.9964	551.3181	654.8958	719.0095	748.6065	848.006	931.3083	944.7143	1006.1622	1038.9147	1098.0574	1110.6188	1132.9618	1147.6329	1184.2843	1216.0882	1228.5997	1297.4293	1309.2562	1337.2787	1379.7595	1405.2365	1451.7523	1477.1568	1486.7781	1493.9192	1498.6012	1505.2704	1532.5538	1715.6662	2981.4101	2989.9739	3031.9048	3047.5926	3083.073	3100.6481	3117.4649	3121.5437	3152.2886	3595.5195
COC1=NC(C)CN1	CO[C]1[N][C@@H](C)CN1	
InChI=1S/C5H10N2O/c1-4-3-6-5(7-4)8-2/h4H,3H2,1-2H3,(H,6,7)	InChI=1S/C5H10N2O/c1-4-3-6-5(7-4)8-2/h4H,3H2,1-2H3,(H,6,7)/t4-/m0/s1
