20
gdb 94110	2.67657	1.15815	0.96581	2.8991	77.31	-0.2594	0.0267	0.286	1305.2111	0.171089	-440.305995	-440.29686	-440.295915	-440.340944	33.202	
C	 0.3985638187	 1.2507428267	 0.7333406754	-0.399375
C	 0.111051248	-0.046958762	-0.0053047709	 0.151029
C	 1.1958707113	-0.4813145566	-1.0079663233	-0.248082
C	 1.212319941	-2.0099421029	-0.8554500098	-0.252016
C	 0.8953544319	-2.1592153407	 0.627672071	 0.207586
O	 2.1318577164	-2.0075924457	 1.3391969011	-0.202992
C	 2.0748381095	-2.2023149876	 2.6728320848	 0.126674
N	 3.0916509727	-1.978450759	 3.3866948503	-0.444496
O	-0.0025543304	-1.1391511783	 0.9437957008	-0.269055
H	 1.3563530889	 1.1874760304	 1.2581332766	 0.137051
H	 0.4403771091	 2.0875546663	 0.0279875357	 0.115037
H	-0.3855272193	 1.4605401951	 1.4661749421	 0.124676
H	-0.8633316323	 0.0245940018	-0.5073461829	 0.078807
H	 0.9727602292	-0.1513523069	-2.0246694321	 0.106477
H	 2.1655278003	-0.0657860339	-0.7183976459	 0.125532
H	 0.4124393939	-2.4754259255	-1.4393785692	 0.110675
H	 2.1617111175	-2.4755261146	-1.1216536182	 0.124926
H	 0.4372432176	-3.1122997649	 0.9160824119	 0.087079
H	 1.099465333	-2.5637674975	 3.0231056286	 0.093595
H	 2.883726503	-2.198813494	 4.3587975338	 0.226873
45.8302	86.9894	101.7401	132.6661	241.4351	249.6979	327.5168	392.5365	455.3524	474.2449	607.1042	617.5953	779.5057	809.6166	827.7482	860.721	906.9007	922.3946	964.0769	992.2947	1016.5999	1044.1601	1048.4545	1078.3462	1128.4378	1129.7207	1150.2434	1218.9511	1221.865	1293.3572	1309.8685	1339.2615	1352.3552	1379.5145	1385.4893	1391.4654	1410.7041	1432.0276	1479.7592	1486.5281	1496.5898	1501.886	1747.0929	3007.7148	3034.9398	3038.4804	3048.023	3064.4507	3068.0639	3110.8679	3116.1724	3123.3021	3136.8528	3511.953
CC1CCC(OC=N)O1	C[C@H]1CC[C@@H](O[CH][NH])O1	
InChI=1S/C6H11NO2/c1-5-2-3-6(9-5)8-4-7/h4-7H,2-3H2,1H3	InChI=1S/C6H11NO2/c1-5-2-3-6(9-5)8-4-7/h4-7H,2-3H2,1H3/t5-,6-/m0/s1
