16
gdb 26067	3.27895	1.17792	0.92378	4.037	73.98	-0.2375	0.0054	0.2428	1224.4833	0.125008	-400.792045	-400.783849	-400.782905	-400.825595	29.876	
C	 0.1150888585	 1.3877017684	-0.3749635828	-0.384085
C	 0.0228995997	-0.0716575438	 0.132313077	-0.274105
C	 0.5874734222	-0.1740010825	 1.4838704957	 0.288923
N	 1.0272955048	-0.2394000618	 2.5503798343	-0.331949
C	-1.3874068549	-0.6069355447	 0.0953688	 0.248159
C	-2.1807233412	-0.9518351719	 1.1451042007	-0.086294
O	-3.3945241695	-1.3762517276	 0.7090071126	-0.1456
C	-3.3769512405	-1.301798347	-0.6465797794	 0.011674
C	-2.1783843954	-0.8392553247	-1.0832104846	-0.296678
H	 1.1514454441	 1.7345356653	-0.3721379335	 0.136942
H	-0.2716627056	 1.4464185302	-1.3952295088	 0.130384
H	-0.4798410056	 2.0492957535	 0.2588696873	 0.143647
H	 0.6520090501	-0.6950742734	-0.5174044507	 0.137528
H	-2.0251503998	-0.9601206939	 2.2109333145	 0.163043
H	-4.2803202117	-1.6114716348	-1.1452855197	 0.143632
H	-1.8853922151	-0.6848291812	-2.1102233627	 0.114779
45.8992	121.5904	160.5115	212.0154	233.443	337.3934	384.3998	476.1796	563.8483	623.0459	654.5686	712.6297	745.6436	803.8602	833.6793	854.9872	894.673	965.4897	1025.5184	1057.5741	1079.5691	1102.6031	1116.8823	1204.9457	1236.0016	1272.0065	1310.5526	1337.481	1408.1215	1412.9122	1491.2117	1497.4369	1537.871	1631.6966	2360.8371	3019.4894	3052.5956	3131.918	3137.6197	3251.8392	3283.282	3288.4586
CC(C#N)C1=COC=C1	C[C@@H](C#N)c1cocc1	
InChI=1S/C7H7NO/c1-6(4-8)7-2-3-9-5-7/h2-3,5-6H,1H3	InChI=1S/C7H7NO/c1-6(4-8)7-2-3-9-5-7/h2-3,5-6H,1H3/t6-/m0/s1
