18
gdb 67384	2.83646	1.60832	1.43275	3.5068	77.32	-0.2455	0.0277	0.2732	996.4125	0.149495	-401.945632	-401.938332	-401.937388	-401.97713	29.271	
C	-0.0509277784	 1.4985156228	-0.0220255504	-0.523062
C	-0.0086587	 0.0020716717	 0.0136273522	 0.327302
C	 0.4689258136	-1.0513375255	-0.9675353199	-0.123937
C	 1.2842167315	-1.7629771131	 0.1081474475	-0.248445
C	 0.4849412983	-0.9370732486	 1.1579346035	 0.015719
O	-0.6499035519	-1.6921941477	 1.607640528	-0.25257
C	-1.5108850391	-1.827587455	 0.5420952897	 0.424663
N	-2.5622680988	-2.5275591931	 0.5396062808	-0.564132
C	-1.0128236511	-0.9612918403	-0.5589741919	-0.183038
H	 0.9389122135	 1.933965236	 0.1550293305	 0.123968
H	-0.3993762989	 1.8525433434	-0.9975034225	 0.128965
H	-0.7329942712	 1.8948179541	 0.738675897	 0.13314
H	 0.7318649046	-0.9330077107	-2.0121148497	 0.096239
H	 1.2132742768	-2.8509878034	 0.2016311451	 0.110097
H	 2.3346032471	-1.4608633258	 0.0745612337	 0.108924
H	 0.9991540399	-0.5330521198	 2.0275180796	 0.093567
H	-2.6835947423	-2.9900140653	 1.4423460421	 0.220041
H	-1.7107896538	-0.6494064695	-1.3240308253	 0.112559
132.7755	195.2369	203.4304	264.8409	385.3205	423.974	454.4193	577.5633	639.923	676.9744	685.4259	803.2732	849.8447	854.0737	878.9946	890.013	912.7663	933.2575	971.4447	1006.5137	1028.2208	1046.9837	1080.2029	1087.3041	1130.5939	1150.9994	1186.2581	1208.5708	1215.1946	1259.3665	1283.4201	1323.9528	1369.386	1415.5785	1455.5459	1485.4233	1489.5633	1497.7834	1778.7263	3026.5218	3049.249	3087.2329	3101.1208	3106.025	3142.7445	3184.4274	3218.616	3471.5734
CC12C3CC1OC(=N)C23	C[C@@]12[C@H]3C[C@@H]1O[C]([NH])[C@@H]23	
InChI=1S/C7H9NO/c1-7-3-2-4(7)9-6(8)5(3)7/h3-5,8H,2H2,1H3	InChI=1S/C7H9NO/c1-7-3-2-4(7)9-6(8)5(3)7/h3-5,8H,2H2,1H3/t3-,4-,5-,7+/m0/s1
