18
gdb 74100	2.58429	1.7015	1.21887	5.7935	80.64	-0.2124	-0.0151	0.1973	1039.1194	0.150601	-401.97762	-401.970206	-401.969262	-402.009086	30.249	
N	 0.0514399483	 1.3601283461	 0.1030989562	-0.595848
C	-0.0147811612	-0.0003967908	 0.0323148095	 0.419369
C	-1.1630760811	-0.7298882877	 0.0275058413	-0.32021
C	-1.0425959016	-2.1838076332	 0.0150932705	 0.406264
O	-1.982658414	-2.9594789149	 0.0104355015	-0.378811
C	 0.4134555458	-2.6772813035	 0.0026787451	-0.117406
C	 1.2291370975	-1.8919675915	 1.0753163423	-0.229994
C	 1.3007684719	-0.7508736882	 0.0144770272	-0.110186
C	 1.2146918393	-1.8717762115	-1.0655767521	-0.232654
H	 0.9062135135	 1.8196611452	-0.1624553679	 0.259294
H	-0.7913657224	 1.8932957511	-0.0415178217	 0.262181
H	-2.1506757634	-0.2819444454	 0.037743723	 0.078938
H	 0.4369875833	-3.7666004203	-0.0080360194	 0.077982
H	 0.7493677896	-1.6673750597	 2.0300353846	 0.111551
H	 2.2110498172	-2.3427143574	 1.244870499	 0.101863
H	 2.1606116778	-0.075722166	 0.0183514881	 0.057941
H	 2.1942840262	-2.3190424702	-1.2562851221	 0.101861
H	 0.7217955031	-1.6317287021	-2.0100886751	 0.107865
153.5899	165.6625	318.815	330.1824	347.946	420.6585	442.9305	485.2977	501.7852	561.9354	685.5649	732.8853	738.5767	818.7001	826.4304	851.9017	898.7298	913.8765	932.885	1007.556	1021.9245	1084.2569	1086.1241	1088.449	1121.3017	1138.8141	1228.5319	1246.0494	1254.7985	1260.8963	1284.5265	1314.9842	1341.0869	1420.699	1477.9592	1508.2191	1631.6161	1670.3151	1765.6921	3053.3964	3055.4977	3071.4631	3116.7714	3118.4019	3120.9137	3187.4033	3592.1124	3708.0092
NC1=CC(=O)C2CC1C2	NC1=CC(=O)[C@@H]2C[C@H]1C2	
InChI=1S/C7H9NO/c8-6-3-7(9)5-1-4(6)2-5/h3-5H,1-2,8H2	InChI=1S/C7H9NO/c8-6-3-7(9)5-1-4(6)2-5/h3-5H,1-2,8H2/t4-,5+
