16
gdb 23322	3.63079	1.33847	1.25704	1.5499	71.99	-0.2417	-0.0096	0.2321	1020.9068	0.125648	-437.835825	-437.828859	-437.827915	-437.867153	28.075	
O	-0.1297600028	 1.3200934116	-0.039794757	-0.393884
N	 0.004601672	-0.0827288775	-0.0177704596	-0.26152
C	-1.1282941221	-0.6497423399	 0.0001593036	 0.460627
C	-2.5365265623	-0.0855177222	 0.0366637598	-0.31907
C	-3.3282758481	-1.4356003129	 0.0245428418	 0.006537
O	-2.486362023	-2.2550878481	 0.8524129293	-0.246535
C	-1.3144374259	-2.1673903058	 0.0284146432	-0.071915
C	-1.8699237092	-2.5192218588	-1.354301782	-0.082532
C	-3.1241207632	-2.0670181949	-1.3518045517	-0.077167
H	 0.7882526735	 1.611662867	-0.0289645934	 0.305713
H	-2.7038115939	 0.4637150761	 0.9677426889	 0.134517
H	-2.7552019395	 0.5798687638	-0.8011697616	 0.127587
H	-4.340520637	-1.3978978632	 0.42325607	 0.08896
H	-0.4882785454	-2.7504363868	 0.4271707656	 0.098609
H	-1.2953692154	-2.9437090483	-2.1651841669	 0.11857
H	-3.8361031077	-2.0388221399	-2.16504135	 0.111502
103.277	211.0405	283.6068	372.4528	400.9977	463.1962	474.8726	551.206	625.1312	704.7628	735.4473	790.5975	809.3457	864.5173	876.4832	912.9586	922.0554	937.1979	967.1649	970.5144	1002.1555	1045.1633	1093.5258	1135.8297	1177.774	1217.9618	1235.4682	1258.6971	1294.2118	1324.0857	1335.1267	1400.292	1465.8877	1636.8681	1779.4628	3067.8187	3117.7001	3137.5222	3162.6868	3222.8519	3248.9017	3816.193
ON=C1CC2OC1C=C2	ON=C1C[C@@H]2O[C@H]1C=C2	
InChI=1S/C6H7NO2/c8-7-5-3-4-1-2-6(5)9-4/h1-2,4,6,8H,3H2	InChI=1S/C6H7NO2/c8-7-5-3-4-1-2-6(5)9-4/h1-2,4,6,8H,3H2/t4-,6+/m1/s1
