16
gdb 71449	4.05043	1.43213	1.29613	4.6157	68.7	-0.2258	0.0085	0.2343	987.9896	0.125215	-437.876419	-437.869297	-437.868352	-437.907667	28.344	
C	-0.0854786929	 1.4819336263	 0.0661277985	-0.499924
C	 0.0476515849	-0.0026418682	 0.0605893918	 0.460825
O	-1.1215086832	-0.7832438415	-0.1778283571	-0.329906
C	-0.4980275297	-1.9241398171	 0.5174583314	-0.050137
C	 0.6611300149	-1.0289902299	 0.9859855406	-0.222433
C	 1.2852128325	-0.8177715718	-0.3700107874	-0.095769
N	 1.0862047044	-2.0060346373	-1.1499709946	-0.320033
C	 0.0354004389	-2.7631114078	-0.657231868	 0.443351
O	-0.4141808201	-3.7808474947	-1.1255624778	-0.375645
H	 0.8801884928	 1.9511713479	 0.275974432	 0.128489
H	-0.4315176192	 1.8354368091	-0.9112084709	 0.141057
H	-0.804458315	 1.8099854936	 0.8231167221	 0.137575
H	-1.1769876555	-2.4184370708	 1.2074701244	 0.105547
H	 1.1511232657	-0.9865290872	 1.9492408898	 0.109662
H	 2.2437793198	-0.3206659653	-0.4529861671	 0.111418
H	 1.3092510215	-2.0577037752	-2.1320967277	 0.255921
146.464	198.9535	229.5356	300.8411	372.1993	449.8587	478.6857	534.7569	616.5235	676.3309	741.9366	750.7737	793.3371	832.3186	872.1881	891.3468	898.903	943.9261	974.2244	1024.043	1051.7233	1103.6412	1106.4317	1173.8285	1207.6205	1243.0947	1247.3231	1281.8717	1317.1092	1375.5459	1409.8195	1457.433	1472.6829	1498.5412	1844.0933	3036.3842	3103.6669	3116.3323	3159.3145	3193.2434	3204.7659	3631.2457
CC12OC3C1C2NC3=O	C[C@]12O[C@@H]3[C@H]1[C@H]2NC3=O	
InChI=1S/C6H7NO2/c1-6-2-3(9-6)5(8)7-4(2)6/h2-4H,1H3,(H,7,8)	InChI=1S/C6H7NO2/c1-6-2-3(9-6)5(8)7-4(2)6/h2-4H,1H3,(H,7,8)/t2-,3+,4+,6-/m0/s1
