16
gdb 66700	3.13305	1.72619	1.42764	3.2364	71.39	-0.2336	-0.0254	0.2081	932.969	0.125039	-400.706586	-400.699772	-400.698828	-400.737609	27.338	
C	 0.0270031197	 1.5367303851	 0.0470141916	-0.515911
C	 0.0028960374	 0.0424327081	-0.0215408667	 0.310057
C	 0.5261951355	-0.8536935349	-1.1789816786	-0.102792
C	-0.189113106	-2.1557019156	-1.0722621652	-0.194648
N	 1.019597017	-1.8870147713	-0.232931396	-0.152409
C	 0.471750462	-1.0257264956	 0.9085329026	-0.068978
C	-1.0154685897	-0.8654833861	 0.6810214792	-0.2703
C	-1.4424959532	-1.9459854273	-0.2639390137	 0.480169
O	-2.5024131221	-2.5044617782	-0.3655167572	-0.333505
H	 1.0212998714	 1.9238014241	-0.2028054555	 0.131387
H	-0.6919382393	 1.9797985573	-0.6511511111	 0.132972
H	-0.2245063325	 1.8864401893	 1.0528264128	 0.130394
H	 1.1063093625	-0.5314500524	-2.0366040298	 0.107921
H	-0.1060189804	-2.9437131631	-1.8086264915	 0.118325
H	 0.9705050919	-1.0133480336	 1.8682416529	 0.112755
H	-1.6661760241	-0.4763158357	 1.4507624462	 0.114562
138.3824	202.8887	253.5449	274.6415	443.2792	525.7449	560.5422	605.4658	702.1971	745.7198	761.1564	789.4644	808.5205	859.8151	887.7903	910.8693	923.5761	955.8945	985.8579	1017.5932	1033.7848	1052.4418	1108.8758	1149.1193	1163.1761	1185.413	1215.8661	1266.1948	1284.6139	1317.3154	1414.6586	1447.8891	1483.9308	1498.011	1859.781	3027.999	3088.5756	3106.2178	3173.9859	3205.7303	3216.9031	3232.3519
CC12C3C4N3C1C2C4=O	C[C@@]12[C@@H]3[C@H]4N3[C@@H]1[C@@H]2C4=O	
InChI=1S/C7H7NO/c1-7-2-4(9)3-6(7)8(3)5(2)7/h2-3,5-6H,1H3	InChI=1S/C7H7NO/c1-7-2-4(9)3-6(7)8(3)5(2)7/h2-3,5-6H,1H3/t2-,3-,5+,6-,7-,8?/m0/s1
