18
gdb 111403	2.16292	1.65381	1.15065	3.5456	71.47	-0.239	-0.0248	0.2142	1094.2423	0.146725	-439.028862	-439.020118	-439.019174	-439.063	31.814	
O	 0.0064279413	 1.3318991194	 0.3155625943	-0.42365
C	 0.0704646587	-0.0374337037	-0.0630922414	-0.110872
C	-1.3405560374	-0.5884526931	 0.0273529457	-0.011136
C	-1.5578961147	-2.0956608138	-0.0942219937	-0.060241
C	-1.0102393288	-2.8413135596	 1.0555709356	-0.237953
N	-2.3186207152	-2.1816761844	 1.2242177341	-0.132477
C	-2.0529404112	-0.7185627308	 1.4244663189	-0.072695
C	-1.3138031347	-0.261776431	 2.6585014318	 0.154048
O	-0.776491107	-0.9823973315	 3.4626270635	-0.254975
H	 0.9010697238	 1.684073761	 0.3399140216	 0.293509
H	 0.4393997408	-0.1545903392	-1.0949542902	 0.096222
H	 0.7497276673	-0.5981910656	 0.5945416458	 0.100241
H	-1.9776256652	-0.0278260093	-0.6601180845	 0.099121
H	-1.9280818692	-2.5911458484	-0.9856020427	 0.099568
H	-1.1048797997	-3.9223849899	 1.0221637617	 0.125151
H	-0.1566542732	-2.4824018239	 1.6172075191	 0.137252
H	-3.0079769025	-0.1821343176	 1.4124057566	 0.106553
H	-1.2970413931	 0.8441688713	 2.7703407839	 0.092334
43.5527	103.7386	144.0632	199.8963	244.5428	272.6738	284.4872	371.8861	491.2706	500.2095	689.1948	736.1956	739.8023	770.4168	820.0648	924.9686	947.3693	986.3523	1003.8788	1058.2075	1070.1603	1082.3999	1101.1946	1108.975	1125.8751	1147.8877	1203.8121	1218.7281	1248.7415	1262.4538	1284.7185	1351.7627	1365.9214	1371.5452	1425.9427	1460.0145	1510.8338	1522.2469	1818.8003	2898.8612	2972.9077	3015.3691	3050.9162	3090.4169	3136.2663	3166.2213	3228.264	3830.8773
OCC1C2CN2C1C=O	OC[C@H]1[C@H]2CN2[C@H]1C=O	
InChI=1S/C6H9NO2/c8-2-4-5-1-7(5)6(4)3-9/h3-6,8H,1-2H2	InChI=1S/C6H9NO2/c8-2-4-5-1-7(5)6(4)3-9/h3-6,8H,1-2H2/t4-,5+,6-,7?/m0/s1
