16
gdb 132359	1.9528	1.78473	0.94333	1.9618	74.54	-0.2582	-0.0321	0.2261	1193.9356	0.123422	-442.115771	-442.107308	-442.106364	-442.149766	30.189	
C	-0.0695141344	 1.4985624598	 0.0227986314	-0.468901
C	-0.0286558114	-0.0025360942	-0.0284201024	 0.340748
C	-0.0542753342	-0.7008665532	-1.2291301004	-0.337038
C	-0.0102252315	-2.0856428759	-1.1158170663	 0.3482
F	-0.0311416721	-2.8185596878	-2.220778809	-0.062321
N	 0.0513987454	-2.7372754407	 0.0179996452	-0.337986
C	 0.0716465067	-1.9745659311	 1.1274616693	 0.343214
C	 0.1421457826	-2.7028250315	 2.4392751224	-0.459147
N	 0.0345784475	-0.6439423631	 1.1526121258	-0.333831
H	 0.8193436637	 1.8790931926	 0.5356523195	 0.14946
H	-0.1206391646	 1.9395631981	-0.974984438	 0.124559
H	-0.936352062	 1.8291009708	 0.6035041411	 0.149453
H	-0.1049772225	-0.2138648472	-2.1937990292	 0.118195
H	 1.0414530512	-3.325713698	 2.4767154143	 0.143855
H	 0.1524058793	-1.9934064806	 3.2664161349	 0.137691
H	-0.7141756335	-3.376825408	 2.5425095115	 0.143848
60.8364	68.2809	182.7473	193.7503	233.4577	281.8927	321.0498	509.5798	544.1103	567.0872	583.0915	611.6842	659.557	789.6519	868.1548	959.8342	969.8229	1008.8437	1050.2281	1056.8955	1066.7098	1075.7574	1179.8206	1271.0998	1381.0419	1397.3143	1417.0887	1427.9807	1446.0069	1472.8945	1478.6342	1482.4045	1493.2333	1610.0832	1631.4362	3045.7887	3048.7867	3105.796	3107.9527	3133.9849	3160.143	3221.2642
CC1=CC(F)=NC(C)=N1	Cc1cc(F)nc(C)n1	
InChI=1S/C6H7FN2/c1-4-3-6(7)9-5(2)8-4/h3H,1-2H3	InChI=1S/C6H7FN2/c1-4-3-6(7)9-5(2)8-4/h3H,1-2H3
