14
gdb 125834	3.04743	1.27456	0.98227	2.9286	66.76	-0.3116	-0.0552	0.2564	1142.6737	0.100471	-432.84953	-432.841404	-432.84046	-432.883154	28.418	
C	 0.313874277	 1.4602644344	 0.0795826529	-0.510813
C	 0.0853016505	-0.0140332889	 0.0688073277	 0.269267
N	-0.087689271	-0.6935863377	-1.0334810149	-0.124588
O	-0.2623789219	-1.9978022425	-0.6566226069	-0.150758
N	-0.1946614688	-2.1343073291	 0.6955491295	-0.134607
C	 0.0147659728	-0.9349906175	 1.1630592407	 0.279524
C	 0.1204320789	-0.6900799235	 2.6419776223	-0.445549
C	 1.3459004708	 0.0229318466	 3.0099480421	 0.267478
N	 2.3064794688	 0.6020090242	 3.2853169845	-0.298938
H	 1.26615032	 1.7027200412	 0.5607487813	 0.172357
H	 0.3235860724	 1.8424133981	-0.9421175484	 0.162729
H	-0.4757933906	 1.9751712347	 0.6369912298	 0.145151
H	-0.7367876792	-0.1027880686	 2.9938546922	 0.176886
H	 0.0871261405	-1.6517249413	 3.1621369871	 0.191861
49.5067	107.9593	136.2196	228.5327	256.9647	326.1979	377.9042	404.0846	482.6879	646.7384	667.5473	700.3802	774.556	922.087	931.2809	943.0666	957.4425	1021.2367	1071.7613	1076.3267	1215.0542	1240.3479	1333.459	1414.3064	1430.8531	1451.0515	1481.4946	1486.16	1523.0206	1627.298	2368.7861	3042.1113	3046.8495	3102.4403	3106.3421	3149.6907
CC1=NON=C1CC#N	Cc1nonc1CC#N	
InChI=1S/C5H5N3O/c1-4-5(2-3-6)8-9-7-4/h2H2,1H3	InChI=1S/C5H5N3O/c1-4-5(2-3-6)8-9-7-4/h2H2,1H3
