22
gdb 59372	3.5541	0.8392	0.77728	4.2623	86.98	-0.2986	0.0342	0.3328	1558.455	0.193657	-367.231761	-367.221922	-367.220978	-367.266843	36.436	
C	 0.1499166996	 1.4988334368	-0.1554433783	-0.391858
C	 0.0976637826	-0.0228848877	 0.0376383323	 0.013285
C	 0.8760144246	-0.449923835	 1.289615653	-0.391858
C	-1.3451900845	-0.5206112046	 0.0914048425	 0.080764
C	-2.2375451058	-0.3770587333	-1.1739587518	-0.257679
C	-2.8164554333	-1.8061972577	-0.9030495155	-0.167777
C	-1.6134255455	-2.0521325405	 0.0681431051	-0.257679
C	-4.1121453432	-1.7981638695	-0.241212425	 0.271847
N	-5.1386118553	-1.7853613568	 0.2919202611	-0.329713
H	 1.1836091465	 1.8501222068	-0.2356728471	 0.113864
H	-0.3793723586	 1.8096719912	-1.062025048	 0.115587
H	-0.3115681377	 2.0160906529	 0.6941184192	 0.116343
H	 0.5743457654	-0.4931592117	-0.8360794122	 0.065361
H	 0.4406514744	-0.0028383192	 2.19119893	 0.116344
H	 0.8675970936	-1.5369801434	 1.4195957111	 0.115587
H	 1.9210113142	-0.1289688412	 1.2319091668	 0.113864
H	-1.8533588455	-0.0709656868	 0.9531253068	 0.085175
H	-2.9541098954	 0.4442875552	-1.2108338507	 0.124184
H	-1.6461026965	-0.3769864801	-2.0943303392	 0.109673
H	-2.8722369996	-2.4694247308	-1.769432536	 0.120827
H	-0.8180223098	-2.5994425958	-0.4463224999	 0.109674
H	-1.8376579304	-2.5521465488	 1.0110852357	 0.124185
51.6179	89.3204	127.9779	207.4622	219.6491	224.332	245.0046	310.6085	334.7505	428.1537	439.1515	516.6472	569.5804	668.6364	790.3693	819.2289	855.7912	897.9504	927.6439	934.4957	960.239	984.208	1002.0104	1005.7596	1086.5912	1095.3163	1147.3494	1157.3783	1187.9068	1195.0941	1235.474	1255.0131	1272.8371	1288.4877	1317.0455	1349.9559	1350.0326	1395.6017	1400.2283	1421.7466	1471.152	1486.7317	1491.6043	1491.6872	1504.0842	1509.8392	2350.6211	2985.3909	3025.1608	3028.316	3036.1771	3060.1566	3063.7698	3083.6843	3090.6243	3096.0783	3100.4454	3103.1925	3129.3675	3130.881
CC(C)C1CC(C1)C#N	CC(C)[C@H]1C[C@@H](C1)C#N	
InChI=1S/C8H13N/c1-6(2)8-3-7(4-8)5-9/h6-8H,3-4H2,1-2H3	InChI=1S/C8H13N/c1-6(2)8-3-7(4-8)5-9/h6-8H,3-4H2,1-2H3/t7-,8-
