18
gdb 115081	2.31226	1.52435	1.0345	1.7967	72.86	-0.2376	-0.0345	0.203	1177.0042	0.147313	-439.115806	-439.10695	-439.106005	-439.150941	31.575	
C	 0.3035601632	 1.3851043688	 0.3099822243	-0.391395
C	 0.3485078418	-0.1252131084	 0.0710575211	-0.184029
C	 0.5070552935	-0.490551976	-1.4148142655	 0.013614
O	 1.7083516535	 0.1064808319	-1.942024239	-0.236263
C	 2.8059611724	-0.6686738357	-2.0993153573	 0.129961
N	 2.9335087639	-1.922866397	-2.0373990321	-0.268181
C	 1.7551671391	-2.7369349519	-1.7962908301	-0.262653
C	 0.4404176322	-2.0044985706	-1.5921605714	 0.333815
O	-0.6215430135	-2.5749947784	-1.5203810576	-0.309168
H	 1.2135386949	 1.8669663351	-0.0562013234	 0.134489
H	-0.5494816802	 1.8395800518	-0.2052769753	 0.121397
H	 0.2065445401	 1.6033213789	 1.3772354644	 0.120639
H	 1.1763668709	-0.5737712136	 0.6348411102	 0.110284
H	-0.572913524	-0.6016114464	 0.4215696257	 0.130129
H	-0.3171323884	-0.0524166811	-1.987025678	 0.124164
H	 3.664294689	-0.0384808004	-2.324541791	 0.131083
H	 1.6214473929	-3.440693151	-2.6273571205	 0.152097
H	 1.9236686388	-3.369673856	-0.9132929845	 0.150016
29.8949	55.422	110.5168	177.5535	230.8298	293.0652	381.2257	462.3321	476.1491	519.8218	544.6224	581.1877	731.0252	783.9841	875.8461	907.8966	944.0021	964.8213	985.6039	1014.7454	1051.3787	1100.2349	1135.5763	1168.3041	1233.5398	1236.5371	1280.581	1302.6481	1332.4275	1363.0715	1374.5822	1411.4463	1414.4373	1438.1772	1480.6733	1496.3267	1507.6907	1750.8408	1821.4406	3017.478	3030.6046	3041.8795	3051.5714	3065.5153	3085.8149	3110.0506	3126.9027	3162.7075
CCC1OC=NCC1=O	CC[C@H]1OC=NCC1=O	
InChI=1S/C6H9NO2/c1-2-6-5(8)3-7-4-9-6/h4,6H,2-3H2,1H3	InChI=1S/C6H9NO2/c1-2-6-5(8)3-7-4-9-6/h4,6H,2-3H2,1H3/t6-/m1/s1
