17
gdb 88253	5.30132	0.56847	0.53489	2.2123	80.68	-0.2535	-0.0339	0.2196	1996.6007	0.132105	-421.78662	-421.776694	-421.77575	-421.824449	33.581	
C	 0.2859357474	 1.4699013645	-0.4911770391	-0.424779
C	 0.0605818449	 0.0360693719	-0.0950359779	 0.09793
O	 1.2120326495	-0.7801481126	 0.1039735113	-0.242322
C	 0.3876356103	-0.4957912218	 1.2494734699	-0.164102
C	 0.9492857449	 0.3208005058	 2.2911613048	 0.106452
C	 1.399521473	 0.9957411756	 3.1821827936	 0.077674
C	 1.9543431255	 1.7572840594	 4.2902535246	-0.41979
C	 2.3051169299	 0.8718488283	 5.4904659817	 0.172039
O	 2.1446296955	 1.2086719954	 6.6309907656	-0.227764
H	 1.0573821078	 1.9292377809	 0.1301009706	 0.138424
H	 0.598746631	 1.526953444	-1.5387094389	 0.132279
H	-0.6409545332	 2.0431700194	-0.3839029775	 0.125441
H	-0.7496484	-0.4734535668	-0.6210961145	 0.09576
H	-0.1827315958	-1.3556940709	 1.6009992148	 0.114911
H	 2.8890811918	 2.2469108734	 3.9761242402	 0.161349
H	 1.2804662044	 2.5489438603	 4.6339068928	 0.157583
H	 2.7396790233	-0.1141611868	 5.2189367479	 0.098914
10.8412	51.2827	81.2857	119.6492	146.6746	189.9938	307.5329	315.8825	396.7599	438.6242	473.2022	549.464	576.5151	724.1584	768.9603	799.8989	878.2966	956.7691	1015.3575	1030.612	1042.2487	1078.7163	1138.4203	1164.7417	1195.8459	1210.5251	1281.0295	1295.6017	1379.173	1412.3129	1414.8831	1437.8328	1448.0414	1485.3293	1497.0669	1842.3264	2362.5043	2906.4297	3003.9595	3041.531	3079.6865	3085.1896	3105.3264	3108.4187	3138.6254
CC1OC1C#CCC=O	C[C@H]1O[C@H]1C#CCC=O	
InChI=1S/C7H8O2/c1-6-7(9-6)4-2-3-5-8/h5-7H,3H2,1H3	InChI=1S/C7H8O2/c1-6-7(9-6)4-2-3-5-8/h5-7H,3H2,1H3/t6-,7+/m1/s1
