21
gdb 114041	2.80177	1.14751	0.97287	1.9718	78.86	-0.2283	0.0727	0.3011	1307.9616	0.181214	-424.191622	-424.182146	-424.181202	-424.225448	36.454	
C	-0.0749630704	 1.6292140462	 0.1035530297	-0.377755
C	 0.1165293719	 0.1156834096	-0.036065109	-0.199539
C	 0.6306154686	-0.5348868082	 1.2486987614	 0.057589
C	-0.3336520347	-0.6688095349	 2.478065117	-0.326683
C	-0.012317442	-2.1633498101	 2.5540087743	 0.362701
O	 0.1166012754	-2.8848852176	 3.724631237	-0.456595
C	-0.3751933374	-2.864611235	 1.3110103604	 0.073146
O	-1.5546490231	-2.5436220053	 0.6223233647	-0.423279
C	 0.8992162336	-2.0467468998	 1.2846254305	-0.2526
H	 0.8669638484	 2.1278927647	 0.3603086737	 0.109111
H	-0.4424463883	 2.0728317007	-0.8270703084	 0.109747
H	-0.7987979154	 1.8657437893	 0.8911714033	 0.118715
H	-0.8295772313	-0.3526474119	-0.3233596222	 0.103263
H	 0.8304618898	-0.0891179995	-0.8455026603	 0.086566
H	 1.5375914606	-0.0073405775	 1.5677844966	 0.066694
H	 0.0214840849	-0.1175658795	 3.3534333404	 0.089942
H	-1.386391588	-0.4267143315	 2.3089420632	 0.115606
H	 0.7158654132	-2.4068534674	 4.3087001112	 0.282993
H	-0.1725149506	-3.9348038319	 1.3771137252	 0.095374
H	-1.414524698	-2.7425830011	-0.3095123981	 0.284707
H	 1.8488336228	-2.5149877992	 1.0471361894	 0.080298
96.4661	132.5315	151.5117	227.9533	239.4611	262.6784	318.2244	335.6662	364.2109	377.8981	427.718	518.6802	561.1001	649.9119	745.1935	791.263	819.0289	843.4221	905.3818	928.574	949.854	973.7422	1005.9679	1039.2186	1068.3105	1092.8727	1108.6404	1129.5759	1185.9491	1210.8186	1233.4611	1245.6781	1281.8225	1298.2667	1305.4018	1324.7064	1343.2745	1374.4935	1394.9462	1411.7289	1473.1399	1491.3683	1500.0919	1507.1845	1524.3394	3017.1045	3023.0236	3027.6939	3054.3621	3077.7109	3098.4483	3099.7644	3101.1624	3106.6657	3164.2577	3794.758	3807.1551
CCC1CC2(O)C(O)C12	CC[C@H]1C[C@@]2(O)[C@@H](O)[C@@H]12	
InChI=1S/C7H12O2/c1-2-4-3-7(9)5(4)6(7)8/h4-6,8-9H,2-3H2,1H3	InChI=1S/C7H12O2/c1-2-4-3-7(9)5(4)6(7)8/h4-6,8-9H,2-3H2,1H3/t4-,5+,6-,7-/m0/s1
