14
gdb 32490	4.86346	0.98323	0.82213	3.4054	71.24	-0.2355	-0.0772	0.1583	1308.3487	0.100299	-473.850038	-473.841954	-473.84101	-473.883419	28.059	
C	-0.0032638586	 1.4062796673	 0.0317396666	-0.241706
O	 0.0119394849	-0.0223562903	 0.0137169976	-0.269931
C	 0.6264311184	-0.6189265175	 1.0388032776	 0.355167
C	 0.7640486453	-1.9710744609	 1.2268526121	-0.14405
O	 1.4483272089	-2.1500026017	 2.3855939587	-0.138107
C	 1.6937333112	-0.9065675852	 2.8454576051	 0.296617
C	 2.4269758533	-0.7168261396	 4.0997638149	 0.08415
O	 2.8504702718	-1.6126546082	 4.7902498163	-0.260087
N	 1.222185569	 0.0438015169	 2.075412037	-0.370605
H	 1.013499366	 1.8103128268	 0.0180234781	 0.139858
H	-0.5383966008	 1.7050117601	-0.8699487521	 0.138249
H	-0.5206999517	 1.7826277569	 0.919351433	 0.1399
H	 0.4610793623	-2.8462331906	 0.681334746	 0.164983
H	 2.5523719599	 0.355324776	 4.3499197593	 0.105564
79.6618	109.8013	154.4573	166.37	252.2273	272.9281	362.7204	472.933	515.6402	677.5584	706.7882	718.4627	755.2632	786.1351	982.3431	1003.4513	1022.7743	1079.0139	1149.7657	1179.1567	1206.7219	1254.1676	1358.1817	1377.2376	1393.9512	1468.5679	1482.7112	1500.1752	1553.1772	1634.4649	1795.8032	2943.8365	3039.3944	3109.7907	3153.54	3306.987
COC1=COC(C=O)=N1	COc1coc(C=O)n1	
InChI=1S/C5H5NO3/c1-8-5-3-9-4(2-7)6-5/h2-3H,1H3	InChI=1S/C5H5NO3/c1-8-5-3-9-4(2-7)6-5/h2-3H,1H3
