19
gdb 70339	2.20513	2.09596	1.35436	3.2817	74.03	-0.2532	0.0706	0.3238	1008.4441	0.157869	-423.006787	-422.998582	-422.997638	-423.038889	32.417	
C	-0.0452184314	 1.555044131	 0.1180100688	-0.504154
C	 0.1524823447	 0.0695368329	-0.012839134	 0.356482
O	-0.5511103897	-0.7530778113	 0.9263810056	-0.279111
C	 0.8778785347	-0.779622692	 0.9534710351	-0.028767
C	 1.5161553572	-1.9670256698	 0.2405038485	-0.280451
C	 1.0913901954	-1.8203713215	-1.2167923333	-0.028767
O	-0.3175638694	-1.8914852137	-1.4475272408	-0.279111
C	 0.2885789608	-0.5938603849	-1.396214623	 0.356483
C	 0.2278006216	 0.2242052066	-2.6571720493	-0.504154
H	 0.7547367702	 2.1104912794	-0.382040573	 0.122521
H	-0.997699658	 1.8654454911	-0.3249233578	 0.132389
H	-0.055301579	 1.8375103965	 1.1734206606	 0.133209
H	 1.3295159852	-0.3871495318	 1.863443076	 0.090473
H	 2.6080825912	-1.905228238	 0.3182934267	 0.105815
H	 1.2020418991	-2.9243194971	 0.6686709761	 0.128551
H	 1.710282612	-2.2431707364	-2.006902139	 0.090473
H	-0.7564978495	 0.6896029707	-2.776843423	 0.13239
H	 0.9781474442	 1.0213653312	-2.6532179677	 0.122521
H	 0.4069272208	-0.4154486528	-3.5246609864	 0.133209
145.6676	192.7682	211.1089	243.4198	281.4828	304.7187	354.0479	420.603	452.58	525.2785	595.3462	613.8859	719.8473	778.2218	804.6219	863.5212	877.0973	912.4765	963.7732	976.2701	1006.603	1039.0233	1068.7433	1093.2841	1120.7829	1120.9055	1157.5113	1208.5948	1284.6062	1297.7519	1308.0617	1317.7019	1404.3716	1414.4846	1440.5201	1450.2851	1462.676	1480.124	1489.953	1492.1867	1501.3108	3035.3905	3039.4693	3043.4763	3090.4317	3097.1862	3102.5853	3119.1241	3122.8351	3123.9251	3125.9636
CC12OC1CC1OC21C	C[C@]12O[C@H]1C[C@H]1O[C@@]21C	
InChI=1S/C7H10O2/c1-6-4(8-6)3-5-7(6,2)9-5/h4-5H,3H2,1-2H3	InChI=1S/C7H10O2/c1-6-4(8-6)3-5-7(6,2)9-5/h4-5H,3H2,1-2H3/t4-,5+,6-,7+
