21
gdb 90481	2.6379	1.43636	1.22322	1.6813	82.11	-0.2447	0.0846	0.3293	1132.367	0.182911	-387.032974	-387.024501	-387.023557	-387.066177	32.805	
C	-0.3088754508	 1.8021977894	 0.672726724	-0.419352
C	-0.0948377379	 0.298805362	 0.5351553138	 0.037045
C	 0.7751697691	-0.2746135173	-0.6374581413	-0.253987
C	 1.6043579291	-1.0720630414	 0.3848293075	-0.097746
C	 2.2693541866	-0.202366125	 1.413310458	-0.016855
C	 2.9822145559	 1.103107449	 1.2136102003	 0.043272
C	 4.1535600363	 1.2221291405	 0.3314222794	-0.175208
O	 2.8970411973	 1.7957718489	-0.033613218	-0.222692
C	 0.7893215783	-0.4606949132	 1.5405686792	-0.108261
H	 0.6299227776	 2.3572155984	 0.6162176167	 0.143008
H	-0.9575095578	 2.1723825986	-0.1295362787	 0.108716
H	-0.7952531135	 2.0414408864	 1.6257196215	 0.104474
H	-1.0725203348	-0.1945943675	 0.5121371382	 0.072349
H	 0.1969518877	-0.92336243	-1.2993524262	 0.092714
H	 1.3254298572	 0.4511280395	-1.2354634267	 0.12188
H	 1.9083113633	-2.1043636543	 0.2527157692	 0.081198
H	 2.8134051515	-0.8017789923	 2.1452796053	 0.091386
H	 2.948108772	 1.7708225253	 2.0774686875	 0.091729
H	 4.942526797	 1.9357454359	 0.5641665594	 0.112808
H	 4.4574705394	 0.3621354324	-0.2631830833	 0.11694
H	 0.4061136864	-0.9545697152	 2.4274718242	 0.076585
63.8774	134.4992	180.4701	221.5585	239.2505	281.3325	354.4304	407.4747	526.2719	646.3009	679.0075	725.6707	776.6863	812.4	840.9871	870.3076	897.1155	926.8805	965.8714	976.0312	999.2228	1014.3399	1050.5313	1079.0428	1093.7217	1108.1469	1122.3817	1140.1581	1149.9798	1170.8457	1192.6324	1209.9689	1256.4868	1276.354	1293.5887	1306.4516	1349.1542	1376.392	1414.0464	1418.0448	1459.8146	1486.2498	1496.0498	1507.8255	1523.1866	3027.9746	3039.2426	3075.1039	3079.3238	3084.4839	3085.9495	3097.0522	3133.3567	3142.0801	3156.4453	3171.9606	3174.523
CC1CC2C(C3CO3)C12	C[C@H]1C[C@H]2[C@@H]([C@H]3CO3)[C@@H]12	
InChI=1S/C8H12O/c1-4-2-5-7(4)8(5)6-3-9-6/h4-8H,2-3H2,1H3	InChI=1S/C8H12O/c1-4-2-5-7(4)8(5)6-3-9-6/h4-8H,2-3H2,1H3/t4-,5+,6+,7-,8-/m0/s1
