20
gdb 70613	2.35905	1.84189	1.30699	2.5025	77.88	-0.2278	0.0695	0.2973	1039.1354	0.171719	-403.107867	-403.099742	-403.098798	-403.140119	32.337	
C	-0.4444812598	 1.4144605201	 0.0490813782	-0.510077
C	-0.0245613902	-0.0341097716	 0.0127011022	 0.229126
C	-0.3045725099	-0.9517753759	 1.2025471244	-0.378716
C	 1.1112803157	-0.6017902981	 0.8211857062	 0.084798
O	 1.8561812338	-1.5246825761	 0.0734952268	-0.261096
C	 1.0860419432	-1.8933982195	-1.0722091975	-0.15858
C	 0.0838507879	-0.7621230147	-1.3101293758	 0.26677
C	-1.0128738687	-0.8609326303	-2.2983406993	-0.295588
N	 0.1822948653	-0.0400082116	-2.5873688306	-0.360252
H	 0.2316292103	 2.0517230334	-0.532107132	 0.126625
H	-1.462009623	 1.5520422532	-0.338306708	 0.120452
H	-0.4400079151	 1.7907101711	 1.0761035401	 0.123758
H	-0.7094868211	-0.4816856556	 2.0929941363	 0.110784
H	-0.6664451081	-1.959116344	 1.0266701965	 0.117947
H	 1.737290872	-0.0086974536	 1.4781692831	 0.102093
H	 1.7598856758	-2.0203487423	-1.9227809271	 0.127182
H	 0.5673865985	-2.8452826739	-0.8883292772	 0.097489
H	-1.1173396667	-1.7500235996	-2.9158674513	 0.116805
H	-1.9508709391	-0.3580899378	-2.0742691786	 0.111471
H	-0.0402925007	 0.9447213268	-2.4638032865	 0.22901
103.3575	188.5919	223.4942	232.7444	280.4615	336.2929	386.5312	438.2119	472.7548	537.4084	610.1907	707.2384	796.6007	827.128	848.3251	889.438	910.8607	933.0206	963.3703	977.853	1001.7555	1026.9857	1033.6368	1056.9935	1080.1977	1098.3635	1123.1276	1129.449	1160.3025	1215.5966	1230.1702	1262.9769	1280.0682	1320.403	1353.8905	1398.253	1417.4	1420.6868	1481.7119	1491.9966	1498.8112	1515.6756	1518.3097	2997.3384	3018.5222	3076.7153	3097.2666	3099.7429	3102.3857	3128.6265	3178.9021	3179.5549	3215.7807	3500.4568
CC12CC1OCC21CN1	C[C@]12C[C@H]1OC[C@]12CN1	
InChI=1S/C7H11NO/c1-6-2-5(6)9-4-7(6)3-8-7/h5,8H,2-4H2,1H3	InChI=1S/C7H11NO/c1-6-2-5(6)9-4-7(6)3-8-7/h5,8H,2-4H2,1H3/t5-,6+,7+/m1/s1
