20
gdb 73413	2.54975	2.26445	1.55447	1.9223	79.78	-0.2376	0.0735	0.311	925.0009	0.173829	-365.972756	-365.965838	-365.964894	-366.003577	29.099	
C	 0.0110082208	 1.4590878361	 0.0273083349	-0.491006
C	 0.0014061193	-0.0566629521	-0.0456837401	 0.348556
C	 0.3902071946	-0.6811015946	-1.4000178178	-0.273377
C	-0.2165212507	-2.1189180961	-1.3686883122	-0.238526
C	-0.8898724975	-2.2099175417	 0.0086992064	-0.03714
C	 0.057534047	-2.1296653749	 1.204658641	-0.054716
C	 0.6351379448	-0.7538235086	 1.1651303696	-0.087293
N	-0.6703853591	-0.9951721607	 1.8695965165	-0.181829
C	-1.2788444709	-0.7812936324	 0.4601635663	-0.053736
H	 1.0157291043	 1.8573306976	-0.1563172143	 0.113896
H	-0.6590391953	 1.8927504911	-0.7235642331	 0.112131
H	-0.3107999465	 1.8065167034	 1.0142981224	 0.130583
H	-0.0273119988	-0.0956943992	-2.2270059531	 0.094814
H	 1.4768606586	-0.6869497096	-1.5346127535	 0.09849
H	-0.9500833571	-2.2523929851	-2.1706407389	 0.09838
H	 0.5407208416	-2.8984017358	-1.4981010975	 0.100934
H	-1.6638584173	-2.9710689706	 0.1142300397	 0.073158
H	 0.4948730097	-2.937794402	 1.7804177221	 0.089923
H	 1.5288343552	-0.4684655955	 1.7104855929	 0.085369
H	-2.2786503925	-0.3623167591	 0.3550135186	 0.07139
161.7146	237.6508	263.7926	291.5734	360.6502	469.7041	574.6053	656.2789	691.6157	768.8047	772.0558	814.4583	827.0073	840.8839	885.8791	898.0012	925.8055	936.4738	957.4718	969.3959	1025.3374	1034.7004	1041.5664	1048.4815	1121.2538	1130.9622	1144.0182	1181.8178	1205.1101	1217.3812	1231.7119	1252.4776	1269.1638	1274.4781	1316.8994	1346.9449	1356.3788	1381.7691	1412.2619	1482.4392	1492.962	1497.5349	1503.6262	3023.5306	3034.189	3047.8793	3069.0071	3085.4983	3091.0459	3101.4157	3106.7522	3126.7202	3163.8252	3179.0075
CC12CCC3C4C1N4C23	C[C@@]12CC[C@H]3[C@H]4[C@@H]1N4[C@@H]23	
InChI=1S/C8H11N/c1-8-3-2-4-5-7(8)9(5)6(4)8/h4-7H,2-3H2,1H3	InChI=1S/C8H11N/c1-8-3-2-4-5-7(8)9(5)6(4)8/h4-7H,2-3H2,1H3/t4-,5-,6+,7-,8-,9?/m0/s1
