19
gdb 83564	2.80548	1.44067	1.19285	2.198	75.94	-0.2444	-0.0317	0.2127	1094.5296	0.159381	-423.010466	-423.002308	-423.001364	-423.043493	30.912	
C	 0.0307596683	 1.4760854268	 0.896858302	-0.442396
C	 0.0917726678	 0.0216065107	 0.4621589003	 0.022716
C	 0.732084386	-0.4014091952	-0.9059602448	-0.107291
C	 2.1463750204	 0.1683128714	-0.757651632	-0.094789
O	 2.4320831116	-0.20860107	 0.6106529306	-0.278561
C	 1.2262261972	-0.8972625437	 0.9841900978	 0.08489
C	 0.9812954969	-1.8211392339	-0.2420057252	-0.089221
C	-0.1803623987	-2.7711696557	-0.2514277723	 0.118757
O	-1.1088170097	-2.7793261808	 0.5211094001	-0.252135
H	 1.0252607753	 1.9227684999	 0.9689465231	 0.13379
H	-0.5680633723	 2.072455352	 0.1996278018	 0.115779
H	-0.4388209006	 1.5560508567	 1.8827101878	 0.122687
H	-0.8713984811	-0.4712961902	 0.5895293641	 0.114865
H	 0.2273410074	-0.2831759964	-1.8645263522	 0.079505
H	 2.8777427347	-0.2878362788	-1.4342162046	 0.104599
H	 2.1896147638	 1.2571315344	-0.87022017	 0.107866
H	 1.3042726604	-1.262704948	 2.0062722681	 0.089503
H	 1.8691172459	-2.3418754942	-0.6157972666	 0.08748
H	-0.1275114232	-3.525026325	-1.070395478	 0.081957
58.8458	162.9437	175.7145	217.3481	267.0474	291.8951	367.5101	407.3863	565.3714	688.3406	709.4384	745.6684	768.953	859.8287	913.6969	924.7333	940.7944	961.9122	987.2198	1015.5114	1043.7503	1051.6387	1077.0951	1086.1056	1122.3307	1155.4598	1180.0035	1201.7124	1219.2712	1243.2863	1271.7845	1278.0104	1352.6012	1372.9782	1403.0331	1417.6976	1434.508	1489.8633	1503.3192	1530.5173	1810.9134	2864.8292	3031.2468	3037.6964	3059.5322	3071.5333	3096.3871	3116.8252	3123.6955	3134.9615	3147.418
CC1C2COC1C2C=O	C[C@H]1[C@H]2CO[C@@H]1[C@H]2C=O	
InChI=1S/C7H10O2/c1-4-6-3-9-7(4)5(6)2-8/h2,4-7H,3H2,1H3	InChI=1S/C7H10O2/c1-4-6-3-9-7(4)5(6)2-8/h2,4-7H,3H2,1H3/t4-,5-,6+,7-/m0/s1
