16
gdb 45747	2.84896	1.54147	1.18704	2.8159	71.	-0.2366	-0.0101	0.2265	1040.1095	0.12572	-434.059041	-434.051264	-434.05032	-434.091905	28.764	
N	-0.0465985737	 1.2599543305	 0.1686748181	-0.545867
C	-0.001816489	-0.0041218836	 0.0797773969	 0.399705
N	 1.0760386985	-0.8894669041	 0.1092947901	-0.345389
C	 0.5943535386	-2.1823597023	-0.0380227619	 0.068765
N	-0.6671450734	-2.2992166264	-0.1804100629	-0.243227
C	-1.2102235857	-0.9355402105	-0.0850212928	-0.102728
C	-2.1757566654	-0.7743530354	 1.0789154633	 0.08814
C	-2.8966855721	-1.9105830772	 1.6580433002	-0.177068
O	-1.7670788298	-1.3302746822	 2.3237989939	-0.238171
H	 0.8780719448	 1.6748005585	 0.2922109356	 0.21032
H	 2.0344565315	-0.6342686258	 0.278356446	 0.260846
H	 1.2916020227	-3.0141331425	-0.0443382789	 0.139059
H	-1.7479148586	-0.6847496697	-1.0075425864	 0.123092
H	-2.5999933571	 0.2272569224	 1.1447231548	 0.114093
H	-3.8572047698	-1.7438910202	 2.143101608	 0.112598
H	-2.7271380916	-2.9024824416	 1.2482250961	 0.135833
75.9106	90.3196	171.4846	217.0435	342.1031	358.0871	442.6435	498.1084	616.5569	638.7795	715.1088	807.1225	853.8861	873.4737	903.4881	904.7028	941.3546	968.6158	993.9908	1083.0006	1087.5137	1099.0549	1107.2146	1166.1049	1170.1622	1245.6448	1272.2115	1298.7537	1312.1011	1353.6071	1411.8568	1423.4223	1516.6503	1685.5731	1766.2249	3042.2692	3095.2962	3121.8238	3193.8292	3196.206	3461.0857	3662.2599
N=C1NC=NC1C1CO1	[NH][C]1NC=N[C@H]1[C@H]1CO1	
InChI=1S/C5H7N3O/c6-5-4(3-1-9-3)7-2-8-5/h2-4H,1H2,(H2,6,7,8)	InChI=1S/C5H7N3O/c6-5-4(3-1-9-3)7-2-8-5/h2-4H,1H2,(H2,6,7,8)/t3-,4+/m1/s1
