19
gdb 76196	2.2153	1.47168	1.22246	2.5728	72.28	-0.2213	0.0579	0.2792	1127.8117	0.156142	-460.110313	-460.10066	-460.099716	-460.144449	35.677	
C	-0.1138354079	 1.5244025075	 0.0811444838	-0.458235
C	 0.0102119566	 0.019434013	 0.04708685	 0.235655
O	-1.1365704912	-0.6772513497	-0.3520077231	-0.448238
C	 1.3557913999	-0.6372897602	-0.3000356694	-0.089911
O	 2.5171495208	 0.1197892798	-0.4902026981	-0.415053
C	 0.820373667	-0.694560335	 1.0963349584	 0.4244
C	 1.4577807706	-0.1491242479	 2.3673076248	-0.355711
C	 0.9963605098	-1.494350382	 2.9706680314	-0.07544
O	 0.4095909037	-1.9087014033	 1.7122261913	-0.303681
H	 0.8308218015	 1.991007489	 0.3709413646	 0.132203
H	-0.3856005302	 1.9107799068	-0.9100108051	 0.102923
H	-0.8938959297	 1.8336812022	 0.7839993328	 0.128396
H	-1.2793310287	-0.5044761066	-1.2898081715	 0.278213
H	 1.2763651493	-1.5657462249	-0.8681155962	 0.097822
H	 2.4795669978	 0.5194884399	-1.3657889792	 0.289156
H	 2.5359655299	 0.0033337572	 2.3072112519	 0.128937
H	 0.9849752553	 0.7398972205	 2.7883460504	 0.112913
H	 1.7968889702	-2.1730016034	 3.2852851672	 0.108037
H	 0.2430587353	-1.4295789529	 3.7634312961	 0.107612
81.5133	148.7462	153.0864	188.903	217.4596	235.4309	264.1314	296.5333	312.7959	397.9315	423.6478	522.6364	577.7054	598.5037	720.057	796.9503	860.6054	891.7474	956.6623	970.0548	984.8866	1016.0232	1067.1025	1091.3274	1131.7693	1158.3549	1168.6812	1180.3516	1211.4299	1238.903	1258.6522	1271.5644	1309.0613	1351.6675	1358.0012	1405.1603	1469.9877	1487.9603	1492.0553	1511.0967	1533.5075	3019.5099	3029.0014	3072.835	3081.1648	3084.7796	3095.0807	3125.3946	3137.456	3782.7206	3797.7861
CC1(O)C(O)C11CCO1	C[C@@]1(O)[C@@H](O)[C@]21CCO2	
InChI=1S/C6H10O3/c1-5(8)4(7)6(5)2-3-9-6/h4,7-8H,2-3H2,1H3	InChI=1S/C6H10O3/c1-5(8)4(7)6(5)2-3-9-6/h4,7-8H,2-3H2,1H3/t4-,5-,6+/m1/s1
