19
gdb 91777	2.38265	1.70564	1.24547	1.8957	75.33	-0.2328	-0.021	0.2118	1064.5003	0.159347	-423.048923	-423.040314	-423.03937	-423.081909	33.004	
C	-0.3037289981	 1.496148302	 0.0958935774	-0.48501
C	 0.1188009435	 0.0538749105	-0.0208853369	 0.219833
C	-0.6926785611	-1.0551517428	 0.6612005786	-0.319365
C	 0.713947482	-0.8014690047	 1.092899119	-0.08887
C	 1.7784122117	-1.7296775795	 0.5058713786	-0.239364
C	 1.5840124772	-1.6888698877	-1.016737551	 0.003189
O	 0.8374604209	-2.8281306486	-1.44396188	-0.427532
C	 0.7645438487	-0.4018899584	-1.285961658	 0.34155
O	 0.6906644574	 0.1353514721	-2.3668757539	-0.345723
H	 0.5507536401	 2.1715897369	-0.0162083802	 0.125073
H	-1.025206369	 1.7472172172	-0.6876550322	 0.138223
H	-0.7684814246	 1.6925369528	 1.0665238904	 0.11376
H	-1.4942020317	-0.6962144866	 1.2983610493	 0.117778
H	-0.9137876267	-1.9612831268	 0.1092159333	 0.141559
H	 0.8921299955	-0.3595794196	 2.0671287878	 0.091569
H	 2.7766564939	-1.3585493771	 0.7588121053	 0.108485
H	 1.6988158743	-2.7557792518	 0.8767550829	 0.120691
H	 2.5369386279	-1.6299143459	-1.5583975541	 0.089813
H	 0.6317461384	-2.6974457119	-2.3773948565	 0.294341
83.2293	152.5961	179.8436	217.499	261.0767	303.0562	381.466	396.4629	410.5089	467.6261	574.4434	631.7649	666.6633	799.5269	821.0782	832.5675	869.4205	886.4808	970.1018	992.4789	1009.5792	1044.5723	1078.9779	1093.4995	1112.4683	1117.1127	1131.1336	1215.8443	1229.8881	1274.097	1309.2174	1337.0105	1343.5685	1389.1878	1414.3201	1422.243	1479.8928	1484.0651	1495.7685	1499.1476	1818.2908	3018.0753	3036.6398	3053.7318	3097.0546	3101.9375	3112.1236	3134.9663	3170.9707	3228.4916	3793.6738
CC12CC1CC(O)C2=O	C[C@]12C[C@H]1C[C@@H](O)C2=O	
InChI=1S/C7H10O2/c1-7-3-4(7)2-5(8)6(7)9/h4-5,8H,2-3H2,1H3	InChI=1S/C7H10O2/c1-7-3-4(7)2-5(8)6(7)9/h4-5,8H,2-3H2,1H3/t4-,5-,7+/m1/s1
