19
gdb 46377	3.60886	0.98126	0.84947	2.7029	77.4	-0.2229	0.0239	0.2468	1385.6618	0.159872	-419.168844	-419.16021	-419.159266	-419.20318	31.982	
N	-0.3626627755	 0.8395243016	-0.917212734	-0.543955
C	-0.190605689	-0.2111664104	-0.2562451313	 0.469881
O	 0.954781464	-0.763964316	 0.2743503185	-0.25236
C	 0.1982175715	-1.8615362397	 0.8748574502	-0.108889
C	-1.106526007	-1.3137562515	 0.259991381	-0.108791
N	-2.1043319046	-0.8701460893	 1.2179286979	-0.317668
C	-3.2138397072	-0.1759514975	 0.6054991625	 0.073194
C	-4.339114026	-0.9101081941	-0.0963344922	-0.276544
C	-4.5646917891	-0.2382528749	 1.2443922666	-0.295205
H	 0.5149710443	 1.345737958	-1.0495262165	 0.228716
H	 0.5513594661	-2.8273732973	 0.5070648679	 0.119207
H	 0.2400976736	-1.812760392	 1.9653526571	 0.124685
H	-1.5077841848	-1.9343011348	-0.5570260255	 0.091624
H	-2.445474717	-1.6712366744	 1.7415617672	 0.216612
H	-2.9057534612	 0.7687536991	 0.1706493012	 0.13214
H	-4.7818674771	-0.4677464974	-0.9820499826	 0.11737
H	-4.3073177031	-1.9954831786	-0.106650541	 0.102028
H	-4.6846491051	-0.8799374212	 2.1125581073	 0.108162
H	-5.1608164929	 0.6663385004	 1.2846218957	 0.119793
61.1862	72.0039	104.1222	161.0001	243.8033	332.773	398.5901	436.0622	472.9684	663.4825	731.7616	758.8226	774.7641	812.8621	828.4629	865.6508	878.0121	934.3006	968.0884	972.9987	987.3657	1020.4961	1044.2562	1073.8004	1087.2175	1138.0577	1154.6328	1175.5368	1193.6143	1194.8475	1235.9299	1250.1264	1265.462	1336.5654	1370.2349	1387.0372	1461.8832	1486.669	1504.0764	1513.2794	1825.7857	2973.8129	3066.0592	3123.1262	3128.8682	3130.2524	3176.4147	3204.1689	3219.8572	3471.5682	3502.9534
N=C1OCC1NC1CC1	[NH][C]1OC[C@H]1NC1CC1	
InChI=1S/C6H10N2O/c7-6-5(3-9-6)8-4-1-2-4/h4-5,7-8H,1-3H2	InChI=1S/C6H10N2O/c7-6-5(3-9-6)8-4-1-2-4/h4-5,7-8H,1-3H2/t5-/m1/s1
