16
gdb 43460	2.90644	1.46252	1.06115	2.8578	70.96	-0.2469	-0.0364	0.2104	1097.2735	0.124074	-437.937886	-437.929962	-437.929018	-437.970729	30.062	
O	 0.0129140024	-0.0350899488	 0.003239321	-0.368765
C	-0.0316230045	 1.1735849822	 0.0098300692	 0.392902
C	-1.2792844664	 2.0598259893	 0.0322360269	-0.466615
C	-0.7527945179	 3.4894513976	 0.0320093329	 0.36728
O	-1.3910574985	 4.5111754465	 0.0459010305	-0.322451
C	 0.7497304701	 3.4141093591	 0.0100561122	 0.264003
C	 1.5380884506	 4.4580452081	-0.7484040711	-0.301853
C	 1.5596174172	 4.4505702357	 0.7559706958	-0.301862
N	 1.0544528058	 2.0136309404	-0.0012542243	-0.396924
H	-1.9123094544	 1.8678225211	-0.8392630448	 0.16723
H	-1.8871273114	 1.8589159674	 0.9195147478	 0.167227
H	 2.4223185849	 4.118267847	-1.2769301078	 0.125454
H	 0.9613054318	 5.2291389481	-1.2473479644	 0.146315
H	 0.9974611723	 5.2165908428	 1.2788499125	 0.146312
H	 2.4585554426	 4.1056712393	 1.2555752697	 0.125452
H	 1.9893303655	 1.6370626042	-0.0166571661	 0.256295
73.5913	89.2906	224.7793	236.0077	366.3474	402.5231	420.5484	497.5824	542.001	573.7371	602.1351	621.3382	737.6206	779.3557	845.0711	864.3294	927.3432	945.3452	974.2508	994.5664	1065.4399	1083.119	1094.8317	1142.1749	1200.6629	1231.2745	1270.3276	1302.412	1334.4439	1414.3629	1440.0779	1448.8546	1484.7966	1825.9168	1857.672	3071.5866	3112.6398	3133.7089	3134.507	3221.803	3235.8478	3637.7571
O=C1CC(=O)C2(CC2)N1	O=C1CC(=O)C2(CC2)N1	
InChI=1S/C6H7NO2/c8-4-3-5(9)7-6(4)1-2-6/h1-3H2,(H,7,9)	InChI=1S/C6H7NO2/c8-4-3-5(9)7-6(4)1-2-6/h1-3H2,(H,7,9)
