19
gdb 108568	3.28642	1.44087	1.25772	2.5445	74.15	-0.2325	0.0847	0.3172	1053.2408	0.160838	-422.990609	-422.983048	-422.982104	-423.022671	30.106	
O	-0.0506783222	 1.3761162768	-0.3347044402	-0.418719
C	-0.0601130351	 0.0286282083	 0.1044743075	-0.154758
C	-1.4357051639	-0.5704226661	 0.0398143768	 0.451056
O	-2.3518533968	 0.1398468699	 0.8651288377	-0.32789
C	-3.3228862582	-0.8076990336	 1.3309187505	-0.086958
C	-3.2442273427	-1.9459137358	 0.3170766832	-0.07747
C	-3.475718514	-1.385011465	-1.1249870122	-0.238864
C	-1.9668890894	-1.1764602232	-1.2456762361	-0.122557
C	-1.719959252	-2.0298952204	 0.0089590885	-0.173928
H	-0.7356785732	 1.828654507	 0.1705497233	 0.293223
H	 0.620560255	-0.5240554816	-0.5509797963	 0.107485
H	 0.3195795178	-0.0555546642	 1.1350100461	 0.090898
H	-3.0698990811	-1.1457904631	 2.3475281585	 0.092155
H	-4.300180824	-0.3141294868	 1.3548212136	 0.107688
H	-3.7805347945	-2.8518420632	 0.5959272288	 0.077575
H	-3.8287425254	-2.1633635562	-1.8056791365	 0.104257
H	-4.1199628608	-0.5037372043	-1.2155062079	 0.099284
H	-1.3919094493	-1.1386337721	-2.1642877236	 0.088846
H	-1.030026	-2.8380712264	 0.2154802083	 0.088679
84.7355	145.5304	224.5916	312.6166	368.4407	382.1902	408.9791	499.9807	636.2403	673.2355	716.7927	810.197	837.4166	848.3188	869.9332	876.4704	944.3641	974.142	996.5225	1008.2428	1033.4614	1042.595	1055.9226	1070.9139	1102.1576	1118.5938	1152.7563	1174.9637	1208.4388	1230.4196	1254.9049	1269.9763	1275.0465	1313.8595	1376.9297	1379.9533	1404.7861	1454.5083	1492.9661	1495.3356	1513.9166	2980.3751	2986.8021	3042.2126	3071.9851	3078.9144	3102.5823	3126.642	3171.8418	3193.1135	3804.0503
OCC12OCC3CC1C23	OC[C@@]12OC[C@H]3C[C@@H]1[C@@H]23	
InChI=1S/C7H10O2/c8-3-7-5-1-4(2-9-7)6(5)7/h4-6,8H,1-3H2	InChI=1S/C7H10O2/c8-3-7-5-1-4(2-9-7)6(5)7/h4-6,8H,1-3H2/t4-,5-,6+,7-/m1/s1
