19
gdb 79917	2.00696	1.84333	1.25021	2.6803	81.9	-0.2331	0.008	0.2411	1092.9531	0.158731	-385.891174	-385.882786	-385.881842	-385.923827	32.463	
C	-0.2181431913	 1.6191680355	-0.0952787459	-0.432186
C	-0.0071569158	 0.1160666109	-0.005802282	 0.041741
C	 1.185279705	-0.5654319611	-0.7692416554	-0.195911
C	 2.3972164282	 0.0407846603	-0.0818869332	-0.192889
C	 2.0739720227	 0.0700726402	 1.2273140189	 0.331762
C	 2.8855038086	 0.4327947918	 2.4230548618	-0.518267
C	 0.6672685889	-0.5178368602	 1.2636323849	-0.248351
C	 0.973480466	-1.7229479793	 0.2840942275	 0.423332
O	 1.0005051177	-2.9078053086	 0.323000354	-0.30984
H	 0.7029556525	 2.1679721276	 0.1132693874	 0.124811
H	-0.563079468	 1.8983403326	-1.0962620175	 0.11944
H	-0.9823435916	 1.9432434049	 0.6188737058	 0.118072
H	-0.942559324	-0.4120644573	-0.2299966544	 0.085019
H	 1.1907923063	-0.7234116862	-1.8454787508	 0.078773
H	 3.3460407935	 0.2669181147	-0.5482948661	 0.103527
H	 3.884846319	 0.7708228455	 2.1342859265	 0.128343
H	 2.4100722114	 1.2297533037	 3.0080794191	 0.1291
H	 3.000683632	-0.4247202701	 3.098142883	 0.137219
H	 0.155002819	-0.632451095	 2.2172735763	 0.076302
114.5906	161.5542	177.2192	224.1275	243.7022	304.431	321.1958	430.4739	522.146	593.8715	598.7881	640.532	723.1351	762.7459	796.3489	825.4198	860.6552	940.3449	951.3276	995.508	1003.5622	1038.8904	1060.4335	1070.1694	1099.2729	1113.5927	1146.1477	1168.6282	1227.2883	1239.6558	1259.6719	1322.8289	1388.5858	1405.2642	1414.0359	1476.907	1486.8312	1493.5931	1499.3318	1653.9321	1913.2396	3018.0556	3031.8304	3040.7806	3065.2783	3098.5019	3108.1989	3127.	3139.9917	3148.5023	3226.7958
CC1C2C=C(C)C1C2=O	C[C@H]1[C@H]2C=C(C)[C@@H]1C2=O	
InChI=1S/C8H10O/c1-4-3-6-5(2)7(4)8(6)9/h3,5-7H,1-2H3	InChI=1S/C8H10O/c1-4-3-6-5(2)7(4)8(6)9/h3,5-7H,1-2H3/t5-,6+,7-/m0/s1
