21
gdb 120521	5.71634	0.673	0.64662	1.3886	87.08	-0.2531	0.0499	0.303	1772.1878	0.180617	-387.034783	-387.024834	-387.02389	-387.070326	36.12	
C	-0.4801800298	 1.4799877449	 0.6851468387	-0.227079
O	-0.1830645233	 0.1910999355	 0.206206864	-0.231022
C	-1.3342807407	-0.5771770557	-0.0658175372	-0.058933
C	-0.8977703393	-1.9445529297	-0.5626959399	-0.015868
C	-0.2355032987	-2.8305302622	 0.5278956405	-0.228216
C	-1.5928692258	-3.5901474599	 0.7069218895	-0.146868
C	-2.0631598918	-2.9693047951	-0.6515153829	-0.252984
C	-1.5712926357	-5.0316778312	 0.8369715989	 0.298982
C	-1.5401647372	-6.2313422215	 0.9233575016	-0.44944
H	 0.469106586	 1.989609246	 0.867608431	 0.127391
H	-1.0623079461	 2.064429233	-0.0452852724	 0.103128
H	-1.0517009958	 1.4457746082	 1.6267278497	 0.102473
H	-1.953800003	-0.6723242113	 0.8449125589	 0.080659
H	-1.961428731	-0.0801080071	-0.82702299	 0.084192
H	-0.3112283492	-1.8136166386	-1.4752208945	 0.079262
H	 0.5349612943	-3.4873246022	 0.1197072932	 0.111509
H	 0.1627951708	-2.3160629785	 1.4043529805	 0.112744
H	-2.1624102816	-3.1569404276	 1.5356774518	 0.101605
H	-3.0821535468	-2.5733492498	-0.6794785948	 0.101784
H	-1.9360522998	-3.6729319616	-1.4761994763	 0.114908
H	-1.5159306456	-7.2893803458	 1.00633853	 0.191772
49.6639	87.0803	99.9094	137.9878	193.7816	210.3838	240.7558	321.3338	379.1312	465.9585	511.7929	518.2733	609.8679	623.5316	635.7349	819.7906	838.844	889.0901	928.6334	945.602	966.9609	1011.0153	1035.7284	1088.2799	1108.2084	1133.9564	1159.8336	1181.1156	1210.7818	1221.7167	1236.6063	1248.0593	1259.0169	1273.5984	1289.0924	1348.0841	1364.9312	1425.2861	1476.2286	1481.4007	1485.6792	1495.7336	1503.1501	1525.4521	2231.6067	2933.7859	2961.4478	2968.2546	3009.8963	3047.357	3061.5256	3073.0067	3081.1522	3113.1935	3123.8723	3133.6359	3505.8529
COCC1CC(C1)C#C	COC[C@H]1C[C@@H](C1)C#C	
InChI=1S/C8H12O/c1-3-7-4-8(5-7)6-9-2/h1,7-8H,4-6H2,2H3	InChI=1S/C8H12O/c1-3-7-4-8(5-7)6-9-2/h1,7-8H,4-6H2,2H3/t7-,8-
