17
gdb 24220	3.87246	1.61024	1.24096	3.0679	78.46	-0.1857	0.042	0.2277	987.5325	0.140073	-380.872935	-380.866345	-380.865401	-380.9036	27.305	
C	 0.0353818725	 1.4672517609	 0.0093654184	-0.245733
C	 1.2780165024	 0.6556875961	 0.0476112335	-0.01027
C	 1.9621688542	 0.3530875483	 1.4013319147	-0.388569
C	 0.8466603727	-0.3878033433	 2.0718524045	 0.279085
C	-0.2340052635	-0.5673371837	 1.2520247112	 0.298563
C	-1.2350162154	-1.2737085134	 1.9645725842	-0.318195
C	-0.7074048131	-1.499194254	 3.2226409807	-0.073126
N	 0.559416379	-0.9523528441	 3.2852581323	-0.371574
N	-0.060679375	-0.0107036913	-0.0556619141	-0.18913
H	-0.2983084155	 1.9423567778	 0.9284901796	 0.115243
H	-0.2335412622	 1.9867202507	-0.9065039203	 0.112662
H	 1.8922337367	 0.6022544362	-0.8452997868	 0.094207
H	 2.8631144545	-0.255579861	 1.2459441315	 0.112063
H	 2.2802702343	 1.2665075718	 1.9202803271	 0.113106
H	-2.2110834274	-1.5797892774	 1.6228973952	 0.097554
H	-1.1260416205	-2.0097856198	 4.0751256262	 0.115291
H	 1.1722442163	-1.0156289236	 4.078786822	 0.258823
156.9461	215.3785	335.8039	419.1561	429.8217	455.0945	606.6949	630.6254	683.3895	692.9108	725.4627	754.5382	782.3606	818.4623	825.7561	918.3474	931.8855	963.6776	1052.573	1061.0199	1080.1127	1090.2963	1112.5056	1140.6927	1167.0951	1171.7892	1228.0907	1264.5664	1292.0538	1353.7554	1373.5889	1445.7013	1478.4498	1484.6041	1500.5708	1525.7883	1612.7636	3006.7446	3033.2558	3102.9568	3160.9741	3194.2468	3251.4288	3269.9144	3682.9128
C1C2CC3=C(C=CN3)N12	C1[C@H]2Cc3c(cc[nH]3)N12	
InChI=1S/C7H8N2/c1-2-8-6-3-5-4-9(5)7(1)6/h1-2,5,8H,3-4H2	InChI=1S/C7H8N2/c1-2-8-6-3-5-4-9(5)7(1)6/h1-2,5,8H,3-4H2/t5-,9?/m1/s1
