17
gdb 55318	1.97811	1.61578	1.15455	5.3889	72.59	-0.2528	-0.0285	0.2243	1112.3969	0.135235	-418.007692	-417.998605	-417.997661	-418.042449	32.03	
C	 0.7248497633	 0.365756369	-0.5078979904	-0.488635
C	-0.3757039627	 0.3233191905	 0.5344441003	 0.39209
O	-0.4399806397	 1.1269820622	 1.4348212621	-0.300674
C	-1.447667749	-0.7609163478	 0.4260534507	-0.120889
C	-1.8752105115	-1.2184723398	-0.9986705134	-0.192959
N	-0.9949738187	-2.401674505	-0.8716989673	-0.296676
C	-0.9411169996	-2.24228952	 0.5936389955	-0.137771
C	 0.3642765438	-2.4965344535	 1.2068085009	 0.306036
N	 1.3905488061	-2.7031689065	 1.6962354475	-0.320947
H	 0.9982283074	-0.6286557177	-0.8669349124	 0.159887
H	 0.3673411585	 0.9393244579	-1.3723623159	 0.143977
H	 1.591306631	 0.8820544799	-0.0934703629	 0.152474
H	-2.2495769843	-0.4917515596	 1.1110010555	 0.111662
H	-2.9483405167	-1.4449812121	-1.041148782	 0.110993
H	-1.6202467175	-0.5622805284	-1.8355752713	 0.12128
H	-1.3611516813	-3.286895892	-1.2036109923	 0.235071
H	-1.6905332791	-2.8253081969	 1.1469731953	 0.125081
48.9421	89.4876	114.4016	125.9997	211.3353	246.5531	286.5108	416.8018	485.139	512.5997	561.6551	604.5739	666.2665	743.7323	813.9747	918.6382	944.0667	981.3862	1001.2771	1032.0918	1049.7243	1072.0774	1104.3552	1141.6249	1179.5064	1244.6601	1257.0142	1309.7782	1335.1107	1361.0941	1389.1358	1395.7388	1466.0886	1471.6216	1521.7106	1808.9004	2356.8485	3004.3343	3018.3713	3037.8923	3082.6797	3112.6616	3135.2553	3162.4528	3537.3919
CC(=O)C1CNC1C#N	CC(=O)[C@H]1CN[C@H]1C#N	
InChI=1S/C6H8N2O/c1-4(9)5-3-8-6(5)2-7/h5-6,8H,3H2,1H3	InChI=1S/C6H8N2O/c1-4(9)5-3-8-6(5)2-7/h5-6,8H,3H2,1H3/t5-,6+/m1/s1
