17
gdb 108192	3.30492	1.56196	1.3748	3.1864	67.34	-0.2536	-0.0076	0.246	968.5155	0.136817	-458.945905	-458.93864	-458.937696	-458.977441	29.109	
O	-0.0322710152	 1.4189582352	 0.0514189727	-0.415703
C	 0.0064272823	 0.0215952212	-0.1008801688	-0.150827
C	-1.3749641449	-0.5901754473	-0.1002693015	 0.417717
O	-2.1061066573	-0.0849481517	 1.0707750189	-0.326192
C	-3.4821698459	-0.2144055081	 0.7039705131	-0.088337
C	-3.3692521231	-0.8842492503	-0.706279095	-0.037979
O	-2.2009440328	-0.1894366799	-1.1696849384	-0.255611
C	-2.8323628031	-2.28749975	-0.45916188	-0.10128
C	-1.5676975544	-2.1050838712	-0.0772855454	-0.106359
H	-0.7095691345	 1.5900428089	 0.7179768807	 0.292422
H	 0.4928414985	-0.2025165616	-1.0552391198	 0.125729
H	 0.5880860669	-0.4668691993	 0.6984431243	 0.094642
H	-4.0200666643	-0.8253182111	 1.4353312311	 0.108064
H	-3.9426632169	 0.77590042	 0.6298008342	 0.114453
H	-4.212731074	-0.7486319453	-1.3794552941	 0.096706
H	-3.4192892838	-3.1953776924	-0.4630499558	 0.115464
H	-0.8543112873	-2.8219254173	 0.3040760039	 0.11709
106.6254	174.4633	292.1886	304.5612	374.6278	424.7206	447.1148	513.2919	633.9994	677.9153	716.493	742.3111	776.6371	854.7852	864.3903	871.1265	906.9451	930.3183	982.1431	1006.0564	1044.3352	1050.7202	1077.346	1103.3455	1125.134	1192.6777	1235.4546	1248.5592	1292.4773	1312.5211	1341.4407	1348.5554	1381.586	1460.5283	1494.5367	1510.7808	1636.5617	2972.7168	3041.9954	3085.9744	3094.006	3152.9929	3222.9175	3247.9413	3779.8486
OCC12OCC(O1)C=C2	OC[C@@]12OC[C@@H](O1)C=C2	
InChI=1S/C6H8O3/c7-4-6-2-1-5(9-6)3-8-6/h1-2,5,7H,3-4H2	InChI=1S/C6H8O3/c7-4-6-2-1-5(9-6)3-8-6/h1-2,5,7H,3-4H2/t5-,6-/m0/s1
