17
gdb 20111	5.70335	1.19407	1.15232	2.6856	71.25	-0.2542	-0.0257	0.2284	1082.8825	0.143027	-363.844631	-363.836946	-363.836002	-363.877322	28.091	
O	-0.0270287304	 0.1602393796	-0.4776767569	-0.36916
C	 0.0456337432	 1.3461274733	-0.1994562516	 0.395385
C	 1.3337501223	 2.0038884078	 0.1387001181	-0.113114
C	 2.3517842407	 1.1804307167	 0.9222509365	-0.247097
C	 2.5934406986	 1.4565763337	-0.5189767653	-0.248042
C	-1.1863457419	 2.1972109941	-0.1910650271	-0.114354
C	-2.0603866228	 2.1038987241	-1.4073691933	-0.21806
N	-2.4806503105	 1.5033749707	-0.1507866784	-0.303887
H	 1.2938580251	 3.068178153	 0.3400698078	 0.091462
H	 2.9381467649	 1.7061221835	 1.6667921774	 0.121675
H	 2.0308573524	 0.1817718943	 1.1946514792	 0.141248
H	 2.4361643772	 0.6426100117	-1.216899548	 0.14074
H	 3.3535381391	 2.1772677913	-0.7972133873	 0.120613
H	-1.137139326	 3.1360582122	 0.3523502656	 0.097996
H	-2.6168728871	 2.9833075649	-1.7186143328	 0.125306
H	-1.716302237	 1.4537954859	-2.2070181393	 0.131018
H	-2.2683160076	 0.5047837132	-0.1858634946	 0.248272
57.1721	86.4849	191.4805	246.1413	295.8031	311.3625	366.6492	658.568	754.7888	778.2036	813.5983	827.9399	852.2989	866.1905	894.0168	928.6853	982.4518	1013.3816	1059.6085	1094.1179	1099.3261	1112.5996	1122.8173	1127.3599	1141.3096	1183.356	1211.2423	1222.5466	1289.2514	1325.4809	1376.8805	1425.2075	1454.941	1486.4851	1497.0217	1756.2486	3111.5415	3143.2725	3144.9345	3155.4753	3177.7424	3205.1242	3231.3617	3245.8983	3455.3081
O=C(C1CC1)C1CN1	O=C(C1CC1)[C@H]1CN1	
InChI=1S/C6H9NO/c8-6(4-1-2-4)5-3-7-5/h4-5,7H,1-3H2	InChI=1S/C6H9NO/c8-6(4-1-2-4)5-3-7-5/h4-5,7H,1-3H2/t5-/m1/s1
