21
gdb 57347	1.99516	1.48858	1.05357	2.1097	82.1	-0.2531	-0.02	0.2331	1237.203	0.181281	-420.439285	-420.429286	-420.428342	-420.473508	37.772	
C	 0.0173362053	 1.5474129212	-0.3640899709	-0.398077
C	 0.0381631151	 0.024694427	-0.126801352	 0.249218
C	 0.8515561767	-0.3290682388	 1.1336301859	-0.398088
C	-1.4109490113	-0.4440749609	 0.0931279201	-0.430372
N	 0.6594138023	-0.6514813754	-1.3201097004	-0.110216
C	 1.9728790684	-0.3873958068	-1.7207281975	 0.099114
N	 2.7474453922	 0.4299755274	-1.1284509134	-0.470882
C	-0.0208525824	-1.5794812303	-2.1047431464	 0.161787
O	 0.442047912	-2.1446754798	-3.0709425882	-0.328636
H	 1.0257360989	 1.9402490027	-0.4833374271	 0.159355
H	-0.5666802581	 1.7880044007	-1.2582443534	 0.110652
H	-0.4539555082	 2.0403922978	 0.4916463487	 0.11192
H	 0.3896848933	 0.1426726459	 2.0063064839	 0.111932
H	 0.8558018243	-1.411749513	 1.2956524677	 0.110661
H	 1.8792023757	 0.0204686104	 1.0489769159	 0.159337
H	-2.0681961746	-0.200774536	-0.7469651918	 0.126046
H	-1.4835716168	-1.5153091253	 0.3031371221	 0.126038
H	-1.7953828602	 0.0848114348	 0.9692274876	 0.125733
H	 2.2247024742	-0.978406897	-2.6014897232	 0.148416
H	 3.6470171416	 0.4488911005	-1.6058734539	 0.231572
H	-1.0454465484	-1.7637512351	-1.7647847237	 0.10449
70.815	152.446	196.805	216.7356	258.5984	261.0556	283.4424	301.774	317.0476	370.0783	392.6743	405.2279	428.1185	478.0236	552.4183	650.5304	800.8293	839.5477	847.039	926.7423	934.344	966.3534	1025.3042	1048.2068	1058.3028	1094.2272	1115.6277	1213.1101	1228.9047	1247.4942	1320.9275	1331.0345	1395.3055	1400.5349	1420.6559	1432.7675	1462.7621	1473.0435	1496.5602	1497.5246	1503.0648	1514.5832	1531.4998	1710.0547	1788.9755	3037.8183	3041.378	3047.516	3079.8421	3105.0902	3107.4267	3113.0247	3118.6654	3134.6391	3163.8125	3166.5841	3496.1663
CC(C)(C)N(C=N)C=O	CC(C)(C)N(C=N)C=O	
InChI=1S/C6H12N2O/c1-6(2,3)8(4-7)5-9/h4-5,7H,1-3H3	InChI=1S/C6H12N2O/c1-6(2,3)8(4-7)5-9/h4-5,7H,1-3H3
