16
gdb 32036	2.85945	1.38881	0.94044	4.2365	77.58	-0.2004	-0.0227	0.1778	1190.261	0.12576	-437.950021	-437.942142	-437.941198	-437.982685	29.656	
C	 0.036969778	 1.4245903619	 0.0082172218	-0.273996
O	 0.0151534391	 0.0035472998	 0.005022814	-0.247996
C	-1.1632088287	-0.6469485219	 0.0118731156	 0.551755
C	-1.1888354945	-2.0172631482	 0.0083910572	-0.316257
C	-2.4541344818	-2.6480840374	 0.01607552	-0.022693
C	-3.6317382249	-1.9518175837	 0.0265979982	-0.277587
C	-3.6425258276	-0.5125937946	 0.0303092776	 0.419535
O	-4.5968780136	 0.247469364	 0.0397039437	-0.404312
N	-2.329204152	 0.0494666204	 0.0222747031	-0.457442
H	 1.0906206153	 1.7036187876	 0.0010893423	 0.157087
H	-0.4467503279	 1.8392374579	-0.8848278652	 0.141525
H	-0.4334673413	 1.8349951424	 0.9102755314	 0.14152
H	-0.2587693135	-2.565738909	 0.0000940994	 0.110414
H	-2.4827164109	-3.733845017	 0.0134725216	 0.110053
H	-4.5943675514	-2.4454677623	 0.0325003773	 0.110188
H	-2.3373312643	 1.05890518	 0.025104322	 0.258205
77.632	169.8156	197.5249	220.5829	253.3643	428.368	434.2253	496.3929	537.3589	568.199	607.5654	694.727	737.5197	738.939	784.1869	842.5582	934.6524	994.7947	1018.7935	1046.3094	1090.844	1154.0647	1172.5685	1198.7329	1207.7899	1284.5772	1349.9594	1445.037	1472.7247	1498.0709	1499.3592	1507.5122	1595.8523	1653.534	1783.6877	3012.4731	3078.1084	3150.3506	3174.05	3225.0208	3242.4652	3622.0443
COC1=CC=CC(=O)N1	COc1cccc(=O)[nH]1	
InChI=1S/C6H7NO2/c1-9-6-4-2-3-5(8)7-6/h2-4H,1H3,(H,7,8)	InChI=1S/C6H7NO2/c1-9-6-4-2-3-5(8)7-6/h2-4H,1H3,(H,7,8)
