22
gdb 103986	2.53632	1.31264	1.20419	2.9286	82.19	-0.22	0.0727	0.2928	1181.4643	0.192904	-404.306483	-404.29676	-404.295816	-404.340232	37.356	
C	-0.127594869	 1.5452008261	 0.099473522	-0.518836
C	 0.1057743073	 0.0662325462	 0.0200762125	 0.297289
N	-0.7547280485	-0.8821391213	 0.7706594369	-0.378643
C	 0.7188813647	-0.8991674078	 0.97475368	-0.104428
C	 1.2784772977	-1.7593299397	-0.1566817415	-0.263415
C	 0.6611851422	-0.7378641738	-1.1906288908	 0.310495
C	-0.3643168544	-1.287823549	-2.1762215313	-0.462961
C	 1.7664241219	 0.0371877526	-1.8994449686	-0.138077
O	 2.48374991	-0.8679950038	-2.7276844148	-0.425199
H	 0.7263689407	 2.1132617986	-0.2840434889	 0.123999
H	-1.0106587247	 1.8404898504	-0.4799983006	 0.128671
H	-0.2919439271	 1.8567434443	 1.1372934693	 0.115646
H	-1.1584256196	-0.3568958396	 1.5470015856	 0.218433
H	 1.1360450084	-0.7311970542	 1.9612270239	 0.084626
H	 2.3680838142	-1.7915937485	-0.209915723	 0.105856
H	 0.8808592117	-2.7762257667	-0.1962364704	 0.102593
H	-1.1541624173	-1.8193266221	-1.6416712593	 0.132491
H	-0.8251043176	-0.4790914181	-2.7572519281	 0.09711
H	 0.1145964472	-1.9722358055	-2.8818295997	 0.127325
H	 1.324301518	 0.8514714632	-2.4970247637	 0.082496
H	 2.4336728822	 0.4991276689	-1.1528103909	 0.077901
H	 3.1667834322	-0.3752723803	-3.1911132086	 0.286628
115.6348	155.8129	170.2836	196.4692	223.4433	247.4755	252.5264	299.5766	355.7504	357.7059	442.7041	467.8615	532.0497	626.4111	691.2426	764.1978	848.4098	860.5736	914.1711	932.0955	953.3966	973.9286	991.4531	1025.104	1039.4241	1079.2173	1101.0146	1111.2039	1136.6259	1163.0348	1204.7813	1233.6941	1239.6012	1274.7089	1301.1	1310.9354	1353.2882	1396.2668	1406.2571	1433.367	1458.4386	1481.1112	1484.7489	1495.4697	1498.0242	1499.1501	1520.7047	2952.552	2983.0957	3020.8179	3027.5945	3068.7977	3081.2783	3092.9555	3099.376	3127.1837	3134.647	3175.0532	3457.5419	3833.7622
CC12NC1CC2(C)CO	C[C@]12N[C@H]1C[C@]2(C)CO	
InChI=1S/C7H13NO/c1-6(4-9)3-5-7(6,2)8-5/h5,8-9H,3-4H2,1-2H3	InChI=1S/C7H13NO/c1-6(4-9)3-5-7(6,2)8-5/h5,8-9H,3-4H2,1-2H3/t5-,6+,7-/m0/s1
