23
gdb 79626	2.01774	1.77851	1.43436	0.2651	87.91	-0.235	0.0728	0.3078	1095.3168	0.207473	-351.130419	-351.121781	-351.120837	-351.163286	34.596	
C	-0.2465140904	 1.3003458893	 0.5066175986	-0.430228
C	 0.0597871336	-0.1780936962	 0.3280676314	-0.000508
C	 0.4018886786	-0.9683561546	-0.9232279842	-0.071908
C	 1.0542300609	-0.3912528947	-2.1657285239	-0.035302
C	 1.4428972339	 1.0666434057	-2.2604542995	-0.306403
C	 2.4590058115	 0.047528526	-1.8078011514	-0.045652
C	 2.6992054074	-0.2535898831	-0.3184506185	 0.004213
C	 3.3105585055	 0.8925181638	 0.4998059302	-0.397835
C	 1.3985696678	-0.8814577794	 0.2240604155	-0.092994
H	 0.5815576068	 1.9638188107	 0.2633590927	 0.12856
H	-1.1101934639	 1.6043647506	-0.095145817	 0.119085
H	-0.4976643659	 1.4895443823	 1.556134627	 0.111147
H	-0.6147132436	-0.76552898	 0.950901881	 0.08256
H	-0.1751110058	-1.8724418725	-1.0893711367	 0.075705
H	 0.8514532164	-0.9161073987	-3.0927607382	 0.077705
H	 1.5842822496	 1.4618130733	-3.2619834484	 0.104182
H	 1.0290721185	 1.7888779158	-1.5744419657	 0.109798
H	 3.2914052558	-0.1394289956	-2.4792616278	 0.077048
H	 3.4303660248	-1.0731326786	-0.3012575752	 0.076715
H	 2.6870646168	 1.7898668851	 0.4861648271	 0.118371
H	 3.4479045387	 0.5978047835	 1.5454491898	 0.110593
H	 4.2920690897	 1.1700014427	 0.1004634243	 0.109575
H	 1.5451509834	-1.7205666354	 0.8984336391	 0.075573
90.9286	146.2907	170.3911	223.9386	253.5207	303.043	322.6424	432.8889	529.0378	598.5687	648.6934	668.7257	701.8891	719.5458	783.1831	805.8824	823.6361	915.448	931.7794	952.749	979.6801	1009.8585	1037.5113	1051.8575	1057.8788	1065.323	1081.8337	1097.9815	1106.5485	1114.8011	1140.8045	1150.8386	1155.4026	1218.2412	1268.5174	1306.481	1330.7035	1352.1634	1364.951	1380.8205	1387.2588	1408.7973	1419.9551	1444.6419	1480.9908	1491.856	1493.3356	1505.7156	1515.8709	3005.008	3034.4139	3037.1917	3083.1266	3095.0912	3095.7734	3120.4297	3133.6606	3139.4534	3147.8873	3149.3448	3153.8022	3170.1647	3261.3941
CC1C2C3CC3C(C)C12	C[C@H]1[C@H]2[C@H]3C[C@H]3[C@@H](C)[C@@H]12	
InChI=1S/C9H14/c1-4-6-3-7(6)9-5(2)8(4)9/h4-9H,3H2,1-2H3	InChI=1S/C9H14/c1-4-6-3-7(6)9-5(2)8(4)9/h4-9H,3H2,1-2H3/t4-,5-,6+,7+,8+,9+/m1/s1
