27
gdb 103631	2.06399	1.19181	1.12529	0.095	95.32	-0.2668	0.0761	0.3429	1381.53	0.250714	-353.562889	-353.551951	-353.551006	-353.597938	42.221	
C	-0.5060821859	 1.425437992	 0.3071476186	-0.395259
C	-0.2286433287	-0.0831177766	 0.3338402984	-0.228977
C	 0.881588431	-0.5225080146	 1.3050505052	 0.357647
C	 2.2143917112	 0.1499301877	 0.9713265149	-0.460037
C	 0.4569234178	-0.4244978181	 2.808003867	-0.283574
C	 0.3169300474	-1.9720372527	 2.8933076114	 0.018725
C	-1.1132528599	-2.4879965148	 3.0357663481	-0.401841
C	 0.9951005014	-2.0852430503	 1.4859635059	-0.01623
C	 0.4281278315	-3.0404936888	 0.4417577894	-0.416314
H	 0.3431580327	 1.9918546955	-0.0859104539	 0.117793
H	-1.3692812686	 1.6469352571	-0.3283873317	 0.109774
H	-0.7267444816	 1.8108693371	 1.3085081144	 0.11688
H	-1.1595422387	-0.601292512	 0.5916272816	 0.093688
H	 0.0306003851	-0.4181960345	-0.6791708176	 0.090886
H	 2.1635129431	 1.2386261297	 1.0774039071	 0.112915
H	 3.0058768945	-0.2052871306	 1.6398829592	 0.105961
H	 2.5246313768	-0.0698574155	-0.0579112172	 0.106625
H	 1.2435151054	-0.0198473345	 3.4512994959	 0.088656
H	-0.4616936872	 0.1371650035	 3.0059376884	 0.08863
H	 0.92251911	-2.4206211761	 3.6874328294	 0.06164
H	-1.7885640554	-2.0514700704	 2.2925654571	 0.115412
H	-1.1625371143	-3.5771835659	 2.9286044358	 0.111257
H	-1.5112819797	-2.2337646225	 4.0246616294	 0.110777
H	 2.0529397988	-2.3359329889	 1.6264484585	 0.060816
H	-0.6337713318	-2.8719183425	 0.2431044289	 0.113595
H	 0.9616136477	-2.9458454361	-0.5107631553	 0.110914
H	 0.5383357474	-4.0795008473	 0.7727211911	 0.109643
76.1959	123.2504	179.3754	209.2839	219.6409	230.4092	235.3873	250.4767	270.9464	321.9184	340.8179	360.1724	411.3187	485.6972	508.7581	639.9956	722.002	775.6672	792.8056	830.6208	887.2147	908.1449	912.7242	984.8102	1003.4313	1013.8015	1026.1651	1035.9518	1042.1676	1087.3876	1119.527	1140.109	1180.247	1204.9344	1218.6099	1232.6825	1271.9071	1278.8817	1303.9539	1334.4793	1364.7855	1370.8773	1377.5754	1405.544	1408.6824	1414.2138	1415.6358	1475.1959	1482.9464	1490.2534	1491.8419	1495.7507	1500.2064	1502.6244	1504.3127	1506.9274	1515.2531	3016.1286	3019.2587	3022.1041	3026.4397	3030.2625	3036.8479	3039.116	3047.3021	3054.8072	3082.6998	3085.0475	3090.1384	3091.2929	3093.484	3099.5979	3100.3881	3108.7893	3112.6964
CCC1(C)CC(C)C1C	CC[C@@]1(C)C[C@@H](C)[C@H]1C	
InChI=1S/C9H18/c1-5-9(4)6-7(2)8(9)3/h7-8H,5-6H2,1-4H3	InChI=1S/C9H18/c1-5-9(4)6-7(2)8(9)3/h7-8H,5-6H2,1-4H3/t7-,8-,9+/m1/s1
