19
gdb 107441	3.01011	1.38532	1.18018	1.9545	73.88	-0.2573	0.0759	0.3332	1098.1786	0.160187	-422.997587	-422.98974	-422.988796	-423.029888	31.076	
O	 0.1514713524	 1.3592051374	 0.1450635787	-0.416064
C	 0.0661204483	-0.0304407683	-0.1399235104	-0.163943
C	-1.3505114408	-0.5402955217	-0.1056215562	 0.305479
C	-1.9909208632	-0.9939003199	 1.1909942829	-0.334771
C	-1.7177277551	-2.0012093445	 0.1028227627	-0.107441
C	-2.8251095105	-2.3823732198	-0.8870045004	-0.265747
C	-3.1894261562	-1.0958159094	-1.6168431045	 0.04023
O	-3.7005506028	-0.0539342691	-0.7729708776	-0.257483
C	-2.3157837737	-0.0077521211	-1.148203892	-0.03024
H	-0.3060677608	 1.507665087	 0.9798065426	 0.283697
H	 0.4962513053	-0.1454668329	-1.1419407044	 0.108621
H	 0.6867760931	-0.6250061329	 0.5496823292	 0.085106
H	-1.3526303602	-1.043653774	 2.0685010834	 0.103454
H	-3.0130083937	-0.6896434171	 1.3776972756	 0.13711
H	-0.9408201625	-2.7347635397	 0.2926507184	 0.087308
H	-2.4430873997	-3.1086035109	-1.6137368013	 0.107145
H	-3.6972709047	-2.8349077387	-0.4027368472	 0.11766
H	-3.6275981997	-1.1353135007	-2.611869327	 0.095471
H	-2.0233412155	 0.8467899464	-1.7513050025	 0.104409
92.724	135.9373	255.8056	268.8487	326.236	358.1657	395.3558	434.1995	515.2492	652.0306	711.3722	737.4455	805.7354	846.2545	862.1441	878.5237	915.5195	947.3659	968.9476	976.3812	1003.3287	1049.4199	1061.6729	1083.3032	1092.5871	1108.3228	1119.956	1194.8441	1216.9157	1243.3424	1268.1649	1284.4936	1306.3929	1337.2013	1379.2339	1402.1846	1420.1196	1428.4896	1473.5639	1481.0401	1506.5077	2973.9388	3040.7507	3055.1007	3079.6461	3126.648	3135.2304	3158.9095	3163.8038	3229.7443	3804.9151
OCC12CC1CC1OC21	OC[C@]12C[C@H]1C[C@H]1O[C@@H]21	
InChI=1S/C7H10O2/c8-3-7-2-4(7)1-5-6(7)9-5/h4-6,8H,1-3H2	InChI=1S/C7H10O2/c8-3-7-2-4(7)1-5-6(7)9-5/h4-6,8H,1-3H2/t4-,5-,6-,7-/m1/s1
