16
gdb 64624	2.93791	1.42516	1.33561	3.5797	74.03	-0.2572	-0.0217	0.2355	1012.1024	0.124669	-400.7473	-400.739536	-400.738592	-400.779354	30.168	
O	-0.0658662941	 1.436043644	-0.0553272679	-0.447348
C	 0.0006136751	 0.0141832161	-0.0008255161	 0.208924
C	 0.6389999564	-0.5126631879	 1.2848072747	-0.145816
C	-0.1965531216	-1.2937237043	 1.9688183097	-0.071193
C	-1.5239033225	-1.4133992407	 1.2986855185	-0.079894
C	-2.2911341785	-0.108233294	 1.1934929386	-0.289679
C	-1.4195584084	-0.5638038131	 0.0524815198	-0.05305
C	 0.7333385684	-0.4854016801	-1.1876876142	 0.230996
N	 1.3318315494	-0.8603959218	-2.1029265486	-0.338379
H	 0.8335932672	 1.7810501671	-0.0984093045	 0.291441
H	 1.6388652356	-0.2152103643	 1.577472654	 0.11027
H	 0.0240040334	-1.7551896698	 2.9247304414	 0.114235
H	-2.0631302604	-2.3528938691	 1.3099835332	 0.102189
H	-3.3619620217	-0.1641692779	 1.0298376769	 0.119974
H	-1.9597188927	 0.7294164432	 1.7951517326	 0.134565
H	-1.8839048555	-0.8569159573	-0.8792278178	 0.112763
111.8412	145.8088	213.255	275.9223	294.2765	382.7475	442.7954	499.2488	527.0198	569.5908	654.8788	717.9913	770.9035	794.0939	821.4126	854.8876	936.4817	961.9838	985.4616	1009.3626	1040.2111	1062.1285	1077.5468	1095.5648	1101.863	1137.3923	1156.5709	1200.2893	1301.174	1344.5596	1367.2908	1394.5615	1480.7263	1670.7202	2347.6205	3139.5979	3184.1769	3193.5774	3205.5365	3217.2992	3234.5115	3800.4953
OC1(C=CC2CC12)C#N	O[C@]1(C=C[C@H]2C[C@@H]12)C#N	
InChI=1S/C7H7NO/c8-4-7(9)2-1-5-3-6(5)7/h1-2,5-6,9H,3H2	InChI=1S/C7H7NO/c8-4-7(9)2-1-5-3-6(5)7/h1-2,5-6,9H,3H2/t5-,6+,7+/m0/s1
