17
gdb 123456	5.08819	0.92149	0.81562	3.8069	74.28	-0.2354	0.0244	0.2598	1366.0998	0.138003	-418.001647	-417.993771	-417.992827	-418.035355	28.879	
C	-0.0095029495	 1.4104600093	 0.4825065292	-0.362351
C	-0.0999057664	-0.0687556347	 0.1680269368	 0.10887
C	-1.3192338418	-0.6774911291	-0.3757234894	-0.183786
O	-0.1927039359	-0.415404168	-1.2162811147	-0.231181
C	 1.3552772421	 1.9758292646	 0.2132683494	 0.214855
C	 2.1918187991	 2.6424902276	 1.0862612088	-0.140875
N	 3.3099416062	 2.9583297003	 0.3877448698	-0.177926
N	 3.2693930923	 2.5414976552	-0.8917266269	-0.222161
C	 2.0864518898	 1.9454774146	-1.0009896849	-0.07649
H	-0.7677114931	 1.931139814	-0.1154590422	 0.114548
H	-0.2751143301	 1.5649652163	 1.5354229226	 0.103529
H	 0.5826847254	-0.7051449476	 0.7335483305	 0.095322
H	-1.5315053292	-1.7298468856	-0.1928367167	 0.114611
H	-2.1936568172	-0.0537729159	-0.5587218364	 0.112548
H	 2.0741322122	 2.9109559716	 2.1247830039	 0.129355
H	 4.1244219509	 3.4486302706	 0.7151631975	 0.27333
H	 1.7870090952	 1.5033169668	-1.9395794871	 0.127804
43.5368	74.0736	122.8615	286.4496	308.2074	357.7085	452.0333	505.754	649.7496	694.1972	731.8828	786.829	794.7029	860.6985	903.5642	935.6957	949.5184	958.3022	1014.2937	1065.1746	1094.4187	1101.4035	1155.7967	1164.4708	1170.5489	1227.0201	1248.4459	1291.5006	1299.7087	1346.5424	1391.7506	1418.6175	1442.18	1467.4927	1492.7771	1528.2697	1614.3443	3023.9942	3062.9987	3081.4956	3102.0877	3167.7736	3253.6729	3255.0549	3678.7856
C(C1CO1)C1=CNN=C1	C([C@H]1CO1)c1c[nH]nc1	
InChI=1S/C6H8N2O/c1(6-4-9-6)5-2-7-8-3-5/h2-3,6H,1,4H2,(H,7,8)	InChI=1S/C6H8N2O/c1(6-4-9-6)5-2-7-8-3-5/h2-3,6H,1,4H2,(H,7,8)/t6-/m0/s1
