20
gdb 105074	2.70285	1.15182	1.05817	3.5458	74.56	-0.2475	0.0634	0.3108	1244.951	0.169834	-440.231209	-440.221862	-440.220918	-440.26599	34.832	
C	-1.5046510865	-0.8517174759	 2.2556810707	-0.425459
C	-0.6643322591	-0.8059867161	 1.0070944512	 0.088627
O	-0.5053063622	 0.4671799568	 0.3739356927	-0.247633
C	 0.6590722644	-0.1556447663	 0.9255296178	-0.066917
C	 1.3329091778	 0.5579394805	 2.0728256006	 0.261129
C	 1.1057201339	 2.0684328897	 2.1257282186	-0.107266
O	 1.907988819	 2.6776633265	 3.1103036335	-0.424943
C	 1.6502568384	-0.1798791723	 3.3242633514	-0.262808
N	 2.7271249873	 0.1930628358	 2.3848507037	-0.380145
H	-1.2374251754	-0.0514745958	 2.9487181387	 0.139263
H	-2.5637980791	-0.7468510767	 1.9992306147	 0.133234
H	-1.3787363204	-1.8126129939	 2.7662835167	 0.121729
H	-0.8513383953	-1.6164490128	 0.2991405401	 0.091016
H	 1.3499095298	-0.5223540859	 0.1609474593	 0.094423
H	 1.2998219962	 2.4852485446	 1.1238343966	 0.094371
H	 0.0609063452	 2.2844099072	 2.3661825682	 0.118437
H	 2.7865166726	 2.2841486397	 3.0043230253	 0.292848
H	 1.6735866779	 0.3565630004	 4.2674209116	 0.13468
H	 1.3651875259	-1.226151943	 3.38655133	 0.112836
H	 3.0253447497	-0.6120755425	 1.8393393685	 0.232576
29.5771	119.6323	164.2017	183.4146	208.5008	273.859	315.8057	368.8963	389.9429	415.8258	506.6055	540.8748	620.2662	716.2842	788.7391	825.4514	842.6166	938.278	953.4126	964.1033	992.5044	1029.2231	1046.7961	1064.4029	1096.6229	1109.7761	1142.8997	1165.7675	1170.6928	1231.6231	1259.0022	1274.8226	1317.7664	1342.5605	1383.5704	1405.0506	1418.6299	1443.9086	1459.512	1485.9015	1496.6224	1501.3827	1507.6365	2973.408	3040.5444	3059.4725	3085.3396	3088.0086	3101.9372	3117.1915	3137.1754	3209.5437	3496.0452	3726.7107
CC1OC1C1(CO)CN1	C[C@H]1O[C@H]1[C@@]1(CO)CN1	
InChI=1S/C6H11NO2/c1-4-5(9-4)6(3-8)2-7-6/h4-5,7-8H,2-3H2,1H3	InChI=1S/C6H11NO2/c1-4-5(9-4)6(3-8)2-7-6/h4-5,7-8H,2-3H2,1H3/t4-,5-,6+/m1/s1
