21
gdb 119989	2.95954	0.93928	0.8951	0.9984	76.59	-0.2172	0.0608	0.278	1462.3411	0.17924	-461.311391	-461.30077	-461.299825	-461.347672	37.371	
C	-0.2069149187	 1.4635644539	 0.2313304042	-0.386415
C	-0.3100129591	-0.0231262915	 0.5199600818	-0.04084
O	-1.1207707725	-0.6180006174	-0.4939112801	-0.253139
C	-1.2691114627	-1.9888680728	-0.3216328179	 0.0131
C	-2.4164286895	-2.4419584511	 0.5685217309	 0.056766
O	-3.2101429745	-1.4486465769	 1.1445206219	-0.433218
C	-2.4938827328	-2.6187737954	-0.9408212227	 0.012438
O	-3.3477844894	-1.770437907	-1.6340418825	-0.23878
C	-4.6834419607	-2.2533526358	-1.6552188757	-0.238029
H	 0.4204102403	 1.9524577006	 0.9825880567	 0.117082
H	 0.2329694123	 1.6347630167	-0.7551419232	 0.129664
H	-1.1959069202	 1.9306073124	 0.2503542362	 0.125502
H	 0.687659293	-0.4903172861	 0.5126232436	 0.090251
H	-0.7563246713	-0.2070981645	 1.5067584003	 0.110671
H	-0.3401654834	-2.5615449002	-0.3383234406	 0.086393
H	-2.3109832258	-3.2983239738	 1.2256339865	 0.102426
H	-3.20183908	-0.7095562011	 0.5213472415	 0.297526
H	-2.3861032109	-3.618237535	-1.3671889696	 0.084909
H	-5.2724984285	-1.5293277913	-2.222828148	 0.127863
H	-4.7449729591	-3.231670272	-2.1545461933	 0.10687
H	-5.0908741364	-2.3444330716	-0.6410329397	 0.128959
71.7323	76.9341	94.7428	107.0848	160.1679	205.8807	238.047	241.442	291.8159	318.8612	354.3677	409.71	624.4361	647.1055	710.4961	737.471	801.2746	824.4318	883.0594	949.0893	1039.9115	1072.0065	1081.6311	1093.179	1117.9112	1141.236	1149.5248	1168.8337	1183.0795	1187.4916	1227.9016	1255.4693	1295.963	1318.1312	1340.9047	1380.2881	1405.8717	1436.452	1470.9937	1483.2369	1485.4934	1487.8628	1500.277	1507.494	1524.9711	2979.2692	2992.6668	3030.6059	3045.3289	3061.4732	3072.8574	3085.569	3119.1888	3122.5843	3122.7375	3172.5177	3768.304
CCOC1C(O)C1OC	CCO[C@H]1[C@@H](O)[C@H]1OC	
InChI=1S/C6H12O3/c1-3-9-6-4(7)5(6)8-2/h4-7H,3H2,1-2H3	InChI=1S/C6H12O3/c1-3-9-6-4(7)5(6)8-2/h4-7H,3H2,1-2H3/t4-,5+,6-/m0/s1
