19
gdb 39266	2.46404	2.24413	1.55266	1.6508	73.61	-0.2402	0.0802	0.3204	912.2535	0.162425	-423.013132	-423.00641	-423.005466	-423.043853	28.399	
C	-0.037897261	 1.4509619956	-0.0513948128	-0.410845
C	 1.3520998271	 0.8236514225	-0.0211432417	-0.093355
C	 2.1506503329	 0.3950219449	-1.2367195333	-0.087642
O	 2.2199198246	-1.0441920677	-1.2835935635	-0.292147
C	 0.9639722878	-1.6763367126	-1.0379888904	 0.205651
C	 0.8350905065	-2.1971631116	 0.4280498916	-0.244105
C	-0.0047720894	-1.0833480498	 1.1344366629	-0.3061
C	 0.0990426535	-0.0205245995	 0.0671819236	 0.427939
O	-0.0787396277	-0.7305622384	-1.1552802499	-0.273724
H	-0.3270238988	 2.0227059803	 0.8234436377	 0.122567
H	-0.4313173219	 1.8266919043	-0.9902807233	 0.129208
H	 1.9120330204	 0.9623232403	 0.8985827435	 0.091506
H	 1.7075387801	 0.7826467955	-2.1611770841	 0.104341
H	 3.189887031	 0.7271165503	-1.1893746624	 0.108241
H	 0.8310819809	-2.4495715228	-1.7988395008	 0.08471
H	 0.3288248721	-3.165160183	 0.4513653202	 0.105334
H	 1.8272960666	-2.3163266393	 0.8665257927	 0.115313
H	-1.0384953114	-1.405737163	 1.2915734605	 0.107867
H	 0.4134219666	-0.7712620961	 2.0933971596	 0.105241
151.243	247.7414	333.4647	370.9598	397.4778	483.3748	523.7343	581.5515	647.9386	740.7975	788.1886	802.1103	842.2325	852.4582	885.9467	908.5593	920.5679	954.0377	982.9326	999.3107	1017.1396	1054.2159	1076.1839	1104.2006	1107.5412	1144.488	1160.9078	1212.9854	1231.2844	1269.6287	1275.7773	1303.6011	1327.6235	1346.7819	1367.6955	1390.1128	1421.7002	1474.8795	1483.1479	1498.9254	1504.2832	3034.9777	3056.4395	3071.9081	3085.4011	3104.3604	3111.7805	3132.2333	3133.8733	3154.9645	3222.7309
C1C2COC3CCC12O3	C1[C@@H]2CO[C@H]3CC[C@@]12O3	
InChI=1S/C7H10O2/c1-2-7-3-5(7)4-8-6(1)9-7/h5-6H,1-4H2	InChI=1S/C7H10O2/c1-2-7-3-5(7)4-8-6(1)9-7/h5-6H,1-4H2/t5-,6-,7-/m1/s1
