18
gdb 49314	3.25534	1.21476	0.92819	4.0458	76.28	-0.2508	-0.0615	0.1893	1243.4999	0.148306	-439.102189	-439.093826	-439.092882	-439.135903	30.566	
O	-1.0105674496	 1.3515002879	 0.2825977186	-0.246413
C	 0.1421208655	 1.0325517821	 0.4016234494	 0.131564
C	 1.316281597	 1.9076185819	 0.032791703	 0.273157
N	 2.4605199419	 1.3938818417	 0.2194526958	-0.272684
C	 3.7230325453	 2.0983432721	 0.07981179	-0.151437
C	 3.9545643253	 2.9285079839	-1.1889091457	-0.208389
C	 3.0277741517	 4.1373759107	-1.3102168543	-0.202045
C	 1.5702073455	 3.7503706822	-1.516314204	-0.070844
O	 0.9377821815	 3.137159392	-0.3858537971	-0.249053
H	 0.4706899447	 0.052878353	 0.8011153653	 0.09994
H	 3.8282291547	 2.7569944608	 0.9564400385	 0.120695
H	 4.5168528433	 1.3492862736	 0.1638521862	 0.112788
H	 4.9986716109	 3.2621809318	-1.1793072474	 0.10492
H	 3.8399626244	 2.2830464455	-2.0696193811	 0.106288
H	 3.1098521471	 4.7732929225	-0.4195999032	 0.110039
H	 3.3260380605	 4.7519319907	-2.1685178693	 0.106177
H	 0.958151527	 4.6335795458	-1.7131647414	 0.124918
H	 1.4780300932	 3.0736227419	-2.3771100135	 0.110378
50.7338	96.4945	169.4249	212.534	268.9073	344.1528	349.8913	381.7393	498.2662	538.155	636.6754	731.4225	761.7276	829.4298	870.1242	888.8923	942.6082	997.3025	1034.8266	1049.8718	1094.9567	1104.2085	1132.0201	1205.4908	1254.0362	1265.0741	1298.3886	1321.8177	1369.7347	1381.2075	1382.7548	1401.7724	1423.5357	1470.7617	1481.9416	1487.6077	1499.0278	1728.1974	1829.4035	2949.2299	2991.1348	3013.9981	3023.011	3026.0692	3064.1411	3067.7841	3073.2156	3105.2353
O=CC1=NCCCCO1	O=CC1=NCCCCO1	
InChI=1S/C6H9NO2/c8-5-6-7-3-1-2-4-9-6/h5H,1-4H2	InChI=1S/C6H9NO2/c8-5-6-7-3-1-2-4-9-6/h5H,1-4H2
