16
gdb 52502	8.23254	0.43257	0.42896	4.1332	95.87	-0.2367	-0.0176	0.2191	2487.1571	0.122162	-400.73123	-400.720839	-400.719894	-400.770593	34.021	
C	-0.0458618697	 1.4311015208	-0.1462057187	-0.518578
C	-0.008588787	-0.0167221969	-0.0506400389	 0.260284
C	 0.0243839544	-1.2240409773	 0.0271286347	-0.205083
C	 0.0612643876	-2.5804271763	 0.1143047314	-0.202044
C	 0.0946184506	-3.7883394597	 0.1872665608	 0.266589
C	 0.1274765449	-5.2394020659	 0.3046204372	-0.317548
N	-1.2090302726	-5.8247327803	 0.3476133701	-0.268986
C	-1.5650087694	-6.8656149366	-0.4526810492	 0.162618
O	-0.8199363153	-7.4449909903	-1.2135095176	-0.318875
H	 0.9658833766	 1.8477134979	-0.2066002805	 0.159722
H	-0.5934496219	 1.7553557045	-1.0382543166	 0.159017
H	-0.5370078894	 1.8741606516	 0.7274582732	 0.15765
H	 0.6287278989	-5.6979504353	-0.5548240457	 0.180464
H	 0.701570797	-5.5259522478	 1.1970632635	 0.145126
H	-1.912443266	-5.3736455104	 0.9103251603	 0.256752
H	-2.6311682786	-7.1352748881	-0.3231984939	 0.082893
7.9932	24.0583	61.1789	95.5049	151.9181	236.4954	252.1287	256.9932	337.4366	374.6809	456.809	520.072	548.1738	552.6149	629.4724	779.0487	950.0998	987.582	1031.2099	1038.0082	1047.326	1048.8889	1200.9635	1252.5923	1288.2511	1373.1987	1412.9738	1425.1689	1470.899	1471.7107	1482.1682	1516.7362	1804.1912	2280.5118	2387.6592	2946.1379	3005.0129	3024.7241	3075.0647	3087.3231	3087.8707	3641.9002
CC#CC#CCNC=O	CC#CC#CCNC=O	
InChI=1S/C7H7NO/c1-2-3-4-5-6-8-7-9/h7H,6H2,1H3,(H,8,9)	InChI=1S/C7H7NO/c1-2-3-4-5-6-8-7-9/h7H,6H2,1H3,(H,8,9)
