16
gdb 125853	3.2843	1.58867	1.1333	3.8735	77.13	-0.2239	-0.0379	0.186	1041.9593	0.12634	-400.748471	-400.741509	-400.740564	-400.779808	27.286	
C	-0.1010598274	 1.598769235	-0.0295561433	-0.390407
C	 0.0019604706	 0.0636865112	 0.0145101488	-0.213424
C	 0.8350624027	-0.5161852843	-1.1288668421	-0.061309
C	 1.8580938866	-1.2773663355	-0.6850840479	-0.232962
C	 1.7733917229	-1.2566955356	 0.7640858033	 0.395263
C	 0.7273631883	-0.4997312342	 1.2058497075	 0.169701
C	 0.8300908117	-0.611565259	 2.6084554593	-0.138758
N	 1.849948124	-1.3693932826	 2.9687089999	-0.15026
O	 2.465004702	-1.7913352728	 1.7658872223	-0.234133
H	 0.8913758104	 2.0544275383	 0.0258071693	 0.132185
H	-0.5816735065	 1.9292963781	-0.9554310797	 0.1203
H	-0.6953901772	 1.9690621852	 0.8107425032	 0.124974
H	-1.0141042334	-0.3521537548	-0.0542571774	 0.112503
H	 0.6044213287	-0.3117233288	-2.1673044177	 0.111948
H	 2.5942848767	-1.8012598206	-1.2778137916	 0.12464
H	 0.2212616698	-0.1846388096	 3.393598276	 0.129737
134.6807	169.817	257.2199	292.5065	360.9356	464.0526	544.7119	627.3305	638.0254	696.6639	717.8294	784.6478	808.4158	855.8198	906.5837	911.5586	943.5006	967.1289	1018.5195	1070.1684	1084.9062	1097.2491	1171.0874	1195.6235	1237.9753	1284.7849	1320.6429	1401.219	1412.0088	1418.9369	1495.0176	1498.4035	1506.92	1561.902	1627.3122	3008.5927	3040.6005	3111.4204	3121.2859	3209.5053	3237.2882	3243.8926
CC1C=CC2=C1C=NO2	C[C@H]1C=Cc2c1cno2	
InChI=1S/C7H7NO/c1-5-2-3-7-6(5)4-8-9-7/h2-5H,1H3	InChI=1S/C7H7NO/c1-5-2-3-7-6(5)4-8-9-7/h2-5H,1H3/t5-/m0/s1
