20
gdb 76834	2.34689	1.60641	1.27708	2.3795	78.19	-0.2248	-0.0274	0.1974	1085.3237	0.170202	-403.123048	-403.114367	-403.113423	-403.156517	33.273	
C	 0.4041042215	 1.5744545564	 0.3273141942	-0.413585
C	 0.2001368691	 0.0760091077	 0.135048965	-0.025868
C	 1.0564850044	-0.7144210216	-0.9167941587	 0.048305
C	 2.0615809553	 0.0260286583	-1.7841670294	-0.418142
N	 1.5777913355	-1.6568427488	 0.1465697557	-0.146932
C	 2.8762634754	-1.2719787531	 0.7825550836	-0.310255
C	 2.1140920735	-0.4824330297	 1.8633160248	 0.394558
O	 2.4179594967	 0.1618318547	 2.8229543209	-0.292446
C	 0.7915748187	-0.8935079046	 1.1980521409	-0.122833
H	 1.4514528372	 1.8393412768	 0.4967463947	 0.127001
H	 0.0532809798	 2.1296192603	-0.5488477478	 0.117659
H	-0.1620693002	 1.9287298296	 1.1949167761	 0.129497
H	-0.8665385823	-0.1190543303	-0.0068787339	 0.085465
H	 0.4101175982	-1.2999036265	-1.5790747887	 0.086997
H	 2.6784908756	 0.7373771915	-1.2285967501	 0.122803
H	 2.7281687843	-0.685402467	-2.2840033163	 0.129184
H	 1.5349558979	 0.588267389	-2.5621005238	 0.123793
H	 3.405091311	-2.1461470462	 1.1804578532	 0.137015
H	 3.5807280806	-0.6996164728	 0.1720372848	 0.129011
H	 0.087706238	-1.4435671838	 1.8297408447	 0.098772
47.9142	123.2096	212.5392	223.5125	261.5392	313.1533	346.5671	405.2176	439.1752	502.0946	547.0975	627.0261	706.6756	731.1448	769.1113	859.7072	881.7076	938.166	958.4231	989.4997	1009.4536	1030.5384	1052.7054	1101.8555	1123.0189	1158.0534	1167.7318	1190.5182	1195.5209	1222.7445	1256.3421	1297.244	1304.7763	1362.0279	1380.7135	1406.674	1418.9807	1455.5264	1486.6466	1493.7303	1503.1119	1509.6963	1894.5292	3033.1574	3035.2378	3038.4211	3040.504	3056.8576	3071.2955	3095.5363	3100.2699	3103.0903	3111.293	3118.623
CC1C(C)N2CC(=O)C12	C[C@H]1[C@@H](C)N2CC(=O)[C@@H]12	
InChI=1S/C7H11NO/c1-4-5(2)8-3-6(9)7(4)8/h4-5,7H,3H2,1-2H3	InChI=1S/C7H11NO/c1-4-5(2)8-3-6(9)7(4)8/h4-5,7H,3H2,1-2H3/t4-,5+,7+/m0/s1
