15
gdb 21956	7.24909	1.06214	0.93712	1.4322	62.65	-0.2612	-0.0064	0.2548	1166.4487	0.119062	-399.788574	-399.780947	-399.780003	-399.821672	26.82	
O	-0.0933097558	 1.4646024309	-0.0369109687	-0.424309
C	-0.0185918332	 0.0686997929	-0.2875852533	-0.077493
C	-1.2449594645	-0.5563816265	 0.3687509224	-0.29503
C	-1.3371066067	-2.0432342544	 0.2065968804	 0.373389
N	-0.4188075376	-2.7118555787	-0.4524802379	-0.193181
O	-0.8090872076	-4.0483188033	-0.4105861717	-0.172694
C	-1.9558790864	-4.1390336855	 0.2766024956	 0.083454
C	-2.3550700968	-2.9158354712	 0.7001434827	-0.32745
H	 0.6720060565	 1.8814418411	-0.4427095354	 0.287827
H	-0.0186584836	-0.1528427742	-1.3641388134	 0.106467
H	 0.895322275	-0.3729580327	 0.1340239579	 0.106447
H	-1.2412998587	-0.3055988658	 1.436559431	 0.129936
H	-2.145786882	-0.0878360584	-0.0461010264	 0.129951
H	-2.3641787119	-5.1325390131	 0.3800050489	 0.152134
H	-3.2314614966	-2.6618957211	 1.2727501879	 0.120553
39.0343	94.6732	146.5099	256.2011	278.4733	355.8795	399.6491	612.0003	666.5167	743.5021	790.5363	810.1078	870.9618	913.8808	946.2019	1015.2343	1021.169	1072.2959	1084.8734	1092.1858	1158.6466	1219.6645	1220.2202	1273.3538	1305.0689	1345.9528	1442.5106	1466.5674	1477.6088	1493.8065	1525.0137	1611.1066	2997.6281	3026.7864	3035.6942	3070.365	3260.8862	3285.2692	3836.1534
OCCC1=NOC=C1	OCCc1nocc1	
InChI=1S/C5H7NO2/c7-3-1-5-2-4-8-6-5/h2,4,7H,1,3H2	InChI=1S/C5H7NO2/c7-3-1-5-2-4-8-6-5/h2,4,7H,1,3H2
