23
gdb 60358	3.31928	0.67954	0.58673	1.9061	88.86	-0.255	0.0581	0.3132	1928.7602	0.202147	-388.265984	-388.254612	-388.253668	-388.303016	41.478	
C	 0.0813900514	 1.5657842495	 0.1115801905	-0.402869
C	 0.0361764324	 0.0378969487	 0.0754597645	 0.133731
O	 0.6781593293	-0.5219145865	 1.2199541729	-0.425693
C	-1.3936989679	-0.4986456303	-0.0907918683	-0.207065
C	-1.4447313331	-2.0251473937	-0.2093514516	-0.173345
C	-2.8730187412	-2.6200096025	-0.165780721	-0.165188
C	-3.7551615814	-2.160722122	-1.3450982474	-0.385182
C	-2.8109133706	-4.0806112064	-0.1140846717	 0.319895
C	-2.7478158436	-5.281224737	-0.0926114349	-0.46285
H	 1.1090814183	 1.9118681254	 0.2507093243	 0.124482
H	-0.309859463	 1.9978571345	-0.8151853268	 0.115793
H	-0.5253942406	 1.9525663303	 0.9404701778	 0.105084
H	 0.6423640619	-0.3156975535	-0.7686101812	 0.089638
H	 0.2202298535	-0.1900261936	 2.0006514023	 0.275119
H	-1.9906518855	-0.1713117646	 0.7750964507	 0.080534
H	-1.8441262021	-0.0229100938	-0.9700866456	 0.098654
H	-0.9601098101	-2.3421623154	-1.141722643	 0.101475
H	-0.8572108185	-2.4564935182	 0.6060081117	 0.122373
H	-3.3482552831	-2.2734785527	 0.7639337694	 0.099826
H	-4.7445810119	-2.6218521997	-1.2902201075	 0.125314
H	-3.8841022088	-1.0749872429	-1.3369668166	 0.115281
H	-3.3009657815	-2.4482447832	-2.2985958079	 0.123933
H	-2.6959656938	-6.3412101825	-0.0625820605	 0.191058
41.8346	72.0208	97.2584	143.9709	182.0298	210.7161	243.3504	254.4797	276.6072	300.1605	346.9107	405.274	464.4992	476.4866	534.241	561.8513	624.645	630.9236	764.3425	822.3768	856.5464	924.9092	933.0183	945.5831	1013.8308	1046.8897	1061.8543	1090.3676	1122.1377	1135.2517	1162.6559	1208.1679	1268.8392	1292.27	1326.4734	1336.5834	1347.3292	1371.9142	1394.6135	1404.7453	1407.7957	1421.8742	1475.6647	1491.3176	1495.0717	1495.4342	1497.8824	1504.3262	2233.4817	2988.1916	2993.7925	3021.9143	3030.2867	3035.1749	3041.7376	3056.1466	3092.598	3097.5046	3115.2554	3118.6297	3121.2992	3505.6063	3793.383
CC(O)CCC(C)C#C	C[C@@H](O)CC[C@@H](C)C#C	
InChI=1S/C8H14O/c1-4-7(2)5-6-8(3)9/h1,7-9H,5-6H2,2-3H3	InChI=1S/C8H14O/c1-4-7(2)5-6-8(3)9/h1,7-9H,5-6H2,2-3H3/t7-,8+/m0/s1
