17
gdb 99513	2.50475	1.06458	0.79016	2.7184	71.14	-0.2671	-0.0387	0.2284	1398.5798	0.132077	-458.93128	-458.921172	-458.920228	-458.96753	35.764	
O	 0.2999437189	 1.2110626446	-0.9170504147	-0.414588
C	 0.1932208562	-0.1575624772	-0.6226461875	-0.055486
C	-1.0260266572	-0.4631541934	 0.3023224509	-0.304528
C	-2.2651393174	-0.0283175348	-0.3315793671	 0.301227
C	-3.246755072	 0.3694820668	-0.9019652565	-0.449028
C	-0.9924136277	-1.9396586158	 0.7133069628	 0.359322
O	-0.0121287333	-2.3960159149	 1.2614453831	-0.326626
C	-2.1766481756	-2.8396797035	 0.4197730376	-0.139941
O	-1.9433346875	-4.1449117933	 0.8502113341	-0.420289
H	-0.5018968214	 1.4739932403	-1.3843419457	 0.290566
H	 0.1120309136	-0.7723409369	-1.5316797586	 0.101242
H	 1.0997797423	-0.4488405555	-0.0893027145	 0.142429
H	-0.8673111176	 0.11430931	 1.2223602107	 0.152319
H	-4.133634931	 0.7055132629	-1.3812797677	 0.211591
H	-3.0657797409	-2.4018194755	 0.9028090008	 0.12908
H	-2.3775603476	-2.7947394582	-0.6638242277	 0.126988
H	-1.0542278218	-4.1333133357	 1.23877698	 0.295723
20.9252	108.9677	125.0161	129.6875	177.4477	215.2768	285.0842	340.6225	385.8816	394.7124	406.5947	488.5791	509.6342	562.2672	645.1682	676.0418	715.6997	805.9521	863.5463	949.1414	1047.5939	1069.5748	1094.9957	1118.2851	1172.1543	1188.024	1227.5543	1257.0611	1309.3019	1327.9818	1388.3954	1416.2387	1447.5217	1478.0316	1508.426	1787.4702	2229.1031	2977.7722	2991.7813	2993.1343	3036.2653	3123.852	3498.235	3690.7039	3789.206
OCC(C#C)C(=O)CO	OC[C@@H](C#C)C(=O)CO	
InChI=1S/C6H8O3/c1-2-5(3-7)6(9)4-8/h1,5,7-8H,3-4H2	InChI=1S/C6H8O3/c1-2-5(3-7)6(9)4-8/h1,5,7-8H,3-4H2/t5-/m1/s1
