19
gdb 107028	2.97857	1.2397	1.04522	0.5127	71.1	-0.2516	0.0552	0.3068	1181.3698	0.158431	-460.120693	-460.111468	-460.110524	-460.154778	34.613	
O	 0.0831345117	 1.3768116378	 0.1103610028	-0.412874
C	 0.0194351499	-0.0339782441	-0.0514047065	-0.178101
C	-1.3904135118	-0.5446528814	-0.0644109063	 0.338057
C	-2.1214290237	-0.9807829809	 1.1833345767	-0.348511
C	-1.9362023207	-1.9806241382	 0.0816507179	-0.141757
C	-2.9500467896	-1.7233383419	-1.0434866095	 0.11301
O	-4.3199693597	-1.8241275393	-0.7632420536	-0.444597
C	-2.4019798019	-0.2526440885	-1.1646204552	-0.029414
O	-3.3550645157	 0.7475378897	-0.8300031274	-0.431554
H	-0.4884331362	 1.6059668522	 0.8510282464	 0.285238
H	 0.5143806532	-0.2376306729	-1.0084538604	 0.105072
H	 0.5938960625	-0.5596339364	 0.7295204631	 0.084723
H	-1.4857943882	-1.1300367678	 2.0510309768	 0.113817
H	-3.107544226	-0.5933465094	 1.4173106262	 0.121432
H	-1.3740986491	-2.8957432151	 0.2240479866	 0.090038
H	-2.7324967273	-2.325140846	-1.9315194067	 0.079379
H	-4.5915190454	-0.9377075596	-0.4852813508	 0.283139
H	-1.9295554035	-0.0401146097	-2.1288485384	 0.078056
H	-3.7493281685	 1.0774635015	-1.6433355918	 0.294848
71.7766	82.7408	162.9323	212.2206	254.3384	267.1492	307.3122	348.1171	374.1817	469.7515	498.8314	565.9101	608.0173	726.6779	753.2806	825.332	867.7526	924.7863	936.324	966.6601	996.5872	1030.9488	1050.2565	1074.9229	1088.7382	1095.1373	1133.1387	1177.2423	1190.7939	1212.2501	1255.8856	1277.6053	1313.7097	1340.5347	1358.1847	1391.1164	1428.8285	1432.588	1441.4935	1499.6292	1510.773	2965.1708	3048.2581	3051.8837	3063.6133	3126.7797	3186.1011	3208.5112	3730.4377	3809.2424	3828.6883
OCC12CC1C(O)C2O	OC[C@]12C[C@H]1[C@@H](O)[C@H]2O	
InChI=1S/C6H10O3/c7-2-6-1-3(6)4(8)5(6)9/h3-5,7-9H,1-2H2	InChI=1S/C6H10O3/c7-2-6-1-3(6)4(8)5(6)9/h3-5,7-9H,1-2H2/t3-,4+,5+,6+/m0/s1
