25
gdb 104425	2.82905	1.1455	1.02843	0.2228	94.68	-0.2351	0.0315	0.2666	1349.477	0.229942	-352.384879	-352.375232	-352.374288	-352.418779	38.036	
C	-0.0762934267	 1.5365420019	 0.206851015	-0.403824
C	-0.0139016744	 0.0270711993	-0.0531773358	-0.195128
C	 0.775355382	-0.4426335049	-1.3082748108	 0.257787
C	 2.2066542576	 0.1391782906	-1.2796342329	-0.418844
C	 0.8282788245	-1.9904571568	-1.2751602608	-0.22475
C	 1.1575692657	-2.6145275228	-2.6357644473	-0.222964
C	 0.1006507919	-2.2304417252	-3.6794878826	-0.239532
C	-0.2421742331	-0.766290754	-3.6017878326	-0.077608
C	 0.0687940645	 0.0161660788	-2.5685573743	-0.060235
H	 0.9154604435	 1.9638137178	 0.38152951	 0.117593
H	-0.5328990812	 2.0815698458	-0.6253154563	 0.117887
H	-0.6804152559	 1.740604558	 1.0966905852	 0.112005
H	 0.4341376736	-0.4617266472	 0.8228377263	 0.088868
H	-1.0360264321	-0.364269167	-0.1301730875	 0.094149
H	 2.6923454773	-0.0690418331	-0.3187007049	 0.105377
H	 2.82248441	-0.2935317496	-2.0730837634	 0.113727
H	 2.2053118869	 1.2231461632	-1.427867852	 0.112869
H	 1.555147425	-2.3116224268	-0.5192350996	 0.085356
H	-0.1489298407	-2.3683388451	-0.9455566768	 0.088642
H	 2.1415822663	-2.2699155277	-2.9760090677	 0.099984
H	 1.2256977618	-3.7040652253	-2.5445707196	 0.088828
H	 0.4511246304	-2.4773787596	-4.6895816683	 0.098421
H	-0.8112138273	-2.8294737551	-3.5332875358	 0.104539
H	-0.7730626078	-0.3399865002	-4.450653152	 0.079512
H	-0.193245172	 1.0712709048	-2.6125935151	 0.077342
84.0061	110.1235	187.7242	213.652	249.9329	279.1082	290.9284	322.4554	363.6711	401.6	466.0919	517.6438	520.3569	665.1327	720.9345	748.4909	783.3042	854.6224	868.5031	895.6653	912.679	965.8984	988.4638	1006.9371	1010.3356	1020.0159	1059.092	1071.5908	1084.7114	1140.9741	1159.5356	1180.2156	1225.0966	1260.7355	1267.1557	1286.3603	1333.2059	1361.1647	1366.0111	1374.1633	1380.8745	1404.2325	1409.8841	1431.9219	1473.733	1476.8281	1484.2031	1493.4095	1497.8992	1499.0935	1505.9078	1511.7208	1720.2432	2992.5646	3007.2197	3013.3965	3025.6217	3027.3867	3038.7849	3040.9199	3047.4001	3056.1686	3070.8345	3095.7952	3100.5664	3106.5433	3112.0999	3132.5958	3156.6558
CCC1(C)CCCC=C1	CC[C@@]1(C)CCCC=C1	
InChI=1S/C9H16/c1-3-9(2)7-5-4-6-8-9/h5,7H,3-4,6,8H2,1-2H3	InChI=1S/C9H16/c1-3-9(2)7-5-4-6-8-9/h5,7H,3-4,6,8H2,1-2H3/t9-/m1/s1
