16
gdb 127219	3.2161	1.25157	0.9069	1.7288	84.22	-0.1969	0.0082	0.2051	1244.2098	0.124536	-396.925031	-396.916093	-396.915149	-396.958789	32.91	
C	-0.024683223	 1.4101095826	 0.1099593504	-0.31429
N	 0.0091316223	-0.0277844676	-0.0108851172	 0.053135
C	-0.0641055195	-0.7707118743	-1.1284345992	-0.142013
C	 0.0201482351	-2.1046751803	-0.747032516	 0.024453
C	-0.0197031271	-3.2675691987	-1.5401277217	 0.205867
C	-0.0605504264	-4.2908689981	-2.1774435059	-0.438664
C	 0.1499091713	-2.0394636086	 0.6752677642	 0.296234
N	 0.3296935966	-3.1131556406	 1.5272403893	-0.599784
N	 0.1373101985	-0.7867776287	 1.1143193331	-0.348467
H	 0.9086069443	 1.7786003186	 0.5460262465	 0.148915
H	-0.1560917184	 1.8450475424	-0.8821608273	 0.138179
H	-0.8552343141	 1.7164829618	 0.7524055183	 0.147962
H	-0.1707466225	-0.3279773239	-2.1059277154	 0.138604
H	-0.0827960966	-5.1833587947	-2.7513913815	 0.181423
H	-0.0720635656	-3.9747734677	 1.1860562032	 0.25512
H	 0.0726493952	-2.9160487823	 2.4840095891	 0.253325
61.8067	124.1658	136.4225	192.3108	274.673	310.6261	329.0784	403.6703	470.2806	513.2652	536.2257	588.5022	605.696	619.3546	665.2236	670.0178	752.7266	800.1914	824.6373	1009.3978	1072.9896	1136.6496	1152.1409	1196.0513	1220.4294	1331.7881	1414.5331	1456.5312	1469.5579	1484.8444	1535.3177	1537.1579	1609.1634	1646.5492	2223.6488	3044.255	3106.6926	3145.1471	3263.1942	3503.9041	3560.9002	3665.2273
CN1C=C(C#C)C(N)=N1	Cn1cc(C#C)c(N)n1	
InChI=1S/C6H7N3/c1-3-5-4-9(2)8-6(5)7/h1,4H,2H3,(H2,7,8)	InChI=1S/C6H7N3/c1-3-5-4-9(2)8-6(5)7/h1,4H,2H3,(H2,7,8)
