16
gdb 85104	2.02385	1.60653	1.25117	3.4476	71.16	-0.2818	-0.0133	0.2685	1076.8	0.123818	-434.071096	-434.062099	-434.061154	-434.104786	32.652	
C	 0.1584113773	 1.522655416	-0.1797689433	-0.408156
C	-0.0730394356	 0.0625385153	 0.1105441287	 0.126725
O	 0.5682635799	-0.8155696075	-0.8864843722	-0.263338
C	 1.3440072159	-1.4240091681	 0.0559667898	 0.437497
N	 2.2405524877	-2.2929584429	-0.0042193319	-0.538987
C	 0.7895255303	-0.6229262723	 1.2360591812	 0.002764
N	 1.8147618799	 0.1890809049	 1.8641132268	-0.556394
C	-0.0129943579	-1.4076676977	 2.1815082688	 0.239166
N	-0.6473395207	-1.9796700807	 2.9607772467	-0.332689
H	 1.2241581632	 1.7555197198	-0.1781614706	 0.150948
H	-0.2710694451	 1.7760489134	-1.1532620943	 0.138527
H	-0.3335596067	 2.1367510621	 0.5813751759	 0.131205
H	-1.1339150044	-0.1906505013	 0.1733304289	 0.115023
H	 2.4155948155	-2.6068579181	-0.9596315844	 0.241432
H	 1.500496789	 0.5504127932	 2.7588924363	 0.250508
H	 2.6340097318	-0.3879279063	 2.0315265237	 0.265766
81.2353	123.6341	163.117	200.9127	229.5618	252.3822	271.2025	333.0459	416.1403	491.166	550.7122	594.5531	633.8496	689.357	757.9678	845.484	866.0247	866.7922	917.9093	1020.1974	1023.3315	1067.1769	1100.5431	1168.5923	1218.3071	1242.5822	1295.8533	1349.7603	1377.8746	1413.2652	1481.8091	1487.0838	1651.1138	1833.9614	2347.7437	3049.1868	3089.5215	3117.1813	3151.549	3490.0473	3502.3889	3585.8962
CC1OC(=N)C1(N)C#N	C[C@H]1O[C]([NH])[C@]1(N)C#N	
InChI=1S/C5H7N3O/c1-3-5(8,2-6)4(7)9-3/h3,7H,8H2,1H3	InChI=1S/C5H7N3O/c1-3-5(8,2-6)4(7)9-3/h3,7H,8H2,1H3/t3-,5+/m1/s1
