18
gdb 46372	3.50163	1.16221	0.91976	4.1904	72.7	-0.2323	0.0064	0.2387	1251.9053	0.148363	-439.076029	-439.067914	-439.06697	-439.109708	29.482	
O	 0.0384768447	 0.1418053126	 0.3911738759	-0.327037
C	-0.0371862036	 1.2852395417	 0.0770068573	 0.47397
O	-1.1411349044	 1.9769788644	-0.3425159015	-0.238951
C	-0.3879079056	 3.2325796354	-0.4309618235	-0.095174
C	 0.9036069923	 2.4999485477	-0.0145851776	-0.168968
N	 1.491249432	 2.8766366279	 1.2393611035	-0.080019
C	 2.4703527563	 3.9871275288	 1.2676563309	-0.164724
C	 3.2750314995	 3.2031382456	 2.3313549474	-0.230535
C	 2.482105108	 1.9610494215	 1.8583849237	-0.153326
H	-0.4250446961	 3.6329581839	-1.4454772325	 0.123583
H	-0.7556038603	 3.9545039996	 0.2996621581	 0.131872
H	 1.6349301547	 2.3958024744	-0.8376249225	 0.087189
H	 3.0258875744	 4.0903051156	 0.3204702476	 0.087199
H	 2.0535429926	 4.961871974	 1.5401968874	 0.106402
H	 4.3583026137	 3.17688672	 2.2153018299	 0.11008
H	 3.0239051058	 3.499985691	 3.3508766031	 0.119111
H	 2.0677524336	 1.2825952105	 2.6079179391	 0.122202
H	 3.0407736324	 1.3695925853	 1.1168968238	 0.097125
58.1904	105.5363	122.8536	163.7551	274.7028	313.346	386.7478	519.5248	604.7238	721.037	749.8669	792.9365	841.8332	913.5237	924.2851	941.7285	948.1207	961.1854	1026.6976	1060.7433	1104.1991	1128.1474	1135.5887	1146.1268	1164.1127	1212.3608	1214.601	1239.2485	1258.1772	1270.0208	1295.8532	1323.3691	1345.1766	1384.6728	1488.5731	1503.7557	1506.4839	1530.8692	1937.7784	2928.6716	2963.3826	2990.1637	3065.3286	3079.3345	3087.4222	3095.3895	3146.7643	3147.0661
O=C1OCC1N1CCC1	O=C1OC[C@H]1N1CCC1	
InChI=1S/C6H9NO2/c8-6-5(4-9-6)7-2-1-3-7/h5H,1-4H2	InChI=1S/C6H9NO2/c8-6-5(4-9-6)7-2-1-3-7/h5H,1-4H2/t5-/m1/s1
