20
gdb 107001	2.94658	1.24636	1.04552	1.9801	75.06	-0.2335	0.0585	0.292	1213.2661	0.169595	-440.230681	-440.221038	-440.220094	-440.265169	35.671	
C	-0.2801166324	 1.5064224158	 0.0705491446	-0.410099
C	 0.0794065982	 0.0334870613	 0.0238109498	 0.031793
C	 1.1552424399	-0.4788034807	-0.9913731904	 0.007846
O	 1.9063050897	 0.4675355855	-1.7235442721	-0.428726
C	 1.9035832644	-1.0300187825	 0.2132796508	 0.314599
C	 2.5164797209	-2.3985774368	 0.2890057317	-0.174238
O	 3.6111842556	-2.5339900817	-0.605960056	-0.410769
C	 2.1991649623	 0.071710617	 1.1561920282	-0.294228
N	 0.8528613648	-0.5322398506	 1.1968364342	-0.190799
H	 0.5986113582	 2.1537606622	 0.0262869649	 0.128825
H	-0.9227837335	 1.7657589437	-0.7781500107	 0.112374
H	-0.8319975389	 1.7298207341	 0.9891922813	 0.129092
H	-0.8329917063	-0.5651320188	-0.0566544919	 0.081448
H	 0.7727057643	-1.2714223701	-1.6453037549	 0.078282
H	 1.406983484	 0.7093049455	-2.5099769043	 0.286642
H	 2.8000127125	-2.6157489841	 1.3309887018	 0.09395
H	 1.7904856794	-3.1608160209	-0.0155617825	 0.11001
H	 4.1991543262	-1.7849917054	-0.4608307885	 0.286012
H	 2.7861134222	-0.1781040033	 2.0355334247	 0.118428
H	 2.3394398885	 1.0822133898	 0.7875389994	 0.129556
59.5059	100.5709	174.8346	185.8096	211.3865	244.9284	268.8711	317.8517	339.6376	384.8768	448.0789	533.744	590.9517	714.3148	730.6147	801.7441	827.3286	869.0534	924.2587	970.3462	991.1781	1027.2895	1065.9207	1091.8374	1113.548	1126.1716	1138.7185	1177.2097	1187.0743	1193.862	1268.7277	1284.1155	1326.9516	1342.3637	1376.7024	1391.0105	1407.7081	1428.57	1446.2479	1486.6456	1494.7613	1505.0449	1513.3972	2982.6003	3029.2574	3037.8071	3059.1939	3063.3999	3100.313	3120.9912	3127.2963	3211.0555	3808.727	3819.26
CC1C(O)C2(CO)CN12	C[C@H]1[C@@H](O)[C@@]2(CO)CN12	
InChI=1S/C6H11NO2/c1-4-5(9)6(3-8)2-7(4)6/h4-5,8-9H,2-3H2,1H3	InChI=1S/C6H11NO2/c1-4-5(9)6(3-8)2-7(4)6/h4-5,8-9H,2-3H2,1H3/t4-,5+,6-,7?/m0/s1
