15
gdb 44899	4.12364	1.20471	1.1224	2.1938	69.85	-0.245	-0.04	0.205	1065.2406	0.114361	-416.790375	-416.7834	-416.782456	-416.8219	26.962	
O	 0.0327495846	 0.057377033	 0.0238060845	-0.310782
C	 0.0274405401	 1.2547978783	 0.0162319621	 0.41421
C	-1.1630445343	 2.2459030931	 0.0596940935	-0.293623
N	-0.4501773489	 3.5551595289	 0.0147938522	-0.118193
C	 0.589950169	 3.2591020739	-1.0566705818	-0.21146
C	 1.194505743	 2.2417150143	-0.0449530673	-0.138579
C	 0.6679068828	 3.2683992469	 1.0171807088	-0.146815
C	 1.5283254475	 4.4182233675	 1.2600523646	 0.301813
N	 2.2324423515	 5.3097682353	 1.4712940978	-0.317013
H	-1.8243469071	 2.1386685417	-0.8034936188	 0.146464
H	-1.7578485065	 2.1438547786	 0.9712963095	 0.144014
H	 0.1853055641	 2.8856597518	-1.9997551203	 0.128034
H	 1.2179062592	 4.1338451049	-1.2290226068	 0.154748
H	 2.2055747279	 1.8424697639	-0.0669080296	 0.1123
H	 0.3198691373	 2.873505328	 1.9762143817	 0.134883
122.6438	152.3358	197.2291	385.479	429.5046	460.187	524.1631	544.0835	602.5276	617.2552	760.6027	824.5915	852.5073	862.0607	888.1212	977.4206	980.0713	1007.552	1034.9348	1056.9957	1130.291	1148.3194	1172.3411	1197.9066	1223.5737	1237.7783	1259.2844	1289.5054	1369.7909	1468.0748	1522.2663	1885.3821	2360.7391	3070.7328	3074.8338	3079.7331	3124.8309	3146.0245	3157.1769
O=C1CN2CC1C2C#N	O=C1CN2C[C@H]1[C@H]2C#N	
InChI=1S/C6H6N2O/c7-1-5-4-2-8(5)3-6(4)9/h4-5H,2-3H2	InChI=1S/C6H6N2O/c7-1-5-4-2-8(5)3-6(4)9/h4-5H,2-3H2/t4-,5+/m0/s1
