18
gdb 73111	2.66698	1.56837	1.29626	5.1749	71.59	-0.2389	0.0187	0.2575	1038.0823	0.148413	-439.118055	-439.110193	-439.109249	-439.15043	30.475	
C	-0.0957288523	 1.555531955	 0.0338927052	-0.459276
C	 0.0267912599	 0.049463392	 0.0336106165	 0.397372
C	-1.2140464346	-0.8224237236	 0.3390299473	-0.20708
N	-0.3661909965	-1.7043141708	 1.1790648635	-0.322993
C	 0.7418359395	-0.7169931908	 1.1888067702	-0.055359
C	 2.0321144857	-1.2423890497	 0.5879281068	-0.355763
C	 1.8025925623	-1.1321512741	-0.9203425241	 0.416434
O	 2.4636286792	-1.5885018871	-1.8044419365	-0.329806
O	 0.6889009838	-0.3772227452	-1.1663014611	-0.260267
H	 0.8919159064	 2.0235272453	-0.0252629862	 0.128228
H	-0.6813032829	 1.8922119285	-0.8272593932	 0.138886
H	-0.5911229213	 1.9018575044	 0.9454868135	 0.11984
H	-1.9842583936	-0.2616763201	 0.8848137758	 0.095531
H	-1.6716415893	-1.3203080536	-0.521242892	 0.120339
H	-0.7467357299	-1.9383372485	 2.0877937752	 0.223953
H	 0.867048726	-0.1518192524	 2.1178707112	 0.072397
H	 2.9058185367	-0.6357237923	 0.8502890328	 0.131928
H	 2.2422968309	-2.279557407	 0.853595285	 0.145635
96.3949	126.1648	209.734	252.1215	321.4007	379.6314	408.1323	498.3967	556.6374	593.4022	627.3199	682.4333	725.0628	830.0341	849.9971	899.1037	947.1883	962.428	983.3958	1009.7811	1024.0837	1068.8063	1125.3143	1135.6966	1149.0103	1197.1707	1207.4684	1255.4276	1262.367	1288.6589	1341.6039	1365.1153	1383.1539	1414.6023	1444.3911	1484.864	1490.7394	1506.9009	1886.6785	3012.7021	3039.3973	3048.0969	3063.283	3081.0593	3111.6717	3117.8453	3129.8581	3551.0635
CC12CNC1CC(=O)O2	C[C@]12CN[C@H]1CC(=O)O2	
InChI=1S/C6H9NO2/c1-6-3-7-4(6)2-5(8)9-6/h4,7H,2-3H2,1H3	InChI=1S/C6H9NO2/c1-6-3-7-4(6)2-5(8)9-6/h4,7H,2-3H2,1H3/t4-,6-/m0/s1
