17
gdb 17129	6.99241	1.13877	1.02879	2.5539	70.24	-0.2321	-0.0235	0.2086	1121.5301	0.141277	-363.833861	-363.826316	-363.825372	-363.866119	28.168	
O	-0.085839703	-0.0072063046	-0.0450983399	-0.277748
C	-0.0376422659	 1.1780853494	 0.0809990748	 0.387946
C	-1.0656086822	 2.2966425887	 0.3088059551	-0.284785
N	 0.0720850685	 3.2095640446	 0.5828661977	-0.087189
C	 1.0806091917	 2.2310399494	 0.1051112556	-0.284785
C	 0.0548286422	 4.5049485079	-0.0161763495	 0.060006
C	-0.5971441141	 5.6293546102	 0.7443895187	-0.276188
C	 0.9049715944	 5.5834461815	 0.6018204493	-0.276188
H	-1.6231077554	 2.5259233113	-0.6141158178	 0.117668
H	-1.7777702624	 2.1690820974	 1.1305698264	 0.132107
H	 1.9254771651	 2.0558862277	 0.7791000526	 0.132106
H	 1.4675491641	 2.4314533126	-0.907445586	 0.117668
H	-0.0479760525	 4.5306572604	-1.1076497435	 0.068516
H	-1.1505338177	 6.3736483282	 0.1832585943	 0.114248
H	-1.0113410308	 5.3865114512	 1.7158621643	 0.121185
H	 1.478912442	 5.3103947834	 1.4795023669	 0.121184
H	 1.387041296	 6.2961017907	-0.0575823788	 0.114249
78.7847	87.4277	184.4624	257.7338	353.1895	410.9966	431.4181	518.6054	621.111	734.3947	765.9669	784.5311	831.5335	894.0416	951.1009	955.4512	1045.629	1052.6516	1059.9424	1076.99	1079.4215	1090.3664	1116.9391	1132.1529	1158.7857	1196.2029	1216.1855	1257.4666	1257.6265	1319.031	1403.8236	1455.9044	1457.1852	1481.9895	1500.3806	1921.9009	2976.2016	2985.1677	3019.4387	3071.7585	3072.3095	3140.2062	3144.6435	3224.4701	3237.8491
O=C1CN(C1)C1CC1	O=C1CN(C1)C1CC1	
InChI=1S/C6H9NO/c8-6-3-7(4-6)5-1-2-5/h5H,1-4H2	InChI=1S/C6H9NO/c8-6-3-7(4-6)5-1-2-5/h5H,1-4H2
