16
gdb 54160	2.19771	1.48429	1.13023	2.9802	70.22	-0.265	-0.047	0.218	1120.0074	0.120445	-437.896937	-437.887384	-437.886439	-437.931765	33.438	
C	 0.3836704522	 0.8772649124	-0.8255227151	-0.499364
C	-0.0690857424	 0.1080480628	 0.391968891	 0.326465
O	 0.4765589059	 0.1813375413	 1.4679705254	-0.288451
C	-1.3142269108	-0.7696827716	 0.2701934512	 0.270424
C	-2.1537133276	-0.864397123	 1.5219320103	-0.462772
O	-2.021092035	-0.6956700509	-0.9749189774	-0.254883
C	-1.3345615303	-1.9087644122	-0.6927526613	-0.141093
C	-0.2194956243	-2.2621602357	-1.5452546276	 0.314462
N	 0.66030981	-2.5801625893	-2.2241030782	-0.32716
H	 1.2244906721	 1.5126916718	-0.5467788943	 0.147259
H	 0.6864891874	 0.1985452265	-1.6287012608	 0.175128
H	-0.4403963165	 1.4805699796	-1.2190515091	 0.154953
H	-2.5548215196	 0.1207554272	 1.7779847017	 0.144548
H	-2.9890795555	-1.5530486523	 1.3786076638	 0.130847
H	-1.5338215418	-1.1997883658	 2.3553076815	 0.162187
H	-1.9710783837	-2.7564049908	-0.4419467411	 0.14745
52.8273	108.7343	134.2587	139.6251	176.9636	243.4447	275.6395	313.3671	363.8675	465.8431	499.9784	519.8059	589.3657	636.1822	659.5614	799.6788	883.075	949.5746	975.3998	1039.7691	1053.3965	1058.5631	1111.1894	1143.7388	1282.8703	1331.1872	1390.1785	1406.1261	1416.3638	1455.7519	1470.6664	1475.753	1493.0821	1807.6093	2359.2001	3051.5418	3055.1957	3116.695	3124.3233	3126.8432	3150.7721	3161.3012
CC(=O)C1(C)OC1C#N	CC(=O)[C@@]1(C)O[C@H]1C#N	
InChI=1S/C6H7NO2/c1-4(8)6(2)5(3-7)9-6/h5H,1-2H3	InChI=1S/C6H7NO2/c1-4(8)6(2)5(3-7)9-6/h5H,1-2H3/t5-,6+/m0/s1
