18
gdb 97756	4.19421	0.65238	0.6275	4.0232	83.27	-0.2452	0.0277	0.2729	1829.0805	0.146505	-401.948926	-401.939266	-401.938322	-401.986521	33.779	
C	 0.4232421326	 1.2735631134	 0.3900272263	-0.365732
C	-0.4100783649	 0.2317084889	-0.3786660672	-0.315708
C	 0.3375444221	-0.429153813	-1.443156323	 0.073292
C	 0.979169734	-0.9602741598	-2.31410358	 0.088143
C	 1.7335978015	-1.6107573684	-3.373177642	-0.148271
C	 3.1760615746	-1.0651402351	-3.6634010881	-0.386619
C	 3.6738975144	-2.4602830513	-3.2148305495	 0.428822
O	 4.7388546341	-2.9974205673	-3.082061659	-0.352625
N	 2.3818763448	-2.886611397	-3.0153169228	-0.30613
H	 1.2957948308	 0.806883559	 0.8547525098	 0.131571
H	 0.7783108322	 2.0595800691	-0.2818060526	 0.129535
H	-0.179874249	 1.7377958725	 1.1757138463	 0.117725
H	-0.7863687575	-0.5262015271	 0.3203949848	 0.133083
H	-1.2989227867	 0.7130594115	-0.8061534819	 0.132682
H	 1.1201664204	-1.6986453226	-4.277212041	 0.11032
H	 3.3800856852	-0.8169289995	-4.705883591	 0.134603
H	 3.4895843695	-0.2493281267	-3.0121009677	 0.141515
H	 2.0083286719	-3.7194262265	-2.5837593613	 0.253796
8.114	44.7866	89.5199	130.9852	205.647	238.0226	340.4529	372.2819	392.4023	457.195	528.8664	552.3205	568.8087	702.3527	761.2926	784.2996	863.4512	952.611	967.6815	998.2418	1014.4726	1079.5662	1102.4342	1107.9226	1159.8486	1189.0917	1197.3004	1259.7963	1285.7323	1349.6438	1366.032	1377.4215	1409.3959	1455.5995	1473.0337	1494.9326	1505.2793	1899.962	2362.2566	3021.0961	3034.6148	3045.5864	3048.8044	3094.9015	3119.5876	3125.1169	3159.422	3610.2957
CCC#CC1CC(=O)N1	CCC#C[C@H]1CC(=O)N1	
InChI=1S/C7H9NO/c1-2-3-4-6-5-7(9)8-6/h6H,2,5H2,1H3,(H,8,9)	InChI=1S/C7H9NO/c1-2-3-4-6-5-7(9)8-6/h6H,2,5H2,1H3,(H,8,9)/t6-/m0/s1
