17
gdb 85344	2.87937	1.23539	0.90846	3.73	87.43	-0.2395	-0.0698	0.1698	1252.1804	0.13486	-384.706413	-384.697781	-384.696837	-384.74	32.348	
C	-0.0787052484	 1.5471935672	 0.0700282977	-0.399792
C	 0.040408138	 0.0178989883	 0.0160165518	-0.109155
C	 0.8102243426	-0.5160667435	-1.2093306588	-0.354082
C	 1.961492993	-1.3685103171	-0.6539827034	 0.398272
O	 2.778998602	-1.9744446641	-1.3076376785	-0.333592
C	 1.8736995823	-1.3042837257	 0.8182675957	-0.312522
C	 0.8226277625	-0.5517917455	 1.2013240119	 0.182123
C	 0.4269024183	-0.2863292855	 2.5312802801	 0.248189
C	 0.0528424592	-0.0396603857	 3.650429522	-0.39115
H	 0.9105814287	 2.0157286755	 0.0328769342	 0.122937
H	-0.6612385753	 1.9147308862	-0.7799590324	 0.123096
H	-0.5732371395	 1.8714710687	 0.9900298201	 0.130629
H	-0.9724970421	-0.4025333477	 0.0494199909	 0.100431
H	 0.1926961235	-1.1270550151	-1.8737014298	 0.134644
H	 1.2282732644	 0.2911671471	-1.8195738899	 0.133665
H	 2.570781756	-1.8108893935	 1.4724444404	 0.120714
H	-0.2624178553	 0.1674510804	 4.643583188	 0.205592
59.3931	117.4399	139.7341	238.677	262.4809	315.7896	381.0043	442.7014	511.8619	557.324	564.5385	608.2241	635.134	644.2443	677.6505	780.5642	850.2874	889.6454	924.9097	934.4624	1039.1215	1077.8363	1108.8784	1148.1089	1183.444	1211.7104	1255.2834	1283.7921	1317.3298	1338.118	1408.6993	1454.1817	1496.308	1500.829	1633.7787	1808.2924	2216.2591	3025.4918	3036.7108	3060.1841	3102.521	3108.7309	3117.1431	3229.3406	3498.6167
CC1CC(=O)C=C1C#C	C[C@H]1CC(=O)C=C1C#C	
InChI=1S/C8H8O/c1-3-7-5-8(9)4-6(7)2/h1,5-6H,4H2,2H3	InChI=1S/C8H8O/c1-3-7-5-8(9)4-6(7)2/h1,5-6H,4H2,2H3/t6-/m0/s1
