19
gdb 108574	2.52035	1.5024	1.20305	0.8138	70.76	-0.2488	0.0748	0.3236	1102.2515	0.158615	-460.135022	-460.126102	-460.125158	-460.16882	32.792	
C	-0.0002437472	 1.5112628562	-0.1078244368	-0.409244
C	 0.1121595622	 0.0074168026	-0.0329767654	-0.116052
C	 1.4448433921	-0.7201897959	-0.1270821809	-0.001857
O	 2.5967579346	 0.0696424432	 0.0759128248	-0.252686
C	 2.7690106143	 0.1169214316	 1.4774018356	 0.013001
O	 1.469913705	 0.078976216	 2.0532286755	-0.305579
C	 0.6918462551	-0.7181987013	 1.1669371322	 0.355732
C	 0.0472604297	-1.8941380913	 1.8493649652	-0.15343
O	 0.9903544993	-2.6673401094	 2.5683604909	-0.416152
H	-0.025367936	 1.8444668863	-1.1501903932	 0.121193
H	-0.9177314682	 1.8557336489	 0.3797955175	 0.119353
H	 0.8451659131	 1.9959443907	 0.381925962	 0.135033
H	-0.7030833888	-0.5365992795	-0.5081838308	 0.088388
H	 1.5892642728	-1.5939312477	-0.7541729171	 0.107231
H	 3.3591433151	-0.7485631933	 1.8224545625	 0.095209
H	 3.2567842945	 1.0567038962	 1.7501013485	 0.121077
H	-0.7611410549	-1.5377120427	 2.5079151324	 0.098047
H	-0.405711906	-2.5520558576	 1.1009133481	 0.111735
H	 1.4109927034	-2.060826293	 3.1886054791	 0.289001
90.3626	105.4602	134.3236	182.2163	201.5583	277.6693	282.0257	360.1547	422.9529	533.2949	614.3713	645.3519	722.5372	766.7135	831.3059	886.9517	933.178	963.2547	1003.88	1017.1606	1045.0677	1069.1391	1083.3943	1115.2484	1130.0087	1141.2795	1177.157	1193.2879	1230.0752	1246.0911	1281.2659	1334.103	1377.0436	1412.3768	1417.9068	1429.1202	1458.4015	1488.7517	1495.5641	1500.4825	1534.0838	2963.15	2977.5299	3043.7415	3079.4313	3096.3718	3101.0302	3119.1208	3145.7019	3162.1245	3801.2968
CC1C2OCOC12CO	C[C@H]1[C@H]2OCO[C@@]12CO	
InChI=1S/C6H10O3/c1-4-5-6(4,2-7)9-3-8-5/h4-5,7H,2-3H2,1H3	InChI=1S/C6H10O3/c1-4-5-6(4,2-7)9-3-8-5/h4-5,7H,2-3H2,1H3/t4-,5+,6-/m0/s1
