18
gdb 15803	3.77339	1.12745	0.9371	1.8964	68.81	-0.2487	-0.0248	0.2239	1266.4899	0.15143	-384.939079	-384.930134	-384.929189	-384.973668	31.174	
C	-0.9466571287	 1.0025164618	-0.3662134303	-0.387885
C	 0.1734779887	 0.0360183246	 0.0249826431	-0.164066
C	 0.6769126569	-0.7908088956	-1.1576356225	-0.290647
C	 1.819684595	-1.7223305677	-0.7997462337	 0.347692
O	 2.3488753397	-1.7411603032	 0.2892474168	-0.308518
C	 2.3279157421	-2.648719607	-1.875317224	-0.004515
C	 1.4223204966	-3.5774183858	-2.5834874271	-0.176876
O	 1.9176453507	-2.4106742567	-3.222956904	-0.217276
H	-0.611769293	 1.7131287242	-1.1301995344	 0.11527
H	-1.8136301297	 0.4685395177	-0.7717215379	 0.112282
H	-1.2878371945	 1.5803858488	 0.4980591887	 0.116075
H	 1.0157335391	 0.5866975577	 0.4567579202	 0.115708
H	-0.1709956776	-0.6405869154	 0.8151422783	 0.108471
H	-0.1366369966	-1.3754542376	-1.6087489251	 0.11989
H	 1.0301151201	-0.1467938463	-1.9754815589	 0.138385
H	 3.3660672006	-2.948523974	-1.7396914495	 0.118827
H	 1.824558946	-4.5229874471	-2.9427323886	 0.132275
H	 0.3579993046	-3.5764107383	-2.3551225112	 0.124908
53.6373	81.3772	101.7822	129.013	244.2489	249.716	268.5601	347.0918	488.7758	553.7582	570.2936	743.3093	804.0129	864.1956	876.9977	898.0514	922.8112	960.52	1051.7193	1074.9249	1112.8221	1122.198	1149.5825	1164.2295	1195.5104	1245.417	1263.1941	1318.1585	1329.6282	1387.9758	1401.2157	1415.8716	1438.4401	1487.6275	1500.3502	1508.0663	1524.0761	1800.0473	3019.6768	3028.8176	3041.385	3047.7102	3075.2071	3090.7258	3099.9389	3104.0512	3132.1503	3181.228
CCCC(=O)C1CO1	CCCC(=O)[C@H]1CO1	
InChI=1S/C6H10O2/c1-2-3-5(7)6-4-8-6/h6H,2-4H2,1H3	InChI=1S/C6H10O2/c1-2-3-5(7)6-4-8-6/h6H,2-4H2,1H3/t6-/m1/s1
