19
gdb 65321	3.76115	1.0476	0.95428	4.9065	81.63	-0.2429	0.0304	0.2733	1273.9805	0.158486	-382.040819	-382.03185	-382.030905	-382.07457	33.686	
C	 0.077798138	 1.3743223035	-0.3471039924	-0.439911
C	 0.1274680996	-0.0960121082	 0.0074707476	 0.32111
C	 1.4612116025	-0.7981074686	-0.0351545522	-0.337084
C	 0.7890007843	-0.5245155433	 1.3104595818	-0.21483
C	 1.3426427384	 0.4382483272	 2.218228153	 0.294577
N	 1.790131746	 1.2202063595	 2.9447187118	-0.34467
N	-1.12087919	-0.748020531	-0.3152986484	-0.108459
C	-1.2868145445	-1.2721762895	-1.6695161674	-0.219921
C	-1.2018518884	-2.1901988848	-0.5005345213	-0.237831
H	 0.9743900713	 1.8993266892	-0.0107293398	 0.137734
H	-0.0064641793	 1.495897454	-1.4319656738	 0.121806
H	-0.7944808151	 1.8419175397	 0.1173620109	 0.141045
H	 1.5330490176	-1.8375314431	-0.3335570548	 0.126813
H	 2.3327611535	-0.2029797461	-0.2820373662	 0.137786
H	 0.3392420453	-1.3838636137	 1.7970961314	 0.135803
H	-2.2397942059	-1.061618647	-2.1453245291	 0.124966
H	-0.4236049084	-1.2470346227	-2.3323698684	 0.117881
H	-0.3038395423	-2.7971894862	-0.4129342508	 0.116073
H	-2.0964403428	-2.6534156789	-0.0947283318	 0.127114
67.4753	118.087	141.1299	210.2829	241.9492	276.3457	322.9895	367.2985	442.445	471.9215	554.1074	585.2249	669.3696	777.8211	817.9655	839.6626	888.3963	906.0687	927.6228	960.4314	1009.6717	1037.4699	1066.8209	1087.7338	1107.2566	1110.9064	1124.0099	1129.7192	1172.862	1183.4994	1224.3485	1313.6535	1336.3428	1392.0824	1421.2611	1476.1168	1482.4249	1496.9169	1503.942	1524.134	2350.5243	3045.0216	3100.7668	3108.5759	3113.0603	3135.0932	3145.2098	3167.3268	3184.005	3198.0161	3231.7845
CC1(CC1C#N)N1CC1	C[C@]1(C[C@H]1C#N)N1CC1	
InChI=1S/C7H10N2/c1-7(9-2-3-9)4-6(7)5-8/h6H,2-4H2,1H3	InChI=1S/C7H10N2/c1-7(9-2-3-9)4-6(7)5-8/h6H,2-4H2,1H3/t6-,7+/m0/s1
