17
gdb 34301	3.41891	1.46116	1.31174	1.3442	73.73	-0.2466	0.0289	0.2755	1000.686	0.136708	-421.78721	-421.779916	-421.778972	-421.81868	29.363	
C	 0.0860769388	-1.139821866	 0.0237651416	-0.330283
C	 0.038702358	 0.0600501181	 0.0024220781	 0.131659
C	-0.0604871639	 1.5023344603	-0.0001235777	 0.268471
C	-0.8394323854	 2.1273328742	 1.181692044	-0.109961
O	-1.0791468334	 3.4746047059	 0.7361099299	-0.282607
C	-0.4721155286	 3.5745447447	-0.5596710141	 0.036208
C	 1.0464173297	 3.4909860892	-0.3701977547	-0.079755
O	 1.2501782355	 2.1099941465	-0.0012686442	-0.321087
C	-0.759768914	 2.2051654785	-1.1864368871	-0.271342
H	 0.137344754	-2.2006068723	 0.0363637384	 0.189279
H	-1.790941241	 1.6194318852	 1.3777288957	 0.108617
H	-0.2258317127	 2.1238465007	 2.0878344653	 0.117375
H	-0.8458932209	 4.4678015744	-1.058432026	 0.088777
H	 1.6094732426	 3.7169356793	-1.2848761974	 0.102024
H	 1.3847166838	 4.1485982715	 0.4370821319	 0.113571
H	-0.2507472069	 2.0156348968	-2.1322643223	 0.119753
H	-1.8248648155	 1.983824443	-1.2624903514	 0.119299
141.0291	152.7254	216.6115	368.9398	419.5939	447.8668	509.854	522.8249	538.7738	614.7406	628.9992	679.5985	781.0457	815.6013	865.4907	908.8707	924.2305	944.9351	963.9171	992.5819	1022.9032	1060.4857	1105.6713	1122.5526	1165.1687	1196.7263	1206.2096	1218.1719	1272.7909	1281.948	1317.6024	1364.724	1380.0911	1480.0393	1510.9106	1517.7179	2249.7408	3018.9174	3030.6147	3076.8437	3086.4141	3090.5442	3135.4175	3155.2624	3502.0329
C#CC12COC(CO1)C2	C#C[C@@]12CO[C@@H](CO1)C2	
InChI=1S/C7H8O2/c1-2-7-3-6(4-9-7)8-5-7/h1,6H,3-5H2	InChI=1S/C7H8O2/c1-2-7-3-6(4-9-7)8-5-7/h1,6H,3-5H2/t6-,7-/m1/s1
