22
gdb 122431	5.22269	0.58164	0.55568	2.6446	80.24	-0.2201	0.0773	0.2974	1997.5014	0.193143	-441.444265	-441.434079	-441.433135	-441.480363	36.721	
O	-0.143223563	 1.4766144615	-0.1449962815	-0.42036
C	 0.0036379451	 0.0658302341	-0.0877688562	-0.072135
C	-1.3885343417	-0.5438959269	 0.005846366	-0.172891
C	-1.3623995406	-2.0695262895	 0.100536452	-0.147373
N	-2.6983535865	-2.6260638021	 0.158773361	-0.084205
C	-3.5059353219	-2.4479613119	 1.3860700505	-0.203461
C	-4.1043549397	-3.8573273509	 1.1365585714	 0.145875
O	-5.3327786501	-3.871532905	 0.4503325876	-0.437808
C	-2.8524946743	-4.0926024492	 0.2510814232	-0.20416
H	 0.732806711	 1.8678448561	-0.2082354714	 0.285348
H	 0.5192552526	-0.31780197	-0.9838402796	 0.084093
H	 0.6045642454	-0.2367895614	 0.785830333	 0.084143
H	-1.8914282535	-0.1217287841	 0.8841606208	 0.110007
H	-1.9734757424	-0.2434027268	-0.8698809687	 0.113466
H	-0.8637600633	-2.4885967308	-0.7835268266	 0.099681
H	-0.7598453176	-2.3795768216	 0.9799280509	 0.070108
H	-2.8978426476	-2.4104014655	 2.306250208	 0.083087
H	-4.2030157317	-1.6034557894	 1.3792307013	 0.104678
H	-4.2278583558	-4.505140758	 2.0047482653	 0.091125
H	-5.2355217963	-3.2976063084	-0.3185343616	 0.287605
H	-3.0040707436	-4.6119582325	-0.7017716824	 0.100537
H	-2.0366770745	-4.5850104675	 0.8075225169	 0.082641
63.018	73.481	81.6817	129.5824	153.531	264.3058	269.6254	291.3406	353.7587	392.0829	425.9114	440.4748	497.3858	731.9225	772.3746	843.7808	859.9725	885.4784	933.927	1001.5224	1010.5298	1021.3281	1047.2241	1066.0091	1092.2162	1123.991	1136.0689	1162.0585	1189.0539	1221.4636	1228.0733	1247.4693	1258.8922	1275.7952	1307.6369	1313.8416	1322.5899	1325.7152	1336.0206	1416.3337	1441.9776	1465.1968	1489.9111	1492.9867	1503.3159	1522.4003	1530.5783	2884.2603	2952.7954	2957.1318	2963.685	2981.4722	3029.2196	3042.1078	3059.194	3066.036	3088.9666	3115.0528	3795.6541	3830.3755
OCCCN1CC(O)C1	OCCCN1CC(O)C1	
InChI=1S/C6H13NO2/c8-3-1-2-7-4-6(9)5-7/h6,8-9H,1-5H2	InChI=1S/C6H13NO2/c8-3-1-2-7-4-6(9)5-7/h6,8-9H,1-5H2
