19
gdb 46374	3.41338	1.08348	0.88541	3.3794	76.66	-0.2309	0.0191	0.25	1312.697	0.160785	-419.175022	-419.166641	-419.165697	-419.208619	31.23	
N	-0.2742623787	 1.300095732	 0.194271215	-0.543124
C	-0.1399648912	 0.0534528178	 0.1364305407	 0.444243
O	 0.9735921805	-0.7354057216	 0.3096050365	-0.248389
C	 0.1658595076	-1.9548496474	 0.2491898642	-0.111663
C	-1.0969401198	-1.1119512763	-0.045335873	-0.113936
C	-2.2915298724	-1.1754134252	 0.9140545407	-0.262207
C	-3.5046755381	-0.422420222	 0.3975640493	 0.018314
C	-4.2363295488	 0.5287831143	 1.272985559	-0.242409
N	-3.4540410338	 1.0205437893	 0.1333951769	-0.313018
H	 0.6095507074	 1.7733954144	 0.3856453012	 0.232505
H	 0.5163780199	-2.6193946872	-0.5431822716	 0.124784
H	 0.1760639359	-2.4699889243	 1.2138171898	 0.122517
H	-1.4284925095	-1.2103407327	-1.0829356203	 0.118373
H	-2.5683795494	-2.2258957107	 1.0706917351	 0.106765
H	-1.985621025	-0.7817068287	 1.8905632554	 0.106571
H	-4.0751535288	-0.9711926158	-0.3518687638	 0.086219
H	-5.3132877512	 0.6447316946	 1.1811586223	 0.112178
H	-3.8534074827	 0.6776684393	 2.2806796604	 0.105714
H	-2.5559192916	 1.4090759501	 0.4206817621	 0.256562
80.4018	96.3773	131.6186	199.6611	224.3965	316.1241	389.5305	449.8898	469.2689	661.1924	746.9312	782.2097	819.7457	842.5123	857.7181	890.2555	953.9305	958.1404	968.004	1003.8656	1017.7675	1034.1677	1092.7427	1116.0581	1137.4089	1149.9258	1161.6504	1183.7533	1233.7876	1248.0853	1256.6444	1283.6907	1302.8682	1339.2086	1362.6795	1381.6012	1428.9408	1478.3762	1515.6696	1517.3607	1815.2017	3021.7833	3059.9471	3060.7771	3078.6355	3096.551	3103.1096	3123.5893	3178.7317	3469.4465	3484.493
N=C1OCC1CC1CN1	[NH][C]1OC[C@H]1C[C@H]1CN1	
InChI=1S/C6H10N2O/c7-6-4(3-9-6)1-5-2-8-5/h4-5,7-8H,1-3H2	InChI=1S/C6H10N2O/c7-6-4(3-9-6)1-5-2-8-5/h4-5,7-8H,1-3H2/t4-,5+/m1/s1
