25
gdb 101694	2.48925	0.94251	0.85549	1.6791	89.09	-0.2587	0.0817	0.3404	1559.6306	0.226337	-389.487008	-389.475946	-389.475002	-389.523666	40.783	
C	 0.2539331953	-0.2874127723	 2.0099152718	-0.389494
C	 0.2974389512	-1.3608928745	 0.9172480916	-0.164971
C	 0.7773219323	-0.8552439073	-0.4582086036	 0.033794
C	 2.2418978633	-0.392835846	-0.4258400464	-0.398526
C	 0.600924033	-1.9262909047	-1.5553912448	-0.263368
C	-0.8275446977	-2.3414758637	-1.8717191008	 0.421111
C	-1.7925510576	-1.2522061098	-2.2911780046	-0.460933
C	-1.0759845701	-3.7203062236	-2.3234552804	-0.231193
O	-1.3966838494	-3.3266164704	-0.988090484	-0.272048
H	 1.2453917922	 0.1176492285	 2.2348495321	 0.114426
H	-0.3871289815	 0.5516839585	 1.7150941543	 0.10911
H	-0.1493324098	-0.6978019567	 2.9410742745	 0.11226
H	 0.9518977383	-2.1843263719	 1.2359031001	 0.089777
H	-0.6981675938	-1.8017385174	 0.810311148	 0.122274
H	 0.1639699319	 0.0162219208	-0.7295068568	 0.068811
H	 2.5605991496	-0.0201173073	-1.4052225341	 0.106857
H	 2.3999024104	 0.4109496715	 0.2982951783	 0.114251
H	 2.9068837358	-1.2216553174	-0.1539041899	 0.111405
H	 1.0535064988	-1.5549735268	-2.4852372905	 0.092343
H	 1.1632148475	-2.8243781717	-1.2713039014	 0.097106
H	-1.4148473528	-0.7139001939	-3.1674001146	 0.118791
H	-2.7675030536	-1.6792259481	-2.5380637644	 0.124416
H	-1.9385995288	-0.5231189294	-1.4883359345	 0.130242
H	-1.9303220081	-3.9330620558	-2.9657116578	 0.106273
H	-0.2446850665	-4.4185726908	-2.4189102221	 0.107285
36.8131	69.7591	101.5987	158.0137	200.0372	217.3176	242.8215	263.1657	312.6617	334.0038	360.5527	395.5035	413.8325	460.6231	532.6982	731.3992	764.2744	797.6439	831.0848	895.8668	906.0956	930.939	960.6611	979.7301	1000.8537	1021.0385	1043.8404	1087.9841	1123.7149	1134.6777	1151.86	1167.6639	1186.1195	1239.178	1285.0896	1306.3666	1328.9182	1345.3716	1378.7941	1387.5482	1407.9029	1409.5978	1415.2634	1424.6117	1466.742	1480.5936	1487.3255	1494.8028	1499.5815	1501.5926	1507.5365	1511.9939	1530.6858	2998.5603	3011.0638	3018.6501	3028.1552	3030.6967	3038.2732	3058.4657	3073.958	3080.2061	3090.0613	3095.6719	3102.4819	3105.1771	3113.4089	3123.3457	3157.8338
CCC(C)CC1(C)CO1	CC[C@@H](C)C[C@@]1(C)CO1	
InChI=1S/C8H16O/c1-4-7(2)5-8(3)6-9-8/h7H,4-6H2,1-3H3	InChI=1S/C8H16O/c1-4-7(2)5-8(3)6-9-8/h7H,4-6H2,1-3H3/t7-,8+/m1/s1
