22
gdb 98195	2.41809	1.1724	0.96442	3.1386	80.18	-0.2383	0.0407	0.279	1364.7244	0.190873	-441.518159	-441.506695	-441.505751	-441.555411	40.297	
C	-0.6922971436	 1.4961818766	-0.1904713987	-0.33475
N	-0.9975007258	 0.0818353164	-0.220433619	-0.305722
C	-0.1560881663	-0.8577552171	 0.2677758746	 0.377023
O	 0.9290044468	-0.6184945193	 0.7755335221	-0.409818
C	-0.6521011967	-2.3223073939	 0.1493613802	 0.273886
C	 0.3686377928	-3.0882602069	-0.7059518871	-0.421373
C	-0.7374253383	-2.898025931	 1.5710989918	-0.421245
O	-1.9394962865	-2.2700812974	-0.4801579775	-0.299642
C	-2.6100634783	-3.4911436308	-0.7060538372	-0.250773
H	-0.6579561898	 1.9182090626	-1.2013820967	 0.123563
H	-1.4354284072	 2.0521016033	 0.3925422029	 0.123563
H	 0.2864287157	 1.6116831295	 0.2771711542	 0.167251
H	-1.8623576879	-0.2543131308	-0.6129130257	 0.260955
H	 1.3683906573	-2.9116032662	-0.3051820893	 0.150264
H	 0.1747837589	-4.1645915029	-0.696783424	 0.109744
H	 0.3399100545	-2.7344144271	-1.7409919417	 0.119951
H	-1.5409140145	-2.4106203383	 2.1315895545	 0.119958
H	-0.9211985867	-3.9760917982	 1.5586161065	 0.109714
H	 0.2076540772	-2.7123772198	 2.0846018113	 0.150247
H	-3.5588682677	-3.2391303772	-1.186426287	 0.128051
H	-2.0499781282	-4.1585247143	-1.37401519	 0.114583
H	-2.8258929659	-4.0285404773	 0.2266251959	 0.11457
41.2985	57.4177	85.7626	132.1262	181.7528	184.3915	236.6369	266.8263	283.5941	287.6765	323.5164	356.8257	402.8263	429.31	479.5736	594.265	629.9867	768.8827	779.6128	867.7484	928.8751	943.6735	1015.1754	1071.06	1114.4612	1151.9315	1175.3453	1180.5963	1188.2645	1197.861	1208.603	1230.8934	1302.9532	1382.868	1400.5988	1438.1617	1475.9967	1478.1595	1484.2663	1493.668	1498.8213	1500.5162	1504.0845	1506.887	1516.9659	1570.475	1769.5791	3003.5585	3024.6299	3041.277	3046.5077	3059.4715	3074.7188	3110.8608	3112.3084	3115.8637	3140.0222	3144.1574	3149.1207	3640.1968
CNC(=O)C(C)(C)OC	CNC(=O)C(C)(C)OC	
InChI=1S/C6H13NO2/c1-6(2,9-4)5(8)7-3/h1-4H3,(H,7,8)	InChI=1S/C6H13NO2/c1-6(2,9-4)5(8)7-3/h1-4H3,(H,7,8)
