13
gdb 17512	5.06899	1.84304	1.68123	4.6351	61.8	-0.2603	-0.0089	0.2514	761.7208	0.096157	-361.398232	-361.392314	-361.391369	-361.42817	23.186	
N	 0.0921703686	-1.1680101138	 0.0372174841	-0.332064
C	 0.0352673845	-0.0145317471	-0.0028992048	 0.183583
C	-0.0865813607	 1.4195887872	-0.0717211328	 0.33203
C	-1.1427112443	 2.2233260525	 0.7439257469	-0.262425
C	-0.9058433889	 3.3210773893	-0.291075227	-0.130198
C	 0.5803082781	 3.1841596198	-0.6666547567	 0.102482
O	 1.1492722466	 2.155095755	 0.1474371896	-0.317468
C	-0.4260992678	 2.3165767134	-1.3342670309	-0.185952
H	-2.1386653491	 1.7869354307	 0.6487276567	 0.128821
H	-0.8869102212	 2.4027299163	 1.7914868148	 0.121724
H	-1.4718449608	 4.2283443025	-0.4525075759	 0.109838
H	 1.2181537742	 3.9786665422	-1.0268652631	 0.126162
H	-0.6947858494	 2.0966025921	-2.3572008808	 0.123468
164.1488	171.6514	424.2186	496.4004	507.8355	555.9722	577.521	761.286	767.2006	784.8645	815.7758	894.7292	933.2895	964.1223	979.3329	1008.8465	1022.1684	1038.561	1058.2132	1082.8146	1144.3077	1170.7866	1230.5885	1269.9246	1302.4995	1358.7846	1485.9944	2362.9306	3066.651	3135.9182	3213.9045	3220.7788	3235.8044
N#CC12CC3C(O1)C23	N#C[C@@]12C[C@H]3[C@@H](O1)[C@@H]23	
InChI=1S/C6H5NO/c7-2-6-1-3-4(6)5(3)8-6/h3-5H,1H2	InChI=1S/C6H5NO/c7-2-6-1-3-4(6)5(3)8-6/h3-5H,1H2/t3-,4+,5-,6-/m1/s1
