23
gdb 95375	2.67243	1.49484	1.12019	1.5364	83.73	-0.2411	0.0707	0.3117	1176.5677	0.209209	-388.317218	-388.308979	-388.308035	-388.350887	32.751	
C	-0.1205815153	 1.5558842993	-0.2323972451	-0.395734
C	 0.0241201695	 0.0487981837	-0.0165190204	 0.109023
O	 0.5755868784	-0.5693889362	-1.1899639116	-0.260734
C	 1.9671461005	-0.7439652884	-0.9862167236	-0.107438
C	 2.1212916963	-1.1535524168	 0.4851520928	 0.012005
C	 3.4055573101	-0.6968796166	 1.215294053	-0.234677
C	 2.905145832	-0.0286151913	 2.5126106633	-0.197695
C	 1.5928184768	 0.6469665896	 2.0816005443	-0.224556
C	 0.9306321313	-0.4046195887	 1.1667516112	-0.026081
H	 0.8418241179	 2.0328060838	-0.4413168223	 0.117469
H	-0.7757281465	 1.73746735	-1.0888288531	 0.120419
H	-0.5586258067	 2.0426751254	 0.6453250783	 0.111353
H	-0.9791101052	-0.3774444357	 0.0955572267	 0.075355
H	 2.3138863252	-1.496682106	-1.7001719245	 0.104282
H	 2.5210425104	 0.1900518993	-1.1851763372	 0.078178
H	 1.9852371193	-2.2350241536	 0.5692092814	 0.073237
H	 4.1017008622	-1.5183781262	 1.404577765	 0.096149
H	 3.942998218	 0.0401460774	 0.6053986364	 0.095344
H	 2.6990386032	-0.7933032272	 3.2720754357	 0.096772
H	 3.6292649938	 0.6691205395	 2.9444495183	 0.092235
H	 0.9593137205	 0.9358614268	 2.9255939725	 0.093762
H	 1.8241163592	 1.5617515867	 1.5256171187	 0.098322
H	 0.367868489	-1.1010751049	 1.7948494504	 0.073009
21.1672	173.3292	205.4176	247.4121	285.2572	364.186	408.0361	449.2698	521.3465	586.1268	615.4611	713.6278	766.5797	843.0588	867.3423	877.7848	903.7238	921.1316	959.2248	998.023	1007.9742	1029.9511	1046.199	1058.8468	1072.5523	1107.0239	1128.7152	1149.7978	1191.1321	1197.0376	1228.3988	1251.4613	1289.2318	1305.601	1314.6069	1324.5091	1338.0139	1347.0239	1355.9695	1365.7779	1387.8242	1394.5009	1406.292	1484.2573	1492.5077	1492.9872	1499.0475	1508.9999	1520.073	2947.5816	3026.8331	3030.047	3031.0975	3036.2901	3046.8488	3051.1319	3063.9894	3080.0156	3083.559	3089.8491	3097.2818	3108.016	3115.8133
CC1OCC2CCCC12	C[C@H]1OC[C@H]2CCC[C@@H]12	
InChI=1S/C8H14O/c1-6-8-4-2-3-7(8)5-9-6/h6-8H,2-5H2,1H3	InChI=1S/C8H14O/c1-6-8-4-2-3-7(8)5-9-6/h6-8H,2-5H2,1H3/t6-,7-,8+/m1/s1
