20
gdb 18354	3.2627	2.08084	1.51964	0.379	80.87	-0.2207	0.0266	0.2472	909.8423	0.178989	-311.858089	-311.850835	-311.849891	-311.889209	29.196	
C	-0.1243690568	 1.5578535289	-0.1062225119	-0.389741
C	-0.0102940707	 0.0321341269	-0.0425696894	-0.010311
C	 0.959607875	-0.5114738136	-1.1564844073	-0.249996
C	 2.3002891945	-0.6618286249	-0.4426553896	-0.243868
C	 2.0870636691	-0.7304869539	 0.866230753	 0.329549
C	 2.6230056721	-0.3856274712	 2.2363461434	-0.324185
C	 1.2371145034	 0.3274762816	 2.4674994504	-0.246447
C	 0.6556642687	-0.497603371	 1.2572980211	-0.036718
H	 0.8609920954	 2.0323893598	-0.0416179806	 0.11699
H	-0.5797778483	 1.8711126889	-1.0515477062	 0.109501
H	-0.7412068196	 1.9496258409	 0.7092712352	 0.110791
H	-1.0113037781	-0.3938775729	-0.1682542734	 0.062231
H	 0.6019794305	-1.4669649784	-1.5656692744	 0.098669
H	 1.0222663972	 0.1801180608	-2.0055634891	 0.094663
H	 3.2536106579	-0.634299204	-0.9579994583	 0.086578
H	 2.735302236	-1.2566950976	 2.8910483613	 0.109579
H	 3.5328418712	 0.2168951951	 2.2954146993	 0.107805
H	 0.7643413618	 0.1790930959	 3.4413292595	 0.095969
H	 1.2999569477	 1.3965411835	 2.2558689472	 0.109378
H	 0.149118633	-1.3949418949	 1.6343958298	 0.069562
104.2291	224.9925	252.3103	280.5864	317.8275	386.8845	448.8068	627.7179	666.7672	695.8507	754.4825	793.8521	826.8098	850.2807	896.4366	912.3025	940.0911	954.5333	994.3967	1000.7682	1057.7165	1060.405	1102.7347	1120.4458	1131.2946	1185.8694	1214.379	1220.4109	1236.9973	1245.6577	1260.4251	1299.429	1323.0413	1339.1314	1366.5032	1407.459	1474.5453	1484.4361	1489.1639	1497.9647	1504.5688	1739.5345	3002.7857	3015.7936	3028.1594	3043.5817	3045.7164	3049.4016	3068.3277	3096.5178	3098.5719	3098.7787	3133.1983	3194.256
CC1CC=C2CCC12	C[C@H]1C[CH][C]2CC[C@@H]12	
InChI=1S/C8H12/c1-6-2-3-7-4-5-8(6)7/h3,6,8H,2,4-5H2,1H3	InChI=1S/C8H12/c1-6-2-3-7-4-5-8(6)7/h3,6,8H,2,4-5H2,1H3/t6-,8-/m0/s1
