14
gdb 9952	3.38428	1.56585	1.42693	1.0319	56.6	-0.2473	-0.0454	0.2019	895.6106	0.103873	-456.787949	-456.779553	-456.778609	-456.820985	29.892	
O	 0.1351990968	 1.3328801692	-0.0843748509	-0.421157
C	 0.1549243239	-0.0408961952	 0.0551830426	 0.037439
C	-0.2903160454	-0.712483391	 1.3267184873	 0.037496
O	-0.7389184301	 0.0143293731	 2.4118773398	-0.42114
C	-1.2166301993	-0.7428124643	 0.0952227005	 0.220056
O	-2.2816771265	 0.156613513	 0.1970181026	-0.482494
C	-1.5397022848	-1.9560598698	-0.6586403567	 0.079911
O	-2.6451231204	-2.1228203308	-1.1337194852	-0.294967
H	-0.7917680748	 1.6054439207	-0.1322476766	 0.302943
H	 0.9466386689	-0.5207801479	-0.5155892647	 0.113712
H	 0.2043728633	-1.6404286637	 1.6043363347	 0.113737
H	-1.5992109121	 0.3875429144	 2.174270875	 0.302939
H	-3.0100695831	-0.2728379732	-0.2847856218	 0.310549
H	-0.7297517364	-2.7026361746	-0.7694570967	 0.100976
64.1278	118.0191	178.6281	226.756	228.7134	330.3462	336.7969	383.5422	439.2987	498.1344	612.0675	653.7277	694.5415	757.2778	805.8304	876.8978	1031.1071	1055.0341	1075.0862	1097.1679	1136.7797	1216.7166	1314.0787	1325.4879	1334.5339	1383.9647	1394.5191	1425.2439	1463.6028	1768.2617	2950.6758	3131.8928	3141.7012	3655.5512	3739.4632	3749.6088
OC1C(O)C1(O)C=O	O[C@H]1[C@@H](O)[C@]1(O)C=O	
InChI=1S/C4H6O4/c5-1-4(8)2(6)3(4)7/h1-3,6-8H	InChI=1S/C4H6O4/c5-1-4(8)2(6)3(4)7/h1-3,6-8H/t2-,3+,4-
