18
gdb 111189	2.71252	1.19913	0.95675	5.0302	77.35	-0.2751	0.0253	0.3004	1244.0696	0.148538	-401.900235	-401.891981	-401.891037	-401.933611	31.008	
O	 0.3556806407	 0.5513202991	 1.0014580354	-0.417512
C	-0.0739691987	 0.3785840007	-0.342466644	-0.145967
C	-1.4098654011	-0.3349017102	-0.2811736944	 0.059843
C	-2.0132582884	-1.0634636631	-1.5250857017	-0.076786
C	-0.9875324174	-2.214411181	-1.3024934963	-0.251326
C	-1.509428353	-1.8443683366	 0.1159934252	-0.045332
C	-2.9402046445	-1.8428542552	-0.5281383841	-0.136763
C	-4.0298475052	-1.1425763689	 0.1334719977	 0.265969
N	-4.9170917041	-0.6099001928	 0.6498280086	-0.339067
H	 1.1534258822	 1.0883032514	 0.9975243403	 0.29029
H	-0.2187258079	 1.3488835509	-0.8443785367	 0.093017
H	 0.6729699722	-0.1771254771	-0.9264036786	 0.088384
H	-2.1173497875	 0.3043107153	 0.2544919353	 0.105931
H	-2.3313847204	-0.6216885708	-2.4698782417	 0.089351
H	-1.2717107637	-3.1984251894	-1.6842597912	 0.100039
H	 0.0576407834	-2.0030331397	-1.5208531582	 0.107579
H	-1.2418230068	-2.2976504076	 1.0692244172	 0.09835
H	-3.2879521099	-2.8151696748	-0.8861261927	 0.114
62.0197	125.3406	161.2937	205.5223	250.9644	334.6541	407.0337	488.1786	507.0723	539.9862	615.7075	774.8758	785.1532	857.9384	882.6279	898.5714	905.1013	1007.7285	1025.3511	1029.9859	1063.455	1077.6206	1091.5906	1101.503	1119.697	1150.1846	1187.204	1199.1151	1219.1721	1228.8283	1255.2086	1263.9077	1274.73	1371.4924	1416.917	1474.2415	1513.1625	1540.5101	2351.0727	2972.9446	3009.985	3070.6463	3075.7295	3081.5975	3112.128	3131.4694	3151.4315	3830.196
OCC1C2CC1C2C#N	OC[C@H]1[C@H]2C[C@@H]1[C@H]2C#N	
InChI=1S/C7H9NO/c8-2-6-4-1-5(6)7(4)3-9/h4-7,9H,1,3H2	InChI=1S/C7H9NO/c8-2-6-4-1-5(6)7(4)3-9/h4-7,9H,1,3H2/t4-,5+,6-,7-
