19
gdb 13664	5.27081	0.91803	0.8358	1.4412	78.51	-0.2281	0.0578	0.2859	1388.186	0.163412	-327.863488	-327.854374	-327.85343	-327.897631	33.096	
C	-0.0351434452	 1.5055901768	-0.3828669416	-0.412557
C	 0.0023192775	 0.0309753779	-0.0435162555	 0.027078
C	 1.2845249093	-0.7290485869	-0.008922731	-0.25744
N	 0.5286502634	-0.4913914846	 1.2196362908	-0.078131
C	 1.0991356469	 0.4186994647	 2.2022530104	-0.135678
C	 1.8782958921	-0.3962676818	 3.2520267517	-0.345666
C	 2.4649532922	 0.443674321	 4.2876576252	 0.295953
C	 2.9360325218	 1.1626970707	 5.1280495378	-0.44816
H	 0.8971258339	 2.0181306477	-0.1343999933	 0.122656
H	-0.2065302685	 1.6330423754	-1.4569388304	 0.123767
H	-0.8523991377	 2.0118184883	 0.1428848382	 0.12462
H	-0.886480132	-0.5095534206	-0.3681485871	 0.090792
H	 1.340388198	-1.7598634735	-0.3491537753	 0.113445
H	 2.1978224438	-0.1523730885	-0.1589584776	 0.105155
H	 1.7728527888	 1.1755033479	 1.7714147621	 0.095573
H	 0.2825031367	 0.9547725424	 2.6979134237	 0.11439
H	 1.2004960961	-1.1344322855	 3.6957058966	 0.140112
H	 2.6663949178	-0.9683684549	 2.7459373072	 0.131181
H	 3.3571220852	 1.7850183532	 5.8779976482	 0.19291
72.606	80.9805	98.1921	181.2816	224.1918	269.2298	345.8112	358.2789	427.9556	483.104	535.0015	616.9768	640.8917	755.0705	790.1251	814.3126	903.6141	948.5236	974.5689	1025.7166	1042.11	1056.5403	1092.1332	1114.4493	1148.3287	1162.9436	1190.2794	1235.3911	1299.5405	1315.3221	1338.2712	1389.1459	1406.3597	1421.1726	1473.3117	1490.6812	1494.6184	1501.383	1515.9366	2238.9016	2977.2769	3028.3222	3036.0763	3058.9024	3076.6144	3081.67	3094.1846	3099.3304	3125.045	3170.8513	3507.8652
CC1CN1CCC#C	C[C@H]1CN1CCC#C	
InChI=1S/C7H11N/c1-3-4-5-8-6-7(8)2/h1,7H,4-6H2,2H3	InChI=1S/C7H11N/c1-3-4-5-8-6-7(8)2/h1,7H,4-6H2,2H3/t7-,8?/m0/s1
