16
gdb 77404	2.24294	2.03832	1.28129	0.8104	64.01	-0.226	0.0576	0.2836	965.7067	0.123229	-474.913142	-474.905121	-474.904177	-474.945104	31.427	
O	 0.2067100801	 1.4850005976	 0.0895592735	-0.449173
C	 0.1083257222	 0.0827600403	-0.0132828605	-0.034055
C	 0.0373094989	-0.6207921123	 1.353483178	 0.392862
O	 1.0067965938	-0.7354706096	 2.3203990181	-0.474849
C	-1.4983518637	-0.2853532839	 1.5385000255	-0.185207
N	-1.9222625528	-1.7071178821	 1.7652812599	-0.369235
C	-0.784683861	-1.8192195003	 0.7933151595	-0.165273
C	-1.2860335737	-0.5503100554	 0.0077211916	 0.41139
O	-2.2045582708	-0.4769485802	-1.0061560688	-0.480017
H	-0.0389297151	 1.8694525828	-0.7580027392	 0.293546
H	 0.8175094606	-0.3338911555	-0.7424924133	 0.073033
H	 1.299898519	 0.1527649242	 2.5551803317	 0.297457
H	-1.9637142749	 0.5718058186	 2.0226420381	 0.087752
H	-1.6236697844	-2.0219448746	 2.6916842452	 0.217537
H	-0.4153036804	-2.7634475808	 0.3932360296	 0.085538
H	-3.0001631078	-0.936846299	-0.7084986688	 0.298695
179.0042	184.747	229.5044	273.9811	278.4154	302.3487	348.6077	392.8342	459.2014	569.6385	599.9969	614.8613	692.6426	774.9925	823.5238	894.6668	898.4818	926.6801	986.9655	1013.9694	1041.0625	1057.4392	1110.7861	1125.1986	1153.9744	1162.9234	1172.4673	1258.4056	1277.1417	1280.2208	1299.2626	1347.3358	1391.2993	1399.7646	1498.1988	3010.9342	3119.7867	3132.2067	3415.398	3776.6367	3796.6997	3819.0923
OC1C2(O)C3NC2C13O	O[C@H]1[C@@]2(O)[C@@H]3N[C@H]2[C@]13O	
InChI=1S/C5H7NO3/c7-3-4(8)1-5(3,9)2(4)6-1/h1-3,6-9H	InChI=1S/C5H7NO3/c7-3-4(8)1-5(3,9)2(4)6-1/h1-3,6-9H/t1-,2+,3-,4+,5-
