20
gdb 18398	3.12772	2.12849	1.43479	1.2556	74.61	-0.2342	0.086	0.3202	920.3468	0.179766	-348.998857	-348.991787	-348.990843	-349.029729	28.725	
C	-0.0610072515	 1.4970388826	 0.0565631722	-0.334648
C	 1.2930427892	 0.8113988139	 0.0262985268	-0.031228
C	 2.1852817024	 0.7879657167	 1.2560563477	-0.214502
C	 2.7338264482	-0.6154139836	 1.5739027361	-0.185412
C	 1.7046614305	-1.5450914201	 2.2366489011	-0.18304
C	 0.444311802	-1.8421997709	 1.4202620529	-0.064677
O	-0.3510401	-0.6839625832	 1.1769801299	-0.250121
C	 0.0203810909	 0.0024822202	 0.0210619292	 0.121331
H	-0.3655858665	 1.9382001379	 0.9996052241	 0.121698
H	-0.414951704	 2.0192245604	-0.8254107873	 0.109514
H	 1.8286275841	 0.8441538637	-0.9195552698	 0.080766
H	 3.0172216398	 1.4855155238	 1.103268019	 0.093298
H	 1.6326984908	 1.1583386407	 2.1270900175	 0.100762
H	 3.1144199441	-1.0761839534	 0.6520195257	 0.090283
H	 3.5951402501	-0.5232411902	 2.2469322456	 0.090174
H	 2.1808650734	-2.505624888	 2.4755421683	 0.089484
H	 1.3906770625	-1.1070250177	 3.1931495305	 0.102169
H	 0.7052427364	-2.3276118878	 0.4671665655	 0.085573
H	-0.1953107661	-2.5351350631	 1.9782179284	 0.101159
H	-0.2585492963	-0.5066662917	-0.9032283533	 0.077417
152.6919	200.7161	291.8107	316.7231	349.7976	385.1065	452.3492	514.7262	623.0625	751.1309	775.2853	810.2319	844.113	868.461	901.7978	932.6382	966.5714	993.9816	1041.6918	1049.7859	1075.5063	1087.2613	1111.5862	1130.7218	1157.8909	1179.3896	1224.6383	1240.0477	1250.5894	1291.962	1321.9231	1346.2128	1374.4927	1389.4624	1392.6507	1409.7264	1423.6913	1470.8294	1478.0069	1485.3167	1492.9519	1499.7753	2987.2355	3010.3576	3014.5165	3027.992	3050.0091	3057.1038	3065.6474	3068.6545	3079.4672	3131.8936	3135.3465	3222.4516
C1C2CCCCOC12	C1[C@H]2CCCCO[C@@H]12	
InChI=1S/C7H12O/c1-2-4-8-7-5-6(7)3-1/h6-7H,1-5H2	InChI=1S/C7H12O/c1-2-4-8-7-5-6(7)3-1/h6-7H,1-5H2/t6-,7+/m1/s1
