22
gdb 96462	2.16072	1.79355	1.26071	2.7106	81.01	-0.2445	0.0661	0.3106	1094.2546	0.197897	-404.341952	-404.333968	-404.333024	-404.373903	32.92	
O	 0.2183876247	 1.3135913234	-0.2823330138	-0.443085
C	 0.0499901788	-0.0682284769	-0.0334739187	 0.124882
C	 0.8124139589	-0.4641933547	 1.2425197591	-0.205511
C	 0.5928518803	 0.4586047638	 2.4538036301	-0.176647
C	-0.8305994189	 0.5441034496	 3.0329882108	-0.188348
C	-1.8713125667	 1.1688191184	 2.0839230004	-0.208622
C	-2.3521898365	 0.1843642398	 1.0347484345	 0.001579
N	-2.3757884154	 0.5996301619	-0.3841261193	-0.36496
C	-1.4311977141	-0.4421133491	 0.05449086	-0.054452
H	-0.6239700604	 1.6087507953	-0.6643652503	 0.29055
H	 0.4758254989	-0.6439883003	-0.8737346697	 0.057422
H	 0.5447381759	-1.4997569222	 1.4942918944	 0.085804
H	 1.8843862178	-0.4707121869	 1.012334056	 0.09918
H	 1.2673679355	 0.1243236401	 3.2517674152	 0.084888
H	 0.9180298653	 1.4664008613	 2.1747931226	 0.116228
H	-1.1704919816	-0.4537334272	 3.3450583761	 0.084458
H	-0.7852241321	 1.1458278726	 3.9487779601	 0.091421
H	-2.7349703991	 1.5233838507	 2.6590812327	 0.087063
H	-1.4358734497	 2.0409545279	 1.5896061662	 0.116299
H	-3.1797604096	-0.447046812	 1.3563532501	 0.083616
H	-3.1677426816	 0.2050872596	-0.8818271539	 0.235931
H	-1.6454946602	-1.4702385552	-0.2307847527	 0.082303
146.2697	180.2129	232.8746	289.9448	320.6242	343.0976	400.6561	439.3943	500.5602	548.5434	572.9891	719.0005	736.3107	770.7194	808.4534	878.8023	893.8943	900.1447	913.4875	963.2479	991.3201	1008.4745	1032.6468	1055.1133	1093.7835	1114.9851	1119.8107	1160.1571	1207.0716	1220.3106	1236.6491	1256.2622	1283.6941	1301.7889	1321.9906	1354.6184	1366.4332	1379.1019	1393.7387	1402.5771	1405.1573	1458.3459	1466.5676	1476.3628	1480.3516	1490.3846	1494.1804	2936.8446	3005.9844	3015.497	3028.3701	3031.9153	3052.585	3058.4207	3081.5419	3095.4764	3111.4974	3127.1606	3520.9136	3669.432
OC1CCCCC2NC12	O[C@H]1CCCC[C@H]2N[C@@H]12	
InChI=1S/C7H13NO/c9-6-4-2-1-3-5-7(6)8-5/h5-9H,1-4H2	InChI=1S/C7H13NO/c9-6-4-2-1-3-5-7(6)8-5/h5-9H,1-4H2/t5-,6+,7-/m1/s1
