24
gdb 122532	2.40901	0.90163	0.75073	2.0163	87.73	-0.2167	0.0803	0.2971	1669.9187	0.21553	-405.512157	-405.501309	-405.500365	-405.548973	38.697	
C	 0.0690359126	 1.5674267076	 0.0223774007	-0.388439
C	 0.0532622827	 0.0599803241	 0.2084821881	-0.02779
O	-1.2712804914	-0.4040666311	 0.0303869727	-0.232331
C	-1.398567813	-1.7996047361	 0.1964367675	-0.095394
C	-2.8247348337	-2.2712210478	-0.0134497349	-0.018413
C	-3.96452013	-1.3171763055	-0.1075567534	-0.247713
N	-3.5693973508	-2.1224860253	-1.2616249945	-0.086757
C	-2.9579568553	-1.4367338674	-2.4003885195	-0.126152
C	-4.0399603199	-0.9841582581	-3.3778074928	-0.370495
H	 1.0814230695	 1.9576995625	 0.1628239679	 0.116557
H	-0.2690718978	 1.8349167777	-0.9828074333	 0.128024
H	-0.5928821568	 2.050397779	 0.7467382804	 0.127999
H	 0.7271047599	-0.4285348555	-0.5152406995	 0.088583
H	 0.4132295553	-0.2103302756	 1.2155787306	 0.088552
H	-0.7209410487	-2.3282178444	-0.4975667419	 0.091988
H	-1.0909679631	-2.0876990536	 1.2165938676	 0.092507
H	-2.9958256936	-3.2351344329	 0.4659506699	 0.088349
H	-4.9267286201	-1.5567820135	 0.3383673311	 0.105592
H	-3.7037342128	-0.2614433185	-0.1112050152	 0.123934
H	-2.3412070083	-0.5811136683	-2.0926815901	 0.105209
H	-2.2929344574	-2.1559090835	-2.8955419668	 0.092704
H	-3.59338969	-0.516234985	-4.2608633853	 0.10587
H	-4.647516646	-1.8341568679	-3.7014751919	 0.121902
H	-4.7066526314	-0.252573391	-2.9091386576	 0.115716
57.4166	72.6252	86.1049	124.7977	149.962	176.3376	222.6944	250.4864	289.2997	296.9024	413.1328	431.8641	483.5935	620.2723	733.5676	797.6171	820.6399	822.2225	894.8877	929.9211	969.9731	980.8191	1037.501	1053.0546	1074.6348	1107.6553	1115.2629	1142.3035	1147.4022	1158.3411	1180.5488	1192.9081	1205.6043	1279.1435	1297.6789	1315.0031	1338.3204	1383.3845	1391.0246	1404.2733	1408.8268	1415.9348	1450.0576	1484.5928	1488.0234	1496.7524	1498.7592	1504.3813	1508.508	1525.1034	1536.189	2942.3416	2959.6249	2967.3599	2982.856	3009.0804	3036.4445	3045.1374	3045.9207	3099.1212	3103.3783	3104.6395	3116.1955	3119.6082	3121.6918	3187.1942
CCOCC1CN1CC	CCOC[C@H]1CN1CC	
InChI=1S/C7H15NO/c1-3-8-5-7(8)6-9-4-2/h7H,3-6H2,1-2H3	InChI=1S/C7H15NO/c1-3-8-5-7(8)6-9-4-2/h7H,3-6H2,1-2H3/t7-,8?/m1/s1
