18
gdb 87338	1.92765	1.46273	0.98594	2.1456	79.71	-0.2367	-0.0271	0.2096	1238.1118	0.143442	-401.884242	-401.874377	-401.873433	-401.919573	35.354	
C	-0.1413430589	 1.5134208702	 0.3369219323	-0.324823
N	 0.0197377064	 0.0726009888	 0.1858573889	-0.095978
C	 1.3145092742	-0.4405673744	-0.2133785097	-0.277938
C	 0.7999941426	-0.6922422727	 1.1781829674	 0.072276
C	 1.4970618783	-0.0029512194	 2.3540571968	-0.367223
C	 0.540272235	 0.3639882381	 3.4746731879	 0.165602
O	 0.545949167	 1.425140289	 4.0436480427	-0.244143
C	 0.2525806243	-1.9906733065	 1.5027252386	 0.303373
C	-0.1675763542	-3.0775972431	 1.7993724382	-0.418259
H	 0.7674349961	 2.0487192502	 0.6478503842	 0.110808
H	-0.458690394	 1.9198933048	-0.6282160058	 0.132957
H	-0.9297249629	 1.7173300062	 1.0670479322	 0.140161
H	 1.3107502497	-1.2436942991	-0.9450488565	 0.128162
H	 2.1464304772	 0.2592461641	-0.2983432749	 0.111647
H	 2.2285447385	-0.7106755879	 2.7677023876	 0.140899
H	 2.0402914422	 0.8936650139	 2.0514172677	 0.126303
H	-0.1800845886	-0.4372746951	 3.7486475214	 0.09743
H	-0.5539184828	-4.0350620771	 2.0483207109	 0.198746
52.0526	72.9211	130.5662	147.2622	171.1331	222.4652	284.5169	334.4524	388.6361	450.1824	470.411	540.1151	558.506	617.0637	655.0654	682.142	790.45	799.1296	890.031	930.6067	1025.4557	1061.0411	1067.7105	1126.6403	1135.4717	1147.1678	1197.003	1210.7464	1251.6128	1292.6113	1369.232	1424.7671	1442.8645	1455.6722	1486.7816	1498.9357	1508.1738	1831.6271	2235.1831	2902.8885	2996.8917	3028.7622	3078.7198	3082.6422	3113.7076	3121.9101	3180.548	3501.2401
CN1CC1(CC=O)C#C	CN1C[C@]1(CC=O)C#C	
InChI=1S/C7H9NO/c1-3-7(4-5-9)6-8(7)2/h1,5H,4,6H2,2H3	InChI=1S/C7H9NO/c1-3-7(4-5-9)6-8(7)2/h1,5H,4,6H2,2H3/t7-,8?/m1/s1
