15
gdb 20199	3.93589	2.80283	2.08953	1.4333	70.75	-0.2011	-0.029	0.1722	675.4982	0.120674	-325.430127	-325.424507	-325.423563	-325.459375	23.406	
C	 0.0340579609	 1.5130573241	 0.1031468475	-0.176355
C	 1.5029843383	 1.8705952967	-0.1000016409	-0.097706
C	 2.1690671625	 0.7510606169	-0.4290736129	 0.038227
C	 3.1003433272	 0.1420825555	 0.5858172837	-0.149491
C	 2.3152126481	-0.7241104695	 1.2498030395	-0.080158
C	 1.0019320924	-0.9659527224	 0.5215068184	-0.051649
C	 1.1515592174	-0.3319268638	-0.7949445325	-0.08888
N	-0.0477250303	 0.0422083666	-0.0736600314	-0.13986
H	-0.2552757902	 1.8129941239	 1.1189719528	 0.120895
H	-0.6944154352	 1.9701120876	-0.5827340321	 0.114548
H	 1.9499504716	 2.7185374932	 0.4090006697	 0.101071
H	 4.0758725922	 0.5051553375	 0.8814118561	 0.114518
H	 2.5797250386	-1.2557633825	 2.1560904264	 0.104509
H	 0.5062299117	-1.9201830146	 0.6560753224	 0.102964
H	 1.1146675549	-0.8108805892	-1.7716408669	 0.087366
214.4153	303.2986	395.6145	494.6311	584.7769	650.6596	720.1687	734.9239	758.2366	793.3668	836.1877	849.4767	876.9744	909.513	915.1163	949.9606	993.4925	1017.6643	1033.0487	1101.2314	1113.6124	1133.6918	1198.5525	1226.1324	1276.6376	1285.8546	1308.2987	1328.7768	1347.3289	1478.9169	1587.7449	1609.5625	2993.6911	3040.082	3117.5602	3179.626	3182.8591	3200.4839	3227.4477
C1C=C2C=CC3C2N13	C1[CH][C]2C=C[C@@H]3[C@H]2N13	
InChI=1S/C7H7N/c1-2-6-7-5(1)3-4-8(6)7/h1-3,6-7H,4H2	InChI=1S/C7H7N/c1-2-6-7-5(1)3-4-8(6)7/h1-3,6-7H,4H2/t6-,7+,8?/m1/s1
