17
gdb 113599	3.41098	0.71386	0.62213	6.021	89.69	-0.2679	-0.0441	0.2238	1755.2793	0.13563	-380.83661	-380.82734	-380.826396	-380.871678	32.89	
C	 0.2622746798	 1.5762760404	 0.0584544317	-0.380745
C	-0.2588730627	 0.1621314532	-0.2203991041	-0.193976
C	 0.5138525514	-0.5127592158	-1.3282264336	 0.01777
N	 1.795082699	-1.1191261715	-0.9700280191	-0.309886
C	 0.6898051551	-2.0038047612	-1.4172605522	-0.307485
C	 0.1360215654	-2.9034688092	-0.4507865001	 0.179077
C	-0.3574455527	-3.6781260821	 0.3359212832	 0.063158
C	-0.9114335242	-4.5492044321	 1.2277029507	 0.203807
N	-1.3857786227	-5.291638888	 1.9855931851	-0.337643
H	 1.3162223218	 1.5470127388	 0.3510076321	 0.133345
H	 0.1745055829	 2.2165645545	-0.8264259026	 0.11342
H	-0.3020160823	 2.0482141182	 0.8675873979	 0.121762
H	-0.1857820437	-0.4492333413	 0.6842411802	 0.122071
H	-1.3193352168	 0.1959932542	-0.499045166	 0.107458
H	 0.4546651994	-0.016539023	-2.2974954108	 0.097445
H	 2.4727748864	-1.0290611331	-1.7227350237	 0.244477
H	 0.7510433039	-2.4199282921	-2.4207267088	 0.125946
58.4043	80.8969	107.8785	165.7123	216.5592	247.4999	264.5365	367.7101	430.5923	503.8614	553.8101	579.8158	609.2354	707.9555	769.8919	821.6408	872.8741	894.5443	947.4613	1023.6582	1031.3511	1090.751	1128.946	1156.4545	1210.5157	1229.2159	1264.0518	1306.6752	1345.3662	1408.233	1412.4571	1459.8938	1477.2801	1499.8252	1507.8631	2263.492	2394.1161	3035.6053	3037.857	3082.3576	3101.7819	3111.2043	3117.8744	3130.1453	3506.6842
CCC1NC1C#CC#N	CC[C@H]1N[C@H]1C#CC#N	
InChI=1S/C7H8N2/c1-2-6-7(9-6)4-3-5-8/h6-7,9H,2H2,1H3	InChI=1S/C7H8N2/c1-2-6-7(9-6)4-3-5-8/h6-7,9H,2H2,1H3/t6-,7+/m1/s1
