19
gdb 110720	3.0538	1.3991	1.33572	1.2852	78.42	-0.2185	-0.002	0.2164	1048.573	0.161044	-385.867134	-385.859602	-385.858658	-385.899024	30.634	
O	-0.1313627373	 1.4390858758	-0.2387851184	-0.42653
C	 0.0208849761	 0.0521477389	 0.0500543366	-0.121525
C	-1.3595592791	-0.5750441788	-0.0444867254	 0.065719
C	-2.0539091349	-0.6001072796	-1.4513547701	-0.108432
C	-1.1456104885	-1.6228379577	-2.1600522764	-0.075833
C	-0.7912555446	-2.5326898938	-1.2533853579	-0.078493
C	-1.4616994248	-2.1323880876	 0.0778962777	-0.138352
C	-2.9859249401	-2.2603680276	-0.1290700868	-0.08195
C	-3.336285325	-1.3508396727	-1.0377452892	-0.083363
H	 0.7390804339	 1.8463137136	-0.213026785	 0.285787
H	 0.7202208681	-0.4263397474	-0.6469485832	 0.090626
H	 0.4090679858	-0.0976710253	 1.0715874749	 0.078935
H	-2.0051792564	-0.0811738389	 0.6873892143	 0.080614
H	-2.1913222634	 0.3551913951	-1.9541171148	 0.071197
H	-0.9032528563	-1.5976188931	-3.2139085172	 0.095958
H	-0.1982959132	-3.426446245	-1.3938321541	 0.095494
H	-1.0605463634	-2.5999853006	 0.9776654144	 0.055676
H	-3.6065498909	-2.9989531189	 0.3599657574	 0.097141
H	-4.3136111158	-1.1689961263	-1.4640865369	 0.097331
84.7362	172.2765	232.419	290.4338	374.0909	450.5085	455.2846	541.3464	574.8347	680.1967	731.4338	749.0111	768.2884	823.197	858.6671	888.8717	909.0905	914.7499	924.8476	940.7667	943.2464	986.0791	1052.9973	1062.9836	1077.4299	1109.5804	1134.2777	1162.5518	1215.2533	1225.268	1252.5245	1255.5418	1267.8151	1274.9569	1293.5043	1337.4029	1380.5226	1458.8287	1523.101	1616.9792	1656.7143	2960.9143	3034.8362	3073.7142	3109.3177	3138.2284	3207.6309	3209.3772	3233.7936	3236.398	3833.1671
OCC1C2C=CC1C=C2	OC[C@H]1[C@H]2C=C[C@@H]1C=C2	
InChI=1S/C8H10O/c9-5-8-6-1-2-7(8)4-3-6/h1-4,6-9H,5H2	InChI=1S/C8H10O/c9-5-8-6-1-2-7(8)4-3-6/h1-4,6-9H,5H2/t6-,7+,8-
