23
gdb 76463	2.6446	1.43731	1.15929	0.054	90.72	-0.2512	0.0823	0.3335	1193.5804	0.205892	-351.091095	-351.082198	-351.081254	-351.124245	35.006	
C	-0.0814802561	 0.8249721759	-2.0722058623	-0.407147
C	 0.021890972	-0.3059815887	-1.0684731162	-0.147505
C	 1.3391977206	-0.6476192793	-0.3485556362	-0.147505
C	 2.6198289546	 0.1244009123	-0.5959215178	-0.407147
C	 0.1851778272	-0.0621481503	 0.3946824474	 0.468081
C	 0.0406830467	 1.2084865787	 1.2620622314	-0.125067
C	-1.4450532512	 0.7825384379	 1.4780888584	-0.215435
C	-0.6110554979	-0.5261569484	 1.6314347627	-0.131927
C	 0.395754147	 0.3051315156	 2.4841038946	-0.215435
H	 0.4699405151	 1.7119499107	-1.7486489439	 0.11451
H	 0.3107571296	 0.5288105659	-3.0519300051	 0.113916
H	-1.125519146	 1.1263309376	-2.2131119066	 0.115377
H	-0.5718705651	-1.178475235	-1.3373600307	 0.076411
H	 1.4986719368	-1.7154605499	-0.2057935589	 0.076411
H	 2.4417602126	 1.2005657891	-0.6710491007	 0.11451
H	 3.3316598752	-0.0296051903	 0.2227771822	 0.115377
H	 3.109268455	-0.1969775453	-1.5225207926	 0.113916
H	 0.4156398536	 2.2109992745	 1.0517104897	 0.068472
H	-1.9288403232	 1.1586498556	 2.3843513285	 0.084275
H	-2.1060152636	 0.8449060288	 0.6105378841	 0.092238
H	-0.9846733425	-1.5304050173	 1.8385139685	 0.067161
H	 1.4204700481	-0.0696757287	 2.5377886018	 0.092238
H	 0.0379632416	 0.6485660708	 3.4592242918	 0.084275
125.6471	158.5287	159.3064	177.3865	179.0108	252.6856	326.5352	404.231	500.0357	510.9984	611.7375	613.7535	770.7054	789.529	796.2566	874.7583	883.0519	896.9185	900.3848	970.6844	1002.771	1016.2983	1023.8754	1025.1375	1044.0628	1078.2058	1098.0402	1099.9256	1113.0894	1150.849	1153.1815	1163.9952	1169.4991	1185.9508	1194.7391	1231.3371	1244.7109	1247.6494	1336.4391	1361.6368	1410.0139	1419.7374	1481.5269	1487.4449	1491.2258	1495.5161	1500.4029	1517.3092	1535.4662	3026.1476	3030.0764	3046.6848	3050.1599	3082.2408	3083.9562	3095.351	3096.5727	3102.4231	3107.2494	3112.2948	3116.7154	3119.675	3124.6005
CC1C(C)C11C2CC1C2	C[C@H]1[C@@H](C)[C@]21[C@H]1C[C@@H]2C1	
InChI=1S/C9H14/c1-5-6(2)9(5)7-3-8(9)4-7/h5-8H,3-4H2,1-2H3	InChI=1S/C9H14/c1-5-6(2)9(5)7-3-8(9)4-7/h5-8H,3-4H2,1-2H3/t5-,6+,7-,8+,9-
