17
gdb 89761	2.49667	1.57349	1.14901	1.2403	68.49	-0.2492	0.0399	0.2892	1074.4175	0.134105	-458.896929	-458.888682	-458.887738	-458.929762	31.287	
O	 0.5373188728	 0.7914290421	-0.7338772776	-0.428789
C	 0.0418688966	-0.2648838202	 0.042759573	 0.056847
C	 0.0276901441	-0.1403705701	 1.6072102041	-0.401005
C	-1.3899367188	-0.7260174397	 1.595974289	 0.389394
C	-1.9865593989	-1.8019429379	 2.3861248333	-0.263622
O	-2.4255673992	-0.438445476	 2.5138175234	-0.275778
C	-1.4773176912	-0.511520353	 0.1035381534	 0.334073
C	-2.5425695459	 0.1474109251	-0.6557006609	-0.272217
O	-2.2633063981	-1.2545423237	-0.8006222792	-0.277419
H	 0.0813461488	 1.5979100448	-0.4692708007	 0.281239
H	 0.5739149326	-1.1610195521	-0.28750414	 0.112916
H	 0.7977458325	-0.6842591519	 2.1559440739	 0.12075
H	 0.0285988386	 0.9067403981	 1.9267960267	 0.114612
H	-2.698206478	-2.4761645055	 1.9133635456	 0.131381
H	-1.4503763776	-2.2001028903	 3.2462445054	 0.120032
H	-3.4778584503	 0.3878478136	-0.1543016968	 0.13288
H	-2.2833797381	 0.7597348467	-1.5179352327	 0.124706
77.9632	178.2016	189.4308	224.6747	260.1523	324.2095	337.4693	431.0779	502.8141	523.8038	583.2974	638.684	781.2549	848.8249	872.7896	880.3477	903.2334	942.3883	984.9107	1039.7445	1084.7191	1111.7007	1126.9498	1133.8161	1138.6516	1156.2305	1167.6173	1178.815	1235.3957	1249.847	1312.2086	1404.5236	1430.5103	1453.0453	1476.9816	1523.1095	1537.7306	3058.8052	3084.9767	3087.5381	3089.0006	3128.2247	3181.0574	3184.9519	3803.6773
OC1CC2(CO2)C11CO1	O[C@H]1C[C@]2(CO2)[C@]21CO2	
InChI=1S/C6H8O3/c7-4-1-5(2-8-5)6(4)3-9-6/h4,7H,1-3H2	InChI=1S/C6H8O3/c7-4-1-5(2-8-5)6(4)3-9-6/h4,7H,1-3H2/t4-,5-,6+/m0/s1
