20
gdb 7219	3.63506	1.01546	0.92597	1.2845	80.12	-0.2363	0.0592	0.2955	1370.3266	0.173803	-348.986454	-348.9759	-348.974956	-349.022969	36.738	
C	 0.0676368702	 1.4970711226	 0.0636667911	-0.498021
C	 0.0327930449	 0.0417824048	 0.0258019755	 0.071676
C	 0.0082199866	-1.1616381656	-0.0098814259	 0.074607
C	-0.0286815491	-2.6228385043	-0.0604469107	-0.162371
C	-1.4705193297	-3.1383157127	 0.1250825305	-0.408464
C	 0.6371163672	-3.14350611	-1.3706213968	 0.146741
C	 0.9295315369	-4.6451562223	-1.3365392621	-0.420754
O	-0.109567657	-2.7863965253	-2.5247876737	-0.429568
H	 0.862680334	 1.8618861161	 0.7237484593	 0.143512
H	 0.2471135311	 1.9159750499	-0.9327955275	 0.148321
H	-0.879443001	 1.9098351734	 0.4290685569	 0.144156
H	 0.5794349311	-3.0100393848	 0.7699115474	 0.095848
H	-1.5064789306	-4.2316647888	 0.1531363525	 0.111694
H	-1.8889620954	-2.7634790494	 1.0620193705	 0.129229
H	-2.1127781193	-2.78180336	-0.6858014818	 0.1236
H	 1.5845055735	-2.6052416992	-1.4806031937	 0.097121
H	 0.0091609967	-5.2351593209	-1.2552078655	 0.110928
H	 1.4368477214	-4.9419031314	-2.2583327734	 0.125908
H	 1.5704057462	-4.907482886	-0.488537843	 0.116783
H	-0.8983740875	-3.3381753159	-2.5493865595	 0.279055
25.4717	59.5111	90.3169	139.2868	228.2882	243.3052	260.8126	277.3429	299.9869	320.4747	340.4911	399.1694	479.3148	539.4944	622.1027	729.4847	801.4983	921.0507	964.7848	1002.9063	1052.2184	1053.0649	1063.2279	1072.6432	1104.448	1156.9641	1182.6586	1280.3364	1314.0989	1333.6412	1369.8549	1399.3503	1405.6055	1414.958	1428.899	1479.1118	1479.888	1488.915	1492.9957	1501.5764	1509.6492	2371.2141	3000.0287	3024.6934	3031.8992	3042.4954	3055.1019	3083.4965	3085.2647	3099.5792	3113.6628	3119.1174	3122.9102	3811.9897
CC#CC(C)C(C)O	CC#C[C@@H](C)[C@@H](C)O	
InChI=1S/C7H12O/c1-4-5-6(2)7(3)8/h6-8H,1-3H3	InChI=1S/C7H12O/c1-4-5-6(2)7(3)8/h6-8H,1-3H3/t6-,7-/m1/s1
