20
gdb 107707	3.1419	1.35272	1.13216	1.2254	79.41	-0.231	0.0713	0.3023	1169.7644	0.16936	-403.052488	-403.04377	-403.042826	-403.0857	33.486	
C	 0.1103724358	 1.5498313472	-0.018064017	-0.381516
C	 0.1279725587	 0.0171164802	-0.0597245517	-0.33461
C	 0.724274002	-0.5196407535	-1.3208352775	 0.520782
O	 2.1116400343	-0.1990383296	-1.6631179789	-0.387394
C	 1.6820493449	-1.0362629447	-2.7800808606	 0.458992
C	 2.6454068267	-1.3373762719	-3.8811194315	-0.530095
C	 0.7949419434	-1.9724315001	-1.8836358092	-0.196515
N	-0.4666074702	-1.7848786544	-2.6721744692	-0.345194
C	 0.2221807174	-0.459617814	-2.7999952897	-0.181827
H	 1.1203015788	 1.9510956422	-0.1387070804	 0.137537
H	-0.5113740267	 1.9580888522	-0.8213537907	 0.118133
H	-0.291221295	 1.9089072393	 0.9337518885	 0.112793
H	 0.7002902204	-0.3770542041	 0.7890094945	 0.111291
H	-0.8876681277	-0.3874164515	 0.0229513404	 0.124084
H	 3.5235451914	-1.86187406	-3.492285084	 0.137561
H	 2.170698645	-1.9712322125	-4.6376329554	 0.12355
H	 2.9796594044	-0.4140384339	-4.3640333253	 0.137444
H	 1.059790943	-2.8968212363	-1.3673353106	 0.082558
H	-0.4107879356	-2.2987369057	-3.5553346995	 0.209143
H	-0.1824484309	 0.3858462213	-3.3588346522	 0.083283
83.253	136.8184	169.1287	213.447	240.3596	268.7193	287.5064	399.9321	535.3427	550.9122	601.4634	675.851	735.5546	757.0766	769.9328	817.4817	867.727	873.9232	924.4758	949.6301	972.1238	1023.8928	1057.7688	1094.6408	1099.7528	1110.0127	1149.2478	1149.8898	1166.3763	1202.4018	1262.7089	1279.9589	1287.531	1310.0512	1359.3753	1403.2078	1408.8747	1453.545	1470.6162	1472.7474	1491.4726	1496.3114	1507.9843	3032.1376	3036.4698	3041.9879	3071.6787	3102.8755	3107.8415	3108.9537	3110.5588	3112.7406	3122.1462	3404.1295
CCC12OC3(C)C1NC23	CC[C@@]12O[C@@]3(C)[C@@H]1N[C@@H]23	
InChI=1S/C7H11NO/c1-3-7-4-6(2,9-7)5(7)8-4/h4-5,8H,3H2,1-2H3	InChI=1S/C7H11NO/c1-3-7-4-6(2,9-7)5(7)8-4/h4-5,8H,3H2,1-2H3/t4-,5+,6-,7+
