18
gdb 36385	6.33664	0.65611	0.63321	1.6153	84.98	-0.2484	0.049	0.2973	1734.9352	0.144948	-364.714397	-364.70465	-364.703706	-364.749967	35.485	
C	 0.1438589455	-1.1183874072	-0.7688661773	-0.430819
C	 0.0415365417	-0.0128458275	-0.3091213611	 0.289213
C	-0.0496506864	 1.327493368	 0.2610710087	-0.35705
C	 1.3106256205	 2.0073620584	 0.348560787	-0.020178
N	 1.7434701466	 2.7905786124	-0.8141479808	-0.319343
C	 1.5043738154	 3.4785979184	 0.4594780715	-0.020192
C	 0.36691849	 4.4909385221	 0.4995920608	-0.357035
C	 0.811149445	 5.8316162292	 0.1318936932	 0.289159
C	 1.2036648545	 6.9287870901	-0.1616798375	-0.430778
H	 0.2219273488	-2.0924382342	-1.1838631069	 0.194992
H	-0.7240851161	 1.9381451769	-0.3477857997	 0.138766
H	-0.4910005538	 1.2674594375	 1.2650128676	 0.130493
H	 2.0604938061	 1.396437736	 0.8485374268	 0.095657
H	 2.7356452054	 2.6736060729	-0.9955565243	 0.237197
H	 2.3764122322	 3.7953177221	 1.029334327	 0.095661
H	-0.4298999683	 4.171248011	-0.179638747	 0.138781
H	-0.0636891208	 4.5137049263	 1.5097106987	 0.130488
H	 1.5371022337	 7.9001712176	-0.4305808666	 0.194988
36.9853	70.0307	86.4869	150.6713	198.079	317.9977	332.6528	334.4115	400.8312	458.6441	491.8358	568.9191	616.1352	616.5752	640.8355	641.1697	809.9304	846.5956	861.6713	938.3601	957.6184	969.497	975.6228	1028.6361	1032.2332	1124.0517	1182.3039	1223.2306	1263.3272	1263.5437	1277.8454	1315.289	1326.5246	1412.3533	1454.3646	1463.3617	1480.5148	2240.3487	2240.5912	3020.0418	3023.1739	3072.0825	3081.0585	3115.9515	3127.0004	3507.4999	3507.7799	3520.1697
C#CCC1NC1CC#C	C#CC[C@H]1N[C@H]1CC#C	
InChI=1S/C8H9N/c1-3-5-7-8(9-7)6-4-2/h1-2,7-9H,5-6H2	InChI=1S/C8H9N/c1-3-5-7-8(9-7)6-4-2/h1-2,7-9H,5-6H2/t7-,8+
