18
gdb 95701	3.49421	1.22394	0.95935	4.5344	69.02	-0.253	0.0335	0.2864	1209.2034	0.149173	-476.266856	-476.258547	-476.257603	-476.299919	31.178	
C	 0.1751597684	 1.5882264385	 0.0818455543	-0.404138
C	-0.0219865579	 0.0798055013	 0.0439193745	 0.130005
C	 0.47760557	-0.5320479936	-1.2671293337	-0.171672
N	 0.1585169879	-1.9529134491	-1.4062234	-0.35821
C	 0.8217270136	-2.9684377652	-0.7500005512	 0.419972
O	 0.9815637976	-4.0694576838	-1.2084965202	-0.367481
O	 1.3009740064	-2.6443788267	 0.4872235187	-0.231055
C	 0.5236098314	-1.8194584775	 1.3554805715	 0.01502
O	 0.6891221447	-0.4561976005	 1.1575037523	-0.233964
H	 1.2298375703	 1.8430333061	-0.0603435978	 0.132369
H	-0.4115094057	 2.0761358155	-0.701834161	 0.119398
H	-0.1417074557	 1.9814219976	 1.0505234868	 0.133989
H	-1.0903111528	-0.1681677223	 0.152221303	 0.080269
H	-0.0097949525	-0.0171403823	-2.0994674896	 0.116386
H	 1.5583334856	-0.3528794093	-1.348078669	 0.126872
H	-0.11172642	-2.2500493858	-2.331933175	 0.257151
H	-0.5338408354	-2.1093381186	 1.2700240975	 0.103872
H	 0.9051652543	-2.0382339243	 2.353482659	 0.131217
73.3764	139.2578	207.6539	227.9226	285.9838	321.8952	330.7799	394.0161	475.8775	516.9495	591.3535	664.5472	716.6623	796.7987	807.2125	856.3926	911.57	936.9997	1026.0491	1078.7759	1107.4974	1135.1764	1152.9058	1159.5705	1202.2353	1274.4608	1305.0761	1329.1963	1351.3407	1397.3717	1408.3419	1416.3474	1458.7429	1462.8084	1480.4141	1489.447	1497.9481	1503.0929	1846.8891	2977.7072	3000.5533	3019.4396	3047.0635	3096.5281	3119.8752	3129.1266	3130.6566	3619.5632
CC1CNC(=O)OCO1	C[C@H]1CNC(=O)OCO1	
InChI=1S/C5H9NO3/c1-4-2-6-5(7)9-3-8-4/h4H,2-3H2,1H3,(H,6,7)	InChI=1S/C5H9NO3/c1-4-2-6-5(7)9-3-8-4/h4H,2-3H2,1H3,(H,6,7)/t4-/m0/s1
