15
gdb 49009	3.26758	1.34139	1.10128	1.7031	67.86	-0.2389	-0.0498	0.189	1065.1989	0.112665	-453.933647	-453.925923	-453.924979	-453.966122	28.752	
O	-0.7301324338	 0.9351367354	 0.6872773841	-0.253499
C	 0.2167262659	 0.8170678857	-0.050650322	 0.091681
C	 1.3918588838	 1.743705828	-0.0591016728	 0.251129
C	 1.5157248873	 2.8225810117	 1.0471531711	-0.227736
N	 1.803838944	 3.8750062371	 0.0346321322	-0.308635
C	 1.5298186077	 2.9515567825	-1.0813746848	-0.227488
C	 2.8422324316	 2.2501415287	-1.535545196	 0.469465
O	 3.7343397999	 2.4873884122	-2.2953530653	-0.340955
N	 2.620500746	 1.2106739452	-0.6391628789	-0.400025
H	 0.275045623	 0.0093947067	-0.8129855295	 0.089708
H	 0.556352481	 2.9389498781	 1.559843516	 0.137419
H	 2.3132746855	 2.6765220408	 1.7816926643	 0.113532
H	 1.1726677543	 4.6649302985	 0.0731462279	 0.238438
H	 0.7848527379	 3.2317228944	-1.8263303866	 0.11235
H	 3.2924335258	 0.571255825	-0.2355000997	 0.254615
100.5528	113.0432	203.6704	249.0509	282.7163	385.4303	432.1998	485.1557	511.5555	649.759	695.8386	722.9998	782.9411	800.7793	863.3889	960.209	970.5953	1001.7026	1030.976	1073.2361	1090.8363	1128.1308	1152.6636	1213.1387	1253.2087	1273.0028	1331.8908	1350.5328	1384.7913	1410.6929	1504.2189	1812.245	1910.7016	2898.0941	3048.2235	3104.1357	3121.469	3565.3302	3585.0551
O=CC12CNC1C(=O)N2	O=C[C@]12CN[C@H]1C(=O)N2	
InChI=1S/C5H6N2O2/c8-2-5-1-6-3(5)4(9)7-5/h2-3,6H,1H2,(H,7,9)	InChI=1S/C5H6N2O2/c8-2-5-1-6-3(5)4(9)7-5/h2-3,6H,1H2,(H,7,9)/t3-,5+/m0/s1
