16
gdb 86851	2.87716	1.26151	1.03886	3.2786	70.18	-0.2589	0.	0.2589	1153.2874	0.125959	-434.088254	-434.079906	-434.078962	-434.121663	30.536	
N	 0.3126558046	 0.9912691481	 0.6767305369	-0.511622
C	-0.2007848673	-0.1081024427	-0.1178048145	-0.061041
C	-1.667084496	 0.0563828498	-0.5425913372	-0.244535
C	-1.7464863479	-0.8611706465	-1.7784427387	-0.055751
O	-0.4363292461	-0.8235484289	-2.3712977807	-0.232994
C	 0.4845456525	-0.3664188859	-1.4564027778	 0.403022
N	 1.7020135284	-0.1675850462	-1.7023707072	-0.536582
C	-2.0996976729	-2.2488949908	-1.4315833365	 0.286443
N	-2.3907735276	-3.33062571	-1.1498453116	-0.310982
H	 1.2819105429	 0.7923396294	 0.9116116212	 0.250186
H	 0.3488263499	 1.8306248808	 0.1023159559	 0.231127
H	-0.1062024459	-1.0262759395	 0.4772959735	 0.132493
H	-2.3831410981	-0.2106795058	 0.2338702534	 0.146761
H	-1.854831513	 1.0893806674	-0.8523874687	 0.12419
H	-2.4553249873	-0.5043146028	-2.529887386	 0.145898
H	 1.9364511238	-0.4048831064	-2.667250322	 0.233385
77.717	85.5502	186.6658	214.9154	267.181	278.3347	368.8049	447.9178	475.6704	569.4377	606.6131	681.192	765.4306	793.5703	832.0298	895.7309	922.4754	965.1576	981.7153	1006.389	1036.4409	1091.3656	1156.1615	1185.6136	1235.0759	1261.2681	1293.9667	1311.9727	1345.777	1373.9944	1422.3702	1486.7967	1670.4603	1790.8263	2361.5589	3027.161	3064.9744	3087.5055	3146.1917	3480.9903	3483.2109	3553.6192
NC1CC(OC1=N)C#N	N[C@H]1C[C@@H](O[C]1[NH])C#N	
InChI=1S/C5H7N3O/c6-2-3-1-4(7)5(8)9-3/h3-4,8H,1,7H2	InChI=1S/C5H7N3O/c6-2-3-1-4(7)5(8)9-3/h3-4,8H,1,7H2/t3-,4+/m1/s1
