17
gdb 66257	2.0341	1.64265	1.4085	5.2942	72.56	-0.2611	-0.0008	0.2603	1035.9141	0.137143	-418.073774	-418.065166	-418.064222	-418.106976	31.689	
C	-0.0966313312	 1.5616945107	-0.0222407087	-0.434078
C	 0.0481472289	 0.0344886968	-0.0395658747	-0.011828
C	 0.8705888763	-0.5465544596	-1.2184419797	-0.244584
C	 1.5189116459	-1.8177558233	-0.6358070115	-0.178256
N	 1.6588864511	-1.4725688924	 0.7696575046	-0.310093
C	 0.8554808136	-0.4639856765	 1.2062141172	 0.416795
O	 0.7720101606	-0.0187281135	 2.3251111407	-0.370456
C	-1.2718488253	-0.6066311416	 0.0092779075	 0.276049
N	-2.3062300814	-1.1231963412	 0.025075241	-0.340193
H	 0.8905469799	 2.0264123552	-0.0954095105	 0.128197
H	-0.7126974631	 1.9070583368	-0.8559913642	 0.132999
H	-0.5547665575	 1.8766288437	 0.9174026917	 0.161882
H	 0.2684883766	-0.7483956786	-2.10495728	 0.132979
H	 1.6474519178	 0.1765356377	-1.4832715958	 0.122025
H	 0.8770206506	-2.6976035518	-0.7745484192	 0.131965
H	 2.4904663589	-2.0295563216	-1.0907545975	 0.124177
H	 2.1885451783	-2.019416471	 1.4300412089	 0.262419
87.6072	140.4479	170.6231	202.1109	211.4985	256.8483	339.4239	429.1552	493.3646	513.9576	570.2955	625.5112	676.5036	703.7676	754.1001	816.3654	927.1952	932.6015	970.4812	1043.6566	1070.1923	1125.306	1168.9195	1187.8454	1237.3047	1252.3796	1270.6277	1334.1267	1364.9704	1408.8024	1448.0292	1485.3344	1489.6791	1493.7749	1533.5712	1844.21	2348.2399	3020.6655	3050.7917	3065.762	3086.1521	3126.5645	3133.9598	3143.2148	3642.7657
CC1(CCNC1=O)C#N	C[C@]1(CCNC1=O)C#N	
InChI=1S/C6H8N2O/c1-6(4-7)2-3-8-5(6)9/h2-3H2,1H3,(H,8,9)	InChI=1S/C6H8N2O/c1-6(4-7)2-3-8-5(6)9/h2-3H2,1H3,(H,8,9)/t6-/m0/s1
