15
gdb 131648	3.87243	1.131	0.89998	4.692	74.63	-0.2243	-0.0548	0.1695	1223.3673	0.11398	-450.094172	-450.086184	-450.08524	-450.127368	29.33	
O	 0.1063971882	 1.2859626472	 0.5283570475	-0.409349
C	 0.0482164909	 0.0024220587	-0.0762383462	-0.162139
C	-1.3616285322	-0.5291924535	-0.1453394794	 0.391453
C	-1.8922023119	-1.2720393292	-1.133908977	-0.297362
C	-3.2554503767	-1.7492794809	-0.9953000203	 0.389333
N	-3.8195979498	-2.4999852476	-1.8626840999	-0.52288
N	-3.9764452672	-1.3223806285	 0.1756652871	-0.257782
N	-3.4483355294	-0.6096809988	 1.0680242541	-0.03802
N	-2.1507835923	-0.2404475132	 0.9431005815	-0.291663
H	-0.2785621385	 1.924503151	-0.0821828008	 0.298736
H	 0.4927615123	-0.0153131755	-1.0790645783	 0.126598
H	 0.6539696827	-0.6476588013	 0.5656813059	 0.14753
H	-1.3269861207	-1.5329528758	-2.0197358479	 0.12229
H	-4.7745501019	-2.6972928559	-1.5539190979	 0.221402
H	-1.8252447336	 0.3992056333	 1.6517226716	 0.281852
68.7448	89.9746	152.9528	239.8013	344.4208	387.3191	445.6124	465.0836	522.7775	557.7285	612.1053	659.9259	760.2147	769.9075	877.2896	899.2148	913.9422	970.8762	1042.9821	1064.0237	1073.7928	1122.9166	1185.4616	1206.1589	1318.1978	1356.4841	1376.6767	1406.2329	1448.3624	1488.6076	1587.8357	1676.089	1725.8095	3027.8076	3073.2376	3215.2171	3452.8815	3638.5582	3806.2478
OCC1=CC(=N)N=NN1	OCc1cc([NH])nn[nH]1	
InChI=1S/C4H6N4O/c5-4-1-3(2-9)6-8-7-4/h1,9H,2H2,(H2,5,6,7)	InChI=1S/C4H11N4O/c5-4-1-3(2-9)6-8-7-4/h3-9H,1-2H2
