17
gdb 125775	2.38462	1.56566	0.97166	6.0517	71.27	-0.215	0.0217	0.2366	1182.1695	0.136887	-455.149434	-455.140924	-455.13998	-455.182597	31.544	
C	-0.4185004827	 1.5527299167	-0.2653125116	-0.498377
C	-0.1263977238	 0.100894311	-0.0575403317	 0.314118
N	-0.1498189634	-0.714362682	-1.0888468622	-0.228095
O	 0.1647750543	-1.9940313946	-0.5652767402	-0.211873
C	 0.3493665423	-1.8698892573	 0.7445010396	 0.465466
O	 0.6653457646	-2.9648334433	 1.4187332819	-0.404953
C	 0.1871868593	-0.5723490235	 1.1559401584	-0.062071
C	 0.3017254175	-0.1040216533	 2.5738608596	-0.301912
N	 1.1929786982	-1.0293582871	 3.3160928222	-0.526512
H	 0.8754491139	-2.6287664251	 2.3250781179	 0.309986
H	 2.1629622156	-0.8306864988	 3.086842907	 0.249518
H	 1.0915939319	-0.8964326199	 4.3167671587	 0.246079
H	 0.4144738669	 2.1758602253	 0.0785931493	 0.129916
H	-0.5859702428	 1.7497362509	-1.3258915047	 0.152375
H	-1.3099194021	 1.8613900956	 0.2914651207	 0.13301
H	 0.6435155854	 0.9407397664	 2.6142215095	 0.10833
H	-0.6714090849	-0.128995021	 3.0828318456	 0.124995
102.3804	137.6751	168.3022	203.7282	252.102	287.4162	343.4789	380.6033	437.1165	522.151	593.1836	648.666	716.2519	744.9452	783.7573	831.0629	914.8344	927.1098	994.9312	1019.4625	1032.2981	1064.5285	1106.2792	1172.1372	1201.5023	1312.7791	1332.1093	1401.299	1412.0614	1452.7439	1478.7501	1481.8005	1509.2607	1524.8182	1567.0307	1646.0123	1679.9079	2988.8073	3021.6674	3036.1942	3089.6175	3137.6573	3351.594	3496.5636	3579.9281
CC1=NOC([O-])=C1C[NH3+]	Cc1noc(O)c1CN	
InChI=1S/C5H8N2O2/c1-3-4(2-6)5(8)9-7-3/h8H,2,6H2,1H3	InChI=1S/C5H8N2O2/c1-3-4(2-6)5(8)9-7-3/h8H,2,6H2,1H3
