21
gdb 58883	3.11682	1.28262	1.07621	1.2295	83.41	-0.226	0.0207	0.2467	1201.8871	0.182645	-387.089645	-387.080898	-387.079954	-387.12274	34.568	
C	 0.0341032276	 1.5508140595	 0.3386398102	-0.41126
C	-0.0194902427	 0.0606132197	-0.0042865415	 0.016498
O	 0.8080655418	-0.6939667227	 0.8780527694	-0.426408
C	-1.4428331639	-0.4822573093	-0.0429611221	 0.347235
C	-2.1172724126	-1.0011550843	 1.2154391639	-0.334423
C	-1.7733618587	-1.9588808761	 0.0995581745	-0.088664
C	-2.8563999641	-2.3058407903	-0.9204613559	-0.282336
C	-3.189556041	-0.9655949573	-1.5427048588	-0.079674
C	-2.4058049154	 0.0109337075	-1.0797053223	-0.157343
H	 1.0725939917	 1.892212524	 0.3708278548	 0.121318
H	-0.503218488	 2.15360465	-0.3995791519	 0.121164
H	-0.4263907077	 1.7373438136	 1.3168137137	 0.110584
H	 0.4282158821	-0.0912869811	-0.9949540835	 0.089324
H	 0.6133279879	-0.4072489104	 1.7767125624	 0.279437
H	-1.5183823546	-1.0916374017	 2.1164469329	 0.091914
H	-3.1540147713	-0.729678531	 1.3871651329	 0.107084
H	-0.9738455084	-2.6630739683	 0.2926571582	 0.097626
H	-2.4909977483	-3.016686572	-1.6740968868	 0.107365
H	-3.7343216329	-2.7757842556	-0.4577340258	 0.107913
H	-3.9929892651	-0.8356169082	-2.2594557923	 0.092277
H	-2.4621521365	 1.0509857639	-1.3818441919	 0.09037
68.9138	160.099	199.5803	246.1081	279.5628	303.423	315.7232	401.1484	443.1649	483.9292	494.8172	655.2609	715.7615	747.0893	775.8968	827.5612	891.6671	895.9061	922.4524	934.8757	952.2018	973.432	1015.5508	1027.5257	1057.2912	1067.0326	1083.5571	1098.343	1126.1321	1137.3309	1190.135	1226.1275	1268.5378	1301.9192	1317.5213	1347.0617	1360.4036	1399.397	1401.3407	1421.0953	1471.8911	1483.4356	1492.5665	1494.3144	1668.4161	3012.3719	3023.6381	3029.6471	3038.2715	3098.3545	3117.1603	3118.4117	3179.5067	3190.9441	3204.598	3206.6801	3806.997
CC(O)C12CC1CC=C2	C[C@@H](O)[C@]12C[C@H]1CC=C2	
InChI=1S/C8H12O/c1-6(9)8-4-2-3-7(8)5-8/h2,4,6-7,9H,3,5H2,1H3	InChI=1S/C8H12O/c1-6(9)8-4-2-3-7(8)5-8/h2,4,6-7,9H,3,5H2,1H3/t6-,7-,8+/m1/s1
