18
gdb 55044	3.93671	0.85204	0.7867	5.513	78.17	-0.2604	-0.0306	0.2298	1468.4734	0.146135	-401.978646	-401.969206	-401.968262	-402.013833	33.537	
C	 0.1101711356	 1.5120828385	-0.0174114788	-0.484765
C	 0.1492582314	-0.0003589806	 0.0728686651	 0.393368
O	 0.2710998807	-0.5742107971	 1.1374900058	-0.326856
C	 0.0357366159	-0.7359016559	-1.2232791859	-0.149773
C	 0.7125039065	-2.0941651957	-1.3483569417	-0.273216
C	-0.7746784361	-2.0316111336	-1.329065758	 0.001459
C	-1.5720931908	-2.5685893528	-0.1485277179	-0.377478
C	-1.8190094865	-4.0043389928	-0.2820773191	 0.263337
N	-2.0127297581	-5.1372054006	-0.402145827	-0.308089
H	 0.9282196453	 1.8730543279	-0.6515474498	 0.145374
H	-0.8233312073	 1.8400690293	-0.4891939572	 0.143086
H	 0.1956704414	 1.9476791758	 0.9782794082	 0.14629
H	 0.0168206908	-0.1096326558	-2.108635457	 0.096057
H	 1.2213451935	-2.3208920585	-2.2776291871	 0.129024
H	 1.2060134365	-2.4421303853	-0.4470495309	 0.148127
H	-1.2737908633	-2.1553711738	-2.2853657912	 0.115591
H	-1.0349854402	-2.3762416166	 0.7841875684	 0.190077
H	-2.5396936553	-2.0584846324	-0.0728809758	 0.148387
50.7212	72.536	119.0729	137.3763	189.4478	231.0206	317.4532	380.5291	399.0164	402.5463	530.1877	596.6161	635.76	759.3058	811.0723	869.2223	879.3892	916.9694	958.1922	975.9984	1008.8287	1051.9987	1079.9673	1102.2192	1136.0673	1157.2512	1189.1774	1235.6816	1254.0209	1324.058	1377.4975	1401.9032	1422.3309	1462.0349	1470.241	1474.3631	1483.8723	1782.8033	2362.2008	3034.304	3046.2486	3093.8266	3104.4219	3140.7922	3155.5004	3156.7542	3169.9391	3235.0231
CC(=O)C1CC1CC#N	CC(=O)[C@H]1C[C@H]1CC#N	
InChI=1S/C7H9NO/c1-5(9)7-4-6(7)2-3-8/h6-7H,2,4H2,1H3	InChI=1S/C7H9NO/c1-5(9)7-4-6(7)2-3-8/h6-7H,2,4H2,1H3/t6-,7-/m1/s1
