17
gdb 46684	3.10371	1.80234	1.40836	3.5828	72.48	-0.2299	0.0212	0.2512	929.4552	0.139777	-417.968404	-417.961783	-417.960839	-417.999299	27.095	
N	-0.1536432568	 1.2950502059	 0.2984320712	-0.53618
C	-0.0002068014	 0.0898373995	-0.0638234881	 0.450562
O	 1.1619506507	-0.3720497164	-0.5933213828	-0.260245
C	 1.3418136454	-1.7913302205	-0.7802741846	-0.092219
C	 0.1052550077	-2.5124981888	-1.2939860944	-0.07204
C	-0.9614225784	-2.9604150492	-0.3275154826	-0.029593
N	-0.8418785808	-2.0988142545	 0.86635724	-0.338674
C	-1.1361943501	-0.893788341	-0.0069467685	-0.117634
C	-1.2249564885	-1.7938042809	-1.2503387564	-0.103029
H	 0.7184173829	 1.8135741902	 0.1670425878	 0.215643
H	 2.1578168497	-1.867100551	-1.5017716985	 0.115335
H	 1.6681941062	-2.2217941044	 0.1717083597	 0.130412
H	 0.2476041562	-3.1516644931	-2.1588713364	 0.099974
H	-1.3620726183	-3.965613545	-0.2893954112	 0.099387
H	-1.6203551586	-2.2415730674	 1.5011676817	 0.23049
H	-2.0510296108	-0.3720201962	 0.2667414197	 0.105434
H	-1.8660204253	-1.6531922071	-2.1102587166	 0.102377
125.0352	203.7724	296.9135	403.4287	424.4468	485.8575	585.7136	674.5366	707.8088	738.1491	781.9548	809.4956	856.2138	884.8174	891.6135	920.6969	955.7462	981.4224	1002.3252	1024.2148	1046.02	1057.7611	1060.13	1092.1967	1140.558	1166.8084	1210.7055	1263.4266	1280.4407	1291.1698	1319.9984	1345.005	1359.5917	1436.5092	1439.1936	1495.0539	1749.9604	3053.2818	3109.6289	3137.8465	3171.0361	3188.9045	3203.1821	3452.0747	3530.3204
N=C1OCC2C3NC1C23	[NH][C]1OC[C@H]2[C@H]3N[C@@H]1[C@@H]23	
InChI=1S/C6H8N2O/c7-6-5-3-2(1-9-6)4(3)8-5/h2-5,7-8H,1H2	InChI=1S/C6H8N2O/c7-6-5-3-2(1-9-6)4(3)8-5/h2-5,7-8H,1H2/t2-,3+,4-,5-/m1/s1
