21
gdb 116655	3.12614	0.77172	0.65953	4.0804	84.42	-0.2376	0.017	0.2546	1749.0225	0.180604	-420.371032	-420.360557	-420.359613	-420.407931	36.478	
C	-0.1887208304	 1.3819616516	 0.0019947529	-0.250101
O	-0.1710544534	-0.0398601214	-0.0358360128	-0.192363
C	 0.5310109337	-0.639585817	 0.9447625172	 0.127246
N	 0.5963457818	-1.8933766665	 1.0151643958	-0.207723
C	 1.3817703439	-2.4741509256	 2.0926355469	 0.002602
C	 0.4703385438	-3.3348332675	 2.9771572233	-0.380928
C	 2.5019047611	-3.3043558272	 1.4873650486	 0.054357
C	 3.8163662786	-2.6902710978	 1.1960640991	-0.245542
N	 3.6755348578	-3.6658835382	 2.2967284396	-0.326734
H	 0.8234080545	 1.7991046243	-0.0669867138	 0.127165
H	-0.7667006482	 1.7048993322	-0.8644928303	 0.148205
H	-0.6716595579	 1.7539525618	 0.9138353143	 0.127606
H	 1.019613026	 0.0558379316	 1.6467541114	 0.069769
H	 1.8505452584	-1.6915346545	 2.7215323677	 0.043935
H	-0.3097669131	-2.7224798596	 3.4386591394	 0.111853
H	-0.0172110858	-4.1069727625	 2.3749519389	 0.131575
H	 1.0469124593	-3.8226787416	 3.7691519871	 0.115519
H	 2.1508744868	-4.1063493273	 0.8414402935	 0.098929
H	 4.4100294009	-3.0324682549	 0.3534490025	 0.119014
H	 3.9517085348	-1.6404311524	 1.4470631205	 0.101039
H	 3.6454589871	-3.1699330876	 3.1857572182	 0.224578
40.8239	57.7364	87.1793	142.9623	155.4242	203.8107	230.7663	241.9093	308.6251	375.2356	384.939	453.485	523.8141	623.8158	796.0551	865.4981	897.7539	946.6467	960.6598	970.7256	990.1605	1045.1488	1066.0584	1101.9392	1131.6183	1144.9151	1162.3485	1177.2276	1182.7986	1227.4093	1254.5997	1277.4216	1289.0515	1323.0882	1349.3836	1402.6077	1409.7595	1429.514	1484.3085	1486.6495	1494.9253	1499.1011	1500.7505	1512.3323	1771.464	2897.7993	2979.4105	3014.897	3039.7581	3076.7984	3103.7677	3113.8613	3119.3067	3134.0466	3145.9819	3189.9092	3478.1193
COC=NC(C)C1CN1	COC=N[C@@H](C)[C@H]1CN1	
InChI=1S/C6H12N2O/c1-5(6-3-7-6)8-4-9-2/h4-7H,3H2,1-2H3	InChI=1S/C6H12N2O/c1-5(6-3-7-6)8-4-9-2/h4-7H,3H2,1-2H3/t5-,6+/m0/s1
