19
gdb 76933	2.12418	1.19846	0.99113	3.1475	85.49	-0.2429	-0.0287	0.2142	1300.3869	0.155506	-385.858774	-385.848671	-385.847727	-385.893548	36.942	
C	-0.2106741591	 1.0379164967	-1.8082416902	-0.42438
C	-0.0357569084	-0.1636293414	-0.9035512558	-0.053437
C	 1.3183778907	-0.6420410171	-0.390868284	-0.158335
C	 2.5790461163	 0.0820529047	-0.670727995	 0.157392
O	 3.6417890268	-0.4726633381	-0.821355967	-0.267617
C	 0.2511426018	-0.0597969493	 0.578149107	 0.082478
C	 0.4656008131	 1.2856830292	 1.2619689339	-0.462128
C	-0.3803385518	-1.0376858114	 1.4266634117	 0.28246
C	-0.9123262516	-1.8392790045	 2.1488726726	-0.439544
H	 0.4276376055	 1.8812973722	-1.5396049264	 0.124755
H	 0.0190546269	 0.7686828214	-2.8443731693	 0.133904
H	-1.2484291897	 1.3856539762	-1.7768674868	 0.131282
H	-0.6929706917	-0.989013537	-1.1610500017	 0.111601
H	 1.4619077224	-1.7148772325	-0.3303650774	 0.118562
H	 2.5072972145	 1.1881910116	-0.7429026449	 0.068379
H	 0.9120138289	 2.0295960839	 0.600874664	 0.12088
H	-0.4939381773	 1.6777798998	 1.6117197897	 0.135478
H	 1.1178953861	 1.1706758143	 2.1321650528	 0.140283
H	-1.3798163733	-2.5507787787	 2.7836722666	 0.197987
81.581	118.5001	153.8464	169.5392	174.0056	216.2689	246.7885	275.5171	356.3512	396.0407	435.9852	500.3239	537.0515	566.9112	600.0689	649.9563	653.7948	756.2013	903.8007	937.0872	963.6868	1024.1384	1027.5599	1066.9972	1093.2543	1127.9581	1129.9901	1180.6749	1246.9775	1290.7913	1338.7905	1403.1149	1420.3132	1429.1659	1449.8472	1484.056	1492.3612	1499.2713	1514.4649	1804.3968	2232.9921	2894.6742	3042.2493	3050.8445	3100.4442	3114.2831	3125.2768	3139.5858	3155.1201	3184.6612	3501.7755
CC1C(C=O)C1(C)C#C	C[C@H]1[C@@H](C=O)[C@]1(C)C#C	
InChI=1S/C8H10O/c1-4-8(3)6(2)7(8)5-9/h1,5-7H,2-3H3	InChI=1S/C8H10O/c1-4-8(3)6(2)7(8)5-9/h1,5-7H,2-3H3/t6-,7+,8+/m0/s1
