17
gdb 81598	3.52346	1.22246	1.06073	2.8061	67.97	-0.2553	0.0672	0.3225	1136.8029	0.135505	-458.854837	-458.847295	-458.846351	-458.887442	29.167	
O	-0.6958181736	 1.167492029	-0.816552142	-0.444841
C	-0.3629938852	-0.1310175478	-0.467841364	 0.184538
C	 0.035222076	-0.4033312341	 1.0154763423	-0.039051
O	-1.3772390762	-0.099479027	 1.3858418639	-0.341553
C	-1.4646847951	-1.0089838984	 0.2055187115	-0.039715
C	-0.3806788085	-1.8925129426	 0.8726293234	-0.003236
C	 0.4405062978	-2.9322370081	 0.1598678756	 0.02967
C	-0.1547194938	-3.9082467492	-0.7647684848	-0.174712
O	 0.6552278528	-2.836329555	-1.2508133253	-0.223017
H	-1.2246375152	 1.5003829221	-0.0765690883	 0.286667
H	 0.2320603943	-0.5801893798	-1.2590865136	 0.126377
H	 0.8161621727	 0.0446630383	 1.6312310864	 0.097897
H	-2.4646243279	-1.2739740916	-0.1402058449	 0.097703
H	-0.7265035135	-2.2862194238	 1.8327268822	 0.100045
H	 1.3271728005	-3.2493425327	 0.7125173836	 0.102649
H	 0.2801608429	-4.9018157012	-0.8581921232	 0.121264
H	-1.2139570081	-3.838284078	-1.0071633128	 0.119315
53.0686	164.1441	182.4935	281.3121	345.1077	407.9802	436.8708	595.085	606.3914	699.4267	750.6445	799.682	806.3462	857.0184	893.4592	896.7589	906.7474	925.3554	990.0134	1040.2215	1093.4126	1102.3115	1120.864	1136.5978	1152.9986	1168.1617	1173.3683	1187.2481	1208.5409	1252.055	1257.9752	1297.6696	1319.7524	1383.2598	1429.8045	1461.7439	1528.0714	3077.4704	3087.3971	3093.258	3111.9246	3118.0185	3168.0775	3176.6747	3735.1628
OC1C2OC1C2C1CO1	O[C@H]1[C@H]2O[C@@H]1[C@H]2[C@H]1CO1	
InChI=1S/C6H8O3/c7-4-5-3(2-1-8-2)6(4)9-5/h2-7H,1H2	InChI=1S/C6H8O3/c7-4-5-3(2-1-8-2)6(4)9-5/h2-7H,1H2/t2-,3-,4-,5-,6+/m1/s1
