13
gdb 129720	3.5533	1.30501	0.95933	5.5866	63.8	-0.2487	-0.0603	0.1884	1119.3767	0.089461	-486.061516	-486.053509	-486.052565	-486.094227	28.619	
N	-0.1516014199	 1.4357097261	-0.0486937985	-0.612953
C	-0.061656141	 0.029569314	-0.006931327	 0.121652
C	-1.1361570702	-0.8124546784	-0.0876738223	 0.42846
O	-2.4439651603	-0.5729028317	-0.2159298203	-0.422847
N	-0.6222531294	-2.0743611555	-0.0095879997	-0.090776
C	-1.3277736388	-3.2936054427	-0.0468397211	 0.18906
O	-0.8144997192	-4.3698663491	 0.0267683644	-0.247328
N	 0.7626790406	-1.9941156415	 0.1185093616	-0.127914
N	 1.0672798053	-0.745126797	 0.1172270165	-0.201197
H	 0.3730322023	 1.8199558264	-0.8290164387	 0.257278
H	 0.2213440675	 1.8585131666	 0.7962524495	 0.257283
H	-2.5379337904	 0.3918562379	-0.247469272	 0.320809
H	-2.4107305365	-3.1126071751	-0.1527175523	 0.128473
98.8095	173.5349	190.5339	205.7023	241.7643	307.8087	335.4664	412.8323	509.8401	553.599	692.3268	697.9412	727.5963	771.996	796.1643	869.302	1034.047	1036.6413	1127.23	1222.7035	1226.1142	1286.0515	1359.7195	1407.6736	1441.6106	1551.0175	1647.4159	1697.5453	1853.3599	3005.1478	3496.1135	3560.2192	3730.7945
NC1=C(O)N(C=O)N=N1	Nc1c(O)n(C=O)nn1	
InChI=1S/C3H4N4O2/c4-2-3(9)7(1-8)6-5-2/h1,9H,4H2	InChI=1S/C3H4N4O2/c4-2-3(9)7(1-8)6-5-2/h1,9H,4H2
