19
gdb 8599	4.67538	1.7438	1.65013	0.7605	78.08	-0.2068	0.0766	0.2834	876.8311	0.166456	-327.787848	-327.781129	-327.780185	-327.818217	27.652	
C	-0.0740589647	 1.5699524605	 0.0097536565	-0.320749
N	 0.0101446747	 0.1267288536	 0.043318678	-0.104901
C	-1.2146288382	-0.646296265	 0.4845285887	-0.275031
C	-0.2156779561	-1.6499104877	 1.1061808341	 0.240745
C	 0.5762589303	-2.3112915409	 2.2799286535	-0.305823
C	 1.6596314231	-1.7967695837	 1.2214199078	-0.097901
C	 0.7546970131	-2.392965218	 0.1269163056	-0.226687
C	 0.7723650861	-0.4980581134	 1.1631031085	 0.052825
H	 0.9038017906	 1.9885794551	-0.2505097545	 0.122319
H	-0.7888264149	 1.8843543907	-0.7583057899	 0.11898
H	-0.3927879606	 2.0142008739	 0.9725348281	 0.087285
H	-1.8095595117	-0.0964191678	 1.2304243655	 0.093588
H	-1.8593843068	-0.9874639668	-0.3318257183	 0.105866
H	 0.5464799328	-1.7968718358	 3.2438388676	 0.098482
H	 0.5128443026	-3.3969750596	 2.3982911527	 0.096988
H	 2.743719035	-1.9062209531	 1.3238400808	 0.066467
H	 0.6715627892	-3.4832606523	 0.1079811226	 0.080655
H	 0.8480281397	-1.9676073797	-0.8708830221	 0.110855
H	 0.7750119858	 0.12575958	 2.0689840648	 0.056038
175.6148	216.4916	278.2695	324.958	405.3905	471.6471	513.7058	580.9985	674.0873	747.789	819.1255	854.8182	868.0152	907.9173	918.21	942.4232	1002.8442	1006.404	1029.9422	1040.3483	1088.3443	1099.2009	1121.2969	1152.8958	1159.3473	1174.4811	1192.5988	1199.6892	1200.5869	1226.8364	1246.2894	1263.1598	1291.8967	1365.5359	1448.9926	1483.0293	1489.8293	1498.5914	1502.0718	1524.9892	2918.9885	2980.9808	2992.0479	3045.1246	3053.9403	3054.69	3067.0974	3074.0667	3097.9607	3119.0358	3153.0564
CN1CC23CC(C2)C13	CN1C[C@@]23C[C@@H](C2)[C@@H]13	
InChI=1S/C7H11N/c1-8-4-7-2-5(3-7)6(7)8/h5-6H,2-4H2,1H3	InChI=1S/C7H11N/c1-8-4-7-2-5(3-7)6(7)8/h5-6H,2-4H2,1H3/t5-,6-,7+/m1/s1
