22
gdb 59020	3.13502	1.1079	0.9122	1.4412	83.42	-0.2384	0.0326	0.271	1387.8705	0.193619	-404.389812	-404.3799	-404.378956	-404.425384	36.19	
C	-0.7263243275	 0.9755472326	 0.0965245689	-0.389242
C	 0.2208716735	-0.2066601498	-0.1896827108	-0.073477
C	 1.2909240447	 0.1514375316	-1.2241296663	-0.378375
C	 0.8305076766	-0.7042416845	 1.0903421378	 0.423736
N	 2.0608877021	-0.6915893564	 1.4079866488	-0.320287
C	 2.154477606	-1.2770573862	 2.7506079678	-0.200421
C	 0.6869235801	-1.5654265246	 3.173707708	 0.102247
C	 0.1885721516	-0.7462709564	 4.3541524546	-0.39586
O	-0.0672819087	-1.2107939146	 1.9851120264	-0.273617
H	-0.1650105129	 1.8347775059	 0.4791038597	 0.121377
H	-1.2323864937	 1.2850763663	-0.8226986687	 0.114956
H	-1.4838496327	 0.7038879625	 0.8352538909	 0.129757
H	-0.3923349083	-1.0326831256	-0.5755141004	 0.097276
H	 1.9250556973	 0.9640261823	-0.8594714273	 0.13031
H	 1.9405323986	-0.7012832592	-1.4347560876	 0.124595
H	 0.8184163265	 0.4710916772	-2.1581042525	 0.10411
H	 2.7691200857	-2.183581266	 2.7206329608	 0.111709
H	 2.6461233517	-0.5764033516	 3.4359964028	 0.108563
H	 0.5113894832	-2.6312376726	 3.3518862586	 0.088525
H	 0.3597621815	 0.3209827399	 4.1800773778	 0.126491
H	-0.8809984659	-0.9042044131	 4.5181348453	 0.127247
H	 0.7234476906	-1.0356568576	 5.2649103451	 0.12038
35.1077	59.5193	149.4712	191.8757	214.9959	239.5457	258.6539	309.757	313.4984	383.1699	433.3766	486.2042	621.5434	709.132	738.5172	840.792	874.056	921.9051	933.7426	935.8731	956.4395	971.904	1015.3893	1070.8167	1109.171	1122.7463	1141.0829	1142.7189	1171.3825	1222.1956	1230.4616	1321.2446	1330.9645	1335.9312	1376.3917	1391.5703	1405.9822	1410.1188	1421.5671	1484.9774	1485.302	1488.0963	1495.0151	1498.7016	1504.2496	1513.8219	1732.929	3016.0938	3029.1588	3036.6984	3038.4356	3046.0117	3046.9992	3066.1359	3106.5961	3109.5527	3117.2016	3118.9748	3127.1357	3128.107
CC(C)C1=NCC(C)O1	CC(C)C1=NC[C@@H](C)O1	
InChI=1S/C7H13NO/c1-5(2)7-8-4-6(3)9-7/h5-6H,4H2,1-3H3	InChI=1S/C7H13NO/c1-5(2)7-8-4-6(3)9-7/h5-6H,4H2,1-3H3/t6-/m1/s1
