14
gdb 132299	2.07443	1.73722	0.94601	5.0965	72.64	-0.1967	-0.0234	0.1732	1128.1671	0.100798	-478.010599	-478.002947	-478.002003	-478.042646	29.702	
N	 0.0953130375	 1.3424485038	 0.1639272852	-0.560903
C	-0.0563413695	-0.0126202169	 0.0575545744	 0.478541
C	-1.2362717342	-0.6904674276	 0.0313638526	-0.426282
C	-1.1487770543	-2.1084428378	-0.0110360801	 0.358941
F	-2.3024282429	-2.7721615193	-0.0336073724	-0.070532
C	 0.0232411452	-2.78300825	-0.0309879421	-0.353615
C	 1.2608961076	-2.053327893	-0.0105588001	 0.396394
N	 2.4238087065	-2.5591980384	-0.0283015968	-0.54418
O	 1.1328752546	-0.6363032851	 0.0290999758	-0.271994
H	 0.9893701156	 1.7027726186	-0.132477953	 0.269836
H	-0.6985810671	 1.9081251629	-0.0892448179	 0.270162
H	-2.190268892	-0.1856305132	 0.0536391959	 0.108918
H	 0.0700128909	-3.8610780218	-0.0644432812	 0.1282
H	 3.140022552	-1.8349837822	-0.0048755606	 0.216514
136.152	179.0982	213.888	313.8489	349.736	363.114	469.3939	479.1041	527.0397	556.9431	624.2787	627.9011	660.9438	704.9912	741.8421	800.6191	834.9765	854.7984	1004.6166	1018.8879	1088.1152	1104.3838	1193.5813	1231.5291	1274.6376	1417.202	1480.7956	1604.6383	1647.7835	1684.1405	1757.8274	3242.7158	3250.3311	3507.3895	3591.1898	3706.7216
NC1=CC(F)=CC(=N)O1	N[C@@H]1C=C(F)C=C([NH])O1	
InChI=1S/C5H5FN2O/c6-3-1-4(7)9-5(8)2-3/h1-2,7H,8H2	InChI=1S/C5H6FN2O/c6-3-1-4(7)9-5(8)2-3/h1-2,4,8H,7H2/t4-/m0/s1
