14
gdb 30303	3.14437	1.65434	1.17189	1.3572	62.77	-0.2207	0.0031	0.2238	980.0875	0.10271	-473.824873	-473.817913	-473.816969	-473.8565	26.319	
O	 0.1742226421	 1.3721523043	-0.2420858881	-0.422055
C	 0.0640524867	-0.0260057254	-0.0251794566	-0.027511
C	 0.4794303894	-0.4620509894	 1.4415890337	-0.122797
O	-0.7186900614	-0.9206041951	 2.1837979268	-0.280078
C	-1.6249827477	-0.9896529511	 1.2137047656	 0.436501
C	-1.3246637968	-0.5782100518	-0.0305145996	 0.086
N	-2.4488262531	-0.7569824385	-0.8321870698	-0.320944
C	-3.3222818719	-1.2583783752	-0.024350937	 0.02923
O	-2.8820996589	-1.4385328624	 1.2906733155	-0.202255
H	-0.6206764455	 1.786809965	 0.1118017271	 0.282204
H	 0.7516580417	-0.4757699315	-0.7472185629	 0.109985
H	 1.1755193206	-1.303520559	 1.4332942504	 0.135388
H	 0.9052124426	 0.3782643979	 1.9907853913	 0.140514
H	-4.3387764678	-1.5598512177	-0.2144882264	 0.155818
100.3205	152.0722	288.9684	307.1654	333.3443	435.5906	505.4941	638.2387	650.2892	709.9032	743.9049	756.3491	778.0638	873.3224	921.9569	937.023	982.8327	1023.4559	1072.2405	1138.5253	1210.8865	1229.5916	1278.4058	1288.6324	1341.7041	1361.7895	1429.4844	1471.4615	1508.6509	1531.3752	1687.4061	3068.1396	3082.5662	3151.4226	3293.8315	3800.0114
OC1COC2=C1N=CO2	O[C@H]1COc2c1nco2	
InChI=1S/C5H5NO3/c7-3-1-8-5-4(3)6-2-9-5/h2-3,7H,1H2	InChI=1S/C5H5NO3/c7-3-1-8-5-4(3)6-2-9-5/h2-3,7H,1H2/t3-/m0/s1
