22
gdb 117938	2.71718	0.81613	0.69236	2.1301	80.08	-0.2338	0.0157	0.2495	1731.8014	0.192366	-441.51827	-441.506991	-441.506047	-441.555796	39.027	
C	 0.0777198847	 1.5868325398	-0.0296645451	-0.383483
C	 0.0521397907	 0.0555990367	-0.0070313129	-0.177521
C	 0.6796519205	-0.5651803259	-1.2593265925	-0.173866
C	 0.6987248651	-2.1172926931	-1.2441285685	-0.089814
N	-0.599612409	-2.7826666237	-1.2428022399	-0.524636
C	 1.4520581872	-2.5851885045	-2.4801939537	 0.466631
O	 0.9315191861	-2.9060946506	-3.5200803203	-0.371941
O	 2.7832726024	-2.5464959128	-2.2893899169	-0.232347
C	 3.5772295391	-2.9040473174	-3.4286256528	-0.242123
H	 1.1039940853	 1.9640375009	-0.0967345517	 0.116995
H	-0.4749843584	 1.9791861987	-0.89032766	 0.11722
H	-0.3733685551	 2.0054135168	 0.8752730118	 0.114348
H	 0.5836327588	-0.3090055782	 0.8819352766	 0.100644
H	-0.9873039314	-0.2815190122	 0.0970906349	 0.09202
H	 0.1379885434	-0.2311707227	-2.1545641906	 0.100537
H	 1.7116779891	-0.2053898677	-1.3583181117	 0.104983
H	 1.2688674248	-2.4382370336	-0.3635266347	 0.09826
H	-1.2437425621	-2.3115873985	-0.617724125	 0.226727
H	-0.9853275803	-2.7428327019	-2.1821178537	 0.239468
H	 3.3571472895	-3.9270855457	-3.7432799646	 0.144285
H	 3.3785328718	-2.229370721	-4.265250975	 0.140054
H	 4.614760528	-2.8180909532	-3.1059403739	 0.133562
43.3339	76.009	97.3181	108.981	119.3117	188.2027	206.3411	244.8365	257.3867	292.0108	326.9719	358.7297	398.5992	522.6659	705.0963	747.0538	755.7993	854.2556	860.6882	892.2803	920.6686	980.7493	1023.4345	1048.9503	1089.6327	1116.5764	1161.5616	1179.2266	1192.1498	1211.539	1244.3147	1279.7503	1302.4341	1332.2848	1357.7256	1385.6532	1412.5642	1423.6483	1474.8358	1479.8131	1481.5318	1491.7743	1497.2289	1499.5846	1508.9655	1632.3185	1819.0118	3011.232	3017.8329	3031.4872	3033.1316	3041.384	3052.4791	3067.3972	3099.3615	3103.9901	3127.5806	3159.7292	3499.2861	3590.0788
CCCC(N)C(=O)OC	CCC[C@@H](N)C(=O)OC	
InChI=1S/C6H13NO2/c1-3-4-5(7)6(8)9-2/h5H,3-4,7H2,1-2H3	InChI=1S/C6H13NO2/c1-3-4-5(7)6(8)9-2/h5H,3-4,7H2,1-2H3/t5-/m1/s1
