13
gdb 20659	5.95584	1.6128	1.27921	3.799	63.17	-0.2359	-0.071	0.165	894.3696	0.096349	-394.807723	-394.80089	-394.799946	-394.839267	24.711	
C	-0.0616565204	 1.4895243549	 0.0013773329	-0.483179
C	-0.003097024	-0.01149474	-0.0138584098	 0.330809
C	 0.1263195172	-0.7572022248	-1.1934235076	-0.045933
N	 0.1754323623	-2.0781291321	-1.1750943981	-0.320366
C	 0.0918848479	-2.6201949568	 0.0465844635	 0.490828
O	 0.13504924	-3.9534490655	 0.1356236844	-0.382321
N	-0.0322078518	-1.9708443997	 1.203527285	-0.235196
N	-0.07917823	-0.6464189131	 1.1585724624	-0.22269
H	 0.8461725767	 1.9288868008	-0.4260937027	 0.138135
H	-0.9103667947	 1.8620085879	-0.582416496	 0.138021
H	-0.1662914726	 1.8359417117	 1.0306543094	 0.15439
H	 0.19071249	-0.2710098036	-2.1650979135	 0.127695
H	 0.2249902994	-4.2884840297	-0.76688388	 0.309807
58.7346	116.1969	307.5402	339.5987	410.8501	465.5552	526.3667	528.9944	573.0153	671.7925	786.2155	832.9189	895.0201	970.5184	992.4425	1069.857	1072.4027	1140.8047	1198.8707	1288.4982	1364.9002	1404.3379	1410.7527	1481.6018	1485.4007	1495.983	1568.8489	1626.7633	3038.2289	3092.6813	3145.2204	3148.5348	3782.9354
CC1=CN=C(O)N=N1	Cc1cnc(O)nn1	
InChI=1S/C4H5N3O/c1-3-2-5-4(8)7-6-3/h2H,1H3,(H,5,7,8)	InChI=1S/C4H5N3O/c1-3-2-5-4(8)7-6-3/h2H,1H3,(H,5,7,8)
