15
gdb 14850	2.4889	2.18315	1.31522	4.4391	61.69	-0.2781	-0.0041	0.274	922.0849	0.117949	-399.770186	-399.762161	-399.761217	-399.803259	27.588	
C	 0.0006739371	 1.2398179446	 0.4752009231	-0.252716
O	-0.1066748357	 0.1499906128	-0.4273524711	-0.224815
C	-1.2949839024	-0.5536000372	-0.3279697266	 0.087911
C	-1.4145441128	-1.7027206914	-1.3379404805	-0.106848
O	-1.6907675847	-2.6592669207	-0.2844595984	-0.269145
C	-1.4206582595	-1.6968328544	 0.7480205791	-0.068576
C	-0.1977433649	-1.9839630185	 1.5017862002	 0.300687
N	 0.7602115441	-2.1935953861	 2.1132792308	-0.322994
H	 0.9457978501	 1.7392512702	 0.2564599612	 0.144139
H	-0.8263339731	 1.9514857029	 0.3363353833	 0.113117
H	 0.0119527789	 0.9021294337	 1.5194769379	 0.129635
H	-2.1645580314	 0.1168525167	-0.295670209	 0.090414
H	-2.2308810339	-1.6498546115	-2.063611713	 0.119908
H	-0.4670083653	-1.9113690718	-1.8463731399	 0.132574
H	-2.2598066263	-1.6097141593	 1.4474609028	 0.12671
66.5534	107.9343	142.8312	185.1723	232.2202	272.5988	383.8243	435.9085	550.3235	619.0583	753.2245	815.7944	916.4849	970.6832	1024.1142	1026.615	1061.5664	1097.6971	1160.4252	1174.9114	1181.9304	1217.2645	1258.8308	1276.9502	1339.3536	1349.8334	1404.3317	1482.3617	1493.2329	1504.0923	1515.0489	2354.671	2993.8684	3012.6039	3042.9122	3050.2561	3057.7187	3103.4148	3137.068
COC1COC1C#N	CO[C@H]1CO[C@H]1C#N	
InChI=1S/C5H7NO2/c1-7-5-3-8-4(5)2-6/h4-5H,3H2,1H3	InChI=1S/C5H7NO2/c1-7-5-3-8-4(5)2-6/h4-5H,3H2,1H3/t4-,5-/m0/s1
