21
gdb 115114	3.03113	1.14356	0.89537	1.1856	86.84	-0.2357	0.0199	0.2556	1354.6444	0.18291	-387.084944	-387.075898	-387.074954	-387.119401	33.857	
C	-0.299544785	 1.5333940544	 0.0823696208	-0.238392
O	-0.0982807055	 0.1873347133	-0.2777645824	-0.243583
C	-1.2058476566	-0.6596427529	 0.0106429577	 0.069479
C	-1.0852631395	-1.8679753445	-0.9269086572	-0.261693
C	-2.3014460221	-2.7558076741	-0.9602272172	-0.076131
C	-3.1077050204	-3.1198775446	 0.0369814901	-0.03663
C	-3.041884852	-2.8336356772	 1.5123532691	-0.3057
C	-1.9709380081	-1.9446568035	 2.0826944303	-0.057307
C	-1.2155166583	-1.0328308575	 1.4752350922	-0.072075
H	 0.6025730758	 2.0829091928	-0.1983967723	 0.125651
H	-1.1616902632	 1.9698634803	-0.4469881912	 0.103441
H	-0.4650584666	 1.6617867102	 1.1629779826	 0.10392
H	-2.1376619699	-0.1263818535	-0.2441595374	 0.076096
H	-0.896887334	-1.4775225998	-1.93233808	 0.105401
H	-0.1889743533	-2.4363401883	-0.6477426866	 0.119914
H	-2.5518196397	-3.1374100173	-1.948040092	 0.084392
H	-3.9470585448	-3.7636356044	-0.2238149086	 0.083353
H	-4.0218455769	-2.4416526327	 1.8349599713	 0.121867
H	-2.9812179208	-3.8060998137	 2.0261983361	 0.119723
H	-1.8356556538	-2.0653916376	 3.1562615798	 0.086522
H	-0.4949112452	-0.4819475592	 2.0753693848	 0.091752
38.3906	102.2227	134.1878	183.7344	249.0396	322.4801	352.1187	370.8009	427.929	448.66	511.8072	637.6057	701.3983	717.0847	808.9688	853.3416	888.0564	940.2574	958.9288	1000.9819	1008.7276	1017.5639	1034.8745	1070.2851	1115.7577	1142.9717	1185.3199	1197.6341	1225.6887	1236.1947	1254.8264	1273.5083	1335.0556	1344.4368	1373.7287	1398.8177	1420.5353	1441.033	1452.9801	1479.3092	1484.1526	1486.9631	1511.1365	1736.0904	1743.8613	2949.7573	2966.0947	2971.9777	2990.3208	3016.9849	3029.4766	3072.7656	3110.6991	3121.6437	3130.7264	3149.213	3158.9273
COC1CC=CCC=C1	CO[C@H]1CC=CCC=C1	
InChI=1S/C8H12O/c1-9-8-6-4-2-3-5-7-8/h2,4-5,7-8H,3,6H2,1H3	InChI=1S/C8H12O/c1-9-8-6-4-2-3-5-7-8/h2,4-5,7-8H,3,6H2,1H3/t8-/m0/s1
