16
gdb 66038	2.35181	1.37215	1.13689	3.6713	75.81	-0.257	0.0031	0.2601	1122.2118	0.12393	-396.869557	-396.86066	-396.859715	-396.903066	33.04	
N	 0.1779919141	 1.4926345192	 0.0076177799	-0.537503
C	 0.0690651501	 0.0503881207	-0.0262416277	 0.122682
C	 0.1769230164	-0.5740109379	 1.3958208029	-0.198152
N	-1.2995315894	-0.6213123186	 1.4592248105	-0.316501
C	-1.4039674928	-0.5761177623	-0.0204560054	-0.237092
C	-2.4720563456	 0.2280630954	-0.5765733889	 0.339301
C	-3.3248850879	 0.9240712075	-1.0606115799	-0.414847
C	 0.9476390885	-0.5010775899	-1.0537257507	 0.278777
N	 1.6165087505	-0.9652265121	-1.8738258948	-0.334799
H	-0.1370895323	 1.887388488	-0.8747500159	 0.246772
H	-0.4473174572	 1.8484410468	 0.7259232578	 0.253117
H	 0.6773442686	-1.549938101	 1.3786761204	 0.11995
H	 0.650333751	 0.068701238	 2.1432706051	 0.128279
H	-1.7016285281	-1.4458878097	 1.8909156141	 0.232949
H	-1.3851097082	-1.5668022729	-0.4957876697	 0.110447
H	-4.0944333177	 1.5229014387	-1.4825411879	 0.206617
83.2617	125.0335	152.4264	195.571	233.4389	296.037	336.508	385.0051	458.8317	516.6292	562.7195	595.6263	608.7474	640.7812	666.1159	722.9418	860.1586	878.3703	935.4514	978.2521	1003.1766	1035.2559	1052.1888	1091.8051	1143.8025	1174.441	1263.4791	1302.1131	1358.714	1366.0437	1389.1797	1515.5683	1659.8712	2233.2985	2360.3897	3003.0718	3025.9464	3093.0456	3488.7208	3499.0341	3538.6263	3569.1917
NC1(CNC1C#C)C#N	N[C@]1(CN[C@H]1C#C)C#N	
InChI=1S/C6H7N3/c1-2-5-6(8,3-7)4-9-5/h1,5,9H,4,8H2	InChI=1S/C6H7N3/c1-2-5-6(8,3-7)4-9-5/h1,5,9H,4,8H2/t5-,6-/m0/s1
