20
gdb 79046	3.5668	1.66377	1.40456	1.2296	82.84	-0.2089	0.0851	0.2939	988.1127	0.172826	-365.903967	-365.897024	-365.89608	-365.934802	29.297	
C	 0.0711788173	 1.5126761105	-0.1302240447	-0.332398
N	-0.0106143909	 0.0561665151	-0.0739431619	-0.203648
C	-1.175963408	-0.5114100589	 0.7353173108	-0.063309
C	-0.3750970783	-1.7951524596	 1.053849218	-0.058949
C	-0.364434723	-1.6951765762	 2.5917887607	-0.101449
C	 1.1422095205	-1.8152395562	 2.9899161368	-0.212708
C	 1.8722352465	-0.9798224843	 1.8598830275	-0.362096
C	 0.6049734568	-0.5927649374	 1.1270293653	 0.386662
C	-0.5422603403	-0.2325218614	 2.1367384016	-0.082375
H	 1.0694723745	 1.8052553165	-0.4724386159	 0.118734
H	-0.652087308	 1.8822762332	-0.8646152467	 0.11723
H	-0.1242145755	 2.0201884431	 0.8295723776	 0.0928
H	-2.2046441752	-0.3951064074	 0.3913436048	 0.07594
H	-0.2345534028	-2.6565661039	 0.4008197192	 0.075511
H	-1.084959585	-2.212974462	 3.2266717399	 0.060461
H	 1.3334033801	-1.4010927751	 3.9847215473	 0.101238
H	 1.4763425944	-2.8572270037	 2.9974604267	 0.102833
H	 2.4296835108	-0.1299851557	 2.2631141573	 0.10368
H	 2.554417256	-1.5908638857	 1.2625612225	 0.108624
H	-0.60975915	 0.663678609	 2.753379033	 0.073218
206.0373	214.0461	231.9077	284.3821	375.813	483.3989	546.6854	662.8488	703.2177	748.009	765.2167	789.8428	828.0733	857.0541	868.5092	897.6549	914.8971	934.4285	950.9983	971.2535	1011.0888	1045.0875	1075.7254	1116.9863	1122.2279	1140.3329	1148.1115	1166.4639	1179.3724	1182.1343	1209.6629	1219.0576	1229.2797	1253.1262	1259.557	1304.1814	1335.4881	1340.1081	1444.2524	1488.2992	1490.7661	1497.7333	1510.8955	2962.7613	3048.3531	3059.5263	3061.5276	3087.8659	3096.732	3096.8733	3100.6214	3108.0306	3112.5552	3122.8095
CN1C2C3C4CCC13C24	CN1[C@H]2[C@@H]3[C@H]4CC[C@@]13[C@@H]24	
InChI=1S/C8H11N/c1-9-7-5-4-2-3-8(5,9)6(4)7/h4-7H,2-3H2,1H3	InChI=1S/C8H11N/c1-9-7-5-4-2-3-8(5,9)6(4)7/h4-7H,2-3H2,1H3/t4-,5+,6-,7+,8-
