19
gdb 46551	3.63392	1.17226	1.06718	2.078	75.31	-0.2417	-0.0239	0.2178	1181.0915	0.159235	-423.042466	-423.034465	-423.033521	-423.075371	30.942	
O	 0.2712632365	 0.1163254051	-0.5881612564	-0.297088
C	 0.1393818236	 1.2406008614	-0.1860509623	 0.367601
C	-1.1740095093	 1.9040904908	 0.2392294018	-0.194116
O	-0.827947547	 3.1866429993	 0.7223707981	-0.297543
C	 0.4045850917	 3.5966022387	 0.1259735807	 0.4324
C	 0.3106433022	 4.4552653761	-1.1745073637	-0.282197
C	 1.3771382826	 5.4048924481	-0.5639223649	-0.21418
C	 1.066418185	 4.7958391455	 0.8317130316	-0.2872
C	 1.219254588	 2.3058026616	-0.0015783483	-0.400065
H	-1.8489413096	 1.9509855649	-0.6306473286	 0.12302
H	-1.6761024249	 1.3332546289	 1.0268650965	 0.137082
H	 0.5337265223	 3.9724125637	-2.1296688644	 0.098007
H	-0.6710918443	 4.932264868	-1.2325586314	 0.112909
H	 2.3880132545	 5.1646675237	-0.9032864871	 0.106888
H	 1.2166125642	 6.4771183893	-0.6861139897	 0.106802
H	 0.3070023809	 5.3719461859	 1.3668300255	 0.117879
H	 1.8987216194	 4.5854910398	 1.5080522138	 0.098132
H	 1.7485762894	 2.088101081	 0.9351490608	 0.136563
H	 1.9464393347	 2.2857565583	-0.8150578718	 0.135106
74.7277	113.9096	132.7728	269.2401	347.6839	413.9195	445.8287	478.0341	482.3697	612.7515	685.1725	748.9743	775.8211	797.0061	841.8101	877.1273	910.6514	930.113	953.0627	966.5608	1040.1137	1073.2243	1089.2808	1107.002	1172.7738	1186.5838	1197.5708	1213.1378	1221.6258	1249.4385	1254.3562	1277.0815	1282.5652	1322.4161	1341.7091	1444.873	1469.9437	1479.4859	1485.3574	1505.8174	1862.0967	2982.184	3034.9698	3056.4065	3061.7961	3070.0459	3078.6091	3108.8967	3115.6115	3122.9375	3130.7506
O=C1COC2(CCC2)C1	O=C1COC2(CCC2)C1	
InChI=1S/C7H10O2/c8-6-4-7(9-5-6)2-1-3-7/h1-5H2	InChI=1S/C7H10O2/c8-6-4-7(9-5-6)2-1-3-7/h1-5H2
