19
gdb 65619	3.27587	1.29459	1.19589	1.733	81.28	-0.2483	0.0307	0.279	1123.0519	0.157735	-385.824335	-385.815769	-385.814825	-385.857356	33.344	
C	 0.1711969539	 1.4269600611	-0.190282364	-0.441666
C	 0.0386439121	-0.0783211168	 0.0049032283	 0.192294
O	 0.9471608677	-0.8175884008	-0.8721521443	-0.326885
C	 1.4596605635	-1.6062696783	 0.2235989095	 0.125297
C	 2.797025087	-1.0627040323	 0.7722506477	-0.230842
C	 2.00187847	-0.1815309269	 1.7889627717	-0.257641
C	 0.6642364708	-0.7676132583	 1.2584138072	-0.109048
C	-1.3445009966	-0.507982724	-0.208767409	 0.341829
C	-2.4828235799	-0.8611812682	-0.3669605012	-0.469783
H	 1.2102038526	 1.7419766019	-0.075449416	 0.12272
H	-0.1599219405	 1.6947814206	-1.1973097478	 0.138126
H	-0.4521337091	 1.9644487695	 0.5305962688	 0.12748
H	 1.3453350493	-2.6792334661	 0.0509160568	 0.079541
H	 3.4202794816	-1.823154248	 1.2505116848	 0.102027
H	 3.3923543126	-0.5334378193	 0.0252243447	 0.111551
H	 2.1865042342	-0.4540962254	 2.8303416784	 0.106464
H	 2.1264414505	 0.8994983615	 1.7010304656	 0.105575
H	-0.0395930321	-1.1734720094	 1.9818925212	 0.085823
H	-3.4861010978	-1.1758010708	-0.5170841823	 0.197139
69.8773	141.1509	171.4198	206.7722	299.1715	322.5707	394.0428	413.9558	478.6669	549.5782	623.7803	633.7072	659.5685	713.3001	755.4437	822.7727	834.5165	889.8339	914.4387	925.8143	958.241	977.1723	1026.0408	1050.3039	1101.1058	1130.4995	1165.1687	1181.8691	1210.8546	1220.0512	1242.679	1272.9657	1288.2423	1309.6323	1329.348	1402.3194	1463.0106	1478.2418	1480.2794	1505.6422	2229.1347	3049.3537	3060.144	3072.2293	3078.8807	3110.3975	3122.3493	3126.8862	3134.9885	3138.8936	3500.4297
CC1(OC2CCC12)C#C	C[C@]1(O[C@H]2CC[C@@H]12)C#C	
InChI=1S/C8H10O/c1-3-8(2)6-4-5-7(6)9-8/h1,6-7H,4-5H2,2H3	InChI=1S/C8H10O/c1-3-8(2)6-4-5-7(6)9-8/h1,6-7H,4-5H2,2H3/t6-,7+,8+/m1/s1
