23
gdb 78497	2.42337	1.51243	1.25204	0.441	90.34	-0.2272	0.0931	0.3203	1174.4925	0.205284	-351.124296	-351.115094	-351.11415	-351.157423	36.107	
C	-0.0199987553	 1.6161753032	 0.061925289	-0.424007
C	 0.1010427164	 0.0973000749	 0.0281012672	 0.041005
C	 0.809781396	-0.620428189	-1.1204925525	-0.177029
C	 2.3101010677	-0.7518845162	-0.7684958308	 0.300324
C	 3.3538712721	-0.9819892828	-1.8210666672	-0.506907
C	 2.5027067177	-0.0987497125	 0.5997796102	-0.289286
C	 1.1015145855	-0.6591896803	 0.9567729051	-0.132637
C	 1.2939751722	-1.7263316093	-0.2064512	 0.316361
C	 1.1608441275	-3.212704303	-0.2586492339	-0.532453
H	 0.9382258515	 2.1111743415	-0.1183586298	 0.116022
H	-0.716943377	 1.9637214736	-0.7092218438	 0.110526
H	-0.4017966557	 1.9606384283	 1.030179425	 0.109245
H	-0.8913933144	-0.3513545467	 0.1599354255	 0.064372
H	 0.4836137339	-0.7174657396	-2.1504099811	 0.07012
H	 3.6820712706	-0.0372565026	-2.2713238509	 0.117992
H	 4.2403149378	-1.4756021407	-1.4053140211	 0.113796
H	 2.9728041454	-1.6137790485	-2.6310302111	 0.114508
H	 3.2887574808	-0.6118208342	 1.1638359212	 0.089455
H	 2.6640978263	 0.9835707291	 0.6673325536	 0.081616
H	 0.8369845623	-0.8774816167	 1.9907930049	 0.059426
H	 0.1418302368	-3.5380138944	-0.0166800871	 0.119509
H	 1.3947626173	-3.5886808012	-1.2610260475	 0.120273
H	 1.8404380347	-3.707516983	 0.4457218249	 0.117768
147.42	168.1912	191.8499	195.5847	199.5511	219.6552	281.5045	325.8123	373.0803	475.6152	566.4227	586.6604	649.2306	687.4473	728.1474	792.5296	871.7663	888.8095	901.0168	939.8536	961.6872	973.6268	999.657	1047.2697	1068.2922	1086.3594	1099.8431	1122.7858	1127.3448	1153.3742	1169.8447	1191.1495	1212.47	1239.2615	1269.3376	1297.0346	1341.1342	1391.7233	1407.815	1412.348	1416.9659	1462.6174	1482.0842	1488.1269	1491.001	1494.1517	1496.063	1505.9107	1516.4817	3014.5921	3017.2176	3023.7367	3027.1226	3031.4697	3070.4981	3074.0404	3077.3477	3083.8272	3086.1419	3087.3228	3109.8859	3119.2019	3171.0381
CC1C2C3(C)CC1C23C	C[C@H]1[C@H]2[C@@]3(C)C[C@@H]1[C@@]23C	
InChI=1S/C9H14/c1-5-6-4-8(2)7(5)9(6,8)3/h5-7H,4H2,1-3H3	InChI=1S/C9H14/c1-5-6-4-8(2)7(5)9(6,8)3/h5-7H,4H2,1-3H3/t5-,6+,7+,8-,9+/m1/s1
