21
gdb 116463	2.7104	1.26082	1.01107	2.7509	74.89	-0.2471	0.0747	0.3218	1248.475	0.183113	-461.352955	-461.343926	-461.342981	-461.38667	34.19	
C	 0.0589017993	 1.3839357364	 0.0956359572	-0.239281
O	-0.1369127793	 0.0010424606	-0.084034036	-0.243937
C	 0.5889958751	-0.5650923876	-1.153200403	 0.136694
C	 2.0935253107	-0.710467767	-0.8692084853	-0.252806
C	 2.7682860793	-1.501963269	-1.9962090346	-0.081274
O	 2.1257988899	-2.7494404843	-2.2321973751	-0.256855
C	 0.7673885418	-2.573277702	-2.6174595393	-0.125876
C	-0.0105137603	-1.950266281	-1.4545964646	 0.109006
O	 0.0361164253	-2.8119557896	-0.3305468063	-0.436039
H	 1.0821824359	 1.6316691466	 0.4140469118	 0.105545
H	-0.1611592503	 1.9502454167	-0.8238869732	 0.099853
H	-0.6318968601	 1.7055264396	 0.8789233028	 0.129889
H	 0.4551744223	 0.0565388627	-2.0584249377	 0.054712
H	 2.5780811157	 0.2666646874	-0.7728442363	 0.098619
H	 2.2151664084	-1.2347871065	 0.0847839209	 0.117122
H	 2.7702166988	-0.9088033595	-2.9264184204	 0.091427
H	 3.8067566151	-1.7361382631	-1.7467902408	 0.114216
H	 0.6985923166	-1.9513285595	-3.524573229	 0.090924
H	 0.3774275562	-3.5692651571	-2.8429705879	 0.118305
H	-1.0672730014	-1.8286032748	-1.7159039663	 0.084416
H	 0.9102952711	-3.2209737891	-0.338442747	 0.285339
81.3681	124.6346	168.6644	198.7535	222.1092	314.1642	334.6842	358.1314	418.8224	442.091	455.2426	546.5582	626.1371	714.5743	817.756	867.1178	891.5807	928.2372	966.9133	1015.2993	1029.3611	1051.226	1111.5177	1132.3104	1149.7093	1174.6803	1183.1803	1210.	1226.4286	1243.5352	1267.0477	1307.8001	1334.1628	1351.9468	1363.1525	1389.978	1397.6026	1419.5929	1432.28	1479.2882	1485.8866	1488.3602	1492.947	1503.0781	1510.7198	2925.8432	2965.7479	2971.2369	2980.8584	3021.6013	3047.6168	3060.3763	3088.909	3094.6666	3098.4662	3112.3322	3781.1362
COC1CCOCC1O	CO[C@H]1CCOC[C@H]1O	
InChI=1S/C6H12O3/c1-8-6-2-3-9-4-5(6)7/h5-7H,2-4H2,1H3	InChI=1S/C6H12O3/c1-8-6-2-3-9-4-5(6)7/h5-7H,2-4H2,1H3/t5-,6+/m1/s1
