22
gdb 95685	2.89113	1.1866	0.91187	3.8817	82.75	-0.2339	0.0359	0.2699	1330.618	0.196416	-404.406672	-404.397659	-404.396714	-404.440366	34.805	
C	 0.0187712709	 1.5979088441	 0.0005740874	-0.399762
C	-0.026333089	 0.0640792847	-0.0187791557	 0.038518
C	 0.6369326763	-0.4716082275	-1.2993923789	-0.180943
C	 0.6223349217	-1.9935320524	-1.492513449	-0.213545
C	 1.3962559632	-2.7958411237	-0.4272416647	-0.299028
C	 0.6273608972	-3.003152756	 0.8716253893	 0.370512
O	 0.2984202586	-4.1085377912	 1.2649761951	-0.370244
N	 0.3009593894	-1.8750569196	 1.5733013358	-0.288802
C	 0.6291445698	-0.4932232228	 1.2608010147	-0.168902
H	 1.0523769661	 1.9621442034	 0.0447290261	 0.11636
H	-0.4385192517	 2.0166348162	-0.9011349534	 0.117319
H	-0.5142318884	 2.0038231406	 0.8668156376	 0.112022
H	-1.0772959175	-0.2560400097	-0.0068694215	 0.078541
H	 0.1485746929	-0.0055446771	-2.1640432298	 0.09515
H	 1.6805928346	-0.1233093223	-1.3184636045	 0.091406
H	-0.4115872923	-2.358219778	-1.5378623914	 0.108744
H	 1.0648498989	-2.2140322616	-2.4704474945	 0.101927
H	 1.61693663	-3.7993307224	-0.7947894066	 0.124496
H	 2.3556181392	-2.3027448892	-0.2195661089	 0.10632
H	-0.2247830216	-2.0627258171	 2.4134314899	 0.243383
H	 1.7193535059	-0.358997212	 1.1970357212	 0.109245
H	 0.2994540461	 0.1013082435	 2.1177978519	 0.107285
62.0474	124.3918	209.5599	220.5515	265.3734	298.1144	317.4339	362.4798	417.7225	477.3397	483.8583	524.3189	622.6486	715.5688	749.1893	826.8301	854.4288	882.3977	919.9964	936.3496	973.012	1005.3011	1064.0535	1091.0471	1107.6577	1136.7009	1156.1859	1198.7211	1239.307	1260.3931	1313.8043	1317.8086	1330.6594	1350.2479	1376.707	1385.9174	1397.395	1407.9854	1419.2239	1464.8911	1471.8406	1481.7649	1493.7493	1496.1907	1500.0755	1504.4482	1784.4342	2992.6225	2997.4675	3017.2287	3020.3978	3026.8164	3027.3683	3052.1657	3067.558	3079.8869	3091.446	3103.9321	3117.5981	3621.8663
CC1CCCC(=O)NC1	C[C@H]1CCCC(=O)NC1	
InChI=1S/C7H13NO/c1-6-3-2-4-7(9)8-5-6/h6H,2-5H2,1H3,(H,8,9)	InChI=1S/C7H13NO/c1-6-3-2-4-7(9)8-5-6/h6H,2-5H2,1H3,(H,8,9)/t6-/m0/s1
