20
gdb 91783	2.39265	1.68116	1.2242	3.1727	78.76	-0.2269	-0.0149	0.2119	1099.8251	0.171089	-403.166696	-403.157842	-403.156898	-403.199956	33.731	
C	 0.7718852967	 1.4759954406	 0.0217291254	-0.401995
C	-0.0020094884	 0.1527449385	-0.095871119	-0.092724
C	 0.4070539134	-0.7396999971	-1.2993033334	-0.238895
C	 1.2133733768	-1.8859739273	-0.7038704623	-0.083934
N	 2.3279285942	-1.4056300747	 0.126166238	-0.364007
C	 1.0751830141	-1.9094625694	 0.7792232117	 0.203953
C	 1.0928743809	-3.1226027377	 1.6640633925	-0.497225
C	 0.2138490018	-0.7274063329	 1.1494499653	 0.3985
O	-0.2719748799	-0.5373754777	 2.2370278455	-0.337073
H	 1.848125826	 1.2901620037	 0.0490588967	 0.145229
H	 0.5519064588	 2.1245292625	-0.8322866669	 0.110931
H	 0.4836472527	 2.0036338234	 0.9355333134	 0.130066
H	-1.0717893667	 0.3825431139	-0.1321837178	 0.099388
H	-0.4787245462	-1.1397397525	-1.8038902649	 0.103499
H	 0.9909389459	-0.1883277162	-2.0431016666	 0.10938
H	 1.3348913526	-2.8110874868	-1.2594544315	 0.090803
H	 3.0276793064	-2.1411272097	 0.2125061933	 0.233544
H	 1.7276579582	-3.908813871	 1.2425095782	 0.111182
H	 1.4684424565	-2.8659534506	 2.6594043686	 0.143785
H	 0.0844352762	-3.5283586491	 1.7906006439	 0.135594
76.1953	154.5968	184.7474	215.1983	238.3247	264.0526	300.0819	366.6521	425.5251	479.2138	561.4248	627.0236	660.4501	770.0168	787.7946	832.729	868.7474	918.117	922.0754	972.0129	996.7456	1038.1804	1054.2749	1092.885	1112.4673	1126.7601	1137.7065	1166.2657	1235.6603	1267.4973	1300.9439	1325.7977	1343.7225	1363.3924	1396.9784	1414.0422	1443.7072	1478.9481	1486.696	1494.1146	1497.7038	1509.1851	1833.1636	3035.9881	3039.7335	3043.0568	3057.4003	3087.9835	3107.016	3108.5719	3109.5002	3132.8975	3156.458	3478.8698
CC1CC2NC2(C)C1=O	C[C@H]1C[C@H]2N[C@@]2(C)C1=O	
InChI=1S/C7H11NO/c1-4-3-5-7(2,8-5)6(4)9/h4-5,8H,3H2,1-2H3	InChI=1S/C7H11NO/c1-4-3-5-7(2,8-5)6(4)9/h4-5,8H,3H2,1-2H3/t4-,5+,7+/m0/s1
