18
gdb 74936	3.01011	1.77046	1.49868	1.6055	76.28	-0.2275	0.0012	0.2286	943.3511	0.149979	-401.901183	-401.894391	-401.893447	-401.932061	28.175	
C	 0.051233846	 1.4729736607	 0.0353035347	-0.501835
C	-0.0054006991	-0.0225857363	-0.0157155645	 0.355688
C	-0.1095314537	-0.7771499449	-1.1225824934	-0.186358
C	 0.0615425589	-2.2397060974	-0.8658888839	 0.022276
O	 1.3870093052	-2.3893418563	-0.2296372699	-0.288082
C	 0.7608706076	-2.246374898	 1.0261161737	 0.11946
C	-0.6188617619	-2.6832573758	 0.5324450741	-0.054208
N	-1.2706919917	-1.6426911782	 1.3091018018	-0.298577
C	 0.0001817747	-0.8391083023	 1.2547245473	-0.164057
H	 1.002918903	 1.8117347634	 0.4648090759	 0.13403
H	-0.0438107841	 1.9121934273	-0.9616136341	 0.125316
H	-0.7410687855	 1.8867024696	 0.671629279	 0.126166
H	-0.2087054317	-0.3747471336	-2.1250025209	 0.092902
H	-0.0394984156	-2.8988889929	-1.7281179902	 0.072292
H	 1.3327916114	-2.6415604093	 1.8656329889	 0.090163
H	-1.0397724158	-3.6895865662	 0.5606260672	 0.083169
H	-2.0598944493	-1.1834273594	 0.8549894232	 0.206866
H	 0.2122989716	-0.2717778305	 2.1633594911	 0.064788
153.1287	184.3943	303.0476	382.1372	414.0792	478.3432	534.2732	643.6947	670.9606	718.3206	737.1541	768.7124	808.8257	819.2736	860.1964	904.185	949.3703	978.946	997.6243	1029.2334	1051.9815	1059.1104	1073.1898	1085.1612	1131.7799	1172.3914	1197.7715	1216.5846	1234.4781	1287.0053	1305.7742	1321.165	1333.4691	1352.8815	1373.2524	1411.7139	1478.1568	1486.051	1683.3811	3016.4422	3064.0418	3084.5376	3096.3164	3109.5462	3113.3719	3120.8918	3182.2243	3454.3965
CC1=CC2OC3C2NC13	CC1=C[C@H]2O[C@@H]3[C@H]2N[C@H]13	
InChI=1S/C7H9NO/c1-3-2-4-6-7(9-4)5(3)8-6/h2,4-8H,1H3	InChI=1S/C7H9NO/c1-3-2-4-6-7(9-4)5(3)8-6/h2,4-8H,1H3/t4-,5-,6+,7+/m1/s1
