21
gdb 122123	3.10066	0.70125	0.59869	2.934	77.06	-0.2465	-0.0186	0.228	1864.5402	0.178685	-461.351238	-461.339961	-461.339017	-461.38922	37.925	
C	-0.0230153102	 1.3694854454	 0.0256999327	-0.229671
O	-0.0394595742	-0.0356552735	 0.105888442	-0.233106
C	-1.3339687385	-0.5770361109	-0.0382782995	-0.059552
C	-1.2235417394	-2.0929542105	 0.0813749894	-0.236345
C	-2.5866446828	-2.8100184601	-0.0174434265	-0.06499
C	-2.4068502956	-4.3107033074	-0.2257677808	-0.101934
O	-3.7022840213	-4.8856982436	-0.2812162281	-0.419222
C	-3.3783995836	-2.5630737022	 1.2567397702	 0.18348
O	-4.21950857	-1.7143804544	 1.394449173	-0.254671
H	 1.0128930497	 1.6927932291	 0.1540123312	 0.12616
H	-0.3889450315	 1.7282937435	-0.9496195735	 0.103942
H	-0.6404713981	 1.8312530461	 0.8123163612	 0.107375
H	-2.0137516721	-0.172172477	 0.7285055032	 0.108383
H	-1.7612282277	-0.3040861168	-1.0189377357	 0.088586
H	-0.5606619276	-2.460189052	-0.7104805834	 0.112255
H	-0.7343128644	-2.3361171188	 1.0332493401	 0.112278
H	-3.167807631	-2.3986821924	-0.8502027627	 0.104967
H	-1.8403495744	-4.4898363246	-1.151996701	 0.097298
H	-1.8166613991	-4.7298075916	 0.6064814692	 0.091789
H	-3.6134699532	-5.8416507805	-0.3370675835	 0.292181
H	-3.0800876051	-3.221307728	 2.1079889125	 0.070796
53.1343	56.8521	78.2852	106.3842	121.5242	143.2359	216.5323	234.4047	264.2254	289.8253	315.2239	340.8707	443.1486	540.7954	553.8937	788.1851	876.7901	956.1142	979.8183	993.9152	1037.1332	1056.1285	1097.0391	1126.2245	1158.2479	1164.4878	1183.91	1212.6181	1232.1515	1243.9329	1247.0169	1296.5463	1307.3343	1343.1001	1354.7869	1425.7465	1432.2847	1453.3264	1482.709	1486.104	1492.5918	1506.4279	1520.6951	1532.8654	1837.1077	2844.0023	2952.945	2963.2026	2971.3624	2994.9868	3002.06	3013.9675	3028.9754	3059.3514	3074.3015	3113.4574	3831.2637
COCCC(CO)C=O	COCC[C@@H](CO)C=O	
InChI=1S/C6H12O3/c1-9-3-2-6(4-7)5-8/h4,6,8H,2-3,5H2,1H3	InChI=1S/C6H12O3/c1-9-3-2-6(4-7)5-8/h4,6,8H,2-3,5H2,1H3/t6-/m1/s1
