20
gdb 40769	2.88839	1.31397	1.07374	2.7193	79.17	-0.2311	0.071	0.3021	1186.1017	0.170829	-403.076939	-403.068616	-403.067671	-403.1102	32.002	
C	-0.15192033	 1.1270379107	-0.4387980134	-0.229397
C	 1.2171182836	 0.9748249393	 0.1303612216	-0.218415
N	 0.2933885899	-0.1506230158	 0.1004495086	-0.080227
C	-0.2365082209	-0.6479770677	 1.3517660849	-0.029203
C	-0.846209488	 0.2450006869	 2.4959755203	-0.266907
C	-1.9775359071	-0.8118696699	 2.6713695941	-0.322905
C	-1.5772394898	-1.3850232318	 1.3111535603	 0.452547
C	-2.4090936617	-1.67187684	 0.1420537517	-0.262839
O	-1.765737924	-2.7175789943	 0.8882427716	-0.274929
H	-0.8616022932	 1.7273760289	 0.1253468082	 0.112263
H	-0.3004865611	 1.148861011	-1.5148804504	 0.117146
H	 2.0847593105	 0.8971886877	-0.5191856881	 0.118326
H	 1.4056350389	 1.4571724715	 1.0881547001	 0.112688
H	 0.5248437826	-1.3104262898	 1.7801072209	 0.096203
H	-0.2067022459	 0.4335183819	 3.3594384373	 0.104899
H	-1.2383399502	 1.1976577203	 2.1336504841	 0.108232
H	-1.7674001939	-1.5189962431	 3.4786844889	 0.11816
H	-2.9988983821	-0.4418393695	 2.782255779	 0.107804
H	-3.4947051787	-1.6365112688	 0.2297440208	 0.109861
H	-2.0074510487	-1.5043840674	-0.8553657306	 0.126692
74.6701	96.4225	150.1808	251.103	285.8097	311.6979	362.0256	464.4727	528.0312	561.5952	701.4522	769.4019	812.5017	848.8432	863.4838	892.9705	901.2098	910.3419	956.1234	967.9239	1032.4945	1063.4605	1087.0484	1106.3806	1120.4507	1129.6505	1132.1733	1158.6436	1169.0572	1172.9109	1183.8961	1212.5791	1238.2535	1265.6705	1273.844	1339.4228	1381.0292	1431.7024	1474.7757	1489.0901	1500.4948	1522.9886	1533.0669	3041.7548	3063.7765	3076.4201	3082.5627	3095.9205	3105.5049	3113.5069	3133.3339	3175.4703	3176.3773	3191.1608
C1CN1C1CCC11CO1	C1CN1[C@H]1CC[C@]21CO2	
InChI=1S/C7H11NO/c1-2-7(5-9-7)6(1)8-3-4-8/h6H,1-5H2	InChI=1S/C7H11NO/c1-2-7(5-9-7)6(1)8-3-4-8/h6H,1-5H2/t6-,7+/m0/s1
