18
gdb 91199	2.46489	1.85069	1.46062	1.6406	70.96	-0.2489	0.0131	0.262	953.2757	0.150106	-439.080017	-439.072561	-439.071617	-439.11208	29.294	
O	 0.4079106331	 1.1676841811	-0.5305804239	-0.435046
C	 0.1235444603	-0.1235155517	-0.0449091786	 0.12467
C	 0.1843604813	-0.3524845689	 1.4926561317	-0.25156
C	-1.3544442782	-0.6349429232	 1.5245910573	-0.00457
N	-2.0774469792	 0.4014383447	 2.2409100633	-0.243525
C	-2.5022341787	 1.4018193541	 1.5978034768	 0.099066
O	-2.4528903978	 1.6318636517	 0.2543724233	-0.24021
C	-2.3887297819	 0.4429817533	-0.5646448799	-0.110616
C	-1.3816277256	-0.5569492803	-0.0360828097	-0.078642
H	-0.2040041199	 1.7909752168	-0.1204632801	 0.290136
H	 0.7688159893	-0.7939001044	-0.6174797871	 0.090666
H	 0.8001581013	-1.2036452374	 1.7927362857	 0.105754
H	 0.484143881	 0.5225954272	 2.0737523272	 0.112371
H	-1.6283183796	-1.6023175898	 1.9502742534	 0.083786
H	-2.9610603655	 2.2460955602	 2.1099243333	 0.126567
H	-3.3928230082	 0.0021757503	-0.5905767499	 0.118401
H	-2.128830888	 0.7959378198	-1.564733796	 0.134045
H	-1.5446016336	-1.5241146136	-0.5200998268	 0.078708
70.3089	146.3873	241.0063	322.7758	384.38	421.0983	443.7665	504.6521	547.9468	630.7733	720.5334	779.8132	813.7832	824.8592	885.0978	928.2334	951.3885	963.8543	983.0081	1040.194	1048.4426	1073.0293	1121.3923	1149.9097	1171.9894	1189.9801	1236.9223	1258.5119	1278.3896	1300.4161	1309.05	1340.1586	1355.0393	1398.8275	1413.3981	1447.9398	1467.6166	1493.937	1726.4102	3032.1433	3063.4842	3065.5572	3079.3005	3086.6056	3112.7866	3126.5652	3153.8922	3783.2047
OC1CC2N=COCC12	O[C@H]1C[C@H]2N=COC[C@@H]12	
InChI=1S/C6H9NO2/c8-6-1-5-4(6)2-9-3-7-5/h3-6,8H,1-2H2	InChI=1S/C6H9NO2/c8-6-1-5-4(6)2-9-3-7-5/h3-6,8H,1-2H2/t4-,5-,6+/m1/s1
