18
gdb 32632	3.03899	1.29447	0.98318	1.8625	74.86	-0.1898	0.0467	0.2366	1219.4928	0.148948	-435.301028	-435.291897	-435.290953	-435.335127	33.527	
C	-0.0329286447	 1.5735438571	 0.0012274241	-0.379126
C	-0.0323316227	 0.0437748641	-0.0319980982	-0.155021
N	 0.672219351	-0.4987228988	-1.1833598727	-0.053874
C	 0.132361446	-1.0567097582	-2.321969732	-0.0257
N	 1.0487699549	-1.4203792869	-3.1848578506	-0.310884
C	 2.2546815272	-1.0876519122	-2.6010639257	 0.09436
N	 3.5527116991	-1.283857594	-3.13744241	-0.617196
C	 2.0285668698	-0.5219145983	-1.3753406535	 0.343363
O	 2.8727382812	-0.0425182365	-0.4348179355	-0.450374
H	 0.9896889099	 1.9552171966	 0.0545380418	 0.14585
H	-0.5102780888	 1.9823230067	-0.8941182678	 0.128051
H	-0.5802141263	 1.9302072569	 0.8791571003	 0.11954
H	 0.4328911257	-0.353784208	 0.8758077953	 0.131829
H	-1.0543431776	-0.3442479707	-0.07160977	 0.120587
H	-0.9360314974	-1.1659935865	-2.436276406	 0.119904
H	 3.6551171049	-0.7995602972	-4.0254237265	 0.24046
H	 3.7198341845	-2.2676496043	-3.331865392	 0.240579
H	 3.7590044133	-0.1817539497	-0.7982765008	 0.30765
55.1073	95.477	199.6458	203.2809	246.4611	251.672	292.5739	318.3684	407.9159	475.5382	528.309	595.6997	672.2253	695.3354	741.103	756.5548	768.2595	808.0345	884.7622	964.3871	1046.8673	1100.384	1114.2295	1197.9548	1219.1853	1250.1032	1262.2803	1318.4535	1353.596	1389.5603	1408.9723	1414.0168	1480.7245	1490.7036	1500.0112	1508.619	1565.8102	1643.4032	1695.0368	3044.9624	3052.1459	3093.8266	3118.2952	3133.4028	3243.5187	3478.9565	3537.5292	3757.3883
CCN1C=NC(N)=C1O	CCn1cnc(N)c1O	
InChI=1S/C5H9N3O/c1-2-8-3-7-4(6)5(8)9/h3,9H,2,6H2,1H3	InChI=1S/C5H9N3O/c1-2-8-3-7-4(6)5(8)9/h3,9H,2,6H2,1H3
