20
gdb 99755	1.87313	1.45029	0.97425	4.1073	71.19	-0.2433	0.0159	0.2592	1278.616	0.169788	-477.452693	-477.442548	-477.441604	-477.488243	36.665	
C	 0.3551612848	 1.0794888656	 0.6751642236	-0.328123
N	-0.3459063819	 0.2099227823	-0.2693497896	-0.319031
H	-0.8581135436	-0.5252077262	 0.2111575151	 0.242867
H	-1.3746219695	 0.7865734296	-1.6805075116	 0.300927
C	 0.4616956656	-0.4148648139	-1.324239351	-0.137972
C	 0.8681803401	-1.8779357512	-1.0471920282	 0.117185
C	 1.7659761545	-2.0584725768	 0.1686743017	-0.393694
O	-0.312193035	-2.6489941251	-0.8163580934	-0.448045
C	-0.3365249179	-0.3686215214	-2.6526830995	 0.420543
O	-0.05387048	-1.0419355885	-3.6122845442	-0.360589
O	-1.3623654871	 0.4797386474	-2.6221261091	-0.364003
H	 1.1630906515	 0.5848734472	 1.2312642307	 0.118078
H	 0.7857569709	 1.9281220031	 0.1343386482	 0.13396
H	-0.3647971409	 1.4760462101	 1.3964867033	 0.131677
H	 1.3639259168	 0.1883070666	-1.4855074859	 0.10972
H	 1.3843852949	-2.2368115529	-1.9450712792	 0.106595
H	 1.2515877069	-1.7584219675	 1.0866488672	 0.121056
H	 2.0379193789	-3.1119396485	 0.2709683893	 0.131516
H	 2.682645665	-1.4691480049	 0.0718038405	 0.116117
H	-0.7205891643	-2.8124095851	-1.6744554776	 0.301215
48.4738	77.2519	135.0873	174.5764	190.2498	225.3401	264.6412	301.812	331.7659	377.7641	430.2168	456.4671	508.6564	581.5226	648.0183	725.7837	794.007	877.0642	910.2656	934.4405	977.077	994.1402	1054.2066	1077.658	1118.5247	1158.579	1163.8821	1205.933	1226.0193	1259.188	1289.623	1330.1417	1366.3352	1403.3656	1433.0705	1443.7661	1465.5294	1479.2046	1483.5323	1494.8065	1508.1779	1521.1985	1850.456	3008.1527	3040.4844	3045.3406	3048.9542	3079.3551	3113.5721	3117.182	3124.6148	3343.4281	3508.1231	3801.1859
C[NH2+]C(C(C)O)C([O-])=O	CN[C@@H]([C@@H](C)O)C(=O)O	
InChI=1S/C5H11NO3/c1-3(7)4(6-2)5(8)9/h3-4,6-7H,1-2H3,(H,8,9)	InChI=1S/C5H11NO3/c1-3(7)4(6-2)5(8)9/h3-4,6-7H,1-2H3,(H,8,9)/t3-,4+/m1/s1
