16
gdb 25691	6.41682	0.71697	0.64752	1.2474	86.	-0.1816	0.0256	0.2073	1678.3499	0.123807	-400.765196	-400.75593	-400.754986	-400.80086	33.02	
C	-0.040525582	 1.4635731146	 0.0012814309	-0.508041
C	-0.0076719693	 0.0092767621	 0.0005440437	 0.193961
C	 0.0245531218	-1.1975281979	-0.0004732277	-0.110878
C	 0.0377129735	-2.6124521522	-0.0000778177	 0.192219
C	 1.1527319852	-3.4217364748	-0.0764645277	-0.220872
N	 0.7246607948	-4.7312177823	-0.0455486428	-0.293146
C	-0.6381714222	-4.7627535663	 0.0487948862	 0.412726
O	-1.2308408915	-5.9825552373	 0.0909836644	-0.439386
C	-1.1131721429	-3.4782823074	 0.0804024181	-0.451145
H	 0.9713804121	 1.8832681108	 0.0347537614	 0.144661
H	-0.5291135445	 1.8575934423	-0.8978676039	 0.143222
H	-0.5856658256	 1.8537214366	 0.8689052645	 0.143499
H	 2.1973522984	-3.1722235267	-0.1490246849	 0.122053
H	 1.3052702105	-5.5506086166	-0.0849442178	 0.268528
H	-2.1818285853	-5.8546256036	 0.1569244888	 0.308822
H	-2.1428869931	-3.1665596513	 0.1513378845	 0.093776
15.2103	87.7505	93.768	232.3719	235.779	286.3431	313.4019	401.8023	430.7175	441.7626	492.8574	546.9835	637.3931	670.2252	684.6091	707.5	759.4616	921.9081	1003.7757	1043.01	1051.9101	1053.2923	1122.5272	1163.214	1210.7086	1277.3838	1345.5581	1410.9	1415.6035	1476.7284	1479.8888	1521.4228	1570.1673	1636.2407	2356.3306	3018.4004	3072.9799	3080.1259	3256.8739	3282.2412	3685.9111	3849.813
CC#CC1=CNC(O)=C1	CC#Cc1c[nH]c(O)c1	
InChI=1S/C7H7NO/c1-2-3-6-4-7(9)8-5-6/h4-5,8-9H,1H3	InChI=1S/C7H7NO/c1-2-3-6-4-7(9)8-5-6/h4-5,8-9H,1H3
