16
gdb 62328	4.17904	1.2932	1.14832	1.1735	76.07	-0.2276	0.0219	0.2495	1061.6291	0.122432	-400.604163	-400.596286	-400.595342	-400.636091	31.285	
O	 0.0573124227	 1.4824249968	 0.1586469567	-0.451152
C	-0.0298165429	 0.0870208774	 0.0241232925	 0.19179
C	 1.0374475961	-0.6113212402	 0.7093883356	 0.266594
C	 1.9598301258	-1.1570719943	 1.2553626573	-0.432954
C	-1.3379452776	-0.6514431651	 0.0694410123	-0.121514
C	-2.4523863126	-0.0692332475	-0.8180390416	-0.057187
C	-2.1172003308	 1.1255573241	-1.6212903844	-0.249216
N	-1.6247053265	-0.2034125019	-2.0666960466	-0.158855
C	-0.4945901453	-0.7017058839	-1.2036042547	-0.078106
H	 0.9328729993	 1.7445494322	-0.1501275459	 0.289163
H	 2.7653121507	-1.6398665462	 1.7515320453	 0.200676
H	-1.5256265313	-1.4164471894	 0.8112135877	 0.109012
H	-3.4524790236	-0.4892626201	-0.7813162478	 0.105513
H	-2.9040353552	 1.4776243198	-2.2834756577	 0.116707
H	-1.4347547834	 1.8758666083	-1.2557125659	 0.154208
H	 0.1237495348	-1.4889131401	-1.6167076727	 0.115321
122.714	146.4675	229.3952	278.0959	310.6113	382.0577	442.277	500.2146	564.4422	593.6272	599.4882	672.1418	681.6148	696.1752	758.3888	794.4126	842.6488	901.3374	944.9012	976.8119	1013.3636	1015.7137	1057.481	1082.5656	1100.7917	1123.0064	1151.1095	1226.0121	1252.1184	1260.6131	1290.5232	1354.505	1410.0999	1489.6568	2229.4007	3131.2198	3159.7185	3188.0086	3202.1992	3274.3937	3500.701	3790.4784
OC1(C#C)C2C3CN3C12	O[C@@]1(C#C)[C@H]2[C@H]3CN3[C@@H]12	
InChI=1S/C7H7NO/c1-2-7(9)5-4-3-8(4)6(5)7/h1,4-6,9H,3H2	InChI=1S/C7H7NO/c1-2-7(9)5-4-3-8(4)6(5)7/h1,4-6,9H,3H2/t4-,5+,6-,7+,8?/m1/s1
