20
gdb 7183	2.79274	1.12207	0.84902	3.2788	73.22	-0.2403	-0.0171	0.2232	1379.357	0.173278	-386.150794	-386.140669	-386.139725	-386.187012	34.622	
C	-0.0944355775	 1.5122682274	-0.0865845639	-0.383867
C	-0.0189591554	 0.0168935026	 0.1731449952	-0.041625
O	-1.3029531271	-0.5375949545	-0.0540284245	-0.258639
C	-1.3801598212	-1.9548517927	 0.0250977753	 0.127134
C	-1.3968437205	-2.4552241755	 1.471672653	-0.400966
C	-2.6598861355	-2.3506169195	-0.7249528777	-0.281125
C	-2.5986230474	-2.0283997139	-2.2023045644	 0.152163
O	-2.9673909251	-2.771785723	-3.0763413523	-0.245354
H	 0.8813616384	 1.9774360345	 0.0818623183	 0.116953
H	-0.4006819672	 1.7089784909	-1.1179157968	 0.127196
H	-0.8221439983	 1.9809577881	 0.5818699788	 0.128341
H	 0.7182916941	-0.4565194868	-0.4962535335	 0.089428
H	 0.3134943228	-0.1716194135	 1.205358783	 0.092161
H	-0.5089667821	-2.3916802753	-0.4933234703	 0.073454
H	-1.4651236725	-3.5471205478	 1.4992743322	 0.121213
H	-0.4868071113	-2.165702224	 2.0042373203	 0.120944
H	-2.2564513723	-2.0389825008	 2.0063999761	 0.125377
H	-2.8835545035	-3.4139248472	-0.6057666449	 0.117988
H	-3.4881378164	-1.7738576303	-0.2893790358	 0.130852
H	-2.1793176622	-1.0259581188	-2.434161968	 0.088372
53.9719	58.9869	78.3959	109.6574	178.9047	216.471	229.9085	259.4887	329.9482	406.1321	434.0867	480.2256	539.5896	783.7483	820.1311	830.1784	921.2833	948.149	969.8532	1024.0856	1091.5186	1115.8852	1136.3036	1152.5375	1170.1176	1188.1968	1249.1454	1290.8882	1297.3483	1361.8015	1378.6216	1403.2681	1405.0559	1417.5522	1436.299	1443.7277	1484.1556	1488.8336	1496.1645	1500.2226	1530.1931	1830.2732	2907.8154	2951.7814	2967.4363	3000.3334	3023.3111	3040.7549	3045.3824	3106.6134	3115.4302	3117.212	3120.4095	3122.3525
CCOC(C)CC=O	CCO[C@@H](C)CC=O	
InChI=1S/C6H12O2/c1-3-8-6(2)4-5-7/h5-6H,3-4H2,1-2H3	InChI=1S/C6H12O2/c1-3-8-6(2)4-5-7/h5-6H,3-4H2,1-2H3/t6-/m0/s1
