18
gdb 18534	5.45728	1.05201	0.99374	2.9501	67.57	-0.2519	0.079	0.3309	1191.4672	0.153169	-384.890547	-384.882504	-384.88156	-384.923497	29.49	
O	-0.1009093269	 1.4590522601	-0.0296040941	-0.419043
C	-0.0111300044	 0.0480174272	 0.0967468527	-0.07244
C	-1.4041327427	-0.5306648132	-0.116949138	-0.187774
C	-1.4424945476	-2.0497868805	-0.0165071889	-0.016304
C	-1.2345788606	-2.7371471249	 1.3912290943	-0.27152
C	-2.6214560229	-3.3714161526	 1.2320986766	 0.035364
O	-3.5595352767	-2.298168036	 1.0852097927	-0.243562
C	-2.8279166835	-2.7213628243	-0.0710716171	 0.009497
H	 0.7710532577	 1.8316311946	 0.1295810159	 0.284537
H	 0.6860090403	-0.3743177999	-0.6467475249	 0.079196
H	 0.3653799886	-0.2393726804	 1.0921343409	 0.086366
H	-2.0885526638	-0.1005787843	 0.621410823	 0.122119
H	-1.7605833842	-0.2138373692	-1.1053644766	 0.102642
H	-0.7721314698	-2.5071791249	-0.7531119457	 0.074162
H	-0.4156586793	-3.4601609336	 1.3923248307	 0.104459
H	-1.1359860421	-2.0705293627	 2.2520494495	 0.110312
H	-3.0002487578	-4.3078228054	 1.6248159232	 0.103244
H	-3.4069997243	-3.02312911	-0.9369179043	 0.098744
83.4699	99.6243	125.4656	220.0696	261.9542	339.5079	354.3233	456.635	577.5251	728.0061	786.7976	823.8582	843.4367	877.1508	899.1951	932.8195	976.7541	997.2912	1025.0299	1052.5215	1076.7656	1093.8566	1119.1845	1182.3737	1207.4786	1233.3417	1238.0332	1239.9207	1251.1247	1281.1731	1309.0322	1321.882	1379.9974	1397.083	1464.2047	1471.675	1495.58	1527.2115	2954.1682	2980.9007	3033.1258	3043.2572	3063.1106	3090.4342	3120.6536	3174.305	3191.8486	3830.0788
OCCC1CC2OC12	OCC[C@H]1C[C@H]2O[C@@H]12	
InChI=1S/C6H10O2/c7-2-1-4-3-5-6(4)8-5/h4-7H,1-3H2	InChI=1S/C6H10O2/c7-2-1-4-3-5-6(4)8-5/h4-7H,1-3H2/t4-,5+,6-/m0/s1
