13
gdb 129235	2.74044	1.72555	1.05884	2.1195	74.96	-0.2625	-0.1076	0.155	1024.2139	0.090223	-448.879019	-448.871614	-448.87067	-448.912684	26.627	
N	-0.0474913928	 1.3652615118	-0.0765383344	-0.44738
C	-0.0524408497	 0.0963744125	-0.1013469611	 0.289031
N	 1.1518776942	-0.6523991136	-0.0572311682	-0.293248
N	 1.5959742561	-1.9322477023	-0.0604205972	-0.06309
N	 0.8762536262	-2.9634027413	-0.1158706294	-0.203892
C	-0.5093708349	-3.0029271336	-0.1844395452	 0.031021
C	-1.4769573842	-2.0614239752	-0.212853567	-0.148164
C	-1.398904356	-0.6055309864	-0.1803372416	 0.34954
O	-2.403292052	 0.0700408656	-0.2157259433	-0.282519
H	 0.8944744974	 1.7594620589	-0.0231887595	 0.223784
H	 1.9688247866	-0.0562643178	-0.0056952562	 0.271429
H	-0.838970365	-4.037856574	-0.2211161713	 0.139576
H	-2.502769786	-2.4129965745	-0.2697533855	 0.133913
24.9056	53.0988	275.934	347.7101	380.0443	405.079	436.9421	518.254	613.8855	646.9364	700.6628	786.2741	797.046	871.6578	900.6633	921.7359	948.2143	1015.1727	1037.1223	1130.1096	1188.2493	1297.8141	1332.3536	1435.3706	1462.1023	1580.1466	1645.3735	1705.5516	1766.8614	3167.7665	3189.2393	3451.1852	3570.0664
N=C1NN=NC=CC1=O	[NH][C]1N[N]N=C[CH]C1=O	
InChI=1S/C4H4N4O/c5-4-3(9)1-2-6-8-7-4/h1-2H,(H2,5,6,7,9)	InChI=1S/C4H4N4O/c5-4-3(9)1-2-6-8-7-4/h1-2H,(H2,5,6,7,9)
