21
gdb 36978	4.74567	0.67733	0.66148	2.0004	79.65	-0.2435	0.0873	0.3308	1760.9848	0.182023	-424.184295	-424.175028	-424.174084	-424.220043	33.07	
C	-0.0695560899	 1.5477435587	-0.2892839333	-0.221118
C	 0.0065642985	 0.0170712905	-0.2047788633	-0.19896
C	-1.3658064113	-0.6315408513	-0.2331864397	 0.160579
C	-1.4831752273	-2.1182291892	 0.1726610905	-0.301506
C	-2.4347927965	-1.59634883	 1.2670886022	-0.056618
O	-2.1924516415	-0.2256941763	 0.8884151174	-0.293085
C	 1.2912894503	 2.1959705842	-0.2303785762	 0.096095
C	 1.5369758818	 3.452289109	 0.4874612228	-0.180478
O	 1.9428591815	 2.2010398895	 1.0447492355	-0.236629
H	-0.564271595	 1.8474304164	-1.2234840347	 0.095935
H	-0.6855812412	 1.9171778083	 0.5368106439	 0.125822
H	 0.5992855248	-0.383278333	-1.0394150068	 0.092097
H	 0.5201407603	-0.2642378675	 0.7220638504	 0.11505
H	-1.8734563985	-0.3949658715	-1.1809191555	 0.067302
H	-1.9212828239	-2.7874138171	-0.5690828338	 0.108734
H	-0.5528049255	-2.5525126476	 0.5448632086	 0.110894
H	-3.4888505772	-1.8741894878	 1.1380663422	 0.099569
H	-2.143315375	-1.792769334	 2.305396373	 0.105592
H	 1.9620206501	 1.9513273471	-1.0576607261	 0.08575
H	 2.346405066	 4.1108877776	 0.1745868819	 0.111265
H	 0.7105588294	 3.9446400041	 0.9988704712	 0.113711
49.4399	63.0516	88.6373	109.1107	152.0371	239.0901	320.6911	403.1549	451.1297	501.5297	739.2096	765.3177	794.4846	825.7233	869.4053	880.6174	933.1469	948.0133	974.2258	1000.1478	1027.0811	1039.3128	1083.984	1109.201	1116.112	1151.7566	1159.2519	1166.1573	1179.4462	1212.1106	1230.6468	1255.7463	1270.4394	1293.134	1300.2899	1321.8159	1359.7566	1376.7041	1408.3815	1447.2174	1469.7743	1487.0377	1489.714	1529.9	1532.3665	2980.7936	3012.7683	3014.6478	3019.7049	3055.432	3065.6129	3075.0389	3076.0541	3080.8677	3094.6018	3132.0359	3165.6924
C(CC1CCO1)C1CO1	C(C[C@H]1CCO1)[C@H]1CO1	
InChI=1S/C7H12O2/c1(2-7-5-9-7)6-3-4-8-6/h6-7H,1-5H2	InChI=1S/C7H12O2/c1(2-7-5-9-7)6-3-4-8-6/h6-7H,1-5H2/t6-,7-/m0/s1
