20
gdb 75945	2.20997	1.62421	1.03521	3.5202	82.17	-0.2353	0.0186	0.2539	1196.7349	0.171812	-403.207844	-403.198689	-403.197745	-403.242184	34.098	
C	-0.2541757263	 1.4987491039	 0.0290637062	-0.394589
C	 0.0783248519	-0.0112139242	 0.0019563546	-0.202116
C	 0.7887155446	-0.3218578444	-1.3173051571	 0.402316
O	 0.2397386477	-0.1166794591	-2.3867613561	-0.391053
N	 2.0573478955	-0.8127114786	-1.2525607575	-0.325482
C	 2.8299676683	-1.1374334882	-0.0709046836	-0.204862
C	 2.040188864	-0.9694911143	 1.1880764349	-0.155354
C	 0.8033463668	-0.4784643168	 1.2448269926	 0.315042
C	 0.0542428287	-0.3708690644	 2.547087558	-0.478674
H	 0.6564771154	 2.0954025332	 0.1461589065	 0.116855
H	-0.7352215207	 1.7757593101	-0.9107800787	 0.147665
H	-0.9294621337	 1.7411275413	 0.8533647207	 0.114228
H	-0.8810405075	-0.5437381684	-0.0654476289	 0.107797
H	 2.4729351775	-0.9815971806	-2.157286999	 0.245047
H	 3.1854404747	-2.1772484521	-0.140640173	 0.118564
H	 3.7393521095	-0.5154770818	-0.0271408821	 0.117358
H	 2.5444947759	-1.2900841461	 2.0957616608	 0.087294
H	 0.6259532241	-0.8015369656	 3.3730941147	 0.121774
H	-0.1717972701	 0.671108835	 2.8009862632	 0.132071
H	-0.9088452864	-0.8939112788	 2.4883467038	 0.126119
35.7736	111.1351	172.4577	221.5881	244.3623	273.2133	297.6215	316.4646	451.6863	480.7277	525.5219	553.4761	604.3639	699.5931	748.1044	809.6834	825.9387	867.6526	942.1456	1011.9099	1030.8061	1048.0264	1071.5814	1086.5149	1098.3168	1138.9098	1177.5969	1245.5887	1306.0974	1308.2637	1347.917	1376.0906	1396.2337	1405.2619	1416.5565	1477.7306	1489.1542	1492.8784	1498.8965	1506.3791	1528.6191	1756.0674	1780.1673	2964.4008	2985.0329	3007.9399	3023.1732	3044.1108	3074.0755	3113.2144	3116.5167	3140.7802	3162.3817	3608.1401
CC1C(=O)NCC=C1C	C[C@H]1C(=O)NCC=C1C	
InChI=1S/C7H11NO/c1-5-3-4-8-7(9)6(5)2/h3,6H,4H2,1-2H3,(H,8,9)	InChI=1S/C7H11NO/c1-5-3-4-8-7(9)6(5)2/h3,6H,4H2,1-2H3,(H,8,9)/t6-/m1/s1
