18
gdb 6698	6.62975	0.71474	0.6682	4.0536	80.29	-0.2627	-0.0573	0.2054	1660.5075	0.150635	-347.795412	-347.785605	-347.784661	-347.831835	33.236	
C	-0.0397093462	 1.5628208323	 0.007977813	-0.392185
C	 0.0352221833	 0.0320632372	 0.0380445146	 0.042762
C	 0.8120125853	-0.4676760014	 1.2610463148	-0.382788
C	-1.3932845021	-0.5648983232	-0.0087345766	-0.35488
C	-1.436668543	-2.014047949	-0.1260528483	 0.071892
C	-1.473254565	-3.2177056381	-0.2322964772	 0.060081
C	-1.4833443764	-4.6509133344	-0.3583570396	 0.015373
O	-2.4828200557	-5.3317501216	-0.4053969313	-0.230532
H	 0.9625167615	 2.0019640685	 0.0094735974	 0.117738
H	-0.5631426183	 1.9233504739	-0.8838244643	 0.114659
H	-0.5711033227	 1.9469266181	 0.8869811713	 0.116665
H	 0.557728605	-0.3076711555	-0.8653401631	 0.089088
H	 1.8336047764	-0.075311426	 1.2600242144	 0.11678
H	 0.3303790438	-0.1397221114	 2.1901674963	 0.114409
H	 0.8679879064	-1.5598475927	 1.2794365851	 0.125965
H	-1.9441960239	-0.2655604168	 0.8943446355	 0.139612
H	-1.9464091786	-0.1317835141	-0.8527393113	 0.139978
H	-0.4734407298	-5.1074742658	-0.4116396306	 0.095383
18.2176	65.6326	74.5208	175.9129	187.6415	224.9433	250.0561	310.5708	348.2751	405.4365	416.4112	492.1027	610.3763	812.0412	833.6747	874.5174	932.1724	950.6504	969.3583	1022.4322	1121.6407	1139.9267	1158.8107	1190.8756	1252.5326	1305.7089	1366.8306	1368.4031	1401.3827	1421.267	1423.7345	1452.8367	1487.6257	1492.2455	1502.7746	1509.1292	1765.9863	2325.6277	2911.9576	3009.3813	3023.0123	3026.0213	3032.2923	3047.1985	3091.6396	3098.3007	3106.0149	3113.1933
CC(C)CC#CC=O	CC(C)CC#CC=O	
InChI=1S/C7H10O/c1-7(2)5-3-4-6-8/h6-7H,5H2,1-2H3	InChI=1S/C7H10O/c1-7(2)5-3-4-6-8/h6-7H,5H2,1-2H3
