20
gdb 95776	3.38591	1.20681	0.93814	1.133	77.84	-0.2381	0.0162	0.2543	1286.0259	0.170694	-440.303093	-440.294003	-440.293059	-440.336901	33.771	
C	 0.1648009243	 1.5818614923	 0.0844890957	-0.399698
C	 0.0156289359	 0.0664295146	 0.0525375207	 0.098794
C	 0.4124987453	-0.5187037706	-1.3073719728	-0.150361
N	 0.1829976218	-1.9341474665	-1.5437836026	-0.290931
C	 0.5494824879	-2.8527527313	-0.7574433879	 0.373223
C	 0.4600143117	-4.3013989213	-1.1471076666	-0.444162
O	 1.1195964491	-2.732777002	 0.4907268298	-0.259644
C	 0.5923313254	-1.7794746584	 1.4047719453	 0.011986
O	 0.8427343601	-0.4554033654	 1.0943682705	-0.229306
H	 1.1967495748	 1.8709288891	-0.1373721099	 0.128446
H	-0.4934600993	 2.0498412379	-0.6526980251	 0.120467
H	-0.0917113834	 1.9657908351	 1.0748836138	 0.125482
H	-1.0305580322	-0.2105064324	 0.2652713828	 0.073871
H	-0.1313647356	 0.0319682703	-2.0832034335	 0.10339
H	 1.4814013982	-0.3071750514	-1.4576686862	 0.117713
H	 1.4482528975	-4.7658625206	-1.0631691829	 0.14055
H	-0.2035650178	-4.8420776662	-0.4638026219	 0.131236
H	 0.0951419447	-4.3935865231	-2.1690088295	 0.140853
H	-0.4916873261	-1.9571977273	 1.501252568	 0.087283
H	 1.1016608875	-1.9905579629	 2.3467018324	 0.120809
77.2706	113.123	168.9229	199.2583	239.6598	279.445	302.1021	334.6756	402.0652	412.664	480.8177	617.6976	634.7823	706.7088	765.7686	851.9836	900.6899	924.8032	966.4863	1029.6353	1064.7246	1075.1616	1112.6206	1127.4027	1149.8941	1155.5751	1205.4871	1235.4017	1274.2905	1326.7857	1340.8712	1384.9794	1394.9704	1405.4919	1411.8144	1460.2849	1470.5242	1474.7489	1478.0427	1486.1328	1495.2582	1503.2915	1767.2202	2961.7926	2970.1317	3006.5382	3043.5517	3045.9006	3059.1383	3098.897	3117.5836	3119.3461	3127.2842	3166.1134
CC1CN=C(C)OCO1	C[C@H]1CN=C(C)OCO1	
InChI=1S/C6H11NO2/c1-5-3-7-6(2)9-4-8-5/h5H,3-4H2,1-2H3	InChI=1S/C6H11NO2/c1-5-3-7-6(2)9-4-8-5/h5H,3-4H2,1-2H3/t5-/m0/s1
