18
gdb 18981	4.09713	2.1377	1.73393	2.2176	70.27	-0.2286	0.0721	0.3007	798.3166	0.156909	-347.752117	-347.746121	-347.745177	-347.7819	25.098	
C	-0.0256103954	 1.5371817797	 0.1303502699	-0.200025
C	 1.4164593454	 2.0541065674	 0.0149971642	-0.244043
C	 2.17525003	 1.2921332487	-1.0703629891	 0.009898
C	 1.390592458	 0.5039241207	-2.1657599304	 0.019776
O	 2.574942735	-0.355340658	-2.3611266715	-0.313946
C	 2.4101014466	-0.2317440309	-0.8980259074	 0.041375
C	 0.8882659241	-0.4828567815	-1.0653998943	 0.009894
C	-0.0689432439	 0.0054552086	 0.0207301397	-0.244042
H	-0.4981296644	 1.8823763539	 1.0552114757	 0.094004
H	-0.6109555552	 1.9592810596	-0.6962864391	 0.102022
H	 1.4157086824	 3.1270245285	-0.2065838884	 0.100636
H	 1.9480621214	 1.9394680782	 0.9693299393	 0.10008
H	 3.0523477048	 1.8122428627	-1.4614840113	 0.077035
H	 0.886365571	 0.8670132935	-3.0628643709	 0.085702
H	 3.1295667691	-0.7516253982	-0.2620219921	 0.083884
H	 0.6655399997	-1.4796038369	-1.452281647	 0.077035
H	 0.2078150624	-0.4606694609	 0.9760455653	 0.10008
H	-1.0895229812	-0.3281646752	-0.1969081126	 0.100636
204.4674	240.4782	358.5193	445.8503	458.6139	583.096	662.6096	739.8188	780.6042	800.7465	857.9409	876.7977	878.9976	910.9618	915.4736	982.4264	1016.561	1020.7694	1060.2818	1071.6371	1098.3898	1152.799	1159.5606	1170.3136	1195.657	1212.754	1222.4696	1257.9505	1274.2361	1296.5471	1329.9876	1359.0137	1360.2694	1381.3513	1405.2957	1487.8135	1488.5781	1504.2485	3017.1318	3017.536	3025.3496	3060.9602	3062.9447	3080.0523	3088.8057	3093.5194	3096.0168	3108.9594
C1CC2C3OC2C3C1	C1C[C@@H]2[C@H]3O[C@@H]2[C@H]3C1	
InChI=1S/C7H10O/c1-2-4-6-5(3-1)7(4)8-6/h4-7H,1-3H2	InChI=1S/C7H10O/c1-2-4-6-5(3-1)7(4)8-6/h4-7H,1-3H2/t4-,5+,6-,7+
