17
gdb 56874	3.74703	0.9392	0.85296	3.1868	74.77	-0.2418	-0.0183	0.2235	1342.4004	0.132646	-421.791946	-421.782642	-421.781698	-421.826544	34.024	
O	-0.2312786832	 1.3596821972	 0.1517487768	-0.423148
C	-0.0196849104	-0.0473149906	 0.0298551972	-0.056616
C	 0.7286026884	-0.3736394992	-1.1845705417	 0.2783
C	 1.3824308908	-0.6058794845	-2.1664841266	-0.441865
C	 0.6621710204	-0.6282967821	 1.279207729	 0.009074
C	 2.0254848469	-0.0085986838	 1.715972135	-0.352839
C	 1.4593038765	 0.0674992198	 3.1432176816	 0.400902
O	 1.9532173126	 0.2088208468	 4.2232673723	-0.289595
C	 0.0359350312	-0.2305563327	 2.6517895991	-0.370185
H	 0.509787383	 1.8081424043	-0.2676444483	 0.294175
H	-1.0235755698	-0.4869608287	-0.0404764241	 0.121434
H	 1.9436074234	-0.8208916001	-3.0426125698	 0.207056
H	 0.7372344515	-1.7127601982	 1.1667559894	 0.094602
H	 2.9378646908	-0.5909164718	 1.5740356542	 0.131816
H	 2.1789517863	 0.996775164	 1.3080896913	 0.120421
H	-0.5477935879	 0.6925836636	 2.5707754518	 0.150736
H	-0.5352673306	-0.9767087939	 3.2083943928	 0.12573
63.4788	69.496	133.2284	176.8772	224.2008	262.5941	284.437	404.5429	444.6713	489.0401	537.3363	621.6597	633.4697	650.886	680.953	696.1697	765.6511	884.2786	936.6265	946.2591	1005.5776	1007.4969	1068.4054	1099.8763	1116.5677	1192.3386	1198.3557	1235.5898	1247.2619	1261.0046	1333.2146	1353.3449	1411.6815	1420.277	1444.0441	1896.2995	2232.8504	3021.5723	3053.6051	3060.7172	3081.0655	3124.044	3124.7387	3500.7196	3828.2396
OC(C#C)C1CC(=O)C1	O[C@@H](C#C)C1CC(=O)C1	
InChI=1S/C7H8O2/c1-2-7(9)5-3-6(8)4-5/h1,5,7,9H,3-4H2	InChI=1S/C7H8O2/c1-2-7(9)5-3-6(8)4-5/h1,5,7,9H,3-4H2/t7-/m0/s1
