24
gdb 88597	2.54741	1.16624	0.96826	1.1479	90.92	-0.2199	0.084	0.3039	1379.7694	0.215873	-368.374746	-368.364341	-368.363396	-368.410206	38.712	
C	 0.2439080584	 1.155400662	-2.1982789853	-0.403691
C	-0.0211267786	-0.0743797671	-1.3567922537	-0.046648
C	 0.9554664271	-0.5792458016	-0.311274742	-0.043144
C	 2.2731146086	 0.1092415559	-0.0253289619	-0.405574
C	-0.367069551	 0.0238821099	 0.1171671302	 0.025938
N	-0.3484446889	 1.3264408318	 0.7201865057	-0.078609
C	-1.6076606926	 1.8789675649	 1.2084322234	-0.256229
C	-0.5377550953	 1.4738497727	 2.1666184106	 0.031819
C	-0.7151540069	 0.2968842013	 3.1002524174	-0.411762
H	 0.6365977134	 1.976847954	-1.5973859484	 0.1343
H	 0.9589224061	 0.9381125112	-2.9998012225	 0.108801
H	-0.6816451397	 1.5062255883	-2.6684271976	 0.109659
H	-0.5560791802	-0.8577669385	-1.8887994077	 0.075892
H	 1.0044477777	-1.662104271	-0.2219962389	 0.075766
H	 2.1682612533	 1.1950195143	-0.0148388983	 0.134199
H	 2.6628595238	-0.1927668487	 0.9536138664	 0.108674
H	 3.0264452171	-0.1570455781	-0.7753076846	 0.110151
H	-1.1270804794	-0.672475403	 0.4765370281	 0.06511
H	-1.7960756366	 2.9252245435	 0.9798698908	 0.109594
H	-2.4906801119	 1.2413405411	 1.1603123742	 0.103379
H	 0.0825344045	 2.2675241738	 2.5826033845	 0.086772
H	-1.4181726766	-0.4436015944	 2.7116381301	 0.120188
H	 0.2401665736	-0.2070552165	 3.2841880428	 0.125167
H	-1.0986667657	 0.6433170542	 4.0658468967	 0.120248
45.9223	116.9439	155.472	165.7584	174.9921	180.5783	219.7488	259.1173	297.1768	397.5065	430.5658	488.2088	505.108	617.0068	757.3119	765.7841	779.3981	798.4742	898.0478	913.6076	958.1612	966.3548	983.0493	1034.5794	1047.6829	1061.0901	1103.0702	1113.2681	1117.1201	1138.1888	1151.6817	1158.4997	1184.1623	1190.8831	1202.7278	1253.8418	1338.7795	1372.2528	1382.64	1402.7825	1413.3997	1418.9456	1421.5594	1447.6458	1488.234	1492.8459	1496.4654	1497.6697	1503.8053	1510.6019	1516.3612	3029.7253	3032.9843	3035.5916	3063.2955	3081.1209	3081.5381	3083.9239	3093.8388	3097.9667	3115.9755	3125.8427	3128.9877	3137.4235	3147.0887	3166.7501
CC1C(C)C1N1CC1C	C[C@H]1[C@@H](C)[C@H]1N1C[C@H]1C	
InChI=1S/C8H15N/c1-5-4-9(5)8-6(2)7(8)3/h5-8H,4H2,1-3H3	InChI=1S/C8H15N/c1-5-4-9(5)8-6(2)7(8)3/h5-8H,4H2,1-3H3/t5-,6-,7+,8-,9?/m1/s1
