25
gdb 58262	2.76274	1.03559	0.802	1.4263	89.11	-0.2555	0.0688	0.3243	1528.1874	0.227826	-389.48644	-389.475878	-389.474933	-389.522024	39.858	
C	-0.0359274248	 1.5968778062	-0.0630624397	-0.388805
C	 0.0382025753	 0.0653223463	 0.0117379308	 0.020967
C	 0.8969526442	-0.374573644	 1.2056903254	-0.392501
C	-1.3777735476	-0.548913994	 0.025517522	 0.112571
O	-2.1322017854	-0.0910183679	-1.1022486727	-0.431
C	-1.4260656836	-2.0766853028	 0.0839093908	 0.021614
C	-1.2745249872	-2.8357833267	 1.4382217431	-0.226814
C	-2.4178115936	-3.7862830164	 0.9967025415	-0.224474
C	-2.8269376606	-2.736010202	-0.0691272283	-0.218961
H	 0.9616814692	 2.0308706602	-0.1864187874	 0.1033
H	-0.6649477373	 1.919358411	-0.8949589547	 0.124395
H	-0.4643898491	 2.0082154934	 0.8590836204	 0.108997
H	 0.5270296046	-0.2981928262	-0.9071872955	 0.055968
H	 0.4201212742	-0.1019409879	 2.1546718134	 0.113012
H	 1.0747343203	-1.4523828306	 1.2172244861	 0.117479
H	 1.8722103409	 0.1221970299	 1.1760037213	 0.109526
H	-1.9258233191	-0.1498574871	 0.8912569751	 0.075065
H	-1.7084406358	-0.4420571592	-1.8938024287	 0.273999
H	-0.730073327	-2.4917346212	-0.6587872758	 0.055986
H	-0.305257279	-3.2821742224	 1.6714071572	 0.096437
H	-1.5741730067	-2.2044988535	 2.2810561511	 0.100423
H	-2.0293450567	-4.7015770382	 0.5403496377	 0.098919
H	-3.1620136798	-4.0653470305	 1.7463386236	 0.095431
H	-3.6121520242	-2.0664504059	 0.2936638347	 0.107201
H	-3.1160521813	-3.0952162806	-1.0593119012	 0.091262
58.6345	79.867	128.5731	158.7658	226.5137	242.0385	264.9649	286.3136	304.9487	333.3458	367.9218	434.996	477.712	519.1025	656.7147	777.4848	789.891	848.9723	894.3517	926.7173	934.2247	937.1706	957.8502	966.7101	987.5307	1026.1755	1056.1825	1084.7229	1107.2728	1142.0117	1172.8795	1193.5838	1204.5797	1225.5015	1255.6657	1260.4847	1265.2565	1276.7553	1289.4902	1304.7711	1344.9304	1378.1969	1388.7066	1396.0368	1411.2438	1422.7205	1476.0347	1485.6398	1490.3829	1491.5951	1505.8717	1508.6048	1515.7696	2967.5969	2999.2958	3015.6891	3028.7683	3033.7409	3050.1902	3054.7742	3060.8874	3089.1409	3094.4544	3096.3958	3106.0869	3118.3498	3121.4879	3131.3164	3793.2833
CC(C)C(O)C1CCC1	CC(C)[C@@H](O)C1CCC1	
InChI=1S/C8H16O/c1-6(2)8(9)7-4-3-5-7/h6-9H,3-5H2,1-2H3	InChI=1S/C8H16O/c1-6(2)8(9)7-4-3-5-7/h6-9H,3-5H2,1-2H3/t8-/m1/s1
