23
gdb 92045	2.65267	1.41415	1.01319	0.3773	92.18	-0.2175	0.0284	0.2459	1263.455	0.207138	-351.167626	-351.158827	-351.157882	-351.200649	35.277	
C	 0.1111656052	 1.6008640701	-0.0780992047	-0.40347
C	 0.0400301359	 0.0699022694	 0.0284981445	-0.070739
C	 0.5907646664	-0.5663141447	-1.2669829514	-0.215845
C	 0.6755044207	-2.0875634153	-1.2131786269	-0.043664
C	 2.0126039439	-2.758714652	-1.0038086646	-0.290359
C	 1.0019184024	-2.6979934064	 0.1259801936	-0.054191
C	 1.1750679699	-1.7679641097	 1.2666136346	-0.172082
C	 0.7418152916	-0.501475543	 1.2612339615	 0.32482
C	 0.8806222175	 0.3677760659	 2.483768653	-0.485104
H	 1.1488289971	 1.947058108	-0.1470825505	 0.114454
H	-0.4090024275	 1.9391239201	-0.9804063902	 0.109445
H	-0.3529573988	 2.0995024195	 0.7769452869	 0.113
H	-1.0253312594	-0.1995851102	 0.1106513991	 0.081899
H	-0.0339146583	-0.2570021053	-2.112783187	 0.091549
H	 1.5854722646	-0.1420850623	-1.4527688075	 0.094634
H	-0.0395797374	-2.6214220275	-1.8309144994	 0.078761
H	 2.1913724258	-3.7190599835	-1.4761894023	 0.104241
H	 2.8871255511	-2.1198019757	-0.9315193037	 0.10805
H	 0.5263706784	-3.6444828996	 0.3730473369	 0.083961
H	 1.6554042	-2.1635482387	 2.1603094364	 0.072212
H	 1.3495769551	-0.1838442306	 3.3030288614	 0.114997
H	 1.482362219	 1.2635953487	 2.2910374037	 0.122809
H	-0.0975649432	 0.7222262428	 2.8349912769	 0.120623
82.5037	134.1505	229.5518	250.8757	299.8527	308.0255	349.5439	379.3449	431.5695	439.9135	496.1486	584.9459	687.8765	714.208	815.8488	828.4118	850.1345	867.7857	893.4341	932.2845	992.1268	997.8043	1012.9273	1047.4445	1055.3069	1076.2272	1102.1982	1112.9757	1119.6308	1132.2415	1152.3914	1208.0824	1225.9152	1248.4126	1306.7064	1328.4297	1353.2439	1377.8326	1383.1846	1406.8106	1409.9263	1416.1955	1477.1912	1480.0848	1487.0247	1491.8224	1503.4703	1507.7188	1717.9529	2969.7246	3015.4083	3020.2245	3031.3371	3059.7171	3065.0151	3094.0771	3106.3939	3110.9752	3121.5057	3123.2781	3134.0577	3151.9004	3211.7647
CC1CC2CC2C=C1C	C[C@H]1C[C@H]2C[C@H]2C=C1C	
InChI=1S/C9H14/c1-6-3-8-5-9(8)4-7(6)2/h3,7-9H,4-5H2,1-2H3	InChI=1S/C9H14/c1-6-3-8-5-9(8)4-7(6)2/h3,7-9H,4-5H2,1-2H3/t7-,8+,9-/m0/s1
