19
gdb 82271	3.04902	1.38047	1.05362	3.5153	84.4	-0.2437	-0.0538	0.19	1153.6227	0.1598	-385.908918	-385.90079	-385.899846	-385.941437	31.535	
C	-0.1812823055	 1.5892755206	-0.0330955428	-0.402065
C	 0.0128840233	 0.0652823762	-0.0209378568	-0.10748
C	 0.8068256251	-0.4862991524	-1.2134537181	-0.046166
C	 2.2470887739	-0.0878566083	-1.3574717717	-0.278185
C	 1.8991190654	-1.4045509619	-0.672942424	-0.083731
C	 1.7755862681	-1.3138518097	 0.7981402928	-0.157305
C	 0.7879174705	-0.4786966664	 1.1749553329	 0.217575
C	 0.4687624835	-0.2015834266	 2.5728335702	 0.073373
O	-0.437764717	 0.5090173192	 2.9564161112	-0.282937
H	 0.7803706393	 2.1117837358	-0.0519953629	 0.110257
H	-0.7462386693	 1.8939325299	-0.9197574937	 0.110194
H	-0.7261041238	 1.9065257472	 0.8577842208	 0.15002
H	-0.9861278045	-0.3925903094	-0.014135633	 0.093751
H	 0.2668633075	-0.7497640312	-2.1154126633	 0.090833
H	 2.6809253554	-0.1563184156	-2.3493709805	 0.118071
H	 2.6497722614	 0.7084340039	-0.7408775493	 0.120548
H	 2.1914772127	-2.3346920316	-1.1458407865	 0.096501
H	 2.42063023	-1.8509818709	 1.48686146	 0.111187
H	 1.1304956439	-0.7225292289	 3.3020419847	 0.065558
96.1049	180.5954	194.9316	238.0057	258.5486	278.9368	421.2368	440.1093	485.1967	595.4147	660.343	720.054	783.3203	802.9043	811.3924	877.2236	899.4812	938.1251	978.7106	1025.4806	1038.2608	1050.1393	1064.5944	1077.6922	1098.5751	1112.0741	1124.8477	1189.6108	1229.402	1281.3782	1325.5983	1335.6696	1365.3131	1374.7519	1405.4549	1426.0271	1476.2921	1494.8688	1508.9768	1654.3295	1772.9191	2867.7193	3007.1443	3040.8286	3104.8374	3130.6712	3140.2812	3173.6007	3178.5213	3187.4284	3220.1206
CC1C2CC2C=C1C=O	C[C@H]1[C@H]2C[C@H]2C=C1C=O	
InChI=1S/C8H10O/c1-5-7(4-9)2-6-3-8(5)6/h2,4-6,8H,3H2,1H3	InChI=1S/C8H10O/c1-5-7(4-9)2-6-3-8(5)6/h2,4-6,8H,3H2,1H3/t5-,6-,8-/m1/s1
