22
gdb 14873	3.35822	1.32393	1.04752	0.9836	78.93	-0.2429	0.084	0.3269	1222.087	0.199475	-350.19076	-350.181447	-350.180503	-350.22485	33.937	
C	 0.0623569512	 1.5359685176	-0.2984972828	-0.386786
C	 0.019799487	 0.0068914637	-0.2209903846	-0.16324
C	-1.3624165475	-0.5242672092	 0.1663339942	-0.03191
C	-2.4095708172	-0.5178004154	-0.9910373286	-0.23153
C	-2.1268180797	-2.0271576272	-1.2312462409	-0.255254
C	-1.4817303987	-2.0717973862	 0.1823137066	 0.156065
O	-0.2721503697	-2.7575792399	 0.3656747646	-0.23998
C	-0.4169855252	-4.1588029381	 0.3575090614	-0.236227
H	 1.0574811238	 1.8903270913	-0.5852486976	 0.109921
H	-0.6510705601	 1.9234902704	-1.034113335	 0.113346
H	-0.1858302462	 1.9872937112	 0.6688954855	 0.111453
H	 0.3273024131	-0.4216545664	-1.1827660874	 0.093782
H	 0.7521985864	-0.3496294435	 0.5112518593	 0.107716
H	-1.6855973686	-0.0368332486	 1.092447622	 0.061639
H	-3.4270581685	-0.3368060047	-0.6352237509	 0.099284
H	-2.2123319043	 0.1591948082	-1.8258358695	 0.099141
H	-2.9781371418	-2.6819636108	-1.4310514507	 0.092028
H	-1.3696315074	-2.1822484295	-2.0048925912	 0.108202
H	-2.2189804536	-2.4031896872	 0.9320623043	 0.058343
H	-1.0989381777	-4.5009548499	 1.1525256732	 0.101941
H	-0.8008949917	-4.5293729771	-0.6049482704	 0.107142
H	 0.5716839865	-4.591050319	 0.5305069085	 0.124926
86.6488	110.4741	120.5689	142.178	203.1535	220.8473	268.6218	325.0725	382.3954	447.872	528.0395	688.9885	760.1239	775.0349	821.4003	896.357	926.7421	954.8119	976.5316	998.9908	1041.5743	1056.4401	1090.5576	1133.1342	1165.5117	1172.8587	1184.3761	1215.6658	1228.0408	1250.0508	1261.1457	1268.1764	1288.711	1312.8179	1337.1692	1390.7516	1391.9567	1412.3547	1478.6268	1480.4956	1484.2324	1487.6286	1498.3511	1500.8109	1508.4009	1509.9957	2958.9578	2972.9585	3019.0333	3028.3781	3030.0252	3042.1544	3057.6044	3064.0351	3069.3467	3096.6657	3100.2983	3103.0818	3111.9179	3120.2722
CCC1CCC1OC	CC[C@H]1CC[C@H]1OC	
InChI=1S/C7H14O/c1-3-6-4-5-7(6)8-2/h6-7H,3-5H2,1-2H3	InChI=1S/C7H14O/c1-3-6-4-5-7(6)8-2/h6-7H,3-5H2,1-2H3/t6-,7+/m0/s1
