17
gdb 30591	4.37513	1.02586	0.83952	2.9896	79.13	-0.2397	-0.0485	0.1912	1349.3331	0.135545	-421.884208	-421.875665	-421.874721	-421.918387	30.668	
C	 0.1187676023	 1.4796097568	 0.0085418868	-0.381687
C	-0.0446590406	-0.0378695418	 0.002757707	-0.285769
C	-1.5022556948	-0.4762020244	 0.0119999747	 0.272232
O	-2.4270637144	 0.3147976037	 0.0232457491	-0.326209
C	-1.774163955	-1.9191451282	 0.0068950092	 0.289073
C	-2.9514769533	-2.6169735644	 0.0125973772	-0.23802
C	-2.6058095988	-3.9974631205	 0.0026991964	-0.173785
C	-1.2424261861	-4.0412990652	-0.0080279994	-0.013204
O	-0.72100227	-2.7959651375	-0.0056706969	-0.173261
H	 1.1779069906	 1.7516608266	 0.0013007442	 0.107612
H	-0.3609417063	 1.9277933938	-0.8651723697	 0.131006
H	-0.3467889251	 1.9195812025	 0.894005991	 0.131008
H	 0.4398709488	-0.4906765936	-0.8723285363	 0.127406
H	 0.4531964173	-0.4986874555	 0.8661192167	 0.127418
H	-3.9345676265	-2.1748832425	 0.0225514901	 0.139033
H	-3.2739918236	-4.8440418977	 0.0034730501	 0.12317
H	-0.5289577646	-4.8495561122	-0.0176760001	 0.143976
50.2658	80.1038	141.9932	167.4569	202.2084	280.0894	369.768	490.3152	536.5622	613.1429	673.8813	710.0417	775.7775	808.6171	841.6411	895.2315	898.3721	903.0941	986.0094	1027.1318	1034.3026	1088.2117	1097.8224	1122.9301	1192.8661	1246.1027	1271.6635	1274.6554	1374.4593	1412.3555	1420.3116	1449.5144	1490.4426	1496.561	1501.5651	1610.1758	1762.3075	3028.0782	3051.2764	3054.1114	3122.2844	3127.4184	3257.2119	3275.1683	3283.8729
CCC(=O)C1=CC=CO1	CCC(=O)c1ccco1	
InChI=1S/C7H8O2/c1-2-6(8)7-4-3-5-9-7/h3-5H,2H2,1H3	InChI=1S/C7H8O2/c1-2-6(8)7-4-3-5-9-7/h3-5H,2H2,1H3
