19
gdb 118396	3.21352	0.83147	0.69345	3.782	79.29	-0.2471	-0.0197	0.2274	1622.5076	0.154613	-422.985112	-422.974376	-422.973432	-423.022096	36.652	
C	 0.0170682619	 1.4070679684	 0.0177563851	-0.2318
O	 0.0200267745	-0.0022231886	 0.0141226395	-0.231531
C	 0.5858001912	-0.552075318	-1.1502409387	-0.074122
C	 0.5562003677	-2.0750941453	-1.0193165337	-0.095046
C	 1.186220477	-2.7246417889	-2.279215993	-0.387217
C	 1.0767835391	-4.1770883766	-2.2974451318	 0.293902
C	 0.9786435111	-5.3742405639	-2.2956890014	-0.416596
C	 1.3325435974	-2.490694664	 0.2210723465	 0.188538
O	 0.9106145641	-3.184808489	 1.1041679996	-0.239406
H	 1.0373061965	 1.8170577891	-0.0432584445	 0.107514
H	-0.5683737566	 1.8141152448	-0.8213747292	 0.107806
H	-0.438723662	 1.7283193882	 0.9567078482	 0.136283
H	 0.0280920904	-0.2378397744	-2.0487515801	 0.095326
H	 1.6268178397	-0.2021178877	-1.2791582907	 0.088268
H	-0.4747966938	-2.4173755778	-0.8992044163	 0.117536
H	 0.7005666319	-2.3061265239	-3.1697447111	 0.138962
H	 2.2438107503	-2.4339385109	-2.3465858491	 0.135305
H	 0.8944578044	-6.4327757322	-2.2927346675	 0.200961
H	 2.3782660454	-2.0959843094	 0.2415445882	 0.065317
51.7641	71.5333	95.2836	97.482	105.4034	191.6528	231.1428	284.4867	325.3525	340.7503	361.28	385.6709	548.3974	579.8601	630.8887	646.2355	840.9241	902.9068	937.7792	979.7944	1004.018	1073.3403	1102.1714	1129.7628	1165.168	1184.2903	1214.072	1229.787	1251.2035	1285.2958	1342.4476	1354.8672	1412.2968	1428.3898	1473.0133	1480.8028	1486.371	1501.3982	1527.4892	1849.561	2244.6861	2829.7017	2935.9653	2971.5552	2976.2215	3013.1597	3020.2256	3046.6189	3095.0609	3123.2747	3506.5721
COCC(CC#C)C=O	COC[C@@H](CC#C)C=O	
InChI=1S/C7H10O2/c1-3-4-7(5-8)6-9-2/h1,5,7H,4,6H2,2H3	InChI=1S/C7H10O2/c1-3-4-7(5-8)6-9-2/h1,5,7H,4,6H2,2H3/t7-/m0/s1
