21
gdb 51614	5.45468	0.70845	0.68335	2.7799	84.82	-0.2449	-0.0199	0.2251	1674.6814	0.181185	-387.075248	-387.066034	-387.065089	-387.110439	34.078	
O	-0.2266670797	-0.0378776208	-0.2466768724	-0.240405
C	-0.0057443634	 1.1387715123	-0.1135231633	 0.161313
C	 1.3527445676	 1.7871895432	-0.251315345	-0.300182
C	 1.3660652199	 2.8718383367	-1.3319720791	 0.038985
C	 0.5617907641	 4.1900447995	-1.0966339426	-0.31724
C	 1.7680057853	 4.9620173084	-1.6462452509	 0.387499
C	 1.7453424517	 5.8735003233	-2.8391610583	-0.314942
C	 2.1208822195	 6.4062355801	-1.4728054673	-0.33205
C	 2.6613931815	 3.7241238889	-1.4914245288	-0.32282
H	-0.8335881075	 1.8491570143	 0.119383008	 0.073675
H	 1.6068537213	 2.2464210868	 0.7156342308	 0.11143
H	 2.089497573	 1.0058046083	-0.4630226348	 0.119923
H	 1.0888226151	 2.4311017828	-2.294829594	 0.087451
H	-0.3897177436	 4.2983772918	-1.6243150438	 0.103206
H	 0.3934420573	 4.3837709573	-0.0305677209	 0.096865
H	 2.5320909304	 5.7689455155	-3.5799518227	 0.111854
H	 0.7813726934	 6.1573453071	-3.2501208184	 0.111724
H	 1.4106802411	 7.0497116235	-0.9626840831	 0.111199
H	 3.1605256259	 6.6614938777	-1.2921925648	 0.11154
H	 3.2510426619	 3.7451748451	-0.5676425841	 0.098424
H	 3.3239974151	 3.4696646883	-2.3231715343	 0.102551
42.3638	66.319	80.9981	171.6571	270.9324	285.9236	304.7584	390.1587	412.9982	487.6505	543.8498	716.7507	774.4116	820.2475	832.3956	848.405	899.9078	904.984	926.1443	956.1512	981.9277	995.1955	1051.8745	1071.2132	1076.7254	1078.5645	1108.6361	1144.0126	1187.3823	1190.4687	1234.9635	1246.0466	1247.4575	1260.2023	1283.0047	1312.4385	1362.8764	1390.9573	1431.509	1461.5066	1464.0442	1476.1723	1498.0611	1505.0417	1832.6557	2855.6637	3004.9246	3029.8811	3035.7658	3052.8179	3087.7769	3090.591	3095.361	3118.4924	3122.6231	3196.0437	3211.0545
O=CCC1CC2(CC2)C1	O=CCC1CC2(CC2)C1	
InChI=1S/C8H12O/c9-4-1-7-5-8(6-7)2-3-8/h4,7H,1-3,5-6H2	InChI=1S/C8H12O/c9-4-1-7-5-8(6-7)2-3-8/h4,7H,1-3,5-6H2
