21
gdb 119848	4.28656	0.89991	0.79425	1.1052	85.64	-0.2172	0.0312	0.2484	1505.4275	0.182738	-387.077823	-387.068963	-387.068019	-387.11189	33.188	
C	 0.0040629894	 1.4074147039	-0.0577480229	-0.222343
O	-0.0052494348	 0.0025552645	 0.0019790587	-0.226628
C	 0.6422156374	-0.5953438686	-1.0954769678	-0.165866
C	 0.6006677199	-2.0842687527	-0.9823284208	 0.302789
C	 0.002745408	-2.811490411	-0.0340258343	-0.176197
C	 0.1952995235	-4.2987426314	-0.245564009	-0.269032
C	 0.9343487967	-4.379803728	-1.5815845497	-0.034602
C	 0.2616523501	-3.8181100617	-2.8066449759	-0.277115
C	 1.2320085266	-2.955225475	-2.0221457126	-0.136465
H	 1.0295815597	 1.8107122157	-0.0624828823	 0.102904
H	-0.5141616722	 1.7834465828	-0.9545862206	 0.103106
H	-0.5152665804	 1.7762974406	 0.8300192945	 0.127024
H	 0.1705094653	-0.2774163949	-2.0449337004	 0.094973
H	 1.6941375068	-0.2552446678	-1.1568394058	 0.090084
H	-0.5711874438	-2.3965561321	 0.7843636929	 0.101016
H	 0.7877177871	-4.7437851292	 0.5659422142	 0.103954
H	-0.7579223787	-4.8437297319	-0.2612945969	 0.105618
H	 1.6670083607	-5.1647537096	-1.7269753815	 0.08285
H	 0.5921233442	-4.201779117	-3.7667060953	 0.105459
H	-0.7923688024	-3.5618523426	-2.7585570642	 0.110166
H	 2.1729779768	-2.6675785239	-2.4806534004	 0.078306
72.8492	78.9231	137.5262	198.8871	233.7053	280.6154	348.9998	364.5998	378.6925	568.9151	669.9089	729.0908	783.577	808.8796	824.8633	871.8383	901.293	954.1928	989.2167	993.7093	1011.2077	1040.0137	1058.6705	1075.7264	1096.5745	1102.0824	1149.1548	1177.6399	1184.6226	1185.2931	1205.8505	1225.5906	1254.6762	1263.069	1313.7725	1357.4588	1377.4278	1431.7843	1473.2853	1479.1757	1484.7928	1485.6136	1497.4114	1521.2784	1710.6487	2917.5368	2928.6031	2966.8754	3008.0383	3008.8629	3034.8503	3114.1256	3118.7778	3154.3504	3177.7776	3207.9747	3221.6925
COCC1=CCC2CC12	COCC1=CC[C@H]2C[C@@H]12	
InChI=1S/C8H12O/c1-9-5-7-3-2-6-4-8(6)7/h3,6,8H,2,4-5H2,1H3	InChI=1S/C8H12O/c1-9-5-7-3-2-6-4-8(6)7/h3,6,8H,2,4-5H2,1H3/t6-,8+/m0/s1
