19
gdb 90888	2.40555	2.04655	1.4787	2.2897	73.18	-0.2337	0.0713	0.305	952.074	0.160012	-422.999623	-422.99205	-422.991106	-423.031199	31.026	
C	 0.0187206002	 1.4694649966	-0.0125718411	-0.489955
C	-0.0553121477	-0.0274704572	 0.1086915863	 0.394085
O	 0.3844826983	-0.7081820461	-1.1371634897	-0.356785
C	-0.7850323419	-1.5290520892	-1.0652940427	 0.096279
C	-0.9022530587	-2.1899395166	 0.2925600538	-0.08826
C	 0.3443729116	-2.1849299199	 1.1658823722	-0.273375
C	 0.7926398071	-0.6891525165	 1.2100625559	 0.131153
O	 2.1715443347	-0.4842804947	 0.989976756	-0.44554
C	-1.4050833404	-0.7735865968	 0.0668101645	-0.216814
H	 1.0641106595	 1.7818250679	-0.0900232581	 0.138526
H	-0.5233311044	 1.8179617277	-0.8951079972	 0.125631
H	-0.4140662921	 1.941788124	 0.8761115777	 0.119328
H	-1.1847473539	-1.923052704	-1.9923737514	 0.103467
H	-1.6328256186	-2.9870792874	 0.3781146646	 0.088928
H	 0.1241764858	-2.56749956	 2.1664028016	 0.103541
H	 1.1522868879	-2.7973775421	 0.7534904908	 0.105272
H	 0.5698777529	-0.2412812044	 2.1848989521	 0.083413
H	 2.3249787865	-0.7586840077	 0.0751040644	 0.284937
H	-2.3983936168	-0.3807158535	 0.2329084303	 0.096169
114.045	213.5791	245.3774	293.9351	317.624	399.088	484.1793	527.9236	534.9831	581.784	675.4287	746.5078	763.365	806.0695	827.4713	835.0562	879.6962	919.1319	971.3817	1006.1446	1013.1984	1036.5724	1044.1052	1053.9808	1087.223	1105.5217	1127.4677	1177.6581	1204.1218	1209.8439	1260.6787	1298.9551	1309.2131	1314.5287	1349.6677	1397.6793	1408.5611	1440.2059	1481.4778	1488.5775	1491.7599	3039.2805	3049.2623	3054.5245	3095.4643	3110.4396	3126.9745	3172.5771	3182.6985	3210.1782	3752.17
CC12OC3C(CC1O)C23	C[C@@]12O[C@H]3[C@@H](C[C@H]1O)[C@@H]23	
InChI=1S/C7H10O2/c1-7-4(8)2-3-5(7)6(3)9-7/h3-6,8H,2H2,1H3	InChI=1S/C7H10O2/c1-7-4(8)2-3-5(7)6(3)9-7/h3-6,8H,2H2,1H3/t3-,4+,5+,6-,7+/m0/s1
