18
gdb 36815	8.14147	0.46147	0.44151	4.3451	80.43	-0.2691	0.007	0.2761	2323.6177	0.144635	-401.912618	-401.902275	-401.901331	-401.94954	35.143	
C	 0.0413716436	-1.2049863827	-0.0041856847	-0.425042
C	 0.0107273928	-0.0038162931	 0.001926874	 0.288902
C	 0.004006171	 1.4535260127	 0.0090778785	-0.358687
C	 1.4236019609	 2.0538491216	-0.0001430468	-0.193855
C	 1.3931608778	 3.5748797231	 0.007524806	-0.055278
O	 2.7319167841	 4.042488563	-0.0016774171	-0.238398
C	 2.8121339043	 5.4441889042	 0.0044658744	-0.187113
C	 4.2212541328	 5.8488474279	-0.0055584555	 0.265648
N	 5.3209926436	 6.1995154474	-0.013213431	-0.290355
H	 0.0576337851	-2.2666265671	-0.0094878179	 0.198071
H	-0.5567753719	 1.8191119251	-0.8615302387	 0.133008
H	-0.5417734246	 1.8105694904	 0.8926686068	 0.133008
H	 1.9808469437	 1.7009711407	 0.8728758501	 0.129274
H	 1.9657988463	 1.7095412446	-0.8859657546	 0.129274
H	 0.8516098068	 3.9587843517	-0.8738886346	 0.095771
H	 0.866839907	 3.9501401189	 0.9017927092	 0.095771
H	 2.3150616593	 5.8848275515	-0.8758091307	 0.14
H	 2.3301564775	 5.87619177	 0.8973252425	 0.139999
51.8951	59.5935	66.2074	128.0314	133.6126	150.4882	225.269	343.5748	344.8019	385.5046	390.4459	539.1679	580.1219	622.6439	643.246	758.0834	870.754	944.3374	955.6462	1018.4486	1034.2885	1049.2307	1093.6571	1118.9154	1157.4559	1218.8316	1253.664	1276.577	1302.0972	1314.1595	1368.7826	1391.6474	1449.7045	1476.4441	1493.1338	1501.1622	1528.9355	2242.7665	2374.9007	2952.5722	2968.9141	2982.0958	2992.2634	3013.9515	3042.4111	3061.9777	3109.0082	3506.223
C#CCCCOCC#N	C#CCCCOCC#N	
InChI=1S/C7H9NO/c1-2-3-4-6-9-7-5-8/h1H,3-4,6-7H2	InChI=1S/C7H9NO/c1-2-3-4-6-9-7-5-8/h1H,3-4,6-7H2
