20
gdb 70578	2.54479	1.81842	1.32028	2.7553	78.43	-0.2307	0.0735	0.3042	1029.7622	0.172645	-403.112843	-403.105164	-403.10422	-403.144425	31.446	
C	-0.0835709753	 1.4931298584	 0.017311293	-0.486209
C	 0.005116529	-0.01674244	 0.0214391829	 0.323724
N	-0.2235321615	-0.733074966	 1.2945584541	-0.364242
C	 1.1320450844	-0.6943281847	 0.7154125382	-0.083896
C	 1.6416882761	-2.0065858713	 0.1519531221	-0.086165
O	 0.6103001987	-2.7777264182	-0.4423134823	-0.246171
C	-0.1023237936	-2.1288458257	-1.4539766054	 0.087865
C	-1.5433582118	-1.8084973582	-1.1736021567	-0.318426
C	-0.5182082294	-0.6968373543	-1.2228938299	-0.097972
H	 0.4247446902	 1.918909634	-0.854971645	 0.123864
H	-1.1286600036	 1.8226283749	-0.0154932532	 0.127252
H	 0.3801232236	 1.917413571	 0.914391057	 0.109713
H	-0.2972069434	-0.0600291595	 2.0536326947	 0.225192
H	 1.8886781433	-0.0767257486	 1.1969172163	 0.078231
H	 2.4500576295	-1.7962537647	-0.5691078584	 0.085769
H	 2.0545293843	-2.6367091792	 0.9464979858	 0.112197
H	 0.1886225639	-2.4329177948	-2.4587345705	 0.082299
H	-2.2611542447	-1.882469772	-1.982980317	 0.104404
H	-1.9008238547	-2.0877898003	-0.1898132911	 0.142834
H	-0.533080665	-0.0531707606	-2.0972896845	 0.079737
163.3227	212.3709	237.7369	258.324	314.0681	378.5993	409.4703	455.8038	524.5598	585.5834	674.5445	749.8802	781.085	789.5572	825.4197	868.0888	917.5442	956.2334	990.2713	998.2625	1031.6323	1050.2473	1062.0905	1071.3444	1102.1811	1118.2835	1128.4466	1138.2565	1169.4117	1185.2529	1236.266	1269.9502	1298.3359	1314.9258	1372.2108	1405.5632	1414.789	1422.4651	1453.1583	1473.5767	1484.8723	1494.9872	1504.4892	2962.2223	3022.2619	3071.692	3087.204	3095.4483	3103.7949	3120.3914	3139.5832	3150.2759	3239.8424	3496.2927
CC12NC1COC1CC21	C[C@]12N[C@H]1CO[C@H]1C[C@@H]21	
InChI=1S/C7H11NO/c1-7-4-2-5(4)9-3-6(7)8-7/h4-6,8H,2-3H2,1H3	InChI=1S/C7H11NO/c1-7-4-2-5(4)9-3-6(7)8-7/h4-6,8H,2-3H2,1H3/t4-,5+,6+,7-/m1/s1
