22
gdb 87704	2.78772	1.24694	1.06602	0.8174	83.09	-0.2215	0.069	0.2905	1242.7528	0.192351	-404.304793	-404.294974	-404.29403	-404.339252	37.095	
C	-0.5821249374	 1.2387056711	-0.0958628249	-0.409397
C	 0.0287681629	-0.1539008521	-0.1606184077	-0.057974
C	 1.3474984338	-0.3367363204	-0.9764981815	 0.100473
O	 2.0110065142	 0.907510593	-1.0979178405	-0.431917
C	 1.9133510028	-1.2420209471	 0.1561523481	-0.338389
C	 0.7720533288	-0.7567449105	 1.053792099	 0.372515
C	 0.8484159685	-0.1993048141	 2.4274235574	-0.315003
N	 0.2472968436	-1.5106629271	 2.1761649219	-0.135459
C	-1.197512886	-1.6141953938	 2.3183206478	-0.321194
H	 0.1529764937	 1.9716915444	 0.2424502126	 0.134489
H	-0.9364846102	 1.5524893708	-1.0835987666	 0.115656
H	-1.4379202174	 1.2633472671	 0.5868685671	 0.109437
H	-0.7142303746	-0.8738415866	-0.5257488232	 0.075052
H	 1.2304103201	-0.8145314608	-1.9581375315	 0.059376
H	 2.9041343083	 0.7356778918	-1.412035126	 0.283418
H	 1.8403384266	-2.310999366	-0.065789072	 0.103195
H	 2.9327427168	-1.0092904422	 0.4769821827	 0.09621
H	 1.7870849827	-0.2027199839	 2.9771304423	 0.109163
H	 0.1830558837	 0.6289759782	 2.6704981483	 0.104891
H	-1.7449975693	-0.7022390752	 2.0304818128	 0.103983
H	-1.5655033587	-2.4415466435	 1.7022196587	 0.119357
H	-1.4389442931	-1.838974133	 3.3621622052	 0.122119
50.3738	149.868	180.6207	192.4844	210.4203	230.1995	260.5396	273.0998	373.97	424.1457	438.4661	451.9353	526.7341	609.6786	735.5928	771.2473	834.0921	878.4231	889.0971	915.4113	983.1781	1012.2302	1030.679	1060.6232	1082.7699	1111.8753	1124.95	1148.4843	1169.3983	1174.438	1193.4576	1203.2312	1238.8699	1244.4607	1287.3985	1318.9896	1362.4006	1400.3661	1405.9088	1423.5914	1448.2936	1465.6699	1487.8856	1492.3845	1493.1766	1500.3715	1514.1302	2974.0005	3003.0392	3029.4071	3037.9662	3050.4647	3063.7609	3081.2046	3096.0653	3097.3964	3105.0342	3132.9952	3165.7973	3819.5613
CC1C(O)CC11CN1C	C[C@H]1[C@@H](O)C[C@]21CN2C	
InChI=1S/C7H13NO/c1-5-6(9)3-7(5)4-8(7)2/h5-6,9H,3-4H2,1-2H3	InChI=1S/C7H13NO/c1-5-6(9)3-7(5)4-8(7)2/h5-6,9H,3-4H2,1-2H3/t5-,6-,7+,8?/m0/s1
