16
gdb 46959	3.14497	1.72786	1.2051	3.3513	70.62	-0.2392	0.0041	0.2434	985.3888	0.128273	-434.094287	-434.087399	-434.086455	-434.126002	26.214	
N	-0.2044559475	 1.280384154	-0.0801046416	-0.567394
C	-0.0699364916	 0.0287764337	-0.1387647905	 0.445748
O	 1.0929087018	-0.6791939067	 0.0011536196	-0.247102
C	 0.7911070256	-2.0732265164	 0.2079158298	-0.117201
C	-0.6037543688	-2.2546519232	-0.4112461623	-0.010956
C	-1.6984732235	-3.034234365	 0.3714615173	-0.197947
N	-2.6792897827	-2.029243569	 0.8257367559	-0.233474
C	-2.2842915681	-0.895865292	 0.408724731	 0.054056
N	-1.1167283241	-0.8763046618	-0.3727286948	-0.123968
H	 0.6801747284	 1.7223811452	 0.1620004823	 0.232445
H	 1.5705173489	-2.6623112118	-0.2776243943	 0.131031
H	 0.7936893068	-2.2848556058	 1.284922346	 0.12032
H	-0.5190417134	-2.597155738	-1.4465703127	 0.104969
H	-2.1952888813	-3.7702083794	-0.2667646473	 0.128247
H	-1.302626184	-3.5753306383	 1.2397149141	 0.118796
H	-2.7784123866	 0.0478794147	 0.6083981675	 0.162431
87.3123	160.9992	178.0575	306.7458	428.0681	511.6114	605.4235	653.4698	662.7452	730.0938	776.0753	828.7386	880.7083	915.9341	945.8813	961.1207	979.1957	1002.1687	1054.2066	1075.1547	1118.452	1157.3558	1208.1035	1213.8009	1245.149	1295.5792	1303.85	1314.6855	1344.0503	1391.471	1402.0799	1494.9801	1520.6407	1693.2459	1786.7063	3026.7499	3035.5749	3054.5282	3087.3739	3122.5341	3221.9065	3523.0243
N=C1OCC2CN=CN12	[NH][C]1OC[C@H]2CN=CN12	
InChI=1S/C5H7N3O/c6-5-8-3-7-1-4(8)2-9-5/h3-4,6H,1-2H2	InChI=1S/C5H7N3O/c6-5-8-3-7-1-4(8)2-9-5/h3-4,6H,1-2H2/t4-/m1/s1
