17
gdb 68960	2.46813	1.65398	1.1911	3.0601	74.36	-0.2551	-0.04	0.2151	1061.5363	0.13409	-421.832578	-421.824354	-421.82341	-421.865217	31.156	
C	-0.0021363498	 1.5156889349	-0.0454543094	-0.48392
C	-0.0702639321	 0.020549156	 0.1198545437	 0.325885
C	-1.3393039895	-0.7347955086	-0.2942186668	-0.327583
C	-1.3383974051	-1.966546977	 0.5831107682	-0.083414
C	-0.3149479017	-1.9786107602	 1.4384330464	-0.130701
C	 0.5560758577	-0.7891318436	 1.2175271047	 0.226237
O	 1.1207080894	-0.712839521	-0.1239030365	-0.320733
C	 1.4100487239	-0.2166963068	 2.2872098298	 0.079687
O	 1.3362284146	-0.5489431935	 3.4448106313	-0.25555
H	 0.9607616604	 1.9085968195	 0.2864063616	 0.13532
H	-0.1286490739	 1.7803739641	-1.1011664323	 0.135264
H	-0.7994504343	 2.0067033754	 0.5208468382	 0.133301
H	-2.234404249	-0.1200122557	-0.1353702062	 0.118637
H	-1.3081552527	-0.981631485	-1.3626073138	 0.131402
H	-2.0865198351	-2.7449935157	 0.4879254758	 0.109577
H	-0.0944340302	-2.7290646128	 2.1850033021	 0.122093
H	 2.1402992674	 0.5415839202	 1.9332748335	 0.084498
101.7651	168.8031	171.3252	213.7217	253.9668	318.4373	380.7482	467.1057	471.5317	544.8139	586.7923	692.756	727.3736	783.9615	785.3107	888.0296	910.9806	944.1018	953.8887	974.3364	1029.8773	1054.3764	1084.9931	1143.9936	1187.861	1210.6859	1259.3707	1309.9584	1375.3386	1389.1677	1406.8783	1433.6956	1456.2627	1482.3669	1495.3444	1667.7659	1812.3858	2910.6655	3028.2756	3040.3837	3063.8173	3102.6209	3135.1424	3199.7995	3237.8137
CC12CC=CC1(O2)C=O	C[C@]12CC=C[C@]1(O2)C=O	
InChI=1S/C7H8O2/c1-6-3-2-4-7(6,5-8)9-6/h2,4-5H,3H2,1H3	InChI=1S/C7H8O2/c1-6-3-2-4-7(6,5-8)9-6/h2,4-5H,3H2,1H3/t6-,7-/m0/s1
