16
gdb 16239	3.00271	2.30851	1.48717	2.2033	66.56	-0.2408	0.0084	0.2492	846.1698	0.130481	-383.723411	-383.71618	-383.715236	-383.754959	27.617	
O	 0.1891646507	 1.1728776433	-0.5264787276	-0.429522
C	 0.0251653213	-0.1098007651	 0.0519292493	 0.026091
C	 0.4429368345	-0.2073652105	 1.5459697948	-0.306923
C	-0.6653538104	-1.0199127523	 2.173360929	-0.078006
C	-1.7019742283	-1.1796034383	 1.3496735939	-0.14858
C	-1.451577326	-0.5211232092	 0.0440131637	 0.426146
C	-2.4722053487	 0.1734469607	-0.754270914	-0.241798
O	-1.9745024643	-1.1060947009	-1.1561861348	-0.292666
H	 1.1229340309	 1.2984297806	-0.7193118833	 0.288001
H	 0.5677840965	-0.8659340511	-0.5332805229	 0.089012
H	 1.4332174366	-0.656200223	 1.6851240365	 0.102649
H	 0.4858793615	 0.8041066275	 1.9705668273	 0.119678
H	-0.6108843077	-1.394176047	 3.1895370256	 0.101514
H	-2.6274360269	-1.6997447068	 1.5648537183	 0.105089
H	-3.5065605515	 0.1873156405	-0.4111125483	 0.106962
H	-2.1641483581	 1.0120901417	-1.3736774276	 0.132353
63.6014	235.294	246.7863	271.9494	307.2604	414.2202	470.0812	518.0494	576.3093	698.5994	756.0011	787.1461	858.1246	882.6183	946.779	962.1079	975.6509	1004.957	1034.2193	1105.1868	1119.6584	1130.8799	1161.2601	1180.862	1232.0671	1244.9339	1288.9582	1323.6735	1345.034	1417.6121	1443.6423	1483.839	1519.5215	1677.6939	3000.2559	3023.0311	3060.8299	3084.8847	3184.9397	3189.6025	3217.4577	3828.9143
OC1CC=CC11CO1	O[C@H]1CC=C[C@]21CO2	
InChI=1S/C6H8O2/c7-5-2-1-3-6(5)4-8-6/h1,3,5,7H,2,4H2	InChI=1S/C6H8O2/c7-5-2-1-3-6(5)4-8-6/h1,3,5,7H,2,4H2/t5-,6+/m0/s1
