17
gdb 30957	2.46897	1.35657	0.9194	5.7087	72.82	-0.1952	0.0364	0.2316	1257.0749	0.135841	-455.196859	-455.187686	-455.186742	-455.231092	32.851	
C	 0.3456987217	 1.272139916	 0.3670189839	-0.333016
N	-0.3898908002	 0.2435110532	-0.3804785977	-0.393545
C	 0.3695201006	-0.600927201	-1.1894083306	 0.198763
C	 0.6636733003	-1.9119296821	-1.132511493	 0.293544
C	 0.3615190924	-2.9900368657	-0.1624072021	-0.495931
O	 1.3898674731	-2.2605478583	-2.2717833751	-0.250195
C	 1.5706628686	-1.1392070624	-3.0507707155	 0.474679
O	 2.1438657718	-1.123715592	-4.1059769741	-0.405182
N	 0.9696576174	-0.1094327895	-2.3589032152	-0.396829
H	 1.0776617302	 0.858900797	 1.0763744422	 0.118721
H	 0.8827813725	 1.9180932802	-0.3326888662	 0.136214
H	-0.3699269322	 1.8918539451	 0.9127148689	 0.130879
H	-0.9932881658	-0.2931968411	 0.2282964324	 0.24024
H	-0.2845500708	-3.7626827477	-0.596504766	 0.142682
H	 1.2780722134	-3.4847897267	 0.17889939	 0.145158
H	-0.1452783485	-2.5779914181	 0.7147287956	 0.120376
H	 0.7776451058	 0.780490103	-2.7851228474	 0.273442
68.1021	127.2473	158.22	168.5427	192.7464	237.7607	261.8325	357.3388	414.9028	440.8915	571.648	616.8779	629.293	670.6294	722.2099	767.1127	837.9499	946.2174	988.315	1037.4502	1065.5244	1089.7782	1143.7065	1158.1665	1262.9606	1265.6951	1310.9361	1416.6159	1438.3806	1462.6481	1466.6019	1482.5529	1489.1279	1497.8813	1516.7708	1764.5404	1895.438	2996.4992	3023.627	3073.4709	3088.3043	3112.5989	3126.435	3578.1903	3685.3574
CNC1=C(C)OC(=O)N1	CNc1c(C)oc(=O)[nH]1	
InChI=1S/C5H8N2O2/c1-3-4(6-2)7-5(8)9-3/h6H,1-2H3,(H,7,8)	InChI=1S/C5H8N2O2/c1-3-4(6-2)7-5(8)9-3/h6H,1-2H3,(H,7,8)
