17
gdb 34416	2.63046	1.59457	1.31348	4.1972	72.29	-0.2483	0.0169	0.2652	1012.6068	0.138135	-417.999883	-417.992344	-417.991399	-418.03199	28.965	
N	 0.1387894799	-1.2238393506	-0.3642870166	-0.34002
C	 0.085227237	-0.0933330704	-0.1310327775	 0.253069
C	 0.0450422492	 1.3433305412	 0.1153754807	 0.266182
C	-0.4459742621	 2.2375948425	-1.0652880275	-0.214356
N	 0.7142357803	 3.1359962548	-0.8572450039	-0.325778
C	 1.3787564351	 2.1677650306	 0.0486140343	-0.058904
C	 1.5620919868	 2.6762270585	 1.4752174618	-0.222365
C	 0.1155184715	 2.7154610456	 1.9830775688	-0.091589
O	-0.5404189691	 1.5918791381	 1.3728086015	-0.304071
H	-0.4543904102	 1.6987548542	-2.0195143233	 0.118563
H	-1.4211918595	 2.7064062129	-0.9016445315	 0.123974
H	 1.2356315768	 3.3581608333	-1.69596501	 0.229783
H	 2.2467843599	 1.6472507361	-0.3637015057	 0.092402
H	 2.1607171336	 1.9648733415	 2.0532249202	 0.117087
H	 2.0435683673	 3.656318727	 1.5041061352	 0.117282
H	 0.0164186928	 2.5968455084	 3.0639822967	 0.120772
H	-0.3750759291	 3.6477236764	 1.6776997468	 0.117967
98.7633	156.3787	194.5727	218.4697	367.6321	381.4842	514.0801	538.3146	564.0691	627.9851	655.1351	710.6885	853.9812	878.0758	900.7396	929.2988	974.541	1007.5671	1022.2206	1038.2583	1061.1051	1085.4645	1123.8065	1145.8242	1162.7062	1218.8035	1253.1117	1259.3365	1302.2036	1329.0261	1354.6279	1379.4938	1392.7793	1470.3463	1505.3769	1515.7756	2360.116	3031.8006	3033.4994	3056.8322	3080.2035	3088.4585	3111.5753	3122.4675	3557.4403
N#CC12CNC1CCO2	N#C[C@]12CN[C@H]1CCO2	
InChI=1S/C6H8N2O/c7-3-6-4-8-5(6)1-2-9-6/h5,8H,1-2,4H2	InChI=1S/C6H8N2O/c7-3-6-4-8-5(6)1-2-9-6/h5,8H,1-2,4H2/t5-,6-/m0/s1
