16
gdb 7251	4.79778	1.19082	0.97139	7.054	67.6	-0.2574	0.0099	0.2673	1159.7824	0.128878	-379.959471	-379.950158	-379.949214	-379.994622	31.03	
C	 0.0384871725	 1.4338741422	 0.0918651457	-0.345917
N	 0.0004005789	-0.0214431674	 0.0624169918	-0.100305
C	 1.2926314362	-0.6749494969	 0.145608622	-0.341983
C	-1.2145665592	-0.6421988394	-0.0380408869	 0.450593
O	-2.2679770835	-0.0411279752	-0.104409554	-0.35205
C	-1.1910196962	-2.1868353452	-0.0645812583	-0.515015
C	-2.5345640476	-2.7450918911	-0.1733811343	 0.307629
N	-3.5710562111	-3.2454556464	-0.2585719968	-0.297671
H	 0.6282560831	 1.8181763956	-0.7492495451	 0.127003
H	-0.9812761973	 1.8070951876	 0.0236627996	 0.177989
H	 0.4977868727	 1.7857321844	 1.0236602606	 0.127001
H	 1.8040336358	-0.3998485737	 1.0771971508	 0.136504
H	 1.2025614996	-1.7588565235	 0.1191945966	 0.142498
H	 1.934140435	-0.3675999946	-0.690494225	 0.136509
H	-0.5928423904	-2.5475910612	-0.9089046964	 0.17361
H	-0.7214627986	-2.5798186352	 0.8442119197	 0.173605
34.4771	70.6524	125.2597	140.1645	147.1053	231.6653	289.5289	384.8198	390.5721	419.8752	474.1851	566.8741	622.7748	811.4757	945.6639	952.6187	996.6795	1083.178	1129.5974	1145.0139	1177.5546	1226.5504	1278.6394	1314.3427	1427.1869	1433.9818	1452.0484	1480.0309	1481.8948	1502.0455	1504.7318	1544.4121	1775.4153	2379.5214	3011.8482	3021.4237	3044.2125	3054.9812	3069.4291	3084.6334	3166.4319	3177.4711
CN(C)C(=O)CC#N	CN(C)C(=O)CC#N	
InChI=1S/C5H8N2O/c1-7(2)5(8)3-4-6/h3H2,1-2H3	InChI=1S/C5H8N2O/c1-7(2)5(8)3-4-6/h3H2,1-2H3
