13
gdb 43555	2.32003	1.54776	1.02396	6.6902	69.56	-0.2793	-0.0193	0.26	1095.1941	0.089581	-411.791658	-411.783498	-411.782553	-411.825056	28.844	
N	-0.1573348181	 1.1734010755	-0.7473761128	-0.519738
C	-0.0315658222	 0.0776596657	-0.1491196068	 0.411876
N	 0.9696814895	-0.6472778212	 0.4869217629	-0.315936
C	 0.1742217696	-1.8585623057	 0.685941306	-0.13423
C	 0.1131216568	-2.346820375	 2.0623159094	 0.317978
N	 0.0912437043	-2.7599479865	 3.1404802917	-0.303543
C	-1.0604573067	-1.0461592158	 0.117491105	-0.276347
C	-2.1442612477	-0.7407066039	 1.0306731875	 0.322305
N	-3.0127287378	-0.4999010663	 1.7529905844	-0.309142
H	 0.7132887373	 1.7023521875	-0.8018815942	 0.230821
H	 1.9708623606	-0.5856253795	 0.3734010429	 0.264772
H	 0.4411902129	-2.6921465119	 0.0266687983	 0.145908
H	-1.4540916886	-1.4801105029	-0.8037687646	 0.165277
64.8919	103.2361	145.4094	200.9161	266.9519	371.8241	396.3716	458.2715	475.4521	528.4148	610.2242	665.5201	769.2216	808.8785	837.6493	917.3018	983.3426	1038.7686	1064.033	1100.5762	1137.9104	1205.3982	1288.2832	1319.9521	1360.6721	1382.0642	1825.3457	2367.335	2369.9851	3047.6919	3107.1866	3487.4071	3614.9101
N=C1NC(C#N)C1C#N	[NH][C]1N[C@@H](C#N)[C@H]1C#N	
InChI=1S/C5H4N4/c6-1-3-4(2-7)9-5(3)8/h3-4H,(H2,8,9)	InChI=1S/C5H4N4/c6-1-3-4(2-7)9-5(3)8/h3-4H,(H2,8,9)/t3-,4+/m1/s1
