16
gdb 18850	3.62406	2.27777	1.90036	3.5129	67.48	-0.2318	0.0033	0.2351	752.3158	0.132976	-346.610191	-346.604165	-346.603221	-346.640225	24.306	
O	-0.0014787629	 0.0427857197	-0.1678349056	-0.340393
C	-0.0341695635	 1.2285666067	 0.018889475	 0.43383
C	-1.1364407065	 2.2334035928	 0.0501332281	-0.197126
C	-0.7731233167	 3.389414067	 0.9979216481	-0.032785
C	 0.1817095909	 3.1155302123	 2.1610030032	-0.24302
C	 1.4979103354	 2.6642672913	 1.4718690251	-0.215353
C	 1.0646797828	 2.323045279	 0.0352627176	-0.166721
C	-0.0814172473	 3.3177511666	-0.3119661474	-0.080868
H	-2.1508553038	 2.1020107063	-0.3068761327	 0.105833
H	-1.5836197666	 4.0985377835	 1.1294336535	 0.097817
H	 0.3294741499	 4.0202094812	 2.7583446432	 0.105184
H	-0.215675624	 2.3467023877	 2.830899662	 0.114469
H	 2.2284283298	 3.4800868395	 1.4563125607	 0.104861
H	 1.9653228773	 1.8104724191	 1.9699827139	 0.116836
H	 1.8722507216	 2.1695272118	-0.6800869739	 0.090633
H	-0.1229792163	 4.0206339856	-1.1311833508	 0.106801
130.2296	207.9007	359.0532	452.7038	531.9517	641.1928	689.9698	741.0082	790.4558	802.8461	835.1068	854.3988	879.399	904.3467	942.2313	952.7637	1005.9519	1019.7789	1059.7882	1062.5914	1090.7903	1127.705	1146.3494	1203.0289	1223.7312	1247.8377	1263.0768	1299.7957	1312.2927	1337.9872	1391.515	1485.5622	1504.7428	1869.944	3043.9488	3053.2367	3085.3801	3103.8077	3126.2129	3171.3948	3191.7384	3226.1067
O=C1C2C3CCC1C23	O=C1[C@H]2[C@H]3CC[C@@H]1[C@@H]23	
InChI=1S/C7H8O/c8-7-4-2-1-3-5(4)6(3)7/h3-6H,1-2H2	InChI=1S/C7H8O/c8-7-4-2-1-3-5(4)6(3)7/h3-6H,1-2H2/t3-,4+,5-,6-/m0/s1
