21
gdb 115333	3.26784	1.10682	0.92269	2.2795	74.44	-0.246	0.0554	0.3014	1316.9844	0.18227	-461.361946	-461.352271	-461.351327	-461.396601	35.846	
C	-0.5454597364	 1.4005940275	-0.0477127929	-0.415241
C	 0.2204202042	 0.0811321638	-0.0418117074	 0.003692
C	 1.4023301169	 0.0058070774	-1.0163795943	-0.075998
O	 2.2077781863	-1.0808381307	-0.5617633716	-0.299224
C	 1.9167451995	-1.3608218396	 0.8187726464	 0.108351
C	 3.2458365853	-1.4203353487	 1.5648052631	-0.088005
O	 4.1100160241	-2.3720181602	 0.9763071254	-0.425598
C	 0.9139704032	-0.2846859693	 1.282864552	 0.045957
O	 1.5367302006	 0.8918445156	 1.7867612379	-0.427014
H	 0.1056816336	 2.2299827328	 0.2357652646	 0.139904
H	-0.9559069321	 1.6043708607	-1.0421438249	 0.11331
H	-1.3823858891	 1.3733328298	 0.6571572124	 0.115461
H	-0.4639325818	-0.7432282567	-0.2787426885	 0.082946
H	 1.09792689	-0.1978268865	-2.0480531621	 0.103452
H	 1.9768528637	 0.9432862391	-1.0007348058	 0.102272
H	 1.4424881946	-2.3523222831	 0.8714478052	 0.077004
H	 3.6970418839	-0.4173541373	 1.571048741	 0.092958
H	 3.0865756219	-1.7358243081	 2.6036501755	 0.093998
H	 4.1173436817	-2.1631522588	 0.0340030426	 0.29175
H	 0.2082131385	-0.6921596936	 2.0191881587	 0.067851
H	 1.9272537013	 0.6904266759	 2.6419166429	 0.292175
55.7796	115.1276	141.8491	183.1807	199.2988	267.5146	291.7468	315.3178	323.8143	421.3476	462.768	486.0095	562.9979	626.8558	792.6324	816.7098	848.5212	903.6409	937.1054	967.8693	1005.9767	1029.2489	1071.5325	1088.4026	1113.0457	1133.7538	1146.2744	1177.2721	1203.5764	1232.4039	1257.3847	1288.357	1318.0571	1332.1747	1361.1117	1363.1626	1397.0489	1400.3142	1409.2544	1426.4844	1442.7939	1494.6899	1503.1844	1508.3573	1523.1103	2987.2809	2997.8983	3000.1236	3013.7209	3032.7306	3042.0963	3054.8956	3073.2955	3101.649	3134.4977	3786.1251	3835.7161
CC1COC(CO)C1O	C[C@H]1CO[C@@H](CO)[C@H]1O	
InChI=1S/C6H12O3/c1-4-3-9-5(2-7)6(4)8/h4-8H,2-3H2,1H3	InChI=1S/C6H12O3/c1-4-3-9-5(2-7)6(4)8/h4-8H,2-3H2,1H3/t4-,5-,6-/m0/s1
