21
gdb 41274	2.79397	1.97356	1.79001	0.1376	85.71	-0.2346	0.0961	0.3306	908.4373	0.1861	-349.889549	-349.88312	-349.882176	-349.919689	28.872	
C	 0.023973481	 1.5549943011	-0.1117586882	-0.331174
C	 1.5942801792	 1.5775381357	 0.0170610168	-0.359746
C	 1.5570282415	 0.1592414437	 0.6490878426	 0.3253
C	 1.670264961	-0.3711005057	 2.0722218377	-0.30428
C	 0.8861221423	-1.5754642837	 1.4676930092	-0.030303
C	-0.5142597715	-0.9331248343	 1.195775287	-0.300002
C	 0.0614048498	 0.0364326624	 0.1588803996	 0.306103
C	 0.5552432796	-0.9315802427	-0.9633271533	-0.285345
C	 1.6276899168	-1.2860392247	 0.0690209976	-0.079148
H	-0.4556240674	 2.1117963252	 0.6992920183	 0.102125
H	-0.4057370155	 1.8867798242	-1.0614324645	 0.095106
H	 2.1139126322	 1.6295048803	-0.9436726687	 0.106602
H	 2.004062149	 2.3578012813	 0.6629858587	 0.103747
H	 2.700517832	-0.6348128339	 2.3347336905	 0.091521
H	 1.2068825926	 0.1753426862	 2.9019468159	 0.084101
H	 0.9263774146	-2.5638465111	 1.9268725076	 0.059825
H	-1.2616413895	-1.6274689124	 0.7999060675	 0.087973
H	-0.9204306598	-0.459322439	 2.0943647016	 0.0917
H	-0.1387113433	-1.7023112094	-1.3147059876	 0.084975
H	 0.9772542055	-0.4041493382	-1.8232142201	 0.095412
H	 2.53819618	-1.8560285648	-0.1317606782	 0.055507
220.6526	301.9711	364.1002	416.5626	464.5671	497.8632	589.5556	645.4858	684.8039	733.1619	770.6825	789.8177	841.3742	858.2917	889.5306	891.7875	914.3718	934.4197	950.6023	968.8291	988.7508	1013.927	1038.1428	1067.4362	1088.4601	1106.875	1148.139	1157.5441	1186.0157	1205.5505	1211.6652	1218.5217	1233.1626	1243.7068	1252.6137	1267.0955	1275.7191	1291.6823	1300.7827	1324.3682	1468.7255	1481.7971	1489.0961	1499.3326	1516.7534	3025.9977	3040.2343	3044.4725	3047.5305	3059.5982	3078.0449	3079.4813	3091.4204	3093.2068	3099.8089	3110.8056	3113.4371
C1CC23CC4CC12CC34	C1C[C@@]23C[C@H]4C[C@@]12C[C@@H]34	
InChI=1S/C9H12/c1-2-9-4-6-3-8(1,9)5-7(6)9/h6-7H,1-5H2	InChI=1S/C9H12/c1-2-9-4-6-3-8(1,9)5-7(6)9/h6-7H,1-5H2/t6-,7-,8-,9+/m1/s1
