17
gdb 127158	4.28801	0.9475	0.8871	3.1689	71.15	-0.2323	-0.0693	0.1631	1337.3744	0.134609	-451.253133	-451.244408	-451.243463	-451.287684	30.774	
C	 0.014140016	 1.5063506519	 0.1784007421	-0.325074
N	-0.0228639191	 0.0599924955	 0.0103536906	-0.055155
C	 0.7564358164	-0.6223850957	 1.032594782	-0.318786
C	-1.3826105842	-0.4570585078	-0.0681780366	-0.246712
C	-2.0272241829	-0.1020484937	-1.3695445144	 0.412486
N	-2.9985542927	 0.7512369772	-1.524219022	-0.140821
O	-3.25756081	 0.7490202995	-2.8503568684	-0.140315
N	-2.3882469717	-0.1536295673	-3.4735395065	 0.043956
N	-1.6578172009	-0.655636227	-2.5870062618	-0.186399
H	 1.0508819446	 1.8509543263	 0.1287647811	 0.126969
H	-0.5444546423	 1.996538717	-0.6232508215	 0.133231
H	-0.4144893317	 1.838163782	 1.1430264382	 0.098381
H	 0.3650750878	-0.4692327643	 2.0562651346	 0.097402
H	 0.7769734435	-1.6976577839	 0.8310816024	 0.125078
H	 1.7858950306	-0.2534264002	 1.0089143312	 0.12715
H	-1.338260813	-1.5491487654	-0.0077878065	 0.134261
H	-2.0352437204	-0.103730734	 0.7501787555	 0.11435
40.0581	75.8842	112.702	241.9261	244.3052	311.4444	328.9622	360.4253	379.2377	468.771	666.5866	674.0434	716.6011	808.9583	862.3927	953.4052	985.6097	1053.7917	1061.5171	1069.2891	1099.8982	1123.2616	1171.9128	1203.2762	1286.8427	1305.6029	1332.0629	1396.726	1446.8577	1469.1702	1481.5942	1485.5921	1494.5675	1498.7992	1499.9784	1512.3689	1595.8769	2927.7071	2934.7797	2951.837	3066.3882	3075.2888	3078.4522	3111.4805	3120.3108
CN(C)CC1=NON=N1	CN(C)Cc1nonn1	
InChI=1S/C4H8N4O/c1-8(2)3-4-5-7-9-6-4/h3H2,1-2H3	InChI=1S/C4H8N4O/c1-8(2)3-4-5-7-9-6-4/h3H2,1-2H3
