14
gdb 55431	2.48011	1.70981	1.15276	0.6622	57.84	-0.2618	-0.022	0.2398	1009.9825	0.101517	-511.023129	-511.015238	-511.014293	-511.056331	28.338	
N	-0.0267799838	 1.260912515	 0.0899785994	-0.517538
C	 0.055415635	-0.0960765021	 0.0123882988	 0.354091
O	 1.0784073041	-0.7388021584	-0.0351527059	-0.335875
C	-1.3402336214	-0.7770817353	-0.0485912408	-0.153376
O	-1.2664193496	-2.1783136717	-0.106767883	-0.218918
C	-1.4070572938	-2.6437805419	 1.211288697	 0.020111
O	-2.1736976581	-1.657613542	 1.9222700324	-0.214003
C	-2.1182847941	-0.4976039543	 1.2358502289	 0.429585
O	-2.5759284929	 0.5438490156	 1.6130215594	-0.344305
H	 0.831191963	 1.7627595331	 0.260930148	 0.268751
H	-0.8891630897	 1.6835781043	 0.4045440534	 0.280139
H	-1.890852516	-0.401410776	-0.9156096685	 0.151081
H	-1.9605813966	-3.5848141624	 1.2079137764	 0.142243
H	-0.436950966	-2.7515280138	 1.7125551945	 0.138014
63.1648	90.9012	179.3831	196.2262	291.8144	407.6439	458.2805	486.7083	536.9527	610.7805	656.1385	681.1726	727.4366	756.923	887.8739	938.1048	997.0189	1045.2912	1115.5144	1133.879	1148.9815	1212.4601	1231.2207	1243.8702	1305.2793	1359.526	1439.0251	1540.9346	1631.4616	1829.6033	1875.1443	3031.2235	3083.1679	3120.1962	3557.8394	3689.6259
NC(=O)C1OCOC1=O	NC(=O)[C@H]1OCOC1=O	
InChI=1S/C4H5NO4/c5-3(6)2-4(7)9-1-8-2/h2H,1H2,(H2,5,6)	InChI=1S/C4H5NO4/c5-3(6)2-4(7)9-1-8-2/h2H,1H2,(H2,5,6)/t2-/m1/s1
