14
gdb 5550	3.23944	2.00984	1.30694	1.6221	60.43	-0.1937	0.0261	0.2198	898.1374	0.106648	-419.681377	-419.673802	-419.672858	-419.713532	27.309	
C	 0.0718237086	 1.2113374906	-0.2625357518	-0.25286
O	-0.1817434207	 0.0999089524	 0.6082007056	-0.277433
C	-1.2728739796	-0.6233424824	 0.3066730053	 0.268626
C	-1.3971876682	-1.9409823956	-0.0102605246	 0.197252
O	-0.4145047825	-2.867060061	-0.1752086793	-0.447465
C	-2.8012665446	-2.1940906866	-0.1367944793	-0.257855
C	-3.4161730527	-1.0079505042	 0.1078639023	-0.00527
O	-2.5042200024	-0.0349840589	 0.3903064379	-0.178292
H	 1.0082929288	 1.6588863438	 0.0742245359	 0.135552
H	 0.170066294	 0.875168602	-1.3014627222	 0.123473
H	-0.7335857274	 1.9489855512	-0.1937057357	 0.140239
H	 0.4256466293	-2.4423736656	 0.0331160092	 0.300055
H	-3.268424347	-3.1345295438	-0.381076172	 0.118651
H	-4.4471549258	-0.6973987718	 0.1166748087	 0.135326
71.4015	155.6587	163.9512	271.7382	296.9149	350.8047	408.862	519.8533	620.4611	638.0865	666.0503	719.4039	752.232	814.823	897.3192	1014.3925	1061.6938	1110.4398	1164.2915	1174.6456	1202.9343	1228.9616	1301.945	1347.2532	1464.9785	1485.1701	1504.6131	1509.0741	1553.1493	1718.201	3023.7706	3099.4435	3141.7351	3262.1865	3289.6852	3806.9626
COC1=C(O)C=CO1	COc1c(O)cco1	
InChI=1S/C5H6O3/c1-7-5-4(6)2-3-8-5/h2-3,6H,1H3	InChI=1S/C5H6O3/c1-7-5-4(6)2-3-8-5/h2-3,6H,1H3
