19
gdb 53387	2.9299	0.95261	0.85142	2.6538	81.31	-0.2404	0.0272	0.2676	1454.1787	0.15561	-422.982427	-422.971985	-422.971041	-423.019829	36.444	
C	 0.2050729064	 1.509982664	-0.388110764	-0.500721
C	 0.0888233599	 0.0872932154	-0.1060564101	 0.097801
C	 0.0000890357	-1.0894517876	 0.136609456	 0.058762
C	-0.1046136744	-2.5068226785	 0.4137159226	-0.073192
O	-0.2973630916	-2.8305272944	 1.8170113019	-0.288944
C	-1.2998645356	-3.8159605135	 1.4951039547	-0.111786
C	-1.4014464635	-3.2917676267	 0.0390183947	 0.320971
C	-2.6255059037	-2.4375471896	-0.2409152308	-0.456386
O	-1.1506599262	-4.2236489069	-0.9870100131	-0.467648
H	 1.1052066063	 1.7290240527	-0.9726989053	 0.151567
H	-0.6585759291	 1.8774016732	-0.9532140094	 0.14891
H	 0.2630613063	 2.088140607	 0.5406477067	 0.155212
H	 0.7668892819	-3.0424764971	 0.0115563982	 0.105135
H	-0.9087059744	-4.8404547843	 1.5431172041	 0.098953
H	-2.1853152006	-3.7217716876	 2.1338900802	 0.099442
H	-2.7661322301	-1.6893729087	 0.5429751066	 0.141614
H	-2.5184517179	-1.9170578995	-1.1969318248	 0.131703
H	-3.5256904306	-3.0643012414	-0.2767113613	 0.106988
H	-1.9931023686	-4.5205315466	-1.3453119567	 0.281618
12.7938	62.2726	86.4825	137.4954	191.2105	242.5307	261.0806	277.6492	334.4726	358.9959	397.5371	421.7471	491.0438	549.6437	667.0623	783.6548	869.5838	908.5172	946.9229	971.1349	992.7155	1016.5472	1050.5243	1054.2125	1116.1694	1152.5872	1176.3325	1195.561	1215.3334	1273.5544	1326.8576	1371.4304	1391.6043	1410.4387	1413.5095	1475.5092	1477.9617	1486.8381	1491.0862	1514.9735	2365.6939	3003.0568	3013.4177	3025.2213	3027.8874	3068.3775	3089.0367	3090.8946	3099.2097	3128.3985	3818.208	12.7617	62.2731	86.4822	137.4958	191.2126	242.5307	261.0808	277.6492	334.4726	358.996	397.5369	421.7472	491.0434	549.6434	667.0622	783.6547	869.5838	908.5172	946.9229	971.1351	992.7157	1016.5472	1050.5249	1054.2131	1116.1694	1152.5872	1176.3322	1195.561	1215.3332	1273.5541	1326.8576	1371.4298	1391.6042	1410.4385	1413.5101	1475.5103	1477.9627	1486.8378	1491.0859	1514.9736	2365.6941	3003.0568	3013.4177	3025.2213	3027.8873	3068.3776	3089.0367	3090.8946	3099.2097	3128.3985	3818.2085
CC#CC1OCC1(C)O	CC#C[C@H]1OC[C@]1(C)O	
InChI=1S/C7H10O2/c1-3-4-6-7(2,8)5-9-6/h6,8H,5H2,1-2H3	InChI=1S/C7H10O2/c1-3-4-6-7(2,8)5-9-6/h6,8H,5H2,1-2H3/t6-,7+/m1/s1
