22
gdb 9768	3.0823	1.58321	1.48894	1.4087	77.59	-0.2382	0.0788	0.3171	1024.3627	0.200327	-350.22734	-350.218472	-350.217528	-350.260811	33.572	
C	 0.0068469415	 1.4911879534	 0.2473491062	-0.389311
C	-0.1038553215	-0.0226532365	 0.0469930114	-0.193563
C	-1.5417997881	-0.5462875448	-0.150230131	 0.414802
C	-2.1696849538	-0.0351828821	-1.4502522087	-0.431095
C	-1.5853886333	-2.0937244624	-0.0492695383	-0.272827
C	-2.0029871635	-2.3500486095	 1.4057496245	-0.219777
C	-2.9237665215	-1.1567021633	 1.6611389576	-0.066647
O	-2.3402973841	-0.0691305993	 0.9588530058	-0.301881
H	 1.037020596	 1.7742391471	 0.4848140957	 0.105144
H	-0.2860531285	 2.0464252353	-0.6490581274	 0.112396
H	-0.6372423263	 1.8123217595	 1.0696007852	 0.134449
H	 0.4990633186	-0.3351497405	-0.8154913717	 0.08825
H	 0.320573616	-0.5298037377	 0.9225526682	 0.088689
H	-1.6033824974	-0.3842851578	-2.3208082638	 0.108526
H	-3.1975042752	-0.3989308943	-1.5428911894	 0.111582
H	-2.1974553485	 1.0570315701	-1.4730409252	 0.123312
H	-2.3392369568	-2.4959823864	-0.734404604	 0.096208
H	-0.6262384438	-2.5476909701	-0.3105891269	 0.100461
H	-2.4975561798	-3.3138442181	 1.5511037834	 0.09822
H	-1.1365563993	-2.3095906386	 2.0740712923	 0.106667
H	-3.9398507016	-1.3633234445	 1.2854213527	 0.084324
H	-3.0069354091	-0.8780632094	 2.7166376435	 0.102071
45.8974	110.1658	192.5627	219.9266	240.3052	274.6676	344.7893	350.7293	417.0461	470.5677	585.7872	625.5108	740.3698	784.3364	850.3996	883.8573	903.8118	918.3608	935.9777	996.3826	1010.7568	1015.7856	1046.0749	1076.3416	1093.211	1161.2338	1182.7842	1211.1324	1225.733	1245.9735	1281.8715	1308.0624	1330.3736	1346.5879	1371.3504	1390.0054	1406.3554	1410.306	1473.6744	1484.9356	1489.2464	1492.9908	1497.2894	1508.275	1513.1752	1526.6726	2962.2127	3017.0719	3035.278	3043.7167	3046.7528	3048.142	3054.2646	3070.7093	3097.1106	3102.7555	3104.1856	3108.4832	3122.3977	3128.4962
CCC1(C)CCCO1	CC[C@@]1(C)CCCO1	
InChI=1S/C7H14O/c1-3-7(2)5-4-6-8-7/h3-6H2,1-2H3	InChI=1S/C7H14O/c1-3-7(2)5-4-6-8-7/h3-6H2,1-2H3/t7-/m0/s1
