18
gdb 38219	3.26013	1.79763	1.44749	1.9853	75.65	-0.2458	0.0257	0.2715	926.9056	0.151217	-401.903069	-401.896653	-401.895709	-401.933581	26.921	
C	-0.0474641935	 1.5810976723	 0.091548347	-0.25809
C	 1.4586112343	 1.2273332266	-0.0103072401	-0.101271
C	 1.1799129877	 0.0823208752	 1.0305652627	-0.307874
C	 0.0052301685	 0.0144635076	 0.0111224865	 0.291981
C	-1.1352549637	-0.8904812932	-0.3563778965	-0.292805
N	-1.4744646539	-0.6840499816	-1.7749148636	-0.270199
C	-0.707171864	-0.0424594689	-2.55028043	 0.123211
O	 0.5200031579	 0.5317842172	-2.3356431398	-0.251123
C	 1.075339408	 0.1721733144	-1.0763808137	 0.143245
H	-0.3864213963	 1.9965239843	 1.0436529239	 0.091996
H	-0.48612803	 2.1088802757	-0.7549781055	 0.114213
H	 2.3076092321	 1.9105730184	-0.0185368224	 0.081045
H	 1.8747080083	-0.7626689546	 1.0394467471	 0.097627
H	 0.9385112769	 0.4146209446	 2.0421325917	 0.1035
H	-0.8741204999	-1.9470789596	-0.2114386705	 0.116606
H	-2.040676584	-0.7080616619	 0.2331042545	 0.115142
H	-1.0019784678	 0.1310677368	-3.5837585602	 0.123342
H	 1.7763697491	-0.6554582532	-1.2252809312	 0.079455
151.36	277.4174	339.1562	394.6931	453.9857	503.5967	529.9902	616.8164	673.0644	774.2837	808.2162	869.3568	897.539	910.7697	926.3199	948.8459	963.0406	985.3791	1006.3256	1028.4969	1055.0223	1088.3171	1096.2298	1118.1169	1143.8354	1160.4564	1163.5072	1208.3326	1231.6072	1240.2941	1275.1315	1322.3679	1365.9881	1397.737	1411.792	1479.881	1497.2987	1538.6533	1713.5475	3021.8606	3052.6602	3058.7325	3059.6233	3070.5216	3117.5427	3126.1064	3145.9043	3156.9032
C1C2CC11CN=COC21	C1[C@H]2C[C@]31CN=CO[C@@H]23	
InChI=1S/C7H9NO/c1-5-2-7(1)3-8-4-9-6(5)7/h4-6H,1-3H2	InChI=1S/C7H9NO/c1-5-2-7(1)3-8-4-9-6(5)7/h4-6H,1-3H2/t5-,6-,7+/m0/s1
