19
gdb 65768	2.71926	1.18629	1.06593	4.4387	78.24	-0.2592	-0.0054	0.2538	1221.8554	0.158176	-423.066007	-423.057101	-423.056157	-423.099932	33.003	
C	-0.0409438867	 1.6074557628	-0.0379403158	-0.438418
C	 0.0440681621	 0.0852397689	 0.0276072374	 0.347694
C	 0.7639221803	-0.5586604665	-1.1786206034	-0.245447
C	 1.4944361673	-1.8023357941	-0.6220439204	-0.266434
C	 1.5853542578	-1.5001144189	 0.8523165633	-0.061166
C	 0.8150306581	-0.4736248213	 1.2083329805	-0.11261
O	-1.3273344262	-0.4592092564	-0.0228496633	-0.2347
C	-2.11958029	-0.3529947178	 1.0513059408	 0.164487
O	-3.2491641224	-0.7508419257	 1.0602099458	-0.28571
H	 0.9632467233	 2.0401405887	-0.0652741072	 0.127032
H	-0.5824885623	 1.9206731675	-0.935415308	 0.13536
H	-0.5608222746	 2.017502616	 0.8336287339	 0.120608
H	 0.0516805862	-0.7836606928	-1.9741981241	 0.123135
H	 1.4958316274	 0.1532276091	-1.5715449685	 0.107264
H	 0.9254981028	-2.7257424804	-0.790931921	 0.127488
H	 2.4760079346	-1.9537140621	-1.083367103	 0.110728
H	 2.2001318421	-2.0795197327	 1.5327907219	 0.106716
H	 0.7147120217	-0.080494052	 2.2133461956	 0.102862
H	-1.6369762113	 0.1284892478	 1.9211744854	 0.071112
63.6208	125.5267	130.0492	186.2471	247.3236	272.5875	328.1572	364.6571	416.8785	494.3806	564.1857	635.9236	744.5619	776.7707	827.0155	848.5765	919.8289	924.9956	953.4144	976.8656	1001.5455	1018.8662	1044.3634	1098.3208	1119.4094	1167.8265	1191.5365	1207.4423	1236.0639	1266.5981	1316.5498	1325.7416	1388.35	1410.3674	1435.1604	1472.1781	1489.8553	1489.9747	1494.7428	1681.3069	1850.3018	2967.9159	3029.5957	3039.8764	3060.044	3073.6575	3111.4061	3119.7885	3126.3501	3184.7574	3209.8383
CC1(CCC=C1)OC=O	C[C@]1(CCC=C1)OC=O	
InChI=1S/C7H10O2/c1-7(9-6-8)4-2-3-5-7/h2,4,6H,3,5H2,1H3	InChI=1S/C7H10O2/c1-7(9-6-8)4-2-3-5-7/h2,4,6H,3,5H2,1H3/t7-/m0/s1
