16
gdb 20591	3.33791	1.82322	1.25055	2.7197	67.38	-0.225	0.0244	0.2494	950.4903	0.131791	-379.941064	-379.933027	-379.932083	-379.973899	28.653	
C	-0.4873750329	 1.3708603195	-0.1101098482	-0.513261
C	-0.0527873397	-0.0583674408	-0.1057595735	 0.299322
C	 0.2939849292	-0.9170652939	-1.1392305524	 0.146818
C	 0.3296049085	-0.61308883	-2.6012523758	-0.218508
O	-0.9286632428	-0.0640696805	-3.0007941846	-0.413028
C	 0.6156188743	-2.1333021264	-0.496392265	-0.088002
N	 0.4890399397	-2.0571652454	 0.8238618701	-0.237292
N	 0.0818175198	-0.7875450478	 1.0306713382	-0.244314
H	 0.3500562797	 2.053728565	 0.0794333294	 0.132964
H	-0.9138906519	 1.6131358313	-1.0846232515	 0.162697
H	-1.2480580506	 1.5619446501	 0.6543940068	 0.126032
H	 1.1398517	 0.0977396497	-2.8320377663	 0.092582
H	 0.5503047726	-1.5384464039	-3.1548405016	 0.09681
H	-0.8488533507	 0.2111973405	-3.9197556039	 0.285544
H	 0.9327487262	-3.0607616414	-0.9527212529	 0.10492
H	-0.1114766113	-0.486887026	 1.9715801111	 0.266716
64.3015	102.3149	169.7295	233.3357	252.2731	307.8772	376.996	428.6176	529.0376	647.4636	690.2023	698.5984	737.7833	887.8171	951.0018	1007.4824	1010.8929	1043.4407	1064.4487	1135.3312	1180.7365	1222.8091	1253.6253	1271.2781	1311.3475	1371.8714	1410.2692	1442.2239	1465.6331	1483.5683	1498.3784	1517.8971	1534.4537	1626.3591	2960.9025	2996.5252	3026.2847	3081.2663	3143.0511	3233.9884	3663.4968	3814.7527
CC1=C(CO)C=NN1	Cc1c(CO)cn[nH]1	
InChI=1S/C5H8N2O/c1-4-5(3-8)2-6-7-4/h2,8H,3H2,1H3,(H,6,7)	InChI=1S/C5H8N2O/c1-4-5(3-8)2-6-7-4/h2,8H,3H2,1H3,(H,6,7)
