22
gdb 105041	2.62249	1.24369	1.11611	2.9681	81.07	-0.2439	0.0676	0.3115	1226.2751	0.193895	-404.307876	-404.298431	-404.297487	-404.342034	36.648	
C	 0.0046878383	 1.3719739461	 0.6368680084	-0.465413
C	-0.0125097284	-0.0264752253	 0.0372711211	 0.293144
C	 0.9604968886	-0.2914421598	-1.0867393532	-0.331388
C	 1.1995927495	-0.8997769445	 0.2743948877	-0.297498
C	-1.3783815206	-0.6757346726	 0.039241024	 0.230689
C	-1.9740587131	-0.9218481701	 1.4287972087	-0.117082
O	-3.1694234179	-1.663686534	 1.3693863497	-0.426918
C	-2.307381292	-0.4378511042	-1.0948411094	-0.269855
N	-1.7152557096	-1.7750020393	-0.8809274187	-0.386996
H	 1.0088391101	 1.8032580038	 0.5841576425	 0.113955
H	-0.6771085693	 2.0394923981	 0.0982629799	 0.121406
H	-0.2939284613	 1.3671247536	 1.6900351487	 0.126824
H	 0.6879892839	-0.9536393854	-1.902481896	 0.104915
H	 1.5903743634	 0.5342600183	-1.4003467377	 0.115096
H	 2.0077498123	-0.5078823087	 0.8827086549	 0.114547
H	 1.0422899248	-1.9683733875	 0.3772894854	 0.118132
H	-1.2114946462	-1.4288845749	 2.0451540979	 0.085043
H	-2.208266997	 0.0305755822	 1.9164508186	 0.10646
H	-3.0101190702	-2.3363138376	 0.6895635203	 0.291197
H	-3.3768688763	-0.3877695106	-0.9168971885	 0.130886
H	-1.9403105845	 0.1514264796	-1.9307368969	 0.112277
H	-0.9757982344	-1.9562682873	-1.5520707774	 0.230579
46.8135	121.0352	197.4674	207.6243	240.6831	274.9775	311.2022	344.5437	371.2749	451.3301	490.4726	513.3111	563.1458	658.7946	779.4113	800.9999	829.9015	872.5252	912.8995	924.4438	950.4271	953.4749	968.0813	1038.5057	1043.7932	1066.0819	1082.2828	1085.5594	1100.1059	1127.3313	1135.6814	1187.4737	1216.1995	1242.0172	1252.7791	1295.4107	1347.0411	1354.4744	1405.7936	1419.0507	1456.2545	1470.5335	1491.4374	1497.6012	1502.8289	1512.1165	1513.7218	2954.3732	3031.4262	3064.0059	3096.8361	3105.4833	3114.4596	3125.41	3131.5303	3200.3308	3207.2449	3218.1313	3525.8827	3705.9592
CC1(CC1)C1(CO)CN1	CC1(CC1)[C@@]1(CO)CN1	
InChI=1S/C7H13NO/c1-6(2-3-6)7(5-9)4-8-7/h8-9H,2-5H2,1H3	InChI=1S/C7H13NO/c1-6(2-3-6)7(5-9)4-8-7/h8-9H,2-5H2,1H3/t7-/m0/s1
