19
gdb 36088	3.61459	1.1586	1.08452	1.6129	79.88	-0.2382	0.0488	0.287	1173.0128	0.159485	-385.834462	-385.826495	-385.825551	-385.86709	31.655	
C	-0.0475778125	-1.2039950488	-0.1452652261	-0.454494
C	-0.0379161974	-0.0080382754	-0.0255741762	 0.30872
C	 0.0035844135	 1.4449920854	 0.113814288	-0.473631
C	 1.4117791075	 2.0139599021	 0.0255224779	 0.293556
C	 2.2978095704	 1.9412880963	-1.2624825871	-0.262356
C	 3.0721109588	 3.0362999639	-0.4893747531	 0.103014
C	 1.7007396141	 3.5521089489	 0.0100650303	-0.286234
O	 3.5985469622	 2.3333896188	 0.6475372019	-0.279156
C	 2.448093613	 1.5703853711	 1.0720119474	-0.103625
H	-0.0677149651	-2.2604368873	-0.2499652181	 0.197836
H	-0.6225534872	 1.9035209973	-0.6622830928	 0.131424
H	-0.444679385	 1.7334759949	 1.0748707058	 0.131985
H	 2.8243778737	 1.0089080042	-1.4761932695	 0.107129
H	 1.7799671746	 2.3141753164	-2.1484524407	 0.098592
H	 3.8442820425	 3.6680342719	-0.9242131501	 0.080748
H	 1.1272519147	 4.0795301702	-0.7549375875	 0.099146
H	 1.6844416762	 4.0939402487	 0.9591899462	 0.099892
H	 2.1683233732	 1.8443903385	 2.0971144241	 0.095715
H	 2.664209583	 0.497435343	 1.0339479698	 0.111739
66.947	109.9573	268.8945	277.5932	346.3834	369.681	435.5537	478.3771	516.6654	622.1192	628.711	643.8107	705.129	820.8572	852.7299	876.8593	911.4822	927.0406	944.297	960.668	975.6211	996.9262	1023.8693	1028.7926	1117.7699	1119.4777	1161.0393	1169.8801	1196.6329	1220.954	1238.4231	1260.593	1293.0723	1311.3175	1340.7174	1378.2373	1466.2005	1473.4952	1504.7124	1531.2992	2238.0193	3010.4538	3019.7336	3043.6165	3062.0754	3070.5848	3072.6871	3128.9801	3137.5034	3143.506	3505.8235
C#CCC12CC(C1)OC2	C#CC[C@@]12C[C@@H](C1)OC2	
InChI=1S/C8H10O/c1-2-3-8-4-7(5-8)9-6-8/h1,7H,3-6H2	InChI=1S/C8H10O/c1-2-3-8-4-7(5-8)9-6-8/h1,7H,3-6H2/t7-,8+
