19
gdb 100506	3.09922	0.95464	0.83195	2.0585	74.17	-0.2484	-0.0531	0.1953	1421.5559	0.157368	-456.366589	-456.356068	-456.355124	-456.402508	37.563	
C	-0.1176385191	 1.5154776939	 0.0776796278	-0.405877
C	 0.0338536281	-0.0198998333	-0.0073466288	-0.068039
C	 0.7817703563	-0.4457922218	-1.2706931847	-0.084721
O	-0.0050572789	-0.0459423113	-2.3837068833	-0.425608
C	 0.7472938602	-0.5309888369	 1.2240097601	 0.370541
O	 1.9220924111	-0.8425071559	 1.2303603694	-0.341496
C	-0.0514725084	-0.6534346758	 2.5210103538	 0.264869
N	 0.7485814241	-0.9399170755	 3.5887249205	-0.533444
N	-1.318747023	-0.4718552822	 2.4773884409	-0.506744
H	 0.8602348391	 1.999143632	 0.1799713749	 0.115002
H	-0.5833779217	 1.8735075327	-0.8424029033	 0.142882
H	-0.7421129203	 1.7957578835	 0.9276971684	 0.137865
H	-0.9717952284	-0.4499709804	-0.0183676327	 0.127371
H	 1.7759890071	 0.0226751876	-1.2869566143	 0.098707
H	 0.9357664387	-1.5352998479	-1.2613005265	 0.090573
H	 0.4914741688	-0.236508471	-3.1843093651	 0.287874
H	 1.6922438044	-1.2210261512	 3.3667816368	 0.270659
H	 0.341036594	-1.2757566822	 4.4445425716	 0.252725
H	-1.750397962	-0.5929083842	 3.3964828045	 0.206859
55.4935	69.4142	105.7575	163.5964	205.824	237.1505	244.2375	269.5889	327.587	354.8316	363.3669	447.4554	477.0953	543.9764	552.3522	619.2705	782.5641	814.8808	874.2406	881.1279	933.5234	1025.0339	1057.7908	1086.9009	1100.7472	1118.8408	1143.7861	1164.2779	1253.4609	1265.374	1330.3785	1345.75	1387.4009	1432.5229	1457.9505	1498.7473	1501.756	1519.3062	1598.112	1716.1095	1777.6715	2985.5807	3021.3875	3041.7127	3083.6101	3121.4907	3147.6985	3441.3394	3578.5985	3712.9004	3837.2061
CC(CO)C(=O)C(N)=N	C[C@@H](CO)C(=O)C(=N)N	
InChI=1S/C5H10N2O2/c1-3(2-8)4(9)5(6)7/h3,8H,2H2,1H3,(H3,6,7)	InChI=1S/C5H10N2O2/c1-3(2-8)4(9)5(6)7/h3,8H,2H2,1H3,(H3,6,7)/t3-/m0/s1
