17
gdb 43244	3.54969	1.67257	1.36976	4.1422	79.33	-0.2299	-0.0496	0.1804	939.6568	0.138221	-384.66283	-384.656399	-384.655455	-384.693408	26.777	
O	-0.1109742579	 0.0715676217	 0.3974927651	-0.339471
C	-0.0777644666	 1.2163380449	 0.0126517285	 0.391218
C	-1.2327260398	 2.1307337795	-0.2678688635	-0.284401
C	-0.7462487224	 3.2917669241	-0.7350623612	 0.19518
C	-0.7230767769	 4.7053895124	-0.1982827696	-0.297227
C	 0.8091876748	 4.384134611	 0.0576417122	-0.035692
C	 1.1960749507	 3.2483771732	 1.0718527999	-0.243889
C	 1.1624254016	 2.1260828686	-0.0621511884	-0.150708
C	 0.7445487649	 3.2625953986	-1.0157309341	-0.072937
H	-2.2109661246	 1.9543518222	 0.1629135138	 0.112053
H	-0.7878756499	 5.4963111594	-0.9529061762	 0.120997
H	-1.3902781933	 4.9338223272	 0.6360897929	 0.116996
H	 1.4902801268	 5.2355609746	 0.0131361126	 0.083198
H	 2.2111028184	 3.3936054131	 1.4459281093	 0.120286
H	 0.5332241939	 3.0879364492	 1.9250363886	 0.115654
H	 2.0983509109	 1.5860623585	-0.2024113082	 0.082568
H	 1.1040476494	 3.3573485319	-2.0399830016	 0.086173
138.0039	270.1027	320.3142	362.6978	438.2025	570.5389	615.342	687.6743	702.3641	744.948	794.9102	815.3191	857.2538	869.9108	882.2862	904.9148	935.2664	951.2962	969.3227	1017.2382	1065.0925	1082.9673	1117.1345	1124.9913	1168.5101	1169.7006	1213.3738	1220.0905	1230.7341	1254.4368	1281.4115	1294.0548	1299.3113	1472.4293	1478.8756	1643.073	1809.3141	3047.6724	3071.0569	3092.0095	3113.0463	3113.605	3120.9769	3131.6289	3208.6756
O=C1C=C2CC3CC1C23	O=C1[CH][C]2C[C@H]3C[C@@H]1[C@@H]23	
InChI=1S/C8H8O/c9-7-3-5-1-4-2-6(7)8(4)5/h3-4,6,8H,1-2H2	InChI=1S/C8H8O/c9-7-3-5-1-4-2-6(7)8(4)5/h3-4,6,8H,1-2H2/t4-,6-,8+/m0/s1
