18
gdb 76841	2.62294	1.5595	1.28943	3.7423	71.94	-0.2266	-0.0241	0.2025	1038.6284	0.146367	-439.048101	-439.039617	-439.038672	-439.081378	32.105	
C	-0.9666896795	 1.1365460197	-0.1234996636	-0.42799
C	-0.1257318032	-0.1194015351	 0.004362375	 0.031879
C	 1.0683939657	-0.3239197837	-0.9882377845	 0.06755
O	 1.5137087049	 0.8135605344	-1.6938522873	-0.412163
C	 1.9447415033	-0.5823191157	 0.2607080833	-0.143351
N	 0.7863620714	-0.2710257341	 1.1985087	-0.151149
C	 1.4615833786	 0.9846133908	 1.6656965583	-0.309892
C	 2.6948297052	 0.641448775	 0.8125604713	 0.423965
O	 3.8016716441	 1.0715485881	 0.7067994974	-0.28607
H	-0.3597344196	 2.0192089026	-0.3386334824	 0.134701
H	-1.6885352761	 1.0230026866	-0.9396837292	 0.117125
H	-1.5345918716	 1.312362945	 0.7961462119	 0.132314
H	-0.7817229715	-0.9971735858	-0.0055136002	 0.084046
H	 0.9616461391	-1.1888864467	-1.6548305114	 0.077282
H	 0.9568688354	 0.9322004744	-2.4701278821	 0.291271
H	 2.4425019854	-1.5520126171	 0.3374806958	 0.101455
H	 0.9697490974	 1.9282625365	 1.4119581167	 0.132682
H	 1.6516262007	 0.9751622651	 2.7447820609	 0.136345
51.8829	128.597	204.6038	234.0457	266.2674	293.294	380.8568	409.3177	446.2213	546.5449	554.0465	652.9452	715.6637	771.4652	791.2633	880.5977	918.4796	951.2702	952.9435	1002.1894	1017.2694	1073.9384	1115.956	1147.3569	1157.4117	1171.0921	1186.4725	1191.907	1256.4648	1274.1316	1285.7352	1312.5047	1369.958	1397.3196	1423.465	1452.0197	1487.1207	1509.0469	1908.8036	3015.065	3034.4604	3039.2154	3044.9367	3086.553	3096.3624	3099.5515	3123.9037	3817.0125
CC1C(O)C2N1CC2=O	C[C@H]1[C@@H](O)[C@@H]2N1CC2=O	
InChI=1S/C6H9NO2/c1-3-6(9)5-4(8)2-7(3)5/h3,5-6,9H,2H2,1H3	InChI=1S/C6H9NO2/c1-3-6(9)5-4(8)2-7(3)5/h3,5-6,9H,2H2,1H3/t3-,5+,6+/m0/s1
