21
gdb 86979	6.2645	0.62633	0.60582	4.4266	84.5	-0.24	0.0247	0.2647	1849.2197	0.182549	-383.264758	-383.255063	-383.254119	-383.300337	35.191	
C	-0.3408300194	 1.4039759338	-0.0172686661	-0.391167
C	 0.0060120436	-0.079354101	 0.0788584586	 0.025449
C	 1.1306065054	-0.5431574167	-0.895923474	-0.26509
C	 2.1432789233	-0.4690393215	 0.2701553089	 0.0904
C	 0.9395479295	-0.4468179377	 1.2718748398	-0.256886
N	 3.1538824351	-1.5070541264	 0.3105975414	-0.304184
C	 4.0119075034	-1.4301345743	 1.4880867334	-0.26786
C	 5.006260404	-2.5069099131	 1.4891232287	 0.255367
N	 5.7748063997	-3.3689255332	 1.5045027979	-0.298841
H	 0.5556801708	 2.0329556662	 0.0302013835	 0.114559
H	-0.8513588388	 1.6285341065	-0.9600379409	 0.117238
H	-1.000886031	 1.7075435889	 0.8025131125	 0.116015
H	-0.9121201362	-0.6704245191	 0.0237347861	 0.072488
H	 0.9862967742	-1.5767448639	-1.2273772366	 0.098776
H	 1.3305945533	 0.0752414986	-1.7746029068	 0.104278
H	 2.6637290412	 0.4955115727	 0.2781587774	 0.084925
H	 0.9783111601	 0.256186341	 2.1090271349	 0.095212
H	 0.731486516	-1.4484198373	 1.6637323126	 0.092238
H	 2.715617402	-2.4225436774	 0.2690851515	 0.225809
H	 4.5435677583	-0.4702223514	 1.4716575681	 0.155725
H	 3.4713529654	-1.4703859648	 2.4508627089	 0.13555
42.2441	71.1088	97.4207	134.3986	229.6198	245.2402	306.9258	331.8861	390.2467	418.9642	438.6037	537.2504	691.0729	772.8676	800.1976	815.7592	892.1715	897.6356	934.6733	943.6339	977.3818	1000.9519	1037.5913	1054.727	1089.1438	1135.9385	1153.7151	1192.3454	1214.742	1228.6953	1264.7595	1267.6658	1279.3744	1287.7656	1345.9052	1368.1881	1405.2028	1412.963	1468.6821	1490.1728	1492.6556	1496.5103	1499.2811	1501.6883	2368.0694	2945.0635	3024.4997	3036.9048	3039.577	3046.1717	3048.4744	3062.2415	3091.9539	3095.0575	3097.8138	3106.1136	3509.6362
CC1CC(C1)NCC#N	C[C@H]1C[C@@H](C1)NCC#N	
InChI=1S/C7H12N2/c1-6-4-7(5-6)9-3-2-8/h6-7,9H,3-5H2,1H3	InChI=1S/C7H12N2/c1-6-4-7(5-6)9-3-2-8/h6-7,9H,3-5H2,1H3/t6-,7-
