13
gdb 52466	36.16393	0.37042	0.36751	5.4511	124.01	-0.2455	-0.0946	0.1508	2772.608	0.086502	-382.236313	-382.226517	-382.225573	-382.27439	31.278	
O	 0.0604906128	 0.0547472393	-0.0177151423	-0.220967
C	 0.0060311489	-0.0006013562	 1.190879267	-0.046228
H	 0.9227439893	-0.0581994728	 1.8118633216	 0.105264
C	-1.2137398269	 0.0012529439	 1.9494898126	 0.099998
C	-2.2301654941	 0.0009696747	 2.620468004	-0.394677
C	-3.3539282325	 0.0007299118	 3.3608380663	 0.42275
C	-4.3745235324	 0.000641181	 4.0306138754	 0.334933
C	-5.5014951948	 0.0005044956	 4.7711882531	-0.427433
C	-6.5159293858	 0.0004633383	 5.4368305182	 0.141867
C	-7.728540669	 0.0002303595	 6.2299215667	-0.519281
H	-8.318197729	-0.9041096776	 6.0421236909	 0.168509
H	-8.3557697073	 0.8652366461	 5.9868922111	 0.168347
H	-7.5011198139	 0.0381347162	 7.3010178448	 0.16692
6.2776	46.6778	54.5296	118.8552	141.9275	216.9913	262.8639	339.708	379.8886	405.5783	505.0473	553.1567	643.5274	667.8756	721.2691	847.8637	1016.0007	1042.467	1044.6301	1091.6061	1377.869	1411.5735	1421.3495	1465.1688	1466.6206	1747.759	2206.3869	2297.7635	2337.8216	2921.8795	3026.2093	3091.1392	3091.9033
CC#CC#CC#CC=O	O=CC#CC#CC#CC	
InChI=1S/C8H4O/c1-2-3-4-5-6-7-8-9/h8H,1H3	InChI=1S/C8H4O/c1-2-3-4-5-6-7-8-9/h8H,1H3
