19
gdb 43419	2.26551	1.5836	1.04155	3.9582	85.71	-0.2386	-0.057	0.1816	1173.572	0.160833	-385.908988	-385.900752	-385.899808	-385.942438	31.27	
O	 0.313961115	 0.52254723	 1.3861356254	-0.338099
C	 0.0609290949	 1.3009982129	 0.4776353726	 0.307477
C	-1.3849285047	 1.4501800636	 0.1168260397	-0.142296
C	-2.0826211414	 1.5154372572	-1.0224925903	-0.03824
C	-1.6817919788	 1.4891694603	-2.467445981	-0.255714
C	-0.2061255557	 1.6635318149	-2.8114575406	-0.209842
C	 0.3882129094	 3.0061130205	-2.3143918818	-0.2559
C	 1.313386091	 2.8823019335	-1.1361816103	-0.062074
C	 1.1727586087	 2.1462757835	-0.0279904498	-0.120812
H	-1.9718405297	 1.3750314173	 1.030240913	 0.11624
H	-3.1653748775	 1.5329500341	-0.8953455343	 0.098555
H	-2.0441831721	 0.5395964786	-2.8895170615	 0.120515
H	-2.2665147525	 2.2622171361	-2.9876122723	 0.112529
H	 0.3792074217	 0.8321122835	-2.4062835491	 0.117575
H	-0.1079983799	 1.6050092968	-3.900268733	 0.10305
H	 0.9398673441	 3.4890034067	-3.1260049316	 0.108912
H	-0.4305713717	 3.6957252162	-2.0641948308	 0.125273
H	 2.2472957313	 3.4348628334	-1.2232950751	 0.10342
H	 2.001590968	 2.1192202809	 0.6753368006	 0.109431
47.925	89.306	205.4488	255.2025	282.2035	343.3487	384.5747	492.3098	503.5157	594.6688	649.8541	675.7162	727.3998	781.4279	804.1812	874.2775	880.9576	891.6497	1011.384	1020.0532	1026.4997	1027.3789	1063.3601	1083.3919	1194.136	1196.829	1244.6172	1269.9861	1289.9938	1323.1724	1369.5688	1373.5488	1405.9975	1420.6786	1430.2179	1462.62	1479.2462	1494.6268	1696.6682	1706.2323	1717.7767	2996.3131	3011.9148	3016.3572	3046.4391	3073.5289	3088.5425	3116.7906	3136.8498	3151.801	3167.0318
O=C1C=CCCCC=C1	O=C1C=CCCCC=C1	
InChI=1S/C8H10O/c9-8-6-4-2-1-3-5-7-8/h4-7H,1-3H2/b6-4-,7-5-	InChI=1S/C8H10O/c9-8-6-4-2-1-3-5-7-8/h4-7H,1-3H2/b6-4-,7-5-
