19
gdb 84074	2.35788	1.50667	0.99135	2.8628	77.82	-0.247	-0.0258	0.2212	1212.7144	0.157348	-423.062858	-423.053463	-423.052518	-423.096993	34.753	
C	-0.2201467154	 1.5878456771	-0.0476034738	-0.399523
C	 0.0983880663	 0.0884820388	-0.0365897334	-0.202498
C	 0.7847238455	-0.4803724876	-1.2722980456	 0.315502
C	 0.2850496053	-0.1807971527	-2.6499993677	-0.492124
C	 1.8239302754	-1.2622851994	-0.9547709864	-0.2053
C	 2.0067403956	-1.420799359	 0.5296579402	 0.020506
O	 3.3328258953	-1.2810495218	 0.9864121489	-0.442161
C	 1.1019152734	-0.2957534649	 1.0538427865	 0.355127
O	 1.2792425526	 0.257277041	 2.1100049893	-0.324741
H	 0.6680435667	 2.1739156887	-0.3033420574	 0.126939
H	-1.0068822467	 1.8216069419	-0.7699434756	 0.117968
H	-0.5543853182	 1.9029949678	 0.9439264304	 0.140091
H	-0.8352972211	-0.4642986373	 0.1587874014	 0.109754
H	 0.2971326057	 0.8964386323	-2.8534967586	 0.135533
H	 0.8935403081	-0.6781257505	-3.409800547	 0.129586
H	-0.7546497356	-0.5101623336	-2.7747968796	 0.128431
H	 2.4525401464	-1.7815791024	-1.6692851346	 0.103917
H	 1.5903079288	-2.3899341674	 0.8674615117	 0.090868
H	 3.2720584721	-0.8044650109	 1.8264257712	 0.292126
56.6357	143.0849	185.815	199.4788	210.3194	236.8626	294.5091	313.8009	351.0015	420.7049	495.4202	555.8267	579.0729	627.357	704.0895	787.6512	826.4599	883.1107	988.3151	1002.1765	1027.2102	1038.3222	1055.3752	1093.0587	1117.4334	1157.7908	1178.7482	1232.6731	1268.5949	1304.3899	1333.5942	1351.1814	1402.5632	1408.9866	1417.0668	1477.2022	1483.7826	1495.779	1500.1671	1704.08	1842.0657	2907.5437	2974.1525	3020.7783	3044.8976	3070.8515	3114.4575	3115.9601	3127.6681	3198.5051	3741.3758
CC1C(C)=CC(O)C1=O	C[C@H]1C(=C[C@@H](O)C1=O)C	
InChI=1S/C7H10O2/c1-4-3-6(8)7(9)5(4)2/h3,5-6,8H,1-2H3	InChI=1S/C7H10O2/c1-4-3-6(8)7(9)5(4)2/h3,5-6,8H,1-2H3/t5-,6+/m0/s1
