15
gdb 24903	4.91346	1.29909	1.03588	2.8097	73.7	-0.194	0.0019	0.1959	1079.0325	0.115407	-416.833386	-416.826511	-416.825567	-416.864632	27.117	
N	-0.1117696771	 1.2431186767	-0.078741643	-0.530834
C	-0.0066403115	-0.017792636	 0.015596036	 0.372273
C	-1.2350294759	-0.9647586142	 0.0253835968	-0.422301
C	-0.5418453926	-2.2783823615	-0.0643954341	 0.298406
C	 0.8032736141	-2.1561834463	-0.0123084566	 0.272008
N	 1.1630836935	-0.8015340333	 0.1247767154	-0.45009
C	 1.3485881782	-3.4739053992	 0.0015016968	-0.34354
C	 0.2518113409	-4.2918056806	-0.0476163854	-0.009894
O	-0.9146872198	-3.5800044109	-0.0735007338	-0.192528
H	 0.8017754971	 1.7006392459	-0.0683044534	 0.206758
H	-1.8047931399	-0.8217924956	 0.9515103968	 0.148578
H	-1.9013829408	-0.7156897867	-0.8061188251	 0.14927
H	 2.0324435337	-0.433839774	-0.2296055073	 0.247482
H	 2.3783210082	-3.7917906786	 0.0325947527	 0.116066
H	 0.141264082	-5.3626107657	-0.0820419758	 0.138348
110.5819	177.5125	318.2863	336.8567	388.1964	525.0001	544.2725	556.8495	605.262	683.3489	714.4989	733.7179	800.4567	824.761	835.0769	860.7856	926.1407	968.3175	1053.769	1062.0502	1123.6965	1144.0768	1164.0578	1235.3102	1277.6737	1310.5461	1330.2662	1400.0672	1463.9748	1503.6772	1518.435	1660.9757	1751.3062	3039.1049	3080.3565	3260.4313	3289.5517	3453.6941	3624.9339
N=C1CC2=C(N1)C=CO2	[NH][C]1Cc2c(N1)cco2	
InChI=1S/C6H6N2O/c7-6-3-5-4(8-6)1-2-9-5/h1-2H,3H2,(H2,7,8)	InChI=1S/C6H6N2O/c7-6-3-5-4(8-6)1-2-9-5/h1-2H,3H2,(H2,7,8)
