16
gdb 70043	4.08392	1.16128	1.00589	5.4423	77.32	-0.2441	-0.0463	0.1978	1170.0978	0.125003	-396.940122	-396.93216	-396.931215	-396.972402	30.351	
C	-0.043485731	 1.5163232133	-0.0553084574	-0.497185
C	 0.0229629731	 0.0161461379	 0.0166591828	 0.336927
C	-0.8236142019	-0.8141504256	 0.9366860901	-0.327991
C	 0.682720422	-0.8543218113	 1.1206396803	-0.059957
N	 1.4089894752	-1.9020333592	 0.4684598617	-0.276527
C	 1.2177519289	-1.7472315589	-0.7961711129	 0.252082
N	 0.4045763714	-0.694669543	-1.1866158141	-0.379199
C	 1.7807264982	-2.6077027777	-1.7959991207	 0.257162
N	 2.2300534876	-3.2654894557	-2.6337262058	-0.322362
H	 0.9009271493	 1.9421482161	-0.4116866031	 0.129025
H	-0.8465367601	 1.8485166854	-0.7234977302	 0.134113
H	-0.2482182278	 1.9327523343	 0.9342749735	 0.137465
H	-1.3724230222	-0.2796358848	 1.7042790053	 0.122942
H	-1.3192733779	-1.694952654	 0.5423585252	 0.129192
H	 1.1119560312	-0.4720876631	 2.0400183074	 0.105362
H	 0.6159622438	-0.1845843437	-2.0321511722	 0.258949
117.4062	155.4024	191.8537	232.3095	313.3142	366.8635	393.4189	466.6168	524.5055	545.8531	574.0293	633.4097	693.9524	739.0085	808.8692	879.8176	955.8461	981.3312	989.3447	1030.5961	1053.9366	1101.1979	1105.8713	1153.5637	1215.4478	1280.9448	1303.8545	1371.2638	1420.0052	1447.1393	1481.6294	1485.5169	1500.4771	1622.3654	2361.6843	3029.2334	3089.8349	3119.5314	3130.3926	3172.2165	3224.0909	3606.0166
CC12CC1N=C(N2)C#N	C[C@]12C[C@H]1N=C(N2)C#N	
InChI=1S/C6H7N3/c1-6-2-4(6)8-5(3-7)9-6/h4H,2H2,1H3,(H,8,9)	InChI=1S/C6H7N3/c1-6-2-4(6)8-5(3-7)9-6/h4H,2H2,1H3,(H,8,9)/t4-,6+/m1/s1
