18
gdb 9832	3.78542	1.55283	1.22336	1.6219	69.27	-0.2658	0.0172	0.283	1030.0328	0.152412	-384.970167	-384.961365	-384.960421	-385.003672	31.588	
C	 0.2412933254	 1.3711750133	 0.0972777236	-0.240383
O	 0.3467392893	-0.056753259	 0.0696787704	-0.2393
C	 0.4893239457	-0.598632138	-1.1584551062	 0.425529
O	 0.5268515618	 0.062779146	-2.1703310537	-0.387167
C	 0.5923117916	-2.0883658036	-1.1022439663	 0.187644
C	 0.5271330586	-2.7640604869	 0.2520339783	-0.466213
C	-0.0061267459	-2.7944581233	-2.3125278197	-0.278377
C	 1.4783648596	-2.6871296439	-2.1875367747	-0.278374
H	 1.1364045988	 1.8325547415	-0.3274161522	 0.140226
H	-0.6278938093	 1.7051089649	-0.474978796	 0.140198
H	 0.1339226739	 1.6403774035	 1.1482307393	 0.130921
H	-0.4190388231	-2.5532422885	 0.7589105017	 0.125939
H	 0.6152667443	-3.8485700744	 0.1364916509	 0.110177
H	 1.3358556484	-2.4263742615	 0.9066690851	 0.125938
H	-0.4789031984	-3.7525266769	-2.1267014003	 0.115202
H	-0.4924340871	-2.1672969849	-3.0497612886	 0.136417
H	 1.9858868952	-1.9881107338	-2.8410908198	 0.136421
H	 2.0455754112	-3.5700098746	-1.9141526918	 0.115202
56.9189	115.5713	155.9077	196.8241	215.9469	301.6594	319.1346	334.8362	363.3249	450.338	565.5877	770.5633	786.6844	793.2707	851.2826	890.6891	963.7326	963.7918	1024.3181	1060.4384	1081.726	1091.7486	1122.464	1179.7614	1193.5069	1203.9225	1220.9012	1323.56	1351.9249	1423.4009	1453.6103	1472.2008	1480.9309	1486.3112	1488.4537	1497.2656	1503.6355	1797.7038	3040.2855	3051.5989	3109.7334	3109.8716	3126.0008	3139.2711	3141.9444	3156.8676	3229.1856	3242.5823
COC(=O)C1(C)CC1	COC(=O)C1(C)CC1	
InChI=1S/C6H10O2/c1-6(3-4-6)5(7)8-2/h3-4H2,1-2H3	InChI=1S/C6H10O2/c1-6(3-4-6)5(7)8-2/h3-4H2,1-2H3
