17
gdb 40377	3.69451	1.28914	1.1737	3.3423	71.42	-0.2399	0.0437	0.2837	1084.9462	0.134514	-421.709673	-421.70226	-421.701316	-421.741909	29.194	
C	-0.000312339	 1.4995915405	-0.1793391568	-0.280297
C	 1.3134790366	 0.8037449348	 0.0484495081	-0.265583
C	 0.030377763	 0.0017431447	 0.0260817624	-0.124604
C	-0.4859861851	-0.5966551474	 1.2711640392	 0.442112
O	-0.2855769301	-1.9884627789	 1.5307055122	-0.266101
C	-1.6180297622	-1.4737554257	 1.585425309	-0.124535
C	-1.8047938907	-0.7526963625	 2.9786973682	-0.010593
O	-0.5844014371	-0.8683162491	 3.706775129	-0.210596
C	-0.6712920774	 0.1212313461	 2.684878293	-0.075186
H	-0.394451169	 2.1203314113	 0.6180126505	 0.116878
H	-0.2314630156	 1.8631304862	-1.1740308514	 0.119916
H	 1.9945294742	 0.6893776426	-0.7868231027	 0.121265
H	 1.8017889623	 0.9406785169	 1.0071995777	 0.124363
H	-0.1404123578	-0.6150467434	-0.8505949845	 0.096841
H	-2.3783648891	-1.9285932673	 0.9621785646	 0.110465
H	-2.7239996836	-0.5797502634	 3.5238814873	 0.113369
H	-0.4751205492	 1.1535061847	 2.9475759441	 0.112283
67.465	145.8467	165.3402	345.3729	386.4675	427.6428	497.8211	562.1464	686.2348	759.6368	777.8176	799.9171	822.1045	831.8146	855.4352	886.3707	902.7868	911.3102	959.8625	983.3852	988.6402	1026.4374	1033.6932	1064.5269	1080.8246	1128.0287	1180.2861	1195.192	1198.4086	1219.6505	1239.1095	1266.052	1337.2152	1370.8843	1470.2631	1487.6691	1516.1412	3136.7055	3140.6163	3158.4516	3186.7039	3192.8388	3205.9251	3215.204	3230.5647
C1CC1C12OC1C1OC21	C1CC1[C@]12O[C@H]1[C@H]1O[C@@H]21	
InChI=1S/C7H8O2/c1-2-3(1)7-5-4(8-5)6(7)9-7/h3-6H,1-2H2	InChI=1S/C7H8O2/c1-2-3(1)7-5-4(8-5)6(7)9-7/h3-6H,1-2H2/t4-,5+,6-,7+/m0/s1
