16
gdb 127508	2.6738	1.28303	0.92689	2.7932	69.32	-0.23	-0.0042	0.2258	1240.7037	0.124645	-471.20338	-471.194314	-471.193369	-471.23853	31.534	
C	 0.0260978001	 1.3349741094	 0.0132117141	-0.309533
N	 0.0596118547	-0.1103381748	-0.0020190196	 0.144178
N	 0.1953009009	-0.8023522039	-1.1412694238	-0.345709
C	 0.1648595825	-2.0642482418	-0.7284517635	 0.317702
O	 0.2651790411	-3.1168539176	-1.5578758563	-0.421325
C	 0.0016525122	-2.1078750489	 0.6696232956	 0.194305
C	-0.0363904868	-3.2715844753	 1.6063440309	-0.166916
O	 1.257947844	-3.6931160033	 2.0278091582	-0.413343
N	-0.060324564	-0.8387960427	 1.0942209777	-0.286706
H	 0.9530066152	 1.738226033	-0.4031705212	 0.150758
H	-0.8184889016	 1.7010224165	-0.57694541	 0.15072
H	-0.0830200692	 1.6459058116	 1.0511729743	 0.162675
H	 0.3512466943	-2.7769090754	-2.4569573243	 0.309308
H	-0.6731348684	-3.0164438289	 2.4648988833	 0.105133
H	-0.4765478776	-4.1370500903	 1.1036646881	 0.125428
H	 1.6801553328	-2.9331092975	 2.4421475765	 0.283326
37.2842	54.5244	132.4554	184.8988	220.8912	294.1652	326.8569	352.8417	375.3151	466.3476	529.2248	647.6491	660.2787	683.526	789.1976	842.4747	965.9579	1025.29	1045.5542	1078.3897	1149.8484	1193.1416	1205.3516	1306.0547	1352.4117	1369.9225	1383.7537	1427.4659	1443.4437	1449.8563	1475.827	1493.9262	1512.0452	1567.2993	1603.0009	3010.0589	3052.8977	3097.0611	3117.0334	3174.4539	3803.3417	3811.5978
CN1N=C(O)C(CO)=N1	Cn1nc(O)c(CO)n1	
InChI=1S/C4H7N3O2/c1-7-5-3(2-8)4(9)6-7/h8H,2H2,1H3,(H,6,9)	InChI=1S/C4H7N3O2/c1-7-5-3(2-8)4(9)6-7/h8H,2H2,1H3,(H,6,9)
