20
gdb 107166	4.61293	1.03239	0.96809	2.6546	78.84	-0.2238	0.0641	0.2878	1287.3339	0.17075	-403.058401	-403.049924	-403.04898	-403.091125	33.316	
C	 0.1153342304	 1.4388735245	-0.085256326	-0.424396
C	 0.0394882308	-0.0742577985	-0.0200236643	-0.036941
C	 1.3608860928	-0.7899357127	-0.0763594798	-0.007408
C	 0.5957544195	-0.7133310102	 1.2267771186	-0.148592
C	 0.5635642517	-2.2569531842	 1.1930950195	 0.274744
C	 1.0582930229	-3.091910869	 2.3515388433	-0.141331
O	 1.6229355484	-4.3025788735	 1.8963998712	-0.41562
C	-0.0153047763	-2.8464974719	-0.0294642417	-0.286825
N	 1.3686935958	-2.3070065764	-0.0842854926	-0.209396
H	 1.0243219883	 1.8132947565	 0.3972963535	 0.119837
H	 0.1200999779	 1.7865729977	-1.1234409343	 0.124247
H	-0.7415500332	 1.8960241439	 0.4205647596	 0.123627
H	-0.8449403098	-0.4809524624	-0.4997128625	 0.085424
H	 2.2741450954	-0.3002864977	-0.3916921435	 0.102158
H	 0.8148610295	-0.1504426797	 2.1252584876	 0.091184
H	 1.7861091354	-2.4972410996	 2.9301853342	 0.08642
H	 0.2354939026	-3.3506764773	 3.0287514789	 0.111365
H	 2.1901534392	-4.0553747524	 1.1514631141	 0.294913
H	-0.0107398426	-3.9305654704	-0.0796615647	 0.133775
H	-0.8169818288	-2.3763204166	-0.5850647413	 0.122815
100.3525	164.5459	193.3168	232.587	255.5947	293.0866	342.9104	431.6106	477.2449	521.6501	587.015	646.4639	717.6269	780.5799	818.9327	837.6799	875.7363	915.7171	937.2365	983.1694	1023.3996	1031.0982	1042.6872	1068.6075	1088.9476	1095.892	1115.7596	1145.6841	1148.4971	1179.0267	1214.651	1225.8447	1273.5681	1285.7861	1357.9319	1385.9272	1415.4597	1423.4289	1443.4563	1496.1834	1498.7965	1506.5256	1509.8836	2955.3791	3031.4199	3052.1524	3097.6741	3099.719	3136.3558	3155.1584	3181.0622	3193.6495	3226.952	3731.093
CC1C2C1C1(CO)CN21	C[C@H]1[C@H]2[C@@H]1[C@@]1(CO)CN21	
InChI=1S/C7H11NO/c1-4-5-6(4)8-2-7(5,8)3-9/h4-6,9H,2-3H2,1H3	InChI=1S/C7H11NO/c1-4-5-6(4)8-2-7(5,8)3-9/h4-6,9H,2-3H2,1H3/t4-,5-,6+,7+,8?/m1/s1
