22
gdb 101637	2.70546	0.82116	0.7379	4.8676	83.01	-0.2784	0.0379	0.3162	1667.8227	0.191997	-404.377183	-404.366176	-404.365232	-404.413807	39.346	
C	 0.0295990649	 1.5799641308	 0.1442776479	-0.382409
C	-0.1271136323	 0.0687542856	-0.0415857361	-0.197065
C	 0.6316339155	-0.4704696523	-1.2590207198	 0.122408
O	 2.0281285509	-0.1781559967	-1.1853912734	-0.427924
C	 0.4037851498	-1.9741587137	-1.4646336064	-0.20866
C	 1.1023522299	-2.5303527274	-2.7252913138	-0.123238
C	 1.087275714	-4.0694141458	-2.7766221849	-0.401906
C	 0.4881318953	-1.9737427312	-3.9362499288	 0.273688
N	-0.013028006	-1.5410523955	-4.8841005121	-0.335642
H	 1.0850086687	 1.8548113244	 0.218801937	 0.126227
H	-0.3937204037	 2.1242234809	-0.706631758	 0.122792
H	-0.4814209881	 1.92183852	 1.0489862714	 0.112219
H	 0.228183976	-0.4605413097	 0.8558414376	 0.084588
H	-1.1878729104	-0.1906300915	-0.1450382567	 0.103765
H	 0.2909867536	 0.0638905745	-2.1549436577	 0.11344
H	 2.3535809379	-0.5191779683	-0.3440324451	 0.277362
H	 0.7962435962	-2.5177702328	-0.5944481241	 0.090785
H	-0.6702577963	-2.1865143555	-1.5144082913	 0.114029
H	 2.1398997896	-2.1773333827	-2.7033589211	 0.139838
H	 1.5908262478	-4.438836753	-3.6733040071	 0.13801
H	 1.6018822021	-4.4733733559	-1.9000609451	 0.122295
H	 0.0620456946	-4.4508380741	-2.7801342623	 0.135397
53.4026	66.1199	117.8303	124.6713	188.3016	218.1387	224.5295	271.0553	279.0806	314.6849	327.4134	371.6839	466.7864	528.7576	565.475	598.1312	777.5027	784.6651	851.6679	901.7045	942.4907	977.63	1012.0873	1053.0577	1067.4528	1092.6333	1116.232	1131.4932	1169.5021	1197.7265	1263.7207	1278.9755	1314.6406	1350.0937	1366.4217	1376.5648	1394.2231	1408.7378	1414.8288	1422.6549	1470.9885	1484.9502	1493.5288	1496.4272	1501.5878	1508.7354	2353.0498	2995.0773	3016.3755	3040.0794	3041.3587	3045.1164	3050.5048	3055.0637	3077.6364	3106.8904	3119.8752	3122.3851	3126.6337	3787.8765
CCC(O)CC(C)C#N	CC[C@@H](O)C[C@@H](C)C#N	
InChI=1S/C7H13NO/c1-3-7(9)4-6(2)5-8/h6-7,9H,3-4H2,1-2H3	InChI=1S/C7H13NO/c1-3-7(9)4-6(2)5-8/h6-7,9H,3-4H2,1-2H3/t6-,7-/m1/s1
