13
gdb 124355	2.89834	1.62465	1.0478	2.0898	63.44	-0.2701	-0.0716	0.1985	1045.8759	0.087415	-486.037689	-486.029755	-486.028811	-486.070828	28.021	
C	-0.0290218091	 1.5102194412	-0.0921928135	-0.490869
C	-0.0223684495	 0.0125863674	 0.0932567188	 0.426696
O	-0.0368885018	-0.5637055758	 1.1426333352	-0.261663
N	 0.0036956646	-0.7312864537	-1.1281392498	-0.153095
N	 0.0207984814	-0.1045997398	-2.3385472759	-0.038354
N	 0.041932925	-0.9394503992	-3.2572399726	 0.023156
O	 0.041019718	-2.2385948999	-2.7019061179	-0.24204
C	 0.0163045051	-2.1242071091	-1.3270475799	 0.528655
N	 0.007385762	-3.03883541	-0.4692538554	-0.530166
H	 0.8578404309	 1.8405161072	-0.6396067342	 0.164816
H	-0.9002916985	 1.8289259239	-0.6706288261	 0.164818
H	-0.0494616542	 1.9636506854	 0.8978681251	 0.159117
H	 0.0211875159	-3.9545663077	-0.9141548038	 0.248928
68.618	119.0723	148.4434	200.9247	231.3677	345.9235	447.0493	505.2351	574.7542	637.929	652.9893	716.4113	761.5668	794.8172	807.4132	957.4976	983.641	1016.2401	1057.0445	1114.0557	1195.4599	1248.7246	1348.1905	1397.2807	1461.1336	1473.0019	1561.5866	1789.834	1864.9884	3061.2075	3127.9687	3173.7422	3526.4845
CC(=O)N1N=NOC1=N	CC(=O)N1N=NO[C@H]1[NH]	
InChI=1S/C3H4N4O2/c1-2(8)7-3(4)9-6-5-7/h4H,1H3	InChI=1S/C3H5N4O2/c1-2(8)7-3(4)9-6-5-7/h3-4H,1H3/t3-/m0/s1
