19
gdb 37522	3.60771	1.88983	1.65994	1.5166	76.72	-0.232	0.0956	0.3276	869.6544	0.164088	-385.865095	-385.859327	-385.858383	-385.894892	25.52	
C	-0.0677470341	 1.5904176907	-0.0425322947	-0.24689
C	 1.4654121844	 1.5114720308	 0.0188080505	-0.050797
C	 1.3655258728	 0.1802058767	 0.8395843256	-0.075741
C	 2.4639847026	-0.4577075938	-0.035759196	 0.141418
O	 2.2657174066	-1.7920078459	-0.453444661	-0.282363
C	 1.1681444642	-1.7608062671	-1.3780735329	-0.093125
C	 0.6637604787	-0.3144249368	-1.3587732498	-0.041565
C	 0.0217690241	 0.0442597212	 0.0005655444	-0.036223
C	 1.9516095954	 0.5302076152	-1.1134588525	-0.093073
H	-0.4849368505	 2.0098573447	 0.8778855642	 0.097433
H	-0.5481298028	 2.0542766368	-0.9112728764	 0.08777
H	 2.1115715997	 2.3459201892	 0.2857575256	 0.066471
H	 1.3161144578	 0.1251568145	 1.9257217005	 0.064863
H	 3.4836429647	-0.333983201	 0.3321117034	 0.077428
H	 1.5219050137	-2.0620679444	-2.3743722465	 0.092839
H	 0.3991919363	-2.4758840239	-1.0595009958	 0.098323
H	 0.0566023164	-0.0483921382	-2.2263862038	 0.066626
H	-0.810082888	-0.5739087428	 0.3394507559	 0.062359
H	 2.5504218679	 0.8413319141	-1.967808601	 0.064246
214.7099	335.0927	383.3637	465.4227	617.8513	630.1448	762.491	786.9692	798.5015	815.1404	826.0546	868.8232	897.7386	917.9309	941.5782	947.0366	969.381	987.5691	1001.6197	1010.6439	1020.8156	1066.2966	1073.0295	1097.135	1117.7973	1143.4097	1166.0964	1180.1215	1207.1953	1210.02	1230.4127	1248.2963	1260.1169	1281.7147	1283.4276	1308.141	1327.34	1337.6881	1399.2749	1496.7891	1524.6755	2998.1347	3035.1834	3040.8347	3090.8721	3095.3269	3108.0429	3108.5894	3123.7179	3129.2142	3138.4875
C1C2C3C4OCC(C13)C24	C1[C@H]2[C@@H]3[C@H]4OC[C@@H]([C@H]13)[C@@H]24	
InChI=1S/C8H10O/c1-3-5-2-9-8-6(3)4(1)7(5)8/h3-8H,1-2H2	InChI=1S/C8H10O/c1-3-5-2-9-8-6(3)4(1)7(5)8/h3-8H,1-2H2/t3-,4-,5-,6+,7+,8+/m0/s1
