19
gdb 126575	3.08053	1.01827	0.81495	3.8233	78.33	-0.2142	0.0026	0.2168	1434.2619	0.159473	-419.205367	-419.19607	-419.195126	-419.24007	33.841	
C	-0.0598991532	 1.5754218015	-0.0281815379	-0.379022
C	-0.084650707	 0.0461578608	-0.0738510238	-0.168504
C	 0.7870882984	-0.5258689911	-1.209047949	-0.308137
C	 0.7662559856	-2.0216243079	-1.2772734055	 0.366054
N	 1.7561926228	-2.7342840637	-0.7910830753	-0.209583
O	 1.4259123802	-4.0601623036	-1.0049862003	-0.172326
C	 0.2209581818	-4.1170175629	-1.6133264473	 0.002054
C	-0.2591818715	-2.8620040591	-1.8223980894	 0.049866
N	-1.4074993784	-2.4274247963	-2.4993694187	-0.611319
H	 0.9590582147	 1.9476088726	 0.1236455704	 0.122007
H	-0.433284146	 2.0078412657	-0.9632086332	 0.114999
H	-0.6798799215	 1.9583465703	 0.7880803369	 0.115259
H	 0.2675695285	-0.3650152621	 0.8790200457	 0.118208
H	-1.1208000707	-0.3009540194	-0.1867262793	 0.087554
H	 0.4482501044	-0.1200405645	-2.1710481974	 0.112725
H	 1.8230492525	-0.2018893123	-1.068924337	 0.127518
H	-0.1502691827	-5.1034229468	-1.8417676986	 0.134707
H	-2.0768923004	-3.1696863302	-2.6556965908	 0.247476
H	-1.8711014876	-1.6588193008	-2.0314908196	 0.250464
64.2866	80.3961	114.8498	183.7041	236.1474	251.5473	286.0673	316.9547	409.9517	440.1282	602.8682	652.3681	718.4205	741.488	745.9872	771.3282	801.5043	871.1823	900.4495	926.9447	962.6219	1043.9493	1095.5512	1111.6811	1120.5445	1142.9213	1239.04	1264.9709	1306.161	1319.0956	1322.7702	1382.585	1414.4631	1462.3345	1477.1658	1490.1194	1500.4533	1508.7962	1529.9494	1647.8365	1682.7147	3014.2979	3027.4418	3032.0059	3059.919	3088.7896	3101.2863	3106.1545	3266.7749	3536.6116	3624.9074
CCCC1=NOC=C1N	CCCc1nocc1N	
InChI=1S/C6H10N2O/c1-2-3-6-5(7)4-9-8-6/h4H,2-3,7H2,1H3	InChI=1S/C6H10N2O/c1-2-3-6-5(7)4-9-8-6/h4H,2-3,7H2,1H3
