21
gdb 91166	2.32946	1.74721	1.45078	1.5312	81.42	-0.2396	0.0187	0.2583	1028.4091	0.184827	-387.101547	-387.093651	-387.092707	-387.13327	32.626	
C	-0.1898383506	 1.5197268323	-0.0312915027	-0.417017
C	 0.0398548426	 0.0091647377	-0.0196250363	 0.041152
C	 0.912185292	-0.530641097	-1.2016123962	-0.250418
C	 2.031646955	-1.3544036342	-0.4827716063	-0.095986
C	 2.8924236284	-0.3646088935	 0.2719125003	-0.081969
C	 2.1658453717	 0.1176699705	 1.2891859013	-0.077853
C	 0.8040223121	-0.5399210328	 1.236711227	-0.10578
C	 1.2346587776	-1.9470605546	 0.7186525731	 0.168121
O	 0.2168317526	-2.8711435861	 0.4249842295	-0.452454
H	 0.7597890022	 2.0632841034	-0.011030779	 0.119802
H	-0.7307275758	 1.8264692068	-0.9330083085	 0.111309
H	-0.7810212703	 1.8384318841	 0.8345114276	 0.110091
H	-0.9452985836	-0.4752195047	-0.0407292125	 0.061435
H	 0.3304679601	-1.1630758871	-1.8824231917	 0.088748
H	 1.3358594584	 0.2769116174	-1.8039419161	 0.102182
H	 2.5533036325	-2.0674523202	-1.1220476024	 0.062077
H	 3.8958797871	-0.0750634299	-0.0150260289	 0.093753
H	 2.4609711813	 0.8784735101	 2.0009042266	 0.094591
H	 0.2160593217	-0.5177945298	 2.1555592255	 0.058858
H	 1.8944564022	-2.4489044591	 1.4297127784	 0.086471
H	-0.3711527272	-2.4966244636	-0.2379203089	 0.282886
146.418	236.3525	250.2831	255.0303	278.0564	346.6899	382.073	459.7615	520.5887	569.2692	654.3389	726.4093	742.2634	794.9001	830.7677	839.825	873.9439	932.612	946.3811	954.3478	963.5876	983.0879	1019.2801	1055.8861	1084.1415	1099.3007	1113.294	1127.4418	1172.058	1182.923	1222.3785	1250.1434	1256.5534	1287.2335	1297.6979	1302.2265	1335.4606	1364.9658	1383.8414	1409.7922	1430.069	1496.9838	1501.2496	1504.841	1637.7932	3003.2661	3028.689	3036.6553	3089.712	3093.5809	3095.192	3103.9325	3106.3019	3110.9703	3193.0032	3217.7484	3827.8818
CC1CC2C=CC1C2O	C[C@H]1C[C@H]2C=C[C@@H]1[C@H]2O	
InChI=1S/C8H12O/c1-5-4-6-2-3-7(5)8(6)9/h2-3,5-9H,4H2,1H3	InChI=1S/C8H12O/c1-5-4-6-2-3-7(5)8(6)9/h2-3,5-9H,4H2,1H3/t5-,6+,7-,8-/m0/s1
