19
gdb 52120	3.85341	0.94789	0.89443	2.7972	76.9	-0.2401	0.03	0.2701	1350.0008	0.160274	-419.187311	-419.178691	-419.177747	-419.22187	31.704	
O	 0.121850913	 0.2219404006	-0.8611182771	-0.324256
C	 0.1290541537	 1.1835457078	-0.1214328169	 0.154639
N	 1.2127194566	 1.6465678212	 0.555601312	-0.272828
C	 2.5310221657	 1.038868127	 0.4720801551	-0.263625
C	 3.5771882732	 2.0396380356	 0.0667353605	 0.341392
C	 4.8880602224	 2.1565060203	 0.7346320653	-0.286112
N	 3.9081566993	 3.2391178803	 0.9549575651	-0.176703
C	 3.9712788677	 4.0813315487	-0.2948337458	-0.149629
C	 3.5346082531	 2.8991396066	-1.197820179	-0.303155
H	-0.771561869	 1.7970455734	 0.0804360289	 0.074898
H	 1.114333195	 2.4604559382	 1.1428351498	 0.257269
H	 2.8026803342	 0.5937086945	 1.437332679	 0.113356
H	 2.4553585864	 0.2302348683	-0.2605954326	 0.15354
H	 5.0592231992	 1.5524250395	 1.6206861295	 0.120971
H	 5.7827133124	 2.3674927184	 0.1513201671	 0.112594
H	 3.2429540974	 4.8925092793	-0.2380485271	 0.110817
H	 4.9630041353	 4.5079277044	-0.4775948625	 0.107981
H	 4.1943669588	 2.596166123	-2.0154456756	 0.107071
H	 2.5229217356	 3.0222897427	-1.5881031556	 0.12178
37.0925	58.2718	145.4535	230.1663	241.7055	286.8008	341.2672	475.4278	506.4392	576.4938	635.4872	733.3522	773.3707	776.1752	807.609	878.894	933.6873	947.5041	979.8211	1012.812	1034.047	1040.1817	1094.0735	1103.816	1130.395	1195.3179	1205.3549	1220.9672	1227.2619	1259.8608	1287.6116	1339.0261	1347.6514	1414.6269	1429.0723	1477.9341	1487.004	1495.3363	1519.3599	1527.3605	1804.1098	2935.1088	3027.1899	3048.7989	3063.7196	3099.5009	3103.7805	3106.5577	3127.5082	3192.8339	3628.9825
O=CNCC12CN1CC2	O=CNC[C@]12CN1CC2	
InChI=1S/C6H10N2O/c9-5-7-3-6-1-2-8(6)4-6/h5H,1-4H2,(H,7,9)	InChI=1S/C6H10N2O/c9-5-7-3-6-1-2-8(6)4-6/h5H,1-4H2,(H,7,9)/t6-,8?/m1/s1
