17
gdb 53020	4.89514	0.95125	0.90733	1.8045	82.72	-0.2308	0.0241	0.2549	1342.2316	0.134835	-384.59611	-384.587982	-384.587038	-384.630248	30.3	
C	-0.0937249371	 1.4874617371	 0.0543197158	-0.517433
C	-0.0137992845	 0.036595597	 0.0007501716	 0.420118
C	 0.0427281628	-1.1660147285	-0.0417988419	-0.408216
C	 0.1383988522	-2.590802797	-0.1007309661	 0.368044
C	 1.2761399229	-3.4089624738	 0.5877195155	-0.267778
C	 0.9002537974	-4.520881994	-0.3864264186	-0.14439
C	-0.6209190478	-4.3698992747	-0.5668345548	 0.09813
O	-1.0699219315	-3.3283523751	 0.2954659182	-0.33378
C	 0.2972203134	-3.5297886607	-1.3768186924	-0.200689
H	 0.5445908287	 1.8943958857	 0.8461206599	 0.152289
H	 0.222380876	 1.9360550478	-0.8939209364	 0.152518
H	-1.1202427963	 1.8156340575	 0.2506732879	 0.157149
H	 2.2578689885	-2.9871473569	 0.3625015676	 0.111486
H	 1.1553140688	-3.5703782027	 1.6630133039	 0.104334
H	 1.4289287745	-5.4399406905	-0.6021871434	 0.094453
H	-1.3025812594	-5.1681673541	-0.8264105515	 0.109662
H	 0.4324824413	-3.3422378973	-2.4324334253	 0.1041
24.3329	95.0797	99.0573	287.7517	306.7131	423.9819	440.7938	484.2777	530.8764	564.5913	759.5206	764.5358	782.7227	809.687	864.4534	903.5782	959.4366	965.8937	997.4144	1007.2082	1029.0251	1041.6476	1052.5182	1055.1083	1059.89	1079.8505	1144.864	1168.2215	1240.0325	1272.6423	1351.383	1367.3098	1413.6039	1474.7135	1476.5758	1485.5106	2370.1074	3028.729	3055.7117	3090.5207	3092.5023	3124.2032	3203.5674	3209.8613	3225.7677
CC#CC12CC3C(O1)C23	CC#C[C@@]12C[C@H]3[C@@H](O1)[C@@H]23	
InChI=1S/C8H8O/c1-2-3-8-4-5-6(8)7(5)9-8/h5-7H,4H2,1H3	InChI=1S/C8H8O/c1-2-3-8-4-5-6(8)7(5)9-8/h5-7H,4H2,1H3/t5-,6+,7-,8+/m1/s1
