20
gdb 111510	2.82227	1.45156	1.21828	2.8773	74.64	-0.2349	0.0674	0.3023	1101.7661	0.172316	-440.257079	-440.248762	-440.247818	-440.289736	32.491	
C	-0.2673040305	 1.2608615908	-0.0505685909	-0.239229
O	 0.2177307543	-0.0602072686	 0.0761577461	-0.244591
C	 0.7378801887	-0.5972687064	-1.1117839241	 0.141558
C	 1.2506712065	-2.0004204472	-0.8652455527	-0.072233
N	 0.1544192533	-2.9992351737	-0.8335991722	-0.347842
C	 0.9667760678	-2.8280838069	-2.0614948831	-0.032167
C	 0.2623760517	-1.9695641409	-3.0969221501	-0.236858
C	-0.2982721557	-0.7743648401	-2.2808805884	 0.053849
O	-1.601830102	-1.0061033972	-1.7957861848	-0.429791
H	 0.5008573483	 1.9355116384	-0.4619983787	 0.094262
H	-1.1604775376	 1.3017140293	-0.6850392879	 0.131548
H	-0.5278134616	 1.6020128908	 0.9545138433	 0.122031
H	 1.576320022	 0.0251273827	-1.4762656486	 0.05812
H	 2.1184471081	-2.1561371667	-0.2339054265	 0.09136
H	 0.4598180646	-3.8233102648	-0.3238012483	 0.237297
H	 1.6259135277	-3.6350095907	-2.3646100209	 0.088353
H	 0.9887523232	-1.6295871116	-3.8448822913	 0.098957
H	-0.5484658531	-2.485927486	-3.6183933457	 0.114431
H	-0.3612668037	 0.1268327907	-2.8962375204	 0.078273
H	-1.5174712822	-1.7602003918	-1.1916084848	 0.292675
117.5823	129.2338	201.9693	212.3477	278.7657	313.8393	387.1611	402.794	503.1836	558.1653	575.725	657.6337	783.428	809.4931	835.4656	866.6201	887.0087	900.6084	961.4791	995.4271	1026.8125	1049.2269	1076.2743	1103.8262	1128.2373	1157.9472	1162.9794	1181.6622	1204.0599	1235.3612	1255.6054	1259.382	1290.2709	1317.7864	1349.9493	1360.2483	1401.0717	1428.5645	1467.6423	1478.3624	1480.6838	1485.8783	1514.1215	2929.9422	2975.7289	3037.9986	3060.338	3076.3852	3096.7684	3114.2983	3162.9544	3177.4246	3515.6371	3696.7309
COC1C2NC2CC1O	CO[C@H]1[C@H]2N[C@H]2C[C@H]1O	
InChI=1S/C6H11NO2/c1-9-6-4(8)2-3-5(6)7-3/h3-8H,2H2,1H3	InChI=1S/C6H11NO2/c1-9-6-4(8)2-3-5(6)7-3/h3-8H,2H2,1H3/t3-,4+,5-,6+/m0/s1
