15
gdb 97472	7.41724	0.44196	0.41928	5.1411	95.51	-0.256	-0.0712	0.1849	2472.4344	0.108923	-420.584258	-420.573913	-420.572969	-420.621691	33.986	
C	 0.0047574993	 1.5044964337	-0.0508688757	-0.479499
C	-0.0134029719	-0.0060211042	 0.0600011194	 0.187751
O	-0.0319118412	-0.5946072995	 1.1207139985	-0.266536
C	-0.0072879837	-0.7231973311	-1.199329254	 0.346291
C	-0.002320824	-1.3340670993	-2.2489930347	-0.270561
C	 0.0031787769	-2.0116350537	-3.4222260262	-0.187148
C	 0.0078708414	-2.6194757258	-4.4695077543	 0.314495
C	 0.0149220087	-3.313813898	-5.7471787832	-0.244086
O	-0.0077930625	-4.7157466873	-5.5335287537	-0.40361
H	 0.8954867607	 1.831883802	-0.5978902777	 0.148938
H	-0.8654632845	 1.8516384777	-0.61832553	 0.148928
H	-0.0019033719	 1.9416461567	 0.9487105631	 0.145671
H	-0.8572665453	-2.976512245	-6.3318791484	 0.131463
H	 0.9115608789	-3.0016058291	-6.3084278824	 0.131497
H	-0.005291751	-5.1400506673	-6.3978716006	 0.296404
34.8154	52.5435	72.885	117.897	123.9103	193.3447	220.7002	248.4152	338.4949	374.0731	495.948	516.1122	572.4655	620.2441	641.617	642.255	833.4698	969.8588	1012.7185	1043.0234	1059.2698	1148.2258	1243.1073	1249.2063	1302.1164	1383.4406	1459.4411	1461.9319	1468.1984	1490.8417	1757.9919	2253.3724	2354.6314	2961.1105	2979.8973	3039.3922	3104.0332	3151.4927	3819.1065
CC(=O)C#CC#CCO	CC(=O)C#CC#CCO	
InChI=1S/C7H6O2/c1-7(9)5-3-2-4-6-8/h8H,6H2,1H3	InChI=1S/C7H6O2/c1-7(9)5-3-2-4-6-8/h8H,6H2,1H3
