14
gdb 132900	3.09096	1.36249	0.95118	3.8522	68.85	-0.2347	-0.0622	0.1725	1129.7955	0.099732	-481.847358	-481.839674	-481.83873	-481.87974	28.537	
C	-0.0315604346	 1.5336544887	 0.0521188439	-0.492376
C	-0.0042892607	 0.0346894806	-0.0166271174	 0.205631
C	-0.0251885736	-0.6687770881	-1.1787138291	-0.346882
C	 0.0014133459	-2.1175199395	-1.2281872932	 0.438944
O	-0.0130201471	-2.8178695176	-2.2032073494	-0.343004
O	 0.0519140207	-2.7548522695	 0.0293363503	-0.220546
C	 0.0727549437	-2.0627139867	 1.1792769394	-0.022088
C	 0.0468892002	-0.7182929028	 1.201261972	 0.121529
F	 0.0687841019	-0.0572619056	 2.3658652746	-0.072595
H	 0.8552585871	 1.91137422	 0.5718193313	 0.153296
H	-0.0699953203	 1.9714446877	-0.9464679387	 0.139428
H	-0.8998059975	 1.8770607645	 0.6243343381	 0.153301
H	-0.0634497989	-0.1731042786	-2.140959428	 0.12961
H	 0.1115716533	-2.6839333132	 2.0650867861	 0.155753
110.7649	133.0147	196.1657	269.5221	358.6986	370.8013	400.4586	427.1004	537.2395	581.8035	632.3752	731.8544	742.7982	768.8767	823.6035	880.816	886.3397	1023.6164	1063.6594	1103.7803	1189.5369	1253.21	1269.0213	1315.4563	1412.4863	1463.0891	1474.899	1489.9895	1596.2395	1708.3511	1844.3968	3043.469	3099.1197	3142.2953	3211.4919	3221.0633
CC1=CC(=O)OC=C1F	Cc1cc(=O)occ1F	
InChI=1S/C6H5FO2/c1-4-2-6(8)9-3-5(4)7/h2-3H,1H3	InChI=1S/C6H5FO2/c1-4-2-6(8)9-3-5(4)7/h2-3H,1H3
