16
gdb 129965	5.67085	0.98288	0.89157	4.7135	72.15	-0.2172	0.0194	0.2366	1278.0892	0.127806	-430.248202	-430.240271	-430.239326	-430.281121	29.527	
N	 0.0500988833	 1.3564557861	 0.0892229331	-0.600339
C	-0.0361116924	-0.0182864263	 0.0120191964	 0.412718
N	-1.1492738254	-0.7275499715	 0.0663181677	-0.371607
C	-0.7061505262	-2.0073062667	-0.1352694787	 0.366766
N	 0.5997917877	-2.13180389	-0.2937923271	-0.308996
N	 1.0207760862	-0.8306255785	-0.2046238805	-0.245566
C	-1.6187070012	-3.1675114859	-0.1605311424	-0.096328
C	-1.4946676078	-4.1767283131	-1.2539128561	-0.22772
N	-1.0831663529	-4.5117179917	 0.1120072201	-0.319806
H	 0.8478592807	 1.7128955194	 0.5969548358	 0.256595
H	-0.815063265	 1.7591072941	 0.4224954165	 0.272106
H	 1.993074533	-0.6060787593	-0.3284730749	 0.274336
H	-2.5971181942	-2.9641139563	 0.262746044	 0.102774
H	-2.3821481136	-4.693448665	-1.6094618466	 0.117317
H	-0.727490231	-3.9968173988	-2.0015080665	 0.121857
H	-0.0701299311	-4.4336565664	 0.1856309294	 0.245894
50.2008	158.9441	175.3623	266.2153	292.6793	333.9748	404.2545	466.3179	476.9434	645.7879	677.4116	746.2058	765.9653	785.2716	832.9387	891.8349	974.6114	999.1975	1027.4307	1063.1515	1102.1324	1115.3866	1137.4866	1161.5448	1191.3752	1262.0388	1298.5131	1311.3338	1350.8005	1440.9076	1497.9305	1509.1481	1563.6698	1605.4094	1661.2796	3108.5759	3164.738	3200.9882	3489.3767	3559.6559	3658.5846	3674.9444
NC1=NC(=NN1)C1CN1	Nc1nc(n[nH]1)[C@H]1CN1	
InChI=1S/C4H7N5/c5-4-7-3(8-9-4)2-1-6-2/h2,6H,1H2,(H3,5,7,8,9)	InChI=1S/C4H7N5/c5-4-7-3(8-9-4)2-1-6-2/h2,6H,1H2,(H3,5,7,8,9)/t2-/m1/s1
