21
gdb 118767	2.91871	1.07726	0.93126	1.7821	74.88	-0.2389	0.0616	0.3006	1322.6662	0.181128	-461.345595	-461.335979	-461.335035	-461.379811	37.091	
O	 0.2805570431	 0.4518467573	-0.4397852675	-0.417251
C	-0.4211328743	 0.1517308322	 0.774784552	-0.097989
C	-1.6753052578	-0.6433084661	 0.43039747	-0.260018
C	-1.3999378468	-2.0246661649	-0.1792632251	 0.44234
O	-0.7326440673	-1.9328962945	-1.4157321577	-0.497488
C	-0.817036792	-3.0614493702	 0.8469898753	-0.286942
C	-2.2340188775	-3.6449273494	 1.030387079	 0.117261
O	-2.8095654941	-3.1054936433	 2.2141286019	-0.433917
C	-2.6686273028	-2.9164255871	-0.2698746953	-0.306257
H	 1.1550296457	 0.784158809	-0.2175936631	 0.29416
H	 0.2209651841	-0.4269619895	 1.4543503997	 0.100841
H	-0.6969832033	 1.0831053589	 1.2895217883	 0.097299
H	-2.2617452134	-0.7738703462	 1.345024712	 0.119955
H	-2.2801386453	-0.0616608548	-0.2767852998	 0.106007
H	-0.1462602754	-1.1635447118	-1.3716305818	 0.281814
H	-0.1491001647	-3.7562799941	 0.3339613875	 0.10525
H	-0.3409752987	-2.6945086288	 1.7599265219	 0.094789
H	-2.31888224	-4.7386994382	 1.0258468872	 0.065095
H	-3.7546853793	-3.2878035557	 2.1887317969	 0.280819
H	-3.644056083	-2.4191877399	-0.2612734953	 0.084866
H	-2.5991193173	-3.5658944629	-1.1461197161	 0.109366
66.1065	103.1847	199.1213	208.2212	271.0311	283.1943	328.3661	328.5263	363.1197	411.5344	439.9412	447.0282	514.7878	556.9269	661.9814	803.3674	823.8079	845.9111	886.1471	926.3576	948.6506	962.6292	982.1247	996.5157	1057.1786	1069.3523	1114.2015	1131.2723	1174.8341	1195.2621	1220.2256	1241.9741	1253.9348	1271.2657	1285.3956	1328.7897	1329.0453	1370.486	1411.4532	1441.9658	1448.6186	1459.5352	1468.8933	1480.0687	1518.6178	2993.1859	3015.3282	3021.1405	3039.5934	3047.5082	3065.4417	3097.596	3114.0911	3129.3623	3706.279	3809.9315	3835.5072
OCCC1(O)CC(O)C1	OCC[C@@]1(O)C[C@@H](O)C1	
InChI=1S/C6H12O3/c7-2-1-6(9)3-5(8)4-6/h5,7-9H,1-4H2	InChI=1S/C6H12O3/c7-2-1-6(9)3-5(8)4-6/h5,7-9H,1-4H2/t5-,6-
