18
gdb 102947	3.0081	0.94776	0.75541	3.5073	77.35	-0.258	0.0234	0.2814	1479.9526	0.144415	-439.028029	-439.017802	-439.016858	-439.064124	35.465	
C	-0.3100404094	 1.1451186388	 0.2725723723	-0.241625
O	-0.3177369928	-0.2616454732	 0.4291665224	-0.23277
C	 0.671276391	-0.7487121427	 1.3167388724	-0.074636
C	 0.3069968143	-2.2074473505	 1.62697473	-0.107119
O	-0.8856125319	-2.2864830011	 2.3865653978	-0.180811
C	-2.0540905803	-2.3271536709	 1.7056148005	 0.13203
N	-3.1433258971	-2.2717191348	 2.3385406039	-0.444952
C	 2.0237664982	-0.6624691092	 0.7532453378	 0.338044
C	 3.1283598644	-0.6143860066	 0.2819994736	-0.463257
H	 0.6376151502	 1.4975774582	-0.1556203447	 0.122802
H	-1.1262411979	 1.3916781411	-0.4093804311	 0.133739
H	-0.4779040208	 1.6550674491	 1.2323901466	 0.116392
H	 0.6350979173	-0.1850584656	 2.2634791101	 0.111649
H	 0.2207120637	-2.7617676288	 0.6844028481	 0.125206
H	 1.0955111538	-2.6599244667	 2.2315267571	 0.133549
H	-1.9239245653	-2.4244324878	 0.6218869239	 0.097726
H	-3.922564928	-2.3457928026	 1.6878594029	 0.227597
H	 4.1065189006	-0.5627537568	-0.1295283635	 0.206434
59.2939	65.6278	103.4076	143.25	158.9839	178.4032	250.4431	255.1347	338.6928	366.2588	445.2275	535.6115	577.7101	644.1092	655.9608	687.0765	818.6669	848.7643	960.448	994.3636	1037.4054	1048.7141	1098.5724	1141.1423	1156.3844	1184.541	1216.5031	1261.4167	1293.9866	1338.5201	1371.9922	1399.4808	1423.9315	1480.1584	1485.8097	1488.0591	1508.9316	1745.3108	2232.0755	2975.7332	2994.314	3038.6532	3053.7216	3059.8323	3121.7141	3128.2116	3500.6154	3517.5521
COC(COC=N)C#C	CO[C@@H](CO[CH][NH])C#C	
InChI=1S/C6H9NO2/c1-3-6(8-2)4-9-5-7/h1,5-7H,4H2,2H3	InChI=1S/C6H9NO2/c1-3-6(8-2)4-9-5-7/h1,5-7H,4H2,2H3/t6-/m1/s1
