16
gdb 47473	2.79279	1.29009	1.02727	5.1002	69.57	-0.2585	0.0173	0.2757	1154.929	0.126858	-434.125728	-434.117533	-434.116588	-434.159288	29.354	
O	-0.0543724524	-0.080367363	-0.1778319278	-0.415116
C	-0.0337525878	 1.1227029766	-0.0404516466	 0.472563
N	-1.087180762	 1.9544717388	 0.2821066918	-0.355249
C	-0.7297715386	 3.3556722302	 0.1122069894	-0.174118
C	 0.8056906754	 3.2994196095	 0.257049911	-0.175252
N	 1.09171329	 1.9406706065	-0.183247625	-0.1123
C	 2.402148181	 1.3458372585	-0.0996033676	-0.298115
C	 3.0137819154	 1.4670540894	 1.2381419301	 0.258696
N	 3.4765693532	 1.6025495713	 2.2881172996	-0.307593
H	-2.0160522062	 1.619366548	 0.0833955273	 0.260176
H	-1.0146988136	 3.7375978774	-0.87785445	 0.116163
H	-1.1896520647	 3.9894141046	 0.8742016078	 0.128394
H	 1.3094310788	 4.0430506237	-0.3670565284	 0.122255
H	 1.1150037288	 3.4540264532	 1.3003171061	 0.134467
H	 2.2811907492	 0.2863528368	-0.3478288412	 0.192278
H	 3.0840925535	 1.7952447084	-0.8308681963	 0.152752
59.1736	88.5083	178.2794	211.322	264.481	288.6163	376.6501	451.0045	510.8732	576.9223	676.8337	722.5611	766.0566	802.7691	902.0973	908.959	948.3753	977.9059	1080.8201	1130.5237	1139.4363	1214.05	1233.2971	1257.2062	1291.9654	1330.2708	1344.5942	1375.7586	1436.0802	1443.5026	1457.9234	1527.3355	1534.2498	1838.8629	2357.0452	3005.2742	3011.4211	3040.6268	3080.929	3094.4896	3097.0611	3650.3015
O=C1NCCN1CC#N	O=C1NCCN1CC#N	
InChI=1S/C5H7N3O/c6-1-3-8-4-2-7-5(8)9/h2-4H2,(H,7,9)	InChI=1S/C5H7N3O/c6-1-3-8-4-2-7-5(8)9/h2-4H2,(H,7,9)
