22
gdb 22112	2.67047	0.92111	0.84607	1.133	81.64	-0.2545	-0.0018	0.2526	1507.2885	0.191822	-441.448933	-441.438178	-441.437234	-441.484837	39.597	
C	-1.3348059954	-0.9513182214	 0.1061410092	-0.387948
C	 0.1507779548	-0.5753413633	 0.1673470532	 0.039256
C	 0.9060249205	-1.4188935463	 1.2025497596	-0.38765
C	 0.7793930517	-0.6940178771	-1.2426336746	-0.281568
C	 2.2500043471	-0.3817170868	-1.2891858264	 0.343031
C	 2.7613096661	 0.9901494997	-0.8821692482	-0.143215
O	 3.6142535207	 0.929235212	 0.2492381446	-0.417639
N	 3.0272766175	-1.3293232271	-1.6548575241	-0.171236
O	 4.3842521335	-0.9133613039	-1.6501714941	-0.415907
H	-1.8763158396	-0.3372143051	-0.6216259791	 0.108623
H	-1.4611319193	-2.0010907524	-0.1843078334	 0.114668
H	-1.8137552417	-0.8167811509	 1.0812261357	 0.112784
H	 0.2165340341	 0.4754554203	 0.4807802534	 0.080946
H	 0.9366368598	-2.4734494526	 0.9038300537	 0.112487
H	 1.9353519966	-1.0685684035	 1.3190496405	 0.133924
H	 0.4161338376	-1.3611619002	 2.1799857805	 0.107621
H	 0.6335950251	-1.7085456764	-1.6286138815	 0.113936
H	 0.2494203134	-0.0098919227	-1.9207492327	 0.104156
H	 3.2687212731	 1.4450434669	-1.7467841803	 0.113038
H	 1.9259283548	 1.6388403369	-0.6079369838	 0.112314
H	 4.3465429039	 0.3568154805	-0.0123822326	 0.297733
H	 4.8432861558	-1.7147560668	-1.9209130395	 0.310643
57.4756	87.0872	88.546	177.9335	234.4534	253.8772	260.0725	292.827	317.3265	342.5986	353.4681	419.8848	423.6461	444.3632	521.3705	623.1323	653.0515	818.5188	843.6195	892.2789	938.3958	949.3774	965.4101	977.6765	981.3198	1068.3126	1117.0677	1138.9872	1191.3773	1204.1762	1241.3547	1282.041	1312.0155	1363.555	1368.5128	1374.8383	1392.7902	1404.7734	1425.0867	1453.6158	1474.4364	1490.0198	1492.696	1495.193	1505.2077	1512.4802	1721.0648	2989.2413	3006.6435	3011.5328	3024.6631	3030.4161	3078.1357	3090.5973	3095.5045	3099.9031	3101.5272	3114.9348	3777.7942	3831.9746
CC(C)CC(CO)=NO	CC(C)CC(=NO)CO	
InChI=1S/C6H13NO2/c1-5(2)3-6(4-8)7-9/h5,8-9H,3-4H2,1-2H3	InChI=1S/C6H13NO2/c1-5(2)3-6(4-8)7-9/h5,8-9H,3-4H2,1-2H3
