19
gdb 107310	3.12815	1.2924	1.03644	1.7651	76.36	-0.2149	0.0552	0.27	1203.1853	0.160042	-419.223055	-419.214514	-419.21357	-419.256059	33.125	
C	-0.2169702583	 1.5252213724	-0.09396537	-0.37482
C	 0.1669238091	 0.0477539592	 0.0585057563	-0.270376
C	 0.7873931576	-0.5342919917	-1.1797360448	 0.415143
C	 0.0154626649	-1.0312307917	-2.3752712634	-0.354494
C	 0.9182054792	-1.9834679486	-1.6060243977	-0.077532
N	 2.2620521062	-2.1494895537	-2.1033608323	-0.345238
C	 2.7928253549	-0.9869642418	-2.0316440149	 0.442425
N	 4.0256560242	-0.6123876136	-2.4963779761	-0.579309
O	 2.0649345862	 0.0340556533	-1.4930642731	-0.281577
H	 0.6625007009	 2.1312802212	-0.3296316743	 0.129629
H	-0.9428936933	 1.6604200687	-0.9021540856	 0.119523
H	-0.6596899561	 1.9123847976	 0.8286199689	 0.11055
H	 0.8655675583	-0.0737246792	 0.8954934771	 0.105279
H	-0.7204893569	-0.5477280094	 0.3017394177	 0.104109
H	-1.0548891736	-1.1447780574	-2.2360084161	 0.112704
H	 0.3246712325	-0.7268830198	-3.3698521937	 0.121122
H	 0.4884831619	-2.818221526	-1.0636984808	 0.093932
H	 4.6457969032	-1.3917127219	-2.6565543292	 0.267912
H	 4.4467844893	 0.1621283724	-2.0052501679	 0.261018
82.9039	145.3027	171.9815	221.2427	302.2113	333.3046	367.8058	416.7216	447.11	480.2424	581.3405	639.0072	717.2354	745.1457	763.3923	790.0096	863.8457	874.8233	934.3801	983.2787	987.3654	994.0673	1038.4365	1057.3803	1073.682	1098.8171	1123.9731	1192.9235	1222.2781	1262.6299	1301.4482	1356.7135	1399.9632	1408.2391	1425.5137	1468.5199	1475.7498	1496.9372	1508.5829	1614.4176	1731.565	3030.1167	3039.9461	3068.9506	3109.0887	3117.4848	3124.58	3170.7507	3217.912	3579.2921	3691.8817
CCC12CC1N=C(N)O2	CC[C@]12C[C@H]1N=C(N)O2	
InChI=1S/C6H10N2O/c1-2-6-3-4(6)8-5(7)9-6/h4H,2-3H2,1H3,(H2,7,8)	InChI=1S/C6H10N2O/c1-2-6-3-4(6)8-5(7)9-6/h4H,2-3H2,1H3,(H2,7,8)/t4-,6+/m1/s1
