18
gdb 23225	3.39645	1.31175	1.11518	1.8551	74.72	-0.2406	0.0065	0.247	1110.6065	0.149218	-439.036945	-439.029345	-439.028401	-439.069135	29.94	
O	-0.0404290367	 1.3255378791	 0.0838029181	-0.394836
N	 0.0623632517	-0.0754240187	 0.1267028916	-0.233748
C	-1.0661999195	-0.6346411551	-0.0681670986	 0.443854
C	-2.3876956114	 0.0639912819	-0.3176507717	-0.309748
C	-3.4950226064	-0.9178356158	-0.797529935	-0.223218
C	-3.0624330274	-2.3700941875	-0.5999874163	 0.098289
C	-2.3618775588	-2.6058821776	 0.7535392232	-0.263735
C	-1.1269326998	-2.1333339859	-0.0473682408	-0.004895
O	-1.7855391308	-2.5516920141	-1.2828616139	-0.296222
H	 0.8739155902	 1.5994380392	 0.2113883562	 0.307652
H	-2.6854006038	 0.5607469797	 0.6136010816	 0.130161
H	-2.2313136429	 0.8745606594	-1.0338522334	 0.138578
H	-4.4359299672	-0.7271880631	-0.2697080263	 0.100049
H	-3.6903069449	-0.7722444267	-1.864487078	 0.11734
H	-3.81532694	-3.0867702484	-0.938974944	 0.078697
H	-2.6772053254	-2.0242361807	 1.6227784035	 0.105058
H	-2.2965796992	-3.6652353116	 1.00504844	 0.116417
H	-0.1522390075	-2.5972607343	 0.1063120738	 0.090307
77.968	155.0301	232.9113	326.543	376.1102	395.7328	419.9543	458.1785	545.9388	587.937	666.3911	767.7285	800.3348	835.531	878.4867	918.4476	933.8335	948.1312	967.9111	990.6707	1037.4124	1052.6366	1093.7318	1104.8533	1179.7212	1226.9197	1235.5481	1256.6139	1270.8164	1289.494	1316.6301	1330.9177	1353.4842	1375.9042	1414.0416	1466.4451	1483.4895	1494.4416	1743.1613	3037.9734	3046.2984	3069.5906	3078.3341	3082.249	3099.4496	3116.6469	3137.5974	3820.8147
ON=C1CCC2CC1O2	ON=C1CC[C@@H]2C[C@H]1O2	
InChI=1S/C6H9NO2/c8-7-5-2-1-4-3-6(5)9-4/h4,6,8H,1-3H2	InChI=1S/C6H9NO2/c8-7-5-2-1-4-3-6(5)9-4/h4,6,8H,1-3H2/t4-,6-/m1/s1
