12
gdb 129541	5.24854	1.05672	0.87962	5.1305	57.22	-0.285	-0.0444	0.2405	1186.6667	0.077041	-505.934177	-505.926273	-505.925329	-505.968714	26.952	
N	-0.0936471631	 1.2614860374	 0.1487085304	-0.560812
C	-0.5358244681	 0.0773349484	-0.3242524736	 0.510583
O	-0.9490933182	-0.1529064925	-1.4300163409	-0.366806
O	-0.4346111502	-0.8551410123	 0.6956337193	-0.267984
C	-0.8151287514	-2.133960404	 0.4827967677	 0.423239
N	-0.6979841448	-2.9765283148	 1.472897273	-0.173081
O	-1.1496762157	-4.1662371639	 0.9769552491	-0.14381
N	-1.5460852345	-4.0531444863	-0.324672955	-0.065061
C	-1.3503328486	-2.8078595012	-0.6559315068	-0.112271
H	-0.0998980844	 2.0527842217	-0.4690449653	 0.285552
H	 0.2345135849	 1.3555789997	 1.0932142565	 0.28467
H	-1.5760365657	-2.4266457421	-1.6344539344	 0.185781
20.6636	78.6535	101.8808	189.2022	351.0204	376.8961	396.7387	548.7964	629.4769	637.8265	716.9829	758.848	766.5867	901.008	904.806	936.2775	965.3238	1033.6886	1097.3942	1112.8264	1201.4944	1348.2869	1434.0175	1480.125	1605.2942	1623.1224	1869.3014	3326.6414	3633.2759	3770.4507
NC(=O)OC1=NON=C1	NC(=O)Oc1nonc1	
InChI=1S/C3H3N3O3/c4-3(7)8-2-1-5-9-6-2/h1H,(H2,4,7)	InChI=1S/C3H3N3O3/c4-3(7)8-2-1-5-9-6-2/h1H,(H2,4,7)
