14
gdb 27487	2.05496	1.97534	1.01349	2.8046	68.25	-0.2671	-0.0482	0.2189	1094.7969	0.102146	-470.090784	-470.083034	-470.08209	-470.123522	28.171	
C	 0.0387120063	 1.4710168168	-0.0389497849	-0.46841
C	-0.0774432755	-0.0144620492	 0.0281480698	 0.408043
N	-1.1608191136	-0.6394550332	-0.2159798215	-0.336225
C	-1.1651015982	-2.0351102003	-0.1255742959	 0.415254
N	-2.1630284214	-2.78852025	-0.3386069012	-0.534363
N	 0.0551624156	-2.6255703147	 0.2344442357	-0.388205
C	 1.2187678099	-1.9674942813	 0.497894291	 0.488871
O	 2.2616314163	-2.4619382616	 0.8052454643	-0.353293
O	 1.1139265265	-0.5864014526	 0.379385515	-0.241168
H	 0.8056081664	 1.7516642317	-0.7677811047	 0.162056
H	-0.9203430553	 1.9026893761	-0.320059538	 0.160853
H	 0.3579739549	 1.8635017504	 0.9316567709	 0.162057
H	-2.9658534403	-2.2129658732	-0.58756912	 0.236848
H	 0.0772392883	-3.6329607289	 0.3066321395	 0.287682
104.963	123.9323	138.9018	196.9216	300.4229	386.4363	506.9053	548.9715	577.5644	587.779	655.7443	659.0882	754.6192	763.261	882.3595	894.9474	948.7503	990.6956	1064.3222	1067.0994	1141.1188	1199.3938	1321.5028	1399.1074	1408.4129	1422.9322	1466.0623	1471.1547	1720.7327	1747.7176	1903.8906	3052.9425	3112.1501	3175.7589	3516.3776	3624.1146
CC1=NC(=N)NC(=O)O1	C[C]1N=C([NH])NC(=O)O1	
InChI=1S/C4H5N3O2/c1-2-6-3(5)7-4(8)9-2/h1H3,(H2,5,7,8)	InChI=1S/C4H5N3O2/c1-2-6-3(5)7-4(8)9-2/h1H3,(H2,5,7,8)
