20
gdb 118017	3.45232	0.80705	0.68601	3.7373	76.82	-0.265	0.0092	0.2742	1631.5576	0.168035	-440.283115	-440.272261	-440.271317	-440.319634	37.685	
C	-0.0108853208	 1.3867631929	 0.0295691593	-0.230989
O	-0.0232956247	-0.0210603865	-0.0063175469	-0.236552
C	 0.6385834383	-0.5474922784	-1.134095708	-0.062214
C	 0.5579417064	-2.0749478444	-1.0635551086	-0.0253
C	-0.8935525355	-2.5645787397	-1.1231205104	-0.415619
C	 1.4198555869	-2.6858686121	-2.1918005342	-0.018713
O	 2.7664750178	-2.2426958995	-2.1825970244	-0.411912
C	 1.3676625566	-4.1630873701	-2.1599296063	 0.263446
N	 1.3585037406	-5.3173877022	-2.105290401	-0.322546
H	 1.0155647859	 1.784864025	 0.0569217764	 0.10698
H	-0.5238314539	 1.8218887066	-0.842538009	 0.107017
H	-0.5344759786	 1.6946763474	 0.9376127438	 0.130402
H	 0.1618275746	-0.1900793495	-2.0655274534	 0.083768
H	 1.6880577145	-0.2203527679	-1.1587295049	 0.102384
H	 0.9980725285	-2.3836197655	-0.1052889576	 0.092525
H	-1.3497096245	-2.3174758516	-2.0893741378	 0.115936
H	-0.9605087985	-3.6464421305	-0.983301263	 0.14138
H	-1.4759266947	-2.0736083478	-0.3416503133	 0.144869
H	 1.0196649023	-2.3613463136	-3.1602165727	 0.139575
H	 3.1833291987	-2.5640162128	-1.3742781682	 0.295563
55.3515	84.9078	92.3734	125.5777	190.048	209.5454	231.097	248.4174	261.9018	325.9529	349.204	393.8462	444.2491	453.4224	603.0791	611.095	851.5283	900.5524	936.8355	971.2785	1003.0773	1062.3169	1115.2808	1134.8843	1161.4416	1167.0138	1189.8729	1223.0137	1250.5924	1270.8913	1300.6473	1350.4201	1364.6274	1406.07	1415.7888	1427.7972	1480.8301	1485.6478	1493.957	1504.7044	1505.7899	1530.9348	2354.2689	2937.1414	2973.0959	3011.5937	3017.7787	3022.9585	3037.0279	3051.0438	3110.4308	3117.5966	3142.6388	3797.5993
COCC(C)C(O)C#N	COC[C@@H](C)[C@@H](O)C#N	
InChI=1S/C6H11NO2/c1-5(4-9-2)6(8)3-7/h5-6,8H,4H2,1-2H3	InChI=1S/C6H11NO2/c1-5(4-9-2)6(8)3-7/h5-6,8H,4H2,1-2H3/t5-,6+/m1/s1
