17
gdb 114031	4.06598	0.70725	0.6802	3.6514	66.48	-0.2787	0.0014	0.2801	1632.3761	0.133555	-496.083626	-496.074085	-496.073141	-496.119805	32.582	
O	-0.2641650839	 1.0261394421	-1.0584269572	-0.412437
C	-0.0373418386	 0.1235350281	 0.0079543207	-0.086797
C	-1.2834199561	-0.6752538214	 0.3066400441	 0.031902
O	-1.5826820452	-1.7445405438	-0.608063273	-0.262996
C	-1.3218993968	-2.074864508	 0.7604888234	 0.04792
C	-0.1060109276	-2.9242913223	 1.0299828868	-0.13138
O	-0.4135834032	-4.3085770535	 0.8191080794	-0.182269
C	-0.2707088768	-4.7832816582	-0.4396046459	 0.180051
O	-0.5433160751	-5.9069937365	-0.7313048395	-0.267461
H	-0.5222286114	 0.5029030154	-1.8257529644	 0.29578
H	 0.8104485656	-0.5429813815	-0.2024659231	 0.09254
H	 0.2246735502	 0.7365777936	 0.8773141799	 0.121918
H	-2.1492252788	-0.0552983908	 0.5448706877	 0.110723
H	-2.2054408686	-2.3991001594	 1.3122324999	 0.115554
H	 0.736329412	-2.6229150464	 0.4003582914	 0.121622
H	 0.1941321707	-2.8466100739	 2.0784148874	 0.136333
H	 0.1267258136	-4.0271666936	-1.1418091877	 0.088997
38.7153	67.3003	83.1723	120.9164	162.012	227.9206	307.7541	350.8122	394.2463	429.3206	487.038	555.9214	679.5994	790.6066	844.3506	904.6413	977.9093	1032.1395	1044.9085	1059.3104	1072.6802	1087.6768	1130.9283	1156.6528	1187.9032	1232.1979	1296.4751	1309.1554	1353.8271	1378.8319	1405.726	1427.3858	1433.2699	1482.68	1490.4047	1499.3866	1871.8155	2971.0419	3009.3399	3059.9921	3074.6442	3100.6011	3108.7487	3120.2233	3803.6115
OCC1OC1COC=O	OC[C@H]1O[C@H]1COC=O	
InChI=1S/C5H8O4/c6-1-4-5(9-4)2-8-3-7/h3-6H,1-2H2	InChI=1S/C5H8O4/c6-1-4-5(9-4)2-8-3-7/h3-6H,1-2H2/t4-,5+/m1/s1
