17
gdb 35406	3.03447	1.59342	1.32459	2.7673	74.98	-0.237	0.0205	0.2576	980.9378	0.138107	-380.80767	-380.800662	-380.799718	-380.839097	27.908	
N	-0.2950514837	-1.203616671	-0.2659712435	-0.337219
C	-0.1811996308	-0.0576643194	-0.15675651	 0.286584
C	-0.0343585576	 1.3772583357	-0.0055560359	-0.186985
C	-0.2464889026	 2.0103880094	 1.4147926074	-0.202283
N	 1.0854038758	 2.6918649489	 1.3390048929	-0.121
C	 2.238730949	 2.0158873088	 1.9819438466	-0.00912
C	 2.222952694	 0.5173092738	 1.9134077013	-0.303839
C	 2.6039173192	 1.2900906972	 0.6785723557	-0.079256
C	 1.4068593272	 2.0025222765	 0.0487356389	 0.014206
H	-0.6451712056	 1.8717646482	-0.7646045734	 0.132495
H	-1.0733753556	 2.7225420105	 1.4593655829	 0.121899
H	-0.3510085717	 1.2904639854	 2.229629043	 0.128194
H	 2.8586140995	 2.56381743	 2.6820748347	 0.103018
H	 3.0674253536	 0.0492575999	 2.4099266751	 0.124312
H	 1.3146143379	-0.0722074482	 1.9670459574	 0.134356
H	 3.5658464712	 1.1724970646	 0.1972570714	 0.100691
H	 1.6592299002	 2.6472991797	-0.7968464444	 0.093949
113.9572	145.4889	259.8191	322.6947	385.9941	489.5688	533.0771	596.7861	666.5647	733.6627	754.3042	771.0725	858.7271	871.3848	910.0699	942.6201	977.0385	1006.0678	1022.7511	1033.6367	1049.8952	1063.4711	1083.673	1103.7083	1130.4326	1174.672	1193.7619	1197.4901	1217.972	1278.3772	1299.3359	1309.8191	1347.5373	1355.3225	1490.955	1512.5733	2349.98	3064.8673	3070.4848	3085.8722	3119.8435	3136.7292	3175.5356	3199.2718	3214.9614
N#CC1CN2C3CC3C12	N#C[C@H]1CN2[C@H]3C[C@H]3[C@@H]12	
InChI=1S/C7H8N2/c8-2-4-3-9-6-1-5(6)7(4)9/h4-7H,1,3H2	InChI=1S/C7H8N2/c8-2-4-3-9-6-1-5(6)7(4)9/h4-7H,1,3H2/t4-,5+,6-,7+/m0/s1
