20
gdb 55476	3.15382	1.13391	0.88146	14.9517	78.99	-0.163	-0.0155	0.1475	1305.4921	0.173877	-440.269427	-440.260967	-440.260023	-440.30323	32.195	
O	 0.0060994627	-0.0644516906	-0.1986749837	-0.458888
C	 0.0933027342	 1.1568523241	-0.0484098219	 0.367972
O	 1.0544758256	 1.9419791314	 0.0683502546	-0.481585
C	-1.3276995033	 1.9070858231	 0.0182590449	-0.134464
C	-2.3891002451	 1.098805063	 0.7613175419	-0.183048
C	-3.7112164604	 1.871230869	 0.8870014321	-0.222863
C	-3.493471724	 3.2416782017	 1.5271660983	-0.18877
N	-2.4411676675	 4.0135400997	 0.7625817474	-0.254522
H	-2.7753418328	 4.1677234091	-0.1911723636	 0.299488
H	-2.305010469	 4.9327595751	 1.1882820538	 0.299391
C	-1.0988104968	 3.2515982539	 0.6624810335	-0.203465
H	-1.651022747	 2.063231759	-1.0236238165	 0.067398
H	-2.5246659657	 0.1478643679	 0.2436689374	 0.139961
H	-2.017663124	 0.8475082946	 1.763958852	 0.106827
H	-4.1717627578	 2.0080520685	-0.1013757212	 0.108343
H	-4.4451988172	 1.3368716732	 1.5006979154	 0.124358
H	-4.3985295467	 3.8547447318	 1.5466926588	 0.138347
H	-3.1082678252	 3.1488861004	 2.5465990484	 0.158037
H	-0.7354029431	 3.166421897	 1.6890123628	 0.153351
H	-0.4060090068	 3.8692105781	 0.0946733156	 0.164132
40.6362	110.8224	190.8722	223.9691	286.3094	307.8338	410.252	424.2953	468.5991	499.0094	630.9901	739.3294	775.7402	795.7508	802.8434	845.2966	870.0264	893.3835	919.0751	967.3743	1022.2563	1045.1442	1085.257	1113.5672	1130.0772	1195.2931	1210.675	1251.362	1282.1561	1295.604	1308.474	1314.4411	1366.9339	1374.8328	1380.741	1393.194	1414.3017	1465.7444	1477.6823	1482.2671	1500.3909	1628.4753	1798.2852	2977.9722	3015.0429	3029.7114	3062.3522	3073.3257	3098.9924	3120.2358	3125.2323	3179.1518	3416.4972	3484.9549
[O-]C(=O)C1CCC[NH2+]C1	O=C([O])[C@H]1CCC[NH2]C1	
InChI=1S/C6H11NO2/c8-6(9)5-2-1-3-7-4-5/h5,7H,1-4H2,(H,8,9)	InChI=1S/C6H11NO2/c8-6(9)5-2-1-3-7-4-5/h5H,1-4,7H2/t5-/m0/s1
