21
gdb 17682	3.98457	1.34117	1.29575	1.0904	79.45	-0.2181	0.0845	0.3026	1083.0397	0.18768	-329.082968	-329.074147	-329.073203	-329.116028	33.571	
C	-0.1941138749	 1.4234973346	-0.1227523163	-0.312522
N	 0.0510092354	 0.0048606943	 0.0793414457	-0.110151
C	 1.4039463043	-0.4983855392	-0.1274046487	-0.289004
C	 0.8075164452	-0.4764620605	 1.2467157786	 0.329696
C	 1.361455424	 0.5087293988	 2.2599009673	-0.488702
C	 0.2569902697	-1.7726040501	 1.7871530118	-0.009675
C	 1.0033199721	-2.6245657848	 2.7848545624	-0.278644
C	-0.2728064926	-1.9302831546	 3.1921234337	-0.27878
H	 0.6613700054	 2.0796095101	 0.1008246703	 0.096066
H	-0.4681517513	 1.5827137932	-1.1710518062	 0.12258
H	-1.0397594675	 1.7401122912	 0.4967053785	 0.121041
H	 1.489864199	-1.4296765363	-0.6832703602	 0.105872
H	 2.1918439198	 0.2255614356	-0.3380752599	 0.096195
H	 1.8809980723	 1.3399392788	 1.780201107	 0.119537
H	 0.5656120903	 0.9248543141	 2.8871290667	 0.124144
H	 2.082776127	 0.0192798014	 2.9218059118	 0.124247
H	-0.2891566631	-2.3165524909	 1.0229379359	 0.088107
H	 0.99003187	-3.7000822787	 2.6460715801	 0.110104
H	 1.9349736537	-2.2479287999	 3.1940491688	 0.109652
H	-0.1912378585	-1.0927458296	 3.8758896812	 0.109283
H	-1.1670660702	-2.5269934677	 3.3340372914	 0.110955
62.8701	166.1256	177.7973	184.9604	240.0594	301.8281	312.7219	360.4313	439.3699	457.1586	515.2191	668.1287	755.0814	785.3605	834.2052	841.6527	917.123	927.1296	950.726	976.9282	1055.2216	1063.2795	1075.0892	1078.5566	1101.097	1115.3784	1144.7149	1157.4661	1168.3423	1199.1028	1204.2399	1228.6253	1311.9102	1342.1072	1407.5097	1425.3193	1450.5779	1467.8966	1487.0794	1489.7051	1502.2707	1507.3218	1510.2206	1516.0857	2980.3672	3039.5277	3062.4592	3074.6369	3095.6489	3098.1659	3127.8526	3131.6413	3138.2142	3157.0285	3160.7809	3207.6797	3223.9228
CN1CC1(C)C1CC1	CN1C[C@]1(C)C1CC1	
InChI=1S/C7H13N/c1-7(5-8(7)2)6-3-4-6/h6H,3-5H2,1-2H3	InChI=1S/C7H13N/c1-7(5-8(7)2)6-3-4-6/h6H,3-5H2,1-2H3/t7-,8?/m1/s1
