21
gdb 121073	3.97426	0.74507	0.65182	2.3421	79.17	-0.2361	-0.0135	0.2226	1693.3944	0.182074	-424.259763	-424.250262	-424.249318	-424.29488	34.869	
O	-0.0323602454	 1.4612886477	 0.2448693405	-0.419948
C	 0.0632041213	 0.0595406531	 0.0435204802	-0.078974
C	-1.3530511215	-0.5038932157	 0.0337706196	-0.186128
C	-1.4159686308	-2.023385665	-0.1206898602	 0.013992
C	-2.8524471398	-2.5929106835	-0.0170593787	-0.231566
C	-2.7534021426	-4.0071026218	-0.6039405455	-0.323509
C	-1.6277524483	-3.923373926	-1.6429398779	 0.399769
O	-1.3499467948	-4.7691255532	-2.4526491605	-0.312157
C	-0.9154015175	-2.5769198815	-1.4681148846	-0.325591
H	 0.8551793664	 1.8304877958	 0.2226676596	 0.286328
H	 0.5695080373	-0.1707944277	-0.9073435428	 0.088759
H	 0.6470815069	-0.4203950256	 0.8469014957	 0.084046
H	-1.8424561431	-0.2070059546	 0.9695464869	 0.105217
H	-1.9149477397	-0.0244288789	-0.7783019221	 0.10289
H	-0.8165173916	-2.4827216861	 0.6792039033	 0.075469
H	-3.2325880779	-2.5723869207	 1.0076616535	 0.104353
H	-3.5290319536	-1.9794838976	-0.6254970758	 0.104873
H	-2.4397255028	-4.7345271788	 0.1565986196	 0.130534
H	-3.6713224852	-4.3939771337	-1.0527948544	 0.128251
H	-1.2394035012	-1.9269578219	-2.2944620498	 0.127834
H	 0.1666152738	-2.6953874444	-1.5604695666	 0.125559
67.3474	87.5419	105.6055	122.2878	196.7323	267.5592	312.7298	343.1141	429.1762	483.8219	488.1098	566.0691	606.6929	729.7785	797.5196	814.3231	869.5477	907.1978	951.7255	968.9535	1011.0082	1022.2048	1069.5471	1087.2537	1115.3153	1152.2906	1166.2861	1193.1872	1222.7638	1248.6969	1255.5895	1264.3549	1299.6613	1303.8505	1316.0209	1343.938	1359.5795	1390.7356	1447.5285	1451.541	1464.4293	1489.3695	1501.6431	1528.4693	1847.2499	2958.4974	2987.9094	2993.3617	3015.8852	3023.4422	3031.5116	3036.2804	3067.6772	3093.7363	3106.3682	3107.4265	3830.8552
OCCC1CCC(=O)C1	OCC[C@H]1CCC(=O)C1	
InChI=1S/C7H12O2/c8-4-3-6-1-2-7(9)5-6/h6,8H,1-5H2	InChI=1S/C7H12O2/c8-4-3-6-1-2-7(9)5-6/h6,8H,1-5H2/t6-/m1/s1
