19
gdb 82983	2.52483	1.9653	1.64178	2.338	72.8	-0.2474	0.0626	0.31	913.4644	0.162612	-423.009271	-423.002477	-423.001533	-423.0404	28.212	
O	 0.338664855	 1.2494630557	 0.3180332063	-0.433157
C	 0.0550110615	-0.0976887174	 0.0757721106	 0.144887
C	-1.452354654	-0.5772031106	 0.0037187113	-0.08054
C	-2.4859548106	 0.5442373174	-0.2348528997	-0.238586
C	-2.6364843748	 0.6928449677	-1.7744867803	-0.227801
C	-1.5315514763	-0.1586990982	-2.3856446811	 0.130371
O	-0.2078505747	 0.4612283128	-2.2760417256	-0.335545
C	 0.2599180029	-0.5734973004	-1.3756138653	 0.061217
C	-1.1340448011	-1.2482468927	-1.3709874089	-0.115802
H	 0.1738168712	 1.6985053826	-0.5242276703	 0.288728
H	 0.6201228314	-0.6989307228	 0.7950285629	 0.08299
H	-1.7292178926	-1.243452119	 0.8216287953	 0.068911
H	-3.446269982	 0.298869703	 0.226121026	 0.09826
H	-2.134793054	 1.4680456567	 0.2335292331	 0.117425
H	-3.6055895207	 0.3073156668	-2.1118725214	 0.101704
H	-2.5661647792	 1.72906213	-2.119454891	 0.110642
H	-1.7169521757	-0.4576403193	-3.4223510372	 0.07738
H	 1.2103692771	-1.0039491884	-1.6985074883	 0.074882
H	-1.3371791033	-2.2999949338	-1.5552870565	 0.074034
94.8741	231.4129	252.4741	353.8813	493.8863	556.5204	562.7918	635.4126	657.0767	716.8117	777.4254	798.1115	825.3111	857.4097	889.0896	900.2084	935.3706	949.5458	991.9561	1019.8617	1032.2775	1052.8793	1073.4453	1117.9253	1156.3052	1167.2604	1194.8252	1211.5579	1228.7641	1252.0606	1262.9724	1279.6826	1291.4298	1301.4159	1320.4386	1340.1118	1350.1207	1364.1963	1440.5255	1474.331	1505.1608	3037.7056	3056.7854	3059.0343	3062.781	3082.5401	3085.8534	3097.0426	3106.3072	3146.9429	3726.2627
OC1C2CCC3OC1C23	O[C@H]1[C@H]2CC[C@H]3O[C@@H]1[C@@H]23	
InChI=1S/C7H10O2/c8-6-3-1-2-4-5(3)7(6)9-4/h3-8H,1-2H2	InChI=1S/C7H10O2/c8-6-3-1-2-4-5(3)7(6)9-4/h3-8H,1-2H2/t3-,4+,5-,6-,7+/m0/s1
