16
gdb 70180	3.6518	1.32878	1.11136	4.3382	71.81	-0.2373	-0.0351	0.2022	1070.4472	0.12516	-437.910603	-437.902925	-437.901981	-437.942539	30.232	
O	-0.038785261	 1.3902440957	 0.0717668394	-0.467207
C	 0.0274932516	-0.005651647	-0.008330004	 0.346713
C	-0.4769487131	-0.6746932135	-1.2783742484	-0.361069
C	-1.293795486	-0.7321404161	-0.0026825928	-0.020268
N	-1.3843294263	-1.9218260162	 0.7776793726	-0.34215
C	-0.3351439127	-2.5625177763	 1.395219082	 0.392409
O	-0.4715922894	-3.645213424	 1.9403174884	-0.385454
C	 0.9508156777	-1.8239276873	 1.3838091822	-0.165159
C	 1.1111250853	-0.6472577317	 0.770451889	-0.136563
H	 0.5801879154	 1.756412966	-0.5700890391	 0.287064
H	-0.8398505513	-0.0110696016	-2.0559175415	 0.121803
H	 0.0220450829	-1.5777360016	-1.6110433186	 0.12928
H	-2.1778642684	-0.1054796429	 0.037789138	 0.123607
H	-2.2522143557	-2.4367697483	 0.7804604589	 0.25033
H	 1.7483931874	-2.3015717308	 1.9401604213	 0.120103
H	 2.0498961335	-0.1021451343	 0.8378301326	 0.106561
93.1892	205.7896	240.2784	297.2281	350.6907	407.3469	424.1747	467.5009	487.3662	551.4406	597.6829	688.5239	717.7987	763.0565	825.0493	878.5415	881.9174	941.576	943.1098	988.4225	1008.712	1037.4763	1097.8922	1122.4413	1187.487	1228.8476	1274.6709	1327.6751	1359.274	1413.4733	1420.1127	1442.9834	1487.1765	1682.8849	1778.4572	3132.6049	3154.9089	3173.3668	3213.0713	3234.551	3617.2896	3793.0497
OC12CC1NC(=O)C=C2	O[C@]12C[C@H]1NC(=O)C=C2	
InChI=1S/C6H7NO2/c8-5-1-2-6(9)3-4(6)7-5/h1-2,4,9H,3H2,(H,7,8)	InChI=1S/C6H7NO2/c8-5-1-2-6(9)3-4(6)7-5/h1-2,4,9H,3H2,(H,7,8)/t4-,6-/m1/s1
