18
gdb 107454	3.55485	1.33999	1.18725	2.0706	70.84	-0.2224	0.0611	0.2835	1076.2585	0.14786	-439.032112	-439.024111	-439.023166	-439.064778	30.516	
O	 0.2548524665	 0.9713876715	-0.8989261484	-0.41227
C	-0.0448139385	 0.1835479748	 0.236725162	-0.194409
C	-1.4863820975	-0.2471990272	 0.1747169922	 0.423459
O	-1.907778279	-0.9457146598	-1.00506624	-0.297708
C	-2.5092437078	 0.3279826712	-0.7147534155	-0.019561
C	-3.8524818485	 0.22912317	-0.0123038439	-0.202263
N	-3.6376381919	-0.4155863776	 1.305750411	-0.109703
C	-3.1822747729	-1.8111899736	 1.2845476604	-0.242691
C	-2.1917788201	-0.7130642733	 1.4324930111	-0.120938
H	 1.2085393434	 0.9878307274	-1.0141410623	 0.294369
H	 0.5901974036	-0.7144970991	 0.2866899052	 0.105723
H	 0.1107944752	 0.746620972	 1.1718801331	 0.096338
H	-2.2962035527	 1.1149897918	-1.4327559228	 0.115355
H	-4.2492591765	 1.2359980312	 0.162368222	 0.113576
H	-4.5912868371	-0.3257153501	-0.5998244968	 0.119805
H	-3.481085678	-2.3899269446	 2.1548358469	 0.109944
H	-3.1766249829	-2.3464384138	 0.3407954312	 0.134667
H	-1.7236719053	-0.4918615809	 2.3880723145	 0.086308
85.5035	124.0025	180.5788	222.7903	282.797	358.8801	400.7054	450.6728	564.5897	639.3847	706.1384	716.3571	787.3296	820.8046	861.3108	896.5565	957.4397	970.3932	1026.6629	1037.4984	1066.9821	1085.3014	1089.4936	1112.667	1126.7122	1156.7171	1179.2495	1225.978	1232.7165	1276.4081	1288.1928	1299.7385	1330.4038	1371.1857	1448.2749	1473.2914	1484.6716	1499.0199	1508.0698	2966.0141	3000.6179	3038.781	3083.4554	3110.7583	3142.209	3161.5461	3208.6282	3845.5399
OCC12OC1CN1CC21	OC[C@]12O[C@H]1CN1C[C@@H]21	
InChI=1S/C6H9NO2/c8-3-6-4-1-7(4)2-5(6)9-6/h4-5,8H,1-3H2	InChI=1S/C6H9NO2/c8-3-6-4-1-7(4)2-5(6)9-6/h4-5,8H,1-3H2/t4-,5-,6+,7?/m0/s1
