20
gdb 82074	2.37358	1.61865	1.14875	1.4976	78.	-0.2363	-0.0176	0.2187	1128.5688	0.169308	-403.121507	-403.112245	-403.111301	-403.156104	34.104	
C	 0.1195158586	 1.7467024491	-0.9332690007	-0.402741
C	-0.0563916835	 0.3553921828	-0.3372162664	-0.014189
C	 0.7630960721	-0.8065153136	-0.905620095	-0.02831
C	 2.1918952178	-0.6824531415	-0.5706071313	-0.249122
N	 1.2833522266	-1.2378704149	 0.4574882251	-0.151213
C	 0.554497225	-0.0538006114	 1.0448004062	-0.081074
C	 1.376637094	 0.9111111226	 1.8862924777	 0.361679
C	 2.4684628402	 0.2934819227	 2.7379875805	-0.471845
O	 1.1241843535	 2.0951418065	 1.9093779259	-0.30375
H	 1.1693124164	 2.0458831033	-0.985886509	 0.118209
H	-0.2891941073	 1.7687966783	-1.9498875152	 0.10824
H	-0.4003745558	 2.4962764719	-0.3328226522	 0.137983
H	-1.1193789815	 0.0987023057	-0.3380063448	 0.086846
H	 0.3997498541	-1.5369017314	-1.6214618288	 0.097851
H	 2.870980512	-1.4292237563	-0.969617686	 0.125095
H	 2.6394218915	 0.2981720737	-0.4225076911	 0.119477
H	-0.2225525836	-0.4413230053	 1.7154334643	 0.111061
H	 3.2388867007	-0.1581615654	 2.1052740778	 0.153199
H	 2.9111191065	 1.0586302376	 3.3767328474	 0.137905
H	 2.0584485429	-0.5187556844	 3.3483148856	 0.144698
40.0698	94.3238	143.8543	171.5152	204.7349	237.097	283.6602	395.0034	440.5341	473.7265	568.1029	610.771	703.4007	742.2428	765.3495	790.9843	888.7349	908.0325	984.4544	986.901	1018.3156	1026.4098	1053.8396	1084.6806	1100.3798	1114.3687	1141.4294	1153.2664	1214.3968	1220.5078	1241.9737	1276.3151	1341.2087	1365.0155	1377.6558	1383.7235	1416.6056	1456.1254	1470.3685	1485.4028	1493.7726	1504.6307	1801.7653	3028.115	3038.7011	3043.6953	3064.685	3104.5337	3106.1998	3110.1085	3131.3292	3154.1805	3161.7489	3198.5055	40.0683	94.3221	143.8536	171.5149	204.7361	237.0967	283.6601	395.0034	440.5339	473.7264	568.1028	610.771	703.4007	742.2426	765.349	790.9839	888.7349	908.0323	984.4545	986.9011	1018.3157	1026.4098	1053.8396	1084.6806	1100.38	1114.3686	1141.4296	1153.2664	1214.397	1220.5081	1241.9741	1276.3156	1341.2093	1365.0156	1377.6563	1383.7237	1416.6052	1456.1258	1470.3688	1485.4024	1493.7721	1504.6307	1801.7652	3028.1149	3038.701	3043.6953	3064.685	3104.5336	3106.1997	3110.1085	3131.3292	3154.1805	3161.7488	3198.5055
CC1C2CN2C1C(C)=O	C[C@H]1[C@H]2CN2[C@H]1C(=O)C	
InChI=1S/C7H11NO/c1-4-6-3-8(6)7(4)5(2)9/h4,6-7H,3H2,1-2H3	InChI=1S/C7H11NO/c1-4-6-3-8(6)7(4)5(2)9/h4,6-7H,3H2,1-2H3/t4-,6+,7+,8?/m0/s1
