23
gdb 110141	2.25588	1.08597	0.86448	3.1039	82.17	-0.2435	0.06	0.3035	1453.6759	0.205632	-425.406924	-425.396634	-425.39569	-425.442118	38.343	
C	-0.0117323258	 0.5899932426	-2.3292091143	-0.376229
C	 0.0626236467	-0.2592526575	-1.0539726083	-0.200336
C	-1.3033698754	-0.7568779128	-0.6156193933	-0.032485
C	-1.9637448627	-2.0106597083	-1.1503151456	-0.046166
C	-1.3022982119	-2.9694675037	-2.123724912	-0.082994
O	-1.6936511172	-4.3112436948	-1.9038210754	-0.43398
C	-1.5233984447	-1.9450631204	 0.3035659323	-0.092465
C	-0.4041299775	-2.816778415	 0.8228200986	-0.098123
O	-0.7564339216	-4.2095790858	 0.8517880999	-0.408344
H	 0.9748970646	 0.9731699593	-2.607257703	 0.112435
H	-0.3968179242	 0.0054411343	-3.1708831912	 0.123956
H	-0.6773092799	 1.4493013977	-2.1920162481	 0.115178
H	 0.7551296282	-1.0902978641	-1.2170402045	 0.100412
H	 0.4965790148	 0.3405780652	-0.2431211723	 0.097087
H	-1.9936305554	 0.0656055203	-0.4363359998	 0.083563
H	-3.0387095675	-1.9485684474	-1.2992015229	 0.087466
H	-1.6136557578	-2.7219901926	-3.145068174	 0.102978
H	-0.2070818926	-2.865128811	-2.0985236768	 0.077435
H	-1.4047261142	-4.5315385287	-1.0043775873	 0.283244
H	-2.3284980407	-1.8217131693	 1.0265891457	 0.078386
H	 0.4832073376	-2.7676753915	 0.1894479501	 0.118609
H	-0.1026294299	-2.4894089103	 1.8278836609	 0.102099
H	-1.552900103	-4.298752596	 1.3866267812	 0.288274
74.8432	116.3809	142.2036	154.6231	179.861	226.519	238.2201	281.606	300.7879	347.6518	393.4957	520.7152	559.2534	580.337	648.7309	747.0748	810.2114	825.5517	826.448	945.0563	973.0858	995.5948	1010.5324	1022.8504	1043.5356	1068.1791	1081.2031	1116.2209	1130.4164	1151.2268	1176.6056	1223.829	1260.816	1273.0254	1294.8322	1340.0116	1347.1586	1372.6945	1401.4215	1408.4725	1414.6267	1424.3968	1463.6427	1479.1293	1488.527	1498.0829	1499.5072	1506.0142	1516.5853	2985.2845	3006.6487	3022.9294	3033.5189	3055.0864	3073.1541	3100.0133	3104.7399	3107.728	3115.0654	3121.9546	3140.8635	3684.5174	3808.702
CCC1C(CO)C1CO	CC[C@H]1[C@@H](CO)[C@H]1CO	
InChI=1S/C7H14O2/c1-2-5-6(3-8)7(5)4-9/h5-9H,2-4H2,1H3	InChI=1S/C7H14O2/c1-2-5-6(3-8)7(5)4-9/h5-9H,2-4H2,1H3/t5-,6+,7-
