14
gdb 130060	4.19845	1.02299	0.90686	2.3711	70.17	-0.2349	-0.0194	0.2155	1251.6501	0.101544	-428.994063	-428.98591	-428.984965	-429.027577	29.522	
N	-0.1135514671	 1.3158840847	 0.0159645398	-0.575809
C	-0.04723214	-0.0551836245	 0.046496579	 0.459559
N	-1.0888573491	-0.8615216962	-0.1420485242	-0.323433
N	-0.5168843279	-2.0551205396	 0.0546394433	 0.15164
C	-1.240210321	-3.3150781698	-0.0514650083	-0.294234
C	-1.6171340704	-3.6488039372	-1.4203489411	 0.328283
C	-1.9366663272	-3.9438273518	-2.5386675837	-0.443104
N	 0.7700620934	-2.0010930711	 0.3380479096	-0.119113
N	 1.0959191035	-0.7314768857	 0.3398187171	-0.275273
H	 0.7787643642	 1.7571235386	-0.1497355131	 0.267903
H	-0.8585493998	 1.6873517631	-0.553757381	 0.266211
H	-0.5726516764	-4.0726920475	 0.3673908817	 0.177628
H	-2.1281312292	-3.2478848631	 0.5853544302	 0.16734
H	-2.216551733	-4.2002715598	-3.530770269	 0.212401
46.1969	81.8093	216.4019	272.3168	312.8784	321.7826	350.5797	451.4666	470.0976	588.4947	629.3467	672.6739	686.1197	726.1577	782.4255	831.0749	962.7686	967.6179	1025.5028	1097.1617	1115.1741	1190.7921	1259.0829	1362.0195	1382.527	1398.6932	1457.7439	1477.2866	1584.7534	1655.1097	2251.6247	3059.3175	3112.8103	3504.6166	3581.0739	3687.2608
NC1=NN(CC#C)N=N1	Nc1nn(CC#C)nn1	
InChI=1S/C4H5N5/c1-2-3-9-7-4(5)6-8-9/h1H,3H2,(H2,5,7)	InChI=1S/C4H5N5/c1-2-3-9-7-4(5)6-8-9/h1H,3H2,(H2,5,7)
