17
gdb 72830	2.74558	1.59466	1.28355	5.3082	67.31	-0.2515	-0.0088	0.2428	1018.1787	0.136465	-458.982537	-458.974702	-458.973758	-459.015169	29.203	
C	-0.2851241754	 1.5382044268	-0.0382156653	-0.488506
C	 0.0458862095	 0.055583005	-0.0190960528	 0.244346
C	-1.0844722603	-0.8985919983	 0.4463947963	-0.11943
O	-0.3141876318	-1.3329495518	 1.5914492544	-0.281352
C	 0.816546203	-0.5396718555	 1.1759686382	-0.062259
C	 1.894082882	-1.4381334108	 0.5608977336	 0.435635
O	 2.7196894872	-2.0932018093	 1.1222872482	-0.328991
O	 1.7533874849	-1.4373411419	-0.7965539297	-0.226467
C	 0.8371465983	-0.4262686286	-1.2454528967	-0.138576
H	 0.6219309872	 2.1457910222	-0.1239135787	 0.128697
H	-0.9325636234	 1.7843459033	-0.8878160032	 0.12857
H	-0.8076915327	 1.8359316812	 0.8756199151	 0.13487
H	-2.0160524093	-0.408660832	 0.7510804924	 0.111695
H	-1.3158544606	-1.7284197715	-0.2325946923	 0.112678
H	 1.2086801894	 0.0947857595	 1.974987358	 0.105591
H	 0.2026668521	-0.8663632608	-2.0201573171	 0.125594
H	 1.41821744	 0.3882589425	-1.6934845103	 0.117906
72.7081	140.3032	214.9355	221.8904	279.8925	329.8107	369.5811	484.197	565.1616	642.4333	699.928	750.6886	874.2281	882.5333	904.7227	938.1782	964.7355	1004.599	1016.5874	1032.131	1062.7605	1146.7667	1162.7609	1190.1826	1194.0249	1248.8088	1268.9848	1283.3984	1315.7669	1354.6568	1408.8145	1421.1773	1494.0644	1496.0647	1516.4627	1526.1063	1889.2167	3018.7491	3029.0078	3036.6502	3069.3136	3083.5851	3089.8977	3094.8988	3109.9205
CC12COC1C(=O)OC2	C[C@]12CO[C@H]1C(=O)OC2	
InChI=1S/C6H8O3/c1-6-2-8-4(6)5(7)9-3-6/h4H,2-3H2,1H3	InChI=1S/C6H8O3/c1-6-2-8-4(6)5(7)9-3-6/h4H,2-3H2,1H3/t4-,6+/m0/s1
