14
gdb 81327	4.01947	1.14803	1.05764	4.9394	70.85	-0.2629	-0.0614	0.2015	1106.232	0.101093	-436.642608	-436.635251	-436.634306	-436.674582	27.784	
O	 0.0059655006	 1.3667098996	-0.0625451168	-0.421269
C	 0.0290139812	-0.0181805681	 0.0091604247	 0.155296
C	-0.0351210719	-0.6423761282	 1.4751605754	-0.025587
O	-1.4461871018	-0.2716086511	 1.4901685844	-0.266755
C	-1.4060829106	-0.64457202	 0.0894786419	-0.076563
C	-1.0331650021	-2.1391970337	 0.1686372032	 0.257917
C	-0.0896775768	-2.1222418809	 1.1304577374	-0.200166
C	-1.5290598881	-3.1875663271	-0.6310735623	 0.177306
N	-1.9591822549	-4.0248552335	-1.3077858562	-0.342474
H	 0.8717574235	 1.6793737445	-0.3399401009	 0.298302
H	 0.7367473372	-0.4758653163	-0.6911763967	 0.089713
H	 0.5480226995	-0.280469443	 2.3189817157	 0.100327
H	-2.2502812739	-0.3161938888	-0.5122210621	 0.110911
H	 0.522320218	-2.9251503533	 1.5131293124	 0.143042
114.5827	150.7311	177.7742	281.6257	343.5263	448.3189	478.5936	509.7645	576.4313	627.9971	670.3398	796.1165	816.1767	872.3238	885.6305	920.9445	926.6154	949.819	1045.6758	1126.7844	1133.805	1165.8019	1188.5116	1222.0035	1233.383	1260.3795	1273.3077	1309.6435	1442.132	1628.1328	2334.4813	3047.9753	3156.7348	3164.452	3253.4232	3840.6655
OC1C2OC1C(=C2)C#N	O[C@H]1[C@H]2O[C@@H]1C(=C2)C#N	
InChI=1S/C6H5NO2/c7-2-3-1-4-5(8)6(3)9-4/h1,4-6,8H	InChI=1S/C6H5NO2/c7-2-3-1-4-5(8)6(3)9-4/h1,4-6,8H/t4-,5-,6+/m0/s1
