17
gdb 117017	4.285	0.78394	0.67082	0.3514	77.24	-0.2518	-0.1015	0.1503	1644.5958	0.131435	-421.8203	-421.810024	-421.809079	-421.85706	35.174	
C	-0.0045314761	 1.5864523792	 0.0397004807	-0.387255
C	-0.0046061603	 0.0567122447	-0.005301855	-0.175205
C	 0.7117652668	-0.5632301462	 1.1939198548	-0.28461
C	 0.7256757162	-2.0732682119	 1.1728894404	 0.28126
O	 0.2304684393	-2.7563627106	 0.3098445973	-0.277493
C	 1.4404002726	-2.7517496998	 2.3692196236	 0.120228
O	 1.9461929373	-2.0907529009	 3.2499903644	-0.273147
C	 1.4559907222	-4.1968079705	 2.3526893641	 0.29888
C	 1.4813935427	-5.400072165	 2.360194579	-0.379747
H	 1.0158262704	 1.9856843404	 0.0429792692	 0.11657
H	-0.5225334434	 2.0049691476	-0.8283227282	 0.117559
H	-0.5070437367	 1.959399406	 0.9390988481	 0.116573
H	-1.0326789574	-0.3200072623	-0.0421537119	 0.113453
H	 0.4717152903	-0.2940566797	-0.9274061548	 0.113476
H	 1.753389857	-0.2212148329	 1.2675654494	 0.139258
H	 0.2619528546	-0.2470554095	 2.1452544228	 0.139267
H	 1.5016242747	-6.4631678887	 2.3643329561	 0.220931
33.6142	57.5181	92.6465	101.3651	166.9083	228.966	244.8379	270.493	336.1407	393.7788	411.3515	502.2108	649.4299	675.0878	675.1048	720.0063	766.2956	781.845	887.3769	892.2029	976.8114	1050.832	1100.3824	1128.4531	1208.9242	1241.4855	1318.2458	1328.277	1399.4824	1415.3601	1435.1074	1487.4521	1499.925	1508.056	1758.1115	1809.3613	2214.201	3025.1918	3030.7747	3046.4316	3046.6265	3075.4249	3101.0724	3106.6436	3493.4297
CCCC(=O)C(=O)C#C	CCCC(=O)C(=O)C#C	
InChI=1S/C7H8O2/c1-3-5-7(9)6(8)4-2/h2H,3,5H2,1H3	InChI=1S/C7H8O2/c1-3-5-7(9)6(8)4-2/h2H,3,5H2,1H3
