24
gdb 100532	2.81687	0.93564	0.82767	3.2562	87.97	-0.2333	0.035	0.2682	1565.5514	0.21483	-405.586546	-405.574679	-405.573735	-405.624917	41.091	
C	-0.2240762141	 1.5343823225	 0.0876321192	-0.401462
C	-0.0930519868	 0.012280955	-0.0173305503	-0.156053
C	 0.7595560517	-0.4635288114	-1.2091046732	-0.096635
C	 2.236682295	-0.0383374359	-1.0850002072	-0.393799
C	 0.6945118974	-1.9957908126	-1.2967107756	 0.415677
O	 0.5439473783	-2.6613228169	-0.2826422074	-0.390452
N	 0.8380331076	-2.593830558	-2.5282717319	-0.092246
C	 0.7808235519	-4.0448060637	-2.6105150359	-0.344119
C	 1.0546912939	-1.9255220981	-3.7958642445	-0.335848
H	 0.7376842067	 2.021818314	 0.2756391643	 0.116303
H	-0.6415448309	 1.9671682082	-0.8293183375	 0.107617
H	-0.8910308415	 1.8055597092	 0.9118936861	 0.115036
H	 0.3282122069	-0.40220236	 0.9031891966	 0.118469
H	-1.0914363387	-0.4299474169	-0.1091091062	 0.099749
H	 0.3384749737	-0.0142525066	-2.1151495308	 0.075301
H	 2.3324135888	 1.0489507089	-1.025299118	 0.11986
H	 2.6758485185	-0.4720985612	-0.180909451	 0.134811
H	 2.8313037487	-0.3767317238	-1.9392178592	 0.113178
H	-0.0261548054	-4.3601076673	-3.2844629771	 0.116725
H	 1.7247818566	-4.4488593975	-2.9988724968	 0.117146
H	 0.5997165672	-4.438370979	-1.6124266961	 0.17013
H	 1.185464886	-0.8537263533	-3.6713036652	 0.142932
H	 1.9570127145	-2.3198408254	-4.2820726398	 0.124935
H	 0.2109966641	-2.0937028403	-4.4797681923	 0.122747
26.5989	68.7906	74.9081	99.7388	137.4268	170.357	212.8614	218.7684	250.0698	274.8855	303.5004	337.6294	388.2367	424.1628	496.7466	617.1269	742.4011	758.3477	788.4273	849.3032	957.4246	974.9711	989.2677	1039.8268	1077.16	1098.1655	1118.2932	1130.8183	1145.4804	1179.4493	1203.2513	1275.8325	1284.2675	1315.1173	1349.5459	1377.0888	1402.9784	1414.2811	1420.8614	1435.0741	1473.2049	1480.6239	1483.897	1494.155	1501.3241	1502.2663	1505.301	1508.0957	1510.3581	1542.315	1740.6385	3000.5636	3011.648	3028.4132	3038.3313	3040.3393	3041.1342	3045.713	3054.967	3080.5153	3101.0134	3103.7388	3108.4765	3118.7381	3174.3429	3179.7396
CCC(C)C(=O)N(C)C	CC[C@@H](C)C(=O)N(C)C	
InChI=1S/C7H15NO/c1-5-6(2)7(9)8(3)4/h6H,5H2,1-4H3	InChI=1S/C7H15NO/c1-5-6(2)7(9)8(3)4/h6H,5H2,1-4H3/t6-/m1/s1
