18
gdb 41656	3.24993	1.99532	1.65343	1.2107	73.43	-0.2263	0.091	0.3173	858.9885	0.151317	-401.876093	-401.870035	-401.869091	-401.906153	25.961	
C	-0.0060451883	 1.5728379449	-0.0200002601	-0.107404
O	 1.2583428041	 2.2060174238	-0.0767265163	-0.241274
C	 2.046310916	 1.6875426068	-1.1317627826	-0.107404
C	 2.1700376252	 0.1748050077	-1.0685253414	 0.015367
C	 2.4627826767	-0.538945255	 0.2435225003	-0.090942
C	 1.1091283688	-0.6146023442	 0.976794776	-0.090942
C	 1.4435204516	-1.5744235652	-0.1249272808	-0.037364
N	 0.8416205918	-0.5755895115	-1.1330039107	-0.202885
C	 0.1100839809	 0.0596756832	 0.0473490732	 0.015367
H	-0.508719307	 1.9599502263	 0.8722784922	 0.109412
H	-0.6152813905	 1.8417030214	-0.900389033	 0.095315
H	 1.6180161771	 1.9665160461	-2.1101692235	 0.095315
H	 3.0312398982	 2.1577992182	-1.0453226548	 0.109412
H	 2.8036208804	-0.1886288831	-1.8840192163	 0.079088
H	 3.3970904735	-0.6674550561	 0.7755560493	 0.089959
H	 1.0578670276	-0.7981952255	 2.0427082011	 0.089959
H	 1.4481661497	-2.6496573783	-0.2272889833	 0.099934
H	-0.883749832	-0.3947145101	 0.1134252242	 0.079088
231.8632	247.7922	379.1824	382.0841	459.6161	619.6848	700.7516	769.7465	775.84	798.1589	810.3229	837.1226	870.2031	885.5363	886.0611	901.3435	990.6902	1010.3079	1029.4403	1031.7456	1049.1039	1052.6261	1086.2774	1095.3409	1136.6869	1168.9302	1179.9333	1219.7525	1255.9397	1263.6278	1281.3303	1330.8445	1356.2789	1366.0515	1381.9585	1385.4236	1423.708	1475.7255	1491.1904	2959.6766	2965.2108	3056.971	3058.5331	3075.4503	3077.9659	3188.0119	3194.3562	3226.0692
C1OCC2C3C4C3N2C14	C1OC[C@H]2[C@H]3[C@@H]4[C@H]3N2[C@H]14	
InChI=1S/C7H9NO/c1-3-5-6-4(2-9-1)8(3)7(5)6/h3-7H,1-2H2	InChI=1S/C7H9NO/c1-3-5-6-4(2-9-1)8(3)7(5)6/h3-7H,1-2H2/t3-,4+,5-,6+,7-
