14
gdb 17222	5.60272	1.73	1.58365	1.9903	68.76	-0.2288	0.0162	0.245	809.9574	0.106627	-345.296566	-345.290286	-345.289342	-345.326705	25.162	
C	-0.0226447319	-1.0891218796	-0.0135407542	-0.376323
C	-0.0197434097	 0.1136576228	 0.0022088686	 0.160073
C	-0.0095251285	 1.5306424599	 0.0159510267	 0.387422
O	-1.0082879042	 2.2744111014	 0.7257967891	-0.334147
C	-0.5244866096	 3.4488940548	 0.0170644902	 0.045458
C	 0.8672336079	 3.7090564566	 0.6519902921	-0.234216
C	 1.274636644	 2.4086606362	-0.0382016947	-0.163185
C	 0.1705185232	 2.5500587903	-1.0718846184	-0.202971
H	-0.0299154958	-2.1508934704	-0.0252259039	 0.18794
H	-1.2815501933	 4.2173627735	-0.116391307	 0.094266
H	 1.3662377374	 4.5686490652	 0.1971280308	 0.109034
H	 0.8992394273	 3.7705156722	 1.7434105399	 0.109149
H	 2.2538973397	 1.9642995633	-0.1560113433	 0.105725
H	 0.1402724435	 2.4802953237	-2.1498600457	 0.111774
154.7194	160.3703	407.6961	472.3403	487.2697	543.3507	569.3807	588.2707	696.5176	750.6325	785.5502	797.6163	844.6857	887.8931	932.1019	937.4721	954.9886	1000.0609	1019.8493	1068.7665	1096.5896	1124.0951	1153.0073	1177.6993	1243.0603	1271.7549	1294.5388	1394.819	1484.6032	2238.8665	3055.9529	3118.2944	3157.3576	3209.2472	3221.7961	3502.5854
C#CC12OC3CC1C23	C#C[C@@]12O[C@H]3C[C@@H]1[C@@H]23	
InChI=1S/C7H6O/c1-2-7-4-3-5(8-7)6(4)7/h1,4-6H,3H2	InChI=1S/C7H6O/c1-2-7-4-3-5(8-7)6(4)7/h1,4-6H,3H2/t4-,5+,6-,7-/m1/s1
