22
gdb 14798	11.7653	0.56342	0.54877	0.0008	77.73	-0.2484	0.0879	0.3363	2091.3229	0.197377	-387.329722	-387.319026	-387.318081	-387.366658	35.87	
C	 0.6136217349	 0.9871107628	-1.1509484472	-0.384781
C	-0.1104170111	 0.0951230603	-0.1568850669	-0.024314
O	 0.7494462036	-0.1535168044	 0.9359936806	-0.245941
C	 0.1728686819	-0.9759537736	 1.9229614504	-0.06804
C	 1.1985380976	-1.1596041939	 3.0308680932	-0.06804
O	 0.6221527606	-1.9824760701	 4.0175865422	-0.245942
C	 1.4818185638	-2.2306675873	 5.1107225985	-0.024313
C	 0.7578731192	-3.1228535701	 6.1046767535	-0.384782
H	 1.5260774149	 0.5014251365	-1.5084221281	 0.126042
H	-0.0279359958	 1.1986016085	-2.0116129281	 0.114005
H	 0.8919187081	 1.9358081106	-0.683215146	 0.126037
H	-1.0388362801	 0.5781316698	 0.1927992714	 0.08536
H	-0.404661	-0.8561261481	-0.6323811096	 0.085358
H	-0.7422035287	-0.5219764924	 2.3372006498	 0.093131
H	-0.1069923031	-1.9592060608	 1.5107416586	 0.093145
H	 2.1138652832	-1.6130587361	 2.6166380913	 0.093145
H	 1.4779029251	-0.1763315304	 3.4433932266	 0.093131
H	 2.4104526843	-2.7134514024	 4.7612809999	 0.085357
H	 1.7756926269	-1.2792887164	 5.5861756238	 0.08536
H	-0.1548708112	-2.6374899668	 6.4618486456	 0.126038
H	 0.4800776912	-4.0717134513	 5.6369730321	 0.126041
H	 1.3992873646	-3.3340114346	 6.9655302782	 0.114006
45.4313	67.8441	84.5655	102.0161	119.5851	158.6003	204.9382	244.2708	246.0415	309.5386	365.2504	508.9601	510.0472	818.9988	821.8791	837.4006	884.4498	911.64	1038.8668	1053.9941	1078.1394	1139.0087	1160.0692	1161.0563	1176.8491	1181.7497	1185.8548	1201.6019	1235.4677	1289.9945	1296.0648	1296.329	1345.9815	1393.3305	1402.1334	1411.7932	1437.2732	1467.8504	1483.5142	1483.5313	1499.646	1499.8132	1514.1389	1521.4164	1538.859	1541.4947	2951.3418	2951.3734	2966.8374	2971.3606	2977.187	2977.5771	2984.5986	3011.8882	3044.6039	3044.6935	3118.9972	3118.9988	3120.9229	3120.9742
CCOCCOCC	CCOCCOCC	
InChI=1S/C6H14O2/c1-3-7-5-6-8-4-2/h3-6H2,1-2H3	InChI=1S/C6H14O2/c1-3-7-5-6-8-4-2/h3-6H2,1-2H3
