16
gdb 56070	5.26786	0.62615	0.58132	6.4963	72.83	-0.2374	-0.0185	0.2188	1819.4015	0.122207	-471.241312	-471.231481	-471.230536	-471.277917	33.546	
N	-0.3043856823	 1.4954624067	 0.0975555675	-0.562874
C	 0.0381557537	 0.1946180465	-0.2542776051	 0.459562
O	 0.9771520569	-0.0834282983	-0.955393561	-0.333468
N	-0.8072065604	-0.7407386389	 0.3677927896	-0.37798
C	-0.82742348	-2.1161624123	 0.1891132389	 0.10834
N	-0.2296770852	-2.738333335	-0.7331167384	-0.18702
C	-0.3556162297	-4.1754653302	-0.7547006956	-0.231584
C	 1.0200231013	-4.8341956737	-0.7379817066	 0.153802
O	 1.2229358789	-5.9471577707	-0.3292935727	-0.239405
H	 0.2017469165	 2.1821170092	-0.4416970497	 0.268109
H	-1.2820466673	 1.7128415616	 0.2222519544	 0.251632
H	-1.3595514251	-0.4004254497	 1.1382548802	 0.254782
H	-1.4570115945	-2.6066269954	 0.9469588033	 0.090086
H	-0.962446109	-4.6063164635	 0.0586280387	 0.105983
H	-0.8215591713	-4.4781430918	-1.7061751589	 0.135841
H	 1.8273265872	-4.1945665543	-1.1546969446	 0.104195
40.9517	48.9778	73.7604	108.4346	154.6282	248.1977	341.0227	356.3258	396.2951	402.3353	492.2796	525.6057	559.2252	583.2809	736.4631	766.563	822.403	888.8803	982.2141	1037.9975	1075.7305	1098.9323	1125.9357	1209.9166	1245.5195	1303.4046	1322.1264	1402.4611	1427.9459	1457.9102	1534.4108	1628.197	1765.5081	1837.0671	1854.9338	2912.6922	2965.8608	2999.1025	3010.1773	3571.6925	3641.6335	3685.767
NC(=O)NC=NCC=O	NC(=O)NC=NCC=O	
InChI=1S/C4H7N3O2/c5-4(9)7-3-6-1-2-8/h2-3H,1H2,(H3,5,6,7,9)	InChI=1S/C4H7N3O2/c5-4(9)7-3-6-1-2-8/h2-3H,1H2,(H3,5,6,7,9)
