13
gdb 19043	4.46039	2.2825	1.93719	3.7965	56.74	-0.2659	-0.0123	0.2536	685.9552	0.097854	-398.58262	-398.577256	-398.576312	-398.612019	21.349	
O	-0.0110043533	-0.00505053	-0.2806777506	-0.339521
C	 0.0001625941	 1.1618486451	-0.0243433467	 0.458738
O	-1.136923358	 1.8843909288	 0.2371363613	-0.229661
C	-0.7412499438	 3.2046941605	 0.6281784547	 0.050954
C	 0.0565832375	 3.1082127309	 1.9442294842	-0.16899
N	 1.3531674586	 3.0449170361	 1.1870837675	-0.146347
C	 0.6269580997	 3.4856480799	-0.0453091485	-0.055018
C	 1.1648557793	 2.1126980808	 0.014306376	-0.187726
H	-1.5899256398	 3.8757057217	 0.5238989845	 0.110227
H	 0.0539875672	 4.0362308154	 2.5198666341	 0.128991
H	-0.1648057743	 2.254006767	 2.5908063569	 0.128413
H	 0.9490313918	 4.2928405258	-0.6909470876	 0.117065
H	 2.0935414611	 1.812328718	-0.4506262459	 0.132873
164.6034	353.8533	453.509	456.7664	640.0542	674.4886	715.2389	776.0596	811.7274	861.0743	889.8383	893.7245	923.2214	962.748	996.4414	1049.2899	1051.1733	1107.5221	1149.0062	1180.4638	1193.767	1228.6639	1267.978	1303.8425	1334.8313	1362.462	1493.2501	1888.3678	3060.4091	3126.9331	3156.8847	3198.5029	3226.363
O=C1OC2CN3C2C13	O=C1O[C@H]2CN3[C@H]2[C@H]13	
InChI=1S/C5H5NO2/c7-5-4-3-2(8-5)1-6(3)4/h2-4H,1H2	InChI=1S/C5H5NO2/c7-5-4-3-2(8-5)1-6(3)4/h2-4H,1H2/t2-,3+,4+,6?/m0/s1
