21
gdb 70737	2.52428	1.60227	1.20392	2.007	78.27	-0.2402	0.0825	0.3228	1109.698	0.183792	-424.217533	-424.209307	-424.208363	-424.249789	32.939	
C	-0.0392921529	 1.5438958967	 0.0425722594	-0.44889
C	 0.0304591819	 0.0326971335	 0.0032730547	 0.417757
C	-0.8505584917	-0.7703434739	 0.9139746153	-0.351319
C	 0.6508402096	-0.742976208	 1.1436520949	-0.077367
C	 1.4955548973	-1.9803086256	 0.8739998668	-0.230264
C	 2.6538990993	-1.7335307986	-0.0986909304	-0.072593
O	 2.2278070689	-1.6531968359	-1.451660585	-0.227326
C	 1.4996394187	-0.5092769733	-1.789414905	 0.008715
O	 0.1783312924	-0.4983800638	-1.2957247121	-0.280811
H	 0.8849192681	 2.0052020523	-0.3224171398	 0.115636
H	-0.8639301899	 1.8987409859	-0.5843350735	 0.126669
H	-0.2066560705	 1.8987541888	 1.0636331763	 0.115812
H	-1.5042065562	-0.2425863185	 1.6002284208	 0.108354
H	-1.262225756	-1.6858004456	 0.5033264794	 0.12356
H	 0.9962183315	-0.1349294496	 1.9764956759	 0.083066
H	 1.8995018639	-2.3541639047	 1.8228425028	 0.097568
H	 0.8822654304	-2.7840234644	 0.4543290283	 0.115293
H	 3.2045678614	-0.8196991342	 0.1807666726	 0.084714
H	 3.3578929161	-2.5712250273	-0.0683078616	 0.105438
H	 2.0387966929	 0.3952594434	-1.4610935597	 0.074794
H	 1.4158494047	-0.5213546572	-2.87872302	 0.111193
144.2137	157.6738	213.42	277.9054	304.7614	340.7534	387.5506	392.1051	428.7584	479.881	556.4115	649.2066	702.5636	766.9583	851.3219	873.3277	915.077	942.1286	964.3202	971.5431	1019.3294	1049.8371	1064.7201	1077.8996	1116.7564	1130.5819	1137.4007	1156.2111	1197.6018	1230.6945	1280.1049	1294.9673	1311.5258	1344.2523	1367.5711	1406.0876	1411.2272	1424.474	1448.5943	1470.6208	1483.1636	1485.5836	1490.9419	1501.6591	1503.7407	2961.0535	2970.7387	3031.6802	3032.6698	3075.9051	3083.2446	3094.8876	3103.4341	3110.947	3130.0817	3133.7979	3221.6528
CC12CC1CCOCO2	C[C@]12C[C@H]1CCOCO2	
InChI=1S/C7H12O2/c1-7-4-6(7)2-3-8-5-9-7/h6H,2-5H2,1H3	InChI=1S/C7H12O2/c1-7-4-6(7)2-3-8-5-9-7/h6H,2-5H2,1H3/t6-,7+/m1/s1
