18
gdb 105597	2.01891	1.46068	1.22038	1.1076	73.96	-0.2513	-0.0574	0.1939	1141.0931	0.145349	-439.092149	-439.082792	-439.081847	-439.126695	33.384	
C	 0.1445655363	 1.5357294938	 0.2108945612	-0.397103
C	-0.0560615061	 0.0387642798	-0.0407617854	-0.222628
C	 0.6982508745	-0.4597237656	-1.2813063277	 0.094996
N	 2.177492866	-0.3665572638	-1.2332803225	-0.354967
C	 2.3635158507	-1.8140558973	-1.5397821791	-0.27666
C	 0.855503847	-2.0106559575	-1.3818066052	 0.336062
O	 0.102983224	-2.9304663915	-1.2980497644	-0.280459
C	 0.102388515	 0.095552092	-2.5620295025	 0.121976
O	 0.765130255	 0.564746436	-3.453344861	-0.256342
H	 1.2095250564	 1.7633543345	 0.3120009516	 0.141696
H	-0.2541709967	 2.1436565699	-0.6087940145	 0.121044
H	-0.359798675	 1.8445582988	 1.1308409721	 0.122242
H	 0.2949496767	-0.5339130464	 0.8236220094	 0.114995
H	-1.119237308	-0.2012106906	-0.1650251205	 0.114404
H	 2.5114864911	 0.2267561612	-1.988851158	 0.237437
H	 2.7048338104	-2.038736854	-2.5589446524	 0.140774
H	 2.9926953459	-2.3576747827	-0.8274027199	 0.141047
H	-1.0041573531	 0.0304214535	-2.6286418911	 0.101488
83.998	99.7245	103.559	137.6956	210.2375	245.9544	285.1339	303.9372	353.7025	507.0087	546.8032	601.9149	632.7389	774.0555	797.3933	811.2038	878.8805	938.4032	988.3218	998.5189	1023.9721	1041.9178	1057.7408	1125.2237	1142.8658	1186.6257	1206.881	1281.7218	1301.0848	1356.3128	1397.4927	1403.2544	1411.1288	1467.8742	1479.6901	1495.9981	1507.3424	1802.8629	1910.5316	2913.1667	3023.401	3036.7922	3038.21	3077.5319	3080.0974	3106.6521	3120.9416	3504.1409
CCC1(NCC1=O)C=O	CC[C@]1(NCC1=O)C=O	
InChI=1S/C6H9NO2/c1-2-6(4-8)5(9)3-7-6/h4,7H,2-3H2,1H3	InChI=1S/C6H9NO2/c1-2-6(4-8)5(9)3-7-6/h4,7H,2-3H2,1H3/t6-/m0/s1
