14
gdb 28009	3.76587	1.11823	0.86221	2.3174	69.98	-0.2145	-0.0261	0.1884	1226.7988	0.100621	-473.866783	-473.858613	-473.857669	-473.899402	30.325	
O	 0.0481030278	 1.3814207625	-0.0548132513	-0.44557
C	 0.0579503561	 0.0274307036	-0.0584322109	 0.261332
C	-0.0053535268	-0.7977174002	-1.1399537608	-0.178128
N	 0.0349902025	-2.1118022459	-0.6637641938	-0.036549
C	-0.006852472	-3.2476030112	-1.4483737942	 0.176449
O	 0.0292008127	-4.3737241856	-1.0174060912	-0.310343
C	 0.1241055701	-2.1068643399	 0.7272926143	-0.218069
C	 0.1391315612	-0.8006332545	 1.1164702752	 0.197159
O	 0.2133428811	-0.2181504429	 2.3432003322	-0.455404
H	 0.1058427793	 1.6714177036	 0.8632033325	 0.310461
H	-0.0744400293	-0.5850216129	-2.1927417879	 0.142477
H	-0.0774583377	-2.9960324266	-2.5219392072	 0.093593
H	 0.1656597399	-3.0360158841	 1.2681577591	 0.152743
H	 0.2612419753	-0.893539076	 3.0267629939	 0.309849
107.6641	194.7814	223.6799	225.9809	252.7328	308.8592	351.7677	402.9252	452.4815	543.3316	591.4433	625.6562	639.4367	722.4178	742.2091	770.3786	845.3513	996.417	1019.3059	1140.7217	1180.9021	1217.2909	1239.2632	1303.9247	1369.0433	1429.1258	1449.092	1497.7716	1618.3966	1702.2574	1810.1959	2977.1083	3282.0244	3289.7013	3806.0583	3838.0281
OC1=CN(C=O)C=C1O	Oc1cn(C=O)cc1O	
InChI=1S/C5H5NO3/c7-3-6-1-4(8)5(9)2-6/h1-3,8-9H	InChI=1S/C5H5NO3/c7-3-6-1-4(8)5(9)2-6/h1-3,8-9H
