23
gdb 72537	2.47274	1.61923	1.59781	1.4152	83.75	-0.2313	0.07	0.3013	1040.521	0.208788	-388.324047	-388.315822	-388.314878	-388.357002	33.199	
C	-0.0792944468	 1.5339146506	 0.0121310697	-0.441726
C	 0.0387236936	 0.0163253073	 0.0022210416	 0.373634
C	 0.7424643038	-0.5031579091	-1.2678324685	-0.218741
C	 0.7159463301	-2.0575483703	-1.2736178801	-0.218019
C	-0.0194716083	-2.5405995938	-0.0116471624	-0.024489
C	 0.7456139567	-2.0719734616	 1.2381002486	-0.218191
C	 0.7663556547	-0.5175773386	 1.2526816438	-0.218874
C	-1.4103242313	-1.9020993985	 0.0083852776	-0.058201
O	-1.3131940436	-0.4753579118	 0.0119624048	-0.307862
H	 0.9107388705	 2.0002279024	 0.0041552436	 0.108158
H	-0.6335051433	 1.8786185361	-0.8656505911	 0.117652
H	-0.6145483276	 1.8686604043	 0.9054010006	 0.117584
H	 0.2217777592	-0.0997228969	-2.1415812723	 0.09845
H	 1.7686361455	-0.12168492	-1.3013898411	 0.091801
H	 0.2060292847	-2.4315688779	-2.1675409691	 0.095338
H	 1.7299997547	-2.4704992648	-1.2936587209	 0.091759
H	-0.1215929104	-3.6308019138	-0.0167599285	 0.059664
H	 0.2599191112	-2.4600680312	 2.1394657659	 0.095339
H	 1.7613732152	-2.4810942519	 1.2268020567	 0.091758
H	 1.7914948273	-0.1325338686	 1.2739603708	 0.091867
H	 0.2590865306	-0.1278501489	 2.1404590317	 0.098499
H	-1.9928411033	-2.211106157	-0.8722046131	 0.087418
H	-1.9701959633	-2.217869386	 0.9012696613	 0.087184
33.122	210.5076	242.1113	253.3694	323.9748	328.3863	388.0972	427.9687	518.5749	536.9845	548.8993	717.5621	797.1651	811.2992	817.6518	874.3031	883.9749	918.3571	928.0116	950.9792	960.6726	1026.8066	1031.3227	1061.1337	1081.0397	1094.6076	1135.0991	1151.9659	1191.5531	1212.4634	1233.5243	1241.9145	1272.2187	1290.6977	1297.8846	1331.6665	1340.1664	1366.056	1369.2561	1382.4613	1404.3876	1412.1019	1470.8202	1482.2587	1484.7437	1495.3115	1498.185	1505.1267	1528.5683	2980.6925	3008.5002	3030.5504	3031.7418	3038.3176	3042.6105	3046.8587	3058.4429	3064.8066	3067.6446	3088.5232	3093.3533	3114.5154	3115.6104
CC12CCC(CC1)CO2	C[C@@]12CC[C@@H](CC1)CO2	
InChI=1S/C8H14O/c1-8-4-2-7(3-5-8)6-9-8/h7H,2-6H2,1H3	InChI=1S/C8H14O/c1-8-4-2-7(3-5-8)6-9-8/h7H,2-6H2,1H3/t7-,8+
