19
gdb 107681	3.09086	1.32824	1.09983	1.8821	71.15	-0.2357	0.0708	0.3065	1136.8299	0.1594	-460.127491	-460.119121	-460.118177	-460.160585	32.062	
O	 0.0489558123	 1.367519091	 0.3603204292	-0.418327
C	-0.0470752935	 0.058949647	-0.1690098345	-0.107066
C	-1.4268183949	-0.5246470907	 0.0193136232	 0.360612
C	-1.79402427	-1.1931742553	 1.3222675385	-0.365088
C	-1.629523494	-2.0140695524	 0.0541985104	 0.019298
O	-2.7887397889	-2.5491269131	-0.5231732041	-0.258579
C	-3.3036938944	-1.7419982279	-1.5731880905	-0.082274
C	-3.5562890129	-0.3276849905	-1.0763776194	-0.090322
O	-2.3439050513	 0.294247593	-0.6682251513	-0.317321
H	-0.6858473397	 1.8641626672	-0.0176246954	 0.292684
H	 0.1986636041	 0.0424834511	-1.2431519557	 0.088613
H	 0.69363631	-0.551966949	 0.3562771527	 0.104684
H	-1.0364804949	-1.2517720069	 2.0961129893	 0.120122
H	-2.8115600624	-1.0953226194	 1.6838171596	 0.12291
H	-0.765852498	-2.6691936064	-0.0472273556	 0.095961
H	-2.609050323	-1.7187277132	-2.4269089486	 0.100292
H	-4.2385615744	-2.2102912347	-1.8934906092	 0.115204
H	-3.9695592155	 0.300829972	-1.8709995404	 0.113683
H	-4.2775038187	-0.3552638615	-0.2457448783	 0.104914
81.7722	111.4446	149.8599	259.4347	332.9192	356.8458	392.3079	415.031	426.1831	499.3322	532.5369	680.0048	727.7847	797.8544	880.2075	891.9967	912.6746	958.5014	972.415	1033.7369	1042.3743	1059.8599	1083.8879	1101.9117	1119.728	1136.4287	1169.6154	1209.2358	1257.6371	1275.6997	1293.0558	1319.8569	1377.0894	1381.8373	1404.0315	1418.2457	1440.5383	1473.2701	1491.0748	1495.2655	1500.5572	2975.8892	2988.2194	2999.2191	3081.431	3085.8893	3096.2512	3113.0378	3134.9483	3225.8294	3803.8947
OCC12CC1OCCO2	OC[C@]12C[C@H]1OCCO2	
InChI=1S/C6H10O3/c7-4-6-3-5(6)8-1-2-9-6/h5,7H,1-4H2	InChI=1S/C6H10O3/c7-4-6-3-5(6)8-1-2-9-6/h5,7H,1-4H2/t5-,6-/m1/s1
