21
gdb 104287	2.16412	1.33566	1.07244	4.0156	79.49	-0.2388	-0.0126	0.2262	1248.1964	0.179603	-424.218178	-424.208175	-424.207231	-424.253345	36.338	
C	 0.0189051432	 1.4284211954	 0.2408001488	-0.254843
O	-0.1075725417	 0.0489232546	 0.5155817844	-0.283281
C	-1.3103133056	-0.5613953438	 0.0882193331	 0.428463
C	-2.5317138262	-0.0298723365	 0.8338772685	-0.449993
C	-1.5208547467	-0.6839669222	-1.453918802	-0.279647
C	-1.786529195	-2.1993865928	-1.2640590779	-0.246864
C	-1.1923098435	-2.1199460628	 0.1805314637	-0.157336
C	 0.2314162119	-2.6143497296	 0.2429399042	 0.182734
O	 0.649190376	-3.3720385536	 1.0805018685	-0.263281
H	 1.0444962677	 1.706323223	 0.4946465054	 0.133335
H	-0.1528825037	 1.653471201	-0.8220160219	 0.108444
H	-0.6665292682	 2.0415017046	 0.8415101173	 0.112938
H	-2.7283629648	 1.0177294387	 0.5854035933	 0.119195
H	-3.4252189784	-0.6024815756	 0.5674656525	 0.121815
H	-2.3786717305	-0.1113554549	 1.9143276122	 0.130904
H	-2.3170124846	-0.0845724118	-1.9018342842	 0.099495
H	-0.5880972662	-0.4957242121	-1.9919713344	 0.112209
H	-2.8478894731	-2.4541830674	-1.2516000843	 0.116273
H	-1.2791094063	-2.8760538451	-1.9556176456	 0.111922
H	-1.7591200815	-2.5931636468	 0.9844668287	 0.085816
H	 0.8887360271	-2.2491899321	-0.5772969404	 0.071701
69.8315	83.1196	102.4468	172.0892	181.1059	248.6789	287.16	292.9265	337.2881	386.8408	419.7128	464.2581	505.8156	646.1053	728.1706	864.4021	871.8437	894.4862	922.9084	947.9256	964.4254	1000.7001	1029.8412	1102.6105	1144.3684	1169.9578	1178.3888	1180.4669	1203.1786	1221.7195	1232.4714	1259.7895	1273.9346	1284.8585	1312.5845	1403.733	1438.1417	1471.8535	1474.0399	1483.516	1488.4484	1492.7648	1503.6951	1509.837	1829.6155	2880.6573	2990.4363	3036.2291	3044.8551	3059.266	3069.6306	3096.3023	3107.5789	3109.1731	3115.685	3117.197	3127.7516
COC1(C)CCC1C=O	CO[C@@]1(C)CC[C@H]1C=O	
InChI=1S/C7H12O2/c1-7(9-2)4-3-6(7)5-8/h5-6H,3-4H2,1-2H3	InChI=1S/C7H12O2/c1-7(9-2)4-3-6(7)5-8/h5-6H,3-4H2,1-2H3/t6-,7-/m0/s1
