18
gdb 62315	3.86701	1.29096	1.12612	1.3859	82.86	-0.2251	0.0305	0.2556	1108.1044	0.146219	-364.674325	-364.666134	-364.66519	-364.706624	32.562	
C	-0.0319170544	 1.6069846479	 0.033970188	-0.494764
C	 0.0584863802	 0.0765841699	-0.0557427752	 0.112868
C	-1.0267078981	-0.5664372843	 0.6539382946	 0.268267
C	-1.9302289163	-1.0898861797	 1.2518336797	-0.448294
C	 0.4639868576	-0.7494539327	-1.2684232305	-0.110361
C	 1.7735762958	-0.3042055773	-1.9476379417	-0.063884
C	 2.5619446942	 0.7721802155	-1.2996714369	-0.250379
N	 2.5793257696	-0.5715706664	-0.699678903	-0.14867
C	 1.2735491378	-0.8820922887	-0.0074094801	-0.043888
H	 0.1922723271	 2.0872373726	-0.9194914712	 0.135301
H	-1.0527010211	 1.8837343475	 0.3073893986	 0.131831
H	 0.6339383773	 2.0129167526	 0.8016989642	 0.135284
H	-2.7296210584	-1.5474397771	 1.7799329998	 0.193549
H	-0.2126701446	-1.4559429724	-1.7304228435	 0.106607
H	 2.0810514471	-0.7366585063	-2.8946463502	 0.106756
H	 3.5115848051	 0.9989949001	-1.7786789314	 0.122597
H	 2.1253483409	 1.6072473039	-0.7764851407	 0.129001
H	 1.2973992703	-1.6658254351	 0.7380349197	 0.118179
102.3941	154.2164	192.8777	229.5917	320.4054	352.7879	430.2034	515.295	522.8238	576.6152	583.4459	652.9588	671.6764	686.7897	739.4384	803.4711	845.5658	851.3087	929.6999	971.2542	977.8771	1004.6751	1037.0466	1054.4268	1080.7908	1091.493	1115.2045	1134.1345	1179.9597	1227.828	1258.6046	1271.2245	1327.0694	1373.7362	1412.0372	1492.0991	1503.7358	1515.2432	2227.7098	3046.4533	3114.754	3130.3741	3134.324	3158.4805	3196.2922	3206.7785	3274.2748	3503.2867
CC1(C#C)C2C3CN3C12	C[C@@]1(C#C)[C@H]2[C@H]3CN3[C@@H]12	
InChI=1S/C8H9N/c1-3-8(2)6-5-4-9(5)7(6)8/h1,5-7H,4H2,2H3	InChI=1S/C8H9N/c1-3-8(2)6-5-4-9(5)7(6)8/h1,5-7H,4H2,2H3/t5-,6+,7-,8-,9?/m1/s1
