21
gdb 42134	1.94421	1.84955	1.10925	1.0444	80.19	-0.2431	-0.006	0.2371	1148.4193	0.184502	-424.20013	-424.191745	-424.190801	-424.23291	32.703	
C	 0.0002355991	 1.5713635151	-0.1070107713	-0.210761
C	 1.4084898169	 2.1540907948	 0.0690534294	-0.072697
O	 2.0751813098	 1.6405181996	 1.213868702	-0.250767
C	 3.2494257578	 0.8635404155	 0.9969922158	-0.128718
C	 3.0097728968	-0.6342873392	 1.0673881886	-0.043531
C	 2.4076379819	-1.3767436225	 0.136463655	-0.076203
C	 1.8400206132	-0.8583600999	-1.1582195834	-0.102488
O	 0.4243645779	-0.6757280872	-1.1377308922	-0.262
C	-0.1321849861	 0.0460204504	-0.0474449993	-0.062804
H	-0.6390127611	 1.9682474777	 0.6926860402	 0.103683
H	-0.409698489	 1.9443850525	-1.054204697	 0.100909
H	 2.0115757612	 1.9938613442	-0.8328578148	 0.098389
H	 1.3234215678	 3.2420677423	 0.1977562659	 0.098319
H	 3.712476513	 1.1403898117	 0.0398932805	 0.103537
H	 3.953822254	 1.1477961641	 1.7859535237	 0.1073
H	 3.3411794848	-1.1209815663	 1.9822717738	 0.095869
H	 2.250739527	-2.4359819437	 0.3304357509	 0.096513
H	 2.3506795062	 0.066313845	-1.4558414504	 0.085803
H	 2.0068620991	-1.5874656875	-1.9580874407	 0.108768
H	 0.2737129118	-0.3107519027	 0.906225464	 0.108074
H	-1.1974330621	-0.2065900839	-0.0705635305	 0.102807
103.7084	168.8883	188.947	201.0145	269.5077	333.7839	382.7276	394.6754	470.4537	531.4565	545.4534	634.77	754.5391	758.5653	830.5167	876.6061	908.8185	948.4457	988.0773	998.8737	1014.0274	1044.2688	1054.5648	1091.7858	1114.6067	1149.06	1156.7848	1245.3068	1265.7956	1278.6713	1299.159	1305.3323	1339.6161	1379.6442	1392.5711	1400.331	1404.5328	1429.2681	1430.1766	1464.9018	1491.2642	1495.5154	1498.0617	1524.026	1714.8335	3000.3541	3007.2623	3017.5779	3023.3247	3036.8382	3044.5848	3064.5779	3066.1731	3070.8387	3082.8787	3137.3882	3161.1919
C1COCC=CCOC1	C1COCC=CCOC1	
InChI=1S/C7H12O2/c1-2-5-9-7-3-6-8-4-1/h1-2H,3-7H2/b2-1-	InChI=1S/C7H12O2/c1-2-5-9-7-3-6-8-4-1/h1-2H,3-7H2/b2-1-
