14
gdb 133731	3.86864	0.87333	0.82312	3.4217	51.66	-0.2878	-0.0009	0.287	1352.3794	0.095272	-605.365498	-605.35628	-605.355336	-605.402315	30.887	
C	-0.0728111224	 1.3793219704	 0.1162995198	-0.244137
O	 0.0264560394	-0.0454008699	-0.031975414	-0.236061
C	 0.6529025359	-0.4638865993	-1.1464122407	 0.465306
O	 1.111754099	 0.2650074109	-1.9838504419	-0.338777
C	 0.6802165695	-1.982583981	-1.166938421	-0.488157
C	 1.3766406708	-2.5609424778	-2.3843491588	 0.303788
F	 2.6568769347	-2.1849227011	-2.4552873776	-0.07037
F	 1.3536552638	-3.9047352025	-2.3165245286	-0.083737
F	 0.7737049643	-2.2066116984	-3.5228226489	-0.070138
H	 0.9213392137	 1.8315973262	 0.1461422962	 0.147075
H	-0.6329322957	 1.8129535313	-0.7156116958	 0.146917
H	-0.5968444136	 1.5416364716	 1.057720716	 0.13896
H	 1.1851898684	-2.3495065918	-0.2693166658	 0.164601
H	-0.3437528579	-2.3648283687	-1.1370148989	 0.16473
8.5758	82.2137	118.4719	131.0829	169.3579	265.9831	327.4833	340.8699	359.2644	526.3559	531.8843	602.8182	659.224	736.1174	863.6542	915.807	941.3385	1024.7251	1139.5014	1143.5766	1179.583	1209.7396	1242.9123	1294.4515	1308.678	1398.0711	1446.7514	1474.8076	1481.9905	1497.3296	1839.9975	3055.6026	3079.0117	3124.5924	3132.2752	3165.2777
COC(=O)CC(F)(F)F	COC(=O)CC(F)(F)F	
InChI=1S/C4H5F3O2/c1-9-3(8)2-4(5,6)7/h2H2,1H3	InChI=1S/C4H5F3O2/c1-9-3(8)2-4(5,6)7/h2H2,1H3
