17
gdb 73080	2.41781	1.89788	1.36997	3.0244	74.17	-0.2431	-0.0552	0.1879	969.4167	0.136677	-421.848996	-421.841389	-421.840445	-421.881115	29.708	
O	 0.115115616	 1.3271841057	-0.2893661809	-0.483622
C	 0.018434107	-0.0431848997	-0.0326027747	 0.327941
C	 0.3255517141	-0.991967912	-1.2476011097	-0.282611
C	-1.1269714034	-1.5378454742	-1.2022369056	-0.228715
C	-1.3934393056	-0.6813679557	 0.0820391281	-0.123166
C	-1.3176157681	-1.469826339	 1.3595292934	-0.062525
C	-0.143924721	-1.3478015425	 2.0011355081	-0.183453
C	 0.7269990991	-0.4034682533	 1.2753483289	 0.315171
O	 1.7799309596	 0.089566533	 1.6214252751	-0.359393
H	 0.937639123	 1.615024134	 0.1344320454	 0.28928
H	 0.5577962648	-0.4059529914	-2.1384663332	 0.122984
H	 1.1190134418	-1.7251935248	-1.0863319371	 0.108766
H	-1.7360652499	-1.2311069647	-2.0544125544	 0.114802
H	-1.231509516	-2.6168311403	-1.0693080066	 0.103789
H	-2.2502972451	-0.0056342834	 0.0370815374	 0.099382
H	-2.1354058271	-2.1054938595	 1.6862943631	 0.119671
H	 0.1412995308	-1.8198489822	 2.9325543426	 0.121698
70.831	168.3715	238.6474	289.1696	321.6162	397.7007	422.0119	494.7534	580.9425	665.6537	717.6342	728.0434	748.1187	809.183	848.4688	853.5323	933.5683	959.5498	999.4804	1011.7244	1038.3429	1068.5358	1089.5071	1108.7177	1158.1067	1190.2908	1211.6225	1237.6358	1262.4503	1273.3922	1334.6332	1363.5597	1405.3929	1466.2103	1489.5272	1625.9029	1801.6065	3068.4865	3073.1796	3090.2627	3118.4059	3137.0719	3178.396	3225.347	3718.5117
OC12CCC1C=CC2=O	O[C@]12CC[C@H]1C=CC2=O	
InChI=1S/C7H8O2/c8-6-2-1-5-3-4-7(5,6)9/h1-2,5,9H,3-4H2	InChI=1S/C7H8O2/c8-6-2-1-5-3-4-7(5,6)9/h1-2,5,9H,3-4H2/t5-,7-/m1/s1
