16
gdb 45643	3.19344	1.72611	1.25315	1.7839	76.4	-0.226	-0.0045	0.2215	980.2066	0.126808	-396.890297	-396.883507	-396.882563	-396.921569	26.917	
N	 0.0471338452	 1.3785058027	 0.0592177462	-0.530212
C	 0.0303761974	 0.1120209051	 0.0952155737	 0.303581
C	 1.1551128924	-0.9720576375	 0.0971507436	-0.270186
N	 0.531612203	-2.2722728123	 0.4656168018	-0.351981
C	-0.7074734896	-1.988609167	 0.4564364097	 0.387807
C	-2.09045221	-2.3519755823	 0.9383935836	-0.210288
C	-2.4309008219	-1.3513898282	 2.0442379855	-0.27766
C	-2.4634517661	-0.8922277444	 0.6195859469	-0.006934
N	-1.0998495385	-0.7005264982	 0.1020495399	-0.0731
H	 1.0065334811	 1.7232415989	 0.0327910038	 0.221124
H	 1.6250971144	-1.0319128894	-0.8918637837	 0.140433
H	 1.9390566541	-0.7209316865	 0.818732078	 0.136363
H	-2.6475892557	-3.2617035257	 0.7736689067	 0.127281
H	-3.3985607714	-1.5118324986	 2.510994997	 0.132994
H	-1.6555763444	-0.9948249259	 2.7145831901	 0.140148
H	-3.3214178801	-0.4892923406	 0.1008766474	 0.130631
101.2879	168.4399	280.8449	322.3019	442.2384	534.3694	547.8674	650.9564	677.6612	718.4137	767.2766	807.0142	841.7107	859.8461	914.0624	937.299	969.4623	985.3336	994.1041	1024.6416	1037.6021	1086.42	1095.9505	1170.0734	1184.1675	1209.2134	1227.0822	1261.7375	1293.1851	1346.7582	1362.6486	1456.7349	1477.2302	1739.5281	1756.1753	3041.2293	3085.9361	3125.3905	3214.1871	3224.3329	3239.6304	3482.1457
N=C1CN=C2C3CC3N12	[NH][C]1C[N][C]2[C@H]3C[C@H]3N12	
InChI=1S/C6H7N3/c7-5-2-8-6-3-1-4(3)9(5)6/h3-4,7H,1-2H2	InChI=1S/C6H7N3/c7-5-2-8-6-3-1-4(3)9(5)6/h3-4,7H,1-2H2/t3-,4+/m0/s1
