15
gdb 67397	2.92394	1.62223	1.43991	3.5635	64.54	-0.2564	0.0068	0.2631	928.3077	0.11378	-457.767493	-457.76076	-457.759815	-457.798453	27.044	
O	-0.0861065219	 1.3760011384	-0.0069996365	-0.454586
C	 0.0251207491	 0.0122753348	-0.0093504794	 0.376803
C	-1.041641211	-1.0334493346	 0.06321042	-0.114485
C	-0.4930108297	-1.7651129229	-1.1571390559	-0.245557
C	 0.8090981736	-0.9240978936	-0.9953967481	-0.006575
O	 1.7626463027	-1.6521495422	-0.2162460348	-0.233488
C	 1.2845408435	-1.7648509634	 1.0700384889	 0.449931
O	 1.8495342354	-2.3996562341	 1.9124898073	-0.350397
C	 0.0542998028	-0.923643438	 1.169071094	-0.302642
H	 0.7034114316	 1.7547369183	 0.3978725815	 0.298609
H	-2.0749922377	-0.9343040299	 0.3703727616	 0.112798
H	-0.358992775	-2.8492862277	-1.1104743262	 0.119099
H	-1.040645949	-1.4901878719	-2.0621205093	 0.120485
H	 1.3006383953	-0.5170637774	-1.8755794932	 0.10675
H	-0.2892689398	-0.6097785758	 2.1451477602	 0.123253
144.4303	232.5728	303.7562	344.1507	412.172	441.5618	494.2359	592.1102	642.8601	686.2524	696.8703	822.7498	850.8412	875.5808	905.4089	922.8672	948.3175	995.2632	1010.869	1063.1127	1097.3274	1132.4279	1148.6137	1164.1033	1174.8302	1214.8978	1273.5655	1287.2202	1319.4727	1345.8846	1472.1126	1502.0375	1881.0589	3059.2362	3119.0353	3155.4997	3202.0861	3224.1002	3783.959
OC12C3CC1OC(=O)C23	O[C@@]12[C@H]3C[C@@H]1OC(=O)[C@@H]23	
InChI=1S/C6H6O3/c7-5-4-2-1-3(9-5)6(2,4)8/h2-4,8H,1H2	InChI=1S/C6H6O3/c7-5-4-2-1-3(9-5)6(2,4)8/h2-4,8H,1H2/t2-,3-,4-,6-/m0/s1
