16
gdb 12755	3.2973	1.77	1.48645	0.7787	70.44	-0.2465	0.0463	0.2927	894.9195	0.129206	-346.535625	-346.527984	-346.52704	-346.567211	29.637	
O	 0.0019876721	 1.4092512807	 0.0463960176	-0.460141
C	-0.0145096395	 0.0297170461	 0.0342823194	 0.400444
C	-0.3518962002	-0.7799187704	-1.181935102	-0.345446
C	-1.2210876612	-0.8913103716	 0.0551383723	-0.10484
C	-0.5404665472	-1.8079438971	 1.0751794288	-0.242605
C	 0.7006513439	-0.8316663335	 1.1030221564	-0.233569
C	 2.0187726252	-1.3547668203	 0.7980816774	 0.311157
C	 3.1030882342	-1.7932015729	 0.5148896895	-0.469282
H	 0.7252846064	 1.7090241953	-0.5157760565	 0.29049
H	-0.7904873431	-0.1962347186	-1.9850315351	 0.114651
H	 0.2725382676	-1.6102802469	-1.5033668058	 0.116637
H	-2.2730497239	-0.6372178081	 0.0338857547	 0.09709
H	-1.0434588793	-1.8538187835	 2.0426219096	 0.111627
H	-0.3244187977	-2.8232482333	 0.7324956392	 0.108396
H	 0.7161107253	-0.2841258694	 2.0499452116	 0.111318
H	 4.0631894774	-2.1792324167	 0.2771825228	 0.194073
113.3457	134.2741	247.2815	282.2558	343.7257	373.8151	435.2812	493.7132	553.4541	617.6511	621.7828	643.9755	711.7262	802.1812	853.6756	892.5548	941.4785	978.9312	1009.8875	1028.7005	1055.422	1078.5296	1084.8165	1152.7981	1182.5755	1215.2534	1240.9553	1284.4664	1318.8636	1335.534	1409.5364	1480.124	1506.6632	2227.4119	3064.1022	3066.867	3109.5053	3123.2213	3195.6231	3207.1242	3503.9581	3791.6234
OC12CC1CC2C#C	O[C@]12C[C@H]1C[C@H]2C#C	
InChI=1S/C7H8O/c1-2-5-3-6-4-7(5,6)8/h1,5-6,8H,3-4H2	InChI=1S/C7H8O/c1-2-5-3-6-4-7(5,6)8/h1,5-6,8H,3-4H2/t5-,6-,7+/m1/s1
