19
gdb 107746	2.84853	1.4096	1.25304	2.4914	74.72	-0.231	0.0631	0.294	1090.4043	0.158502	-422.959891	-422.951467	-422.950523	-422.992866	32.402	
C	-0.1011137625	 1.557084312	-0.1213664608	-0.529976
C	 0.0313210436	 0.0765877515	 0.0237525451	 0.217603
C	 0.6177618886	-1.0258398801	-0.861061157	-0.1723
C	 1.4815798481	-1.5667492578	 0.2759259062	-0.261896
C	 0.4382099898	-0.9003651333	 1.2109096655	 0.359449
C	 0.6474514387	-0.6277662661	 2.6716352659	-0.182804
O	 0.7783140687	-1.8420323143	 3.3906043315	-0.416766
O	-0.7675446004	-1.7064035991	 0.9779379314	-0.351495
C	-0.8203425315	-1.0982242907	-0.3118226065	 0.052086
H	 0.8609133592	 2.0656996852	 0.009187374	 0.124611
H	-0.4718390397	 1.8088963548	-1.1209390401	 0.127769
H	-0.8046587042	 1.9736632273	 0.6080969377	 0.1286
H	 0.8331749028	-0.9820204469	-1.9215783027	 0.088951
H	 1.6103089099	-2.6471011721	 0.3861687125	 0.103513
H	 2.4473721431	-1.0566805891	 0.3250808214	 0.10169
H	 1.5741725604	-0.0642992605	 2.8233357125	 0.111043
H	-0.1865747148	-0.0182602181	 3.0537803884	 0.094833
H	 0.0153013285	-2.3825196041	 3.1532772703	 0.299349
H	-1.7150031284	-1.2081880387	-0.9111110852	 0.105741
80.389	128.4138	196.7887	210.0193	244.3587	312.1632	397.4544	416.7846	478.2343	552.3501	603.6073	712.5275	747.2973	773.5356	851.3915	871.7681	881.8256	921.2919	963.8665	980.8873	1016.5912	1022.4879	1052.7518	1067.3098	1083.4084	1121.5153	1137.1988	1175.8425	1215.0916	1224.7003	1243.3375	1288.9708	1328.7733	1377.7924	1411.6207	1436.5741	1458.3993	1484.5724	1489.355	1494.9002	1498.7417	2983.1314	3023.1167	3054.3402	3075.0011	3084.0482	3093.0583	3114.3001	3191.9647	3205.3419	3795.1432
CC12C3CC1(CO)OC23	C[C@@]12[C@H]3C[C@]1(CO)O[C@@H]23	
InChI=1S/C7H10O2/c1-6-4-2-7(6,3-8)9-5(4)6/h4-5,8H,2-3H2,1H3	InChI=1S/C7H10O2/c1-6-4-2-7(6,3-8)9-5(4)6/h4-5,8H,2-3H2,1H3/t4-,5+,6-,7+/m0/s1
