19
gdb 107652	3.16942	1.30505	1.07311	2.113	77.33	-0.233	0.0163	0.2493	1156.0442	0.159607	-423.001568	-422.993166	-422.992222	-423.034543	32.161	
O	-0.0142153152	 1.3402716963	 0.5388452441	-0.419167
C	-0.0016633923	 0.050251617	-0.0602356285	-0.154781
C	-1.4174473684	-0.479080636	-0.0596517587	 0.277805
C	-1.9167599837	-1.1400576095	 1.2187549563	-0.328933
C	-1.6271029068	-1.9686161723	-0.0048111012	 0.037922
O	-2.7252124592	-2.515210494	-0.6765206882	-0.26075
C	-3.0581581242	-1.8939941248	-1.912084303	-0.122712
C	-3.1139005417	-0.3899008994	-1.8190107142	-0.084023
C	-2.3714525215	 0.2622989369	-0.9278090047	-0.139097
H	 0.8520439934	 1.7382768265	 0.4118240958	 0.287949
H	 0.373718972	 0.0998105848	-1.0944785243	 0.08997
H	 0.6513975993	-0.6399009423	 0.4980020736	 0.082398
H	-1.2354500279	-1.192064553	 2.06157945	 0.111361
H	-2.9629959402	-1.0136587502	 1.4701272707	 0.123061
H	-0.7536162191	-2.6200670797	-0.0003762048	 0.083571
H	-2.3514598564	-2.2005932367	-2.7034427486	 0.099019
H	-4.0367380603	-2.3013934496	-2.1860060678	 0.11635
H	-3.7824067048	 0.1314104271	-2.4978927528	 0.094412
H	-2.402080863	 1.342559029	-0.8273977236	 0.105647
87.8382	135.8076	166.051	243.7683	249.6886	301.3102	364.1986	429.0711	491.8317	519.2046	592.7481	694.7175	727.9147	800.6925	876.1228	915.782	923.0487	946.1156	971.2323	996.8243	1040.0872	1048.3452	1053.1358	1064.3376	1077.5812	1116.0367	1176.9633	1193.387	1229.204	1248.7406	1265.4379	1269.9688	1334.923	1378.5011	1415.608	1419.549	1459.297	1477.0217	1496.1813	1516.9292	1713.69	2948.5225	2961.9673	2996.1044	3069.6387	3101.518	3136.4991	3165.8841	3189.0334	3233.0892	3828.0412
OCC12CC1OCC=C2	OC[C@]12C[C@H]1OCC=C2	
InChI=1S/C7H10O2/c8-5-7-2-1-3-9-6(7)4-7/h1-2,6,8H,3-5H2	InChI=1S/C7H10O2/c8-5-7-2-1-3-9-6(7)4-7/h1-2,6,8H,3-5H2/t6-,7+/m1/s1
