21
gdb 54907	3.43175	0.93905	0.86892	3.221	79.78	-0.2397	-0.0089	0.2308	1430.9534	0.179263	-424.244584	-424.234402	-424.233458	-424.280336	37.474	
C	 0.0386047729	 1.4054511835	-0.3560093625	-0.481467
C	 0.1061837284	-0.0590900153	 0.0395874504	 0.37397
O	 1.159515303	-0.6174287374	 0.24877495	-0.300032
C	-1.2200284367	-0.7895899616	 0.1199803597	-0.082257
C	-1.70765958	-1.4268361427	-1.2288534612	-0.274824
C	-2.1011702029	-2.703614488	-0.445956438	 0.422491
C	-3.5889325497	-2.7920100102	-0.118804914	-0.447708
O	-1.6585849347	-3.8665310664	-1.1189053078	-0.473464
C	-1.2270504582	-2.2047058078	 0.7444777158	-0.301089
H	 1.0418897944	 1.793915227	-0.5347586322	 0.141261
H	-0.580670249	 1.5381655923	-1.2501525111	 0.138264
H	-0.4367082733	 1.9824600878	 0.4463336526	 0.139648
H	-1.9873081046	-0.1286309604	 0.5340187074	 0.074741
H	-2.4940780982	-0.9083927652	-1.782184369	 0.100339
H	-0.870045583	-1.6445404132	-1.8956369093	 0.126596
H	-4.1680866182	-2.9739686665	-1.0294228123	 0.124335
H	-3.781051384	-3.6135249489	 0.5829539558	 0.107863
H	-3.9550562792	-1.8720070394	 0.3483827044	 0.117346
H	-1.9182829596	-4.6345561807	-0.5982224638	 0.273546
H	-0.2236146487	-2.6329698474	 0.7002096655	 0.130081
H	-1.6338269187	-2.3090653994	 1.7536358797	 0.090359
35.0632	69.205	126.2263	160.1379	238.3795	256.3391	257.6848	306.7629	324.2339	395.869	431.2053	448.5561	570.5111	590.636	614.507	720.6294	829.2181	850.6335	908.4511	923.139	941.69	969.9023	970.2176	1001.2482	1031.8908	1072.7204	1125.412	1148.9746	1188.3337	1191.3122	1226.1893	1246.0934	1268.8759	1290.8692	1363.8174	1377.7268	1385.1203	1402.9913	1462.9656	1466.0719	1475.6655	1484.4996	1489.9999	1498.0808	1807.5341	3020.8993	3032.7779	3059.2107	3061.4477	3066.2109	3087.0432	3093.0426	3109.4347	3126.7147	3132.5624	3150.9214	3801.6667
CC(=O)C1CC(C)(O)C1	CC(=O)[C@H]1C[C@@](C)(O)C1	
InChI=1S/C7H12O2/c1-5(8)6-3-7(2,9)4-6/h6,9H,3-4H2,1-2H3	InChI=1S/C7H12O2/c1-5(8)6-3-7(2,9)4-6/h6,9H,3-4H2,1-2H3/t6-,7+
