12
gdb 43504	4.00525	1.15249	0.89497	0.7318	73.96	-0.2605	-0.1221	0.1384	1165.15	0.078516	-431.713547	-431.705969	-431.705025	-431.746023	27.272	
N	-0.1313546091	 1.2791981324	 0.0083533281	-0.501396
C	-0.0260709802	 0.0189698508	 0.0007577145	 0.295016
N	-1.0895554553	-0.8745688767	 0.0027964392	-0.397593
C	-0.6024667331	-2.1708578655	-0.0075679962	 0.290419
C	 0.7585262309	-2.2338918281	-0.0167893678	-0.357901
C	 1.2448222102	-0.8558414904	-0.0123449463	 0.351586
O	 2.3663955143	-0.4011729286	-0.0171436791	-0.321997
C	-1.5108995348	-3.2666122728	-0.0077169346	 0.247187
N	-2.2593585804	-4.1486433215	-0.0077309583	-0.303632
H	 0.8124808392	 1.6780814554	 0.0043805217	 0.255752
H	-2.0617896436	-0.6160368127	 0.0104014731	 0.289951
H	 1.355719352	-3.1304995824	-0.0256267842	 0.152608
87.6197	145.4018	148.8467	297.4808	299.8475	383.7559	478.5267	498.4397	511.5127	605.8269	654.5467	698.7487	762.2125	770.2623	832.0485	928.3801	983.4643	1052.631	1144.584	1168.5945	1295.7661	1363.5345	1446.4609	1598.2379	1753.2084	1805.6069	2355.9357	3279.2012	3441.6787	3672.3491
N=C1NC(=CC1=O)C#N	[NH][C]1NC(=CC1=O)C#N	
InChI=1S/C5H3N3O/c6-2-3-1-4(9)5(7)8-3/h1H,(H2,7,8,9)	InChI=1S/C5H3N3O/c6-2-3-1-4(9)5(7)8-3/h1H,(H2,7,8,9)
