19
gdb 86989	3.44088	0.93168	0.77789	2.8357	77.01	-0.221	0.0077	0.2287	1465.2002	0.15834	-419.175902	-419.166596	-419.165652	-419.211096	33.117	
C	-0.257779205	 1.5085881363	 0.6073188721	-0.317026
N	 0.0523718672	 0.0965041557	 0.5959447045	-0.073561
C	-1.0037235759	-0.8539975293	 0.198691894	-0.200865
C	-0.4563614751	-1.8342153883	 1.249073822	 0.119139
C	 0.2320229068	-0.597533108	 1.8869058641	-0.196874
O	-1.465207412	-2.5086431461	 1.9706034236	-0.230607
C	-1.0001172005	-3.5112428479	 2.8345272492	-0.205822
C	-0.2921414882	-2.9895830157	 4.0224011239	 0.265825
N	 0.2643637688	-2.581341981	 4.9489524784	-0.308162
H	 0.5937879415	 2.0710997449	 1.0041082202	 0.124554
H	-0.4420396061	 1.8559916585	-0.4149170462	 0.121392
H	-1.1465710374	 1.7534649164	 1.2195785473	 0.092927
H	-2.0195477838	-0.5320546947	 0.4819750831	 0.098342
H	-0.9974169126	-1.1535993001	-0.8540594362	 0.105533
H	 0.2623914987	-2.5533932303	 0.8361633937	 0.08579
H	 1.2660892849	-0.6823905901	 2.2332604781	 0.11348
H	-0.3936691119	-0.191860714	 2.697992294	 0.10151
H	-1.8761229426	-4.0725533281	 3.1732501791	 0.162128
H	-0.3272166669	-4.2141511783	 2.3189474651	 0.142298
45.2831	67.9486	96.5976	199.3772	227.5592	265.785	321.076	348.3107	375.2942	413.3496	448.1968	605.7394	637.3047	784.1645	891.573	899.5684	965.1204	987.9018	1010.7788	1037.8519	1055.0557	1106.8893	1122.9857	1149.9273	1170.4827	1211.5452	1220.0575	1238.4845	1272.9445	1298.7545	1304.093	1337.8177	1384.9586	1416.8291	1452.6665	1468.6745	1485.2447	1494.9509	1499.4212	1526.2909	2357.1638	2927.3194	2971.1735	2984.3785	2993.4386	3024.7971	3057.6125	3069.5761	3080.8939	3090.071	3099.7607
CN1CC(C1)OCC#N	CN1CC(C1)OCC#N	
InChI=1S/C6H10N2O/c1-8-4-6(5-8)9-3-2-7/h6H,3-5H2,1H3	InChI=1S/C6H10N2O/c1-8-4-6(5-8)9-3-2-7/h6H,3-5H2,1H3
