22
gdb 91424	2.38254	1.8098	1.31863	0.257	81.16	-0.2097	0.076	0.2857	1067.2677	0.195741	-404.310822	-404.302554	-404.30161	-404.343382	33.444	
C	 0.924631273	 1.0668792212	-0.7692234854	-0.392034
C	 0.2195507511	-0.1366293947	-0.1390505337	 0.118054
O	 0.259005689	-1.2132335035	-1.1029238797	-0.291327
C	 0.9883506701	-2.3611044009	-0.720377181	 0.122999
C	 0.4864074322	-2.8837001812	 0.6393715598	-0.191866
N	 1.4050709891	-1.886705311	 1.3023527188	-0.123601
C	 2.2638082922	-1.9843507031	 0.0616887714	-0.212067
C	 0.7145934363	-0.5780572884	 1.2995466342	 0.01151
C	 1.5790230126	 0.4576325647	 2.0188959053	-0.403389
H	 2.00181909	 0.9122331315	-0.8758402204	 0.116886
H	 0.5111524216	 1.2274507097	-1.7688205424	 0.123925
H	 0.7642665668	 1.9766887734	-0.1832642374	 0.111666
H	-0.8416765057	 0.1259210841	-0.0470422976	 0.081494
H	 1.0301880593	-3.0107604761	-1.5988999823	 0.073112
H	-0.5775100056	-2.7653850554	 0.8626653124	 0.102206
H	 0.8093008482	-3.9029695258	 0.8729722925	 0.102332
H	 2.9688741272	-2.8142784125	 0.1658161462	 0.107041
H	 2.8058648686	-1.0804837036	-0.2230875306	 0.106234
H	-0.1819795659	-0.7327819771	 1.9114551027	 0.082976
H	 2.5188301047	 0.6474930722	 1.4917619056	 0.116254
H	 1.0555603549	 1.4124313606	 2.1255481391	 0.112643
H	 1.8238611201	 0.0824153561	 3.0155354425	 0.124952
58.8153	220.3212	238.7705	284.3415	303.1522	341.7661	382.9622	439.125	452.4005	472.2261	520.2056	677.5217	709.0566	788.2829	824.7371	867.4231	883.3905	926.0395	936.5015	969.3899	1003.9374	1016.7565	1026.394	1054.4844	1077.5127	1101.4975	1138.3816	1161.462	1174.6822	1180.6703	1241.8441	1252.4469	1263.2172	1300.6364	1337.3965	1349.9637	1375.4444	1380.3346	1387.108	1407.9705	1412.5316	1479.1533	1484.2727	1488.1028	1498.903	1507.6607	1516.5916	3007.3232	3032.106	3040.6674	3043.8243	3046.5956	3057.0035	3075.198	3106.9243	3109.7494	3116.4554	3117.5415	3124.4425	3126.6419
CC1OC2CN(C2)C1C	C[C@H]1O[C@@H]2CN(C2)[C@H]1C	
InChI=1S/C7H13NO/c1-5-6(2)9-7-3-8(5)4-7/h5-7H,3-4H2,1-2H3	InChI=1S/C7H13NO/c1-5-6(2)9-7-3-8(5)4-7/h5-7H,3-4H2,1-2H3/t5-,6+/m0/s1
