14
gdb 9592	3.82248	1.29738	1.20315	2.4071	64.68	-0.2705	-0.0565	0.214	1010.9012	0.105613	-378.715834	-378.707746	-378.706801	-378.748573	28.377	
C	-0.1899527003	 1.5592122986	 0.04950473	-0.453344
C	 0.0298402093	 0.0584101878	 0.0064672014	 0.156672
N	 1.3309336462	-0.4209157399	-0.465795584	-0.346806
C	 0.978587292	-0.6778298308	 0.936292722	-0.150353
C	 1.7781424139	 0.0553029361	 1.9674671427	 0.169402
O	 1.8382785858	-0.2948718833	 3.1170362258	-0.240101
C	-1.1377055433	-0.7099411898	-0.3792428839	 0.250768
N	-2.0670818622	-1.3133830788	-0.7108191858	-0.3249
H	 0.7483765126	 2.0726348543	 0.262071577	 0.143364
H	-0.5599085025	 1.9091395527	-0.9181317491	 0.150062
H	-0.9253599925	 1.8213697551	 0.814868959	 0.149463
H	 1.242340915	-1.2669999122	-1.0227907378	 0.263925
H	 0.671713253	-1.6748351992	 1.2410752521	 0.13364
H	 2.3262711832	 0.9420982094	 1.5857719006	 0.098209
88.2632	118.7403	175.3411	181.0584	256.0712	312.3832	376.0457	399.8364	491.3151	584.3677	592.267	659.6343	800.3551	910.4948	972.7867	1007.4309	1039.7535	1079.5849	1091.9351	1105.5625	1212.442	1256.9992	1325.1423	1376.7316	1418.0914	1439.975	1483.5668	1497.3577	1827.9874	2349.7588	2916.8007	3055.8204	3125.4793	3151.6866	3159.6521	3517.9455
CC1(NC1C=O)C#N	C[C@]1(N[C@H]1C=O)C#N	
InChI=1S/C5H6N2O/c1-5(3-6)4(2-8)7-5/h2,4,7H,1H3	InChI=1S/C5H6N2O/c1-5(3-6)4(2-8)7-5/h2,4,7H,1H3/t4-,5-/m0/s1
