18
gdb 47563	2.72461	1.57199	1.08447	5.0403	72.55	-0.243	0.0081	0.2512	1097.0388	0.149327	-439.080457	-439.072713	-439.071769	-439.113182	29.525	
O	 0.0138837737	-0.0221553725	 0.5790258721	-0.306166
C	-0.0626807576	 1.0527694488	 0.0490891049	 0.406273
C	-1.3907443321	 1.8103088059	-0.0176637581	-0.289802
N	-1.7875593118	 2.2220084747	-1.3609322469	-0.087227
C	-2.4247854538	 3.5391114299	-1.4643867292	-0.26486
C	-1.03647684	 3.3323087808	-1.9510146812	 0.022902
C	 0.180330481	 3.8563245092	-1.2232365486	-0.271109
C	 1.2839377355	 2.801111783	-1.1948581281	-0.039168
O	 1.083661565	 1.6266169817	-0.3913084641	-0.234984
H	-2.140681076	 1.1170649578	 0.3667713341	 0.142536
H	-1.3245376937	 2.6472901635	 0.6976232931	 0.106973
H	-3.2519751226	 3.6098416999	-2.164682931	 0.124654
H	-2.5555924377	 4.1092380928	-0.5457193471	 0.113245
H	-0.8854621992	 3.2130025929	-3.0238560404	 0.099096
H	 0.5816054845	 4.7271482549	-1.7555788353	 0.11693
H	-0.0545583403	 4.1971617619	-0.2110683528	 0.115933
H	 1.4828737964	 2.4573889764	-2.2180081016	 0.12122
H	 2.2094252087	 3.2358818582	-0.80648932	 0.123554
68.1304	98.649	227.8584	292.7958	325.1934	369.0888	443.6087	492.2253	542.2203	590.7675	653.4573	755.4328	808.9117	818.8325	910.6963	939.5895	953.6243	996.8249	1023.8195	1066.8722	1097.1284	1114.0067	1128.3827	1156.8808	1173.4093	1213.4815	1240.6158	1284.8494	1295.0727	1327.8612	1351.3924	1369.2608	1432.0209	1442.0156	1471.7896	1498.1184	1511.6139	1515.6493	1831.3446	2962.0623	3027.0483	3044.1052	3084.1074	3091.5539	3095.8562	3108.7285	3113.9753	3186.1965
O=C1CN2CC2CCO1	O=C1CN2C[C@H]2CCO1	
InChI=1S/C6H9NO2/c8-6-4-7-3-5(7)1-2-9-6/h5H,1-4H2	InChI=1S/C6H9NO2/c8-6-4-7-3-5(7)1-2-9-6/h5H,1-4H2/t5-,7?/m1/s1
