14
gdb 19118	3.56043	3.53728	3.53675	0.	61.41	-0.1994	0.0241	0.2235	545.8545	0.110756	-341.426123	-341.421836	-341.420892	-341.4542	18.796	
C	-0.0270750484	 1.5367034767	 0.0413606347	-0.014181
C	-0.0747608001	 1.5221431186	-1.505655792	-0.013894
C	 1.472359228	 1.5650329911	-1.5108240345	-0.013831
C	 1.4723166222	 0.017511712	-1.5396260861	-0.014181
C	 1.5200044787	 0.0320767252	 0.0073906203	-0.013895
C	-0.0271151981	-0.0108169771	 0.0125613716	-0.013831
N	-0.0634794424	-0.0137702728	-1.523047785	-0.190818
N	 1.5087172634	 1.5679883922	 0.0247821073	-0.190816
H	-0.563215304	 2.196098877	 0.7239833263	 0.077614
H	-0.7637768499	 2.054328223	-2.1616316811	 0.077562
H	 2.1236570519	 2.2470787529	-2.0575235677	 0.077547
H	 2.0084505925	-0.6418796474	-2.2222572433	 0.077614
H	 2.2090243819	-0.5001008889	 0.6633685804	 0.077562
H	-0.6784043056	-0.6928780224	 0.5592517993	 0.077548
624.8822	626.5999	654.8325	788.7947	790.6349	833.0136	843.6968	845.2511	862.5228	862.7297	893.5274	894.0943	938.4877	939.3163	975.3531	975.5296	1030.1116	1070.4031	1154.2798	1169.322	1169.405	1175.6133	1175.8332	1202.0642	1229.0163	1250.2526	1250.9449	1255.4256	1255.4997	1256.0799	3093.294	3098.0517	3098.3257	3105.783	3106.0109	3121.2123
C12C3C4C5C(C1N35)N24	[C@H]12[C@H]3[C@@H]4[C@H]5[C@H]([C@@H]1N35)N24	
InChI=1S/C6H6N2/c1-2-4-6-5(7(1)4)3(1)8(2)6/h1-6H	InChI=1S/C6H6N2/c1-2-4-6-5(7(1)4)3(1)8(2)6/h1-6H/t1-,2-,3+,4+,5-,6-
