20
gdb 57210	2.34365	1.37516	1.11668	5.3907	74.59	-0.2522	0.0213	0.2735	1180.883	0.170359	-440.309409	-440.300012	-440.299068	-440.343499	35.252	
C	 0.1677986355	 1.4783683131	-0.2304950471	-0.402638
C	-0.028895845	-0.0260108219	-0.0392041922	-0.18847
C	 0.7294961268	-0.5391461836	 1.1997007899	 0.417522
O	 0.6188441896	-1.8621189692	 1.410515153	-0.380216
O	 1.3926162328	 0.162250057	 1.9166375965	-0.329313
C	-1.5019761953	-0.4526316225	 0.0049790348	 0.327947
C	-2.3973785537	 0.2801940574	 0.9820291374	-0.476634
C	-2.0968869773	-1.0529514321	-1.2164468267	-0.289982
N	-1.6590830729	-1.925105856	-0.1072711172	-0.366463
H	-0.0338746128	-2.2270651394	 0.7732773192	 0.310015
H	-2.4610806717	-2.2393745355	 0.4325943682	 0.241281
H	 1.2254716125	 1.7043849658	-0.3782988817	 0.13656
H	-0.3907583691	 1.833839048	-1.1022137871	 0.107539
H	-0.1578689489	 2.0368924425	 0.649858159	 0.136677
H	 0.4186108377	-0.5545598049	-0.8914127776	 0.103635
H	-2.4702346317	 1.3430071566	 0.734852321	 0.139605
H	-3.4100688391	-0.1353022925	 0.9676714273	 0.114559
H	-2.0100957212	 0.202331666	 2.0039131286	 0.146838
H	-3.1659919944	-0.9454568773	-1.3765446497	 0.122547
H	-1.5092746417	-1.1361114516	-2.1261030657	 0.128991
78.124	88.701	195.1774	207.5278	225.894	261.5423	281.8357	341.5193	375.5422	420.0662	445.9236	544.6352	580.3072	688.2461	769.135	803.605	844.0941	860.5665	911.0255	939.1517	981.1896	991.2403	1046.4096	1054.1224	1102.1754	1124.4642	1130.5926	1153.8625	1220.5181	1265.0819	1281.9594	1337.313	1348.808	1392.9415	1413.4106	1427.3541	1441.3313	1482.81	1490.8022	1494.2552	1507.3059	1514.2214	1857.6069	3021.8549	3035.1071	3049.6558	3102.2369	3113.1795	3114.3048	3123.7569	3138.3604	3201.2018	3449.1366	3507.7756
CC(C([O-])=O)C1(C)C[NH2+]1	C[C@@H](C(=O)O)[C@@]1(C)CN1	
InChI=1S/C6H11NO2/c1-4(5(8)9)6(2)3-7-6/h4,7H,3H2,1-2H3,(H,8,9)	InChI=1S/C6H11NO2/c1-4(5(8)9)6(2)3-7-6/h4,7H,3H2,1-2H3,(H,8,9)/t4-,6+/m0/s1
