15
gdb 11346	5.20685	1.27087	1.0858	4.8043	63.43	-0.2389	-0.0104	0.2285	1055.5668	0.119639	-399.834967	-399.827503	-399.826559	-399.867064	27.285	
N	 0.2206368482	 0.89520671	 0.1010784554	-0.504569
H	-1.8251232097	-1.096925361	 0.8480213285	 0.16657
H	 1.1728086689	 1.2473363497	 0.1202406938	 0.231725
H	-0.1165449889	 1.0236775042	-0.8486618831	 0.228939
C	-0.6170617085	 1.6696273195	 1.0289901587	-0.277333
C	-1.9798331491	 1.0660960616	 1.1255195239	 0.242405
C	-2.2747059193	-0.3565694969	 1.5173096593	-0.459351
C	-3.7976567571	-0.4222316661	 1.4343090331	 0.434932
O	-4.5459607629	-1.324833434	 1.6485393265	-0.31676
O	-4.2529226686	 0.8281498319	 1.0386927324	-0.202521
C	-3.1499225945	 1.6480308609	 0.8696087402	-0.037223
H	-3.3866458094	 2.654521665	 0.5558859307	 0.137001
H	-0.1270733075	 1.6297854288	 2.0115602706	 0.114001
H	-0.7170920461	 2.7376896168	 0.7723172367	 0.091307
H	-1.9507080653	-0.6154978904	 2.5322989932	 0.150879
90.4187	110.3987	191.0346	246.7621	324.6429	415.9126	474.5794	500.7501	569.08	615.177	741.0947	823.644	845.0516	882.1709	909.736	958.1662	984.026	1047.3614	1075.9682	1136.0221	1147.4061	1185.8225	1208.3831	1288.8866	1303.5559	1365.3355	1423.3334	1439.2505	1499.1888	1655.11	1723.1818	1905.9138	2957.3888	3024.3234	3049.4594	3089.1685	3246.9114	3489.2533	3571.6127
[NH3+]CC1=CC(=O)O[CH-]1	NCC1=COC(=O)C1	
InChI=1S/C5H6NO2/c6-2-4-1-5(7)8-3-4/h1,3H,2,6H2/q-1/p+1	InChI=1S/C5H7NO2/c6-2-4-1-5(7)8-3-4/h3H,1-2,6H2
