23
gdb 112933	6.17888	0.59366	0.57104	0.1583	97.11	-0.2358	0.0578	0.2937	2052.4379	0.204339	-351.132263	-351.121539	-351.120594	-351.170058	38.056	
C	 0.7138784209	 1.0963372848	-0.8122304604	-0.382016
C	 0.1763003958	-0.2605256322	-0.3484416886	-0.177177
C	-1.1375437344	-0.157431452	 0.4284278492	 0.026809
C	-2.3939715509	 0.13988277	-0.4438958005	-0.234875
C	-2.7643055986	-1.3791775943	-0.3935085233	-0.143593
C	-1.7693194953	-1.5283333844	 0.8047060041	-0.246823
C	-4.1509807194	-1.7542877675	-0.2052491711	 0.037217
C	-5.3064856578	-2.0487902354	-0.0290431323	 0.090636
C	-6.7025391274	-2.4084498444	 0.1760473586	-0.498258
H	 1.6477361616	 0.9849169921	-1.3719361898	 0.111553
H	-0.0030384267	 1.6096491828	-1.4619684785	 0.117326
H	 0.9130306937	 1.7531522117	 0.0419677038	 0.113828
H	 0.039881072	-0.9189735152	-1.2174226385	 0.093309
H	 0.9240070538	-0.7521554112	 0.2879995121	 0.093621
H	-0.9998764111	 0.5267657309	 1.2720175251	 0.063077
H	-3.1357298	 0.7439587046	 0.083062475	 0.106245
H	-2.2319011274	 0.5696470668	-1.4362079419	 0.098102
H	-2.360243773	-1.8884842769	-1.2749935598	 0.095184
H	-1.1125153318	-2.4025334505	 0.789564576	 0.096505
H	-2.2963951256	-1.4986150916	 1.7608903355	 0.105275
H	-6.8607518697	-3.4856011525	 0.0505026985	 0.144967
H	-7.0420460859	-2.140864582	 1.1830831601	 0.143994
H	-7.3558916728	-1.8949104536	-0.5385179433	 0.145092
15.9295	53.2285	76.475	121.035	149.2781	202.2372	240.4073	281.279	298.634	363.4796	413.9947	493.0018	514.207	584.9138	758.1208	812.3078	824.7979	839.8979	914.9523	938.1184	961.4093	986.407	995.6024	1048.4923	1053.0255	1054.43	1072.4439	1132.7558	1138.67	1193.973	1223.5064	1231.691	1252.2022	1264.0858	1273.0133	1303.3327	1342.8275	1360.2244	1394.1139	1411.4324	1415.5154	1471.9828	1479.3214	1479.8839	1487.018	1494.8067	1499.2791	1507.0628	2364.9294	3009.7326	3023.2526	3030.2719	3033.3396	3040.6573	3050.7327	3056.1877	3062.6385	3082.1368	3082.4731	3096.6694	3102.2965	3115.3768	3118.8027
CCC1CC(C1)C#CC	CC[C@H]1C[C@@H](C1)C#CC	
InChI=1S/C9H14/c1-3-5-9-6-8(4-2)7-9/h8-9H,4,6-7H2,1-2H3	InChI=1S/C9H14/c1-3-5-9-6-8(4-2)7-9/h8-9H,4,6-7H2,1-2H3/t8-,9-
