21
gdb 126157	3.5905	1.0018	0.91032	2.3364	84.95	-0.2349	0.0285	0.2634	1387.8754	0.183708	-383.302628	-383.29339	-383.292446	-383.337938	34.03	
C	 0.0842783546	 1.4959575929	 0.0940297732	-0.389514
C	-0.0076666121	-0.0261059779	-0.0456612348	-0.17279
C	-1.4498681076	-0.5677460441	-0.0565429399	 0.063457
C	-2.2746881798	-0.0991629756	-1.2574847388	-0.409258
N	-1.4396281327	-2.0292211208	 0.0371146164	 0.047274
C	-1.2628303314	-2.9462940419	-0.9473157768	-0.033723
C	-1.2286824991	-4.1868513706	-0.3428116713	-0.236857
C	-1.387302868	-3.9091503692	 1.0283660517	-0.008519
N	-1.5096700463	-2.6030545658	 1.2563528644	-0.263025
H	 1.1280361561	 1.8112450439	 0.1829948653	 0.119909
H	-0.3420717875	 2.0164156179	-0.7691078175	 0.118701
H	-0.4434856461	 1.8439041376	 0.9891133445	 0.120923
H	 0.5015304325	-0.3516849566	-0.9619507722	 0.09712
H	 0.5141614108	-0.504206385	 0.7900550331	 0.121638
H	-1.9457772123	-0.2481625412	 0.8649364982	 0.109025
H	-1.7856904782	-0.3440844039	-2.2064915481	 0.119892
H	-3.2662584425	-0.5591942364	-1.2512339922	 0.132735
H	-2.4027478726	 0.9853181706	-1.2248606584	 0.12865
H	-1.1818692291	-2.6579581828	-1.982712136	 0.125594
H	-1.1153351926	-5.1439510761	-0.8255157947	 0.100489
H	-1.4253447461	-4.6010101552	 1.857180004	 0.108277
21.5646	86.9874	105.6365	211.2857	237.534	270.8251	281.6055	353.4662	397.4111	492.7136	638.5674	680.8239	709.708	762.8755	788.9573	826.5715	850.2754	885.907	932.6595	962.5851	978.0582	996.8489	1034.5028	1066.3161	1097.3362	1114.7078	1152.3356	1185.6319	1225.7752	1257.6642	1291.1008	1329.2629	1360.2157	1374.8587	1393.4649	1412.0031	1418.1092	1430.2686	1482.4225	1482.5843	1497.9204	1502.0978	1504.3462	1510.2714	1553.8636	3026.3365	3035.5194	3042.8971	3067.673	3078.1599	3103.3939	3109.9386	3114.2056	3129.678	3241.6812	3260.5403	3278.5513
CCC(C)N1C=CC=N1	CC[C@@H](C)n1cccn1	
InChI=1S/C7H12N2/c1-3-7(2)9-6-4-5-8-9/h4-7H,3H2,1-2H3	InChI=1S/C7H12N2/c1-3-7(2)9-6-4-5-8-9/h4-7H,3H2,1-2H3/t7-/m1/s1
