17
gdb 12001	3.33461	2.04989	1.79766	0.3676	68.74	-0.2352	0.0065	0.2417	814.7537	0.142229	-363.839405	-363.831976	-363.831032	-363.870471	29.28	
C	-0.0805704502	 1.5698072894	 0.0305963032	-0.436103
C	 0.0125127969	 0.042925031	-0.0076021118	 0.366007
O	-1.295795447	-0.5433126396	 0.0363226985	-0.474956
C	 0.822071821	-0.4772833064	-1.1902974658	-0.137651
C	 1.8101749415	-1.2933330445	-0.819025447	-0.056335
C	 1.8644578509	-1.4084615657	 0.6672814631	-0.087482
N	 2.1528965351	-0.0948899398	 1.3235890642	-0.339338
C	 0.7621449346	-0.5610660672	 1.1841420033	-0.073379
H	 0.9140873711	 2.0100761966	 0.1284015928	 0.144068
H	-0.5405027073	 1.9530887054	-0.8884035522	 0.098659
H	-0.6982931275	 1.8854113948	 0.8768616728	 0.117833
H	-1.7848724612	-0.229923683	-0.7318369982	 0.274694
H	 0.6062649807	-0.1665129714	-2.2079063166	 0.089418
H	 2.5158799074	-1.7801477195	-1.481826804	 0.101433
H	 2.1933218481	-2.3174066191	 1.1585732764	 0.090943
H	 2.452556613	-0.2679464605	 2.2823721151	 0.228678
H	 0.180635863	-0.8204284505	 2.0618054459	 0.093514
157.9873	198.6277	230.3425	238.584	354.3214	391.4743	398.551	448.2905	609.7021	617.9548	748.8984	778.9045	800.2468	854.4984	863.6314	919.6072	939.6568	943.6429	956.5497	987.2023	1062.5035	1092.655	1115.6319	1137.4717	1149.6324	1159.651	1212.4047	1252.6854	1308.4578	1362.9985	1394.7457	1397.8622	1417.3312	1488.8365	1496.8685	1664.0436	3028.6756	3096.1288	3134.7628	3170.4231	3176.3513	3181.274	3208.7443	3471.2228	3811.288
CC1(O)C=CC2NC12	C[C@@]1(O)C=C[C@H]2N[C@@H]12	
InChI=1S/C6H9NO/c1-6(8)3-2-4-5(6)7-4/h2-5,7-8H,1H3	InChI=1S/C6H9NO/c1-6(8)3-2-4-5(6)7-4/h2-5,7-8H,1H3/t4-,5-,6-/m1/s1
