17
gdb 69009	2.95756	1.32475	1.20329	0.5896	69.29	-0.2278	0.0541	0.2818	1087.9771	0.134534	-458.883149	-458.875055	-458.874111	-458.916093	30.736	
O	-0.1063935136	 1.421040676	 0.0254973107	-0.443779
C	-0.0682734916	 0.0466863367	 0.0258721157	 0.266686
C	-0.2159361601	-0.7240329598	-1.2556271829	-0.381379
C	-1.1383864738	-1.0330923616	-0.0988365331	 0.393582
O	-0.4602284212	-1.8764466721	 0.8406761357	-0.320616
C	 0.5349929708	-0.8486310191	 1.1034511204	-0.147212
C	-2.6133089765	-1.0300403652	-0.1147496294	-0.064886
C	-3.3835305029	-2.0608345373	 0.5960982972	-0.172448
O	-3.2671636013	-0.7422103466	 1.1305716377	-0.242426
H	-0.5577795314	 1.7143137282	 0.825960004	 0.296265
H	-0.6648235821	-0.1360059833	-2.0507478397	 0.127954
H	 0.5189478491	-1.4604680068	-1.5706586377	 0.11728
H	 1.5591441083	-1.211205323	 0.9614890741	 0.11142
H	 0.41528938	-0.4476502342	 2.117735453	 0.108587
H	-3.0621356543	-0.5438151544	-0.9801598437	 0.101702
H	-4.3720839804	-2.3374486627	 0.2318692001	 0.114432
H	-2.842839429	-2.8300951849	 1.1422673577	 0.134839
65.3451	128.2459	166.2051	268.8983	322.1431	368.8476	381.0936	417.8912	479.9659	591.3626	609.0383	717.0635	797.0993	838.3891	869.4573	903.7744	926.717	971.8691	989.341	995.8025	1042.7965	1068.7648	1096.1685	1121.0519	1144.8609	1161.5987	1165.9138	1209.4547	1278.114	1283.5665	1329.9669	1347.8603	1409.9245	1443.8122	1493.7739	1516.4053	1528.7834	3020.7959	3076.6409	3090.001	3111.0544	3120.5294	3187.4574	3209.9305	3785.9995
OC12CC1(OC2)C1CO1	O[C@]12C[C@]1(OC2)[C@H]1CO1	
InChI=1S/C6H8O3/c7-5-2-6(5,9-3-5)4-1-8-4/h4,7H,1-3H2	InChI=1S/C6H8O3/c7-5-2-6(5,9-3-5)4-1-8-4/h4,7H,1-3H2/t4-,5+,6+/m1/s1
