14
gdb 130637	3.14184	1.67054	1.10545	4.8633	69.82	-0.2601	-0.0731	0.1871	1009.222	0.103074	-436.70213	-436.695471	-436.694527	-436.733611	25.093	
O	 0.0136994134	-0.0341288647	 0.0042632305	-0.314093
C	 0.0119304613	 1.1699238425	 0.009516317	 0.293536
C	-1.2323940364	 2.0934815526	 0.0315830458	-0.320755
C	-0.7381346109	 3.5739081303	 0.0313974646	-0.378123
C	 0.7539398573	 3.4179583137	 0.0095529889	 0.167958
C	 1.1424583676	 2.1166510383	-0.0019686737	 0.292126
O	 2.4730910903	 1.9942844425	-0.0211986239	-0.220573
N	 3.0071881769	 3.2846570805	-0.022846917	-0.112978
C	 1.9870031586	 4.1181222318	-0.004675163	-0.113406
H	-1.8539608155	 1.8604406302	-0.8377873532	 0.14681
H	-1.8289883339	 1.8523025518	 0.9160979306	 0.14683
H	-1.1077548106	 4.1261405909	-0.8386800093	 0.133287
H	-1.0828753831	 4.1180338088	 0.9166646178	 0.133292
H	 2.1933859349	 5.1790289108	-0.0027144551	 0.146089
92.6106	162.5811	254.5377	289.5091	515.5821	524.7389	595.9703	628.1787	645.5631	684.5479	735.5608	837.8484	892.0435	908.2339	967.2623	970.0407	1010.8207	1043.9668	1117.2907	1162.7773	1197.5601	1229.0808	1264.0086	1289.8148	1359.7478	1419.8718	1450.9367	1479.1582	1492.6532	1637.0124	1829.6927	3049.2142	3068.7927	3078.8796	3111.2608	3246.8844
O=C1CCC2=C1ON=C2	O=C1CCc2c1onc2	
InChI=1S/C6H5NO2/c8-5-2-1-4-3-7-9-6(4)5/h3H,1-2H2	InChI=1S/C6H5NO2/c8-5-2-1-4-3-7-9-6(4)5/h3H,1-2H2
