19
gdb 15343	5.90927	0.89494	0.84639	4.2759	76.48	-0.2888	0.0383	0.3271	1380.348	0.165168	-327.936569	-327.927677	-327.926733	-327.970753	31.858	
C	-0.0454458223	 1.513070291	-0.4633329634	-0.376731
C	 0.0026630065	 0.1251072268	 0.1872219869	-0.197256
C	-1.3621803945	-0.5339935665	 0.233476839	-0.001005
C	-1.8805267936	-1.3487191122	-0.9287037706	-0.284088
C	-1.5735516506	-2.0234063267	 0.3853753504	-0.012427
C	-0.4090846074	-2.9962801105	 0.5100992465	-0.365338
C	-0.7823947189	-4.3556824053	 0.1131110629	 0.264063
N	-1.0901125866	-5.4254164514	-0.1970946423	-0.306882
H	 0.9464234673	 1.9744833381	-0.4850349632	 0.11439
H	-0.4136734415	 1.4516027003	-1.4924886704	 0.122202
H	-0.7136757305	 2.1833190833	 0.0881301539	 0.11749
H	 0.7097111777	-0.5034583546	-0.3670124051	 0.094442
H	 0.403657507	 0.2134613055	 1.205637618	 0.100355
H	-2.1087005922	 0.0699300082	 0.7453078417	 0.089123
H	-2.9160328333	-1.2500395523	-1.2336551274	 0.120116
H	-1.193844384	-1.5302498413	-1.7508008253	 0.115998
H	-2.4319832327	-2.3174951626	 0.9818027626	 0.104211
H	 0.4352312407	-2.681426004	-0.1108646427	 0.149505
H	-0.0416270212	-3.0304669759	 1.5430654384	 0.151834
47.9672	91.8819	106.843	182.8702	223.317	271.2817	325.6745	389.9502	414.6998	491.2231	569.5442	757.2721	798.6017	821.3599	872.0343	879.9052	929.7289	967.2196	986.3915	1023.194	1056.917	1074.6389	1116.7614	1147.3289	1154.5743	1199.7762	1248.425	1255.6505	1299.5506	1320.4458	1344.7855	1401.4502	1413.3005	1435.1925	1462.7663	1484.4293	1498.4398	1499.0261	1508.1284	2361.8267	3017.463	3034.5436	3040.5814	3052.5409	3089.0006	3102.822	3109.0852	3126.1037	3126.5253	3153.9822	3213.448
CCC1CC1CC#N	CC[C@H]1C[C@H]1CC#N	
InChI=1S/C7H11N/c1-2-6-5-7(6)3-4-8/h6-7H,2-3,5H2,1H3	InChI=1S/C7H11N/c1-2-6-5-7(6)3-4-8/h6-7H,2-3,5H2,1H3/t6-,7+/m0/s1
