24
gdb 121800	3.13515	0.7066	0.66982	4.1343	90.4	-0.3073	0.0445	0.3519	1831.7675	0.215359	-368.44821	-368.436861	-368.435917	-368.484938	41.035	
C	 0.1697288625	 1.5656382131	 0.0086781497	-0.383137
C	 0.0559595423	 0.0390540312	 0.0017848585	-0.163826
C	-1.3970997296	-0.4541530354	 0.0128754988	-0.193969
C	-1.4848851651	-1.9851307699	 0.0056600415	-0.19017
C	-2.9207678207	-2.5888312642	 0.0161707821	 0.071287
C	-3.699225847	-2.1987568522	 1.2931645678	-0.405207
C	-3.7234115471	-2.1853706099	-1.2415174675	-0.405208
C	-2.7669085515	-4.0551705738	 0.0068594505	 0.268219
N	-2.6411548791	-5.204468117	 0.0001350739	-0.345912
H	 1.2158258253	 1.8865883427	 0.0005781076	 0.11554
H	-0.319576098	 2.0038792067	-0.8682899068	 0.114891
H	-0.3030622037	 1.9946645764	 0.8991577645	 0.11489
H	 0.5677764039	-0.3639999199	-0.8818531443	 0.099626
H	 0.5842634187	-0.3731488314	 0.8713878164	 0.099627
H	-1.9022469875	-0.0480078954	 0.897966316	 0.100201
H	-1.9187750227	-0.0388096147	-0.8582482569	 0.100203
H	-0.961744057	-2.3708061756	-0.8778244638	 0.111854
H	-0.9450249798	-2.3800330293	 0.8748980603	 0.111861
H	-3.8849717019	-1.1218621576	 1.3071351162	 0.12524
H	-4.6648631914	-2.7100615399	 1.3283137471	 0.133161
H	-3.1389125823	-2.4664878468	 2.1932318323	 0.131225
H	-3.1803406031	-2.4433726631	-2.1548965283	 0.131213
H	-4.6895403054	-2.6964719901	-1.2637093588	 0.13316
H	-3.9093690399	-1.1084250442	-1.240426797	 0.12523
56.5213	82.5023	102.0907	139.9411	185.9894	187.3442	240.6003	255.1526	261.8131	285.1861	350.2291	355.0296	384.9719	448.9223	584.135	595.0624	723.4286	738.1561	792.4395	873.5646	903.5977	922.6473	952.2898	982.7223	1028.9901	1029.5644	1065.7518	1075.5876	1118.0607	1210.204	1219.8509	1227.2581	1267.2764	1299.7219	1332.5592	1345.1377	1375.5771	1400.2224	1400.4147	1413.6953	1423.3124	1480.324	1483.5807	1487.548	1491.8394	1499.1362	1499.2421	1504.5519	1510.7442	1514.5136	2350.1435	3016.2102	3022.4289	3029.5448	3033.4097	3041.0528	3045.8418	3049.6971	3056.6997	3078.6592	3097.0922	3104.1654	3121.1367	3123.5196	3124.8623	3128.1249
CCCCC(C)(C)C#N	CCCCC(C)(C)C#N	
InChI=1S/C8H15N/c1-4-5-6-8(2,3)7-9/h4-6H2,1-3H3	InChI=1S/C8H15N/c1-4-5-6-8(2,3)7-9/h4-6H2,1-3H3
