14
gdb 131356	4.71366	0.87517	0.80187	1.8941	64.73	-0.2401	-0.0417	0.1984	1354.6885	0.101466	-470.041456	-470.033345	-470.032401	-470.075918	28.472	
O	 0.0955490163	 1.282009096	-0.3692604763	-0.405335
C	 0.0903771869	-0.0388304366	-0.1585916125	 0.419412
N	 0.2919444814	-0.8927303165	-1.145328958	-0.279225
N	 0.202912047	-2.0807192393	-0.4790995047	-0.239156
C	-0.0510848321	-1.8857154148	 0.8273534848	 0.349633
C	-0.1604076735	-2.976269177	 1.8393765944	-0.389559
C	 1.0926287043	-3.062716765	 2.7131115643	 0.159047
O	 1.652628447	-4.0922205399	 2.9738560086	-0.223215
N	-0.1253043793	-0.5837943111	 1.0702809773	-0.393628
H	-0.0768735862	 1.7002486974	 0.4826897268	 0.312967
H	 0.3138203812	-2.9433723773	-0.9859709132	 0.284777
H	-1.0035158188	-2.7496285251	 2.5040624947	 0.161897
H	-0.333467071	-3.9520052322	 1.3793347759	 0.133462
H	 1.4439064368	-2.0818222387	 3.0972969179	 0.108923
27.2237	61.6057	136.3116	258.7444	311.124	396.4923	410.4058	436.4187	492.8725	522.4653	656.7874	725.8976	759.5249	780.1181	839.6264	1011.5235	1032.7913	1041.8768	1081.8546	1159.4673	1176.7915	1221.5699	1274.5247	1333.0579	1410.6474	1421.9429	1450.8529	1490.7202	1575.277	1637.8738	1840.4963	2917.6708	3041.5052	3117.6619	3667.2848	3817.33
OC1=NNC(CC=O)=N1	Oc1n[nH]c(CC=O)n1	
InChI=1S/C4H5N3O2/c8-2-1-3-5-4(9)7-6-3/h2H,1H2,(H2,5,6,7,9)	InChI=1S/C4H5N3O2/c8-2-1-3-5-4(9)7-6-3/h2H,1H2,(H2,5,6,7,9)
