20
gdb 87492	2.95028	1.36308	1.11515	1.4936	80.11	-0.2388	0.0655	0.3043	1173.753	0.169847	-403.047409	-403.038812	-403.037868	-403.080285	33.386	
C	-0.1152789867	 1.5810074426	-0.0421426044	-0.391484
C	-0.0603981497	 0.0755944173	 0.0360641818	-0.117205
N	 1.27139551	-0.5571492953	-0.2292287257	-0.413501
C	 0.6667663449	-0.6450655679	 1.0832528874	 0.434024
C	 1.1907278402	-0.2819268238	 2.4855103434	-0.052968
O	-0.1180306046	-0.7483836683	 3.0102675684	-0.308238
C	 0.2941866003	-1.7898619989	 2.0393096466	-0.080904
C	 1.7236767146	-1.7358945395	 2.6630153984	 0.04108
C	 2.9663961207	-2.245629817	 1.9519458102	-0.447787
H	 0.7983458125	 2.0192933045	 0.3679796797	 0.123447
H	-0.2148903481	 1.9163384548	-1.0799016909	 0.119256
H	-0.9697891078	 1.9647519438	 0.5249533046	 0.125195
H	-0.9249282859	-0.4394353253	-0.3819053995	 0.088569
H	 1.158939576	-1.4287151522	-0.7424395428	 0.23119
H	 1.5832385484	 0.6587408416	 2.8717335583	 0.094961
H	-0.3755114892	-2.6395749407	 1.8945931756	 0.089764
H	 1.6905736468	-2.0336509443	 3.7148563641	 0.081846
H	 3.0437734675	-1.8748621622	 0.9283329374	 0.14257
H	 3.8646512869	-1.9262309506	 2.4911321676	 0.1228
H	 2.9750457534	-3.3409487886	 1.9284186697	 0.117386
126.7699	137.4918	187.7944	198.6688	223.2175	299.3265	332.2891	412.6483	453.48	507.629	614.8704	657.2268	748.108	805.5192	809.6325	825.866	873.2158	895.1613	902.2361	1001.8341	1024.9461	1041.5192	1058.8459	1069.9569	1102.1433	1113.2635	1130.313	1141.7852	1161.3234	1205.304	1229.3748	1242.3596	1252.858	1257.2352	1361.3969	1382.9089	1412.1463	1414.1185	1481.8664	1492.9082	1496.9153	1504.6433	1533.3075	3036.0842	3037.5154	3075.4815	3093.5451	3100.6588	3104.3274	3106.1878	3122.8832	3126.0939	3137.5066	3489.2953
CC1NC11C2OC1C2C	C[C@H]1N[C@]21[C@H]1O[C@@H]2[C@H]1C	
InChI=1S/C7H11NO/c1-3-5-7(4(2)8-7)6(3)9-5/h3-6,8H,1-2H3	InChI=1S/C7H11NO/c1-3-5-7(4(2)8-7)6(3)9-5/h3-6,8H,1-2H3/t3-,4-,5-,6+,7+/m1/s1
