17
gdb 23498	3.38873	1.51788	1.31217	1.0263	75.58	-0.2317	0.0095	0.2411	989.321	0.138081	-417.90343	-417.896612	-417.895668	-417.934522	27.847	
O	-0.1828197556	 1.3030699011	 0.0799818889	-0.399139
N	-0.0327685926	-0.100221696	-0.0019540418	-0.30528
C	-1.1578758964	-0.6795161208	-0.0218133441	 0.496406
C	-1.4223606436	-2.1612033264	-0.0630816309	-0.159556
C	-2.2250081845	-2.2737398805	 1.256508362	-0.172948
N	-3.2996491761	-1.4579398707	 0.5836534201	-0.151894
C	-2.8576496801	-2.06267193	-0.7474778384	-0.001685
C	-3.0420068694	-0.6984019698	-1.4167196947	-0.237807
C	-2.5976585224	-0.2092971746	-0.0116945945	-0.105931
H	 0.732761918	 1.600948648	 0.1012588233	 0.305746
H	-0.6214764292	-2.8336820713	-0.3647952132	 0.083528
H	-2.6245555801	-3.2722401652	 1.4547254897	 0.112293
H	-1.7901442409	-1.8527580046	 2.1677460883	 0.114302
H	-3.3322024156	-2.9866580235	-1.0793965758	 0.085495
H	-2.4264008511	-0.4213603203	-2.2741790485	 0.114606
H	-4.0987040718	-0.4984354568	-1.6056644103	 0.119972
H	-2.8460642485	 0.7640495813	 0.3997662898	 0.10189
120.1641	208.9843	296.6389	388.711	399.2266	426.8681	511.4609	640.43	697.8652	734.3107	749.6612	776.7149	846.5572	882.7023	894.8715	918.6529	944.0265	956.4791	996.3641	1004.6099	1032.8508	1049.8293	1088.2133	1143.2725	1169.6052	1179.2223	1200.7652	1208.1928	1228.0918	1242.828	1271.2656	1279.1623	1314.749	1408.819	1479.2663	1502.6122	1796.1657	3050.5831	3074.6236	3111.0539	3112.1615	3137.9602	3139.838	3174.6052	3819.7288
ON=C1C2CN3C2CC13	ON=C1[C@H]2CN3[C@H]2C[C@H]13	
InChI=1S/C6H8N2O/c9-7-6-3-2-8-4(3)1-5(6)8/h3-5,9H,1-2H2	InChI=1S/C6H8N2O/c9-7-6-3-2-8-4(3)1-5(6)8/h3-5,9H,1-2H2/t3-,4-,5+/m0/s1
