20
gdb 70281	3.79249	1.03052	0.92387	2.2939	80.35	-0.2374	-0.0249	0.2125	1309.1119	0.170888	-403.149155	-403.140534	-403.13959	-403.182621	32.768	
C	 0.1560064161	 1.4642429096	-0.0671773657	-0.472351
C	-0.0444144559	-0.0293696247	 0.002255261	 0.346135
C	-0.8385667071	-0.6551215154	 1.0949169283	-0.29076
N	 0.6303353624	-0.7765228165	 1.0837643076	-0.124292
C	 1.1079660454	-2.0437724663	 0.5166251962	-0.184761
C	 0.3937557306	-2.2704882554	-0.8532364239	-0.092823
C	 0.0551589414	-0.8278412814	-1.2953574127	-0.303142
C	 1.2911154028	-2.9844073256	-1.8335235951	 0.147579
O	 1.079863977	-4.0667731814	-2.3146371338	-0.248354
H	 1.1143408171	 1.7095665495	-0.5387371725	 0.11925
H	-0.6387023407	 1.936692025	-0.6553344681	 0.11953
H	 0.1481375174	 1.9031366053	 0.9334750999	 0.130281
H	-1.2289717251	-0.0336848736	 1.8959089828	 0.115258
H	-1.4410730083	-1.5337817828	 0.8772252515	 0.112461
H	 2.1912083806	-1.9508007961	 0.3691963223	 0.110652
H	 0.9386469488	-2.8720270425	 1.2104593298	 0.121738
H	-0.5068994783	-2.8757750516	-0.7342263483	 0.098553
H	-0.854945686	-0.7842112832	-1.9005427787	 0.119248
H	 0.8693181376	-0.4126121745	-1.9049999722	 0.105394
H	 2.218617624	-2.4137160583	-2.0849458583	 0.070404
72.5765	97.4698	180.3402	219.8528	285.5614	343.1998	362.0292	371.2317	398.8069	480.802	586.2025	679.2763	718.1601	777.6501	865.1102	889.4753	903.5047	924.8355	956.2869	985.6401	1018.4005	1056.5701	1074.8774	1101.0075	1111.0842	1126.1745	1183.8099	1198.0134	1239.6544	1267.7179	1286.2795	1318.3712	1332.7251	1350.9795	1394.4763	1417.597	1427.8723	1484.1496	1489.782	1493.0535	1497.406	1515.1494	1834.0276	2835.2613	3018.9147	3028.8493	3031.1094	3081.6609	3088.742	3091.3849	3100.2111	3107.9671	3120.8062	3189.1001
CC12CN1CC(C2)C=O	C[C@]12CN1C[C@@H](C2)C=O	
InChI=1S/C7H11NO/c1-7-2-6(4-9)3-8(7)5-7/h4,6H,2-3,5H2,1H3	InChI=1S/C7H11NO/c1-7-2-6(4-9)3-8(7)5-7/h4,6H,2-3,5H2,1H3/t6-,7+,8?/m1/s1
