20
gdb 105064	2.6975	1.26687	1.11796	1.962	74.53	-0.24	0.0641	0.3041	1181.3995	0.169757	-440.233271	-440.223751	-440.222807	-440.267381	36.093	
O	-0.1238622257	 1.4233346733	 0.3795471603	-0.430032
C	-0.0718045126	 0.0051330505	 0.4657840295	-0.159078
C	-1.4012438831	-0.5628065546	-0.0044315752	 0.245556
C	-2.645507352	 0.2061830464	 0.2629125369	-0.282475
N	-2.0919632414	 0.1148723314	-1.1054754482	-0.357791
C	-1.4295314214	-2.0687441649	-0.0260089817	 0.337913
O	-1.139147408	-2.6461327429	 1.2265717228	-0.463369
C	-2.3651430882	-2.8062391814	-0.943176001	-0.331966
C	-0.8692180914	-2.8174686219	-1.1965463368	-0.297568
H	 0.7346760222	 1.7735716796	 0.6308029937	 0.29499
H	 0.7288415561	-0.3996476149	-0.1729980244	 0.097782
H	 0.1217819945	-0.3331334085	 1.49230965	 0.10754
H	-3.5846049938	-0.3218335688	 0.4069294249	 0.107844
H	-2.553356723	 1.1539565737	 0.782536793	 0.127792
H	-1.5920314216	 0.9801503924	-1.3013041748	 0.242259
H	-1.8822179061	-2.4542206946	 1.8104432922	 0.280369
H	-2.8058616858	-3.71572201	-0.5503423447	 0.106429
H	-2.9841753642	-2.2209563001	-1.6122675192	 0.136817
H	-0.4983012005	-2.2408041554	-2.0364917321	 0.118547
H	-0.325601184	-3.7290114292	-0.9771891952	 0.118439
69.8705	103.6202	182.8492	199.8605	229.0175	272.9093	320.2609	332.9959	356.2679	360.6981	490.0033	501.7886	537.1731	656.1396	781.8332	814.1374	873.2946	908.5352	931.7666	941.2021	956.1822	987.8759	1007.4567	1021.1266	1056.1668	1082.0883	1085.2269	1112.3455	1144.5185	1198.1905	1201.9378	1239.2579	1258.221	1261.2531	1296.2341	1336.4802	1367.9638	1419.2398	1438.8189	1452.6046	1493.7388	1500.5484	1521.8527	2981.0366	3032.9179	3113.1618	3138.2073	3140.1359	3209.7111	3227.1411	3241.254	3493.6891	3785.2589	3848.4863
OCC1(CN1)C1(O)CC1	OC[C@]1(CN1)C1(O)CC1	
InChI=1S/C6H11NO2/c8-4-5(3-7-5)6(9)1-2-6/h7-9H,1-4H2	InChI=1S/C6H11NO2/c8-4-5(3-7-5)6(9)1-2-6/h7-9H,1-4H2/t5-/m1/s1
