17
gdb 23277	2.80728	1.482	1.1291	2.3559	71.61	-0.2419	-0.0073	0.2346	1079.6915	0.136748	-455.078512	-455.070494	-455.06955	-455.111165	31.143	
O	-0.1715985804	 1.3079877421	-0.4445658752	-0.407997
N	 0.0116328189	-0.0945777922	-0.3541331102	-0.244935
C	-1.0741647952	-0.6597079219	-0.0061937941	 0.44528
C	-1.1896325729	-2.1271161934	 0.1590910902	-0.161092
N	-1.5844572547	-2.4797727408	 1.5540908226	-0.32213
C	-2.608716664	-2.4259967915	 0.5021345077	-0.041911
C	-3.4181083565	-1.136145064	 0.5420052205	-0.237642
C	-2.418555656	 0.0168021887	 0.2653689322	 0.040886
O	-2.3741027237	 0.9101839312	 1.3613757758	-0.431496
H	 0.7054336109	 1.6144966885	-0.6969706253	 0.311248
H	-0.5449521291	-2.7959281537	-0.398285318	 0.101877
H	-1.3153331042	-3.4477118839	 1.7189186941	 0.236046
H	-3.0796755862	-3.3475272933	 0.1754644798	 0.091396
H	-4.2059347011	-1.1570957486	-0.2160105185	 0.103146
H	-3.8834298352	-0.9841892656	 1.5187185986	 0.132719
H	-2.7057839642	 0.5556747181	-0.6509045517	 0.089655
H	-1.6783141062	 1.5473365302	 1.1575370514	 0.29495
65.674	148.5798	209.084	299.7048	347.9878	396.0171	415.152	435.7043	449.9723	500.0731	614.9757	666.5464	709.6803	783.1841	835.1729	864.0039	894.0287	925.643	952.4018	987.2746	1015.8446	1043.8295	1119.1404	1122.2489	1157.5444	1217.703	1230.0269	1243.9698	1268.6494	1318.7532	1333.8711	1365.3905	1391.8896	1424.1045	1428.7715	1475.6605	1750.7201	2974.7467	3065.3008	3117.2236	3162.744	3190.3116	3490.9172	3787.6653	3827.4188
ON=C1C2NC2CC1O	ON=C1[C@H]2N[C@H]2C[C@H]1O	
InChI=1S/C5H8N2O2/c8-3-1-2-4(6-2)5(3)7-9/h2-4,6,8-9H,1H2	InChI=1S/C5H8N2O2/c8-3-1-2-4(6-2)5(3)7-9/h2-4,6,8-9H,1H2/t2-,3+,4-/m0/s1
