23
gdb 73666	2.09579	1.85768	1.41334	0.1059	89.35	-0.2348	0.0316	0.2663	1079.9659	0.208593	-351.193755	-351.185609	-351.184665	-351.226195	33.318	
C	-0.1676731792	 1.5509737119	 0.108757161	-0.455362
C	 0.0014131649	 0.0291065477	-0.0042201196	 0.302946
C	-1.3697234527	-0.7074357552	 0.0273190993	-0.241692
C	-1.0809865994	-2.0448755592	 0.7212568543	-0.203783
C	-0.1030352822	-1.6410133625	 1.8363631516	-0.216175
C	 0.8405287171	-0.6095021481	 1.175526545	-0.041608
C	 2.1103881823	-1.2334717255	 0.5228171335	-0.272629
C	 1.9236752665	-1.0094724845	-0.9549890277	-0.078245
C	 0.8056774219	-0.3442967629	-1.2306064881	-0.10073
H	 0.8014584313	 2.0605267806	 0.0949961932	 0.112119
H	-0.7621940372	 1.9457310327	-0.723559776	 0.108507
H	-0.6812669282	 1.8201495653	 1.0389064264	 0.108116
H	-2.0854435245	-0.128515285	 0.625050265	 0.087192
H	-1.8023006826	-0.8196905193	-0.9720278047	 0.087749
H	-1.9817322158	-2.5403165261	 1.0953825085	 0.089022
H	-0.5938228451	-2.7340272298	 0.0212719233	 0.101925
H	-0.6623265867	-1.1643681806	 2.650987312	 0.090451
H	 0.4370332847	-2.4872855889	 2.2723511261	 0.089059
H	 1.1358548296	 0.1550923825	 1.8986420194	 0.062166
H	 3.0337904421	-0.7638761667	 0.8868405306	 0.100599
H	 2.2074117184	-2.3012938033	 0.7615071288	 0.098821
H	 2.6399778916	-1.3589265582	-1.6917314905	 0.08747
H	 0.4688387432	-0.0724802349	-2.2270424016	 0.084085
65.2576	190.1777	243.5721	246.3848	282.6504	358.4247	411.6283	454.941	551.9857	570.9714	606.0632	735.8301	759.7348	793.6766	815.9966	866.5707	903.0416	915.5847	934.7346	955.2282	968.0042	981.8197	986.0122	1001.3484	1052.5263	1064.0338	1095.9134	1129.1698	1134.4801	1175.6863	1195.9412	1217.9134	1227.994	1275.5587	1278.7136	1313.4522	1322.8627	1332.124	1343.4014	1360.2014	1384.9141	1409.1177	1482.9192	1487.4656	1490.5212	1491.9873	1498.3955	1507.7859	1695.4155	3010.2389	3018.1594	3023.1478	3025.4728	3031.4422	3037.7863	3066.7029	3075.3031	3077.891	3084.553	3091.2172	3095.6033	3163.7354	3192.3865
CC12CCCC1CC=C2	C[C@]12CCC[C@H]1CC=C2	
InChI=1S/C9H14/c1-9-6-2-4-8(9)5-3-7-9/h2,6,8H,3-5,7H2,1H3	InChI=1S/C9H14/c1-9-6-2-4-8(9)5-3-7-9/h2,6,8H,3-5,7H2,1H3/t8-,9+/m1/s1
