20
gdb 85238	2.65035	1.56871	1.14035	3.0893	80.76	-0.2501	0.0306	0.2807	1135.5925	0.171346	-403.174051	-403.16539	-403.164446	-403.206911	33.529	
C	 0.1316504524	 1.558037455	-0.0865135114	-0.397684
C	-0.0073275991	 0.0563307015	 0.1028945376	 0.104273
O	 0.4833299201	-0.6167993042	-1.0818515495	-0.262968
C	 1.1232711671	-1.784161571	-0.7546121712	 0.361582
N	 1.3908791938	-2.710786416	-1.5709397454	-0.554552
C	 1.4539271988	-1.7935528573	 0.7009779135	 0.261861
C	 1.5979257561	-3.120665326	 1.3994572212	-0.477276
C	 2.2643139106	-0.5777612677	 1.1206546503	-0.327873
C	 0.7689228034	-0.5619519629	 1.2546436695	-0.114119
H	 1.182268012	 1.8481421171	-0.1707113939	 0.126277
H	-0.3909923889	 1.8783973232	-0.9918588593	 0.130603
H	-0.3063566229	 2.0838252207	 0.7676593274	 0.120482
H	-1.0710166378	-0.2003442037	 0.2076364112	 0.08776
H	 1.0306377062	-2.4841676245	-2.499335348	 0.220133
H	 2.3973498147	-3.7053528235	 0.9359439863	 0.146159
H	 1.8370236087	-2.9815258122	 2.4579533322	 0.108936
H	 0.6770811743	-3.7076799649	 1.3276539807	 0.125557
H	 2.8415383908	-0.6847638898	 2.0325391118	 0.118432
H	 2.7390029497	 0.0267595309	 0.3549061971	 0.126362
H	 0.3144074401	-0.5624102248	 2.2382865199	 0.096055
123.3865	144.8948	181.8302	228.9821	230.8853	285.5276	295.737	380.7386	479.1716	507.1802	566.8629	673.4129	691.4053	739.5467	796.7942	852.4568	890.0249	898.1721	920.785	970.7514	979.8325	1023.9999	1034.1232	1059.1045	1075.1115	1116.1864	1121.7674	1132.5914	1158.5168	1235.3705	1281.7798	1344.2821	1364.468	1383.2478	1407.8854	1413.4269	1426.1517	1481.9485	1485.5056	1490.4889	1498.7123	1499.6369	1771.9627	3003.2212	3040.4966	3045.4727	3108.2134	3117.8122	3117.9375	3126.678	3131.4592	3182.7153	3218.8543	3474.7622
CC1OC(=N)C2(C)CC12	C[C@H]1O[C]([NH])[C@@]2(C)C[C@@H]12	
InChI=1S/C7H11NO/c1-4-5-3-7(5,2)6(8)9-4/h4-5,8H,3H2,1-2H3	InChI=1S/C7H11NO/c1-4-5-3-7(5,2)6(8)9-4/h4-5,8H,3H2,1-2H3/t4-,5+,7+/m1/s1
