18
gdb 27883	1.90417	1.75831	0.92459	2.007	83.5	-0.2413	-0.0017	0.2396	1257.2854	0.147442	-402.031693	-402.022677	-402.021732	-402.066608	32.884	
C	 0.0635244517	 1.4758963087	 0.0218031369	-0.465954
C	 0.0560383608	-0.0311897538	-0.016789582	 0.338935
C	 0.135739066	-0.7198084591	-1.2271647371	-0.337405
C	 0.1248551561	-2.1132281308	-1.2054279015	 0.431388
O	 0.1979149422	-2.8707313013	-2.3275781652	-0.432912
C	 0.0349039406	-2.7648622037	 0.0224133518	-0.2701
C	-0.0405429101	-1.9939889248	 1.1796077898	 0.332757
C	-0.1395029316	-2.6395618972	 2.5380179227	-0.465047
N	-0.0304590411	-0.6531368433	 1.1644192822	-0.392753
H	 0.135616865	 1.9104281093	-0.9783645517	 0.111727
H	-0.8483305306	 1.8466759639	 0.5004872162	 0.139289
H	 0.9057379153	 1.834874342	 0.621738785	 0.139283
H	 0.2048477529	-0.1798538167	-2.1671790857	 0.080091
H	 0.2555728217	-2.2924456279	-3.0961445339	 0.299674
H	 0.0251083665	-3.8474771149	 0.0582672302	 0.099789
H	 0.7003488632	-2.327785753	 3.1671086433	 0.13779
H	-1.0535923832	-2.3150325736	 3.0453762986	 0.137793
H	-0.1428385254	-3.7301554137	 2.4722150104	 0.115656
38.9264	42.4822	187.7679	204.0006	237.5967	279.0492	310.106	418.1864	499.5996	528.262	539.3123	574.1585	598.2373	618.0656	750.6843	843.3532	880.3402	959.4193	967.4778	1008.8375	1049.0358	1051.0385	1055.412	1059.9263	1177.933	1202.8278	1237.9715	1326.9067	1378.521	1405.7914	1416.5309	1449.7833	1469.7131	1474.2952	1474.9583	1500.9782	1510.8801	1627.7883	1645.0717	3041.4377	3042.0261	3102.0173	3103.4374	3123.7195	3126.0487	3163.0224	3204.3845	3812.311
CC1=CC(O)=CC(C)=N1	Cc1cc(O)cc(C)n1	
InChI=1S/C7H9NO/c1-5-3-7(9)4-6(2)8-5/h3-4H,1-2H3,(H,8,9)	InChI=1S/C7H9NO/c1-5-3-7(9)4-6(2)8-5/h3-4H,1-2H3,(H,8,9)
