18
gdb 22587	3.99211	0.9875	0.83269	1.554	80.76	-0.227	-0.0341	0.1929	1348.1039	0.148065	-439.061004	-439.052479	-439.051534	-439.094096	32.768	
O	-0.048058201	 1.3633389169	-0.0583036873	-0.394326
N	 0.0510969021	-0.034841142	-0.0128755911	-0.21156
C	-1.09659465	-0.6086249184	 0.0523106683	 0.358411
C	-1.1049309477	-2.1191966963	 0.0843935967	-0.302794
C	-2.2361078465	-2.6403743337	 0.9809270196	-0.218068
C	-3.5890247514	-2.1052094665	 0.5125826438	 0.09091
O	-4.5440975983	-2.435461959	 1.5168667935	-0.434218
C	-3.5284609914	-0.6152380171	 0.271434937	-0.109157
C	-2.3919456319	 0.0670061862	 0.0795165417	-0.114456
H	 0.8759078606	 1.6272279602	-0.1133377154	 0.307348
H	-1.2542124068	-2.493881284	-0.9384686025	 0.113572
H	-0.1295772804	-2.4816566977	 0.4165472807	 0.12125
H	-2.254695074	-3.7337909457	 0.9902837417	 0.105331
H	-2.0863069025	-2.3057372746	 2.0134760355	 0.119521
H	-3.860247416	-2.6035696525	-0.4362719466	 0.077014
H	-5.4156703786	-2.1724863969	 1.2040999476	 0.282043
H	-4.4821457302	-0.0897645244	 0.266078027	 0.090738
H	-2.3992991261	 1.1401224054	-0.0636657803	 0.118439
66.1165	182.5291	234.193	256.0714	270.5001	312.9049	355.36	380.796	397.7569	468.6701	537.7453	584.8162	648.1414	726.6005	784.5993	795.4367	867.3839	949.856	971.2296	1002.3059	1011.054	1054.8726	1070.8592	1094.1354	1157.5194	1174.114	1230.34	1280.1683	1288.7992	1342.8949	1348.3629	1356.5483	1402.6017	1412.606	1435.0486	1478.2908	1496.0602	1675.2386	1701.9388	2925.689	3009.0967	3049.6956	3098.2989	3105.4991	3140.8892	3216.8774	3816.3092	3826.4091
ON=C1CCC(O)C=C1	ON=C1CC[C@@H](O)C=C1	
InChI=1S/C6H9NO2/c8-6-3-1-5(7-9)2-4-6/h1,3,6,8-9H,2,4H2	InChI=1S/C6H9NO2/c8-6-3-1-5(7-9)2-4-6/h1,3,6,8-9H,2,4H2/t6-/m0/s1
