15
gdb 66041	2.53992	1.31563	1.12824	2.2576	72.42	-0.2731	-0.0092	0.2639	1112.8751	0.111124	-416.746608	-416.737713	-416.736769	-416.780369	32.19	
N	 0.0151657819	 1.5009830719	-0.0706766172	-0.531742
C	 0.0259322945	 0.0508159329	-0.04120912	 0.065335
C	 0.0959662221	-0.5099795395	 1.4045787528	-0.080147
O	-1.309212614	-0.8196504358	 1.4044070732	-0.270701
C	-1.42268772	-0.5636827483	-0.0105933827	-0.064336
C	-2.5256802043	 0.2931740728	-0.3915167202	 0.321669
C	-3.4407703815	 0.987589122	-0.7442950973	-0.413656
C	 0.9342253252	-0.5627575002	-1.0179409631	 0.228009
N	 1.6638495593	-1.0090402343	-1.7966103442	-0.333839
H	 0.9637275812	 1.8629629064	-0.0382603467	 0.247322
H	-0.4119696832	 1.8339906264	-0.9305127479	 0.250319
H	 0.7181274254	-1.4050635824	 1.5176011778	 0.12034
H	 0.3550189446	 0.2405062815	 2.1560234408	 0.129534
H	-1.467330369	-1.5057481014	-0.5730893971	 0.120069
H	-4.2556849623	 1.6008406581	-1.0426356983	 0.211827
67.0118	135.1114	143.4169	190.1223	226.3848	233.387	341.468	391.9906	456.6186	508.8444	569.2262	594.0403	637.3993	639.9637	692.1094	823.1208	876.0188	931.4241	945.268	979.8875	1026.5976	1065.8363	1137.0858	1179.7135	1228.8554	1273.2789	1293.8755	1349.6089	1370.8686	1507.8144	1652.0088	2238.2001	2341.9606	3017.3754	3036.4207	3104.6185	3494.0348	3499.0218	3577.8677
NC1(COC1C#C)C#N	N[C@]1(CO[C@H]1C#C)C#N	
InChI=1S/C6H6N2O/c1-2-5-6(8,3-7)4-9-5/h1,5H,4,8H2	InChI=1S/C6H6N2O/c1-2-5-6(8,3-7)4-9-5/h1,5H,4,8H2/t5-,6-/m0/s1
