17
gdb 72013	2.62609	1.90514	1.45501	1.5855	71.2	-0.2341	-0.016	0.2181	933.1037	0.136506	-421.805117	-421.798044	-421.7971	-421.836368	28.51	
C	 0.0736608126	 1.512666925	-0.161814726	-0.509855
C	-0.022638672	 0.0229231865	-0.054935433	 0.465339
O	 0.4645830437	-0.7441760095	-1.1637802856	-0.326201
C	-0.2682487066	-1.8421866591	-0.5517497737	 0.065055
C	 0.620319161	-2.1401916111	 0.6776981191	-0.224128
C	 0.3858741528	-0.7467095465	 1.3103621254	-0.253086
C	-1.12486671	-0.831065834	 1.5654473069	 0.440837
O	-1.8397251073	-0.7249601886	 2.5194753553	-0.329252
C	-1.3292426998	-0.8496847386	 0.0587452154	-0.258429
H	 1.1230474648	 1.8230643571	-0.1987756717	 0.138398
H	-0.4237532483	 1.8702647921	-1.067492551	 0.136565
H	-0.3931669607	 1.9875254715	 0.7065677424	 0.138683
H	-0.5366819864	-2.6370872261	-1.2449251021	 0.093027
H	 0.2744871736	-2.9628648398	 1.3093318452	 0.115401
H	 1.6514380038	-2.31656243	 0.3666925192	 0.120021
H	 1.0864634519	-0.3528992798	 2.0416221407	 0.089354
H	-2.2580362632	-0.6514343991	-0.4689692666	 0.098271
125.9317	202.8316	251.6919	303.9769	371.6167	460.5293	545.4777	563.2928	611.8753	687.0459	705.5926	790.8197	800.3667	838.9373	892.0568	905.0351	924.5584	964.4668	986.6777	1002.3086	1041.883	1082.6104	1095.1602	1135.4889	1149.689	1162.5901	1182.3137	1203.6672	1285.0493	1295.5435	1301.0007	1341.9512	1417.2514	1474.9877	1487.4563	1494.1376	1893.9261	3040.1235	3068.1728	3110.5117	3120.6817	3128.6153	3141.8853	3162.9406	3166.2632
CC12OC3CC1C(=O)C23	C[C@@]12O[C@H]3C[C@@H]1C(=O)[C@@H]23	
InChI=1S/C7H8O2/c1-7-3-2-4(9-7)5(7)6(3)8/h3-5H,2H2,1H3	InChI=1S/C7H8O2/c1-7-3-2-4(9-7)5(7)6(3)8/h3-5H,2H2,1H3/t3-,4+,5+,7-/m1/s1
