17
gdb 8197	2.69848	2.6488	1.73675	1.6802	67.76	-0.2399	0.02	0.2599	816.0921	0.141964	-363.873151	-363.865667	-363.864723	-363.904341	28.801	
C	-0.0840196373	 1.5256891317	-0.1035984398	-0.474912
C	 0.0070919796	 0.037801173	 0.0541227221	 0.367924
C	 1.2335723402	-0.782972176	-0.241632027	-0.38105
C	 0.6529740168	-0.7890029034	 1.1641141437	 0.283071
C	 1.4218645603	-0.2754954991	 2.3515258536	-0.470738
N	-0.2765052092	-1.8778890136	 1.4170693128	-0.299009
C	-1.2437639364	-1.7057988979	 0.6104145765	 0.081678
O	-1.2292081361	-0.6318675144	-0.2179733681	-0.245178
H	 0.8604080903	 1.9947336929	 0.1850980528	 0.126325
H	-0.290131733	 1.7979264429	-1.1441226078	 0.133777
H	-0.8805113243	 1.9382604366	 0.5232589204	 0.130595
H	 1.141509483	-1.6795641207	-0.8460022594	 0.119987
H	 2.1521753156	-0.2224244651	-0.3825097149	 0.115182
H	 2.0393002762	 0.585583181	 2.0794626983	 0.112689
H	 0.7447518577	 0.0258774393	 3.1568483505	 0.125547
H	 2.0822749521	-1.0563944463	 2.7417159579	 0.134184
H	-2.1136438855	-2.3440034109	 0.5122100584	 0.13993
179.5181	183.0842	201.5011	217.2889	311.5308	369.2048	419.5963	468.8277	585.1808	609.2659	687.2067	766.8675	784.1078	907.6386	923.4372	932.9743	947.4864	977.5658	986.0998	1035.1443	1101.8079	1106.6046	1141.9841	1191.8521	1223.1654	1300.0773	1339.9187	1385.6189	1413.4914	1426.6584	1475.388	1476.3473	1483.4813	1495.4358	1505.4345	1668.7739	3036.8601	3038.9659	3102.9196	3105.4451	3112.6073	3120.5343	3124.9422	3216.9443	3225.9911
CC12CC1(C)N=CO2	C[C@@]12C[C@]1(C)N=CO2	
InChI=1S/C6H9NO/c1-5-3-6(5,2)8-4-7-5/h4H,3H2,1-2H3	InChI=1S/C6H9NO/c1-5-3-6(5,2)8-4-7-5/h4H,3H2,1-2H3/t5-,6+/m0/s1
