21
gdb 56814	2.32136	1.26922	0.95265	4.4744	83.2	-0.2292	0.0318	0.261	1310.172	0.18073	-383.256856	-383.246435	-383.245491	-383.292379	37.368	
C	-0.8268327599	 1.3245014601	 0.3773770133	-0.397424
C	 0.4656419238	 0.6017791889	-0.0557560832	-0.172578
C	 1.4688259074	 1.5750709333	-0.5103453439	 0.282855
N	 2.2545215862	 2.3460169181	-0.8631180178	-0.327721
C	 1.0288896722	-0.2363203101	 1.092459445	-0.002511
C	 0.6418874726	-1.6703206116	 1.2988623697	-0.012194
C	-0.3069974265	-2.430326302	 0.3948184696	-0.421724
N	 2.007246994	-1.3032013659	 0.9200445885	-0.103482
C	 2.5451207585	-1.6319070637	-0.3926566874	-0.327912
H	-0.6390330451	 1.963957615	 1.2443062267	 0.140922
H	-1.2164166932	 1.9492106623	-0.4298657273	 0.138074
H	-1.5862140908	 0.5872369854	 0.6498800442	 0.130749
H	 0.2358369082	-0.0342522677	-0.9150883061	 0.123137
H	 1.2128503364	 0.3755277834	 1.9764021512	 0.101052
H	 0.5780556709	-2.0033644819	 2.3353247535	 0.094733
H	-0.3233272706	-2.0712318232	-0.6359509259	 0.12109
H	-0.0351121686	-3.4910975092	 0.3676391614	 0.131552
H	-1.3276370418	-2.3652711512	 0.7863575403	 0.127705
H	 1.8248037884	-1.6315592141	-1.2234360579	 0.09819
H	 3.3368774823	-0.9171760254	-0.6342624446	 0.147986
H	 2.9932754155	-2.6290393404	-0.3430620192	 0.1275
51.6369	105.2099	152.3294	159.3732	176.2392	207.6542	219.1131	252.4789	278.0527	306.4775	454.2651	482.1963	520.0675	543.9417	599.6096	744.0999	783.6354	829.4897	881.6727	983.4435	989.0484	1047.4625	1077.992	1095.7337	1108.9951	1140.5149	1160.2259	1170.5963	1188.7933	1204.4518	1273.0875	1320.6397	1357.431	1389.65	1409.3814	1414.7873	1433.5895	1462.5318	1485.2502	1492.1741	1496.9846	1500.0842	1506.3212	1508.0123	2354.8907	2994.5915	3039.1978	3050.0909	3071.3389	3075.2756	3088.7994	3095.5087	3097.3985	3112.6225	3125.7857	3128.8598	3132.0757
CC(C#N)C1C(C)N1C	C[C@@H](C#N)[C@H]1[C@@H](C)N1C	
InChI=1S/C7H12N2/c1-5(4-8)7-6(2)9(7)3/h5-7H,1-3H3	InChI=1S/C7H12N2/c1-5(4-8)7-6(2)9(7)3/h5-7H,1-3H3/t5-,6+,7-,9?/m0/s1
