18
gdb 41122	3.83142	1.94364	1.53336	1.4273	78.59	-0.2254	-0.0017	0.2237	876.0875	0.150908	-364.737576	-364.731646	-364.730701	-364.767369	26.216	
C	-0.0375371039	 1.4835596405	-0.0141315136	-0.157943
C	 1.4891022054	 1.8674339097	-0.0265714782	-0.381718
C	 2.0259284555	 0.4543591633	-0.0048025762	 0.363838
C	 3.3779229321	-0.2236709218	 0.0013699799	-0.249282
C	 3.0643284539	-1.5266356172	 0.0246046948	-0.095457
C	 1.5341752904	-1.5788110904	 0.0314614646	-0.111762
C	 1.0751609945	-0.3929664913	 0.9245295854	-0.029659
N	-0.0677094299	-0.0095560425	 0.0112096663	-0.156136
C	 1.0680429939	-0.4237441121	-0.8975352892	-0.029659
H	-0.5595313229	 1.8701998955	 0.8659321188	 0.105837
H	-0.5664249257	 1.8403196957	-0.9026595308	 0.105837
H	 1.775802721	 2.4258234796	-0.9228751944	 0.103092
H	 1.7827134356	 2.4557248744	 0.8481080481	 0.103092
H	 4.3529533519	 0.2423712445	-0.0103135328	 0.107064
H	 3.727010387	-2.3812445089	 0.0364529994	 0.106045
H	 1.0120977479	-2.5339646362	 0.0496351765	 0.07315
H	 0.9916539119	-0.3467884944	 2.0154614754	 0.071831
H	 0.9760110614	-0.4144271083	-1.9887189739	 0.071831
238.5897	330.5453	400.7582	416.7332	533.7445	653.877	670.2336	727.583	738.7306	767.9846	800.1366	826.7257	842.8891	867.5297	902.7801	911.1731	913.3082	939.2777	949.1484	1009.6403	1033.2156	1061.7852	1084.5933	1116.835	1130.7585	1138.7112	1177.0076	1187.223	1216.7347	1233.9426	1249.1337	1257.7319	1286.7254	1301.8363	1331.7393	1362.5569	1491.0044	1510.9356	1610.4773	3047.9627	3057.3864	3057.4744	3065.8053	3085.3928	3107.2645	3135.8216	3216.8088	3242.639
C1CC23C=CC4C2N1C34	C1C[C@@]23C=C[C@H]4[C@@H]2N1[C@@H]34	
InChI=1S/C8H9N/c1-2-8-3-4-9-6(8)5(1)7(8)9/h1-2,5-7H,3-4H2	InChI=1S/C8H9N/c1-2-8-3-4-9-6(8)5(1)7(8)9/h1-2,5-7H,3-4H2/t5-,6-,7+,8-
