19
gdb 81288	2.61193	1.56719	1.24742	2.6136	75.1	-0.2424	-0.0147	0.2277	1068.8862	0.159894	-423.032066	-423.024053	-423.023109	-423.064673	30.963	
C	-0.17052998	 1.4591561631	-0.0446177112	-0.42629
C	 0.0419734203	-0.0501623676	-0.0390430391	-0.002284
C	 1.2792931409	-0.57475505	-0.8228321965	 0.128188
C	 2.1171953333	-0.405102187	 0.4687966701	-0.274757
C	 0.7718840812	-0.6113109686	 1.2368865716	-0.135123
C	 0.5048913741	-2.0949083887	 1.2666209355	 0.378255
O	 0.1246188433	-2.719404592	 2.2259275838	-0.328153
C	 0.7674943486	-2.7950762581	-0.0792979228	-0.181281
O	 1.1214566694	-1.9421455217	-1.1647479668	-0.278293
H	 0.7385924326	 2.0112681786	 0.2129293244	 0.120605
H	-0.4950880454	 1.7966395879	-1.0348036021	 0.124487
H	-0.9445919108	 1.7432712203	 0.6755446498	 0.126934
H	-0.8930302313	-0.5541170896	-0.3054461944	 0.083072
H	 1.5859838767	-0.0675727562	-1.7396579121	 0.081553
H	 2.9279591902	-1.1179267664	 0.6374652891	 0.111741
H	 2.4997077707	 0.6090291872	 0.590783426	 0.117331
H	 0.6073251922	-0.1493903667	 2.2109991075	 0.081987
H	 1.5667459917	-3.5304426808	 0.0864427185	 0.134264
H	-0.1336673277	-3.3600127239	-0.3460106112	 0.137765
76.1888	147.8472	202.6467	245.9833	265.1949	402.5806	422.0349	461.3982	464.3338	571.1559	595.3646	752.9985	796.2598	844.9202	865.3024	905.4615	920.3762	965.5865	1000.1937	1029.8744	1060.7691	1070.0907	1082.6022	1109.1485	1147.0093	1167.683	1226.5052	1233.1622	1248.8947	1265.9667	1272.8414	1290.6671	1334.0464	1366.4018	1391.1557	1412.1383	1476.212	1489.6532	1496.6299	1502.0356	1829.4063	3016.4286	3033.8513	3048.0941	3058.0556	3072.9309	3096.349	3099.9347	3106.5067	3110.9324	3133.6366
CC1C2CC1C(=O)CO2	C[C@H]1[C@H]2C[C@@H]1C(=O)CO2	
InChI=1S/C7H10O2/c1-4-5-2-7(4)9-3-6(5)8/h4-5,7H,2-3H2,1H3	InChI=1S/C7H10O2/c1-4-5-2-7(4)9-3-6(5)8/h4-5,7H,2-3H2,1H3/t4-,5+,7-/m1/s1
