23
gdb 114343	2.67195	1.25316	1.14817	1.1893	85.41	-0.2453	0.0747	0.32	1235.6912	0.20685	-388.282955	-388.273836	-388.272892	-388.31668	35.112	
C	 0.3844251685	 0.7848477404	-0.315268345	-0.238485
O	-0.015575952	-0.5052639118	 0.0828750143	-0.228732
C	-1.4201620791	-0.6502173026	 0.2590519381	 0.119466
C	-2.2156036986	-0.738922797	-1.0804350355	-0.251478
C	-2.8240568237	-2.133474894	-1.1581384664	-0.06078
C	-1.9210004415	-3.3478701908	-1.1963467871	 0.006003
C	-0.4497481494	-3.3209007787	-1.552139136	-0.438219
C	-2.5016389605	-2.881489908	 0.1213586492	-0.064118
C	-1.6841221994	-1.9711415072	 1.0284842004	-0.253877
H	 1.4765525291	 0.7869215908	-0.3566603074	 0.126236
H	-0.0036957643	 1.06209286	-1.3066953209	 0.105984
H	 0.0537097921	 1.5484493907	 0.4068322776	 0.103234
H	-1.7709022956	 0.212454519	 0.8454083078	 0.068005
H	-3.0157858338	 0.0083391776	-1.0999052122	 0.095916
H	-1.5538847546	-0.5140020529	-1.92421945	 0.106748
H	-3.8013257794	-2.2213935635	-1.6215908206	 0.074447
H	-2.4283708196	-4.2292381448	-1.5846938623	 0.076436
H	 0.0628328883	-2.4384444534	-1.16513434	 0.148785
H	 0.0583969158	-4.2050563832	-1.149835789	 0.109418
H	-0.3182092121	-3.3364192854	-2.6405537115	 0.106996
H	-3.2439968263	-3.5153524521	 0.5950503322	 0.074553
H	-0.7238291222	-2.3994277755	 1.3320798583	 0.115927
H	-2.2470469518	-1.7685648177	 1.9449647961	 0.097538
74.0144	128.5277	165.518	206.7127	231.1296	234.9341	289.0131	399.5533	412.7322	453.7613	529.7265	668.7618	687.1682	747.5372	765.5388	799.2961	892.5528	896.0586	959.4215	971.9431	982.8769	1026.5408	1052.3608	1078.2352	1093.1838	1112.4304	1137.0183	1143.4781	1144.1098	1184.4693	1202.6739	1211.7402	1241.6104	1265.0559	1268.0775	1322.1971	1323.8122	1365.5058	1369.5716	1399.137	1430.7919	1443.4108	1476.8546	1477.6923	1488.2806	1493.1831	1509.8816	1513.4271	1516.9172	2971.6167	2979.147	3022.1546	3026.6137	3039.4014	3051.2692	3074.983	3077.7327	3089.5635	3111.5526	3112.2495	3139.4188	3150.1706	3162.4468
COC1CC2C(C)C2C1	CO[C@H]1C[C@H]2[C@@H](C)[C@H]2C1	
InChI=1S/C8H14O/c1-5-7-3-6(9-2)4-8(5)7/h5-8H,3-4H2,1-2H3	InChI=1S/C8H14O/c1-5-7-3-6(9-2)4-8(5)7/h5-8H,3-4H2,1-2H3/t5-,6+,7+,8-
