24
gdb 100109	3.5006	0.85342	0.83849	2.1548	86.12	-0.2304	0.0716	0.302	1523.9575	0.215176	-405.513628	-405.502837	-405.501893	-405.549228	40.117	
C	-0.007763341	 1.5653724484	 0.1332238442	-0.401288
C	 0.0099369827	 0.0310431219	 0.0164582487	 0.24721
C	 0.7677250738	-0.5803153454	 1.2084516822	-0.410401
C	-1.432128311	-0.5038524181	 0.000699161	-0.08754
O	-2.0837783694	-0.1226495072	 1.2039564608	-0.426334
C	 0.6533487369	-0.3865581606	-1.3236147712	-0.162949
N	 2.039304339	 0.0541733109	-1.4497284585	-0.06556
C	 3.0820614233	-0.9325817338	-1.1891048274	-0.216932
C	 2.7837982577	-0.4910452481	-2.5780469333	-0.221438
H	 1.0096415135	 1.96023796	 0.0886631809	 0.124725
H	-0.5774156619	 2.0135010772	-0.6895058632	 0.09713
H	-0.4744045752	 1.8746771049	 1.0711862389	 0.123159
H	 0.2423766306	-0.3600036255	 2.1405635604	 0.129624
H	 0.8419250234	-1.6705673474	 1.1157403527	 0.095117
H	 1.7807676467	-0.1759593818	 1.2774604709	 0.119788
H	-1.9618225814	-0.0965814731	-0.876491353	 0.078973
H	-1.4152716935	-1.601528386	-0.1034014353	 0.077853
H	-2.9811538071	-0.4657269212	 1.1813718948	 0.286871
H	 0.5653839133	-1.4825493224	-1.45207219	 0.070083
H	 0.0904744328	 0.0769319494	-2.1443263534	 0.095781
H	 3.9627234782	-0.5679266489	-0.6678583547	 0.116105
H	 2.7740559755	-1.9396844711	-0.9120103921	 0.109618
H	 2.2771271842	-1.2055344893	-3.2259128345	 0.105433
H	 3.4403134689	 0.2040131773	-3.0941276789	 0.114972
68.9303	92.8071	129.4805	141.597	225.7531	229.8318	257.4559	269.3957	301.1754	320.5086	354.458	395.1683	406.2804	442.7482	597.3639	756.1694	772.0655	839.8472	894.0183	907.2328	930.2158	954.2269	969.0657	1002.1495	1033.1765	1035.0712	1078.2442	1086.7485	1115.1548	1119.0017	1168.0929	1176.4023	1199.3065	1219.7902	1235.1357	1273.5092	1299.9492	1323.663	1343.2938	1387.6635	1395.4693	1413.4575	1460.5986	1483.2802	1487.707	1491.3317	1494.5006	1500.5211	1515.3864	1520.3351	1525.9377	2913.5608	2953.139	2983.1553	3030.4794	3032.9861	3037.4515	3089.7697	3095.9367	3102.3473	3106.43	3130.1269	3136.6396	3172.4696	3187.3062	3838.9942
CC(C)(CO)CN1CC1	CC(C)(CO)CN1CC1	
InChI=1S/C7H15NO/c1-7(2,6-9)5-8-3-4-8/h9H,3-6H2,1-2H3	InChI=1S/C7H15NO/c1-7(2,6-9)5-8-3-4-8/h9H,3-6H2,1-2H3
