19
gdb 56320	3.81783	0.60108	0.57782	1.9353	73.75	-0.2444	-0.0333	0.2111	1907.8678	0.154413	-460.176064	-460.165305	-460.164361	-460.214544	35.697	
C	 0.5140530531	-0.3820649786	-0.7721303157	-0.471964
C	-0.1675221604	-0.126315251	 0.5561218908	 0.347358
O	 0.3916747972	 0.3812961753	 1.4990155574	-0.284669
C	-1.6596068202	-0.4794890557	 0.6542984106	-0.174306
O	-2.0940904506	-1.4864337103	-0.2333009325	-0.235106
C	-1.8455739154	-2.7997071239	 0.2319889532	-0.073598
C	-2.3511093177	-3.7765277513	-0.8281086873	-0.281714
C	-2.363642642	-5.2038835564	-0.3273018743	 0.153354
O	-1.8165383334	-6.1273157963	-0.8704342564	-0.228823
H	 1.5135144806	 0.0537637282	-0.7578349006	 0.143402
H	 0.5877289489	-1.4579095704	-0.9631381533	 0.147575
H	-0.0756013323	 0.0365175422	-1.5942380607	 0.14547
H	-1.8914900793	-0.7162863208	 1.7017074572	 0.120497
H	-2.2161720591	 0.4292438657	 0.3898234964	 0.136975
H	-0.7717149342	-2.9596328306	 0.4179903414	 0.108521
H	-2.3673412668	-2.9650078503	 1.1893592044	 0.10231
H	-3.3854681501	-3.4951884937	-1.0702719464	 0.136236
H	-1.7540058198	-3.7183442554	-1.7409323295	 0.131688
H	-2.9427056785	-5.3553153067	 0.6141674551	 0.076795
37.2179	43.7584	61.4933	78.2313	108.1069	137.0053	198.2497	252.4457	334.0589	383.1321	445.7149	497.524	524.9921	583.3983	760.2117	789.5847	857.6962	874.4732	970.7887	1001.4435	1027.2987	1083.3936	1118.9253	1136.9108	1147.7418	1227.0027	1235.1543	1266.1304	1296.1417	1310.6041	1362.178	1384.5933	1429.0646	1431.0198	1453.6017	1460.9704	1466.8239	1471.8384	1525.948	1819.9717	1839.6938	2854.5366	2964.4804	2996.6361	3012.1887	3029.1066	3045.2875	3061.8007	3105.996	3117.9103	3156.7972
CC(=O)COCCC=O	CC(=O)COCCC=O	
InChI=1S/C6H10O3/c1-6(8)5-9-4-2-3-7/h3H,2,4-5H2,1H3	InChI=1S/C6H10O3/c1-6(8)5-9-4-2-3-7/h3H,2,4-5H2,1H3
