23
gdb 95371	2.55358	1.55755	1.11788	1.5515	83.99	-0.2381	0.0749	0.313	1177.4218	0.209014	-388.320797	-388.312552	-388.311608	-388.353624	32.863	
C	-0.5683123777	 1.4437060676	-0.0460016559	-0.414475
C	 0.074609931	 0.0581989812	-0.0474642941	 0.007311
C	 1.0990888155	-0.1803800149	-1.16449137	-0.092207
O	 1.80550113	-1.3521726101	-0.7878098228	-0.270034
C	 1.8973264512	-1.3965293364	 0.6407564289	 0.12895
C	 3.2951964656	-1.0004715454	 1.1758126382	-0.227374
C	 3.0170275762	-0.0271192039	 2.3338426804	-0.207213
C	 1.7845916035	 0.7506378326	 1.8439706933	-0.218331
C	 0.8968038722	-0.3364073326	 1.1991666136	-0.036714
H	 0.1766158723	 2.2387378195	 0.0579079604	 0.118
H	-1.1112783807	 1.6207764305	-0.9806752215	 0.114362
H	-1.2849558004	 1.5484784351	 0.7750184818	 0.116088
H	-0.7155455853	-0.6933496668	-0.1709638738	 0.077701
H	 0.6468711539	-0.3582096022	-2.1451151102	 0.103014
H	 1.7781590261	 0.6855226617	-1.2591262997	 0.078648
H	 1.6343522676	-2.4172430081	 0.9374329816	 0.072944
H	 3.895840078	-1.8653638041	 1.469483842	 0.094368
H	 3.8331887265	-0.4900021828	 0.3692655043	 0.107112
H	 2.7689062965	-0.5833625215	 3.2467305394	 0.096321
H	 3.8691775869	 0.6170471199	 2.570009611	 0.094062
H	 1.2719285763	 1.3014614176	 2.6375430299	 0.093062
H	 2.1004491614	 1.4862652346	 1.0937143214	 0.097411
H	 0.2546506233	-0.7770672315	 1.9676509416	 0.066993
66.7777	174.8432	206.9617	222.6818	241.5575	326.8212	420.1927	478.3584	541.0845	556.582	611.0596	707.3764	779.4727	847.8746	869.2718	897.3077	912.8917	921.118	957.7503	969.7129	979.317	1026.8031	1032.9204	1054.8965	1086.5099	1104.7942	1146.7117	1177.0254	1185.2462	1194.206	1227.1554	1238.6945	1281.091	1294.6891	1310.7077	1326.7078	1336.8497	1341.341	1348.1075	1370.7235	1382.1968	1402.8026	1417.8744	1485.8871	1490.9751	1500.2885	1501.6852	1506.2733	1523.8665	2945.3831	3020.5518	3026.3388	3031.126	3035.6345	3039.4913	3047.6605	3058.8218	3075.6511	3084.7637	3090.3782	3096.557	3101.249	3107.0724
CC1COC2CCCC12	C[C@H]1CO[C@H]2CCC[C@@H]12	
InChI=1S/C8H14O/c1-6-5-9-8-4-2-3-7(6)8/h6-8H,2-5H2,1H3	InChI=1S/C8H14O/c1-6-5-9-8-4-2-3-7(6)8/h6-8H,2-5H2,1H3/t6-,7-,8-/m0/s1
