14
gdb 25508	4.44192	1.15264	0.91516	4.0452	73.63	-0.2527	-0.0456	0.2071	1173.7869	0.103947	-432.940199	-432.933052	-432.932108	-432.972457	26.122	
O	 1.7513701174	 3.9709961685	 0.9260042592	-0.293205
C	 0.9329138421	 3.1118481036	 0.6967128481	 0.15726
N	 1.2024942591	 1.8295448329	 0.2879556296	-0.40673
C	 2.4508274633	 1.239565611	 0.0498853186	 0.293213
C	 2.5020687294	-0.0944996649	-0.3646072428	-0.044109
N	 3.6412130724	-0.7297296904	-0.6118095515	-0.241848
C	 4.7569072685	-0.0162594843	-0.4412004443	 0.069301
N	 4.8325143814	 1.2545802081	-0.0519558626	-0.237412
C	 3.6853001248	 1.8881051671	 0.1950766105	-0.044834
H	-0.1579384448	 3.2707015607	 0.7945190773	 0.094814
H	 0.3986282629	 1.2357639068	 0.1401621063	 0.257959
H	 1.5811020716	-0.6633324525	-0.4991808941	 0.107183
H	 5.6958981086	-0.5252286561	-0.6405648428	 0.123263
H	 3.7314757534	 2.9215788095	 0.5123554486	 0.165146
59.0237	174.2003	194.2776	307.128	334.6933	426.3211	529.0674	536.7672	585.6928	633.5814	751.2463	805.5144	873.5194	930.9451	983.3599	1007.2199	1022.5254	1046.7458	1117.5506	1168.6923	1220.5026	1238.9363	1298.4037	1366.6307	1436.5864	1447.0944	1472.2224	1545.4325	1600.7632	1620.4509	1812.1374	2955.1654	3118.7733	3176.2236	3231.7673	3598.3902
O=CNC1=CN=CN=C1	O=CNc1cncnc1	
InChI=1S/C5H5N3O/c9-4-8-5-1-6-3-7-2-5/h1-4H,(H,8,9)	InChI=1S/C5H5N3O/c9-4-8-5-1-6-3-7-2-5/h1-4H,(H,8,9)
