18
gdb 34660	3.41461	1.20992	0.95074	2.1428	83.11	-0.246	-0.0304	0.2156	1236.1729	0.147992	-401.921828	-401.913425	-401.912481	-401.955012	31.85	
C	 0.0420676179	-1.2132025494	-0.1921879891	-0.365761
C	-0.0235403009	-0.0192075795	-0.0655600902	 0.290659
C	-0.0674685193	 1.4089802147	 0.0855626632	 0.177937
N	-1.1799446405	 2.0137043328	 0.0762219924	-0.280667
C	-1.2716081987	 3.4667072621	 0.0831128608	-0.150597
C	-0.6168091195	 4.1937049881	 1.2669919633	-0.202703
C	 0.9117846832	 4.1747475946	 1.2221261608	-0.195774
C	 1.4986868602	 2.7720170539	 1.301790282	-0.076529
O	 1.1951800876	 1.9426820487	 0.1703068526	-0.262357
H	 0.087118957	-2.2682704313	-0.3059959788	 0.201883
H	-0.8366111161	 3.851068409	-0.8525968928	 0.112757
H	-2.3368538701	 3.7149495083	 0.0604049342	 0.106433
H	-0.968769583	 5.2317834539	 1.2620421545	 0.101281
H	-0.9729390478	 3.7446375084	 2.2030915988	 0.106583
H	 1.2650789643	 4.6537145245	 0.3001388193	 0.108362
H	 1.320875606	 4.7546228348	 2.0589156272	 0.101191
H	 2.5907494042	 2.8128730035	 1.322689002	 0.118121
H	 1.1592769659	 2.2651320527	 2.2152711298	 0.109181
61.7122	139.0632	174.4948	216.1328	319.8102	328.9563	353.0567	415.8156	502.5051	557.7046	596.5647	636.768	658.4328	730.8234	777.9485	828.4315	866.1169	880.8989	939.2074	996.8602	1044.5477	1080.9471	1101.6744	1129.597	1197.8537	1213.1991	1258.7631	1297.6803	1321.1204	1369.0591	1379.3391	1398.667	1419.3766	1471.9934	1481.596	1492.3306	1499.0434	1721.0748	2234.4494	2991.146	3017.4462	3023.4073	3026.1094	3063.2011	3072.1421	3073.4397	3098.6617	3501.9747
C#CC1=NCCCCO1	C#CC1=NCCCCO1	
InChI=1S/C7H9NO/c1-2-7-8-5-3-4-6-9-7/h1H,3-6H2	InChI=1S/C7H9NO/c1-2-7-8-5-3-4-6-9-7/h1H,3-6H2
