18
gdb 133879	3.52243	2.18585	1.90252	1.4529	77.63	-0.2229	0.0977	0.3206	796.9713	0.151939	-364.733608	-364.72822	-364.727276	-364.762857	24.82	
C	-1.4654291296	 1.4132199711	 0.5681035953	-0.329036
C	-1.6028057538	 0.0873391604	-0.2453323911	-0.045247
C	-0.7916302605	-0.6767775488	 0.8504632046	-0.048452
C	 0.2789806801	-1.5708433367	 0.2577016417	-0.112693
C	 1.5659625326	-0.7250173786	 0.1841999944	-0.079841
C	 1.3718569407	 0.6148885298	 0.923819884	-0.349398
C	-0.1011564171	 0.7013774571	 0.6045012761	 0.309207
N	-0.2584146586	 0.4155185353	-0.8988464269	-0.147135
C	 0.5923107085	-0.7793213717	-0.9811639457	-0.032642
H	-2.0175062233	 1.47424973	 1.5072693635	 0.097545
H	-1.5173773278	 2.333702672	-0.0142425573	 0.110891
H	-2.4642203155	-0.2444404216	-0.828608088	 0.078823
H	-1.2315711393	-0.911784336	 1.821236657	 0.065396
H	 0.2919236566	-2.6507477316	 0.3126589867	 0.085907
H	 2.5382949398	-1.1987794336	 0.1209655738	 0.086116
H	 1.9652940462	 1.4204464442	 0.4830729308	 0.115531
H	 1.5827921197	 0.5420932906	 1.9943809962	 0.106282
H	 0.8300514411	-1.1943579918	-1.9511780451	 0.088746
377.5154	427.6875	445.4618	488.2723	665.5881	730.5542	736.8957	755.7855	758.9982	792.7583	810.7874	830.084	848.0628	890.2207	946.7519	953.9768	968.2172	992.3853	995.2316	1025.1769	1040.0002	1043.2034	1064.3984	1073.3114	1086.9253	1108.0218	1122.501	1179.6651	1182.3556	1194.1202	1206.1469	1230.009	1269.667	1280.2354	1301.5235	1334.5837	1359.7937	1479.5258	1497.3089	3060.5969	3077.2001	3090.4475	3102.3399	3113.5057	3152.5294	3187.9962	3201.9074	3213.2856
C1C2C3C4C5CC13N2C45	C1[C@@H]2[C@H]3[C@@H]4[C@@H]5C[C@]13N2[C@H]45	
InChI=1S/C8H9N/c1-3-5-6-4-2-8(1,6)9(4)7(3)5/h3-7H,1-2H2	InChI=1S/C8H9N/c1-3-5-6-4-2-8(1,6)9(4)7(3)5/h3-7H,1-2H2/t3-,4+,5-,6-,7-,8-/m0/s1
