19
gdb 112691	3.39681	0.97982	0.80075	3.304	71.71	-0.2499	-0.026	0.2239	1398.5191	0.158509	-460.187578	-460.178459	-460.177515	-460.221781	33.884	
O	-0.107990418	 1.4168244128	-0.1051416292	-0.422492
C	 0.0106388743	 0.0089223868	 0.0315669625	-0.095014
C	-1.391143642	-0.5776181182	 0.0265421705	 0.01995
C	-1.4147793696	-2.1229958738	 0.1262615537	-0.272592
C	-2.8539908139	-2.4204924454	 0.5609230491	 0.065011
O	-3.0822106602	-3.6866059332	 1.1087741627	-0.445161
C	-3.1322160065	-1.29913255	 1.5624557009	 0.364169
O	-3.8553586122	-1.4441608953	 2.5181863073	-0.331955
C	-2.2711829027	-0.0961092258	 1.2059421377	-0.32845
H	 0.7728264922	 1.8013124643	-0.0740301476	 0.290051
H	 0.5980149697	-0.4266447711	-0.7926974864	 0.091104
H	 0.5163545877	-0.2602259251	 0.9742043052	 0.086559
H	-1.8677647621	-0.2783363313	-0.914854008	 0.091477
H	-1.1361431708	-2.6153346308	-0.8080277526	 0.112603
H	-0.7315468814	-2.4738170642	 0.9105298638	 0.110621
H	-3.5201384995	-2.2377466507	-0.3055575608	 0.090954
H	-3.6468274062	-3.5341062563	 1.8822388443	 0.290613
H	-1.6678381782	 0.1611647934	 2.0851324772	 0.138334
H	-2.8776572509	 0.7846038439	 0.9810732897	 0.144218
76.1049	91.4022	122.0126	217.9512	266.5307	275.809	346.6561	375.4322	407.7945	423.8342	497.8315	573.5171	590.5516	628.1414	748.1712	849.5151	892.4955	939.9084	981.3889	1020.4858	1053.9478	1087.7934	1093.7164	1127.7086	1164.5927	1176.7438	1200.5907	1237.411	1255.4624	1264.1408	1285.7953	1296.0019	1337.6117	1373.4477	1382.5107	1420.9352	1442.7228	1462.3969	1498.4588	1522.002	1835.5343	2911.1187	2958.1749	2989.4733	3031.3918	3040.1426	3050.862	3105.8759	3107.5529	3705.9533	3831.9351
OCC1CC(O)C(=O)C1	OC[C@H]1C[C@@H](O)C(=O)C1	
InChI=1S/C6H10O3/c7-3-4-1-5(8)6(9)2-4/h4-5,7-8H,1-3H2	InChI=1S/C6H10O3/c7-3-4-1-5(8)6(9)2-4/h4-5,7-8H,1-3H2/t4-,5+/m0/s1
