16
gdb 5734	4.0321	2.03172	1.38636	3.7455	72.56	-0.2067	0.0442	0.2508	884.6462	0.132692	-342.793927	-342.786854	-342.78591	-342.82559	25.827	
C	-0.0913482023	 1.5186163851	 0.0389142192	-0.489371
C	 0.0345150345	 0.0311697885	-0.0115600847	 0.114542
C	 0.1102125029	-0.8308128356	-1.0790333037	 0.264324
C	 0.1560583658	-1.3277842825	-2.5202817339	-0.384642
C	 0.2757470197	-2.7637727544	-1.8833167775	-0.170145
N	 0.2154861626	-2.0924366172	-0.5647015787	-0.00077
C	 0.2044067161	-2.0039796445	 0.7910487538	-0.045449
N	 0.0961517874	-0.7343227081	 1.1423627196	-0.310462
H	 0.7529651988	 1.9703937576	 0.571014466	 0.131452
H	-0.1246655149	 1.943204173	-0.9683242601	 0.111022
H	-1.0022071799	 1.8220239651	 0.5665295845	 0.131454
H	-0.7484480093	-1.1711017164	-3.1130585864	 0.127287
H	 1.0245512479	-1.0212297761	-3.1083379023	 0.127287
H	-0.5649091156	-3.4361785965	-2.0697579589	 0.13254
H	 1.2183202434	-3.2854399735	-2.0650081268	 0.13254
H	 0.2737233628	-2.8451587646	 1.4625900899	 0.128391
82.6243	108.1244	204.6019	257.295	301.7664	496.3387	637.1383	647.9689	673.4435	710.1435	782.1617	804.7282	856.0175	910.4332	974.8067	1055.2774	1062.9249	1072.3804	1137.2558	1143.4073	1185.0176	1209.9917	1233.2873	1281.206	1296.7	1379.3968	1406.9687	1418.0179	1460.4264	1477.2731	1488.1039	1493.7487	1516.6902	1627.579	3031.6195	3063.14	3067.8184	3084.7774	3107.2738	3111.7793	3125.0481	3260.4386
CC1=C2CCN2C=N1	Cc1c2CCn2cn1	
InChI=1S/C6H8N2/c1-5-6-2-3-8(6)4-7-5/h4H,2-3H2,1H3	InChI=1S/C6H8N2/c1-5-6-2-3-8(6)4-7-5/h4H,2-3H2,1H3
