17
gdb 68538	2.62971	2.00754	1.70667	2.3492	70.11	-0.2422	0.0099	0.2521	865.3652	0.137099	-421.790111	-421.78347	-421.782526	-421.82051	28.454	
O	-0.1191470191	 1.3712585625	 0.0377713234	-0.512694
C	 0.042296405	-0.0209322329	 0.0338991974	 0.343955
C	 0.7348101974	-0.7038122849	-1.1895216263	-0.263479
C	 0.5338067877	-2.1274847989	-0.5963545358	-0.137062
C	 1.1176033885	-1.916100416	 0.7927389882	-0.057702
C	 0.8221663259	-0.670295976	 1.16994278	-0.140941
C	-1.0354037653	-2.0996567664	-0.4790087293	 0.031908
O	-1.5764413834	-1.8296898355	 0.8176954638	-0.23572
C	-1.3487144033	-0.7331938513	-0.070232216	 0.021322
H	 0.7554324461	 1.7737802559	 0.0306074547	 0.27859
H	 0.1884437574	-0.5389705923	-2.1244025421	 0.09663
H	 1.7854789346	-0.4217274086	-1.3090567381	 0.089678
H	 0.9198345705	-2.9705702148	-1.1679924064	 0.066617
H	 1.575814478	-2.6931281777	 1.3904005504	 0.104497
H	 0.9727844962	-0.2066942675	 2.1365138684	 0.104631
H	-1.6463175122	-2.7138174766	-1.133038065	 0.102294
H	-2.2124356639	-0.148215799	-0.3694850171	 0.107475
254.9076	297.6198	317.8608	330.703	385.9086	488.0439	528.4152	567.9053	610.9364	685.403	759.1981	768.9655	796.3684	810.9884	892.3344	905.3864	921.9471	931.442	932.719	967.2427	1017.4191	1036.9151	1079.208	1087.0212	1095.2439	1146.2062	1191.7121	1214.1879	1252.2729	1256.8404	1264.2031	1281.161	1349.4411	1368.606	1402.8216	1492.5333	1644.0448	3041.6839	3101.1737	3120.3888	3160.8042	3174.901	3203.8634	3228.6	3814.174
OC12CC(C=C1)C1OC21	O[C@@]12C[C@@H](C=C1)[C@H]1O[C@@H]21	
InChI=1S/C7H8O2/c8-7-2-1-4(3-7)5-6(7)9-5/h1-2,4-6,8H,3H2	InChI=1S/C7H8O2/c8-7-2-1-4(3-7)5-6(7)9-5/h1-2,4-6,8H,3H2/t4-,5-,6-,7-/m1/s1
