21
gdb 32729	3.01871	0.98478	0.78774	3.5001	86.35	-0.2054	0.0382	0.2436	1514.1519	0.183229	-383.329102	-383.319374	-383.31843	-383.36465	35.141	
C	-0.2782984357	 1.6139390639	 0.058118054	-0.380123
C	-0.2371413664	 0.0845203725	 0.0837263684	-0.152616
C	 0.8163951962	-0.467874418	 1.0654868341	-0.3176
C	 0.8874471406	-1.9596962758	 1.1150078177	 0.232267
C	 1.8120032405	-2.8741678687	 0.6630860582	 0.204578
C	 3.1083622203	-2.6283762798	-0.040416659	-0.491763
N	 1.3950416508	-4.1619498075	 0.9451756619	-0.308654
C	 0.241719339	-4.0353764138	 1.5537789217	-0.001842
N	-0.1166790411	-2.7277031252	 1.6829604839	-0.296166
H	 0.6883475216	 2.0303572289	-0.246387539	 0.117512
H	-1.0340256808	 1.9805052908	-0.6431808426	 0.114842
H	-0.5152213405	 2.0220925265	 1.0472137257	 0.11319
H	-1.2268429184	-0.3064401146	 0.3536001694	 0.087757
H	-0.0232362024	-0.3041421901	-0.9187152188	 0.107736
H	 1.8028055237	-0.0838972417	 0.7840561636	 0.115305
H	 0.6141606301	-0.0645543784	 2.0686979448	 0.099478
H	 3.9400299723	-3.0929558957	 0.4999894517	 0.13205
H	 3.1002195442	-3.0606345781	-1.0473261873	 0.130358
H	 3.3198778877	-1.5598310765	-0.1356244787	 0.112205
H	-0.3749404566	-4.8417723455	 1.9229025826	 0.122764
H	-0.9504493655	-2.3766922135	 2.1234088876	 0.258723
44.2609	85.5565	97.9434	115.5642	241.2956	248.3694	265.0525	313.1898	352.4682	427.4914	500.6535	649.2649	675.2568	699.7142	741.4714	768.8591	804.9943	868.0188	895.6927	958.8671	983.7398	1041.631	1056.9344	1063.1248	1109.5461	1118.7106	1172.1723	1240.374	1269.7987	1288.8555	1313.7372	1327.7917	1376.6884	1387.038	1413.0961	1415.3315	1461.3876	1475.768	1477.9867	1490.9901	1496.4113	1499.7765	1509.598	1526.8389	1634.3517	2999.0499	3021.8313	3029.7989	3032.7398	3055.8812	3074.9831	3084.9986	3097.2991	3104.5732	3113.6654	3245.7603	3661.8297
CCCC1=C(C)N=CN1	CCCc1c(C)nc[nH]1	
InChI=1S/C7H12N2/c1-3-4-7-6(2)8-5-9-7/h5H,3-4H2,1-2H3,(H,8,9)	InChI=1S/C7H12N2/c1-3-4-7-6(2)8-5-9-7/h5H,3-4H2,1-2H3,(H,8,9)
