22
gdb 91930	2.1603	1.68592	1.29673	2.4887	81.08	-0.2361	0.0692	0.3053	1103.9665	0.194376	-404.333779	-404.324652	-404.323708	-404.36691	36.203	
C	-0.1524564519	 1.5615641613	-0.0193252687	-0.40782
C	-0.0097212053	 0.0316094393	-0.0012127918	 0.275944
C	-1.4011411285	-0.6191529752	 0.0043219068	-0.445258
C	 0.827836042	-0.494726547	-1.1795493871	-0.071062
N	 1.9981193206	 0.331178051	-1.541095959	-0.333749
C	 2.1912505896	-0.8748662538	-0.7135598967	-0.043615
C	 2.2981390961	-0.5573042083	 0.7722698997	-0.267687
C	 0.8203460082	-0.4630930852	 1.2286570413	 0.115914
O	 0.5880778535	 0.3651037279	 2.352590057	-0.435332
H	 0.8203994594	 2.0544295126	-0.0316034563	 0.130793
H	-0.6960204003	 1.8752966757	-0.9170765418	 0.096514
H	-0.705517385	 1.901843	 0.8590016269	 0.119277
H	-2.0131865208	-0.2526602522	-0.8269579936	 0.108541
H	-1.3337997871	-1.7099246803	-0.0815737262	 0.103609
H	-1.9262890899	-0.3866784869	 0.9362098015	 0.12412
H	 0.3236295662	-1.0432949464	-1.9701870838	 0.076391
H	 2.261786935	 0.1281666796	-2.5027640706	 0.227269
H	 2.7278227598	-1.718311068	-1.1358326606	 0.082783
H	 2.8419680629	-1.3297745437	 1.3254357061	 0.086682
H	 2.8070427807	 0.3987634303	 0.9286740441	 0.116896
H	 0.4806648694	-1.4897605767	 1.4464127754	 0.056652
H	 1.0365577955	-0.0226493841	 3.1099446873	 0.283139
78.8186	206.9656	222.6476	236.2255	257.3098	271.6367	298.0522	337.7647	392.5889	430.0587	472.3717	539.2551	567.6173	649.9495	724.6292	807.8526	844.4254	879.9833	910.2345	941.9872	958.8511	975.5857	995.3214	1019.8026	1039.8903	1088.7258	1112.5756	1130.6413	1140.488	1187.1423	1202.721	1232.9994	1236.4975	1247.0789	1295.5969	1300.6053	1347.6679	1385.2099	1394.2429	1406.4543	1413.6499	1440.2704	1483.6878	1485.299	1488.6267	1503.2271	1508.6909	2947.265	3023.2152	3044.2158	3046.8022	3088.9255	3095.5621	3101.7936	3115.5487	3143.1435	3146.3857	3160.454	3490.1109	3826.0247
CC1(C)C2NC2CC1O	CC1(C)[C@H]2N[C@H]2C[C@H]1O	
InChI=1S/C7H13NO/c1-7(2)5(9)3-4-6(7)8-4/h4-6,8-9H,3H2,1-2H3	InChI=1S/C7H13NO/c1-7(2)5(9)3-4-6(7)8-4/h4-6,8-9H,3H2,1-2H3/t4-,5+,6-/m0/s1
