14
gdb 51504	3.4945	1.05157	0.83908	2.929	62.97	-0.2605	-0.044	0.2165	1265.6556	0.099993	-473.872278	-473.864258	-473.863314	-473.906539	27.56	
O	-0.1056741594	-0.085453701	-0.0635182061	-0.229459
C	-0.0254745456	 1.114672621	-0.0885059806	 0.149768
C	 1.2929048525	 1.8682703186	-0.1272273429	-0.280568
C	 1.3072631136	 2.9610939523	-1.2111015799	-0.164996
N	 0.3352392361	 4.0296029647	-0.9581231327	-0.250304
C	 1.0135033635	 5.09844393	-0.9214592325	 0.125385
O	 2.3715677815	 5.0305029732	-1.1073928927	-0.201314
C	 2.6584226626	 3.6739717832	-1.2911931044	 0.445636
O	 3.7614548873	 3.2657187667	-1.4570827823	-0.307264
H	-0.9283564277	 1.7606256171	-0.0755479626	 0.108478
H	 1.4381373734	 2.3433613667	 0.8523356832	 0.136539
H	 2.1096186195	 1.1620479013	-0.2941387301	 0.151679
H	 1.098641463	 2.5045399757	-2.1870728465	 0.150036
H	 0.6323235398	 6.0982198106	-0.7522704399	 0.166385
44.9996	69.2381	121.4826	160.1817	262.5896	331.8609	462.398	515.6119	591.0796	659.3341	704.7829	823.9132	853.8334	864.0146	897.7789	955.8809	1031.4441	1066.9025	1096.8281	1109.7906	1153.4243	1210.7914	1253.8945	1300.8158	1331.2194	1345.7693	1421.8811	1455.5655	1694.3037	1835.2835	1924.7622	2920.7327	3027.7234	3041.6921	3120.3863	3229.6063
O=CCC1N=COC1=O	O=CC[C@H]1N=COC1=O	
InChI=1S/C5H5NO3/c7-2-1-4-5(8)9-3-6-4/h2-4H,1H2	InChI=1S/C5H5NO3/c7-2-1-4-5(8)9-3-6-4/h2-4H,1H2/t4-/m1/s1
