14
gdb 20737	3.40524	1.86663	1.2148	2.4784	66.23	-0.2463	-0.0421	0.2042	929.5453	0.108411	-378.76463	-378.757361	-378.756417	-378.796402	25.92	
C	-0.0280567099	 1.4824658734	-0.046074406	-0.499232
C	-0.009654644	-0.0116805227	 0.0323788295	 0.28257
N	-0.0311522242	-0.7417203258	-1.0757104847	-0.280899
N	-0.0052803182	-2.0279591102	-0.6411470669	-0.181351
C	 0.0315391914	-2.140831111	 0.6942064199	-0.084188
C	 0.0304734308	-0.8442119266	 1.1924494588	 0.05325
C	 0.0637677558	-0.4656632009	 2.5980227473	 0.059325
O	 0.0968395962	-1.2496470756	 3.5236613409	-0.286844
H	 0.8635614117	 1.9190254463	 0.4161110807	 0.137726
H	-0.0624136883	 1.7926803094	-1.0921547943	 0.147361
H	-0.8997543088	 1.9001032832	 0.4685592764	 0.137666
H	-0.0153642375	-2.7677662125	-1.3234793778	 0.283135
H	 0.0556136582	-3.09021853	 1.2046727884	 0.167759
H	 0.0560604269	 0.6312247429	 2.7835875177	 0.063721
112.7424	145.5035	170.2295	234.6842	310.0541	324.5482	526.2092	560.5112	646.8614	673.61	702.6933	819.7659	847.4572	946.7182	1007.7479	1039.4645	1070.5282	1073.6671	1142.7332	1205.6741	1341.5904	1394.1218	1414.2532	1439.5797	1479.9205	1484.0932	1492.9947	1511.3336	1585.4955	1781.9058	2883.4737	3040.8599	3094.6448	3137.8221	3273.8189	3669.5577
CC1=NNC=C1C=O	Cc1n[nH]cc1C=O	
InChI=1S/C5H6N2O/c1-4-5(3-8)2-6-7-4/h2-3H,1H3,(H,6,7)	InChI=1S/C5H6N2O/c1-4-5(3-8)2-6-7-4/h2-3H,1H3,(H,6,7)
