17
gdb 33651	2.94234	1.4909	1.4876	1.4291	79.38	-0.2464	0.0297	0.2761	981.6247	0.136416	-384.609252	-384.602136	-384.601191	-384.64054	28.98	
C	-0.0198587765	-1.2342742795	-0.0094220743	-0.340843
C	-0.0175982848	-0.0300689595	 0.0000196511	-0.029386
C	-0.0201746435	 1.3907043506	 0.0200295645	 0.297962
C	-0.6634962757	 2.3509819869	 1.1203928155	-0.116423
C	 0.7266535459	 3.0111176897	 1.3116997225	-0.243743
C	 1.2077720546	 2.3681918572	-0.0064579724	 0.050456
O	 0.6882175733	 3.0562408776	-1.1616424207	-0.301882
C	-0.5807901707	 2.3798200093	-1.0622810892	 0.050456
C	-1.4962180402	 3.0255655828	-0.0005026219	-0.243743
H	-0.0186513967	-2.2958566679	-0.0231705028	 0.179555
H	-1.1858145083	 1.9812948349	 2.0011292718	 0.084388
H	 0.7775985898	 4.1011695865	 1.3739870131	 0.105573
H	 1.2519878678	 2.5697196095	 2.1649112028	 0.109379
H	 2.2520379179	 2.0782363627	-0.1313714987	 0.091649
H	-0.9787154697	 2.0992396491	-2.0385490132	 0.091649
H	-2.5012591443	 2.5941134927	-0.0507002771	 0.109379
H	-1.5648560989	 4.1163945274	-0.0088062009	 0.105573
138.1312	141.4822	323.1323	334.007	412.9481	476.3361	488.0109	548.33	620.1553	629.4245	653.2806	694.693	820.3533	851.9412	855.2446	925.8595	928.0424	963.1393	972.8325	1017.2776	1023.3428	1030.6445	1111.6588	1115.6024	1122.7648	1160.9985	1184.2547	1200.9659	1248.9326	1282.1844	1282.4169	1324.7345	1327.0075	1351.6008	1463.4986	1475.2653	2227.8701	3049.3982	3049.9759	3100.3033	3104.5591	3108.8998	3110.6938	3125.3951	3502.0307
C#CC12C3CC1OC2C3	C#C[C@@]12[C@H]3C[C@@H]1O[C@@H]2C3	
InChI=1S/C8H8O/c1-2-8-5-3-6(8)9-7(8)4-5/h1,5-7H,3-4H2	InChI=1S/C8H8O/c1-2-8-5-3-6(8)9-7(8)4-5/h1,5-7H,3-4H2/t5-,6-,7+,8+
