18
gdb 54726	2.95534	1.47381	1.42433	4.0458	75.47	-0.2122	0.0152	0.2275	1008.1365	0.146454	-401.872232	-401.864183	-401.863239	-401.904894	31.132	
C	 0.6687733296	 0.3932294284	 1.2215308285	-0.46104
C	 0.0440804899	 0.0695983022	-0.1233924284	 0.399562
O	 0.3712395828	 0.6268229182	-1.1450663659	-0.330344
C	-1.173554174	-0.8412004378	-0.100050125	-0.12825
C	-1.3993092742	-2.0443039585	-0.9664115116	-0.075957
C	-0.1477766649	-2.9602734769	-1.052125005	-0.047879
N	 0.9416135403	-2.3398810041	-0.2614884635	-0.326287
C	-0.1214247575	-3.1128479004	 0.4164977364	-0.061046
C	-1.3616493299	-2.1846128771	 0.560891095	-0.09636
H	 1.5673613425	 0.9946272258	 1.0749430515	 0.131813
H	-0.0487672284	 0.9688104479	 1.8206774743	 0.123927
H	 0.9058498499	-0.5160875772	 1.7768366493	 0.134034
H	-2.0803335991	-0.2402905861	-0.0193414416	 0.113505
H	-2.2477701074	-2.1460378006	-1.6299235003	 0.096473
H	 0.0673439368	-3.6677209316	-1.841306151	 0.101533
H	 1.7704727279	-2.9262735048	-0.3450916196	 0.235924
H	 0.1051769249	-3.9692655753	 1.0375641449	 0.09882
H	-2.1808618591	-2.397724132	 1.2354361119	 0.091572
99.5375	111.4881	147.3859	178.6233	330.4915	368.5866	450.6241	537.2563	597.2186	655.6189	705.0878	721.1678	753.8368	810.3941	846.4955	867.4126	883.2888	913.9274	939.7786	980.9586	985.9018	999.77	1034.6798	1042.8617	1061.9497	1093.858	1120.13	1128.3238	1213.5356	1240.0615	1243.1902	1308.6802	1330.5683	1352.9236	1374.4807	1416.5047	1460.623	1478.9704	1801.4244	3031.9337	3109.0793	3111.1995	3154.5389	3188.9863	3200.1251	3201.4216	3214.3165	3486.6111
CC(=O)C1C2C3NC3C12	CC(=O)[C@H]1[C@H]2[C@H]3N[C@H]3[C@@H]12	
InChI=1S/C7H9NO/c1-2(9)3-4-5(3)7-6(4)8-7/h3-8H,1H3	InChI=1S/C7H9NO/c1-2(9)3-4-5(3)7-6(4)8-7/h3-8H,1H3/t3-,4+,5-,6+,7-
