20
gdb 68999	2.95064	1.23565	1.10294	2.5015	79.75	-0.2475	0.0758	0.3234	1199.4696	0.170554	-403.090262	-403.08161	-403.080666	-403.123869	32.905	
C	-0.2422709764	 1.5709111846	 0.360435052	-0.480134
C	-0.073861532	 0.0928461864	 0.1704159541	 0.278589
C	-1.2127510561	-0.9370373868	 0.0607263807	-0.283587
C	-0.2942912309	-1.9977408257	 0.7529878589	-0.304742
C	 0.8121212211	-0.9363437882	 0.8437444799	 0.316257
N	 1.1262895326	-0.4136977815	-0.4887003389	-0.401992
C	 1.8446223123	-0.8170312514	 1.9015599917	-0.029567
C	 1.6474818949	-1.3060573948	 3.2726097016	-0.188273
O	 2.4469086931	-2.0433010752	 2.3488888192	-0.235328
H	 0.7213347139	 2.0496584127	 0.5513943552	 0.131314
H	-0.6698234999	 2.028645691	-0.539927438	 0.122882
H	-0.9157521943	 1.7881735678	 1.1963121492	 0.116348
H	-2.0844043681	-0.6835814382	 0.6697436743	 0.10578
H	-1.5523091122	-1.1551526872	-0.957867389	 0.096211
H	-0.6873335179	-2.3154103686	 1.7210699832	 0.108639
H	-0.0331905348	-2.8906682604	 0.1767112489	 0.105036
H	 0.9310098925	-1.0825607638	-1.2327476758	 0.22165
H	 2.5534918572	-0.0054040147	 1.7415308776	 0.096973
H	 2.189087759	-0.8329167269	 4.0911315345	 0.114128
H	 0.7059559558	-1.7746739791	 3.5551254805	 0.109815
53.2015	126.4514	176.018	195.2617	240.4215	289.7664	348.3988	430.8906	476.6956	527.3222	588.4176	709.9925	760.4145	783.9358	828.3162	843.5831	906.3522	930.986	946.3064	982.0257	994.4753	1071.3599	1087.8064	1098.4704	1113.9777	1130.7214	1154.4301	1170.5925	1192.303	1209.5016	1223.3056	1247.0198	1254.5644	1287.6218	1346.7142	1388.1824	1417.8063	1476.3035	1479.0436	1486.1852	1493.8119	1506.6575	1532.6465	3027.922	3040.3293	3056.019	3080.3715	3086.7048	3094.223	3114.5274	3119.4169	3122.7956	3165.1295	3448.9679
CC12CCC1(N2)C1CO1	C[C@]12CC[C@]1(N2)[C@H]1CO1	
InChI=1S/C7H11NO/c1-6-2-3-7(6,8-6)5-4-9-5/h5,8H,2-4H2,1H3	InChI=1S/C7H11NO/c1-6-2-3-7(6,8-6)5-4-9-5/h5,8H,2-4H2,1H3/t5-,6+,7+/m1/s1
