20
gdb 110945	2.61385	1.18023	0.99441	2.7185	75.18	-0.2383	0.061	0.2993	1277.5339	0.170321	-440.211442	-440.202178	-440.201234	-440.245961	33.918	
C	-0.2385924008	 1.4148436471	-0.3819887206	-0.242383
O	-0.1370377103	 0.0988243391	 0.1215751056	-0.241345
C	-1.3325436271	-0.6296766672	 0.013651764	 0.134383
C	-1.7316154648	-1.3012458239	-1.3325012644	-0.218413
N	-1.8112891299	-2.6602531291	-0.6823944237	-0.161603
C	-0.466310368	-2.9829661446	-0.1450948007	-0.010863
C	 0.8362017426	-2.7166694563	-0.8641022777	-0.101307
O	 1.0597719654	-3.6773979162	-1.8882752981	-0.421534
C	-1.2934313187	-2.0234260718	 0.6146145978	-0.105635
H	 0.7282633084	 1.8976750975	-0.2246145911	 0.133226
H	-0.4703934624	 1.428603217	-1.4573954986	 0.110654
H	-1.0152353689	 1.9893556617	 0.1460587088	 0.109249
H	-2.1686648392	-0.0424191306	 0.4195158077	 0.081482
H	-2.7209800901	-1.0164587656	-1.6949757246	 0.113858
H	-1.0133696115	-1.2207272834	-2.1536428003	 0.105794
H	-0.4925385699	-3.9888189596	 0.2722768939	 0.106496
H	 0.8965199204	-1.6906562974	-1.2403542649	 0.106099
H	 1.6589629616	-2.8388392358	-0.1517280575	 0.116673
H	 0.2813848163	-3.6827080617	-2.4553424129	 0.288066
H	-1.714818223	-2.2800354491	 1.5813813373	 0.097103
72.6844	82.8394	128.8053	167.3422	197.8525	283.727	295.9002	327.1101	423.3879	449.9329	509.2962	586.2886	701.085	764.7122	799.755	874.7095	913.5511	961.2256	999.2823	1023.7114	1044.6669	1060.3613	1071.8413	1086.8149	1134.1609	1159.7972	1178.9574	1183.4957	1213.8139	1235.4116	1259.5672	1273.6991	1298.5981	1339.4214	1365.4954	1398.795	1410.9755	1459.7699	1482.2946	1487.6286	1490.1335	1507.6855	1519.6635	2977.7732	3000.4256	3027.2631	3049.3904	3060.3863	3084.7642	3117.5377	3121.9581	3124.3373	3162.5897	3809.595
COC1CN2C(CO)C12	CO[C@H]1CN2[C@@H](CO)[C@@H]12	
InChI=1S/C6H11NO2/c1-9-5-2-7-4(3-8)6(5)7/h4-6,8H,2-3H2,1H3	InChI=1S/C6H11NO2/c1-9-5-2-7-4(3-8)6(5)7/h4-6,8H,2-3H2,1H3/t4-,5-,6-,7?/m0/s1
