19
gdb 91069	2.90158	1.57454	1.54438	2.1958	73.49	-0.236	0.0749	0.3109	977.3682	0.160248	-422.991272	-422.983786	-422.982842	-423.023378	29.633	
C	 0.5964361942	 1.3951394161	 0.1435649188	-0.397764
C	 0.0353737019	-0.0078490679	-0.052526859	 0.152578
C	 0.6048036626	-0.7503928281	-1.3001210162	-0.274102
C	 1.2790256847	-2.0156732155	-0.754332373	-0.085431
C	 2.8027695489	-1.9783206787	-0.5113287984	 0.009563
O	 3.0895857363	-0.7444135722	 0.1522103905	-0.234176
C	 2.630944296	-1.8440486955	 0.9469731406	-0.006247
C	 1.0901601186	-1.9301824071	 0.7931652468	 0.08516
O	 0.3161439473	-0.813249478	 1.1106612668	-0.272905
H	 1.68723288	 1.3586300172	 0.1947170185	 0.142148
H	 0.2985041091	 2.0427601525	-0.6884952987	 0.103928
H	 0.2121136527	 1.8311480971	 1.0701503514	 0.117115
H	-1.0591725163	 0.0534325078	-0.1229093277	 0.072755
H	-0.1977254359	-1.0006966892	-1.9980630071	 0.102501
H	 1.3186043472	-0.1125201983	-1.8268914961	 0.114926
H	 0.9285159604	-2.9454814041	-1.2038614773	 0.080649
H	 3.6005667916	-2.4305191542	-1.0888479984	 0.105833
H	 3.2621004563	-2.1510970417	 1.7730109167	 0.104503
H	 0.6814377945	-2.8282974502	 1.2693521018	 0.078966
71.4064	134.7528	253.0022	261.8984	340.4478	421.8796	453.7984	618.5068	653.2122	669.8515	751.5404	793.5524	839.9833	856.8967	876.5835	886.9681	914.4803	921.2735	958.3825	1007.5045	1044.7473	1052.3682	1065.1432	1110.1259	1127.7379	1144.5369	1171.7008	1223.7839	1232.7973	1237.1424	1268.2111	1297.2203	1321.4078	1345.0723	1368.5229	1382.549	1390.5142	1405.911	1487.2325	1488.9019	1504.5736	3002.062	3037.7283	3047.5025	3065.3126	3101.2494	3106.9655	3114.6264	3135.2816	3179.1298	3194.7804
CC1CC2C3OC3C2O1	C[C@H]1C[C@H]2[C@H]3O[C@H]3[C@H]2O1	
InChI=1S/C7H10O2/c1-3-2-4-5(8-3)7-6(4)9-7/h3-7H,2H2,1H3	InChI=1S/C7H10O2/c1-3-2-4-5(8-3)7-6(4)9-7/h3-7H,2H2,1H3/t3-,4+,5-,6+,7-/m0/s1
