18
gdb 7148	6.65945	0.83937	0.7596	2.7795	66.66	-0.2622	0.0184	0.2806	1515.3408	0.150634	-422.098045	-422.0882	-422.087255	-422.134447	32.413	
C	 0.0829079188	 1.5017530379	-0.1772013264	-0.39149
C	 0.0174392859	-0.0058330302	-0.0297114132	-0.040981
O	 0.6721070269	-0.5870278	-1.175863833	-0.248452
C	 0.7037120158	-1.9347538945	-1.2106065346	 0.412684
O	 0.2343342014	-2.6519919541	-0.3708348997	-0.334924
C	 1.4235667815	-2.3794937881	-2.4745631951	-0.171082
O	 1.4620992239	-3.7734680611	-2.5204098885	-0.210781
C	 2.1177859991	-4.2596606064	-3.6682456067	-0.223699
H	 1.1201025883	 1.8462843694	-0.2178787022	 0.129621
H	-0.4238766402	 1.8280042799	-1.0898100136	 0.129616
H	-0.4054016006	 1.9792364648	 0.6774752877	 0.124342
H	 0.5214538695	-0.3520875025	 0.8781453176	 0.123687
H	-1.0138165238	-0.3704415828	 0.0105879444	 0.123829
H	 0.8962006665	-1.9485537603	-3.3429892029	 0.115794
H	 2.433577509	-1.9346980795	-2.4723173582	 0.115787
H	 3.166149469	-3.9242660244	-3.7140418915	 0.105665
H	 2.0968318419	-5.3501404072	-3.6133267781	 0.134721
H	 1.6145744571	-3.9387946409	-4.5942478358	 0.105664
32.5966	58.4689	74.7244	116.5536	143.8668	232.3519	243.7771	259.2397	337.931	374.9527	443.8934	598.9529	734.9806	805.8565	882.0703	948.2188	1016.6461	1038.5229	1064.9883	1135.7374	1175.1016	1182.8176	1184.1118	1212.0114	1247.7423	1249.5017	1291.125	1390.8641	1413.7544	1431.0784	1472.7571	1485.8601	1486.2155	1492.2137	1496.2733	1516.4668	1520.9397	1847.9345	2956.3831	2972.0621	2981.3847	3014.0926	3046.1813	3051.6425	3089.196	3120.6773	3122.4167	3125.746
CCOC(=O)COC	CCOC(=O)COC	
InChI=1S/C5H10O3/c1-3-8-5(6)4-7-2/h3-4H2,1-2H3	InChI=1S/C5H10O3/c1-3-8-5(6)4-7-2/h3-4H2,1-2H3
