17
gdb 20189	3.4311	2.61265	2.01935	1.6385	66.43	-0.2312	0.0833	0.3145	726.7922	0.14568	-363.81225	-363.806332	-363.805388	-363.841939	24.294	
C	-0.0501224526	 1.4588487457	-0.0442082454	-0.157299
C	 1.497418439	 1.5207077968	 0.0712693362	-0.062088
C	 2.0016244257	 1.9587780958	 1.4435389884	-0.089018
O	 1.1211739388	 1.5111831112	 2.4626955383	-0.246875
C	 0.8780959416	 0.1146654712	 2.4657268167	-0.110761
C	 0.742085499	-0.5356361132	 1.1010580109	-0.015362
C	 1.4588855424	-0.0085092894	-0.0716354977	-0.061604
N	-0.0580932029	-0.0490935862	-0.0499417401	-0.160903
H	-0.6342919064	 1.9181862322	 0.7559213138	 0.117597
H	-0.4174066153	 1.8024358658	-1.0134635985	 0.108404
H	 2.0032635207	 2.0537315068	-0.7351428379	 0.077832
H	 3.0262638714	 1.5843029812	 1.6098576901	 0.088656
H	 2.0185022903	 3.0491140043	 1.5367673771	 0.109217
H	 1.6963759873	-0.4144261284	 2.9863675092	 0.095797
H	-0.0324418232	-0.0264914533	 3.0582407867	 0.11745
H	 0.6664983412	-1.6188041366	 1.171553465	 0.099713
H	 2.0483993828	-0.6101861439	-0.7559589726	 0.089244
197.6005	273.431	355.5203	382.3741	474.2866	573.2046	698.2783	747.3315	771.2675	803.6315	844.2016	883.2495	903.8363	956.9877	965.8051	1017.9421	1055.4907	1063.3952	1072.8777	1082.671	1098.9944	1161.3081	1189.8341	1216.219	1242.4104	1276.6647	1297.9704	1318.1144	1323.3749	1331.2943	1384.1501	1414.9598	1442.951	1490.5547	1495.9464	1500.103	2947.5841	2963.2684	3063.0382	3068.0313	3075.8746	3099.6959	3125.122	3134.394	3160.8224
C1C2COCC3C2N13	C1[C@H]2COC[C@@H]3[C@H]2N13	
InChI=1S/C6H9NO/c1-4-2-8-3-5-6(4)7(1)5/h4-6H,1-3H2	InChI=1S/C6H9NO/c1-4-2-8-3-5-6(4)7(1)5/h4-6H,1-3H2/t4-,5+,6-,7?/m0/s1
