16
gdb 32289	2.90915	1.44232	1.03732	2.0593	73.95	-0.2572	-0.0647	0.1925	1132.9285	0.125132	-437.953771	-437.9458	-437.944856	-437.986676	29.232	
C	 0.0425296803	 1.5576552041	 0.1221661751	-0.381232
C	-0.0096541289	 0.0343131897	-0.0907187773	-0.279803
C	-1.4080672731	-0.5203020168	-0.0630577694	 0.09393
C	-2.0619035721	-0.9900229759	-1.1549292132	-0.070073
N	-3.3497990894	-1.4903458645	-1.144695565	-0.277884
C	-3.9278391523	-1.5004380008	-0.0031566338	 0.143762
O	-3.4089418191	-1.0824195492	 1.1580837808	-0.193254
C	-2.0979909359	-0.5552715842	 1.2184039485	 0.399015
O	-1.690830561	-0.2035115018	 2.2901250153	-0.33169
H	 1.0783270318	 1.9087352338	 0.101400569	 0.119279
H	-0.5106790474	 2.0831566263	-0.6625595671	 0.116858
H	-0.3896508236	 1.8248433627	 1.0891313287	 0.14965
H	 0.453192613	-0.2258627368	-1.0487730319	 0.105764
H	 0.5762282091	-0.4537649137	 0.6963822691	 0.128726
H	-1.5759695326	-0.9927891156	-2.1271273562	 0.124139
H	-4.9412274887	-1.8703631373	 0.1214683074	 0.152813
81.1115	113.7497	180.6004	211.4496	292.0178	312.0033	438.3197	498.1185	525.8832	579.2039	608.0012	721.5572	784.5247	809.8283	869.9612	946.9772	967.3653	987.4912	993.8259	1075.3202	1090.0961	1112.6686	1228.9055	1261.8291	1286.5392	1354.8084	1401.1256	1406.7392	1416.1806	1474.9268	1496.4574	1511.0652	1603.7449	1668.8394	1845.9216	3037.6187	3043.8802	3078.7801	3112.5314	3134.9289	3168.3974	3193.2532
CCC1=CN=COC1=O	CCc1cncoc1=O	
InChI=1S/C6H7NO2/c1-2-5-3-7-4-9-6(5)8/h3-4H,2H2,1H3	InChI=1S/C6H7NO2/c1-2-5-3-7-4-9-6(5)8/h3-4H,2H2,1H3
