21
gdb 116405	2.72634	1.30256	0.96701	2.9275	79.29	-0.2275	-0.0146	0.2129	1274.1353	0.182966	-424.255798	-424.246768	-424.245824	-424.289639	33.835	
C	-0.0002741081	 1.3860946962	 0.1285563445	-0.246104
O	-0.0295080151	 0.0022291079	-0.1683144883	-0.234757
C	-1.2769596328	-0.6114275787	-0.0009255688	 0.034557
C	-1.2383531391	-1.9714230513	-0.7209009581	-0.219595
C	-2.5535078411	-2.7442314639	-0.5635174536	-0.205847
C	-2.9090716501	-2.9506280286	 0.9141587147	-0.199023
C	-2.9628457957	-1.6052836074	 1.6670655777	-0.293111
C	-1.6721804195	-0.8211031121	 1.47103749	 0.368522
O	-1.0003729627	-0.4171262842	 2.3904801495	-0.307999
H	 0.999728885	 1.7417938643	-0.1308567739	 0.125634
H	-0.7373496228	 1.9379410154	-0.4767681058	 0.095252
H	-0.1874917792	 1.5795028551	 1.1894466697	 0.135584
H	-2.0773223125	 0.0030614611	-0.4586257788	 0.072047
H	-1.0020317822	-1.795528574	-1.774606043	 0.109171
H	-0.405981761	-2.5498548606	-0.3011482636	 0.116888
H	-3.3649493001	-2.1955293259	-1.0612025465	 0.097775
H	-2.4764610352	-3.7110858912	-1.0719888188	 0.103
H	-3.8687937161	-3.4683160435	 1.0134195936	 0.102969
H	-2.1547828098	-3.5937675577	 1.3851033913	 0.111385
H	-3.7939265584	-1.0058661239	 1.2694775995	 0.11374
H	-3.1263819837	-1.737384357	 2.7392227987	 0.119912
86.623	107.7802	138.7693	189.9235	237.7223	290.6177	304.703	371.9069	419.5001	459.4377	497.6844	592.2947	667.4979	736.6779	843.7523	856.7454	889.1648	915.1003	954.0589	1028.4526	1045.4478	1075.6172	1080.9901	1114.9586	1136.5144	1176.1688	1180.8781	1214.0815	1246.2247	1259.9485	1274.4908	1318.4129	1339.0646	1343.0559	1368.2554	1376.8667	1391.2871	1467.572	1478.5772	1482.8954	1490.1422	1490.678	1505.5692	1515.5434	1818.2189	2910.3657	2978.948	3015.6344	3017.5801	3030.0603	3036.9321	3072.0158	3076.8319	3077.0238	3088.7042	3106.2209	3122.6698
COC1CCCCC1=O	CO[C@H]1CCCCC1=O	
InChI=1S/C7H12O2/c1-9-7-5-3-2-4-6(7)8/h7H,2-5H2,1H3	InChI=1S/C7H12O2/c1-9-7-5-3-2-4-6(7)8/h7H,2-5H2,1H3/t7-/m0/s1
