18
gdb 47461	3.29615	1.10602	0.88958	6.2613	75.94	-0.2514	-0.0305	0.2209	1293.8926	0.148144	-402.002216	-401.993631	-401.992687	-402.036317	31.368	
O	-0.2496201016	 0.1461977961	 0.6585487819	-0.301551
C	-0.1745177263	 1.2635561681	 0.219968434	 0.402952
C	-1.3401961685	 2.1222170747	-0.2830737439	-0.313641
C	-0.7077763864	 3.465121221	-0.6903019521	-0.223824
C	 0.5887603169	 3.5477186284	 0.1465372308	-0.243411
C	 1.1120351902	 2.1023855635	 0.1433980863	-0.084832
C	 2.1342073165	 1.7514043241	 1.2368650076	-0.360242
C	 2.8316909443	 0.4886928634	 0.998461238	 0.276446
N	 3.4215652486	-0.4834849792	 0.7951190391	-0.308715
H	-1.8823525375	 1.6092093778	-1.0817412601	 0.138016
H	-2.0442453502	 2.235436884	 0.5501349926	 0.139273
H	-0.4547072148	 3.4567758114	-1.7562264071	 0.1134
H	-1.3690882576	 4.3177321317	-0.522033821	 0.111914
H	 1.310034697	 4.2639090982	-0.2547878328	 0.112629
H	 0.3560300061	 3.8559256354	 1.174426743	 0.108692
H	 1.5558714054	 1.8961834916	-0.8414153252	 0.124787
H	 2.8895461938	 2.5427216599	 1.3026799931	 0.151676
H	 1.6363097241	 1.6999344998	 2.2114527659	 0.15643
53.6549	76.9397	129.6432	199.7687	244.608	333.1989	379.0846	425.2849	494.0093	560.162	599.6993	619.2126	708.7312	813.0798	876.233	914.8636	938.4084	945.4683	961.2032	1017.0373	1027.5098	1100.8984	1138.8359	1164.5814	1187.0748	1212.9567	1237.9331	1287.266	1297.9552	1324.1465	1341.0228	1348.3154	1371.2483	1448.1851	1459.6134	1494.2413	1505.7483	1847.3321	2366.4841	3010.5501	3028.3678	3045.0016	3047.2087	3049.8571	3085.3716	3098.1849	3100.3226	3111.0458
O=C1CCCC1CC#N	O=C1CCC[C@H]1CC#N	
InChI=1S/C7H9NO/c8-5-4-6-2-1-3-7(6)9/h6H,1-4H2	InChI=1S/C7H9NO/c8-5-4-6-2-1-3-7(6)9/h6H,1-4H2/t6-/m0/s1
