18
gdb 110043	2.04761	1.75634	1.06535	1.3338	68.69	-0.2378	0.0116	0.2494	1132.267	0.148236	-476.249825	-476.240931	-476.239987	-476.283601	32.613	
C	 0.3415099136	 0.9690530116	 0.3871104011	-0.247649
O	 0.0060008787	-0.3847724459	 0.1144782941	-0.275378
C	-1.375717697	-0.6057797635	-0.1309284518	-0.042764
C	-1.5031980054	-2.0465407127	-0.6589456542	 0.11829
O	-0.4500576605	-2.4429403897	-1.4919309145	-0.436857
C	-1.6467505563	-2.8871524754	 0.638854921	-0.196322
N	-2.2908514978	-1.9474435721	 1.541397421	-0.311102
C	-2.1393885357	-0.6322325259	 1.2087466685	 0.409561
O	-2.4925788793	 0.3274499627	 1.8623736637	-0.386907
H	 1.4193431007	 0.9959248223	 0.561006159	 0.128734
H	 0.0967529274	 1.6126926497	-0.4701026661	 0.11455
H	-0.1875844321	 1.3405013327	 1.270689982	 0.150741
H	-1.7765202863	 0.1576850591	-0.8083185663	 0.090041
H	-2.4330860874	-2.1285424755	-1.2318026873	 0.10238
H	 0.3239450006	-1.9517322809	-1.1821414172	 0.293612
H	-2.2543997521	-3.7834741543	 0.4868985742	 0.117664
H	-0.6549644382	-3.1948451593	 0.9942855786	 0.117208
H	-2.6541475731	-2.2013001829	 2.4473270943	 0.254198
74.1031	118.347	169.5051	183.0133	221.7287	256.4998	331.0394	390.5953	454.5493	476.6624	523.9808	550.5848	666.8575	686.2494	740.8146	880.1901	908.305	946.0536	1051.9273	1065.6703	1083.8546	1124.1872	1149.1379	1187.8074	1201.0182	1209.9733	1258.7385	1266.4942	1302.4684	1340.0045	1365.0633	1369.1851	1438.8596	1452.4384	1479.613	1483.1055	1515.1334	1526.1588	1822.4405	3001.4886	3022.8321	3038.6309	3057.7945	3082.5995	3088.8639	3130.8217	3628.2792	3744.4599
COC1C(O)CNC1=O	CO[C@H]1[C@@H](O)CNC1=O	
InChI=1S/C5H9NO3/c1-9-4-3(7)2-6-5(4)8/h3-4,7H,2H2,1H3,(H,6,8)	InChI=1S/C5H9NO3/c1-9-4-3(7)2-6-5(4)8/h3-4,7H,2H2,1H3,(H,6,8)/t3-,4-/m0/s1
