15
gdb 132971	3.06872	1.4109	0.97247	6.7645	75.72	-0.209	-0.0189	0.1901	1138.6124	0.11369	-458.116957	-458.109103	-458.108159	-458.149771	28.782	
C	-0.017528066	 1.4793748018	 0.0276386957	-0.346668
N	-0.0022026097	 0.0258027172	 0.003428359	-0.070856
C	-0.0350085924	-0.6892557519	-1.1590915823	 0.09769
N	-0.022649194	-1.9707225471	-1.2609126913	-0.348162
C	 0.029251042	-2.7759509894	-0.1061722303	 0.256444
N	 0.044973439	-4.0546505374	-0.1178354842	-0.537673
C	 0.0654721582	-2.036977078	 1.1556570301	 0.189834
F	 0.1148747277	-2.7242066648	 2.2883449237	-0.047354
C	 0.0498422995	-0.6939368153	 1.1908501962	-0.12663
H	 0.8887727973	 1.8723910802	 0.500602616	 0.149733
H	-0.0639863547	 1.8513351713	-0.9969390407	 0.151475
H	-0.8907614513	 1.8518341426	 0.5736797517	 0.149757
H	-0.0752218655	-0.0820868169	-2.0621072778	 0.126119
H	 0.013765435	-4.3673311339	-1.0906390503	 0.216208
H	 0.0760694049	-0.1324283483	 2.1147715445	 0.140083
75.5766	118.1021	171.8044	298.4948	327.4577	331.3484	410.9465	463.0685	521.5721	535.2473	590.9883	705.3722	780.3089	835.2123	861.3984	896.0529	958.5067	1008.9648	1051.6398	1110.482	1152.8239	1197.309	1275.0355	1324.7019	1385.2967	1424.252	1461.9187	1474.239	1480.3091	1523.5075	1639.8034	1686.7592	1726.5619	3031.9406	3090.2696	3140.3664	3147.02	3229.3718	3460.0691
CN1C=NC(=N)C(F)=C1	CN1CN=C([NH])C(=C1)F	
InChI=1S/C5H6FN3/c1-9-2-4(6)5(7)8-3-9/h2-3,7H,1H3	InChI=1S/C5H7FN3/c1-9-2-4(6)5(7)8-3-9/h2,7H,3H2,1H3
