17
gdb 72274	2.84638	1.87654	1.63562	2.7633	66.41	-0.2311	0.0574	0.2885	877.0905	0.137034	-458.913139	-458.906318	-458.905374	-458.943909	28.102	
O	-0.02377253	 1.4281921952	-0.0234956752	-0.482325
C	 0.0076106035	 0.040543424	-0.0802850138	 0.379368
C	 0.3867589586	-0.7358205527	-1.3543124309	-0.345174
C	-0.4980139184	-1.8837992574	-0.7897008619	 0.059502
O	 0.2432285201	-2.7747113998	 0.0211086314	-0.25555
C	 1.0536585304	-2.0669190726	 0.9600736591	-0.089045
C	 0.3839264976	-0.7331196585	 1.2525769546	-0.013197
O	-1.0196189691	-1.0305730732	 1.5071384059	-0.284522
C	-1.2565468621	-0.8078697321	 0.1177338548	 0.05749
H	 0.8785282361	 1.7614612284	-0.0848781621	 0.281842
H	-0.0707295105	-0.2622872389	-2.2279937638	 0.113368
H	 1.4328003286	-0.9705918481	-1.568369266	 0.102605
H	-1.0831926354	-2.484303102	-1.4845357769	 0.091146
H	 1.1091581125	-2.6810583832	 1.8640977447	 0.121489
H	 2.0760267791	-1.923020874	 0.5756102614	 0.089201
H	 0.8491819955	-0.1508666578	 2.0523372458	 0.085273
H	-2.2782162466	-0.5265633971	-0.1403401472	 0.088529
193.2878	242.7238	281.4589	332.8926	398.7238	421.4377	469.1771	545.9928	640.0772	687.9431	751.2132	792.7322	839.6851	872.4572	904.4725	917.8991	981.0014	984.9032	1010.2823	1039.6806	1053.9223	1080.728	1114.3186	1157.0886	1176.0619	1197.5893	1214.451	1227.197	1255.4481	1263.2824	1306.0677	1328.0826	1339.3563	1393.6954	1404.5361	1481.3009	1506.0745	2977.6751	3055.6301	3076.9402	3085.2442	3111.6143	3112.3585	3128.3562	3795.8493
OC12CC3OCC1OC23	O[C@@]12C[C@H]3OC[C@@H]1O[C@@H]23	
InChI=1S/C6H8O3/c7-6-1-3-5(6)9-4(6)2-8-3/h3-5,7H,1-2H2	InChI=1S/C6H8O3/c7-6-1-3-5(6)9-4(6)2-8-3/h3-5,7H,1-2H2/t3-,4+,5-,6+/m1/s1
