16
gdb 45510	4.34022	1.30123	1.04499	4.6332	70.08	-0.275	-0.0155	0.2595	1094.9001	0.127022	-437.946716	-437.939901	-437.938957	-437.978108	26.628	
O	 0.1262124143	 0.0284274745	-0.2796356966	-0.292734
C	-0.0307828482	 1.1818928448	-0.046608759	 0.413919
C	-1.3261150511	 2.0083289296	-0.0160825729	-0.391592
C	-0.8077996322	 3.4455298635	-0.1005953945	-0.100769
C	-1.274470681	 4.6293844145	 0.7589907123	-0.261571
C	 0.0926269847	 5.2959381726	 1.1238218455	-0.161613
N	 1.1072270314	 4.2129281656	 1.121003575	-0.294796
C	 0.5770338264	 3.2747524965	 0.4689529301	 0.437623
O	 1.0489011045	 2.0098791045	 0.2887781727	-0.22591
H	-1.9917660531	 1.6840304742	-0.8160273471	 0.148759
H	-1.8219065801	 1.8042586407	 0.9407595196	 0.151971
H	-0.7242915788	 3.7412544166	-1.1551527669	 0.112957
H	-1.9621790247	 5.3071031691	 0.2495711081	 0.112206
H	-1.7634342237	 4.2686482139	 1.6706337487	 0.113713
H	 0.3763291492	 6.0648946932	 0.3937431625	 0.116386
H	 0.0776394526	 5.7745962164	 2.1061818326	 0.121452
113.5487	154.3097	291.0296	324.5871	402.9203	524.9866	540.3453	591.3751	635.6382	690.6517	741.8708	814.2766	843.5691	854.0689	919.8423	945.8501	977.4478	1013.5058	1082.7445	1094.8468	1113.5783	1160.7286	1190.7257	1218.681	1251.0826	1273.0694	1300.8738	1323.1164	1346.1237	1362.1251	1462.5962	1487.5695	1503.9607	1770.0039	1931.0195	3018.3266	3030.1078	3050.5828	3053.2178	3095.5722	3118.4278	3137.1946
O=C1CC2CCN=C2O1	O=C1C[C@H]2CC[N][C]2O1	
InChI=1S/C6H7NO2/c8-5-3-4-1-2-7-6(4)9-5/h4H,1-3H2	InChI=1S/C6H7NO2/c8-5-3-4-1-2-7-6(4)9-5/h4H,1-3H2/t4-/m1/s1
