19
gdb 69564	2.8372	1.47384	1.17433	3.0779	81.84	-0.2339	-0.0055	0.2284	1118.4688	0.158382	-385.875761	-385.867204	-385.86626	-385.908758	32.678	
C	-0.0671550758	 1.5545235366	 0.0288958555	-0.493631
C	 0.0652590587	 0.0592129205	 0.0048745767	 0.216219
C	-0.8178189549	-0.8739149865	 0.8290900905	-0.327571
C	 0.6580163044	-0.9565159245	 1.0275617581	-0.214118
C	 1.2576724481	-1.7701469644	-0.1086230702	 0.264587
C	 2.6285194044	-2.3796591155	-0.2231877124	-0.332919
C	 1.4070183635	-3.2569071869	-0.2908301066	-0.321452
C	 0.723621132	-0.7437006455	-1.091272562	 0.307196
O	 0.9178936457	-0.5436577722	-2.2600900447	-0.33483
H	 0.8687455625	 2.0396095138	-0.2659728254	 0.131171
H	-0.845409184	 1.8869874835	-0.6665213966	 0.136827
H	-0.3381376486	 1.9113009226	 1.0275250041	 0.119525
H	-1.3853945436	-0.3578414822	 1.5984266438	 0.119435
H	-1.349457311	-1.6977452738	 0.3609047703	 0.121722
H	 1.1559816229	-0.7138499766	 1.9576470338	 0.104714
H	 3.1735298665	-2.1831463482	-1.1406117114	 0.13568
H	 3.2378219012	-2.4185315606	 0.6736668205	 0.119578
H	 1.185725064	-3.8918981627	 0.560785056	 0.118833
H	 1.1272287039	-3.6698812777	-1.2544377299	 0.129032
91.9035	152.2664	175.7597	197.4271	217.3521	276.5424	313.5944	441.2393	505.4073	525.5409	659.3744	710.8499	754.5024	790.5966	838.0592	847.153	917.468	924.4343	939.107	957.5672	984.8524	1012.837	1019.1227	1057.8971	1078.8084	1083.5628	1108.2079	1110.8833	1194.2245	1210.8049	1242.8212	1273.0923	1371.8871	1394.1515	1417.5136	1456.1825	1482.4399	1489.225	1496.0779	1498.5365	1866.5938	3032.6451	3096.7143	3105.428	3112.5648	3127.5856	3130.0647	3193.7344	3202.4176	3210.0848	3224.6845
CC12CC1C1(CC1)C2=O	C[C@]12C[C@H]1C1(CC1)C2=O	
InChI=1S/C8H10O/c1-7-4-5(7)8(2-3-8)6(7)9/h5H,2-4H2,1H3	InChI=1S/C8H10O/c1-7-4-5(7)8(2-3-8)6(7)9/h5H,2-4H2,1H3/t5-,7+/m1/s1
