22
gdb 113788	3.3146	0.98025	0.92752	2.4833	83.47	-0.2271	0.0661	0.2932	1409.207	0.193631	-404.312394	-404.302857	-404.301913	-404.346903	36.633	
C	-0.1369780955	 1.545309993	 0.1263293125	-0.376795
C	 0.4855902753	 0.17800149	-0.177912919	-0.20239
C	 0.8885807802	-0.5551539304	 1.0827037473	 0.015273
N	-0.1711287439	-1.2177375031	 1.8729906258	-0.364831
C	 0.8925132862	-2.0347565587	 1.260034064	-0.128002
C	 0.4012688835	-3.0252892007	 0.2370644327	 0.460264
O	-0.8419508156	-2.700030088	-0.31493088	-0.471476
C	 1.3635210289	-3.7052290395	-0.6856236914	-0.311184
C	 0.7113315305	-4.4925910084	 0.43719831	-0.326745
H	 0.5599566733	 2.1911252667	 0.6731663428	 0.106308
H	-0.4185876024	 2.0651040527	-0.7943307203	 0.112627
H	-1.0368119076	 1.4310455402	 0.7391808757	 0.12408
H	-0.2099386463	-0.4412148829	-0.7482817206	 0.127923
H	 1.3806022392	 0.3050984887	-0.8006398885	 0.0953
H	 1.644745122	-0.0312854663	 1.669917918	 0.079416
H	-0.0326056876	-1.1014843192	 2.8716169267	 0.23552
H	 1.6637026575	-2.4320764144	 1.9178330942	 0.081648
H	-1.3217487095	-2.2578227562	 0.4031910893	 0.287388
H	 1.0128817897	-3.8898617187	-1.6947285648	 0.12449
H	 2.4186772968	-3.4643609152	-0.6081165277	 0.109033
H	 1.3234553532	-4.7958979208	 1.2808823534	 0.103273
H	-0.0727495478	-5.1890252487	 0.1638596299	 0.11888
58.4996	81.9466	154.26	198.5441	239.2835	266.1857	296.024	333.1069	417.1568	436.8948	521.2977	537.1098	605.5772	723.0557	765.0492	777.2846	830.7946	853.6348	890.3916	924.6314	942.9841	947.993	972.5346	992.2403	1038.065	1039.2549	1052.0361	1074.0054	1098.7825	1140.2579	1172.7327	1190.7566	1224.4774	1248.7249	1266.0748	1309.0251	1328.1718	1349.1186	1384.5105	1408.5708	1450.78	1452.5309	1472.9923	1490.4984	1500.3042	1509.219	1517.6113	3030.2043	3030.9209	3085.2757	3090.8115	3109.1315	3118.4821	3122.0795	3127.4049	3132.6958	3214.8591	3229.1596	3523.2703	3695.0594
CCC1NC1C1(O)CC1	CC[C@H]1N[C@H]1C1(O)CC1	
InChI=1S/C7H13NO/c1-2-5-6(8-5)7(9)3-4-7/h5-6,8-9H,2-4H2,1H3	InChI=1S/C7H13NO/c1-2-5-6(8-5)7(9)3-4-7/h5-6,8-9H,2-4H2,1H3/t5-,6-/m1/s1
