19
gdb 91749	2.38529	1.90854	1.65112	1.8422	73.9	-0.2365	0.0076	0.2441	940.282	0.161571	-423.040488	-423.033226	-423.032282	-423.071886	29.556	
C	-0.2689336311	 1.5373651607	-0.1042875299	-0.41071
C	-0.0007932175	 0.042914451	-0.0050885473	 0.133076
O	 0.78515401	-0.4150284889	-1.123179116	-0.28471
C	 1.9202613818	-1.0619567058	-0.5585023323	 0.137421
O	 1.465556734	-1.6046666972	 0.6641122808	-0.25031
C	 0.7940387783	-0.4739968799	 1.2305423428	 0.024633
C	 1.8487661002	 0.4882436151	 1.8036252458	-0.272697
C	 2.9879463215	 0.6586611949	 0.8268441378	-0.073924
C	 3.030930448	-0.0587901307	-0.2933885206	-0.052156
H	 0.6623104667	 2.1081879785	-0.1203797724	 0.129469
H	-0.814277811	 1.7537894331	-1.0269717108	 0.12854
H	-0.8829287565	 1.8785428657	 0.7366167167	 0.112113
H	-0.9555543507	-0.4986035337	-0.0407262401	 0.085552
H	 2.2246368304	-1.8794387086	-1.2162072468	 0.089296
H	 0.1252752101	-0.8378453646	 2.0135781982	 0.085
H	 1.3941974167	 1.457701023	 2.0400838245	 0.11267
H	 2.2258096026	 0.0913910897	 2.7562330275	 0.115986
H	 3.7673753384	 1.3750919063	 1.0719965103	 0.095607
H	 3.8172427781	 0.0545924414	-1.0322446179	 0.095143
106.2307	235.0681	253.8633	298.2264	363.2547	466.2972	477.3656	485.2475	547.6357	687.6284	707.8497	772.2731	799.4476	854.4276	876.401	900.9903	931.8691	962.7923	975.782	987.0451	1014.6265	1048.4826	1082.2718	1105.0107	1119.6369	1153.8139	1192.7437	1204.6293	1289.5355	1312.5377	1334.8219	1353.7557	1366.1037	1385.028	1390.4019	1404.6925	1410.6238	1466.6113	1487.6294	1501.8858	1711.4677	3009.9804	3016.889	3039.4133	3055.6362	3090.0008	3094.62	3108.9734	3129.5671	3158.9948	3191.1803
CC1OC2OC1CC=C2	C[C@H]1O[C@@H]2O[C@H]1CC=C2	
InChI=1S/C7H10O2/c1-5-6-3-2-4-7(8-5)9-6/h2,4-7H,3H2,1H3	InChI=1S/C7H10O2/c1-5-6-3-2-4-7(8-5)9-6/h2,4-7H,3H2,1H3/t5-,6+,7-/m1/s1
