20
gdb 120665	3.02429	0.96942	0.83322	2.1689	76.43	-0.2419	0.0607	0.3027	1447.7041	0.16988	-440.214715	-440.205328	-440.204384	-440.25001	33.334	
C	 0.5441469644	 1.2445011554	-0.0900344598	-0.22449
O	 0.7366179805	-0.1412757067	-0.2480681647	-0.235672
C	-0.0389912247	-0.6852904165	-1.2953830547	-0.056025
C	 0.1866812346	-2.1745751608	-1.3241660135	-0.120274
N	 0.0262736577	-2.8175183631	-2.6477948921	-0.384175
C	 1.3421962812	-2.7584924071	-2.0291346641	 0.296737
C	 2.5812280257	-2.1080522176	-2.6337104274	-0.132569
O	 3.3989715968	-3.2050296602	-2.15895569	-0.276088
C	 2.2613909699	-3.9027890388	-1.6121024419	-0.148201
H	 0.8232665057	 1.8028137888	-0.9976697325	 0.105407
H	-0.5033051335	 1.4865223934	 0.1506443493	 0.104567
H	 1.1812146391	 1.5713743633	 0.7352209759	 0.128794
H	-1.1089705619	-0.4620052302	-1.1426514156	 0.089028
H	 0.2457756949	-0.2541576303	-2.2686949979	 0.096187
H	-0.1728949967	-2.7105415272	-0.4470595127	 0.091622
H	-0.3764114409	-3.7467724154	-2.549310325	 0.233559
H	 2.5795313651	-2.034185307	-3.7281008816	 0.107299
H	 2.8825850662	-1.1506691265	-2.1929986744	 0.115425
H	 2.3611274543	-4.0815852018	-0.5338824901	 0.109315
H	 2.0795379917	-4.8598651017	-2.1222103472	 0.099554
48.7141	91.415	105.4415	128.4167	182.398	234.7963	289.0633	352.009	386.1493	459.6522	504.512	586.0801	795.066	863.9084	922.6339	936.5326	952.6358	985.5284	1012.2337	1026.0657	1029.8202	1056.0892	1105.9457	1131.3188	1149.4255	1160.9656	1163.4477	1179.0628	1212.1251	1230.0311	1268.583	1271.0082	1303.0215	1324.0004	1376.7774	1413.6049	1480.1875	1485.0733	1502.4267	1503.361	1513.6801	1525.1575	1529.7647	2954.4339	2971.6911	2992.1591	2993.6164	3013.9611	3020.3042	3042.3693	3069.9126	3115.5527	3122.9165	3493.769
COCC1NC11COC1	COC[C@H]1NC21COC2	
InChI=1S/C6H11NO2/c1-8-2-5-6(7-5)3-9-4-6/h5,7H,2-4H2,1H3	InChI=1S/C6H11NO2/c1-8-2-5-6(7-5)3-9-4-6/h5,7H,2-4H2,1H3/t5-/m1/s1
