18
gdb 81145	2.60008	1.5199	1.29598	4.7734	75.78	-0.27	0.0008	0.2708	1050.3699	0.148698	-401.946751	-401.938887	-401.937942	-401.978915	30.633	
C	-0.1759581176	 1.6468643341	-0.0433783724	-0.445053
C	 0.019537671	 0.1438241173	 0.0107843286	-0.008955
C	 1.1671379573	-0.6094824353	-0.7114526068	 0.044203
C	 2.4620303808	 0.0750869204	-0.2316945509	-0.227976
C	 2.1259332208	 0.1096685404	 1.2917884181	-0.268904
C	 0.7399083441	-0.5789853609	 1.1923077098	 0.305026
O	 1.0179548016	-1.6823325349	 0.279222917	-0.320004
C	 0.0541253128	-0.9357950773	 2.4175811597	 0.185651
N	-0.5027724081	-1.1763538646	 3.4011564828	-0.335766
H	 0.7468562384	 2.2045752833	 0.1346871639	 0.124964
H	-0.5595947434	 1.9429687081	-1.0253477784	 0.130447
H	-0.9096864507	 1.964440495	 0.7046068305	 0.139261
H	-0.9147552602	-0.3884208297	-0.1801090716	 0.108603
H	 1.0939746644	-0.9508505569	-1.7427259984	 0.091902
H	 3.3344875544	-0.5420972797	-0.4513245482	 0.120211
H	 2.6148589398	 1.0649596193	-0.6683994476	 0.108545
H	 2.8074328187	-0.4915231078	 1.8944672881	 0.129635
H	 2.0711883259	 1.1138528991	 1.7169544557	 0.11821
128.7949	156.4979	179.7905	256.1407	272.9084	342.4058	490.4988	510.0434	523.9587	554.6553	605.1184	729.6915	753.8861	815.0759	836.6059	881.48	924.8529	946.1888	961.9868	981.2204	1035.6409	1077.0225	1131.4501	1134.9517	1159.1373	1172.8537	1228.7972	1234.9039	1266.0107	1274.178	1307.8971	1329.2344	1390.1823	1416.5919	1474.881	1492.7779	1500.5723	1504.4305	2360.5824	3041.5619	3074.5364	3084.8352	3093.572	3103.4626	3122.5548	3123.8619	3140.3561	3142.2969
CC1C2CCC1(O2)C#N	C[C@H]1[C@H]2CC[C@@]1(O2)C#N	
InChI=1S/C7H9NO/c1-5-6-2-3-7(5,4-8)9-6/h5-6H,2-3H2,1H3	InChI=1S/C7H9NO/c1-5-6-2-3-7(5,4-8)9-6/h5-6H,2-3H2,1H3/t5-,6+,7+/m0/s1
