17
gdb 105948	4.77572	1.2389	1.22364	3.0205	70.66	-0.2415	0.0657	0.3072	1042.7775	0.136393	-421.729417	-421.7223	-421.721356	-421.761177	28.048	
O	 0.5357371724	 0.1607407715	-0.9013011576	-0.418831
C	-0.1436892034	 0.4352216877	 0.3162883048	-0.235475
C	-1.4867662914	-0.2050736407	 0.2380294076	 0.370803
C	-2.4965579702	-0.2742941526	-0.8826536949	-0.145979
C	-1.9197004678	-1.559127308	-0.2713777938	-0.145981
C	-2.9782223113	-1.7565824204	 0.8486955234	 0.078227
O	-4.2743373654	-1.4264111269	 0.3015441791	-0.292957
C	-3.7155027679	-0.1144621918	 0.0674235508	 0.078228
C	-2.6877197186	-0.2695039275	 1.2359026551	-0.195168
H	 1.4045174651	 0.5706388931	-0.8581406992	 0.290695
H	 0.411703507	 0.036637452	 1.182362781	 0.089467
H	-0.2549442681	 1.5213410101	 0.4756400606	 0.089467
H	-2.3826822038	-0.0215220109	-1.9270620394	 0.099258
H	-1.3665370416	-2.2847241112	-0.8503156909	 0.099258
H	-2.9719781188	-2.6307603348	 1.4975018883	 0.080457
H	-4.4548700805	 0.6720148931	-0.0738719333	 0.080458
H	-2.7822213656	 0.1609640174	 2.2298938385	 0.078073
83.7219	153.5284	204.3451	265.3442	384.2427	545.7089	574.3103	648.9102	752.1155	766.6297	802.6623	814.3322	838.0757	860.4132	885.701	892.3619	926.2267	927.7352	997.3634	1021.491	1033.9456	1061.7222	1075.6978	1105.5858	1113.2817	1162.8719	1167.5676	1197.8349	1205.7898	1244.4005	1244.6229	1266.8215	1272.9059	1310.2205	1431.4633	1493.6571	1520.1803	2948.7964	2970.0359	3134.1377	3134.7113	3151.6085	3217.9292	3226.4747	3831.9756
OCC12C3C1C1OC3C21	OC[C@@]12[C@H]3[C@@H]1[C@@H]1O[C@H]3[C@H]21	
InChI=1S/C7H8O2/c8-1-7-2-3(7)6-4(7)5(2)9-6/h2-6,8H,1H2	InChI=1S/C7H8O2/c8-1-7-2-3(7)6-4(7)5(2)9-6/h2-6,8H,1H2/t2-,3+,4-,5+,6-,7+
