17
gdb 11703	5.73541	1.37796	1.25686	1.7027	76.4	-0.2309	0.0226	0.2536	998.5569	0.141179	-326.650494	-326.642721	-326.641776	-326.682121	30.031	
C	-0.2677547114	 1.5159910665	 0.0558169845	-0.409076
C	 0.1036888895	 0.045300921	-0.0078953808	 0.08999
C	 1.2158813444	-0.4502817138	-0.9732191073	-0.334951
C	 1.9144469867	-1.0323283747	 0.2626521696	 0.181124
C	 2.148334285	 0.0419740571	 1.2573922784	-0.26979
N	 0.7992235104	-0.5365422654	 1.206434961	-0.176974
C	 2.5014982913	-2.3281263817	 0.3389185854	 0.194495
C	 3.0091024237	-3.4189304678	 0.363028147	-0.39676
H	 0.6058021382	 2.1675179031	 0.1520954708	 0.116946
H	-0.7984995651	 1.8091975212	-0.8562803138	 0.121871
H	-0.9289680754	 1.7046850525	 0.9078292574	 0.131044
H	-0.8049423123	-0.5468761348	-0.1448549561	 0.092813
H	 0.870982452	-1.2101399497	-1.6749464982	 0.121834
H	 1.788980919	 0.3054713073	-1.5188765792	 0.104089
H	 2.6810362893	-0.2313597747	 2.1623079774	 0.131932
H	 2.3303489614	 1.0571221483	 0.9121499295	 0.111992
H	 3.4540315633	-4.3823813745	 0.3964798144	 0.18942
115.4949	143.7201	212.0904	252.9267	289.8266	410.317	446.0732	521.5114	547.6858	585.3551	601.1057	655.4001	694.3905	774.9795	815.2291	857.8722	898.4753	956.9495	970.9479	1071.9827	1095.3879	1116.7269	1129.6089	1134.908	1200.8431	1229.3367	1256.4036	1309.0917	1348.1399	1387.3468	1410.2852	1481.2506	1491.2341	1495.9936	1505.7569	2233.0347	3036.455	3056.3179	3064.3727	3103.6659	3107.776	3114.5973	3131.0744	3205.152	3503.4139
CC1CC2(CN12)C#C	C[C@H]1C[C@]2(CN12)C#C	
InChI=1S/C7H9N/c1-3-7-4-6(2)8(7)5-7/h1,6H,4-5H2,2H3	InChI=1S/C7H9N/c1-3-7-4-6(2)8(7)5-7/h1,6H,4-5H2,2H3/t6-,7-,8?/m0/s1
