21
gdb 107877	2.34008	1.60793	1.14146	1.7651	82.53	-0.2501	0.0619	0.312	1151.068	0.182063	-387.018106	-387.009448	-387.008504	-387.051506	33.655	
C	-0.0898827747	 1.5689858098	-0.0095727957	-0.376615
C	 0.0740976765	 0.0440610237	-0.0178277187	-0.328588
C	 0.7558429924	-0.4705031009	-1.2652708607	 0.364614
C	 2.1892456739	-0.1189679976	-1.7301250763	-0.310614
C	 1.6705020827	-1.0846891496	-2.8050983852	-0.04362
C	 0.9037971477	-1.9661961049	-1.7610399384	-0.157566
C	-0.3768436614	-1.9083315585	-2.621118992	 0.146388
O	-1.6503760591	-2.1235321081	-2.0696919593	-0.445756
C	 0.2206484226	-0.4919848711	-2.758105884	-0.144085
H	 0.8808734036	 2.0685931165	-0.088602068	 0.123671
H	-0.7058887422	 1.90464431	-0.8502572551	 0.120757
H	-0.5668300506	 1.9092504715	 0.9143172107	 0.114826
H	 0.6646995645	-0.2668269078	 0.8544789887	 0.105806
H	-0.9098174838	-0.4264941385	 0.1138743995	 0.083363
H	 2.3701511657	 0.9147887047	-2.0433229762	 0.090641
H	 3.0095639953	-0.4766553945	-1.0978579459	 0.088586
H	 2.1694343429	-1.4570565161	-3.7001797763	 0.072201
H	 1.3253363658	-2.7945205435	-1.1876343624	 0.067249
H	-0.3459885567	-2.5128050059	-3.5336780474	 0.080762
H	-1.7340507438	-1.5977585452	-1.2688673161	 0.280281
H	-0.1386572413	 0.3659386858	-3.3300424711	 0.067698
54.2133	149.7951	185.5096	212.669	230.2156	296.4205	341.2199	411.9747	459.3354	535.4468	633.5799	721.1946	762.0412	783.9649	867.0877	868.474	873.8605	916.2256	923.9244	962.2821	982.3965	1006.4385	1047.5846	1062.8558	1065.6809	1089.3397	1120.3429	1139.5225	1145.2223	1156.6698	1183.5549	1221.4996	1232.8774	1243.5058	1274.9399	1286.1076	1314.9835	1325.6882	1368.7356	1409.9487	1451.026	1477.344	1499.046	1506.8563	1513.1748	3007.3262	3028.8716	3036.0712	3037.6845	3059.7408	3084.7321	3091.6378	3094.3743	3106.5675	3109.5312	3112.8866	3832.0268
CCC12CC3C1C(O)C23	CC[C@@]12C[C@H]3[C@@H]1[C@@H](O)[C@@H]23	
InChI=1S/C8H12O/c1-2-8-3-4-5(8)7(9)6(4)8/h4-7,9H,2-3H2,1H3	InChI=1S/C8H12O/c1-2-8-3-4-5(8)7(9)6(4)8/h4-7,9H,2-3H2,1H3/t4-,5+,6-,7+,8+
