16
gdb 13350	5.64932	1.16067	1.02298	3.7102	61.93	-0.251	-0.0216	0.2294	1114.5898	0.129513	-420.882252	-420.874234	-420.873289	-420.91654	27.064	
O	-0.6675553591	 0.5893324965	 0.540422911	-0.237589
C	 0.0059358855	 1.0017225066	-0.3661894482	 0.17234
C	 1.266968992	 1.8215459211	-0.1931544893	-0.30589
C	 1.3544383936	 2.9614794736	-1.1939242118	 0.217596
O	 0.2934656613	 3.8772176881	-0.98567624	-0.265779
C	 0.7975991377	 5.192551643	-1.212235547	-0.088294
C	 2.2842179875	 4.9659849719	-1.5535544283	-0.114031
O	 2.5490719686	 3.6785473355	-1.0152451339	-0.247396
H	-0.25746078	 0.7741494037	-1.4254959881	 0.075076
H	 1.3224306542	 2.2060974259	 0.8272437837	 0.136509
H	 2.1246576885	 1.1572198072	-0.3671706961	 0.136367
H	 1.3004896308	 2.5766798588	-2.2319052012	 0.064282
H	 0.2516969421	 5.6767217777	-2.0297642059	 0.110548
H	 0.665355558	 5.7844115495	-0.2998176477	 0.11693
H	 2.4489672272	 4.9745979586	-2.6410831818	 0.104126
H	 2.960504292	 5.6833575523	-1.0851370256	 0.125204
38.5	63.9476	81.3303	149.9599	226.9694	368.1352	415.8234	568.7228	689.8568	706.8648	766.7984	877.596	896.748	951.5962	982.0595	1044.346	1064.5191	1087.3158	1109.1856	1154.5114	1175.3268	1211.7216	1225.0475	1244.5649	1278.9056	1343.4482	1377.3363	1398.5749	1434.6567	1437.9345	1446.0086	1515.1408	1532.8473	1841.7899	2858.9947	2903.6007	2997.9893	3032.3902	3033.4874	3072.1209	3116.375	3126.4239
O=CCC1OCCO1	O=CCC1OCCO1	
InChI=1S/C5H8O3/c6-2-1-5-7-3-4-8-5/h2,5H,1,3-4H2	InChI=1S/C5H8O3/c6-2-1-5-7-3-4-8-5/h2,5H,1,3-4H2
