18
gdb 37642	3.20632	2.35012	2.08669	1.5715	76.	-0.2053	0.0771	0.2824	769.3957	0.152267	-364.736903	-364.731657	-364.730713	-364.76606	24.201	
C	-0.0593844702	 1.5598422698	 0.0553621008	-0.232508
C	 1.4962164323	 1.5041157803	-0.0070004038	-0.064284
C	 2.0413593075	 1.2111524105	 1.3861190634	-0.057644
C	 2.6171024456	-0.1773109772	 1.5188928521	-0.116675
C	 1.2496311577	 0.133793579	 2.1006754003	-0.041519
N	 0.5410406543	-0.7250719133	 1.1166450473	-0.153721
C	-0.0390187978	 0.0309888391	-0.0788528971	 0.010132
C	 1.3970764578	 0.0819969039	-0.6840978924	-0.065202
C	 1.8670523903	-0.9129400281	 0.4002058168	-0.004126
H	-0.510354219	 2.004506132	 0.9481066131	 0.095263
H	-0.5004771341	 2.0098805623	-0.8389712206	 0.098017
H	 2.0287884225	 2.2979542899	-0.5326864609	 0.065526
H	 2.4512073027	 2.0091608459	 1.9956799955	 0.084641
H	 3.5482795707	-0.43798772	 2.0024831142	 0.091318
H	 0.9145192965	 0.2081517933	 3.1289262668	 0.088486
H	-0.8896857057	-0.4985212974	-0.5111825172	 0.068735
H	 1.6452491897	-0.0192049455	-1.7408649091	 0.062902
H	 2.1378096094	-1.9354820645	 0.1319672707	 0.070658
345.0726	406.9577	561.2537	611.1907	670.6161	678.9164	734.721	777.508	801.2888	822.8195	824.0225	863.8374	880.6682	917.8408	945.5432	947.16	955.6008	970.0016	995.0195	996.4045	1029.2791	1049.3753	1074.2778	1087.8578	1101.5228	1138.1349	1144.0569	1185.4842	1204.4652	1221.2374	1231.8398	1255.4175	1265.4337	1270.5126	1285.7226	1314.4367	1329.2961	1383.257	1481.2324	3044.2097	3086.2452	3090.751	3092.6482	3100.077	3111.2703	3166.2155	3176.4552	3210.3514
C1C2C3C4C3N3C1C2C43	C1[C@H]2[C@@H]3[C@H]4[C@@H]3N3[C@@H]1[C@@H]2[C@@H]43	
InChI=1S/C8H9N/c1-2-4-3(1)9-7(4)6-5(2)8(6)9/h2-8H,1H2	InChI=1S/C8H9N/c1-2-4-3(1)9-7(4)6-5(2)8(6)9/h2-8H,1H2/t2-,3+,4-,5-,6-,7+,8-/m1/s1
