23
gdb 61586	2.98942	1.00916	0.85028	1.0829	86.46	-0.2372	0.0858	0.3231	1467.4367	0.204339	-388.255362	-388.245584	-388.24464	-388.290721	36.857	
C	-0.0071665656	 1.5071926107	-0.3037073679	-0.396663
C	 0.084546836	 0.0027202319	-0.0304596195	 0.112307
O	 0.6831419274	-0.7055953723	-1.1151669089	-0.263217
C	-0.1351209022	-0.9029202321	-2.2244888693	 0.156237
C	-0.0454012148	 0.0260835468	-3.4109522936	-0.283687
C	 0.5440187654	-1.3699037119	-3.4703775154	-0.298917
C	 0.9014470134	-0.2896733341	 1.2150700598	 0.008017
C	 1.5157574703	-1.6423843975	 1.4524418652	-0.275247
C	 2.3979263732	-0.4555982193	 1.1434121577	-0.255069
H	 0.9911766056	 1.9229339133	-0.4703978219	 0.122009
H	-0.6249318027	 1.7154183237	-1.1806381316	 0.120581
H	-0.4542780685	 2.0194775806	 0.5546940782	 0.110553
H	-0.9351534911	-0.3918423234	 0.1204076351	 0.06464
H	-1.1122478303	-1.3241790298	-1.9840069896	 0.08303
H	-0.9456725018	 0.2412729244	-3.9768012588	 0.109896
H	 0.6551203827	 0.849371439	-3.3349827901	 0.119895
H	 1.6241966832	-1.4505194803	-3.4261628861	 0.124689
H	 0.0555674013	-2.1240552017	-4.0768733487	 0.113488
H	 0.517153944	 0.2251246259	 2.0915259946	 0.078408
H	 1.5110946046	-2.0378647589	 2.462308215	 0.102383
H	 1.3990077224	-2.3820301553	 0.6694783776	 0.121205
H	 2.8538162529	-0.4268360332	 0.1610444053	 0.122818
H	 3.0013400346	-0.0335627465	 1.9395023528	 0.102642
44.9904	82.9499	99.856	144.5137	218.8741	242.4862	282.7364	341.7006	389.4097	445.9116	501.7236	564.872	756.833	758.9024	792.0483	810.9361	822.9981	834.0367	891.0676	914.9471	960.4028	966.9629	999.9152	1044.2482	1059.9563	1068.6635	1071.4549	1083.4204	1090.4805	1121.6159	1127.0649	1137.933	1180.2945	1195.2297	1202.8848	1205.7594	1234.7914	1245.085	1348.6148	1361.7479	1399.9601	1407.0416	1419.8422	1453.3666	1455.4513	1490.2786	1495.4137	1498.0655	1504.027	2950.3843	3040.0557	3089.5583	3109.1539	3125.4148	3134.4082	3136.5937	3138.1931	3141.1077	3145.4398	3220.5425	3221.6892	3234.6655	3235.3304
CC(OC1CC1)C1CC1	C[C@@H](OC1CC1)C1CC1	
InChI=1S/C8H14O/c1-6(7-2-3-7)9-8-4-5-8/h6-8H,2-5H2,1H3	InChI=1S/C8H14O/c1-6(7-2-3-7)9-8-4-5-8/h6-8H,2-5H2,1H3/t6-/m1/s1
