17
gdb 7788	3.22904	1.92457	1.27038	5.1723	65.21	-0.2489	0.0582	0.3071	951.0784	0.143936	-401.060381	-401.052734	-401.05179	-401.092533	28.342	
C	 0.0089389379	 1.5066772349	 0.0818401058	-0.401405
C	 0.029563588	-0.0076776138	-0.0452955448	 0.146995
C	 0.7702220158	-0.5186438163	-1.2748316495	-0.216478
C	 0.7366938469	-2.0434470902	-1.2713579778	-0.16366
N	 1.0598891128	-2.5213150781	 0.0623430684	-0.359505
C	 1.071272183	-1.800968996	 1.2277038401	 0.459228
O	 1.4329631465	-2.2586008792	 2.2835647486	-0.395042
O	 0.6634013937	-0.505699387	 1.1495309844	-0.255918
H	 1.0281349988	 1.9046359657	 0.0889161344	 0.129729
H	-0.5360594822	 1.9518329291	-0.755973273	 0.117128
H	-0.4804624259	 1.8016755412	 1.0132204404	 0.137102
H	-1.0026302583	-0.3890118575	-0.0620187528	 0.087934
H	 0.3057612591	-0.1338295218	-2.1873142153	 0.111365
H	 1.8042845109	-0.1573601975	-1.2413723517	 0.11957
H	-0.2592081933	-2.3948287339	-1.5801685253	 0.109777
H	 1.4581932644	-2.4506817749	-1.9885026018	 0.115466
H	 1.3583350117	-3.4745595148	 0.1875437199	 0.257713
86.1622	115.2685	219.9524	232.9843	283.6135	442.1331	452.8391	478.4502	519.0731	560.8229	680.8618	761.7024	809.4377	876.1866	935.318	959.418	979.7805	1020.2668	1100.2921	1125.0919	1160.0639	1177.4518	1233.2241	1261.6108	1306.9322	1343.377	1377.49	1405.4958	1413.0915	1414.8197	1471.6108	1483.9027	1487.4826	1499.4571	1531.7385	1842.7119	2987.4135	2993.2622	3042.6344	3045.8014	3057.6388	3101.2492	3119.2963	3128.7691	3654.5808
CC1CCNC(=O)O1	C[C@H]1CCNC(=O)O1	
InChI=1S/C5H9NO2/c1-4-2-3-6-5(7)8-4/h4H,2-3H2,1H3,(H,6,7)	InChI=1S/C5H9NO2/c1-4-2-3-6-5(7)8-4/h4H,2-3H2,1H3,(H,6,7)/t4-/m0/s1
