20
gdb 93218	2.77696	1.33539	0.93448	4.9954	87.26	-0.2011	-0.0248	0.1763	1276.3075	0.171385	-403.193702	-403.184505	-403.18356	-403.227553	33.936	
C	-0.0110313525	 1.4513138217	-0.1958693459	-0.334439
N	 0.0090611626	 0.1287631557	 0.3995325563	-0.056379
C	-1.2421878012	-0.6205254117	 0.3410786932	-0.169441
C	-1.1730524568	-1.8569125768	 1.2319116024	-0.329471
C	 0.0732767352	-2.7023895877	 0.9561355033	 0.308865
O	 0.0741516683	-3.9091534006	 1.1399010948	-0.349917
C	 1.2588113248	-1.9493124864	 0.5591973642	 0.108268
C	 2.5690516818	-2.6823291325	 0.464564348	-0.476574
C	 1.1604595783	-0.6077574668	 0.3531548023	-0.030449
H	 0.9575674255	 1.9362169094	-0.0538783519	 0.136435
H	-0.230745289	 1.423405496	-1.2752129805	 0.121261
H	-0.7751387311	 2.0660962294	 0.2900040801	 0.132464
H	-2.0597069323	 0.039363828	 0.6484393995	 0.111193
H	-1.4385704282	-0.9228630452	-0.7033673778	 0.104006
H	-1.1319764878	-1.5507610822	 2.2862560153	 0.12571
H	-2.0618606633	-2.4790966151	 1.1061277692	 0.124513
H	 2.5271684602	-3.4658791637	-0.2997946792	 0.133366
H	 3.3896059754	-2.0031755875	 0.2138803328	 0.102355
H	 2.8113091287	-3.186816296	 1.4064019362	 0.131369
H	 2.0540435712	-0.0258482981	 0.1386390678	 0.106866
88.2829	130.3253	145.5364	186.0903	209.1351	265.0462	308.5085	341.0754	400.462	419.6155	489.7501	529.6636	602.7494	699.3914	762.8231	806.9803	917.8854	937.1763	1005.8904	1024.4191	1064.531	1073.9398	1098.5481	1110.0699	1147.5575	1184.5043	1224.2458	1243.869	1309.5323	1348.5704	1369.8604	1412.3997	1416.3835	1431.46	1458.1335	1464.1628	1470.2446	1483.0669	1495.2634	1502.3247	1525.4094	1678.412	1748.3472	2946.5453	2978.0721	3024.961	3029.4203	3068.3409	3072.0638	3082.7678	3105.3217	3112.2976	3122.6274	3155.092
CN1CCC(=O)C(C)=C1	CN1CCC(=O)C(=C1)C	
InChI=1S/C7H11NO/c1-6-5-8(2)4-3-7(6)9/h5H,3-4H2,1-2H3	InChI=1S/C7H11NO/c1-6-5-8(2)4-3-7(6)9/h5H,3-4H2,1-2H3
