16
gdb 73937	2.94355	1.30752	0.92069	2.0088	80.86	-0.2605	-0.0863	0.1742	1203.4314	0.124037	-400.817899	-400.809219	-400.808275	-400.851888	30.733	
C	 0.0536587552	 1.5401237805	 0.0272647306	-0.511563
C	-0.0184877139	 0.0533409813	 0.0151244071	 0.116074
C	-1.093422456	-0.7564345437	-0.0726477155	 0.100813
C	-0.7523487982	-2.2372681711	-0.0524961085	-0.3273
C	 0.7815146997	-2.2591457904	 0.0675584013	-0.346844
C	 1.210178493	-0.788813611	 0.1076638823	 0.357349
O	 2.338087134	-0.3664069513	 0.1979440411	-0.313789
C	-2.4395516019	-0.3119418013	-0.1761059744	 0.224369
N	-3.5433325765	 0.0304369645	-0.2610087959	-0.330499
H	 0.6785374274	 1.8925792905	-0.8005180137	 0.155619
H	-0.9334418203	 2.0002378008	-0.0480496648	 0.147768
H	 0.5419124925	 1.8849811645	 0.9451875662	 0.155621
H	-1.2516811427	-2.7344325443	 0.7856983077	 0.13983
H	-1.1147486519	-2.7266947483	-0.9625494394	 0.13983
H	 1.1313692988	-2.7623108735	 0.9733198455	 0.146362
H	 1.2684840808	-2.7545296173	-0.7770965095	 0.146361
77.8286	99.1722	110.6297	138.9903	241.2963	262.3848	363.7536	451.5326	488.1758	587.5723	588.918	619.9182	633.9332	696.7581	835.2824	872.7246	997.1576	1003.9267	1046.6368	1062.5325	1103.3742	1149.6947	1158.343	1231.1003	1265.6837	1314.086	1336.9092	1414.6499	1450.3095	1470.7341	1473.4848	1487.8548	1682.8356	1813.4017	2332.6826	3040.7089	3049.1619	3069.8622	3079.3389	3094.5017	3111.1977	3136.9415
CC1=C(CCC1=O)C#N	CC1=C(CCC1=O)C#N	
InChI=1S/C7H7NO/c1-5-6(4-8)2-3-7(5)9/h2-3H2,1H3	InChI=1S/C7H7NO/c1-5-6(4-8)2-3-7(5)9/h2-3H2,1H3
