17
gdb 106655	2.90651	1.29163	1.05876	3.8368	70.77	-0.2371	-0.0131	0.2241	1160.2627	0.13288	-458.928614	-458.91948	-458.918536	-458.962653	33.142	
C	 0.0812581242	 1.2677167279	-0.2419508341	-0.258479
O	-0.0226732937	-0.0674621465	 0.2336665251	-0.276411
C	-1.2894238986	-0.5784381125	 0.1701804091	 0.396766
C	-1.9058875923	-1.1126659385	-1.0837586842	-0.41607
C	-1.652783376	-2.0822521394	 0.0859613509	 0.197844
O	-0.8285982632	-3.1705659462	-0.0402533961	-0.441646
C	-2.6888785999	-1.8549573741	 1.1545335338	 0.368063
O	-3.3572949549	-2.5815562866	 1.8315601594	-0.318375
C	-2.3900571233	-0.3260642765	 1.215028926	-0.427987
H	 1.1332741023	 1.547560009	-0.1625452046	 0.137172
H	-0.2383445342	 1.3437021619	-1.2900029072	 0.116155
H	-0.5212166102	 1.9592052101	 0.3626935288	 0.118666
H	-2.9088941744	-0.8405683966	-1.4017129661	 0.119264
H	-1.1940258574	-1.2923995755	-1.8845133865	 0.131228
H	-1.2336364159	-3.8025637992	-0.6444983953	 0.299159
H	-1.9889634966	-0.0692576416	 2.2001512259	 0.138704
H	-3.2012937559	 0.3578235342	 0.9501918952	 0.115944
77.7399	104.6184	149.7583	176.212	197.8063	259.1773	291.9999	357.0111	433.4668	469.3103	525.9873	580.5553	653.7731	674.3196	758.1369	805.885	859.6471	966.3372	982.5289	1009.6376	1048.5798	1068.9438	1113.2581	1128.242	1179.7719	1187.1901	1214.5255	1224.644	1273.3531	1355.0521	1411.221	1452.6261	1477.2991	1487.8533	1504.1537	1514.6919	1884.8181	2998.927	3054.2241	3056.7134	3108.0748	3114.1846	3132.3343	3204.5906	3798.5728
COC12CC1(O)C(=O)C2	CO[C@@]12C[C@]1(O)C(=O)C2	
InChI=1S/C6H8O3/c1-9-5-2-4(7)6(5,8)3-5/h8H,2-3H2,1H3	InChI=1S/C6H8O3/c1-9-5-2-4(7)6(5,8)3-5/h8H,2-3H2,1H3/t5-,6-/m0/s1
