15
gdb 49804	2.50602	1.5707	1.02396	3.6859	67.92	-0.2592	-0.0352	0.2241	1102.3776	0.111905	-457.806551	-457.798523	-457.797579	-457.840466	28.472	
O	-0.3834300099	 0.4477510054	-0.5925442747	-0.237949
C	 0.3124655176	 0.8845836447	 0.2836499559	 0.155652
C	 1.2950474393	 2.0494039326	 0.0732573996	-0.320453
C	 1.0471439983	 2.7970535634	-1.1992381409	-0.0419
C	 1.0719387911	 4.1217223229	-1.2307560203	-0.105976
C	 1.3339126331	 4.9510791186	-0.018024075	-0.110857
O	 1.3271648176	 4.2409205803	 1.2299015881	-0.233365
C	 1.3472034522	 2.9004483918	 1.3396087552	 0.420905
O	 1.3922747534	 2.3969853333	 2.4306548139	-0.327151
H	 0.3230638086	 0.4699538707	 1.3094639571	 0.126997
H	 2.2782899962	 1.5474856222	 0.0404725662	 0.154691
H	 0.8280969031	 2.2038722364	-2.0796015875	 0.128341
H	 0.8988532112	 4.6729361893	-2.1502469874	 0.114494
H	 2.3038428726	 5.4624302506	-0.0926680623	 0.136144
H	 0.5728289557	 5.7335616278	 0.0847982021	 0.14043
35.8199	99.3423	118.8414	208.0434	265.4059	386.634	459.1948	493.8482	540.8551	600.9921	675.7454	757.5488	765.957	832.3562	921.0933	965.7348	995.0332	1026.5037	1033.1136	1082.2227	1133.8524	1164.7962	1226.1197	1239.7931	1260.7018	1297.3588	1390.7421	1416.7235	1431.3899	1503.5729	1752.5616	1821.3085	1837.5903	2961.2476	2970.0873	3012.3011	3054.4472	3175.4117	3206.1292
O=CC1C=CCOC1=O	O=C[C@H]1C=CCOC1=O	
InChI=1S/C6H6O3/c7-4-5-2-1-3-9-6(5)8/h1-2,4-5H,3H2	InChI=1S/C6H6O3/c7-4-5-2-1-3-9-6(5)8/h1-2,4-5H,3H2/t5-/m1/s1
