22
gdb 40180	2.89175	1.47908	1.2567	1.3695	84.96	-0.2159	0.0844	0.3003	1105.172	0.196954	-367.182846	-367.174981	-367.174037	-367.21487	32.302	
C	-0.0133813443	 1.4546405628	-0.0943856642	-0.244761
C	 1.2879093095	 0.7266102041	-0.0239553065	 0.001879
C	 2.1675693074	 0.8610262967	 1.2233780819	-0.234679
C	 1.7826711916	-0.1287738921	 2.3368915688	-0.271905
C	 0.2777403418	-0.1665162519	 2.5187068371	 0.362619
C	-0.3078936247	-0.5853407379	 3.8390584621	-0.333195
C	-0.3848862228	 0.8612448557	 3.409267925	-0.299667
C	-0.4179835676	-0.6370986942	 1.2494138285	-0.217853
N	 0.0082564859	 0.0008845459	 0.0014893765	-0.093846
H	-0.2900361988	 2.0333641697	 0.7847110116	 0.111057
H	-0.3831045098	 1.854270134	-1.0360096273	 0.105886
H	 1.8333116712	 0.5781519133	-0.9537255953	 0.086971
H	 3.2143838093	 0.7105469106	 0.9418142515	 0.098958
H	 2.0971328902	 1.8830582082	 1.6129888512	 0.105002
H	 2.1319400373	-1.1366586318	 2.0731603843	 0.0981
H	 2.2842185602	 0.1454273345	 3.2714743125	 0.090232
H	-1.2240534972	-1.1680147457	 3.8321691119	 0.109689
H	 0.37507956	-0.8440180302	 4.6419467971	 0.108345
H	 0.2451424113	 1.58005345	 3.9237612195	 0.108548
H	-1.3544844855	 1.252217842	 3.1179395668	 0.109778
H	-0.2211380478	-1.7119053345	 1.1307082261	 0.102339
H	-1.5049706274	-0.5210691993	 1.334319951	 0.096502
105.6723	147.7106	264.3524	291.1846	343.2693	367.1241	389.561	459.3778	499.0263	614.9942	715.8237	761.0972	787.5656	793.1001	842.8264	898.1023	908.4078	935.5438	955.7979	963.321	981.4877	1014.3988	1038.2664	1054.934	1067.71	1078.9818	1105.5859	1117.9407	1136.3811	1169.4952	1187.4924	1197.508	1238.6001	1262.2024	1318.2313	1327.8436	1348.9276	1362.2113	1365.1752	1400.3612	1408.6088	1466.4246	1478.7983	1486.8867	1495.9086	1507.4061	1509.2995	3003.2522	3011.6893	3033.8171	3053.8318	3063.9729	3077.2406	3091.5144	3119.0451	3119.9841	3124.1564	3174.7808	3197.0147	3211.4661
C1C2CCC3(CC3)CN12	C1[C@H]2CCC3(CC3)CN12	
InChI=1S/C8H13N/c1-2-8(3-4-8)6-9-5-7(1)9/h7H,1-6H2	InChI=1S/C8H13N/c1-2-8(3-4-8)6-9-5-7(1)9/h7H,1-6H2/t7-,9?/m1/s1
