18
gdb 126664	6.27686	0.74098	0.67105	2.6986	76.2	-0.2266	0.0101	0.2367	1665.818	0.147207	-439.080393	-439.07153	-439.070586	-439.115263	31.41	
C	-0.0222862909	 1.5146467681	 0.0233154635	-0.386606
C	 0.030768257	-0.0141001713	-0.0474015526	-0.189649
C	 0.7431177295	-0.495447589	-1.2995252245	-0.060776
O	 0.739441268	-1.938130429	-1.2723617898	-0.274356
C	 1.315589046	-2.5760426974	-2.279662522	 0.542529
C	 1.4559181749	-3.9168342424	-2.5051616647	-0.404991
C	 2.1525937772	-3.9468523552	-3.735894231	 0.058077
N	 2.4149898005	-2.7560189546	-4.2201708822	-0.166685
O	 1.8679063995	-1.8632179012	-3.2680729208	-0.221471
H	 0.982853437	 1.9495983171	 0.0358861451	 0.123229
H	-0.5562145271	 1.9364504671	-0.8349705909	 0.123229
H	-0.537919453	 1.8429455603	 0.9296393224	 0.12435
H	 0.5482766296	-0.4183444565	 0.8297631021	 0.114681
H	-0.9823209004	-0.4314327176	-0.0360545702	 0.114697
H	 0.237090407	-0.1517146041	-2.2089272805	 0.125999
H	 1.7789634527	-0.1392445367	-1.3365876785	 0.125987
H	 1.1149262734	-4.7290296744	-1.8886496879	 0.120179
H	 2.479232649	-4.8109622832	-4.2986151674	 0.131578
52.0287	62.5578	111.8102	134.8409	235.4563	285.7267	301.3118	342.592	514.0022	632.2035	712.287	731.164	762.8212	765.8897	890.1007	896.2776	916.776	925.179	927.6177	991.1612	1043.3431	1053.9128	1068.4413	1143.839	1186.2034	1227.8195	1268.5442	1317.8179	1321.576	1335.5333	1381.3713	1412.7435	1422.1992	1492.3836	1502.1331	1504.9349	1518.3997	1544.8928	1656.2416	3031.6871	3036.5613	3044.6726	3066.4483	3086.5495	3107.4679	3115.6436	3236.7887	3296.6533
CCCOC1=CC=NO1	CCCOc1ccno1	
InChI=1S/C6H9NO2/c1-2-5-8-6-3-4-7-9-6/h3-4H,2,5H2,1H3	InChI=1S/C6H9NO2/c1-2-5-8-6-3-4-7-9-6/h3-4H,2,5H2,1H3
