21
gdb 95348	2.53905	1.60437	1.37945	1.7622	77.65	-0.2449	0.0787	0.3237	1054.9482	0.184281	-424.215577	-424.207506	-424.206562	-424.247955	31.699	
C	-0.1306105575	 1.5972012324	-0.0479838631	-0.386638
C	-0.0000158543	 0.0689369902	-0.0020956313	 0.005063
C	 0.715822125	-0.4837905383	-1.2410685871	-0.078238
O	 2.0473162934	 0.0048373416	-1.3342949436	-0.263637
C	 2.8955364928	-0.4181660555	-0.2884525426	 0.066339
C	 3.7316949501	 0.7684445815	 0.2089923923	-0.091841
O	 2.8353274438	 0.9700875226	 1.3263028077	-0.293096
C	 2.2626342345	-0.3477743933	 1.1243351477	 0.127958
C	 0.7497747721	-0.4322242465	 1.250740273	-0.256117
H	 0.8501506348	 2.0751911603	-0.0273193135	 0.144028
H	-0.6550864937	 1.9195189279	-0.9541028795	 0.104117
H	-0.6975548154	 1.9602253665	 0.8153328433	 0.108514
H	-1.0078250627	-0.3664520286	 0.009706155	 0.068527
H	 0.7083818501	-1.5871645832	-1.2256292975	 0.080531
H	 0.2203069343	-0.159276246	-2.1610097982	 0.10608
H	 3.4150549697	-1.3469691064	-0.5584129247	 0.069342
H	 4.7432073784	 0.5006211206	 0.5427697621	 0.095592
H	 3.7683584474	 1.6300584147	-0.4630109087	 0.1167
H	 2.7416512097	-1.0634776293	 1.8091132448	 0.06825
H	 0.4398866894	 0.1164115334	 2.1477855007	 0.111788
H	 0.4944962682	-1.4861479446	 1.4216583233	 0.096737
116.9425	141.6272	194.0194	231.1406	322.0311	345.9061	370.7885	394.5954	485.8645	558.504	726.0864	768.989	813.0107	825.537	855.6981	890.0061	931.1699	973.2623	977.1251	1002.4684	1016.4089	1047.1404	1083.0762	1086.3168	1127.2905	1145.6844	1164.9872	1186.0765	1250.9756	1256.7814	1293.1956	1298.4632	1313.483	1351.0262	1357.3329	1373.212	1384.1148	1394.7093	1402.7337	1425.2117	1465.0555	1492.2961	1498.3426	1504.1702	1507.8505	2959.7244	2982.5866	3007.3572	3013.689	3022.401	3030.2099	3038.4548	3067.4062	3080.5606	3096.4468	3097.4667	3142.896
CC1COC2COC2C1	C[C@H]1CO[C@H]2CO[C@H]2C1	
InChI=1S/C7H12O2/c1-5-2-6-7(4-9-6)8-3-5/h5-7H,2-4H2,1H3	InChI=1S/C7H12O2/c1-5-2-6-7(4-9-6)8-3-5/h5-7H,2-4H2,1H3/t5-,6+,7+/m1/s1
