17
gdb 38324	3.93034	1.40841	1.40676	2.2132	72.26	-0.2317	0.0803	0.312	972.344	0.136035	-421.668696	-421.662167	-421.661223	-421.69946	26.999	
C	-0.1030310831	 1.6250257601	 0.0800485095	-0.230658
C	 1.4039407605	 1.2661329757	 0.0840020803	-0.082632
O	 1.1111534176	 0.1917620715	 1.0656844485	-0.318937
C	 0.0407599131	 0.08297514	 0.0356358387	-0.070664
C	 1.1340802336	 0.2325840146	-1.0314994712	 0.579819
C	 1.0411323361	 0.3016421941	-2.5716216294	-0.082639
C	 2.5805358706	 0.1449106043	-2.6454836523	-0.230657
C	 2.0262991713	-0.8715213805	-1.6157977752	-0.070657
O	 0.9241775769	-1.1782276153	-2.5696590698	-0.318939
H	-0.4758907014	 2.020179796	 1.0254021752	 0.111336
H	-0.5161283277	 2.1337328485	-0.7947506008	 0.099604
H	 2.2703353534	 1.8996138983	 0.2741024897	 0.096256
H	-0.7097055751	-0.6949831201	 0.1638464446	 0.105786
H	 0.3658435044	 0.8593577538	-3.2204778217	 0.096256
H	 2.9455628077	-0.2991713729	-3.5719885673	 0.111336
H	 3.2066006496	 0.9638033048	-2.2819412454	 0.099604
H	 2.5177643526	-1.7080217428	-1.1222557733	 0.105786
187.9008	188.0353	215.4102	396.8446	518.3076	531.5683	612.7617	648.822	754.5121	768.9694	820.8782	830.0488	868.5155	878.1413	914.6714	915.3275	973.7336	975.614	1013.753	1027.2698	1055.3973	1076.4941	1094.2255	1121.7042	1130.305	1140.4995	1169.9506	1172.0593	1187.6339	1211.0849	1211.9901	1258.7512	1266.5715	1268.1832	1390.045	1479.7336	1481.5838	3063.8026	3064.0476	3120.1815	3121.1372	3141.4411	3142.2125	3151.0829	3151.2303
C1C2OC1C21C2CC1O2	C1[C@H]2O[C@@H]1[C@]12[C@H]2C[C@@H]1O2	
InChI=1S/C7H8O2/c1-3-7(4(1)8-3)5-2-6(7)9-5/h3-6H,1-2H2	InChI=1S/C7H8O2/c1-3-7(4(1)8-3)5-2-6(7)9-5/h3-6H,1-2H2/t3-,4+,5-,6+,7-/m1/s1
