16
gdb 68435	2.70445	1.6587	1.28717	4.7759	68.44	-0.2733	0.006	0.2794	983.8501	0.124793	-437.866969	-437.859476	-437.858532	-437.898769	29.324	
O	-0.0985268025	 1.3972518723	-0.0098761347	-0.468444
C	-0.043435959	 0.0195631258	 0.0318894495	 0.365118
C	 0.3631391451	-0.8407636612	 1.2794408113	-0.307746
C	-0.3778718662	-1.9130335501	 0.4519139957	 0.100609
C	-1.3567716757	-0.8067901868	-0.0033139126	-0.278564
O	 0.4890892088	-2.0932449558	-0.6985840769	-0.274313
C	 0.7783429219	-0.7361249093	-1.0607919057	-0.097777
C	 0.3615715527	-0.4401026265	-2.4359324753	 0.297889
N	 0.0453947448	-0.1894011081	-3.5184623728	-0.324401
H	 0.7922606515	 1.7589218007	 0.0610722228	 0.291492
H	 1.4225918548	-1.0094182026	 1.4871872447	 0.105459
H	-0.1758134095	-0.5268229468	 2.1740425777	 0.119157
H	-0.6796414644	-2.8854597897	 0.8296721772	 0.101206
H	-2.0487643869	-0.4944720521	 0.7791945733	 0.12036
H	-1.8655876339	-0.9349118069	-0.9599212656	 0.132823
H	 1.8554960186	-0.5403953629	-0.9750992584	 0.11713
124.6023	139.8666	255.2441	307.8358	341.2731	401.1929	454.2487	481.9536	527.8507	583.4404	634.2392	700.2309	824.9246	858.0152	902.5736	923.0348	934.1851	966.8062	995.022	1004.1985	1041.4164	1061.3477	1118.3188	1146.5574	1185.1464	1226.7505	1236.0493	1244.1561	1298.7435	1311.76	1359.3674	1387.3174	1473.3049	1514.436	2359.8295	3018.904	3071.2035	3087.9943	3145.8184	3157.6443	3171.6211	3799.2594
OC12CC(C1)OC2C#N	O[C@@]12C[C@@H](C1)O[C@H]2C#N	
InChI=1S/C6H7NO2/c7-3-5-6(8)1-4(2-6)9-5/h4-5,8H,1-2H2	InChI=1S/C6H7NO2/c7-3-5-6(8)1-4(2-6)9-5/h4-5,8H,1-2H2/t4-,5-,6-/m0/s1
