22
gdb 102992	1.87646	1.33436	1.10857	4.4467	87.48	-0.2706	0.0398	0.3104	1293.0774	0.192763	-367.231158	-367.220629	-367.219685	-367.26628	38.502	
C	 2.7567215039	 0.6420866952	 0.8391491563	-0.390926
C	 1.6035329686	-0.3143228253	 0.5125092674	-0.255836
C	 1.5691489128	-0.7422631506	-0.9538939219	 0.134903
C	 1.4176506145	 0.36547878	-1.8669136595	 0.252898
N	 1.2935243597	 1.2580915702	-2.5939707578	-0.363398
C	 2.4000886192	-1.9207396494	-1.4841424219	-0.047922
C	 3.3581693969	-2.6951626713	-0.6047839141	-0.420734
C	 0.9015798976	-2.0496958308	-1.403253119	-0.066357
C	 0.1830660067	-2.9641026879	-0.4342238596	-0.419446
H	 3.7274666266	 0.1721102514	 0.6528868969	 0.120604
H	 2.7015025506	 1.5485363475	 0.229105144	 0.145269
H	 2.7223638542	 0.9405793279	 1.8910030096	 0.116591
H	 1.6696579199	-1.1996764285	 1.1486849146	 0.102169
H	 0.6478497721	 0.1652484864	 0.7553630549	 0.115745
H	 2.7818272043	-1.7641090801	-2.4890739584	 0.107768
H	 2.9964100174	-2.8230196888	 0.4171495428	 0.121881
H	 3.5242522951	-3.6948322732	-1.0207891251	 0.127645
H	 4.3298375247	-2.193695731	-0.5527420468	 0.131054
H	 0.3928926189	-1.9662702173	-2.3595910358	 0.108567
H	 0.7134731791	-3.09284152	 0.5110803943	 0.121469
H	-0.8172518269	-2.5819801996	-0.2058191999	 0.130501
H	 0.063321884	-3.9577349949	-0.8791171712	 0.127554
85.3487	123.5915	147.9627	162.3955	174.8435	201.2134	216.6449	236.2176	295.8274	310.1483	410.1624	436.9685	539.4036	568.3181	576.3533	657.3553	774.6147	789.5695	812.8072	924.0373	976.4211	1000.5324	1026.7243	1038.9549	1047.9257	1101.1036	1121.0048	1136.1327	1156.945	1189.6026	1248.1979	1291.5234	1314.6007	1362.283	1379.342	1414.6286	1419.4533	1424.8211	1442.4858	1478.117	1492.5698	1496.3015	1499.9701	1503.2739	1505.8772	1516.1557	2339.4236	3039.4231	3040.1543	3042.4446	3043.8315	3093.7351	3096.8085	3098.2404	3112.7692	3119.9933	3123.0256	3133.9196	3144.9198	3155.9687
CCC1(C#N)C(C)C1C	CC[C@@]1(C#N)[C@@H](C)[C@H]1C	
InChI=1S/C8H13N/c1-4-8(5-9)6(2)7(8)3/h6-7H,4H2,1-3H3	InChI=1S/C8H13N/c1-4-8(5-9)6(2)7(8)3/h6-7H,4H2,1-3H3/t6-,7+,8+
