20
gdb 118310	2.6652	0.93066	0.7368	1.9575	81.13	-0.2396	-0.0705	0.1691	1602.0512	0.16771	-440.297892	-440.287275	-440.286331	-440.334386	36.698	
C	 0.0802044029	 1.627317789	 0.0145850387	-0.392219
C	-0.0332521587	 0.1147671311	 0.0178127306	-0.034592
O	 0.8042979031	-0.3863423332	-1.0333719304	-0.258022
C	 0.8451704627	-1.7291926079	-1.1927783064	 0.320275
C	 1.7784029389	-2.0241000554	-2.3462244612	 0.103883
O	 2.1971894672	-3.1177441818	-2.6274744637	-0.240246
N	 0.1736542305	-2.516424567	-0.4651752867	-0.307531
C	 0.2069097674	-3.9645625925	-0.6259249551	-0.133148
C	 1.2844869969	-4.5949532232	 0.2634002895	-0.370564
H	 1.112677263	 1.9424081222	 0.1902842933	 0.129257
H	-0.2476650149	 2.0419875014	-0.9429040712	 0.128824
H	-0.5478298286	 2.0480777269	 0.8053335986	 0.123229
H	 0.289691337	-0.322710177	 0.9689275415	 0.119006
H	-1.0605979714	-0.2239645148	-0.155827136	 0.119268
H	 2.0555200175	-1.1179054478	-2.923504662	 0.106643
H	-0.7759759949	-4.3345375411	-0.313097615	 0.100987
H	 0.3693948258	-4.2700271619	-1.6642308186	 0.120058
H	 2.2809204266	-4.3046731251	-0.0798158949	 0.129318
H	 1.1648467418	-4.2762889532	 1.3030697685	 0.120504
H	 1.2133122174	-5.6862412986	 0.2248529805	 0.115067
58.6681	78.3457	95.4327	130.7822	155.7976	183.9776	217.0106	257.4233	267.6273	352.685	387.6208	440.6186	485.0612	541.1012	728.0753	805.6759	809.4395	842.9675	906.258	955.4289	1022.8084	1058.3566	1070.1578	1119.5399	1155.2319	1169.99	1182.9663	1256.0764	1288.7738	1316.2785	1372.1966	1387.3025	1399.9613	1412.4729	1429.4579	1485.5279	1489.5653	1495.5779	1497.0902	1515.6919	1519.5496	1717.9114	1824.1217	2925.0858	3033.4996	3041.7602	3042.5678	3046.0648	3076.7387	3077.1089	3115.3939	3120.8263	3123.9803	3126.3342
CCOC(C=O)=NCC	CCOC(=NCC)C=O	
InChI=1S/C6H11NO2/c1-3-7-6(5-8)9-4-2/h5H,3-4H2,1-2H3	InChI=1S/C6H11NO2/c1-3-7-6(5-8)9-4-2/h5H,3-4H2,1-2H3
