20
gdb 45437	2.46605	1.64504	1.63102	3.966	77.11	-0.2304	0.0437	0.2741	980.8808	0.17581	-403.216645	-403.209191	-403.208247	-403.248667	29.929	
O	-0.0149020175	-0.0460957804	 0.0044722166	-0.39174
C	-0.0026714189	 1.1693293019	 0.0101510479	 0.390852
N	-1.1187433486	 1.9605540088	 0.0291932757	-0.283156
C	-0.9286097425	 3.410801748	 0.0339881455	-0.008866
C	-0.1034777705	 3.7832496939	 1.2830027147	-0.194882
C	 1.2120938207	 2.9536328416	 1.2622555589	-0.2188
C	 1.2400584946	 2.0602123886	-0.0023400648	-0.112969
C	 1.1777266096	 2.9662043521	-1.2567161193	-0.218798
C	-0.1376664586	 3.7959980065	-1.2331467984	-0.194865
H	-2.0295283218	 1.5294513037	 0.0398431475	 0.245518
H	-1.9085064653	 3.8927995103	 0.0497539923	 0.073827
H	 0.1009491714	 4.8587561159	 1.281320311	 0.09909
H	-0.6879699828	 3.5659346773	 2.1812723868	 0.102941
H	 2.0893225221	 3.6091226437	 1.2532242168	 0.099346
H	 1.2925500316	 2.3307678713	 2.1574194369	 0.113196
H	 2.1219540457	 1.4185433995	-0.0175822407	 0.084737
H	 2.055063636	 3.6215560068	-1.26523396	 0.099342
H	 1.2334256741	 2.3522772288	-2.1599037525	 0.113193
H	-0.7464631141	 3.5879506814	-2.1173559102	 0.102948
H	 0.0670416747	 4.8714303201	-1.2259758848	 0.099087
65.0404	148.6048	268.9803	359.6948	387.0128	395.758	441.5878	540.5235	555.3605	613.4519	771.5385	793.8621	809.3907	810.3016	843.6428	877.5793	883.5941	944.8343	996.937	1010.3543	1052.2	1052.903	1059.7456	1113.2347	1154.1875	1154.6148	1218.5619	1254.6394	1258.1101	1286.4543	1303.5673	1306.6191	1334.3056	1352.4881	1370.3746	1374.7928	1384.0104	1446.8593	1480.1476	1492.154	1499.1144	1515.9115	1811.5652	3040.057	3041.2388	3051.4784	3053.9948	3078.4577	3079.7092	3087.6596	3098.8401	3102.912	3107.6038	3635.0293
O=C1NC2CCC1CC2	O=C1N[C@H]2CC[C@@H]1CC2	
InChI=1S/C7H11NO/c9-7-5-1-3-6(8-7)4-2-5/h5-6H,1-4H2,(H,8,9)	InChI=1S/C7H11NO/c9-7-5-1-3-6(8-7)4-2-5/h5-6H,1-4H2,(H,8,9)/t5-,6+
