15
gdb 24467	3.95332	1.66706	1.1726	5.9683	84.56	-0.193	-0.0324	0.1606	974.6018	0.118156	-379.74297	-379.736926	-379.735982	-379.773133	25.1	
N	-0.0075058635	 1.3392648639	 0.0099686459	-0.299506
C	 1.1383150285	 2.0945084122	 0.0026789466	-0.006681
C	 2.3669398991	 1.4927623856	-0.0129953893	-0.240431
C	 2.4357286862	 0.0853241927	-0.0215235799	 0.293951
N	 3.5023612619	-0.7084440231	-0.0366194562	-0.366013
C	 2.9852856975	-1.9830056434	-0.0385177022	-0.033969
C	 1.6022249834	-2.0458646305	-0.0250689309	-0.326622
C	 1.1843730696	-0.6897750634	-0.0132881161	 0.257052
C	-0.0111581911	-0.0201416928	 0.0024371482	-0.115139
H	-0.8933034374	 1.8191951668	 0.0215220317	 0.271333
H	 0.9907543708	 3.1654586093	 0.0101238144	 0.131556
H	 3.2679358844	 2.0939671476	-0.0186792877	 0.116929
H	 3.6634137647	-2.8286806384	-0.050014979	 0.093246
H	 0.9805411943	-2.9282356452	-0.0237838905	 0.087535
H	-0.9871391285	-0.4907299314	 0.009592245	 0.136761
220.1778	246.8837	416.7451	417.7017	561.0931	571.0721	609.5297	610.7178	634.5581	737.8525	758.4599	771.5159	819.6106	881.7691	888.46	910.4821	927.4872	940.0612	1020.6308	1079.8794	1139.1697	1159.3866	1214.1893	1280.0237	1290.1376	1371.879	1378.0549	1441.3768	1464.1032	1526.1186	1562.199	1621.948	1654.9208	3200.4005	3201.4866	3209.2982	3233.6996	3247.1115	3644.4031
N1C=CC2=NC=CC2=C1	[nH]1ccc2nccc2c1	
InChI=1S/C7H6N2/c1-4-9-7-2-3-8-5-6(1)7/h1-5,8H	InChI=1S/C7H6N2/c1-4-9-7-2-3-8-5-6(1)7/h1-5,8H
