20
gdb 94473	3.82156	0.88991	0.78954	2.0816	85.71	-0.2272	0.0299	0.257	1522.8309	0.170673	-403.134136	-403.125099	-403.124155	-403.168622	33.207	
C	-0.3756475867	 1.3878844713	 0.2405877431	-0.402317
C	 0.0668783484	-0.0436520275	-0.0368939077	-0.150753
C	 1.4057217134	-0.2751159001	-0.7780837541	-0.089074
O	 1.9407731181	-0.9880534712	 0.3770607992	-0.27268
C	 0.7677932529	-0.7763069667	 1.090400071	 0.461703
N	 0.4637562904	-1.0901320293	 2.2628743027	-0.334212
C	 1.4050255666	-1.7838721313	 3.081728106	 0.04536
C	 1.36835228	-1.487734515	 4.5637289356	-0.270086
C	 0.8467658373	-2.8023096567	 4.0497754894	-0.269059
H	 0.4497757285	 1.9854472969	 0.6403651241	 0.124747
H	-0.7389022198	 1.8708778151	-0.6721651562	 0.118677
H	-1.1834294945	 1.3974146378	 0.9775545028	 0.141135
H	-0.7575119156	-0.6272941605	-0.4574794569	 0.105739
H	 1.3767979902	-0.9210602143	-1.6591304098	 0.117955
H	 1.9916679347	 0.6248732727	-0.9868858914	 0.116462
H	 2.3775993622	-2.0002449441	 2.6462927427	 0.09797
H	 2.3105915429	-1.4722608598	 5.0999556123	 0.110051
H	 0.6421831168	-0.7526475802	 4.8897921424	 0.118865
H	-0.2272902587	-2.9439768016	 4.0328617001	 0.119254
H	 1.4260879528	-3.7012872655	 4.2281284847	 0.110263
62.0648	104.624	123.2181	134.0814	216.7878	235.271	336.2303	356.2131	460.2746	507.4904	670.2291	733.8441	773.8667	823.4275	833.5496	862.9263	890.7382	923.9609	936.975	973.2393	1000.5911	1051.8983	1063.604	1070.6512	1119.2605	1127.9503	1130.8737	1155.2225	1182.0426	1192.5541	1199.0528	1227.631	1256.3466	1328.5957	1369.0227	1401.8656	1411.9601	1457.6688	1494.267	1494.9891	1496.8258	1517.9935	1838.2432	3038.058	3053.2779	3065.593	3107.4482	3112.5662	3119.6494	3129.418	3138.0834	3143.2227	3223.5378	3237.9492
CC1COC1=NC1CC1	C[C@H]1COC1=NC1CC1	
InChI=1S/C7H11NO/c1-5-4-9-7(5)8-6-2-3-6/h5-6H,2-4H2,1H3	InChI=1S/C7H11NO/c1-5-4-9-7(5)8-6-2-3-6/h5-6H,2-4H2,1H3/t5-/m0/s1
