19
gdb 113116	2.31049	1.16445	0.88825	1.1828	89.94	-0.2344	0.0301	0.2645	1379.9159	0.155515	-348.678196	-348.66814	-348.667196	-348.713072	37.531	
C	 0.2038327313	 1.5180296894	 0.1670315416	-0.376969
C	-0.2144045865	 0.0787723186	-0.1579467387	-0.207252
C	 0.5740341029	-0.4961754948	-1.3138312624	-0.020406
C	 1.9068415715	-1.137542313	-1.1116154545	-0.310878
C	 0.7115005615	-2.0222196762	-1.5114618986	-0.027733
C	 0.1636681977	-2.9066025767	-0.51417189	 0.273576
C	-0.2940098541	-3.6476640005	 0.314820885	-0.468404
C	 0.6745413201	-2.5129485814	-2.8663031337	 0.257443
C	 0.647871814	-2.9047300306	-4.0026736424	-0.448089
H	 1.2623596896	 1.5697623271	 0.4426294038	 0.119025
H	 0.0524689601	 2.1803030133	-0.6923145528	 0.116678
H	-0.3814424174	 1.91615189	 1.001372438	 0.115734
H	-0.0852630441	-0.557575231	 0.7235093277	 0.112805
H	-1.2834785184	 0.0497141145	-0.4018164554	 0.108057
H	 0.4493065129	 0.0313234019	-2.2555914506	 0.105634
H	 2.6799290343	-1.0102875192	-1.8597820282	 0.132256
H	 2.2618717177	-1.2665973422	-0.0950064394	 0.130803
H	-0.6989945137	-4.3084826067	 1.0404951167	 0.194228
H	 0.619645371	-3.2610944026	-5.0023273861	 0.193493
67.3077	115.8043	126.8536	133.8325	199.4084	238.11	254.4263	348.1695	384.0982	456.7327	488.3768	568.6898	576.0609	581.0965	606.2608	654.01	655.9936	662.4614	771.6586	801.2894	867.8449	930.0111	949.499	970.6039	1053.252	1072.6794	1082.4715	1120.8785	1197.5844	1242.6019	1276.1677	1300.3804	1347.0884	1406.9434	1419.4346	1477.2041	1489.5815	1498.324	1508.087	2236.4808	2238.436	3032.4645	3034.7552	3074.9191	3103.264	3107.43	3141.2458	3150.2413	3236.2195	3502.6897	3503.6556
CCC1CC1(C#C)C#C	CC[C@H]1CC1(C#C)C#C	
InChI=1S/C9H10/c1-4-8-7-9(8,5-2)6-3/h2-3,8H,4,7H2,1H3	InChI=1S/C9H10/c1-4-8-7-9(8,5-2)6-3/h2-3,8H,4,7H2,1H3/t8-/m0/s1
