20
gdb 6365	4.6756	0.94794	0.89296	2.8583	71.86	-0.2647	-0.0243	0.2404	1367.0193	0.174023	-386.167905	-386.158059	-386.157115	-386.2034	34.934	
C	 0.2299247679	 1.6895454657	 0.044092316	-0.390845
C	 0.021604689	 0.1692669684	 0.0138986947	 0.051761
C	 0.6146820791	-0.4476394417	-1.2584982125	-0.396994
C	 0.6120928171	-0.5006453947	 1.2649320855	-0.299801
C	-0.1134809957	-0.1820691044	 2.5564743942	 0.354662
O	-1.26420982	 0.2033371811	 2.5983222857	-0.325713
C	 0.6400166477	-0.3815600658	 3.8658836104	-0.128437
O	-0.1859437765	-0.1679593528	 4.9696628739	-0.420006
H	 1.2980360676	 1.9400679202	 0.0447850049	 0.107706
H	-0.2184692063	 2.1606526783	-0.836278775	 0.115872
H	-0.2275210524	 2.1377344736	 0.9302629352	 0.128919
H	-1.0572359714	-0.0237714334	 0.027996839	 0.09929
H	 1.6997408686	-0.2945327088	-1.3042371396	 0.112041
H	 0.4279195253	-1.5257753781	-1.3078950072	 0.11088
H	 0.1793832026	 0.0091088586	-2.1529522172	 0.116278
H	 0.5713935987	-1.5956624149	 1.1609059289	 0.130779
H	 1.6777693245	-0.2597123341	 1.3794914967	 0.112698
H	 1.0677259075	-1.3973489011	 3.8773211651	 0.113865
H	 1.5002455847	 0.3113626871	 3.859924917	 0.113518
H	-1.0301844377	 0.1300397769	 4.5931758043	 0.293528
29.6804	72.7637	115.8593	156.862	223.1427	250.4765	285.3719	315.2389	364.2175	407.6088	418.0229	437.5734	493.9818	702.9462	794.362	833.7619	879.5292	929.9288	952.8889	970.2583	993.3796	1059.5373	1128.9317	1142.4465	1170.4037	1194.1954	1231.0437	1267.4461	1303.9137	1325.8595	1365.1798	1393.2164	1401.9965	1422.385	1448.203	1453.0325	1487.7239	1491.2348	1493.9158	1505.5161	1511.7078	1790.7076	2957.3227	2988.3728	3005.7282	3023.3204	3027.9537	3037.3319	3052.3275	3088.3968	3096.0987	3101.5302	3115.9125	3676.6133
CC(C)CC(=O)CO	CC(C)CC(=O)CO	
InChI=1S/C6H12O2/c1-5(2)3-6(8)4-7/h5,7H,3-4H2,1-2H3	InChI=1S/C6H12O2/c1-5(2)3-6(8)4-7/h5,7H,3-4H2,1-2H3
