17
gdb 23295	2.675	1.38918	1.19398	1.7049	72.05	-0.2395	0.005	0.2445	1080.7282	0.137141	-455.057909	-455.050049	-455.049105	-455.090283	30.696	
O	-0.1063024683	 1.3602231253	 0.0066558799	-0.398042
N	 0.0509822752	-0.043999819	-0.047892943	-0.311645
C	-1.0705992929	-0.6228119043	-0.1265037284	 0.450044
C	-2.5605416666	-0.3337076303	-0.0127173214	-0.105487
C	-3.1199197973	-0.9226358106	-1.3201059048	-0.241391
C	-2.2781425274	-2.2498244059	-1.3628210979	 0.171486
O	-1.4412230639	-2.3977572183	-2.4860730827	-0.441429
C	-1.5049942861	-2.0717789221	-0.0344344515	-0.136896
N	-2.6308719676	-1.5822052554	 0.8670712859	-0.329678
H	 0.8062688614	 1.6599725884	 0.0798450982	 0.307756
H	-2.9590347063	 0.6010953565	 0.3734571438	 0.09838
H	-4.1938027359	-1.1032996001	-1.2440290535	 0.11668
H	-2.9184580969	-0.3015765202	-2.1962409741	 0.11079
H	-2.9090792003	-3.1393269227	-1.3338024177	 0.102443
H	-0.8020365793	-1.674740738	-2.4813449899	 0.284771
H	-0.8629230455	-2.8811203118	 0.3057685189	 0.092302
H	-2.2133600125	-1.3463137016	 1.7687790281	 0.229916
89.0793	156.7412	214.7925	274.1171	343.5947	380.375	427.2129	447.4841	478.5018	531.9194	678.2705	719.3338	733.8595	836.3323	849.0132	852.9536	912.7445	937.3648	957.6814	993.0559	1039.6837	1067.8191	1103.7133	1129.8274	1144.0286	1167.8008	1191.7537	1218.886	1273.9127	1298.7739	1305.6225	1321.9744	1340.5843	1407.6115	1429.5195	1478.1373	1792.9774	3073.1422	3106.2501	3130.0225	3156.0636	3159.0589	3449.4855	3779.1468	3817.5408
ON=C1C2CC(O)C1N2	ON=C1[C@H]2C[C@@H](O)[C@@H]1N2	
InChI=1S/C5H8N2O2/c8-3-1-2-4(7-9)5(3)6-2/h2-3,5-6,8-9H,1H2	InChI=1S/C5H8N2O2/c8-3-1-2-4(7-9)5(3)6-2/h2-3,5-6,8-9H,1H2/t2-,3-,5+/m1/s1
