18
gdb 81791	2.13688	1.92535	1.22987	2.82	71.64	-0.236	0.0644	0.3004	1046.5615	0.146438	-439.015094	-439.006638	-439.005694	-439.047841	32.497	
C	-0.1569174164	 1.4969399059	 0.0642804089	-0.522202
C	 0.1447998461	 0.0368184275	-0.0052147887	 0.343373
O	-0.6992386564	-0.8842507134	 0.727819995	-0.302289
C	 0.7208794293	-0.9088928409	 0.9710185446	-0.108438
C	 1.3036379443	-1.7993102055	-0.1475128746	 0.055973
O	 0.8688493177	-3.1281408219	-0.1856182777	-0.43345
C	 0.6979728368	-0.7844905565	-1.1612570354	 0.258848
C	 0.1419863226	-0.9990623794	-2.5084177832	-0.30681
N	 1.4384241922	-0.3028868636	-2.3215837272	-0.373679
H	 0.7063359095	 2.0881801602	-0.2584716031	 0.131322
H	-1.0059592672	 1.7543718873	-0.5790753021	 0.134393
H	-0.4097523021	 1.7834524978	 1.0880557644	 0.144285
H	 1.0524066003	-0.76144411	 1.993015036	 0.106474
H	 2.3955088999	-1.7996607647	-0.1908435539	 0.105566
H	-0.0871878209	-3.0967830749	-0.0499182688	 0.289248
H	 0.2197939894	-1.9825700318	-2.9629141676	 0.132965
H	-0.7262796926	-0.4189744272	-2.8111471501	 0.113888
H	 1.3090012475	 0.7012265212	-2.4330048167	 0.230533
105.505	180.4887	184.8645	215.5107	226.0992	257.5153	375.1234	448.654	488.7259	498.0181	584.0172	645.5349	693.5031	749.5056	837.5236	871.2972	901.9664	920.5063	942.3015	979.0145	1001.7899	1033.1452	1040.7921	1096.713	1110.123	1120.8266	1174.1596	1216.5995	1246.9459	1261.7706	1282.2728	1294.9574	1399.048	1416.2222	1432.3529	1469.77	1486.0113	1492.2107	1513.3357	3034.5411	3095.6947	3096.0978	3107.903	3124.6803	3179.8046	3196.1615	3477.7529	3771.4468
CC12OC1C(O)C21CN1	C[C@]12O[C@H]1[C@@H](O)[C@]12CN1	
InChI=1S/C6H9NO2/c1-5-4(9-5)3(8)6(5)2-7-6/h3-4,7-8H,2H2,1H3	InChI=1S/C6H9NO2/c1-5-4(9-5)3(8)6(5)2-7-6/h3-4,7-8H,2H2,1H3/t3-,4+,5+,6+/m1/s1
