18
gdb 5918	3.61841	1.23043	1.18883	2.2335	74.51	-0.2511	-0.032	0.2191	1093.3778	0.149508	-347.783737	-347.774092	-347.773148	-347.818751	34.487	
C	 0.2494998104	 1.5756202461	 0.1056382845	-0.409927
C	 0.0538595478	 0.0435265458	 0.0211079074	 0.034427
C	 0.6965679088	-0.638613828	 1.2501701625	-0.400964
C	-1.465964312	-0.3268457439	-0.0645586896	-0.277133
C	-2.278193731	 0.1849858569	 1.1057585181	 0.138447
O	-2.652790239	-0.5011042654	 2.0231023233	-0.237399
C	 0.6966417047	-0.4532713245	-1.1994634805	 0.347169
C	 1.2212460498	-0.8606760495	-2.2015978569	-0.481413
H	 1.3143721094	 1.8201883949	 0.0741531356	 0.131486
H	-0.2382649872	 2.0838320078	-0.7311627265	 0.124159
H	-0.1598714884	 1.97074907	 1.0403977784	 0.119746
H	 0.2157893764	-0.3019911748	 2.1732239171	 0.129437
H	 0.5956394585	-1.7252889468	 1.190114291	 0.13095
H	 1.7613041649	-0.3965207944	 1.3038257612	 0.124833
H	-1.8739243684	 0.1014284861	-0.9875814318	 0.118681
H	-1.5689782584	-1.4142133388	-0.1040586862	 0.129908
H	-2.5232033966	 1.2708862653	 1.0759821278	 0.080331
H	 1.6884246302	-1.2210512467	-3.0846462656	 0.197264
25.3398	77.7702	148.5362	178.9853	229.6036	262.4817	277.6423	335.8828	358.226	403.6536	484.8931	549.4507	561.0418	631.6653	638.2042	693.2786	850.7295	909.6437	933.6433	949.163	988.2307	1051.8293	1060.0359	1152.0123	1206.3283	1224.034	1271.3424	1318.8039	1401.0793	1422.919	1432.9549	1468.0924	1479.6984	1487.4578	1498.1624	1509.4528	1825.5854	2231.9891	2871.9801	3040.039	3042.1535	3046.6561	3111.9686	3113.9673	3120.1635	3122.8599	3125.2818	3501.3816
CC(C)(CC=O)C#C	CC(C)(CC=O)C#C	
InChI=1S/C7H10O/c1-4-7(2,3)5-6-8/h1,6H,5H2,2-3H3	InChI=1S/C7H10O/c1-4-7(2,3)5-6-8/h1,6H,5H2,2-3H3
