14
gdb 33331	3.00061	0.89214	0.72284	5.459	87.88	-0.2625	-0.0427	0.2198	1481.878	0.099649	-362.353464	-362.344839	-362.343895	-362.387518	31.123	
C	-0.1847399687	-1.1964801762	-0.0032998616	-0.437779
C	-0.1020894203	 0.0023766495	 0.0188764975	 0.330208
C	-0.0110653618	 1.4305092294	 0.0358108139	-0.189728
C	 0.4866953674	 2.1575819587	 1.2596155525	-0.288444
C	 1.3671924627	 2.1299988449	 0.0245735361	-0.22186
C	 2.5665938102	 1.3629010944	 0.0073936159	 0.128419
C	 3.5921436286	 0.7223517128	-0.0233034322	 0.042024
C	 4.7468515768	-0.0025660776	-0.0489321819	 0.203747
N	 5.7321119636	-0.6188700912	-0.0698280595	-0.339801
H	-0.2528463166	-2.2562458058	-0.0211385768	 0.208989
H	-0.7614426516	 1.9484325885	-0.554046801	 0.133314
H	 0.0236882141	 3.1036203523	 1.5143039771	 0.13822
H	 0.8005619197	 1.5505128258	 2.0993090036	 0.153586
H	 1.4051203361	 3.0438535044	-0.5607320137	 0.139105
56.2109	96.1668	147.7989	195.4775	254.3667	256.5039	418.8579	469.9439	531.6483	564.3542	579.4911	609.5837	619.7712	667.9891	699.9108	764.1441	825.7971	887.449	957.2722	1031.3033	1083.8538	1111.4734	1135.5302	1175.2915	1237.9697	1376.8165	1391.6983	1478.0449	2244.6709	2264.1726	2392.4025	3150.9607	3151.4349	3159.5111	3249.9992	3502.8707
C#CC1CC1C#CC#N	C#C[C@H]1C[C@H]1C#CC#N	
InChI=1S/C8H5N/c1-2-7-6-8(7)4-3-5-9/h1,7-8H,6H2	InChI=1S/C8H5N/c1-2-7-6-8(7)4-3-5-9/h1,7-8H,6H2/t7-,8+/m0/s1
