13
gdb 15448	3.65391	1.93196	1.26722	6.0434	67.78	-0.205	0.0085	0.2135	880.7458	0.098282	-357.699323	-357.692259	-357.691315	-357.730461	26.371	
N	 0.02832336	 1.0406716262	 0.1524248481	-0.611955
H	-0.0421896568	 0.0303819697	 0.1620020014	 0.2726
H	 0.6789286227	 1.3277608878	-0.570008109	 0.254789
C	-1.2246584513	 1.6341536526	 0.0532028073	 0.251927
N	-1.3788297205	 2.9867443392	 0.0470950089	-0.287418
C	-2.7278874584	 3.315209746	 0.0251611352	-0.077158
C	-3.4418157769	 2.1542293482	 0.0202918353	-0.253985
C	-2.4969057685	 1.0707260085	 0.0300661038	 0.130141
C	-2.7422483914	-0.317737269	-0.0001808995	 0.175953
N	-2.903876948	-1.4669155262	-0.0264706058	-0.372488
H	-0.6217404157	 3.6406254876	 0.1495837351	 0.268464
H	-3.0433574112	 4.3447332053	 0.0080550366	 0.131456
H	-4.514811854	 2.0557228641	-0.0042676374	 0.117674
134.539	165.1715	215.6277	273.8334	374.5493	481.817	528.9805	536.0802	610.6247	620.4958	671.8275	710.733	731.3955	782.1735	835.9089	913.6263	1055.1111	1088.7954	1142.1165	1198.9925	1281.8822	1346.9769	1398.9184	1530.7115	1544.6399	1613.0941	1662.7803	2326.1864	3265.4003	3286.7021	3521.2966	3613.8614	3676.1263
[NH2+]=C1NC=C[C-]1C#N	Nc1[nH]ccc1C#N	
InChI=1S/C5H4N3/c6-3-4-1-2-8-5(4)7/h1-2H,(H2,7,8)/q-1/p+1	InChI=1S/C5H5N3/c6-3-4-1-2-8-5(4)7/h1-2,8H,7H2
