21
gdb 40267	2.71053	1.46711	1.11967	1.7793	83.45	-0.237	0.0204	0.2574	1156.6692	0.184182	-387.084614	-387.076373	-387.075429	-387.117721	32.381	
C	-0.0069312431	 1.5391531725	 0.0812002591	-0.23486
O	 1.1981392831	 0.7703927172	 0.1056810595	-0.277667
C	-0.0513512485	 0.0711201466	-0.0149461635	 0.435974
C	-0.4484669167	-0.7254027425	 1.2146725209	-0.267795
C	 0.3802580221	-1.9956207273	 1.4549679336	-0.187199
C	 0.1726139941	-3.1149930934	 0.4200003504	-0.24696
C	 0.7506187726	-2.8475366914	-0.9504369569	-0.046295
C	 0.5612728768	-1.7656971644	-1.7045537891	-0.041165
C	-0.2920456099	-0.557883238	-1.3796637862	-0.33354
H	-0.2698329729	 2.0285857947	 1.0188130009	 0.107211
H	-0.1556025451	 2.1473249591	-0.8108215667	 0.106926
H	-0.3513344961	-0.0728299819	 2.088808408	 0.097996
H	-1.5121963655	-0.9899303242	 1.1339250852	 0.092991
H	 1.4415012936	-1.7254174869	 1.4942309434	 0.116117
H	 0.1161532368	-2.3878270057	 2.4441586071	 0.090281
H	 0.6163812355	-4.0361837942	 0.8117215296	 0.09932
H	-0.9057010171	-3.3216860767	 0.3335163689	 0.103313
H	 1.3818244463	-3.6346839088	-1.3571553766	 0.084718
H	 1.0471000407	-1.7357835371	-2.67673805	 0.086523
H	-1.3575743057	-0.8251046167	-1.4499634449	 0.10962
H	-0.1203727109	 0.2078748391	-2.1412780227	 0.104492
53.7384	98.0002	241.3148	287.5035	307.6382	360.336	392.7062	426.2986	462.7902	539.6564	641.5581	699.9734	761.8037	797.8183	865.1835	871.5115	883.2296	929.3161	945.1162	976.4164	991.0508	1000.0213	1033.6232	1071.8987	1092.2267	1129.9934	1157.2369	1171.0065	1209.2283	1234.9675	1267.4224	1286.0882	1315.0031	1334.9315	1368.7331	1374.1366	1381.8604	1423.6135	1438.045	1463.2955	1476.4619	1483.635	1488.3626	1531.0444	1730.558	2987.6333	2996.2546	3013.9608	3029.4683	3063.5885	3068.976	3073.3768	3078.0604	3081.0007	3137.6552	3157.1996	3162.8893
C1OC11CCCC=CC1	C1O[C@]21CCCC=CC2	
InChI=1S/C8H12O/c1-2-4-6-8(5-3-1)7-9-8/h1,3H,2,4-7H2	InChI=1S/C8H12O/c1-2-4-6-8(5-3-1)7-9-8/h1,3H,2,4-7H2/t8-/m0/s1
