22
gdb 13867	3.81595	1.25501	1.21834	0.1827	84.5	-0.2239	0.0359	0.2597	1159.2211	0.200811	-313.098227	-313.089337	-313.088393	-313.131826	33.301	
C	-0.0171824998	 1.5954895829	-0.0875321464	-0.385651
C	 0.0049391244	 0.0557281988	-0.0354947799	-0.078492
C	-1.4173156505	-0.5014034465	 0.1625891232	-0.387134
C	 0.6703393826	-0.5352069779	-1.2521209704	 0.375248
C	 1.7912917727	-1.2607244097	-1.2656667499	-0.192893
C	 2.1674155097	-1.7420103385	-2.6458084531	-0.243039
C	 1.2544168845	-0.8908279419	-3.5640180646	-0.20397
C	 0.0945301308	-0.414909312	-2.6550926863	-0.303901
H	 0.9922913188	 2.0011704583	-0.2037796321	 0.114624
H	-0.6241234148	 1.9576739413	-0.9244093159	 0.114591
H	-0.4463038066	 2.0062381248	 0.8326061973	 0.108877
H	 0.6039357553	-0.2376758739	 0.8364476881	 0.071855
H	-2.0723926774	-0.2216344392	-0.6696923327	 0.115587
H	-1.4089100077	-1.5935561594	 0.2311966733	 0.114483
H	-1.8628864484	-0.1056316464	 1.0813079759	 0.109203
H	 2.3625247353	-1.5213635399	-0.379865496	 0.077836
H	 3.2313342928	-1.6097354918	-2.8743119138	 0.097323
H	 1.964774562	-2.8180765905	-2.7518984814	 0.100166
H	 1.8138129618	-0.0195199386	-3.9198259114	 0.102312
H	 0.9079827006	-1.4345906557	-4.4467508351	 0.09252
H	-0.7913148921	-1.0577943813	-2.7595023962	 0.102216
H	-0.2375807541	 0.599736857	-2.9020457329	 0.098239
49.134	117.866	165.5145	209.8498	223.5775	253.1374	314.7567	319.1866	471.9604	538.3668	587.3656	650.7903	815.6873	834.6304	861.5305	897.8909	906.1104	922.0684	927.9997	957.9915	962.8576	1028.6517	1050.6252	1064.0183	1117.2832	1152.081	1164.8713	1199.0986	1232.4636	1250.0069	1278.3885	1322.648	1328.3872	1342.2997	1344.7014	1380.3163	1393.3047	1416.3402	1482.1865	1487.0835	1487.5274	1492.0172	1501.8089	1505.1976	1511.6203	1712.9034	2997.4648	3003.8705	3017.0829	3028.0805	3032.2642	3040.6278	3050.4664	3060.8881	3093.9936	3098.4138	3100.224	3104.6834	3107.548	3176.124
CC(C)C1=CCCC1	CC(C)C1=CCCC1	
InChI=1S/C8H14/c1-7(2)8-5-3-4-6-8/h5,7H,3-4,6H2,1-2H3	InChI=1S/C8H14/c1-7(2)8-5-3-4-6-8/h5,7H,3-4,6H2,1-2H3
