17
gdb 47747	2.55799	1.81963	1.20205	3.5766	69.39	-0.2489	0.0066	0.2555	1022.8525	0.13671	-458.980822	-458.973212	-458.972268	-459.013057	29.306	
O	-0.0046269974	 0.1028864593	 0.5454494512	-0.342714
C	 0.0107100463	 1.2020900227	 0.0562225416	 0.384827
O	-1.1420533332	 1.7432314262	-0.4039007012	-0.241012
C	-1.1489284166	 3.0374407352	-1.0297307469	-0.068343
C	-0.0185758316	 3.9081789267	-0.5211838338	-0.124898
O	 1.2046475136	 3.2306606696	-0.7487516071	-0.289353
C	 1.2556981152	 2.0376847446	-0.0161018189	 0.261424
C	 2.1425110569	 2.0075388596	 1.2246298567	-0.306135
C	 2.5748952807	 1.3215055994	-0.039785455	-0.306932
H	-1.055042262	 2.8985643005	-2.1128262999	 0.127117
H	-2.1286438196	 3.4729693622	-0.8128724506	 0.125255
H	 0.0211502422	 4.8477119868	-1.0786477748	 0.122988
H	-0.1492463849	 4.1355548347	 0.5478408864	 0.109795
H	 2.6163604713	 2.9497877958	 1.4746036781	 0.125888
H	 1.8146934278	 1.3945783258	 2.0550692306	 0.142805
H	 2.5376497856	 0.2399448302	-0.0740689131	 0.147795
H	 3.3453272558	 1.7965984006	-0.6359490336	 0.131491
79.8731	143.4933	263.7097	268.3493	295.1428	407.2525	448.1174	473.8628	536.676	615.4389	690.6605	740.9925	782.3493	862.6585	902.5184	918.5631	943.6385	962.7056	1006.6955	1054.6466	1082.4474	1093.7425	1120.0535	1135.1134	1174.2602	1204.3235	1267.0095	1279.0628	1308.0502	1347.8297	1403.3913	1429.534	1437.8564	1473.4412	1494.2973	1502.6477	1829.5173	2996.0804	3042.6126	3097.9734	3103.218	3145.3915	3149.3909	3240.6002	3253.5959
O=C1OCCOC11CC1	O=C1OCCOC21CC2	
InChI=1S/C6H8O3/c7-5-6(1-2-6)9-4-3-8-5/h1-4H2	InChI=1S/C6H8O3/c7-5-6(1-2-6)9-4-3-8-5/h1-4H2
