18
gdb 127438	2.5027	1.64334	1.01091	2.9604	75.92	-0.2083	0.0241	0.2324	1173.5279	0.147559	-435.326509	-435.316988	-435.316044	-435.360911	33.205	
C	 0.0953349744	 1.3927653844	-0.0522191516	-0.32818
N	 0.1001632609	-0.0471830926	-0.0078191799	-0.076551
N	 0.1457431708	-0.804029047	-1.1599798641	-0.308353
C	 0.1365926075	-2.037757828	-0.748627693	 0.380998
C	 0.175031846	-3.2222573742	-1.6469754334	-0.497572
N	 0.0869964031	-2.1154606717	 0.6249497617	-0.163792
C	 0.0613362604	-3.2839306217	 1.4758800639	-0.351611
C	 0.0622223999	-0.8094021757	 1.1348679053	 0.468349
O	 0.0180531584	-0.4652974746	 2.3020066995	-0.452943
H	 1.0022603571	 1.7703539871	-0.5344009985	 0.137706
H	-0.7774263579	 1.7623864448	-0.5992674679	 0.137708
H	 0.0561107613	 1.7432313379	 0.9804928602	 0.165122
H	 0.2094996357	-2.8782481518	-2.6814887856	 0.159938
H	 1.0557732307	-3.8451180477	-1.4536854333	 0.140242
H	-0.7098751283	-3.8552881436	-1.515819676	 0.140194
H	 0.9604884082	-3.8942309418	 1.3446934957	 0.136534
H	 0.0221646595	-2.9192961969	 2.5043766215	 0.175675
H	-0.8202732578	-3.9023796368	 1.2797931454	 0.136535
106.785	116.2697	130.0856	149.2535	166.7274	226.967	249.925	267.9159	325.1851	343.2537	593.1011	602.6865	622.6823	655.1859	746.7128	789.8166	913.5116	1009.9706	1048.6318	1057.2092	1064.6787	1158.7423	1159.7646	1208.3291	1273.4917	1327.2564	1402.8402	1424.089	1433.3142	1448.3514	1471.6441	1475.5038	1483.9451	1498.2346	1501.7617	1511.5419	1518.5507	1640.4943	1816.589	3032.8005	3035.9536	3039.594	3084.4401	3095.9115	3099.6872	3141.3894	3149.3997	3150.5921
CN1N=C(C)N(C)C1=O	Cn1nc(C)n(C)c1=O	
InChI=1S/C5H9N3O/c1-4-6-8(3)5(9)7(4)2/h1-3H3	InChI=1S/C5H9N3O/c1-4-6-8(3)5(9)7(4)2/h1-3H3
