14
gdb 16719	6.22991	1.42841	1.28206	3.6888	70.44	-0.2443	-0.0528	0.1915	915.2545	0.109332	-341.579794	-341.57344	-341.572495	-341.610306	24.255	
N	 0.0537495702	-1.126203889	 0.1173898742	-0.332205
C	-0.0123118785	 0.0300506227	 0.0734525478	 0.202972
C	-0.0380437218	 1.446126261	 0.0097184315	 0.170776
C	-1.1264284448	 2.2307111313	 0.0163785123	-0.159169
C	-0.7240845295	 3.6571009969	 0.0237730601	-0.062966
C	 0.0757646518	 4.0754463604	 1.2161769519	-0.232561
N	 0.7599985318	 3.6997462475	-0.0196080474	-0.09589
C	 1.2259426449	 2.2997934637	-0.0649077539	-0.261482
H	-2.1527959217	 1.8880566982	 0.0301880543	 0.132813
H	-1.2767836747	 4.3862391119	-0.5610003386	 0.113066
H	 0.1546338285	 5.1291756181	 1.4679715127	 0.129228
H	 0.0979263917	 3.3908802121	 2.0615715511	 0.122943
H	 1.9222164241	 2.0952860293	 0.7558317791	 0.136073
H	 1.764830308	 2.1229322759	-1.0029776849	 0.136402
127.5623	165.7906	310.1489	379.7966	473.5611	540.0447	565.5289	571.9855	708.8303	772.7625	814.2672	893.5478	901.7894	926.342	1001.0345	1029.0281	1054.6205	1076.3046	1113.6263	1152.0252	1184.8517	1217.7877	1260.4006	1285.6656	1328.6002	1358.5114	1487.2842	1500.6072	1663.6564	2334.3606	3035.0646	3074.7778	3101.3004	3157.0271	3194.8242	3227.9156
N#CC1=CC2CN2C1	N#CC1=C[C@H]2CN2C1	
InChI=1S/C6H6N2/c7-2-5-1-6-4-8(6)3-5/h1,6H,3-4H2	InChI=1S/C6H6N2/c7-2-5-1-6-4-8(6)3-5/h1,6H,3-4H2/t6-,8?/m0/s1
