24
gdb 6415	3.8395	0.89368	0.8812	1.3703	82.05	-0.2612	0.0719	0.3331	1494.3755	0.221025	-351.41995	-351.409159	-351.408214	-351.456019	39.171	
C	 0.0974430194	 1.5438199395	 0.0966488251	-0.390493
C	-0.032131601	 0.0199593783	 0.0034882202	-0.170308
C	-1.4780587427	-0.5060146545	-0.0790834533	 0.055619
C	-2.1904664577	-0.0292940516	-1.3533453013	-0.396906
C	-1.4882365023	-2.041953619	 0.0356738212	-0.198087
C	-2.8672820494	-2.6731211195	 0.2752321059	 0.125137
C	-2.7904968484	-4.197729775	 0.3737050909	-0.399561
O	-3.5070981256	-2.1169348942	 1.4243646035	-0.426469
H	 1.1427611475	 1.8387119174	 0.2335658125	 0.109562
H	-0.2664070322	 2.0447852374	-0.8054121657	 0.117719
H	-0.4721902085	 1.9366600454	 0.946621128	 0.112979
H	 0.533185229	-0.343224766	-0.8667895711	 0.088549
H	 0.4503875628	-0.4275295083	 0.8823938971	 0.085992
H	-2.0312153905	-0.1156943736	 0.7854782745	 0.080112
H	-2.2222690357	 1.0621088736	-1.413681725	 0.114114
H	-1.6756949251	-0.3976749284	-2.2497907547	 0.105752
H	-3.225208025	-0.381311616	-1.3938119157	 0.118483
H	-1.0488760624	-2.4839949619	-0.8696801487	 0.089134
H	-0.8324757937	-2.3439889035	 0.8668119174	 0.074526
H	-3.5371570397	-2.4120269673	-0.5521113002	 0.090052
H	-2.1218234001	-4.5014782667	 1.1893223794	 0.103802
H	-3.7813250126	-4.615904945	 0.5709064798	 0.121766
H	-2.4042615854	-4.637011365	-0.5519191095	 0.114551
H	-2.9737656307	-2.3489796961	 2.1932366998	 0.273977
36.4342	78.1716	114.3362	147.5306	206.2493	243.1756	248.7799	278.0146	293.4641	305.7719	352.6938	420.8461	444.8427	485.7005	520.2795	776.4626	813.3215	843.805	879.8805	912.8789	954.7862	975.3861	997.5433	1040.092	1049.9776	1072.5785	1113.8671	1149.5162	1177.1317	1185.397	1233.0415	1278.2291	1306.6876	1328.461	1342.2957	1379.9236	1386.8338	1392.4423	1402.5851	1414.4829	1415.8357	1421.6983	1470.9858	1485.4398	1492.1345	1496.2011	1497.4836	1497.9219	1508.1546	1515.5744	2986.4004	3004.2289	3017.9918	3022.429	3027.7512	3031.2077	3033.562	3043.6667	3052.466	3093.1148	3096.3421	3097.1632	3105.1663	3113.3469	3117.1368	3791.3472
CCC(C)CC(C)O	CC[C@@H](C)C[C@@H](C)O	
InChI=1S/C7H16O/c1-4-6(2)5-7(3)8/h6-8H,4-5H2,1-3H3	InChI=1S/C7H16O/c1-4-6(2)5-7(3)8/h6-8H,4-5H2,1-3H3/t6-,7-/m1/s1
