20
gdb 100327	2.59682	1.0947	0.94785	2.8096	74.85	-0.2719	0.0333	0.3052	1300.8245	0.169199	-440.295213	-440.284803	-440.283859	-440.330511	37.848	
C	-0.0616175088	 1.5770687387	-0.013031748	-0.444513
C	-0.0116228873	 0.0433161168	-0.01024815	 0.237317
C	 0.8130657976	-0.4617547099	 1.203281412	-0.087537
O	 0.1176684421	-0.3359294007	 2.4281661795	-0.431578
C	-1.4457507474	-0.499153378	 0.0829894251	-0.128012
O	-1.3817238951	-1.8871764537	 0.4152575418	-0.438228
C	 0.682086101	-0.5111743253	-1.2841297832	-0.374695
C	 0.1017005921	-0.0147294592	-2.5292109083	 0.267394
N	-0.3800912491	 0.3818178207	-3.5024425953	-0.322087
H	 0.9304031673	 1.9994320483	-0.2045325939	 0.118149
H	-0.7403154146	 1.960023174	-0.7813579556	 0.135237
H	-0.3993268242	 1.9354718336	 0.9633221491	 0.137833
H	 1.1206560708	-1.5020154473	 1.0338518491	 0.099708
H	 1.7224557789	 0.1430346849	 1.294362921	 0.107425
H	-0.5343637244	-1.046711034	 2.4338597785	 0.291805
H	-1.9883711512	 0.0583194517	 0.8577115325	 0.105159
H	-1.9654537426	-0.3433719185	-0.8721202553	 0.119887
H	-2.2618880295	-2.2637995399	 0.3256648281	 0.297946
H	 1.7479256489	-0.2539928562	-1.2717055612	 0.146498
H	 0.6112896353	-1.6042718761	-1.2823104659	 0.162293
68.6029	92.3193	130.0177	145.0348	212.8729	243.447	293.8597	316.2283	322.7582	344.1268	373.5429	399.9941	441.5717	511.6489	523.0833	631.8861	771.3655	879.2602	887.1783	917.687	959.4927	968.7702	1038.2182	1062.7532	1087.4558	1138.6062	1164.2236	1197.2283	1226.8771	1266.0293	1299.4837	1318.8978	1340.3851	1401.7769	1420.0664	1424.4359	1456.6982	1463.5745	1492.4046	1501.6763	1503.866	1521.5501	2356.4139	3005.9876	3012.8454	3036.8032	3042.3465	3045.0703	3068.2165	3087.0657	3105.2836	3119.9869	3792.0378	3836.6439
CC(CO)(CO)CC#N	CC(CO)(CO)CC#N	
InChI=1S/C6H11NO2/c1-6(4-8,5-9)2-3-7/h8-9H,2,4-5H2,1H3	InChI=1S/C6H11NO2/c1-6(4-8,5-9)2-3-7/h8-9H,2,4-5H2,1H3
