21
gdb 80545	2.50232	1.45304	1.2347	1.4551	77.87	-0.2481	0.0706	0.3187	1116.2018	0.183035	-424.206926	-424.198176	-424.197231	-424.239537	34.775	
C	-0.2406308785	 1.6207971884	-0.1310922695	-0.437411
C	 0.0142324198	 0.122371688	-0.0391758899	 0.031965
C	 1.1709759161	-0.5870585033	-0.8161528228	-0.077712
C	 2.4352979495	 0.0935815853	-0.259587781	-0.271428
C	 2.0809973552	 0.0769564506	 1.2712889496	 0.133474
O	 2.0193045698	 1.3522735918	 1.8912185517	-0.436644
C	 0.6931072493	-0.5688436659	 1.1930906946	-0.095795
C	 1.014868609	-1.7534134981	 0.2148686023	 0.181056
O	 0.0238416907	-2.7228235367	-0.00548452	-0.457917
H	 0.6415978331	 2.210952341	 0.1141135042	 0.133845
H	-0.5776593654	 1.8869450566	-1.1398512052	 0.104678
H	-1.0309327362	 1.9161027045	 0.5678539431	 0.114921
H	-0.932665532	-0.3869054308	-0.2562844657	 0.047938
H	 1.1204121956	-0.764829375	-1.8917524351	 0.059076
H	 3.3453538248	-0.4695618261	-0.4881295944	 0.09569
H	 2.5662329669	 1.1177108209	-0.6194138032	 0.101912
H	 2.7721074309	-0.5699462129	 1.8305027035	 0.06886
H	 2.9117908046	 1.7117482691	 1.9180113382	 0.28063
H	 0.1709819305	-0.7297662467	 2.1367123017	 0.064483
H	 1.9240326339	-2.322398033	 0.4332282244	 0.075464
H	-0.8146427775	-2.2869848779	-0.1868416365	 0.282914
166.1266	195.0279	220.4258	227.8259	251.3654	265.3611	292.821	323.8956	418.5212	460.7638	481.7109	607.2495	689.3865	729.7628	795.9306	827.5498	869.8444	916.3476	940.4692	960.4732	976.6602	1020.7453	1046.118	1059.8648	1074.7101	1105.9618	1123.5933	1147.2061	1182.6348	1202.1816	1207.9472	1218.1006	1255.2305	1269.599	1286.2115	1296.3632	1326.2795	1345.7193	1407.9275	1421.7235	1438.3733	1454.3961	1486.2981	1491.5842	1511.1121	2989.4944	3015.897	3033.6718	3051.7199	3061.5246	3087.1477	3099.606	3101.9004	3116.6309	3153.1674	3814.8688	3819.8454
CC1C2CC(O)C1C2O	C[C@H]1[C@H]2C[C@@H](O)[C@@H]1[C@H]2O	
InChI=1S/C7H12O2/c1-3-4-2-5(8)6(3)7(4)9/h3-9H,2H2,1H3	InChI=1S/C7H12O2/c1-3-4-2-5(8)6(3)7(4)9/h3-9H,2H2,1H3/t3-,4+,5+,6+,7-/m0/s1
