20
gdb 56196	4.28466	0.76664	0.72087	2.8224	76.19	-0.2454	0.0285	0.2739	1611.44	0.169961	-440.296259	-440.28612	-440.285176	-440.334287	34.423	
C	-0.203287672	 1.4185484988	-0.0885513672	-0.481245
C	-0.3090076344	-0.0618591571	 0.2432086433	 0.407468
O	-0.0510742551	-0.5021332147	 1.3500069735	-0.377719
N	-0.7060361893	-0.8697113751	-0.7841015095	-0.310006
C	-0.8608448674	-2.3057819473	-0.6056942776	-0.187248
C	-2.1843805282	-2.6913538326	 0.0517970687	-0.02036
C	-3.4463786992	-2.5479008661	-0.8266884924	-0.077392
O	-3.5976295821	-3.9784809797	-0.9240367182	-0.27097
C	-2.5201138419	-4.198358252	 0.0105617483	-0.089001
H	 0.8143296194	 1.7536598566	 0.1279378259	 0.154927
H	-0.4432590298	 1.657532534	-1.1279256548	 0.110083
H	-0.87596444	 1.9757778433	 0.568948254	 0.153268
H	-0.9454483722	-0.4601421796	-1.6705222458	 0.246955
H	-0.7747808984	-2.7827192442	-1.5882250507	 0.107421
H	-0.0320842382	-2.6559865593	 0.0172229994	 0.137421
H	-2.2441801281	-2.225134868	 1.0358044061	 0.10736
H	-4.3086771375	-2.0772233951	-0.3369615266	 0.101207
H	-3.3040882223	-2.0807174306	-1.8110774699	 0.085462
H	-1.7438267603	-4.855940624	-0.402742921	 0.099475
H	-2.877212693	-4.6245036274	 0.9564774344	 0.102894
27.6175	39.8965	57.5573	66.827	93.2582	222.5711	281.1544	327.1321	378.9245	410.1748	486.4378	624.4044	655.5305	788.0578	837.5342	863.2217	887.937	944.3929	972.4629	998.7223	1034.7347	1051.2278	1058.2466	1104.5291	1107.6233	1153.2651	1161.446	1190.54	1261.8661	1267.9909	1299.2524	1309.7969	1355.6547	1389.4005	1395.6643	1403.904	1465.5989	1470.6729	1484.8947	1512.5613	1531.7459	1538.8188	1774.9495	2996.3009	3009.6384	3038.9309	3042.973	3048.6366	3049.9148	3093.8944	3115.5035	3127.5178	3130.0518	3662.6849
CC(=O)NCC1COC1	CC(=O)NCC1COC1	
InChI=1S/C6H11NO2/c1-5(8)7-2-6-3-9-4-6/h6H,2-4H2,1H3,(H,7,8)	InChI=1S/C6H11NO2/c1-5(8)7-2-6-3-9-4-6/h6H,2-4H2,1H3,(H,7,8)
