17
gdb 106342	4.77783	0.96283	0.92548	3.5012	74.83	-0.2717	0.0024	0.2741	1263.9156	0.136818	-417.945332	-417.937184	-417.93624	-417.978222	30.839	
O	-0.0742426007	 1.3843395026	-0.029370038	-0.411946
C	-0.0273646181	-0.0255951831	 0.0508285817	-0.186053
C	-1.4069142459	-0.6108102251	-0.0464703591	 0.291854
C	-2.472843862	-0.3697283374	-1.1520997997	-0.253751
C	-3.1565759356	-1.1401138336	 0.0087968558	 0.23112
C	-1.9122083171	-2.0771910823	 0.0710939908	-0.31658
N	-2.4799345143	-0.1574543456	 0.9553553767	-0.381291
C	-4.5459719697	-1.5070372453	 0.1439824664	 0.167851
N	-5.6535049243	-1.8211611778	 0.2478689594	-0.343616
H	-0.7925964851	 1.6730434091	 0.5474156282	 0.297228
H	 0.5927660008	-0.3772871582	-0.7810986751	 0.120969
H	 0.4497832819	-0.3692902641	 0.9847371198	 0.092908
H	-2.7994621593	 0.6608349894	-1.2794054979	 0.130755
H	-2.3482585796	-0.9085248674	-2.0912428561	 0.115231
H	-1.7449594178	-2.7518738057	-0.7727776406	 0.116339
H	-1.7453231018	-2.5726024299	 1.0312589836	 0.113091
H	-2.3203795614	-0.6284171558	 1.8530497842	 0.21589
91.8637	114.2966	156.7149	207.692	307.2128	389.6123	424.2232	513.5281	522.4745	541.5491	569.3047	615.3179	676.4695	759.026	835.8519	925.379	943.1425	976.9433	1037.3315	1050.5447	1060.2841	1099.3873	1110.8419	1126.7786	1139.2492	1162.0628	1218.4016	1233.9794	1278.3764	1291.546	1355.1095	1370.341	1441.8282	1482.5396	1500.7997	1530.7223	2356.6216	2960.4788	3052.4677	3068.801	3097.2496	3125.1926	3180.6173	3374.7645	3779.1198
OCC12CC(C1)(N2)C#N	OC[C@@]12C[C@@](C1)(N2)C#N	
InChI=1S/C6H8N2O/c7-3-5-1-6(2-5,4-9)8-5/h8-9H,1-2,4H2	InChI=1S/C6H8N2O/c7-3-5-1-6(2-5,4-9)8-5/h8-9H,1-2,4H2/t5-,6+
