19
gdb 40456	4.0001	1.35025	1.26426	1.504	78.5	-0.2294	0.0782	0.3075	1060.1749	0.159962	-385.809234	-385.801994	-385.80105	-385.840974	29.561	
C	-0.2090713671	 1.4171767421	-0.1491365456	-0.265478
C	 1.1998493824	 1.029842446	 0.2168201901	-0.265951
C	 0.1531783356	-0.0396750609	-0.0002192813	-0.149307
C	-0.3410281098	-0.8181026631	 1.162007145	 0.452743
C	 0.2486672745	-2.1895056359	 1.6058794056	-0.267077
C	-1.060992868	-2.3669177881	 2.370004439	-0.123763
C	-1.4334615999	-0.9434754438	 2.8180748904	 0.100888
O	-0.3807210449	-0.0667666909	 2.4196191736	-0.330431
C	-1.7944493713	-1.3940586072	 1.4502921734	-0.207323
H	-0.8193308377	 1.8510844542	 0.6340419633	 0.126983
H	-0.4023042209	 1.7932088668	-1.1474948578	 0.107166
H	 1.9801298454	 1.1325601831	-0.5287172622	 0.109546
H	 1.5151202718	 1.2106883569	 1.2374956912	 0.134699
H	 0.2321653033	-0.625024278	-0.9118606335	 0.0855
H	 0.3198058598	-2.8860557355	 0.7661843912	 0.100151
H	 1.1928741014	-2.1513674659	 2.1585623088	 0.098341
H	-1.4531323057	-3.2526191367	 2.8529391379	 0.090264
H	-2.0230152349	-0.6947227193	 3.6902300135	 0.10626
H	-2.7170113339	-1.4466247337	 0.8894268474	 0.09679
80.5715	169.2183	186.2485	355.5152	395.2003	459.2231	558.0014	619.0652	762.2031	765.0118	787.3106	794.3436	810.203	822.3052	867.8295	891.6175	920.879	941.2934	963.3631	990.2154	1012.5476	1025.7465	1037.5188	1052.7025	1065.3841	1071.5591	1089.7042	1114.4091	1129.6713	1141.6742	1172.79	1204.2229	1215.7881	1234.8322	1271.7817	1310.9259	1359.9955	1441.1729	1460.1486	1484.6509	1502.6369	3045.944	3109.0131	3139.8338	3142.7151	3149.807	3198.6952	3204.267	3220.5223	3225.4936	3239.2826
C1CC1C12CC3C(O1)C23	C1CC1[C@@]12C[C@H]3[C@@H](O1)[C@@H]23	
InChI=1S/C8H10O/c1-2-4(1)8-3-5-6(8)7(5)9-8/h4-7H,1-3H2	InChI=1S/C8H10O/c1-2-4(1)8-3-5-6(8)7(5)9-8/h4-7H,1-3H2/t5-,6+,7-,8-/m1/s1
