17
gdb 49994	3.38117	1.16635	1.0609	4.2335	74.7	-0.2387	-0.0152	0.2235	1167.0588	0.134267	-421.771393	-421.763529	-421.762585	-421.80413	30.029	
O	-0.0463144313	 0.0125487453	-0.2528241014	-0.272848
C	 0.0598696061	 1.1496866663	 0.1376076477	 0.170736
C	 1.3065306736	 1.9448588311	 0.057832121	-0.192076
C	 1.1821738811	 3.4739085428	-0.1016602514	-0.38809
C	 1.6302561682	 2.9091193323	 1.1825323154	 0.463899
O	 0.8148346651	 2.9995723043	 2.3611460902	-0.312889
C	 1.9914158917	 3.273077221	 3.1387966501	 0.101557
C	 2.9387653768	 2.1199455899	 3.1021420457	-0.29924
C	 2.9107685299	 3.1082948189	 1.9478642573	-0.216591
H	-0.7983945936	 1.6865865595	 0.5985746161	 0.082645
H	 2.1378522823	 1.4446247947	-0.4276813232	 0.11135
H	 1.8997584944	 3.9650895127	-0.7496054132	 0.133132
H	 0.1745242601	 3.876797391	-0.1368342304	 0.138347
H	 1.9170623592	 4.0285600041	 3.9106928501	 0.115854
H	 3.8076574346	 2.2090932807	 3.7468593591	 0.121684
H	 2.5543444815	 1.1124974979	 2.9735530571	 0.13097
H	 3.7646773102	 3.6850995876	 1.6211233699	 0.111561
74.6473	134.3936	173.1442	212.5055	346.635	368.9049	455.4874	478.9102	512.9187	607.798	757.6138	804.8055	833.3074	859.9564	896.6206	910.1474	946.8088	963.9846	985.2429	1035.5843	1042.8354	1046.6296	1055.9361	1059.6231	1070.8541	1091.0473	1165.0253	1175.3609	1191.3995	1273.2394	1276.8729	1345.7847	1406.358	1443.7515	1469.1089	1489.1719	1813.8366	2889.2672	3122.5745	3128.1552	3174.7761	3195.3468	3210.0061	3219.0422	3221.0503
O=CC1CC11OC2CC12	O=C[C@H]1C[C@]21O[C@H]1C[C@@H]21	
InChI=1S/C7H8O2/c8-3-4-2-7(4)5-1-6(5)9-7/h3-6H,1-2H2	InChI=1S/C7H8O2/c8-3-4-2-7(4)5-1-6(5)9-7/h3-6H,1-2H2/t4-,5-,6+,7-/m1/s1
