20
gdb 14517	3.45349	1.94797	1.56315	1.0459	75.1	-0.2478	0.0913	0.3391	907.4807	0.176805	-348.94245	-348.934418	-348.933474	-348.974941	30.827	
C	-0.0371771875	 1.1135612467	-0.3439070152	-0.251162
O	 0.4104215456	-0.2125849026	-0.1681960742	-0.296775
C	 0.8190194562	-0.5544846976	 1.1470048767	 0.487461
C	 2.1787867347	 0.0811286062	 1.4254502466	-0.480043
C	-0.3043744206	-0.5897646877	 2.2497765381	-0.109975
C	-0.9554141178	-1.753650742	 1.4390738671	-0.224672
C	 0.5732359275	-2.0640841663	 1.4609333593	-0.098408
C	 0.5289293357	-1.6888216382	 2.9708610047	-0.241108
H	 0.7582573873	 1.855837703	-0.1865717085	 0.10622
H	-0.3831238142	 1.1965274184	-1.377521943	 0.124893
H	-0.8743189766	 1.3569651771	 0.3266439096	 0.106014
H	 2.1010232221	 1.1719056461	 1.4747889479	 0.11738
H	 2.6323800863	-0.2526734454	 2.3586478019	 0.120996
H	 2.8603935447	-0.1659955826	 0.6057636865	 0.125956
H	-0.8083198828	 0.2586020424	 2.7167649845	 0.064647
H	-1.5841946528	-2.4347605382	 2.0175349871	 0.084701
H	-1.3939439638	-1.5105744458	 0.474335003	 0.109679
H	 1.0845409334	-2.9120362767	 1.0022884854	 0.068752
H	 1.4546998109	-1.4004716362	 3.4676899409	 0.091369
H	-0.0497092284	-2.3683640306	 3.6004549817	 0.094074
49.3769	152.5571	185.2351	204.5712	300.8223	362.1437	430.9947	459.6539	555.035	575.0086	661.2036	778.1692	804.3621	878.1771	894.0867	901.6107	920.2119	997.7343	1014.3904	1024.1213	1066.4757	1086.0536	1102.1563	1107.6842	1137.2921	1174.7544	1184.1599	1188.4349	1197.2243	1203.2534	1226.3711	1248.6457	1251.7799	1295.3452	1409.8147	1476.28	1484.7728	1487.3953	1498.5136	1508.2898	1513.1174	1541.0993	2986.5537	3034.5441	3048.3137	3071.0726	3072.7618	3092.1497	3103.3099	3104.5883	3108.5886	3132.2209	3149.4485	3166.5981
COC1(C)C2CC1C2	CO[C@@]1(C)[C@H]2C[C@@H]1C2	
InChI=1S/C7H12O/c1-7(8-2)5-3-6(7)4-5/h5-6H,3-4H2,1-2H3	InChI=1S/C7H12O/c1-7(8-2)5-3-6(7)4-5/h5-6H,3-4H2,1-2H3/t5-,6+,7-
