16
gdb 12579	3.08593	2.08011	1.26496	5.41	69.77	-0.2108	0.0017	0.2125	928.9661	0.131406	-379.983581	-379.975381	-379.974437	-380.016106	30.004	
C	 0.0095894968	 1.5491421374	 0.0191563661	-0.531955
C	-0.0268914383	 0.0546348044	-0.0005972318	 0.110269
C	-1.0850890263	-0.781153434	 0.024017759	 0.239608
N	-2.4246394058	-0.4834125356	 0.1190314234	-0.584877
C	-0.6264764196	-2.2227425753	 0.010548231	-0.242991
N	 0.8043381065	-2.0883425261	-0.1471329516	-0.351432
C	 1.2075743063	-0.7591958624	-0.0344791147	 0.36822
O	 2.360639144	-0.3783451276	 0.0118379271	-0.396692
H	 1.0497061623	 1.8762837527	-0.0598370426	 0.156686
H	-0.5503103354	 1.9925090538	-0.8147870238	 0.112347
H	-0.4042259339	 1.9638660225	 0.946626548	 0.123636
H	-2.6855550293	 0.4604927799	-0.1252791743	 0.259536
H	-3.0677690483	-1.1721464136	-0.2419362329	 0.253075
H	-0.9085159243	-2.7292974866	 0.9453345426	 0.125931
H	-1.0861239277	-2.7834365637	-0.8173516939	 0.112889
H	 1.442364283	-2.8189078459	 0.1220987283	 0.245751
69.0317	143.2446	211.4748	229.1278	259.5221	321.432	341.1846	420.7439	509.4997	552.3006	567.8753	609.3342	699.8094	750.5998	770.0781	906.8033	1010.6011	1017.4274	1058.596	1089.098	1150.9569	1192.0614	1209.8417	1263.9908	1337.203	1384.8985	1411.126	1434.8627	1490.5331	1495.7241	1506.3677	1649.6932	1726.013	1809.0086	2988.8837	3011.5439	3012.6783	3057.5213	3117.783	3567.2199	3654.79	3670.0071
CC1=C(N)CNC1=O	CC1=C(N)CNC1=O	
InChI=1S/C5H8N2O/c1-3-4(6)2-7-5(3)8/h2,6H2,1H3,(H,7,8)	InChI=1S/C5H8N2O/c1-3-4(6)2-7-5(3)8/h2,6H2,1H3,(H,7,8)
