17
gdb 105821	2.60653	1.53105	1.27722	2.1188	67.45	-0.2318	0.0472	0.279	1041.8991	0.133883	-458.854655	-458.846512	-458.845568	-458.887335	31.231	
C	 0.0231363436	 1.3386572381	 0.259576112	-0.259224
O	-0.0346954643	-0.0074254042	-0.2000398216	-0.269874
C	-1.2828336402	-0.5678418229	-0.070747522	 0.308687
C	-1.8500799518	-1.108463981	 1.2136443274	 0.071763
O	-3.0400797096	-0.8027426661	 1.8533481337	-0.424727
C	-1.6226731882	-2.0691029056	 0.0538678068	-0.267553
C	-2.6403612232	-1.886053452	-1.1026525108	 0.03427
O	-3.6282445674	-0.8830329787	-0.7488922509	-0.269096
C	-2.3341304843	-0.4685797977	-1.2307433901	-0.05837
H	 1.0491258969	 1.6800038358	 0.1083486416	 0.131091
H	-0.6580937575	 1.9887832349	-0.3064211084	 0.114048
H	-0.2329842755	 1.405953993	 1.3246051795	 0.126285
H	-1.0543989423	-1.2216863302	 1.9486455869	 0.117788
H	-3.6979823409	-0.7145679037	 1.1505072947	 0.296168
H	-0.9524104311	-2.9168805516	 0.1169633148	 0.106985
H	-2.9391921996	-2.6248905564	-1.8352110612	 0.121534
H	-2.2949304345	 0.1918248284	-2.0887664727	 0.120225
85.1386	157.3154	163.0984	252.3476	282.6452	350.1742	375.8705	441.2575	517.9694	563.7855	629.2369	711.7241	746.2144	789.4974	801.248	865.3217	877.7503	937.3463	961.2176	1008.7106	1026.0941	1046.7649	1070.512	1118.8229	1177.2354	1179.3993	1204.0056	1220.6784	1242.38	1267.3734	1305.9964	1344.1129	1422.2177	1470.0126	1487.0293	1496.8918	1504.8011	3001.2221	3060.5657	3129.0263	3133.1389	3187.985	3197.4711	3207.9316	3748.1172
COC12C(O)C1C1OC21	CO[C@]12[C@@H](O)[C@H]1[C@H]1O[C@@H]21	
InChI=1S/C6H8O3/c1-8-6-2(4(6)7)3-5(6)9-3/h2-5,7H,1H3	InChI=1S/C6H8O3/c1-8-6-2(4(6)7)3-5(6)9-3/h2-5,7H,1H3/t2-,3-,4+,5-,6+/m1/s1
