19
gdb 107161	4.47123	0.98882	0.93863	1.749	76.07	-0.2419	0.0707	0.3126	1292.3454	0.160162	-419.127216	-419.118805	-419.117861	-419.160592	32.215	
O	 0.1176631194	 1.321411559	-0.430496096	-0.417169
C	 0.0806758976	 0.0079250636	 0.1099734859	-0.163039
C	-1.3242568294	-0.4923173532	 0.2567438279	 0.3255
C	-2.3402642579	-0.1061356541	 1.3515063896	-0.396162
C	-2.9019571737	-1.5425344454	 1.2408399958	 0.354627
C	-3.4018743644	-2.3944686825	 2.3357939803	-0.312637
N	-4.2958007667	-1.9849686454	 1.2270244213	-0.367751
C	-1.8990805546	-1.881434338	 0.1554930111	-0.161414
N	-2.0140023435	-0.9368395836	-0.9557100996	-0.370653
H	-0.2961127562	 1.2687433853	-1.2995175757	 0.288666
H	 0.6490824996	-0.6999922469	-0.5107380588	 0.098336
H	 0.5695713629	 0.0695700869	 1.0879018136	 0.107527
H	-1.8812594494	 0.0975880218	 2.3229828624	 0.11581
H	-3.015746286	 0.7185181771	 1.0974926867	 0.10181
H	-3.1647295323	-3.4551328569	 2.3559534343	 0.122712
H	-3.5383358113	-1.943274506	 3.3156947745	 0.114101
H	-4.9021153188	-1.2295932925	 1.5391182502	 0.230993
H	-1.4209349042	-2.8381572528	-0.0218756911	 0.096756
H	-2.9594737511	-0.5664986266	-1.0396177926	 0.231988
61.1551	91.2483	182.577	263.2872	286.5077	354.3019	373.4678	417.9928	431.9687	511.7661	609.6097	725.9839	809.321	839.4077	846.5921	900.0643	916.5349	945.983	960.6444	980.6028	997.5505	1007.0939	1053.5031	1078.2287	1115.4167	1118.8878	1140.5021	1171.6524	1199.8265	1232.7989	1252.9998	1262.4972	1269.4283	1312.7117	1373.7346	1410.9551	1421.6388	1449.2993	1484.3718	1491.3433	1515.3602	2999.9848	3037.8073	3076.9357	3097.0442	3101.9468	3180.4292	3186.081	3462.8609	3489.8955	3800.9805
OCC12CC3(CN3)C1N2	OC[C@]12C[C@]3(CN3)[C@H]1N2	
InChI=1S/C6H10N2O/c9-3-6-1-5(2-7-5)4(6)8-6/h4,7-9H,1-3H2	InChI=1S/C6H10N2O/c9-3-6-1-5(2-7-5)4(6)8-6/h4,7-9H,1-3H2/t4-,5+,6-/m1/s1
