19
gdb 108706	2.54793	1.48635	0.99914	3.0969	79.06	-0.2245	0.0135	0.238	1187.2955	0.159477	-422.985982	-422.977505	-422.976561	-423.019393	31.634	
O	-0.0865589106	 1.4461331749	-0.0526287946	-0.414156
C	-0.03535233	 0.0303160848	-0.0277773487	-0.1866
C	-1.4145511789	-0.5046346798	 0.1535315377	 0.174438
C	-2.5526405552	 0.1664306976	 0.297934633	 0.119514
C	-3.3486310962	 1.3380840867	-0.210535138	-0.148695
O	-4.3625269845	 0.3887084021	-0.6777331683	-0.311975
C	-3.770019517	-0.6806579844	 0.1411413721	 0.112722
C	-3.2302484574	-1.9825878384	-0.4724130823	-0.248273
C	-1.7480709151	-1.9960727229	 0.0356706224	-0.307269
H	 0.8118702161	 1.7788245242	-0.1318884274	 0.290527
H	 0.3898711732	-0.3747982197	-0.9641773697	 0.096463
H	 0.6164279432	-0.3366254574	 0.7856758504	 0.098582
H	-3.7660887081	 2.011396885	 0.5494576629	 0.102871
H	-2.9028016836	 1.9235851955	-1.0192706474	 0.123933
H	-4.4016224727	-0.8480073368	 1.0248075142	 0.072717
H	-3.7901370029	-2.881176642	-0.1980806272	 0.094189
H	-3.2410553417	-1.8867164324	-1.5626757092	 0.118058
H	-1.0756581118	-2.5053739803	-0.6644351477	 0.103942
H	-1.6569599069	-2.5278584169	 0.9926034976	 0.109013
74.9886	123.1793	169.9079	182.9921	241.056	266.8556	383.3668	400.4301	462.1734	589.8008	644.4727	687.8125	787.5401	852.3375	900.8963	918.6572	927.161	959.0886	1000.0512	1035.574	1062.3183	1065.0668	1087.8639	1121.517	1137.9988	1152.6801	1176.3384	1236.1191	1241.3746	1250.5068	1267.7334	1283.3618	1325.8312	1332.327	1355.9486	1464.9322	1478.1211	1494.3952	1506.7685	1510.8127	1783.1161	2935.0989	2945.9828	3000.457	3013.5649	3016.0204	3051.1267	3061.0317	3091.1503	3107.2871	3836.9857
OCC1=C2COC2CC1	OC[C]1[C]2CO[C@H]2CC1	
InChI=1S/C7H10O2/c8-3-5-1-2-7-6(5)4-9-7/h7-8H,1-4H2	InChI=1S/C7H10O2/c8-3-5-1-2-7-6(5)4-9-7/h7-8H,1-4H2/t7-/m0/s1
