14
gdb 133570	3.16163	1.27514	1.26851	2.9685	53.96	-0.2532	0.065	0.3182	1000.7507	0.097635	-568.140969	-568.133631	-568.132687	-568.173808	27.295	
F	-0.3130701728	 0.232322305	-0.5441376839	-0.070616
C	-0.0009368146	 1.4234038545	-0.0211743821	 0.281684
F	 1.3081317925	 1.3999431043	 0.2792084013	-0.077182
F	-0.1640937608	 2.3394470379	-0.9945810094	-0.082962
C	-0.8115501744	 1.7984931229	 1.1898100183	-0.203333
C	-2.2657931591	 1.4723214467	 1.4596106704	-0.165926
C	-2.57214878	 0.0032316552	 1.1692806538	-0.09193
O	-1.4279504591	-0.4326998903	 1.9557933117	-0.276449
C	-1.1658119846	 0.9091369118	 2.3422390321	 0.084382
H	-0.5556730073	 2.8060131673	 1.5087217038	 0.126395
H	-2.9993016328	 2.2460331706	 1.6394018322	 0.11276
H	-3.5004680797	-0.3249327683	 1.6479876711	 0.117086
H	-2.5318097713	-0.3485973721	 0.1367022328	 0.127909
H	-0.862569906	 1.0948010343	 3.3662461179	 0.118183
36.9981	166.7144	199.2654	296.4232	326.3167	429.0565	483.9509	531.8149	600.2327	723.9118	759.917	797.4946	822.0557	858.0066	962.1278	969.5663	991.4445	1035.899	1058.8487	1078.935	1104.5632	1136.3995	1167.541	1173.2474	1187.8497	1265.7786	1302.2819	1318.3888	1371.5317	1467.1823	1516.2385	3050.7587	3119.4026	3153.3794	3182.6185	3210.6737
FC(F)(F)C1C2COC12	FC(F)(F)[C@H]1[C@H]2CO[C@@H]12	
InChI=1S/C5H5F3O/c6-5(7,8)3-2-1-9-4(2)3/h2-4H,1H2	InChI=1S/C5H5F3O/c6-5(7,8)3-2-1-9-4(2)3/h2-4H,1H2/t2-,3+,4-/m1/s1
