18
gdb 92986	2.92288	1.24667	1.05474	3.6873	77.03	-0.2255	0.0098	0.2353	1175.0357	0.148587	-398.148026	-398.139201	-398.138256	-398.18242	31.635	
C	-0.0243691282	 1.5655912924	 0.0798710677	-0.402473
C	-0.0321348278	 0.0362448084	 0.0074567559	 0.003598
C	 0.8784489171	-0.528043617	-1.1289452345	-0.176006
N	 2.0685195293	-1.1133090763	-0.4815197188	-0.265499
C	 1.8167838628	-1.1195935319	 0.7668193561	 0.074164
N	 0.5901793253	-0.6234747355	 1.1734248857	-0.045849
C	 0.2459752732	-0.3559312781	 2.5439568778	-0.319086
C	 0.8355490796	 0.8732391794	 3.1230846948	 0.265375
N	 1.3145249465	 1.8258871436	 3.5683213798	-0.303276
H	 0.9959969169	 1.9493594443	 0.1739909152	 0.143756
H	-0.4617281217	 1.9724641249	-0.8376159478	 0.12394
H	-0.6102903552	 1.9452772336	 0.9223770962	 0.1249
H	-1.0650288838	-0.3166090392	-0.0945067183	 0.086221
H	 0.3684301571	-1.3083838338	-1.7060086294	 0.114766
H	 1.1756639971	 0.2548974296	-1.8339955646	 0.11572
H	 2.4959767969	-1.5146596032	 1.5182626218	 0.129194
H	-0.8433820928	-0.2916641291	 2.6412530792	 0.163064
H	 0.5632128776	-1.1995134221	 3.1680434232	 0.16749
51.034	80.454	91.7308	218.3628	265.2126	277.5224	363.3799	368.6071	410.4081	477.1299	549.6917	697.2721	764.6152	831.1885	878.3342	891.2855	923.5097	956.9608	962.2572	970.9099	1058.8414	1102.6929	1129.0575	1189.2104	1235.5444	1250.6243	1286.2694	1321.4548	1356.0513	1369.5937	1379.2146	1410.394	1420.0792	1451.6368	1489.4229	1493.914	1498.7963	1698.0662	2353.5014	3023.8648	3036.8491	3039.7494	3040.5089	3074.5685	3080.4988	3107.7273	3119.1506	3174.8566
CC1CN=CN1CC#N	C[C@H]1C[N][CH]N1CC#N	
InChI=1S/C6H9N3/c1-6-4-8-5-9(6)3-2-7/h5-6H,3-4H2,1H3	InChI=1S/C6H9N3/c1-6-4-8-5-9(6)3-2-7/h5-6H,3-4H2,1H3/t6-/m0/s1
