18
gdb 119442	3.44772	0.98462	0.872	3.3839	74.23	-0.2408	-0.0196	0.2213	1365.1128	0.14647	-439.045325	-439.036509	-439.035565	-439.079622	31.883	
C	 0.5366865822	 1.3370855163	 0.0040263232	-0.223343
O	 0.8352228317	-0.0338923529	-0.12540362	-0.237757
C	 0.0713913854	-0.6695658425	-1.1252398964	-0.163655
C	 0.4134188424	-2.1267096678	-1.1224950957	 0.327268
C	 0.4633735909	-3.0475209078	 0.1090967183	-0.426065
C	 1.7020101949	-3.7146626779	-0.5587225707	 0.419934
O	 2.5120956715	-4.507932113	-0.1760583475	-0.306064
C	 1.5994084603	-2.8248116479	-1.7756383889	-0.201907
N	 0.229850908	-2.9012358523	-2.3268675413	-0.361953
H	 0.7420072615	 1.8886172068	-0.9265721937	 0.109092
H	-0.518262378	 1.5007945865	 0.274720306	 0.107292
H	 1.1722648993	 1.7347346018	 0.7983353198	 0.1326
H	-1.0079875532	-0.5382584265	-0.9299100666	 0.093795
H	 0.2739749752	-0.2489175126	-2.1227947641	 0.106641
H	 0.7703966986	-2.5415196817	 1.0284715057	 0.151537
H	-0.4256362236	-3.6555923073	 0.3033814446	 0.115427
H	 2.3899992216	-2.4534235048	-2.4163229351	 0.116135
H	-0.2141400888	-3.8022509965	-2.1573414375	 0.241021
71.2725	85.377	97.4944	187.5592	229.4009	293.2167	335.516	416.8049	462.9705	484.1704	580.7437	643.4294	697.7595	785.8333	841.6949	958.2068	971.2138	986.8245	1019.4585	1034.5221	1074.9142	1094.8929	1131.8506	1151.8056	1167.8807	1185.218	1207.9445	1220.974	1234.1572	1245.9497	1318.7204	1379.4536	1451.7974	1469.5257	1484.2043	1486.4013	1502.349	1521.8094	1887.0769	2946.7207	2974.7286	2998.1849	3020.3347	3054.7089	3117.2474	3120.3967	3196.2348	3464.1657
COCC12CC(=O)C1N2	COC[C@]12CC(=O)[C@H]1N2	
InChI=1S/C6H9NO2/c1-9-3-6-2-4(8)5(6)7-6/h5,7H,2-3H2,1H3	InChI=1S/C6H9NO2/c1-9-3-6-2-4(8)5(6)7-6/h5,7H,2-3H2,1H3/t5-,6-/m1/s1
