15
gdb 31877	4.94386	1.02007	0.85008	1.3113	71.87	-0.2362	-0.0426	0.1936	1273.9521	0.113857	-453.995116	-453.987193	-453.986249	-454.028224	29.063	
O	-0.0235973758	 1.4395268752	 0.0113629312	-0.417259
C	-0.0101001663	 0.0247275857	-0.0325455659	-0.153459
C	-1.4275841069	-0.4873266071	 0.0141039726	 0.275407
N	-1.5773124961	-1.8209506754	-0.0140461092	-0.286218
C	-2.8087352007	-2.3025454647	 0.0251926227	-0.088633
C	-3.9167458227	-1.4424007389	 0.094216383	 0.40451
O	-5.1563147801	-1.968504363	 0.1324354472	-0.414608
N	-3.7839686792	-0.1268581264	 0.1226391512	-0.342999
C	-2.5330493234	 0.3524550338	 0.0822265659	-0.057867
H	 0.884523215	 1.7507554345	-0.0256536057	 0.295379
H	 0.4692767223	-0.3514744603	-0.950141099	 0.111578
H	 0.5468229577	-0.4057644401	 0.8146619456	 0.111665
H	-2.9462804454	-3.3795255055	 0.0029454225	 0.123576
H	-5.7676906106	-1.2197666245	 0.1775304145	 0.300783
H	-2.4113414878	 1.4285677667	 0.1051730135	 0.138144
49.2777	123.5736	201.9587	215.4197	344.5014	377.3642	437.231	463.7405	497.1886	556.0344	576.5059	660.6826	764.3446	790.3404	895.2468	920.1831	963.906	1040.2377	1046.6595	1096.6098	1171.6229	1203.4613	1239.3441	1256.7103	1278.7426	1318.5398	1351.5632	1436.0452	1458.1858	1506.6312	1526.2049	1600.092	1641.2792	2973.4029	2997.4005	3174.321	3211.6955	3762.6495	3848.4531
OCC1=NC=C(O)N=C1	OCc1ncc(O)nc1	
InChI=1S/C5H6N2O2/c8-3-4-1-7-5(9)2-6-4/h1-2,8H,3H2,(H,7,9)	InChI=1S/C5H6N2O2/c8-3-4-1-7-5(9)2-6-4/h1-2,8H,3H2,(H,7,9)
