17
gdb 86925	3.73702	0.97869	0.83768	3.8596	73.82	-0.2487	0.0107	0.2594	1374.9561	0.135159	-455.15435	-455.145016	-455.144071	-455.189562	31.769	
C	 0.0922874483	 1.3556930068	-0.2300847465	-0.34647
N	-0.0023113016	-0.0751215382	-0.0984407991	-0.082728
C	-1.1532453838	-0.9780613811	 0.0247760359	-0.199923
C	-0.1405967364	-2.1493179326	 0.080742984	-0.03897
O	-0.321137161	-3.0812766203	-0.9637123799	-0.199415
C	 0.7290517613	-3.9070183967	-1.2105850828	 0.119134
N	 0.5974710557	-4.8234408507	-2.0657849986	-0.436684
C	 0.9496980538	-1.0563192783	-0.1333429011	 0.402586
O	 2.1449567861	-1.0422008027	-0.283615977	-0.376745
H	 1.1500303258	 1.6109371069	-0.3268916805	 0.166177
H	-0.4410817851	 1.7111246586	-1.1198252349	 0.137305
H	-0.3181500284	 1.8655685973	 0.6494290548	 0.134276
H	-1.7556255465	-0.8208040064	 0.925178488	 0.118017
H	-1.7956007165	-1.0100335256	-0.8605207102	 0.134891
H	-0.0783449281	-2.6491260327	 1.0537436148	 0.112718
H	 1.6236661834	-3.6664083878	-0.6265352102	 0.122961
H	 1.4684085131	-5.3440364067	-2.1489008969	 0.232869
58.2551	93.0625	105.4558	138.2562	152.2832	197.8687	246.3301	311.6027	374.5008	522.2039	559.1595	685.5188	773.0876	820.4686	828.0227	897.6971	982.4954	1007.9494	1045.0078	1064.5549	1091.9038	1127.1628	1168.8415	1187.3189	1209.5397	1263.6033	1283.9964	1300.4438	1372.773	1421.8946	1430.897	1450.7755	1482.1721	1508.4256	1529.382	1746.1119	1875.7349	3020.2118	3042.7653	3050.785	3074.0546	3075.808	3098.1581	3133.7095	3517.5708
CN1CC(OC=N)C1=O	CN1C[C@@H](O[CH][NH])C1=O	
InChI=1S/C5H8N2O2/c1-7-2-4(5(7)8)9-3-6/h3-4,6H,2H2,1H3	InChI=1S/C5H8N2O2/c1-7-2-4(5(7)8)9-3-6/h3-4,6H,2H2,1H3/t4-/m1/s1
