19
gdb 86717	3.29573	1.11312	0.94273	2.3732	75.71	-0.2414	-0.0199	0.2215	1251.1952	0.159633	-423.030327	-423.021928	-423.020984	-423.063732	31.971	
O	-0.0661419006	 1.4582453571	 0.1096417196	-0.433605
C	-0.0149626453	 0.0434507089	 0.0055444587	 0.122477
C	 0.6935763666	-0.6384115609	 1.2050169238	-0.307793
C	 0.0179273891	-2.0238780472	 1.3578739083	-0.07274
C	 0.0535150265	-2.5212856949	 2.785793557	 0.159827
O	 0.5831886794	-3.5380431227	 3.1540969781	-0.25201
C	-1.403583244	-1.7970248159	 0.8356588556	-0.062174
C	-2.1505338966	-0.570395062	 1.3083923815	-0.288105
C	-1.4142751589	-0.5399417649	-0.0043741766	-0.036253
H	 0.8284964063	 1.7987528406	 0.0093830705	 0.283468
H	 0.4878569662	-0.247687103	-0.930193038	 0.070841
H	 1.7749777548	-0.7223307822	 1.0707411036	 0.109294
H	 0.5249968341	-0.021213155	 2.0948275608	 0.116021
H	 0.5222254682	-2.7722259458	 0.7384396348	 0.092323
H	-0.4694307341	-1.8513561599	 3.5086530871	 0.070949
H	-1.97935586	-2.6694871345	 0.5489876676	 0.095611
H	-3.2325543808	-0.6143540989	 1.2610263655	 0.117706
H	-1.7731745953	 0.0157650321	 2.1382586808	 0.123308
H	-1.9852774157	-0.482191891	-0.9233918285	 0.090854
65.9703	100.5282	166.1835	249.9798	281.3501	352.5651	386.7161	401.3692	443.2009	554.1231	595.0734	664.4819	779.9632	830.8617	849.2262	922.8422	938.2103	960.9955	987.8143	997.491	1042.2347	1061.2864	1071.2343	1094.5508	1102.9785	1117.5432	1156.1388	1198.7673	1201.6368	1247.0998	1258.5933	1306.656	1317.3429	1344.0718	1353.1821	1394.6015	1426.784	1436.008	1485.1952	1510.4359	1830.5964	2854.286	2972.9733	3049.0361	3062.7648	3102.6344	3143.9188	3173.1865	3183.1836	3225.4269	3817.4707
OC1CC(C=O)C2CC12	O[C@H]1C[C@@H](C=O)[C@H]2C[C@@H]12	
InChI=1S/C7H10O2/c8-3-4-1-7(9)6-2-5(4)6/h3-7,9H,1-2H2	InChI=1S/C7H10O2/c8-3-4-1-7(9)6-2-5(4)6/h3-7,9H,1-2H2/t4-,5+,6+,7-/m0/s1
