22
gdb 17108	4.38415	1.42112	1.34727	0.0648	81.38	-0.289	0.0899	0.3788	1047.3853	0.203167	-313.068769	-313.061285	-313.06034	-313.100336	30.177	
C	-0.0332403971	 1.5757712845	-0.0200202909	-0.38115
C	-0.0634975056	 0.0437291025	-0.0353771227	-0.200228
C	 0.7232730781	-0.5656558353	-1.1989423381	 0.069694
C	 2.282313679	-0.3851449404	-1.1303298499	-0.225833
C	 2.7159078742	-1.8603086528	-1.2461847665	-0.007112
C	 1.7741857349	-2.3883290334	-2.3672456385	-0.22711
C	 0.6796208485	-2.1094981465	-1.2962123039	-0.027893
C	 1.7453556454	-2.5604043489	-0.2533204505	-0.221429
H	 0.9901649878	 1.9556164095	 0.069384974	 0.116916
H	-0.4574618399	 1.9878409311	-0.9426592346	 0.111783
H	-0.6100246447	 1.9768593181	 0.8192955512	 0.109321
H	 0.3248648535	-0.3374976828	 0.9174243348	 0.093233
H	-1.1064193119	-0.29519766	-0.0959088287	 0.089481
H	 0.3349355634	-0.1342398643	-2.1305891349	 0.059893
H	 2.6755512148	 0.2326228335	-1.9430065911	 0.091065
H	 2.6057118731	 0.0632970696	-0.1845826922	 0.091395
H	 3.7868580592	-2.0676696029	-1.246678654	 0.053595
H	 1.7270210428	-1.8312758071	-3.3087555982	 0.082671
H	 1.9106179365	-3.4540861238	-2.5661543291	 0.09137
H	-0.3077259801	-2.5717011744	-1.348026615	 0.051631
H	 1.8742333151	-3.6453636909	-0.2355249921	 0.09225
H	 1.6814937331	-2.1774390754	 0.769196551	 0.086457
104.4496	159.5939	193.8162	257.2357	360.3148	426.624	463.7487	522.2824	640.2542	769.6735	821.2915	832.6734	834.9046	853.999	865.7545	933.3424	941.1977	963.5276	978.0049	997.4924	1034.1079	1034.3657	1066.5413	1079.6067	1082.6962	1105.5412	1137.2062	1166.4369	1197.4755	1224.5475	1242.5604	1252.2574	1271.626	1289.5776	1299.7741	1316.8604	1325.8474	1363.5969	1397.0193	1410.4418	1483.756	1490.7686	1498.1429	1499.9969	1507.4692	1528.3986	3011.5279	3014.6755	3029.3103	3042.3111	3044.3702	3047.6728	3056.7536	3085.9707	3095.6613	3097.5844	3101.057	3103.1968	3108.8086	3114.4184
CCC1CC2CC1C2	CC[C@H]1C[C@@H]2C[C@H]1C2	
InChI=1S/C8H14/c1-2-7-3-6-4-8(7)5-6/h6-8H,2-5H2,1H3	InChI=1S/C8H14/c1-2-7-3-6-4-8(7)5-6/h6-8H,2-5H2,1H3/t6-,7-,8+/m0/s1
