14
gdb 77855	2.19823	1.63914	1.56866	5.7939	67.49	-0.2696	-0.0267	0.2429	942.91	0.1006	-432.815264	-432.807349	-432.806405	-432.84786	28.984	
O	 0.1201161035	 1.5019370845	-0.0089257609	-0.402378
C	 0.0072184239	 0.1121028351	-0.0212765336	-0.006838
C	-1.3575657842	-0.5934168353	-0.0133450291	-0.079824
C	-2.1299593462	-0.3969390642	-1.2608939156	-0.178992
C	-2.1142175317	 0.8152487976	-2.0461375001	 0.331432
N	-2.1697362724	 1.7671419859	-2.699092054	-0.327779
N	-1.000210219	-1.3783488322	-1.2762274901	-0.145979
C	 0.2096307498	-0.5643740519	-1.3836436739	 0.356856
N	 1.0323526694	-0.5819180055	-2.3244793779	-0.483776
H	 0.1269479117	 1.8146199064	 0.9015198017	 0.299247
H	 0.6599907351	-0.3687307772	 0.7220545808	 0.115519
H	-1.803133428	-1.0956348565	 0.8379502371	 0.120201
H	-3.0867500521	-0.9100128945	-1.3020387298	 0.156183
H	 1.7889538104	 0.0841073178	-2.1560280146	 0.246127
93.5262	119.4726	199.6124	224.519	268.2021	271.9376	457.5958	480.896	551.4439	609.0772	669.3959	697.9507	781.0795	835.1108	862.2983	910.4965	937.9989	959.5469	963.2528	1061.4742	1095.5225	1165.595	1185.1145	1211.6932	1269.461	1280.8374	1342.9416	1396.3965	1430.676	1822.7191	2361.6103	3004.7092	3158.1903	3185.0385	3473.4752	3819.3578
OC1C2C(C#N)N2C1=N	O[C@H]1[C@H]2[C@@H](C#N)N2[C]1[NH]	
InChI=1S/C5H5N3O/c6-1-2-3-4(9)5(7)8(2)3/h2-4,7,9H	InChI=1S/C5H5N3O/c6-1-2-3-4(9)5(7)8(2)3/h2-4,7,9H/t2-,3-,4+,8?/m1/s1
