21
gdb 92653	2.68722	1.55552	1.233	1.5461	78.47	-0.2432	0.0869	0.3301	1104.7862	0.184095	-424.223429	-424.215266	-424.214322	-424.256087	31.897	
C	 0.0597520499	 1.5763327125	-0.0900129897	-0.403687
C	 0.06978881	 0.0724917518	 0.050101698	 0.145996
O	 1.0039071138	-0.5797792864	-0.8506877093	-0.320457
C	 1.3920038538	-1.5066662834	 0.1888653004	 0.131013
C	 2.8832438501	-1.78781639	 0.254279676	-0.240533
C	 3.650712198	-0.6285779592	 0.9014512884	-0.20744
C	 2.9381579884	-0.204255301	 2.1830741651	-0.063763
O	 1.6427162787	 0.307238233	 1.9004335271	-0.261394
C	 0.7581420869	-0.5924371872	 1.2677332316	 0.039514
H	 1.0396637192	 1.98953296	 0.1519793861	 0.131772
H	-0.2023563946	 1.8481037539	-1.1173238449	 0.121972
H	-0.6831153696	 2.0184824751	 0.5819983409	 0.11619
H	-0.9398374251	-0.3408521444	-0.0980388821	 0.065371
H	 0.826047394	-2.4449914736	 0.086126707	 0.0647
H	 3.0326161022	-2.6988468892	 0.8488082787	 0.098023
H	 3.2467933135	-2.0027116848	-0.7566586695	 0.113115
H	 4.6820721051	-0.9242757188	 1.1220558647	 0.094027
H	 3.6875359652	 0.2298407539	 0.2224570653	 0.118252
H	 2.8770343612	-1.0528985019	 2.886556148	 0.082914
H	 3.466782999	 0.60863583	 2.6887048413	 0.108239
H	 0.1112590402	-1.0775391404	 2.0103841969	 0.066176
90.9073	131.5048	186.9159	239.2698	310.478	344.049	382.1529	450.0408	488.6626	517.5547	632.1472	776.692	785.7999	834.724	856.9759	889.075	900.1837	942.338	977.7727	1001.8877	1011.6886	1070.8583	1083.5929	1096.8613	1139.8479	1148.7721	1180.9407	1221.4266	1244.629	1248.2203	1289.5793	1303.4562	1345.0975	1352.3856	1358.2765	1375.3562	1383.9207	1401.1009	1409.6707	1424.9689	1464.2519	1476.7846	1482.5244	1493.8293	1504.8882	2956.5884	2978.3116	2983.0722	3016.8074	3025.825	3042.9451	3044.7641	3071.9188	3086.2932	3092.618	3109.0379	3148.2963
CC1OC2CCCOC12	C[C@H]1O[C@H]2CCCO[C@@H]12	
InChI=1S/C7H12O2/c1-5-7-6(9-5)3-2-4-8-7/h5-7H,2-4H2,1H3	InChI=1S/C7H12O2/c1-5-7-6(9-5)3-2-4-8-7/h5-7H,2-4H2,1H3/t5-,6+,7+/m1/s1
