18
gdb 115432	5.2109	0.82592	0.74799	2.0184	72.78	-0.2724	0.0249	0.2973	1462.29	0.14876	-439.100761	-439.091993	-439.091049	-439.135497	31.699	
O	 0.5009194604	 1.18010147	 0.5860754532	-0.419594
C	 0.2008326961	-0.1044446872	 0.0879559379	-0.072575
C	-1.2985513152	-0.3183117709	-0.0588676374	 0.116955
C	-1.7166652857	-1.733645573	-0.5309744156	-0.286466
C	-2.7532615635	-2.1885401797	 0.54007075	-0.143027
C	-3.0941769736	-0.8566041306	 1.2568052614	-0.097015
O	-1.8768088993	-0.1472901652	 1.2414307368	-0.270096
C	-3.9173460779	-2.8744254131	-0.004476732	 0.259839
N	-4.8503340734	-3.4048302683	-0.4338437286	-0.319153
H	-0.01258831	 1.2867934738	 1.3951539455	 0.295239
H	 0.68345234	-0.1898461732	-0.891404908	 0.114758
H	 0.6055271084	-0.9008550761	 0.7351422166	 0.08802
H	-1.7092562357	 0.4477478351	-0.7327405387	 0.088256
H	-2.1617134114	-1.7065421543	-1.5265985609	 0.13659
H	-0.8676971346	-2.4211391199	-0.5616146644	 0.126068
H	-2.268535361	-2.8548449414	 1.25975448	 0.135205
H	-3.884462859	-0.321629786	 0.7085641998	 0.115471
H	-3.4090203445	-0.9914678001	 2.2932777144	 0.131525
23.4519	112.9217	150.73	170.2559	228.3308	278.3575	372.3752	422.8879	465.1612	529.747	556.5238	574.614	674.2144	824.293	857.8402	901.0613	976.2382	1010.5956	1039.9382	1068.3307	1085.2707	1094.3805	1110.5716	1129.5819	1188.3821	1241.2154	1255.2215	1294.433	1298.6742	1330.1732	1337.4963	1359.8558	1390.8893	1406.8872	1438.6672	1493.6136	1498.2945	1516.1877	2359.1335	2965.6257	2995.0728	3002.1373	3067.012	3074.4471	3078.2578	3117.1578	3129.1741	3802.2818
OCC1CC(CO1)C#N	OC[C@H]1C[C@@H](CO1)C#N	
InChI=1S/C6H9NO2/c7-2-5-1-6(3-8)9-4-5/h5-6,8H,1,3-4H2	InChI=1S/C6H9NO2/c7-2-5-1-6(3-8)9-4-5/h5-6,8H,1,3-4H2/t5-,6-/m1/s1
