15
gdb 128108	2.23653	1.57155	0.93074	5.7398	76.04	-0.2187	0.0052	0.2239	1188.3774	0.1149	-413.023147	-413.014709	-413.013765	-413.056623	30.089	
C	-0.036882918	 1.4414890446	 0.1094552969	-0.347809
N	-0.026768316	 0.0178339903	-0.1683006563	-0.397947
C	-1.1549802375	-0.7384336723	-0.0576743563	 0.41486
C	-1.3036443606	-2.1313464083	-0.0053460049	 0.002705
C	-2.7108114411	-2.3331920515	 0.0553156848	-0.075614
N	-3.3810294026	-1.2007048976	 0.0467390411	-0.231626
N	-2.4088102227	-0.2357996707	-0.0180722198	-0.276169
C	-0.2473676766	-3.0611358203	-0.0047503417	 0.174802
N	 0.6535295952	-3.7929923742	-0.0012665682	-0.371415
H	 0.9770868883	 1.8280560426	-0.0013407782	 0.15107
H	-0.6670334533	 1.9697097399	-0.6159739636	 0.138653
H	-0.3929973212	 1.6807116217	 1.1222315818	 0.133233
H	 0.8270871945	-0.4796199017	 0.0311788628	 0.272017
H	-3.2324559904	-3.2771135092	 0.1057771916	 0.135012
H	-2.686113258	 0.7295795067	-0.04583095	 0.278228
83.9449	111.861	156.7724	177.5308	224.3862	298.9184	394.9507	447.7992	470.1567	542.8148	549.5595	634.3501	660.8228	732.6225	745.0829	898.3979	945.5504	1069.7179	1084.2994	1148.0809	1166.0091	1221.0202	1235.7369	1340.0036	1357.159	1429.3151	1466.0849	1487.4643	1504.6063	1526.7446	1579.8037	1647.4633	2328.0784	2995.9368	3058.7453	3138.5935	3256.9784	3627.9754	3689.9292
CNC1=C(C=NN1)C#N	CNc1c(cn[nH]1)C#N	
InChI=1S/C5H6N4/c1-7-5-4(2-6)3-8-9-5/h3H,1H3,(H2,7,8,9)	InChI=1S/C5H6N4/c1-7-5-4(2-6)3-8-9-5/h3H,1H3,(H2,7,8,9)
