21
gdb 39387	2.27079	2.10203	1.39619	2.3307	80.63	-0.2572	0.0693	0.3266	997.1874	0.185852	-387.050463	-387.043338	-387.042394	-387.081446	30.43	
C	-0.0405262621	 1.5188920541	-0.1173132852	-0.295653
C	 1.5005209672	 1.3529263726	 0.0315501539	-0.005113
C	 1.2028963026	 0.0642238223	 0.8889025798	-0.312559
C	-0.0196571216	-0.002526895	-0.0246269181	 0.429941
O	-1.0656976062	-0.907513828	-0.2979706289	-0.328988
C	 0.0533518335	-0.8231488962	-1.2224993933	 0.000088
C	 0.0259439294	-0.0964137137	-2.5437937185	-0.265142
C	 1.25715338	 0.8849500587	-2.6090206754	-0.199453
C	 2.1648801024	 1.023039489	-1.3443712363	-0.204843
H	-0.4839256027	 1.9665841773	 0.7770452679	 0.098504
H	-0.4404483713	 2.0083002398	-1.0047544252	 0.099414
H	 2.035124422	 2.1487142699	 0.5530664292	 0.068726
H	 1.9191509348	-0.7603930769	 0.8536697871	 0.097351
H	 0.977908712	 0.32750025	 1.9269987358	 0.100052
H	 0.6839078086	-1.7116127501	-1.1799511013	 0.091045
H	 0.0469699114	-0.7924414169	-3.3876522564	 0.099423
H	-0.9086294048	 0.4650654905	-2.623083132	 0.118526
H	 1.9162993712	 0.5784201382	-3.4278316387	 0.100891
H	 0.8953149672	 1.8805274033	-2.8867552318	 0.108346
H	 2.8846644747	 1.8149516606	-1.5792732751	 0.098168
H	 2.7638192917	 0.1107148704	-1.2343546976	 0.101277
177.1037	217.4897	341.5325	356.8484	375.6627	416.1622	455.085	511.4358	559.0863	617.5866	739.9883	755.2783	827.1566	847.6204	850.9555	895.3976	902.1338	950.8858	966.8303	987.3124	1014.2467	1033.2473	1049.2656	1091.893	1103.6836	1114.7633	1145.8903	1168.7543	1187.8101	1203.8751	1223.1036	1251.0877	1272.2352	1276.6789	1314.9708	1338.9541	1359.2189	1370.1766	1376.8573	1480.5862	1487.1186	1494.984	1501.472	1516.9071	1530.5372	3026.0804	3038.6506	3049.4497	3055.3159	3062.0592	3064.5483	3074.1322	3092.2322	3094.8376	3109.9398	3113.1934	3139.1824
C1C2CC11OC1CCC2	C1[C@H]2C[C@]31O[C@H]3CCC2	
InChI=1S/C8H12O/c1-2-6-4-8(5-6)7(3-1)9-8/h6-7H,1-5H2	InChI=1S/C8H12O/c1-2-6-4-8(5-6)7(3-1)9-8/h6-7H,1-5H2/t6-,7-,8-/m0/s1
