16
gdb 28262	4.78807	1.21103	0.98257	2.4356	71.	-0.1927	0.0507	0.2434	1142.874	0.128353	-434.092168	-434.084718	-434.083774	-434.124168	28.387	
O	 0.131696086	 1.277989679	 0.146177352	-0.425033
C	 0.0812952554	-0.0588849054	 0.0156165353	 0.415798
N	 0.0872514698	-0.7372326881	-1.1048598325	-0.450306
C	 0.0678436026	-2.0524399405	-0.6721481085	 0.261307
C	 0.0498717719	-2.1436781115	 0.6773644165	 0.26581
C	-0.1411897358	-3.5421992875	 1.1633019509	-0.290503
N	-0.0400212916	-4.3258113281	-0.106148493	-0.302242
C	-0.077063771	-3.4093299756	-1.2898746339	-0.289007
N	 0.0353852183	-0.8349719582	 1.1413776946	-0.42749
H	 0.1680425591	 1.6327230735	-0.7511340016	 0.315005
H	 0.609446887	-3.8923763321	 1.8837917416	 0.101644
H	-1.1249429662	-3.6934406303	 1.6341144196	 0.111183
H	 0.8540304562	-4.7989142472	-0.106230824	 0.223319
H	-1.0295438967	-3.5157646976	-1.8285161625	 0.11368
H	 0.717583966	-3.673578041	-1.9977124287	 0.106453
H	 0.0744867391	-0.4931757294	 2.0860516642	 0.270381
95.1725	142.6413	247.0349	293.8587	307.5496	404.608	458.1171	517.7001	531.5104	660.1858	719.8655	732.373	739.8727	762.3126	867.179	892.4574	1023.5615	1031.4661	1052.6361	1055.97	1137.5171	1174.5404	1185.7763	1218.8166	1242.2916	1300.6966	1330.5383	1402.8963	1444.4577	1468.6016	1514.0086	1520.9038	1530.9873	1609.1961	1645.545	2975.6466	2998.1832	3020.3233	3041.3865	3560.2899	3676.9199	3805.0737
OC1=NC2=C(CNC2)N1	Oc1nc2c(CNC2)[nH]1	
InChI=1S/C5H7N3O/c9-5-7-3-1-6-2-4(3)8-5/h6H,1-2H2,(H2,7,8,9)	InChI=1S/C5H7N3O/c9-5-7-3-1-6-2-4(3)8-5/h6H,1-2H2,(H2,7,8,9)
