15
gdb 128543	2.09093	1.81419	1.01132	1.3996	63.97	-0.2058	0.0465	0.2523	1111.505	0.112226	-491.079041	-491.070099	-491.069155	-491.1127	32.099	
C	-0.2623853369	 1.4240924044	 0.076882004	-0.256937
O	 0.2709890905	 0.1179709796	-0.1426803136	-0.296203
C	 0.7355543291	-0.498716961	 0.9856275829	 0.041403
C	 2.0198650521	-0.9855644583	 1.1321602488	 0.383477
O	 3.074986225	-0.9560986951	 0.2968622587	-0.433844
N	 2.0934880383	-1.5775985858	 2.3400616675	-0.281461
N	 0.9052609119	-1.5067143678	 3.0230400299	-0.344684
C	 0.0986935516	-0.8631249402	 2.197231094	 0.342715
O	-1.1837535375	-0.5836782692	 2.5176988457	-0.434477
H	 0.499151988	 2.0975302621	 0.491481688	 0.111689
H	-0.5880145828	 1.7951888023	-0.8972623059	 0.12736
H	-1.117622219	 1.3881924559	 0.7599848527	 0.14403
H	 2.7771788251	-0.520463744	-0.5121830016	 0.315023
H	 2.8736332118	-2.0681383243	 2.738142206	 0.279051
H	-1.3342329273	-0.9369978485	 3.4040953427	 0.302858
74.4817	151.6723	169.3318	199.3854	233.6831	263.1013	305.7763	377.3091	386.6604	432.0354	467.3213	584.1779	587.3061	663.4742	717.3721	743.9414	806.9606	1044.3103	1075.0031	1134.5363	1181.28	1188.0988	1219.032	1228.1504	1311.7667	1380.8063	1473.2309	1481.5607	1487.426	1509.5962	1576.6522	1616.296	1686.4919	3010.9897	3084.9057	3129.7441	3700.0186	3786.912	3790.7026
COC1=C(O)NN=C1O	COc1c(O)[nH]nc1O	
InChI=1S/C4H6N2O3/c1-9-2-3(7)5-6-4(2)8/h1H3,(H3,5,6,7,8)	InChI=1S/C4H6N2O3/c1-9-2-3(7)5-6-4(2)8/h1H3,(H3,5,6,7,8)
