19
gdb 73452	2.28331	1.87768	1.55794	2.1089	74.3	-0.2281	0.0696	0.2978	970.2253	0.159748	-422.994899	-422.987004	-422.98606	-423.026658	31.607	
C	-0.0801174422	 1.4283886523	 0.0262253067	-0.492298
C	-0.0111876459	-0.0773941667	-0.0267271566	 0.264393
C	 1.0099883235	-0.7534476305	-0.9429708908	-0.149337
O	 0.4319482859	-2.0123709521	-1.3131228974	-0.263259
C	-0.6122234758	-2.2629753277	-0.3868404244	 0.013024
C	-0.0829160147	-2.3340467516	 1.0856991527	-0.257137
C	-0.4386030282	-0.8551237098	 1.2363088696	-0.205097
C	-1.2604795003	-0.8894466311	-0.0513727805	 0.330168
O	-2.4853576733	-0.3766977935	-0.4156488999	-0.460107
H	 0.8352546366	 1.8550979732	 0.4510498579	 0.117674
H	-0.2146395216	 1.8497910446	-0.9757228058	 0.125816
H	-0.9233327033	 1.7598916449	 0.6383998412	 0.126353
H	 1.1808159536	-0.167923801	-1.8545376637	 0.103519
H	 1.9815059236	-0.9088354877	-0.452377221	 0.094455
H	-1.2231818238	-3.0860991507	-0.7567889403	 0.082274
H	-0.7091675628	-2.9698920635	 1.7189531431	 0.096267
H	 0.9633184414	-2.6374887081	 1.1914200258	 0.099764
H	-0.6247441558	-0.3204793631	 2.1611641812	 0.084626
H	-3.1739969669	-0.8515299181	 0.0619814622	 0.288902
183.9122	195.9089	217.0682	229.4817	312.7227	336.6939	353.0692	436.7705	504.182	561.7108	656.8336	675.8493	717.0102	804.7437	845.0952	910.7627	927.7048	942.8845	980.1183	990.4985	1002.4312	1050.1508	1073.9291	1095.6898	1129.3816	1135.261	1164.1124	1210.1302	1227.1137	1244.1666	1269.6431	1282.8784	1301.5332	1344.7383	1384.4821	1419.486	1472.5085	1489.0286	1491.7981	1509.5983	1528.2527	2997.164	3031.3515	3043.0746	3045.7252	3090.8671	3094.1827	3112.4701	3123.9721	3174.5405	3798.7994
CC12COC3CC1C23O	C[C@@]12CO[C@H]3C[C@@H]1[C@@]23O	
InChI=1S/C7H10O2/c1-6-3-9-5-2-4(6)7(5,6)8/h4-5,8H,2-3H2,1H3	InChI=1S/C7H10O2/c1-6-3-9-5-2-4(6)7(5,6)8/h4-5,8H,2-3H2,1H3/t4-,5-,6+,7-/m0/s1
