15
gdb 123392	7.45189	0.80063	0.7262	2.2762	74.34	-0.2224	0.025	0.2474	1469.2948	0.112693	-416.778817	-416.770564	-416.76962	-416.81244	30.021	
C	-0.0192794098	-1.1439465265	-0.00409338	-0.407803
C	 0.0215776765	 0.0559387094	 0.0027969414	 0.299045
C	 0.0254211125	 1.5102411995	 0.0116676065	-0.243233
O	 1.3807841551	 1.9715344749	-0.0014489952	-0.270405
C	 1.5250063278	 3.3099779912	 0.0050909134	 0.469417
N	 0.496339902	 4.1479212101	 0.0223389977	-0.309527
N	 1.0828411849	 5.3718151504	 0.0229844411	-0.219646
C	 2.4336997793	 5.3096926224	 0.006712765	 0.005557
C	 2.7736154791	 3.9752532013	-0.005492048	-0.337992
H	-0.050167694	-2.2053918992	-0.0102583664	 0.199648
H	-0.5091149706	 1.9087432053	-0.8601436409	 0.144374
H	-0.4884004877	 1.8979485543	 0.900631839	 0.144374
H	 0.497992029	 6.1882276063	 0.0348592765	 0.274772
H	 3.0417882518	 6.200689948	 0.0050488934	 0.138062
H	 3.756256324	 3.5364198925	-0.0197390333	 0.113357
46.8175	105.6386	115.4377	235.203	320.4537	346.2478	401.5362	422.4028	517.736	606.5776	649.1096	679.694	718.9838	766.3972	774.5823	834.7134	937.2284	978.0802	994.1836	1018.6367	1051.8264	1070.7782	1117.1362	1223.2468	1248.7857	1311.1079	1385.5461	1413.9989	1489.8204	1492.21	1532.1468	1590.5773	2250.4934	3020.7738	3049.9711	3259.0963	3288.9188	3506.515	3693.8929
C#CCOC1=NNC=C1	C#CCOc1n[nH]cc1	
InChI=1S/C6H6N2O/c1-2-5-9-6-3-4-7-8-6/h1,3-4H,5H2,(H,7,8)	InChI=1S/C6H6N2O/c1-2-5-9-6-3-4-7-8-6/h1,3-4H,5H2,(H,7,8)
