23
gdb 122451	4.69172	0.62413	0.5974	1.0782	84.38	-0.2522	0.0912	0.3433	1975.303	0.202123	-425.408624	-425.397492	-425.396547	-425.445747	39.275	
C	-0.3653506552	 1.3318141626	 0.2566639426	-0.228698
O	 0.1411051137	 0.0500318809	-0.0246257386	-0.232354
C	 0.6148192241	-0.616354448	 1.124907868	-0.040518
C	 1.1152960644	-1.996324265	 0.7080673385	-0.252581
C	 1.6871965058	-2.7530752227	 1.8816418088	 0.008577
O	 0.7669515734	-3.2345180313	 2.8744842509	-0.301478
C	 1.5426343864	-4.1995795932	 2.1401021076	 0.395039
C	 0.7528590265	-5.1109507152	 1.2256972899	-0.455216
C	 2.6053676358	-4.8984099889	 2.963690939	-0.451127
H	 0.4040915241	 1.9899972401	 0.6916762376	 0.101764
H	-0.7061676223	 1.7647061696	-0.6871657598	 0.12532
H	-1.2149054695	 1.2923074609	 0.9570308167	 0.104434
H	 1.4281551804	-0.0373559637	 1.597710401	 0.080863
H	-0.1862001272	-0.7204171791	 1.8748348259	 0.104328
H	 0.2884327098	-2.5418144297	 0.2474644789	 0.111766
H	 1.8930197785	-1.8741338636	-0.0559250103	 0.108779
H	 2.5714675062	-2.2780734066	 2.317022485	 0.078741
H	-0.05484562	-4.5808302645	 0.7199255341	 0.130873
H	 1.4049440658	-5.5615961016	 0.4695356642	 0.120114
H	 0.3067437096	-5.9253575077	 1.8070954136	 0.123903
H	 2.1530618038	-5.6751391658	 3.5901166284	 0.123712
H	 3.3464028377	-5.3803450732	 2.316624153	 0.118677
H	 3.1204123783	-4.190389164	 3.6174605748	 0.12508
43.2957	77.6644	91.3592	113.3407	156.7026	195.9697	226.8284	252.2044	259.3268	282.941	371.9111	421.7958	425.3286	522.2639	536.1231	703.299	787.0059	823.6463	904.897	944.4249	978.0715	995.5157	1011.4638	1053.5629	1099.4924	1135.886	1140.6595	1154.7494	1166.2672	1184.2889	1229.0713	1236.5246	1265.1853	1306.2585	1311.3462	1359.089	1409.1895	1419.109	1423.2137	1467.7169	1473.1646	1479.3755	1482.0768	1485.5822	1488.039	1502.529	1505.1905	1522.1029	1533.422	2944.8522	2968.3768	2988.6378	3010.1591	3032.5281	3038.4639	3042.2763	3058.7909	3093.259	3098.4864	3109.669	3111.8463	3122.8667	3142.9936
COCCC1OC1(C)C	COCC[C@H]1OC1(C)C	
InChI=1S/C7H14O2/c1-7(2)6(9-7)4-5-8-3/h6H,4-5H2,1-3H3	InChI=1S/C7H14O2/c1-7(2)6(9-7)4-5-8-3/h6H,4-5H2,1-3H3/t6-/m1/s1
