19
gdb 73442	2.79216	1.88033	1.46101	1.1647	78.37	-0.2146	0.0167	0.2314	946.2105	0.161735	-385.891411	-385.884395	-385.883451	-385.922233	29.774	
O	-0.0553395056	 1.3637390117	-0.0009248322	-0.477796
C	 0.0333769067	-0.0298791112	-0.0246413629	 0.406657
C	 1.0447731997	-0.6827962289	-0.9747360468	-0.29571
C	 0.2277725762	-1.7734215574	-1.7153958432	-0.191989
C	-0.8834082011	-2.165551934	-0.7004971517	-0.095748
C	-0.2504136639	-2.9582398378	 0.4353347032	-0.084849
C	 0.0439885613	-2.171471406	 1.4733979658	-0.085411
C	-0.430675027	-0.7779093245	 1.2415792308	-0.151115
C	-1.2417373917	-0.8101013581	-0.043453568	-0.121064
H	 0.6973453321	 1.7016778261	 0.4962289854	 0.280744
H	 1.4331491883	 0.0757501465	-1.6593623731	 0.102182
H	 1.8949306879	-1.1197904706	-0.4413877465	 0.099596
H	-0.2368319427	-1.348849234	-2.6125617832	 0.099429
H	 0.8403996363	-2.6251995646	-2.0290305897	 0.090977
H	-1.7222366829	-2.6771770528	-1.1804111976	 0.068838
H	 0.0352699236	-3.9987773595	 0.3278120293	 0.091571
H	 0.5779037158	-2.4748157034	 2.3668273273	 0.090903
H	-0.7401781388	-0.1430596115	 2.0654314461	 0.081845
H	-2.213186474	-0.3417124902	-0.1386275529	 0.090939
197.5758	238.008	282.7182	313.0015	384.6537	414.7367	514.64	562.7611	626.1597	708.3522	731.3077	780.3782	801.7125	835.1525	848.9989	892.1384	908.7392	931.5625	949.1028	960.6184	981.859	998.8402	1031.6675	1045.6154	1063.9599	1125.3326	1128.0041	1177.1903	1199.4527	1253.7828	1261.2895	1274.8743	1292.2975	1294.6069	1329.2811	1337.4292	1372.0258	1430.9683	1477.8507	1492.6165	1659.2824	3034.4582	3049.9588	3068.7082	3080.213	3101.6049	3163.696	3184.0556	3192.8634	3209.3259	3798.1038
OC12CCC3C=CC1C23	O[C@@]12CC[C@H]3C=C[C@@H]1[C@@H]23	
InChI=1S/C8H10O/c9-8-4-3-5-1-2-6(8)7(5)8/h1-2,5-7,9H,3-4H2	InChI=1S/C8H10O/c9-8-4-3-5-1-2-6(8)7(5)8/h1-2,5-7,9H,3-4H2/t5-,6-,7+,8+/m1/s1
