17
gdb 38199	2.75356	1.98745	1.42825	1.8601	82.35	-0.2063	-0.05	0.1564	924.9984	0.137728	-384.636607	-384.629852	-384.628908	-384.667266	28.101	
C	 0.0836194128	 2.0738766462	-0.1748013338	-0.305806
C	 1.3163748506	 1.2872293573	 0.3084159405	 0.038834
O	 0.4112657757	 0.5240725643	 1.2238227453	-0.292202
C	-0.543036552	 0.7767903666	 0.2225097592	 0.340496
C	-1.3008025698	-0.114762752	-0.4171162044	-0.265501
C	-1.2970908403	-0.0362531736	-1.8765693226	-0.109979
C	-0.1156262559	 0.1001476465	-2.5300617154	-0.091851
C	 1.8704859684	 0.488538891	-0.8561882169	-0.083222
C	 1.2635108852	 0.1026157323	-2.0041483132	-0.053978
H	-0.1717863235	 2.8578677429	 0.5426355728	 0.122912
H	 0.0307285795	 2.4271889029	-1.2002407675	 0.128236
H	 2.0937510184	 1.781456917	 0.8936416052	 0.088986
H	-1.5497443999	-1.0580289875	 0.0640937107	 0.109022
H	-2.19586263	-0.217947635	-2.4626187327	 0.094988
H	-0.1515380991	 0.0767708177	-3.6187472475	 0.089019
H	 2.9358104928	 0.2806562906	-0.7919309538	 0.093259
H	 1.951059107	-0.3282412972	-2.7335813759	 0.096787
196.2961	245.5674	268.8829	356.6201	423.7739	442.7211	526.2131	605.5227	642.0504	700.2003	737.881	778.2884	804.5897	818.1079	837.9353	871.2452	915.432	948.5446	986.9609	1004.3271	1015.3426	1041.0147	1074.886	1091.671	1106.2291	1203.8003	1229.4039	1254.3735	1297.3189	1325.394	1355.2481	1421.151	1446.2814	1480.3333	1596.1596	1647.692	1718.3757	3075.332	3098.9535	3104.7611	3126.2211	3144.3548	3150.4877	3156.9813	3182.7643
C1C2OC11C=CC3C2C13	C1[C@H]2O[C]1[CH]C=CC=C2	
InChI=1S/C8H8O/c1-2-8-3-5(9-8)6-4(1)7(6)8/h1-2,4-7H,3H2	InChI=1S/C8H8O/c1-2-4-7-6-8(9-7)5-3-1/h1-5,7H,6H2/b3-1-,4-2-,8-5?/t7-/m0/s1
