18
gdb 52442	4.72724	0.59082	0.54755	3.5663	77.22	-0.2505	0.0207	0.2712	1944.8778	0.145118	-439.059993	-439.049782	-439.048838	-439.097349	34.83	
O	-0.0375494811	 0.4402771413	-0.9460809506	-0.326193
C	 0.0359772793	 1.2407846198	-0.0369501915	 0.156637
N	 1.1643521664	 1.5397940363	 0.6573541229	-0.268942
C	 2.4582333469	 0.9556198224	 0.3596782137	-0.169867
C	 3.5044574254	 2.0332928999	 0.120971142	-0.054672
O	 3.5651696003	 2.8270660713	 1.293416566	-0.255649
C	 4.4608042744	 3.9174622256	 1.1758686469	-0.20378
C	 4.4438496663	 4.7076211808	 2.3991946308	 0.276015
C	 4.4457985035	 5.3759396112	 3.396617584	-0.410095
H	-0.8344633002	 1.8206206818	 0.3289152628	 0.074521
H	 1.1333543032	 2.2494585362	 1.3723585746	 0.258443
H	 2.7867394694	 0.3132049416	 1.186253436	 0.121213
H	 2.335333618	 0.3347375462	-0.530169961	 0.150284
H	 4.483047418	 1.5725637398	-0.0900980562	 0.097198
H	 3.2248604153	 2.652021967	-0.7468373291	 0.102497
H	 5.4835853363	 3.5535966001	 0.9806782228	 0.124012
H	 4.1824198849	 4.5526731998	 0.3179095613	 0.123649
H	 4.4465526837	 5.963933719	 4.2811046347	 0.204729
29.5877	40.8897	81.8463	117.7445	147.3302	223.6002	251.4209	295.2965	332.4375	364.5245	499.5545	559.4656	579.8982	613.6542	681.9013	760.2086	858.9639	922.0086	977.0059	1028.3552	1033.1149	1047.4953	1086.3661	1131.4881	1142.7244	1216.0655	1247.9715	1259.7263	1287.66	1374.9061	1395.8199	1429.3355	1443.5607	1484.0938	1495.8901	1518.1744	1529.8281	1804.0819	2249.1382	2938.1255	2957.658	2971.2665	2979.0935	3003.5747	3035.6574	3125.7044	3505.7197	3639.288
O=CNCCOCC#C	O=CNCCOCC#C	
InChI=1S/C6H9NO2/c1-2-4-9-5-3-7-6-8/h1,6H,3-5H2,(H,7,8)	InChI=1S/C6H9NO2/c1-2-4-9-5-3-7-6-8/h1,6H,3-5H2,(H,7,8)
