16
gdb 98807	2.86784	1.24993	0.92572	1.5642	66.24	-0.2612	-0.0078	0.2533	1228.4835	0.124216	-475.07924	-475.070359	-475.069415	-475.11402	30.597	
C	 0.0944972416	 1.3832621211	-0.2048854432	-0.335118
N	-0.1381978761	-0.0481258885	-0.2632914137	-0.31332
C	-1.2623615216	-0.6246866565	 0.2300321172	 0.39696
O	-2.1764302452	-0.0339074756	 0.7744738959	-0.375327
C	-1.2839359168	-2.146738186	 0.0739674504	-0.31669
C	-2.6199567837	-2.8014562776	-0.3008047886	-0.087304
O	-2.0222720625	-3.2939388779	-1.5565380719	-0.237011
C	-0.8264228233	-2.7071186693	-1.272199814	 0.463768
O	 0.1611095834	-2.6625561977	-1.9398620074	-0.339444
H	 1.0604466247	 1.601969011	 0.2612681471	 0.131843
H	 0.0778137642	 1.8308533435	-1.2046841133	 0.135302
H	-0.7030378998	 1.8240880673	 0.3938204668	 0.170994
H	 0.4982658521	-0.6303036753	-0.7899722895	 0.270508
H	-0.7685318238	-2.6031212052	 0.9228758043	 0.146937
H	-2.9506695245	-3.6363933227	 0.3169787856	 0.134004
H	-3.4354269486	-2.1072112506	-0.501695706	 0.153895
59.7876	79.6166	109.8821	128.069	172.3826	270.3084	306.0209	396.7203	480.4591	559.1023	618.7345	665.7611	766.9946	787.0569	854.1319	921.7023	964.215	1011.818	1071.4568	1110.9912	1143.0593	1147.724	1153.3131	1177.0938	1188.6092	1259.2439	1300.839	1345.846	1443.1606	1497.047	1500.1093	1517.9885	1584.9894	1788.1584	1912.9799	3034.6924	3090.1579	3091.362	3097.4424	3157.3147	3165.6383	3592.5656
CNC(=O)C1COC1=O	CNC(=O)[C@H]1COC1=O	
InChI=1S/C5H7NO3/c1-6-4(7)3-2-9-5(3)8/h3H,2H2,1H3,(H,6,7)	InChI=1S/C5H7NO3/c1-6-4(7)3-2-9-5(3)8/h3H,2H2,1H3,(H,6,7)/t3-/m1/s1
