18
gdb 56347	3.47751	0.9683	0.93322	4.9063	81.32	-0.2484	-0.0415	0.2069	1328.0243	0.14646	-398.129441	-398.120012	-398.119068	-398.163503	35.219	
C	-0.0838453058	 1.5734895766	 0.1940756772	-0.446106
C	-0.0182715481	 0.0649122948	 0.0223945675	 0.324565
C	 1.2916396072	-0.5850495485	-0.4074093108	-0.323851
C	 0.7736794448	-0.7351809641	 1.0100993778	-0.303013
N	-1.2650395764	-0.5241964573	-0.4133324016	-0.303226
C	-1.5617256267	-0.4527687822	-1.6534861029	 0.254132
N	-0.8528663196	 0.1402854713	-2.6772964739	-0.547035
C	-2.8281392094	-1.0269201504	-2.076483285	 0.268126
N	-3.8227607162	-1.4818762632	-2.4496306711	-0.318869
H	 0.8651670215	 1.959048592	 0.5778805776	 0.117368
H	-0.302057029	 2.0815907855	-0.7510687374	 0.121732
H	-0.8732320779	 1.8355941496	 0.9053096597	 0.137164
H	 1.240964665	-1.4627354791	-1.0431934515	 0.1182
H	 2.1585220101	 0.0463598505	-0.5775555861	 0.112736
H	 1.2919392513	-0.2089846809	 1.8043642428	 0.112581
H	 0.3713518518	-1.7025953847	 1.2882285311	 0.127287
H	 0.1274401555	 0.2998969022	-2.4991666671	 0.275916
H	-1.0873220782	-0.1239273423	-3.6212464764	 0.272295
84.2881	100.7796	135.28	208.6667	230.7806	307.2984	314.0876	329.3279	413.4267	421.159	489.0488	506.3076	525.2932	601.8531	726.4448	731.2931	791.7153	847.487	853.3794	931.7826	947.4782	955.3161	1034.7853	1058.9977	1080.7014	1121.8528	1125.084	1192.8223	1287.3676	1331.1136	1342.7872	1412.8451	1457.9025	1484.3204	1494.021	1507.8483	1625.8967	1701.3099	2359.9609	3035.4765	3102.3539	3113.0575	3121.5498	3135.9893	3207.0656	3228.8037	3576.6246	3695.3412
CC1(CC1)N=C(N)C#N	CC1(CC1)N=C(N)C#N	
InChI=1S/C6H9N3/c1-6(2-3-6)9-5(8)4-7/h2-3H2,1H3,(H2,8,9)	InChI=1S/C6H9N3/c1-6(2-3-6)9-5(8)4-7/h2-3H2,1H3,(H2,8,9)
