18
gdb 83439	3.06021	1.26192	1.10844	0.8154	71.33	-0.2395	0.0536	0.2931	1139.5394	0.147976	-438.995544	-438.987434	-438.98649	-439.028735	30.855	
O	-0.2723376543	 1.5410037855	-0.0227727044	-0.438249
C	-0.2075239066	 0.1551921242	-0.1223823956	 0.056677
C	-0.3673994703	-0.7221320901	 1.0740842584	-0.027373
O	-1.2445833522	-0.0699340025	 2.0002298992	-0.306268
C	-2.3422335761	-0.1615661951	 1.0432552204	-0.145985
C	-1.4296817983	-0.7513125759	-0.0317425358	 0.233289
C	-1.8597214742	-1.7740767834	-1.0200294167	-0.142642
C	-2.4014728892	-1.3506183785	-2.342348513	-0.232739
N	-1.1072562065	-2.0430898329	-2.2558378094	-0.317793
H	-0.4616579333	 1.7318277372	 0.9065464198	 0.298319
H	 0.5461762993	-0.1722243016	-0.8345402823	 0.107977
H	 0.3388751858	-1.4459628003	 1.4658779183	 0.111672
H	-3.1005054363	-0.8622316355	 1.4075546253	 0.118673
H	-2.7965421924	 0.8128836788	 0.8338672128	 0.116501
H	-2.2737424758	-2.6799669195	-0.5788695539	 0.094455
H	-3.1990439664	-1.9197884687	-2.8112063608	 0.120454
H	-2.4054863707	-0.2862499022	-2.5622597005	 0.121219
H	-0.3578063724	-1.3641855994	-2.3629114118	 0.231811
49.4507	132.309	195.4747	233.1765	259.5536	349.2384	416.3843	444.4233	498.6124	624.2067	672.3845	795.331	816.9506	829.7346	876.0812	922.0612	942.6504	966.0557	990.6474	1007.587	1032.8971	1056.9048	1075.3732	1091.2098	1123.7317	1155.506	1161.0262	1185.5763	1219.2206	1254.638	1270.927	1283.7934	1299.8462	1316.1703	1388.6474	1413.9917	1474.0001	1507.5097	1509.6292	3035.4596	3089.4398	3107.4485	3110.4302	3144.0162	3175.0853	3197.4159	3505.4975	3746.21
OC1C2OCC12C1CN1	O[C@H]1[C@H]2OC[C@@]12[C@H]1CN1	
InChI=1S/C6H9NO2/c8-4-5-6(4,2-9-5)3-1-7-3/h3-5,7-8H,1-2H2	InChI=1S/C6H9NO2/c8-4-5-6(4,2-9-5)3-1-7-3/h3-5,7-8H,1-2H2/t3-,4+,5-,6-/m1/s1
