22
gdb 69328	2.86563	1.34854	1.27369	1.3096	81.41	-0.2419	0.0814	0.3233	1150.112	0.193433	-404.349017	-404.339741	-404.338797	-404.382128	36.289	
C	 0.0077432594	 1.5128621887	-0.0856370776	-0.477063
C	-0.0209441373	 0.0139400993	 0.0498229603	 0.328176
C	-1.2836886478	-0.7535746296	-0.3162532552	-0.159915
O	-1.1173990532	-2.0581271989	 0.2264729986	-0.299522
C	-0.31021025	-1.9700013245	 1.4210833384	 0.346814
C	-1.1912929314	-1.6862026412	 2.6456207848	-0.419663
C	 0.4174353431	-3.3051188098	 1.5621556067	-0.420412
C	 0.6059992932	-0.7806418342	 1.1378043313	-0.106708
N	 1.2321336408	-0.7198474688	-0.1900705402	-0.390332
H	 0.9697301875	 1.9063084285	 0.250618226	 0.133509
H	-0.1291392673	 1.8149329227	-1.1304421376	 0.121552
H	-0.7880807573	 1.9793294952	 0.5055945931	 0.115092
H	-2.1683539929	-0.2454829495	 0.1007424477	 0.092604
H	-1.4360662346	-0.8619564077	-1.396794257	 0.106815
H	-1.9109104276	-2.4973911884	 2.788444671	 0.123033
H	-0.58293218	-1.6021873539	 3.552202757	 0.115188
H	-1.7463639541	-0.7510067634	 2.5264423149	 0.116337
H	 1.0750463943	-3.4861784025	 0.7077001835	 0.117758
H	 1.0234534226	-3.3188550561	 2.4729855853	 0.115903
H	-0.3051674268	-4.1245002836	 1.6162364872	 0.124821
H	 1.167426545	-0.3394490215	 1.9561816431	 0.084065
H	 1.0406377644	-1.5821066709	-0.6995105517	 0.231947
133.5669	181.9074	189.4422	199.1483	225.0174	250.3234	325.9982	335.2327	388.9417	399.2793	416.1193	532.251	562.3396	636.7729	760.4998	789.5102	852.4786	869.0083	928.3713	930.381	948.6901	993.5318	1010.4312	1031.5575	1055.335	1070.4589	1111.2041	1143.881	1166.1181	1197.0782	1221.6882	1233.7485	1260.8834	1305.9014	1332.2941	1357.3736	1395.3511	1410.8822	1414.7613	1454.8366	1475.6794	1481.5886	1487.5651	1495.8781	1496.8925	1503.7232	1518.0103	2971.2615	3030.4604	3036.4091	3043.9531	3051.1568	3088.7724	3106.0517	3114.5761	3118.8566	3119.5086	3124.5496	3154.0254	3465.7901
CC12COC(C)(C)C1N2	C[C@]12COC(C)(C)[C@H]1N2	
InChI=1S/C7H13NO/c1-6(2)5-7(3,8-5)4-9-6/h5,8H,4H2,1-3H3	InChI=1S/C7H13NO/c1-6(2)5-7(3,8-5)4-9-6/h5,8H,4H2,1-3H3/t5-,7+/m1/s1
