18
gdb 78650	2.92861	1.56866	1.19034	4.2324	76.26	-0.2392	0.0053	0.2446	1079.1191	0.146775	-401.911393	-401.90317	-401.902225	-401.943909	31.338	
C	-0.1833769455	 1.463944326	 0.0185261062	-0.403631
C	 0.0743376105	-0.0297321267	 0.0107339369	 0.025743
C	 0.9380333338	-0.5513207415	-1.1405059435	-0.122953
C	 2.1363742983	-0.4518558221	-0.2736978419	-0.073818
N	 1.2177086341	-0.4231448743	 0.9565492122	-0.233403
C	 1.1689571054	-1.9072836956	 0.807008488	 0.382748
O	 0.9680117237	-2.7497004941	 1.62390245	-0.317876
C	 1.6201848419	-1.8506998407	-0.6142160842	 0.164607
C	 2.1757564273	-2.9268304833	-1.4968391739	-0.513448
H	 0.7378376	 2.0237675708	-0.1686936955	 0.123216
H	-0.9127420632	 1.7299781613	-0.754557581	 0.116491
H	-0.5809952441	 1.7726834881	 0.9891944196	 0.134887
H	-0.8474902325	-0.5828131969	 0.2299118702	 0.089993
H	 0.8528670185	-0.38498287	-2.2092413657	 0.100058
H	 3.1319910298	-0.0389420962	-0.3304965351	 0.11896
H	 1.3844055743	-3.6030541929	-1.8356856238	 0.139572
H	 2.6553458009	-2.5029630971	-2.3845964291	 0.126599
H	 2.9200086968	-3.5234909547	-0.9609133495	 0.142256
128.8101	159.7911	182.7546	211.7601	239.8435	256.7557	325.0577	465.7998	498.3756	633.2657	704.557	751.3734	787.167	813.8812	831.9063	867.2944	890.1088	910.0148	929.1456	952.2587	1018.5327	1040.1584	1077.067	1086.3154	1103.4248	1143.4149	1163.1006	1217.3838	1278.2453	1298.722	1381.0657	1405.9529	1411.0602	1427.277	1484.0368	1487.3788	1492.7909	1496.9039	1914.2469	3032.6085	3037.1126	3038.1865	3104.071	3106.9862	3109.9541	3121.4362	3171.0074	3238.3902
CC1C2C3N1C(=O)C23C	C[C@H]1[C@H]2[C@H]3N1C(=O)[C@@]23C	
InChI=1S/C7H9NO/c1-3-4-5-7(4,2)6(9)8(3)5/h3-5H,1-2H3	InChI=1S/C7H9NO/c1-3-4-5-7(4,2)6(9)8(3)5/h3-5H,1-2H3/t3-,4-,5+,7-/m0/s1
