25
gdb 103822	3.0465	0.87421	0.81565	1.2721	89.78	-0.2587	0.0738	0.3325	1581.4394	0.226281	-389.485854	-389.474542	-389.473598	-389.521956	41.914	
C	 0.0851972175	 0.8809210871	 1.6741484527	-0.381405
C	-0.5265926413	-0.5264926587	 1.7492144486	 0.01112
C	-1.2932826663	-0.7239448022	 3.0654786293	-0.387169
C	-1.4258933095	-0.7801441137	 0.5504805988	-0.025734
C	-0.8712083054	-1.1747952532	-0.797815492	-0.337816
C	-1.717982388	-2.155932048	-0.0172467407	 0.346074
C	-1.0679299685	-3.4051590096	 0.5487815601	-0.470153
C	-3.1287776565	-2.3818808944	-0.5139981981	-0.141447
O	-3.0932608283	-3.3305230296	-1.5751750987	-0.421886
H	 0.760563812	 1.0640382642	 2.516667514	 0.106041
H	 0.65101219	 1.0182353573	 0.7475353489	 0.114332
H	-0.6973214135	 1.6487770299	 1.703484463	 0.108696
H	 0.2994385452	-1.2481948923	 1.7248521304	 0.069077
H	-2.1335709115	-0.0224536064	 3.1343014857	 0.108795
H	-1.6989998558	-1.737150572	 3.1433266158	 0.114452
H	-0.646085021	-0.5501765804	 3.9317944465	 0.107522
H	-2.2696927155	-0.0904000389	 0.5147603238	 0.068616
H	-1.2873388675	-0.7243245463	-1.692801701	 0.10791
H	 0.1933626801	-1.3803238525	-0.8613568866	 0.103804
H	-1.1018433911	-4.2052115403	-0.195888514	 0.135064
H	-0.0226249109	-3.2407546548	 0.8205583712	 0.111921
H	-1.5955645772	-3.760243467	 1.4427013163	 0.107548
H	-3.7572420797	-2.7482973649	 0.3149867873	 0.081295
H	-3.5592971915	-1.427243661	-0.8559999785	 0.078175
H	-3.9985702055	-3.5721664422	-1.7908500927	 0.285168
71.6607	80.6104	131.409	148.4392	206.6579	221.5601	239.6722	244.9398	265.7121	294.9584	359.756	370.683	375.0331	401.56	470.447	599.3935	716.3192	780.7868	877.4599	897.2257	928.3613	938.8106	953.0304	968.8571	979.1516	989.8562	1053.8606	1062.5043	1088.7467	1107.6243	1127.7062	1142.5341	1184.6344	1216.9591	1240.9814	1247.3912	1277.9701	1326.3913	1343.4411	1359.8681	1397.6882	1416.2998	1416.6395	1433.7683	1460.8957	1484.8912	1488.2519	1490.3646	1492.915	1501.965	1507.6089	1516.1735	1517.0637	2955.4777	2988.1037	3021.2539	3022.9685	3027.9465	3029.6452	3086.2792	3091.5631	3096.097	3099.1492	3103.2898	3105.9405	3120.9617	3124.5396	3204.6877	3830.4933
CC(C)C1CC1(C)CO	CC(C)[C@H]1C[C@]1(C)CO	
InChI=1S/C8H16O/c1-6(2)7-4-8(7,3)5-9/h6-7,9H,4-5H2,1-3H3	InChI=1S/C8H16O/c1-6(2)7-4-8(7,3)5-9/h6-7,9H,4-5H2,1-3H3/t7-,8-/m1/s1
