17
gdb 43673	5.48304	0.75028	0.71975	3.6923	69.09	-0.2751	0.0059	0.281	1534.1901	0.135239	-458.965866	-458.957576	-458.956632	-459.000054	29.857	
O	 0.1635030995	 0.7132135948	-1.3509854688	-0.310241
C	-0.0428489302	 1.4215767462	-0.4210666182	 0.451657
C	-1.215653631	 1.8017882396	 0.4841025328	-0.439175
C	-0.1815754641	 2.7149933829	 1.1680112904	 0.13644
C	 0.203039358	 2.416989034	 2.6048655013	-0.256184
C	 1.4587519929	 3.1454076188	 3.0283335863	 0.095671
C	 1.4119433643	 4.4477078522	 3.7069930726	-0.176041
O	 1.6872872203	 3.2481562335	 4.4326470395	-0.233978
O	 0.8483212783	 2.2484702813	 0.2189628226	-0.25347
H	-2.0405465871	 2.2949824832	-0.0319819288	 0.147281
H	-1.5997218349	 0.978178957	 1.0892183531	 0.146526
H	-0.3462096649	 3.7844082552	 1.0087422064	 0.102788
H	-0.623126179	 2.7070602189	 3.2645223352	 0.118335
H	 0.3502558932	 1.3359961633	 2.7211911396	 0.119191
H	 2.3476233562	 2.906478615	 2.4446091359	 0.116882
H	 2.2465113392	 5.1403311979	 3.6113050247	 0.122519
H	 0.4481948392	 4.9099532362	 3.9198899654	 0.111799
61.2896	65.1013	120.2223	149.7689	306.9264	343.3575	420.9468	475.5638	520.5839	530.288	727.9965	819.7039	838.78	862.7439	877.4878	918.378	943.9115	992.0077	1039.7031	1069.6584	1096.7353	1117.2773	1134.7608	1157.4825	1165.7372	1180.8968	1225.497	1235.9096	1283.2914	1301.0885	1336.735	1406.3042	1442.389	1456.5281	1472.4851	1529.9762	1944.263	3031.4564	3068.4206	3081.169	3084.8656	3089.2251	3119.6173	3147.4796	3169.1803
O=C1CC(CC2CO2)O1	O=C1C[C@@H](C[C@H]2CO2)O1	
InChI=1S/C6H8O3/c7-6-2-4(9-6)1-5-3-8-5/h4-5H,1-3H2	InChI=1S/C6H8O3/c7-6-2-4(9-6)1-5-3-8-5/h4-5H,1-3H2/t4-,5+/m1/s1
