14
gdb 44184	5.38925	1.03515	0.94456	3.2319	66.9	-0.2603	-0.0607	0.1996	1167.6956	0.100349	-436.665383	-436.657886	-436.656942	-436.698018	27.306	
O	 0.2193404058	 0.1970981246	-0.8352796605	-0.269445
C	 0.0817229989	 1.2291074522	-0.2554663522	 0.41564
C	-1.1446286515	 2.0376569438	 0.236247313	-0.38496
C	-0.180414019	 3.1510830497	 0.7260898538	-0.095489
C	 0.3729676058	 2.9019091913	 2.1486008247	-0.021529
O	 1.4146160742	 2.0365339228	 1.6422186846	-0.282367
C	 1.0576675976	 2.3173341471	 0.2623133047	-0.006754
C	 0.923776949	 4.0814847056	 2.8221809932	 0.284952
N	 1.3383432924	 5.0254828271	 3.3435301434	-0.307174
H	-1.7794598775	 2.3456240755	-0.6003070785	 0.150783
H	-1.7761514402	 1.5551988504	 0.9873671605	 0.142847
H	-0.3768934211	 4.1756096152	 0.4245570603	 0.120884
H	-0.298544918	 2.3773458498	 2.8382281359	 0.13653
H	 1.9040138036	 2.6517252249	-0.3402870129	 0.116083
62.4416	121.2872	160.8339	265.5883	328.4021	422.246	470.9921	512.9152	562.3448	652.6351	783.645	817.4278	863.0963	881.5492	953.7131	958.2223	1009.0961	1023.318	1049.2187	1063.6549	1120.7207	1157.1755	1208.8183	1220.6854	1249.88	1272.5806	1294.362	1366.5234	1433.9722	1907.4251	2359.2301	3046.8173	3061.1228	3106.6031	3113.9594	3165.8269
O=C1CC2C(OC12)C#N	O=C1C[C@H]2[C@@H](O[C@@H]12)C#N	
InChI=1S/C6H5NO2/c7-2-5-3-1-4(8)6(3)9-5/h3,5-6H,1H2	InChI=1S/C6H5NO2/c7-2-5-3-1-4(8)6(3)9-5/h3,5-6H,1H2/t3-,5-,6+/m0/s1
