22
gdb 89111	5.17719	0.54063	0.52056	3.0562	85.31	-0.2293	-0.0188	0.2105	2127.1965	0.191665	-404.329187	-404.318689	-404.317744	-404.366388	36.76	
C	 0.0300152719	 1.5164804435	-0.4302805047	-0.412334
C	 0.0140590937	 0.0459199014	-0.0724486275	 0.030981
C	 1.2710529727	-0.7525189821	 0.0005517433	-0.255847
N	 0.4950452699	-0.4788531776	 1.2082216017	-0.08385
C	 1.0714428443	 0.4208387342	 2.1985477553	-0.138161
C	 1.8117229622	-0.3889971353	 3.265839412	-0.188189
C	 2.4109645902	 0.4992669201	 4.3690964512	-0.275297
C	 3.0347929013	-0.324684684	 5.4715224213	 0.160555
O	 4.1767421825	-0.2367626004	 5.842121893	-0.237837
H	 0.9722895487	 2.0034463937	-0.1682864682	 0.121212
H	-0.1134872155	 1.6353877299	-1.5094026096	 0.124506
H	-0.7825812884	 2.0550264309	 0.0702276109	 0.123161
H	-0.8831399557	-0.4709384086	-0.4121086662	 0.090573
H	 1.3033549395	-1.7882076297	-0.3278581626	 0.113946
H	 2.205163921	-0.2061274629	-0.1348456729	 0.104068
H	 1.7620479324	 1.164333463	 1.7658193475	 0.084861
H	 0.2524364144	 0.9810448127	 2.6680494477	 0.101354
H	 1.114408637	-1.1151478965	 3.6994636688	 0.114662
H	 2.6099066082	-0.9698647736	 2.7878470345	 0.114265
H	 3.1673751378	 1.184913595	 3.9756372561	 0.120005
H	 1.6082738072	 1.1006481925	 4.8219630087	 0.11685
H	 2.3376010346	-1.0611943362	 5.9378588695	 0.070516
42.2715	56.1062	88.3552	99.0269	127.1688	184.0065	221.6407	286.239	336.9287	373.5312	439.7718	510.1326	539.18	750.9511	755.1436	803.5547	829.9021	902.9386	922.646	950.5521	994.2628	1030.9585	1044.9154	1062.5234	1105.4897	1114.8122	1141.7472	1148.6106	1169.1883	1190.2017	1222.6132	1255.5115	1297.9824	1326.6471	1338.5383	1350.843	1397.4752	1409.4757	1422.4202	1430.7844	1464.4379	1485.223	1492.9922	1499.4381	1504.328	1516.708	1837.0156	2849.878	2955.5977	3005.1996	3031.1959	3035.2829	3038.5299	3073.7945	3081.2202	3093.2499	3097.696	3099.4234	3124.8114	3170.1843
CC1CN1CCCC=O	C[C@H]1CN1CCCC=O	
InChI=1S/C7H13NO/c1-7-6-8(7)4-2-3-5-9/h5,7H,2-4,6H2,1H3	InChI=1S/C7H13NO/c1-7-6-8(7)4-2-3-5-9/h5,7H,2-4,6H2,1H3/t7-,8?/m0/s1
