18
gdb 79890	2.48944	1.73386	1.42836	2.3779	71.28	-0.205	0.0516	0.2566	979.9127	0.147367	-438.991231	-438.983188	-438.982244	-439.023372	31.626	
O	 0.0640390136	 1.3535961443	-0.2470352971	-0.421581
C	-0.0752188796	-0.0265640435	-0.0411483557	 0.000969
C	-0.4893751815	-0.7476102097	 1.229541972	-0.142338
N	-1.5660706125	-0.1581870834	 2.036329215	-0.119575
C	-1.6339982961	 1.340798203	 2.2123257023	-0.157614
C	-2.6248834208	 1.4643804342	 1.0177264281	-0.259675
C	-2.458635332	-0.0710108392	 0.837566839	-0.029494
C	-1.3861866355	-0.7183531794	-0.0528588322	 0.313579
O	-1.6986583364	-1.7298647056	-0.9426862624	-0.457825
H	 0.8867544257	 1.6326991803	 0.1692408137	 0.288847
H	 0.6708916806	-0.6266003103	-0.5705657739	 0.095389
H	 0.1425256422	-1.5236691913	 1.6517080442	 0.09682
H	-2.0561552123	 1.5960724841	 3.1885051151	 0.100567
H	-0.6821202167	 1.858961777	 2.0902950868	 0.09313
H	-3.6369605754	 1.7548572269	 1.3073080491	 0.099415
H	-2.2894645628	 2.0834507329	 0.1880576822	 0.123382
H	-3.3630559429	-0.6863770419	 0.8731433369	 0.085102
H	-1.5457093275	-1.4079233586	-1.837362643	 0.290901
118.5041	178.1081	230.3647	258.1813	279.5404	331.2131	351.87	367.3644	529.8125	608.5159	670.0724	681.043	748.4727	795.3751	810.5131	885.2938	910.5588	931.2597	942.833	982.1622	1017.4349	1034.5569	1085.7967	1116.8468	1136.5989	1183.2211	1189.9912	1212.4303	1221.0177	1256.4546	1258.6482	1280.6506	1296.3324	1315.7831	1342.0416	1370.2675	1473.6448	1489.0818	1503.8955	3054.6787	3057.2979	3064.4848	3082.9664	3119.3201	3149.1303	3158.122	3800.6289	3804.2826
OC1C2N3CCC3C12O	O[C@H]1[C@H]2N3CC[C@H]3[C@@]12O	
InChI=1S/C6H9NO2/c8-5-4-6(5,9)3-1-2-7(3)4/h3-5,8-9H,1-2H2	InChI=1S/C6H9NO2/c8-5-4-6(5,9)3-1-2-7(3)4/h3-5,8-9H,1-2H2/t3-,4+,5-,6-/m0/s1
