21
gdb 123124	6.13973	0.46057	0.44659	4.5924	77.46	-0.2434	0.0595	0.3029	2397.1061	0.181735	-457.581131	-457.569977	-457.569033	-457.619768	38.625	
N	-0.0315653793	 1.3127606804	-0.0517064044	-0.564977
C	-0.0542981447	-0.0689150462	-0.2378265782	 0.446463
O	 0.748785489	-0.6442460956	-0.9488097941	-0.388389
N	-1.0434267317	-0.7058401035	 0.4755275325	-0.339758
C	-1.1326825823	-2.1553642224	 0.5252666899	-0.159487
C	-2.5066709478	-2.6776142881	 0.0925962141	-0.186455
C	-2.599770161	-4.2034286266	 0.1731001617	-0.162321
C	-3.9561233773	-4.7390526876	-0.2653831287	-0.073748
O	-3.9328278747	-6.1520171775	-0.1318691203	-0.420832
H	 0.5402171947	 1.7733179846	-0.7440279531	 0.259053
H	-0.9165731529	 1.7722073789	 0.1064972046	 0.243036
H	-1.5088779478	-0.1846455504	 1.2009509721	 0.236061
H	-0.351050659	-2.5289392799	-0.1402655878	 0.152691
H	-0.9000013568	-2.515255819	 1.537509971	 0.099692
H	-3.2845651786	-2.2255695681	 0.7242947001	 0.084223
H	-2.7039321559	-2.336783266	-0.9313777094	 0.105646
H	-1.8256205531	-4.6625246114	-0.4536714949	 0.112724
H	-2.4100500587	-4.5422507291	 1.1993118636	 0.104862
H	-4.750728353	-4.2931239914	 0.3562017448	 0.080858
H	-4.1539577553	-4.4394534619	-1.3077394733	 0.085495
H	-4.7808157241	-6.4965197991	-0.4262403201	 0.285163
19.348	52.9202	65.0978	97.2958	135.4536	157.3031	261.144	267.8655	292.3709	352.3439	363.8731	435.9942	480.3444	548.305	574.9091	659.8715	746.969	778.1737	800.0522	908.3991	968.311	999.5738	1049.399	1058.8887	1088.566	1096.7797	1149.8492	1178.7355	1214.3871	1232.2951	1286.976	1294.9592	1314.6035	1324.3688	1336.8597	1375.6332	1412.4474	1463.3059	1486.4035	1492.5183	1507.1165	1529.1254	1548.1166	1627.9616	1803.3292	2955.3486	2980.9315	3004.1569	3007.1955	3030.2617	3049.8989	3076.4655	3117.5912	3568.0104	3631.6734	3680.8698	3831.2971
NC(=O)NCCCCO	NC(=O)NCCCCO	
InChI=1S/C5H12N2O2/c6-5(9)7-3-1-2-4-8/h8H,1-4H2,(H3,6,7,9)	InChI=1S/C5H12N2O2/c6-5(9)7-3-1-2-4-8/h8H,1-4H2,(H3,6,7,9)
