14
gdb 42330	5.5951	0.65494	0.61429	4.468	85.62	-0.2874	-0.1032	0.1842	1722.7534	0.100058	-399.534679	-399.526077	-399.525132	-399.569242	29.873	
O	-0.0114836479	-0.0637457994	-0.0899896129	-0.303333
C	-0.0512637667	 1.1502217664	-0.0474058833	 0.213999
C	 1.186966309	 1.9224649678	-0.0184373635	 0.012514
C	 2.2237354247	 2.5460548954	 0.0050145365	 0.129887
C	 3.3903614129	 3.2535481756	 0.0316174173	 0.212677
N	 4.3804021433	 3.8606578338	 0.0544445332	-0.320113
C	-1.3039679784	 1.9402045698	-0.021427506	-0.1211
C	-2.495812097	 1.3693500732	-0.7864882547	-0.246721
C	-2.4980112561	 1.3170781304	 0.6979709392	-0.246726
H	-1.1917249929	 3.0167422808	 0.0166375433	 0.110072
H	-3.1322848487	 2.0854727604	-1.2924558485	 0.130691
H	-2.305729454	 0.44591475	-1.3210801359	 0.148734
H	-2.3094281835	 0.358314983	 1.1668747833	 0.148733
H	-3.1361060849	 1.9958155528	 1.2512255719	 0.130688
49.6957	66.5244	120.2843	206.9974	246.2214	261.6888	326.3322	377.0878	535.873	585.878	587.1321	724.0022	749.678	803.0302	821.9521	873.5124	896.2407	988.7506	1066.3288	1098.6615	1114.0014	1122.258	1178.3267	1210.4209	1218.2367	1404.0696	1455.3365	1485.8601	1742.2185	2250.4238	2385.4052	3145.9421	3147.3213	3191.2971	3234.5136	3248.9105
O=C(C#CC#N)C1CC1	O=C(C#CC#N)C1CC1	
InChI=1S/C7H5NO/c8-5-1-2-7(9)6-3-4-6/h6H,3-4H2	InChI=1S/C7H5NO/c8-5-1-2-7(9)6-3-4-6/h6H,3-4H2
