15
gdb 74649	3.08601	1.88128	1.33979	2.4346	65.31	-0.2216	0.0113	0.2329	908.4141	0.112984	-453.874223	-453.867072	-453.866127	-453.905249	28.992	
N	-0.0588789629	 1.3349065498	 0.1234101951	-0.597188
C	-0.064243998	-0.0137224544	 0.0329738088	 0.372615
N	-1.0818940521	-0.8071837455	-0.0065614523	-0.337878
C	-0.4052206329	-2.1150396164	-0.0442740316	-0.023544
C	 0.8609216782	-2.1116658052	 0.8700208319	-0.002215
O	 1.6094777085	-2.9715023118	-0.0608542261	-0.340754
C	 0.8725126524	-2.0475144597	-0.9373305028	-0.003785
C	 1.2035362777	-0.8343742547	 0.0128011357	 0.301399
O	 2.4137679994	-0.179700737	 0.0391383026	-0.495187
H	 0.801891337	 1.8199678362	-0.065816127	 0.273823
H	-0.9234250072	 1.8288928357	-0.0294248545	 0.266265
H	-1.040608011	-2.9958077736	-0.0797631814	 0.093159
H	 0.9774455956	-2.2880670404	 1.9411169626	 0.099322
H	 1.0031415682	-2.1470641502	-2.0168781961	 0.097672
H	 3.103240387	-0.8568753029	 0.013130205	 0.296298
177.546	225.0755	298.0259	331.2594	368.2501	412.6061	443.0163	502.0933	532.9362	630.182	664.8101	701.0001	719.911	782.7401	856.4827	875.5561	906.9504	921.7671	980.0915	994.2798	1057.9572	1111.8609	1136.9903	1144.4664	1168.6229	1194.7245	1237.6543	1272.6838	1333.4048	1352.6922	1489.4118	1609.9604	1701.8992	3100.3392	3106.6612	3167.5207	3597.594	3724.2314	3761.0497
NC1=NC2C3OC2C13O	N[C]1[N][C@@H]2[C@H]3O[C@@H]2[C@@]13O	
InChI=1S/C5H6N2O2/c6-4-5(8)2-1(7-4)3(5)9-2/h1-3,8H,(H2,6,7)	InChI=1S/C5H6N2O2/c6-4-5(8)2-1(7-4)3(5)9-2/h1-3,8H,(H2,6,7)/t1-,2-,3+,5-
