15
gdb 62330	4.27044	1.31495	1.17115	3.2492	70.66	-0.2396	0.0205	0.2602	1027.9022	0.110209	-420.493594	-420.486181	-420.485237	-420.525056	30.028	
O	 0.0868433945	 1.4428837849	-0.0306708116	-0.458966
C	-0.0232519157	 0.0616806947	 0.0309142832	 0.231151
C	 1.0353028896	-0.5721952307	-0.7280948236	 0.279527
C	 1.9057720137	-1.1158032372	-1.3523934815	-0.404671
C	-0.4223366882	-0.7643220435	 1.2512799829	-0.176212
C	-1.6137336678	-0.16679534	 2.0513745551	 0.002777
O	-2.031804729	 1.08848599	 1.46891084	-0.266777
C	-2.4578019866	-0.1526254965	 0.8623309275	 0.002794
C	-1.3162105483	-0.7492387889	-0.0079785657	-0.176219
H	-0.6504021691	 1.7842978208	 0.496773878	 0.298775
H	 2.681328831	-1.5817923749	-1.908346525	 0.195993
H	 0.1953528512	-1.5671902398	 1.6314875588	 0.111216
H	-1.8350107958	-0.3177640189	 3.1003119564	 0.1247
H	-3.5226392398	-0.2894266408	 0.7229357064	 0.124699
H	-1.4803554798	-1.5389053393	-0.729212171	 0.111214
136.6664	153.0838	267.6413	316.9034	381.7871	451.8721	514.3132	561.656	601.5992	606.1001	622.8835	678.7811	712.3352	747.3343	765.5623	785.8089	865.867	879.0916	916.236	932.7072	973.4087	1012.0789	1027.5332	1052.8167	1072.4474	1216.5767	1219.0744	1250.4665	1255.9637	1290.0601	1402.3678	1441.9047	2245.1607	3191.7107	3202.0914	3203.7369	3213.3531	3503.1754	3703.8382
OC1(C#C)C2C3OC3C12	O[C@@]1(C#C)[C@H]2[C@H]3O[C@H]3[C@@H]12	
InChI=1S/C7H6O2/c1-2-7(8)3-4(7)6-5(3)9-6/h1,3-6,8H	InChI=1S/C7H6O2/c1-2-7(8)3-4(7)6-5(3)9-6/h1,3-6,8H/t3-,4+,5-,6+,7+
