18
gdb 110048	2.38332	1.51651	1.06393	5.0168	69.2	-0.2477	0.0186	0.2663	1135.2983	0.148584	-476.235137	-476.226608	-476.225664	-476.268372	32.115	
O	-0.3752938039	 1.5957825833	-0.4217214312	-0.429765
C	-0.0907283935	 0.2161566192	-0.3955536058	-0.075991
C	-1.3233966149	-0.5908667259	 0.043664036	-0.127357
C	-1.2045551169	-2.1202902956	 0.0609030574	 0.063645
O	 0.1016346897	-2.4528336793	 0.5013900951	-0.423765
C	-2.2741774731	-2.4878279336	 1.102754898	-0.108623
O	-2.2982394155	-1.3951731206	 2.0363446728	-0.236889
C	-1.7508386841	-0.2879261211	 1.4659273317	 0.458216
N	-1.6182230436	 0.8307904908	 2.0423477004	-0.570922
H	-0.6839323824	 1.8155045732	 0.4728201919	 0.297886
H	 0.1952591022	-0.0770758325	-1.4113448608	 0.100636
H	 0.7499655871	-0.0235781469	 0.2680379547	 0.109172
H	-2.1575035327	-0.3142780885	-0.6147447338	 0.114171
H	-1.4223267951	-2.5703127158	-0.9162814678	 0.081148
H	 0.1851207672	-3.4112679133	 0.5208884905	 0.290153
H	-3.265554532	-2.5967502122	 0.6451968624	 0.114957
H	-2.0327522114	-3.3993074274	 1.6561560969	 0.115397
H	-1.9701730869	 0.8087906261	 2.9994020917	 0.227932
82.2665	153.8627	173.6989	194.0053	256.9876	283.4112	349.3947	412.855	462.4662	486.4688	621.6347	632.8626	709.1432	776.7334	827.6347	868.5501	876.0282	940.4257	982.1821	1007.7893	1040.2535	1086.4231	1101.9613	1119.0227	1148.6599	1194.9877	1222.0878	1230.5776	1279.0694	1285.4821	1328.9961	1352.1782	1393.0863	1398.7231	1432.9054	1476.1726	1502.1317	1509.9782	1767.1559	3016.5708	3020.6175	3030.3513	3038.6527	3074.4544	3097.3461	3489.4153	3663.8244	3821.35
OCC1C(O)COC1=N	OC[C@H]1[C@@H](O)CO[C]1[NH]	
InChI=1S/C5H9NO3/c6-5-3(1-7)4(8)2-9-5/h3-4,6-8H,1-2H2	InChI=1S/C5H9NO3/c6-5-3(1-7)4(8)2-9-5/h3-4,6-8H,1-2H2/t3-,4-/m0/s1
