14
gdb 124416	3.3465	1.13115	1.04318	4.6866	68.07	-0.2929	-0.0577	0.2352	1152.1795	0.100422	-432.857215	-432.849128	-432.848184	-432.890853	28.425	
C	-0.0576415164	 1.5732681743	-0.032414919	-0.39389
C	-0.0293180825	 0.0263749293	-0.0271022866	-0.259133
C	-1.3934825334	-0.5210025611	 0.0263512585	 0.284472
N	-2.4689839169	-0.9372943073	 0.0865394411	-0.305867
C	 0.7216510252	-0.5255657365	-1.2044476046	 0.444536
C	 1.8159546736	-1.3255510622	-1.3076068265	-0.217626
N	 2.0773100417	-1.4689101803	-2.6499627348	-0.098781
N	 1.2458353847	-0.8337292411	-3.3393613198	 0.005245
O	 0.3266075989	-0.1904965557	-2.4293666921	-0.218584
H	 0.9646703815	 1.9583471488	-0.0165561448	 0.141566
H	-0.5592935003	 1.9416745492	-0.9288680948	 0.164843
H	-0.5901155034	 1.9401629839	 0.8472724259	 0.148824
H	 0.4903733254	-0.3188709585	 0.873746582	 0.153269
H	 2.416942292	-1.7982425827	-0.5501045843	 0.151126
44.1005	103.9574	174.0756	201.5968	229.9141	325.395	383.3384	468.11	557.9339	601.5018	696.3797	710.9427	761.0762	830.4255	859.4183	985.5709	994.3086	1045.1972	1079.6421	1114.1446	1119.1168	1248.1153	1292.8467	1314.553	1392.2855	1412.0324	1466.8877	1491.3306	1497.8157	1607.0756	2366.2386	3057.3867	3060.5314	3141.5988	3152.4005	3292.7116
CC(C#N)C1=CN=NO1	C[C@@H](C#N)c1cnno1	
InChI=1S/C5H5N3O/c1-4(2-6)5-3-7-8-9-5/h3-4H,1H3	InChI=1S/C5H5N3O/c1-4(2-6)5-3-7-8-9-5/h3-4H,1H3/t4-/m0/s1
