21
gdb 107956	2.61099	1.36524	1.31738	1.4909	83.49	-0.2615	0.074	0.3355	1123.8442	0.181869	-387.01721	-387.00848	-387.007536	-387.050353	33.932	
C	-0.0110762531	 1.4761377203	-0.0203648316	-0.522043
C	 0.0138952706	-0.0284865083	-0.0664263586	 0.303451
C	 0.5731013548	-0.9485328091	-1.1753222224	-0.317048
C	 0.0461923537	-1.924056767	-0.1081330625	-0.069202
C	 0.5069545619	-1.0035624059	 1.0694912022	-0.083485
C	-0.8759294161	-1.0474458067	 1.7459121257	-0.316711
C	-1.1873259055	-1.013738243	 0.2356221199	 0.354135
C	-2.5249651045	-1.0284791384	-0.4421289549	-0.231185
O	-3.1765918897	-2.2484001465	-0.1066166885	-0.420286
H	 1.0043064909	 1.8851022105	-0.0726241694	 0.119959
H	-0.5776919959	 1.8913935691	-0.8617106336	 0.116588
H	-0.469922756	 1.8414002234	 0.9052609929	 0.119396
H	 0.0581519777	-0.9356760489	-2.142424686	 0.08577
H	 1.6582174253	-0.9246149397	-1.3257502487	 0.085429
H	 0.0452131863	-3.0142375483	-0.1054215605	 0.073515
H	 1.499694785	-0.9978099409	 1.5238727837	 0.063348
H	-1.1379524702	-1.968914115	 2.2738514119	 0.09903
H	-1.1729471618	-0.1720446401	 2.3340883208	 0.083492
H	-3.1165406838	-0.1588159314	-0.1106473404	 0.084699
H	-2.3902480623	-0.9342768959	-1.5326890746	 0.08452
H	-4.0526838672	-2.237526498	-0.5032194456	 0.286629
78.6223	135.3796	204.1614	231.8483	255.9507	260.0806	296.9592	393.2734	436.5076	501.4629	622.7789	663.6649	719.9985	774.3167	855.8886	865.0703	899.0468	917.9605	941.7401	945.5664	1005.0901	1010.2989	1021.9822	1058.4445	1098.0675	1120.6018	1134.924	1148.5373	1159.7522	1167.5611	1188.2665	1215.3431	1230.1296	1249.265	1264.4016	1299.7511	1328.1085	1334.0896	1408.442	1464.322	1486.1055	1493.0025	1506.1641	1511.9192	1516.1534	2954.249	2980.1973	3022.0849	3028.6279	3036.4608	3081.0062	3086.2487	3090.3797	3092.128	3097.1169	3114.5362	3827.043
CC12CC3C1CC23CO	C[C@@]12C[C@H]3[C@@H]1C[C@@]23CO	
InChI=1S/C8H12O/c1-7-2-6-5(7)3-8(6,7)4-9/h5-6,9H,2-4H2,1H3	InChI=1S/C8H12O/c1-7-2-6-5(7)3-8(6,7)4-9/h5-6,9H,2-4H2,1H3/t5-,6-,7+,8-/m0/s1
