19
gdb 48834	2.75614	1.43637	1.13579	3.2815	82.22	-0.2385	-0.0136	0.2248	1125.2043	0.160544	-385.907046	-385.899121	-385.898176	-385.93954	30.877	
O	-0.2150291819	 0.0766869239	 0.3045799865	-0.26745
C	-0.0203510443	 1.2053326942	-0.0730948382	 0.106887
C	 1.2882854886	 1.9051012157	-0.0455703873	 0.22274
C	 1.1853338907	 3.4165248901	 0.2063849339	-0.327937
C	 1.5407170026	 2.9268877474	-1.1571394404	-0.074214
C	 2.9751412482	 3.044618652	-1.6744970283	-0.23008
C	 3.7582757617	 1.7204473535	-1.6006063717	-0.262356
C	 3.581164572	 1.0354013797	-0.2670481233	-0.057288
C	 2.4577663064	 1.131783213	 0.4429868471	-0.144919
H	-0.8539211762	 1.8301766406	-0.4763848554	 0.058751
H	 0.195591643	 3.8286949271	 0.376866277	 0.12022
H	 1.9714316524	 3.8459954521	 0.8175642184	 0.1288
H	 0.7596452676	 2.9974948207	-1.9088227677	 0.094233
H	 2.9606677253	 3.4147790871	-2.7044710482	 0.104443
H	 3.5103010059	 3.7954886093	-1.0830005473	 0.108723
H	 3.4302799829	 1.0428465353	-2.402353547	 0.117591
H	 4.8195348718	 1.9135030445	-1.7910005871	 0.104602
H	 4.4046018914	 0.4318568787	 0.1048992792	 0.093878
H	 2.3403588418	 0.606107875	 1.3853734497	 0.103374
87.8641	134.0429	196.2053	244.0091	304.1265	400.8657	433.4237	479.4231	524.1331	552.1477	715.5023	725.0713	764.8262	797.3161	843.2453	904.1936	920.9509	954.9325	978.2804	998.1846	1010.1708	1036.5831	1066.1812	1085.5733	1097.717	1135.056	1195.5419	1223.0188	1242.1356	1271.5448	1314.6673	1351.5522	1370.5827	1398.7927	1420.2748	1444.927	1476.3505	1484.3451	1494.9697	1715.2357	1814.0424	2836.948	3005.2718	3038.3245	3063.6717	3080.6706	3128.2446	3144.4914	3159.5342	3184.8549	3220.4807
O=CC12CC1CCC=C2	O=C[C@]12C[C@H]1CCC=C2	
InChI=1S/C8H10O/c9-6-8-4-2-1-3-7(8)5-8/h2,4,6-7H,1,3,5H2	InChI=1S/C8H10O/c9-6-8-4-2-1-3-7(8)5-8/h2,4,6-7H,1,3,5H2/t7-,8+/m1/s1
