12
gdb 23725	5.74216	1.56438	1.22944	2.9856	61.88	-0.209	-0.0626	0.1464	872.1918	0.085662	-418.832567	-418.826356	-418.825412	-418.863124	23.5	
F	 0.0199069376	-0.0030139773	 0.0033104344	-0.076914
C	-0.0297062364	 1.3332969105	 0.0106853731	 0.171593
C	-1.2055633624	 2.0068928246	 0.0295370515	-0.070975
N	-1.1713055315	 3.3616262751	 0.0358972733	-0.308248
C	 0.0187675628	 4.1182575756	 0.0240695928	 0.425077
N	-0.0912817512	 5.3902921436	 0.0321197428	-0.56933
N	 1.2122837243	 3.3923761508	 0.0047370135	-0.296892
C	 1.1736197424	 2.0946513752	-0.0013055528	-0.064734
H	-2.1731123079	 1.5213108924	 0.03981374	 0.154302
H	-2.0241083171	 3.901191548	 0.0498528834	 0.277851
H	 0.8410065752	 5.7989112423	 0.0220181136	 0.225416
H	 2.1223910743	 1.5570820692	-0.0164953455	 0.132853
87.6865	322.846	343.9648	390.9408	459.4594	471.5737	488.8589	640.8248	651.3131	762.6346	788.4375	833.1145	833.176	915.069	988.8001	1010.6852	1046.4729	1207.7422	1272.9863	1305.9837	1354.0962	1439.4676	1478.5186	1573.5373	1703.0538	1731.9426	3130.2373	3222.1771	3520.7796	3624.7185
FC1=CNC(=N)N=C1	FC1=CN=C(NC1)[NH]	
InChI=1S/C4H4FN3/c5-3-1-7-4(6)8-2-3/h1-2H,(H2,6,7,8)	InChI=1S/C4H5FN3/c5-3-1-7-4(6)8-2-3/h1,6H,2H2,(H,7,8)
