22
gdb 113804	3.93642	0.79035	0.71734	2.3622	83.75	-0.2412	0.0699	0.3111	1641.0475	0.194131	-404.303296	-404.293453	-404.292509	-404.339097	36.409	
C	-0.0785809968	 1.5908730842	-0.0129131219	-0.40753
C	-0.0257353235	 0.0801166952	 0.054348894	 0.000063
C	 1.2341611649	-0.6740830433	-0.2907565944	-0.306745
C	 0.7220946127	-0.6795438655	 1.1332445404	 0.009544
C	 1.4854040925	 0.0141988502	 2.2146250947	-0.032381
N	 0.9506303808	-0.0730999555	 3.5880786645	-0.359614
C	 2.2641667172	-0.6780280816	 3.2811003929	-0.043066
C	 2.3221479406	-2.1750504386	 3.4789232201	-0.063183
O	 2.2023613614	-2.5053711672	 4.8532264006	-0.423677
H	 0.8842531262	 2.0495807168	 0.2312554014	 0.113491
H	-0.3439250234	 1.9208911813	-1.0232684517	 0.118278
H	-0.8262119885	 1.9973021643	 0.6773641021	 0.120241
H	-0.9512851531	-0.3977137691	-0.2570358432	 0.086136
H	 1.1701813144	-1.5872834554	-0.8722522426	 0.111152
H	 2.1230348495	-0.0834673985	-0.4944954435	 0.10727
H	 0.2369061726	-1.5914702591	 1.4636419238	 0.089858
H	 1.8979930435	 0.9777964981	 1.9201947199	 0.079256
H	 1.0661724318	 0.8105606439	 4.0758098466	 0.23213
H	 3.1421299225	-0.1520779382	 3.6539755898	 0.085587
H	 1.5436766046	-2.6712424968	 2.8832415043	 0.088659
H	 3.2908794825	-2.5647199578	 3.1487540472	 0.106442
H	 1.3882293878	-2.0808337073	 5.1499069349	 0.288087
34.208	63.199	120.8563	161.5491	201.685	213.2978	293.6672	358.2992	408.917	423.1281	452.8376	515.6573	599.4361	765.0996	798.666	818.055	854.3533	884.5615	910.9031	944.3733	959.3977	988.3191	1010.9165	1039.1686	1068.0825	1070.1824	1085.7814	1110.2659	1146.3061	1159.2737	1186.7623	1194.7173	1229.7433	1251.0174	1269.9525	1283.4205	1332.1907	1366.4158	1400.826	1412.6658	1423.5074	1450.98	1481.4716	1494.6252	1496.2434	1502.0324	1511.6189	3011.1671	3030.0741	3074.5953	3089.2441	3097.7653	3111.4245	3121.0545	3124.2063	3135.4198	3167.1309	3207.8081	3508.5662	3786.6008
CC1CC1C1NC1CO	C[C@H]1C[C@H]1[C@H]1N[C@H]1CO	
InChI=1S/C7H13NO/c1-4-2-5(4)7-6(3-9)8-7/h4-9H,2-3H2,1H3	InChI=1S/C7H13NO/c1-4-2-5(4)7-6(3-9)8-7/h4-9H,2-3H2,1H3/t4-,5+,6-,7+/m0/s1
