16
gdb 98731	2.97471	1.09573	0.91585	3.7952	72.9	-0.2609	-0.0083	0.2526	1274.149	0.121622	-437.837973	-437.828789	-437.827845	-437.872569	32.877	
O	-0.0898093718	 1.2455515136	 0.3307863577	-0.418905
C	-0.0698441421	-0.1096457977	-0.0031343464	-0.130592
C	-1.4942634159	-0.6505743955	-0.1016630958	 0.370756
O	-2.4430115874	 0.0605388761	 0.1543100667	-0.352645
N	-1.6184072044	-1.9392540402	-0.586166743	-0.089698
C	-0.9666041934	-3.1367874245	-0.1158446993	-0.253904
C	-2.4747729222	-2.992087201	-0.0637313175	-0.195221
C	-3.1297856998	-2.8453009861	 1.2068466788	 0.351041
C	-3.6902417007	-2.7470796726	 2.264832592	-0.439959
H	-1.0299433631	 1.4582827092	 0.4508833609	 0.296036
H	 0.4415430854	-0.2802936086	-0.9625348319	 0.121694
H	 0.4754219664	-0.6990875551	 0.7534205833	 0.109024
H	-0.5187295243	-3.7712097143	-0.8758467854	 0.138787
H	-0.4423754093	-3.099100411	 0.835568292	 0.146074
H	-3.0539586941	-3.5056896143	-0.8275243301	 0.136076
H	-4.1881330333	-2.643913748	 3.1975086181	 0.211437
63.8057	80.2008	110.5374	170.8696	223.18	245.2089	327.1073	404.6684	433.0096	508.415	538.9578	569.6518	628.1154	653.2466	677.8426	781.0969	834.845	914.2788	1002.9608	1029.4452	1055.1633	1101.8657	1127.6389	1130.1255	1159.3688	1175.6907	1246.8803	1310.6786	1365.8164	1410.4869	1469.134	1500.6343	1506.6925	1782.3839	2246.1704	2967.3737	3006.0448	3108.7068	3137.2143	3202.8027	3501.7949	3675.6296
OCC(=O)N1CC1C#C	OCC(=O)N1C[C@H]1C#C	
InChI=1S/C6H7NO2/c1-2-5-3-7(5)6(9)4-8/h1,5,8H,3-4H2	InChI=1S/C6H7NO2/c1-2-5-3-7(5)6(9)4-8/h1,5,8H,3-4H2/t5-,7?/m1/s1
