16
gdb 44317	3.43772	1.88267	1.43797	3.6678	72.7	-0.2344	0.0142	0.2485	885.5495	0.126852	-400.68143	-400.675355	-400.674411	-400.711576	25.661	
O	-0.0485877588	 0.0435237215	-0.131951693	-0.366754
C	 0.0050908209	 1.2438905579	-0.0522081324	 0.347341
N	-1.0675703993	 2.1564808163	-0.0789957487	-0.3553
C	-0.502393001	 3.4857206723	 0.2597841823	-0.046442
C	 0.764619498	 3.5549875449	-0.6076610341	-0.031719
C	 1.7883998192	 3.9741135822	 0.4912924557	-0.107868
C	 2.6139533766	 2.654314547	 0.3120167844	-0.347622
C	 1.1429963514	 2.228612766	 0.1494893509	 0.156781
C	 0.6522098015	 3.236775084	 1.2618141296	-0.050957
H	-1.9606793993	 1.8517934137	 0.2787348751	 0.248714
H	-1.2549128095	 4.2708941611	 0.3388115024	 0.08054
H	 0.8454501315	 3.6876612684	-1.68716142	 0.087645
H	 2.1716378007	 4.9761474473	 0.6854168246	 0.079841
H	 3.2447435499	 2.5850787111	-0.5783178369	 0.110711
H	 3.1413198436	 2.2778632604	 1.1926892637	 0.110709
H	 0.6120213547	 3.006417546	 2.3279128664	 0.08438
184.3393	311.3632	367.9198	415.8513	454.1846	566.172	645.9148	706.9383	711.1886	790.3111	801.3909	858.5499	873.527	878.1745	896.1036	935.0146	972.5762	986.875	999.9401	1054.42	1075.7038	1098.1288	1125.7405	1141.0139	1141.5102	1183.4457	1207.0551	1210.3393	1216.2625	1284.2438	1305.9706	1309.5156	1380.4594	1506.752	1855.0869	3054.7873	3098.1074	3106.7871	3107.809	3117.3967	3121.3209	3623.4621
O=C1NC2C3C4CC13C24	O=C1N[C@@H]2[C@H]3[C@@H]4C[C@]13[C@H]24	
InChI=1S/C7H7NO/c9-6-7-1-2-3(7)5(8-6)4(2)7/h2-5H,1H2,(H,8,9)	InChI=1S/C7H7NO/c9-6-7-1-2-3(7)5(8-6)4(2)7/h2-5H,1H2,(H,8,9)/t2-,3+,4-,5+,7-
