17
gdb 19699	4.69222	1.69865	1.5653	2.7512	66.64	-0.2343	0.0652	0.2996	852.5988	0.143777	-363.771065	-363.764342	-363.763397	-363.802106	26.414	
O	 0.0653472954	 1.3877257873	 0.1769372464	-0.425175
C	 0.1393047342	-0.0018777503	-0.0966227038	-0.090318
C	-1.2435571727	-0.6238527411	-0.0307473959	 0.0432
C	-1.5310466527	-2.1152383167	-0.0041826776	-0.122681
C	-1.4756159178	-2.5479937627	 1.4769515399	-0.082752
C	-1.1403380854	-1.2986386319	 2.2657598012	-0.185335
N	-1.9925944213	-0.4918002239	 1.2991076293	-0.204667
C	-2.673612765	-1.834593624	 0.9266940914	-0.021214
H	-0.5644195685	 1.4946649789	 0.9002736508	 0.295483
H	 0.5391285643	-0.1099066291	-1.1119003027	 0.105973
H	 0.8446721915	-0.5097836024	 0.5780685189	 0.088511
H	-1.8776720676	-0.1284792015	-0.7740971952	 0.091691
H	-1.4868796559	-2.8449458259	-0.8031568883	 0.092961
H	-1.3857380792	-3.5921095417	 1.7491750402	 0.094188
H	-1.6301214993	-1.2818040606	 3.242757256	 0.11252
H	-0.1021962937	-0.9712184364	 2.3761754804	 0.104302
H	-3.7376877264	-2.019229788	 0.9058534988	 0.103312
79.4772	153.0211	288.8073	370.1498	402.5095	499.0386	561.8588	705.7607	759.4694	794.7665	810.5552	817.6995	858.695	898.6222	959.0787	996.7724	1004.64	1027.2919	1033.6503	1035.2549	1067.7695	1086.0174	1120.1443	1140.4117	1169.5994	1187.7753	1214.7644	1250.7373	1283.9232	1305.4548	1333.8031	1363.4753	1401.6712	1446.0843	1503.7211	1531.7326	2987.1712	3045.9767	3054.0821	3060.822	3104.4934	3189.2468	3196.0882	3227.1221	3781.706
OCC1C2C3CN1C23	OC[C@H]1[C@H]2[C@H]3CN1[C@@H]23	
InChI=1S/C6H9NO/c8-2-4-5-3-1-7(4)6(3)5/h3-6,8H,1-2H2	InChI=1S/C6H9NO/c8-2-4-5-3-1-7(4)6(3)5/h3-6,8H,1-2H2/t3-,4+,5-,6-/m1/s1
