15
gdb 129598	3.18797	1.26822	0.96465	4.5504	69.07	-0.2176	0.0059	0.2235	1165.301	0.113001	-453.911206	-453.903277	-453.902333	-453.94446	29.001	
N	 0.1810341438	 1.3869619804	 0.4694164572	-0.596276
C	 0.0033199397	 0.0655632421	 0.1356884279	 0.385833
C	-1.1091320704	-0.6832778905	-0.1555150757	 0.095781
C	-0.564572029	-1.9854491127	-0.3220924989	-0.031475
N	 0.7310566224	-2.0353110679	-0.1527024613	-0.160349
O	 1.1004793533	-0.7000523787	 0.1352746696	-0.215899
C	-2.5172704139	-0.2592509763	-0.2297650962	-0.071942
C	-3.4151426791	-0.6330893447	-1.3399507167	-0.180796
O	-3.5012197591	-1.2894174041	-0.0756985365	-0.229978
H	 1.1435549511	 1.6916266112	 0.4301577147	 0.270523
H	-0.4473847257	 2.0327369361	 0.0159599364	 0.267522
H	-1.102568321	-2.897306081	-0.5408233916	 0.141006
H	-2.7538113617	 0.6600623197	 0.3097547132	 0.091548
H	-4.2604821954	 0.0055861899	-1.5949465467	 0.117472
H	-3.0211239248	-1.2372003035	-2.1559224953	 0.117029
46.6427	142.9077	157.9022	246.2872	276.6582	301.4155	456.2807	500.6142	586.7669	624.4287	635.7953	731.0866	758.8464	846.7466	885.5448	901.9242	924.4759	951.1068	1006.2317	1068.0932	1097.9846	1147.864	1171.8074	1197.7475	1210.7478	1276.8688	1344.9655	1422.7659	1455.6659	1522.2659	1546.8819	1641.6596	1688.8243	3077.7473	3085.939	3169.333	3245.2089	3572.7585	3674.8795
NC1=C(C=NO1)C1CO1	Nc1c(cno1)[C@H]1CO1	
InChI=1S/C5H6N2O2/c6-5-3(1-7-9-5)4-2-8-4/h1,4H,2,6H2	InChI=1S/C5H6N2O2/c6-5-3(1-7-9-5)4-2-8-4/h1,4H,2,6H2/t4-/m1/s1
