12
gdb 21631	3.51614	2.46535	1.44922	1.5375	60.33	-0.2286	-0.0468	0.1817	773.6075	0.087197	-410.889392	-410.882973	-410.882029	-410.919816	24.12	
N	 0.0105836781	 1.3249532628	 0.0072871714	-0.538756
C	-0.0511377415	-0.0131986118	 0.0010073433	 0.330133
N	-1.1819950323	-0.671350649	 0.0047341753	-0.342272
C	-1.0868966578	-2.0316205131	-0.0025543638	 0.079612
N	-0.0092326236	-2.7596075901	-0.0128598819	-0.217908
N	 1.1484713421	-2.040639429	-0.0164446523	-0.274436
C	 1.2763590094	-0.6818655811	-0.010405673	 0.398249
O	 2.3415578733	-0.0804580408	-0.0143036023	-0.405125
H	 0.9242950332	 1.7494282612	 0.0036058237	 0.287465
H	-0.830004309	 1.8757801391	 0.0149653987	 0.274822
H	-2.0217105306	-2.5813129283	 0.000476355	 0.130791
H	 1.9972533787	-2.5902503199	-0.024525364	 0.277426
144.6906	257.2047	267.9212	313.2926	457.7018	501.5096	551.9901	597.2297	616.9432	634.1416	723.5102	756.2404	821.8227	944.6915	951.5101	1019.4912	1128.4388	1269.607	1320.117	1387.9612	1406.1296	1456.2817	1554.1493	1613.2263	1662.7764	1772.6489	3200.8167	3599.1458	3600.6189	3743.3968
NC1=NC=NNC1=O	Nc1ncn[nH]c1=O	
InChI=1S/C3H4N4O/c4-2-3(8)7-6-1-5-2/h1H,(H,7,8)(H2,4,5,6)	InChI=1S/C3H4N4O/c4-2-3(8)7-6-1-5-2/h1H,(H,7,8)(H2,4,5,6)
