15
gdb 34558	3.89792	1.32384	1.24221	1.669	75.44	-0.2373	-0.0378	0.1995	1019.8909	0.11332	-420.582755	-420.575836	-420.574892	-420.614069	27.52	
C	 0.0978323363	-1.1795386716	 0.0092916803	-0.406332
C	-0.0188219972	 0.0199895456	-0.0124398755	 0.177006
C	-0.0850115171	 1.4227966411	-0.060096333	 0.277492
C	-1.1323171352	 2.2642713792	-0.0158291979	-0.233526
C	-0.5201545688	 3.6532451928	 0.0383519806	-0.02328
C	 0.1425970899	 3.7772188555	 1.4489166285	-0.079025
O	 1.2282007236	 2.8485085611	 1.3381382278	-0.26639
C	 1.1346073538	 2.3701076614	-0.0174593223	 0.032348
O	 0.6797265593	 3.4840537976	-0.7417880575	-0.226219
H	 0.1839594139	-2.2374358549	 0.0371312563	 0.194985
H	-2.1794283586	 2.0253002815	 0.1009035354	 0.121621
H	-1.107281944	 4.5012775608	-0.3056357836	 0.100557
H	 0.5355205877	 4.7860496214	 1.6123280535	 0.115707
H	-0.5247730489	 3.4959652094	 2.2690169879	 0.111062
H	 2.1018928554	 2.0059076691	-0.3538301004	 0.103994
115.3584	150.5938	293.1091	372.3541	442.205	488.0349	543.3802	594.0852	634.6817	643.3397	650.06	771.2428	820.5546	838.5741	866.3417	875.7881	915.8906	923.1353	974.2712	985.0194	1043.6664	1108.1196	1180.5723	1191.8395	1234.1538	1238.5454	1280.1441	1292.3772	1330.2158	1355.5825	1512.2185	1645.299	2223.3604	3041.5987	3094.2004	3156.8671	3170.2226	3241.6241	3503.1074
C#CC1=CC2COC1O2	C#CC1=C[C@H]2CO[C@@H]1O2	
InChI=1S/C7H6O2/c1-2-5-3-6-4-8-7(5)9-6/h1,3,6-7H,4H2	InChI=1S/C7H6O2/c1-2-5-3-6-4-8-7(5)9-6/h1,3,6-7H,4H2/t6-,7+/m0/s1
