14
gdb 42210	3.37928	1.16238	0.87434	3.7268	72.28	-0.2633	-0.1116	0.1517	1223.4166	0.100276	-436.701394	-436.693181	-436.692237	-436.735492	28.104	
O	 0.0095303819	-0.0592359085	-0.0608652361	-0.283364
C	-0.0581459682	 1.1489716327	-0.0113736603	 0.219444
C	 1.1844807251	 1.9553197035	-0.0008849453	 0.232789
N	 2.1491791625	 2.592801009	 0.0077531231	-0.316557
C	-1.3015155981	 1.927120557	 0.0415869278	 0.202737
C	-2.5270912424	 1.3908905339	 0.0432491715	-0.171495
C	-3.5507000662	 2.4772452852	 0.1043736081	-0.106666
O	-2.813542368	 3.6934466592	 0.1381388145	-0.265243
C	-1.4123046432	 3.4344984676	 0.102317805	-0.176742
H	-2.7525409144	 0.3330569772	 0.0062576701	 0.149721
H	-4.2212565492	 2.4584716166	-0.769789083	 0.127932
H	-4.1887272511	 2.3896561131	 0.9984662204	 0.12793
H	-0.9288441784	 3.855267178	 0.995896321	 0.129769
H	-0.9613668803	 3.9240972155	-0.7730221271	 0.129745
50.6643	86.0433	110.9519	177.356	242.4983	289.1827	426.6242	429.8532	480.7995	653.0392	742.3327	773.7538	861.6777	873.9477	917.1369	962.8886	1025.1013	1028.1573	1064.2358	1115.5472	1175.0315	1225.5101	1247.9796	1285.7956	1367.2814	1395.8818	1502.6061	1525.5709	1670.2475	1753.5036	2338.725	2975.4169	2991.907	2995.6602	3019.0623	3234.1898
O=C(C#N)C1=CCOC1	O=C(C#N)C1=CCOC1	
InChI=1S/C6H5NO2/c7-3-6(8)5-1-2-9-4-5/h1H,2,4H2	InChI=1S/C6H5NO2/c7-3-6(8)5-1-2-9-4-5/h1H,2,4H2
