20
gdb 109977	2.23578	1.28605	0.91866	2.6924	79.17	-0.2748	0.0279	0.3028	1303.0106	0.170743	-403.157179	-403.147746	-403.146802	-403.191432	35.092	
C	-0.4146060229	 1.3719224663	-0.0131858805	-0.395841
C	-0.2669130809	-0.1503648711	 0.1019408364	-0.200385
C	 0.727288435	-0.5634738488	 1.1883095264	-0.047054
C	 0.1708643331	-0.5693055484	 2.65577345	 0.148446
O	-0.9057603574	 0.2522222402	 3.0170531506	-0.420353
C	-0.0435941164	-2.1001293842	 2.562060826	-0.280988
C	 0.9443631856	-2.1143829117	 1.3556645339	-0.166784
C	 0.6375918069	-2.9825131334	 0.2334267211	 0.280815
N	 0.3758347071	-3.6612654628	-0.6659522473	-0.337883
H	 0.542348134	 1.8348893009	-0.2774695858	 0.11904
H	-1.1373820667	 1.636477989	-0.7907397625	 0.117014
H	-0.7462268983	 1.811010991	 0.9313631271	 0.133819
H	-1.2485897881	-0.6107130356	 0.2832798748	 0.088746
H	 0.0685521015	-0.5634734347	-0.8561677737	 0.126528
H	 1.6584665509	-0.0054412523	 1.0541018525	 0.081899
H	 0.969431882	-0.3285670501	 3.3632775425	 0.100288
H	-1.664736597	 0.0198925206	 2.4719007012	 0.286108
H	 0.2076442606	-2.7165104734	 3.4264806711	 0.121482
H	-1.0599226064	-2.3413255794	 2.2378007832	 0.118832
H	 1.9640501374	-2.3234570619	 1.690206973	 0.126271
79.4621	116.9715	135.4134	186.2753	216.6605	271.7346	287.1574	333.0782	367.7055	409.3149	487.4734	553.4001	596.8539	668.3408	752.9941	783.0631	822.0234	914.3064	936.2857	979.6296	1015.0804	1047.4128	1049.6221	1089.618	1111.4671	1138.8217	1161.2312	1201.4537	1236.7476	1257.9485	1273.7673	1300.1758	1318.3321	1341.2709	1349.8534	1392.9221	1411.2559	1444.1316	1485.4284	1495.405	1498.372	1515.3763	2350.1361	3008.938	3038.7609	3055.1741	3063.6229	3068.4178	3072.8014	3080.3101	3104.1989	3123.707	3131.8859	3815.6083
CCC1C(O)CC1C#N	CC[C@H]1[C@@H](O)C[C@H]1C#N	
InChI=1S/C7H11NO/c1-2-6-5(4-8)3-7(6)9/h5-7,9H,2-3H2,1H3	InChI=1S/C7H11NO/c1-2-6-5(4-8)3-7(6)9/h5-7,9H,2-3H2,1H3/t5-,6+,7-/m0/s1
