17
gdb 85620	2.41981	1.5891	1.20415	5.3856	70.01	-0.2585	-0.0257	0.2328	1055.6535	0.136421	-458.982805	-458.974575	-458.973631	-459.016211	30.869	
O	 0.2284971728	 1.3907668304	 0.2388751952	-0.422446
C	 0.0815035521	-0.0133272729	 0.0054543677	 0.038729
C	-1.4167997143	-0.3137889877	 0.0503468283	-0.316649
C	-2.4012530762	 0.2120646927	-1.0039956459	 0.390506
O	-3.5784092542	 0.1552341974	-0.7683588727	-0.311692
O	-2.0233703895	 0.6376036411	-2.231583666	-0.225916
C	-0.6979093263	 1.0864476853	-2.5870486268	-0.112645
C	 0.3694658399	 0.031142015	-2.4672841139	-0.084286
C	 0.7255322929	-0.4707280025	-1.2864500669	-0.084856
H	 1.1624546473	 1.607565766	 0.1485925946	 0.286579
H	 0.5361217517	-0.5661475926	 0.8407749958	 0.077861
H	-1.5480336165	-1.4021260642	 0.0329647324	 0.142901
H	-1.8190199177	 0.0274651137	 1.0079710596	 0.149145
H	-0.8117521692	 1.409785609	-3.6226354415	 0.122423
H	-0.449241445	 1.9533109974	-1.9710087964	 0.13961
H	 0.8381258209	-0.3219292172	-3.3812780286	 0.108914
H	 1.4769291014	-1.253260171	-1.2233259049	 0.101824
38.1277	121.2034	220.7207	253.4495	307.3387	335.0564	373.8008	400.8775	491.8851	571.075	592.809	660.5891	691.6175	795.8711	825.6315	874.9009	908.593	941.7853	992.9219	1041.3448	1055.0627	1063.7117	1102.9767	1206.6126	1224.2826	1239.5189	1268.6264	1303.8202	1362.8132	1381.9364	1406.4951	1411.9883	1426.2428	1440.6426	1496.9744	1718.6452	1824.4351	2987.2408	3053.8809	3078.4477	3105.6994	3129.2941	3157.3932	3181.3172	3814.3239
OC1CC(=O)OCC=C1	O[C@H]1CC(=O)OCC=C1	
InChI=1S/C6H8O3/c7-5-2-1-3-9-6(8)4-5/h1-2,5,7H,3-4H2	InChI=1S/C6H8O3/c7-5-2-1-3-9-6(8)4-5/h1-2,5,7H,3-4H2/t5-/m1/s1
