23
gdb 39621	4.10111	0.94425	0.80245	0.1334	95.03	-0.2135	0.0249	0.2384	1505.3188	0.207143	-351.166774	-351.157876	-351.156932	-351.201508	33.843	
C	 0.1274142465	 1.364426248	-0.5486885609	-0.206668
C	 1.4544668748	 1.5848110014	 0.2439746225	-0.32047
C	 1.2736532591	 0.2001139193	 0.8499614337	 0.25142
C	-0.1147678018	 0.0429355688	 0.2465271631	-0.320895
C	 2.0598176713	-0.5968648387	 1.5612813438	 0.193666
C	 3.4737073295	-0.264120011	 2.0172981532	-0.298246
C	 3.8335814091	-1.3889503649	 3.0101641851	-0.202083
C	 3.0470957268	-2.6032210813	 2.484756257	-0.201596
C	 1.7013496214	-1.9954018333	 2.0400625705	-0.297774
H	-0.6335140871	 2.1389877491	-0.4326888801	 0.096985
H	 0.2899088251	 1.1975963085	-1.6158487707	 0.102847
H	 2.3578175916	 1.7410783816	-0.3555867535	 0.101894
H	 1.3975209491	 2.4012291958	 0.9742907558	 0.103832
H	-0.9287760777	 0.1157997891	 0.9778707308	 0.103967
H	-0.2883953348	-0.8592292482	-0.3505126747	 0.102082
H	 4.161793666	-0.2843254015	 1.1601691314	 0.105282
H	 3.554124967	 0.7361955059	 2.4549939953	 0.101726
H	 4.9097566127	-1.5689098356	 3.0826284033	 0.09159
H	 3.4781300496	-1.1266986992	 4.0141955464	 0.09774
H	 3.5656455984	-3.0327359078	 1.6187722573	 0.097552
H	 2.9350543961	-3.3994121124	 3.2259689016	 0.091402
H	 1.0163280681	-1.9384581019	 2.8980913547	 0.105108
H	 1.1900842794	-2.5878020117	 1.2741208743	 0.100638
34.8826	69.0802	131.5496	160.746	255.7818	269.7018	377.1272	472.4446	479.8535	575.6532	680.0142	728.9071	760.0951	826.8965	852.2763	869.0823	907.7187	915.7269	919.726	934.0755	957.8404	994.9833	1009.5548	1039.7528	1054.1761	1084.4579	1090.3932	1147.5431	1177.8574	1197.0008	1217.5078	1220.4517	1236.8081	1239.0077	1252.828	1273.6882	1276.9731	1301.7265	1328.9369	1338.2605	1346.6461	1462.3077	1471.9687	1475.9243	1477.368	1492.2038	1497.3467	1507.8781	1787.7449	3002.4693	3003.9842	3021.9982	3025.9595	3028.8515	3034.3289	3059.2606	3063.7847	3064.9227	3067.3115	3069.9383	3087.2105	3094.3267	3120.478
C1CC(C1)=C1CCCC1	C1CC(=C2CCCC2)C1	
InChI=1S/C9H14/c1-2-5-8(4-1)9-6-3-7-9/h1-7H2	InChI=1S/C9H14/c1-2-5-8(4-1)9-6-3-7-9/h1-7H2
