15
gdb 25498	4.3485	0.97509	0.86634	1.8805	74.22	-0.2592	-0.0543	0.2049	1283.204	0.113791	-416.865308	-416.857576	-416.856632	-416.899528	27.127	
O	 0.0229294712	-0.1576167202	-0.1249165284	-0.222319
C	 0.020514779	 1.0432555766	-0.1272936534	 0.164191
C	 1.2779755812	 1.906987685	-0.0717170828	-0.392284
C	 1.3062973467	 2.9168936782	-1.1914850554	 0.199709
C	 1.8185415276	 2.6092805364	-2.453764764	-0.030995
N	 1.8278890236	 3.4773060584	-3.4647592956	-0.24214
C	 1.306067732	 4.6783327905	-3.207765368	 0.079985
N	 0.7889789678	 5.0960302617	-2.0519148844	-0.243134
C	 0.7971985154	 4.2084805635	-1.0566826647	-0.042458
H	-0.9280056877	 1.6249186731	-0.1742800844	 0.087158
H	 1.270931591	 2.4275345692	 0.8952068466	 0.135809
H	 2.1463077391	 1.2437944442	-0.0972760089	 0.138059
H	 2.2423454636	 1.6257626415	-2.6517034872	 0.12628
H	 1.3052295661	 5.3927758105	-4.0271155621	 0.12628
H	 0.3870960832	 4.5437789514	-0.1046274472	 0.11586
27.6032	53.5106	141.7984	269.0586	311.8957	415.5853	436.0881	503.3052	615.0917	642.1853	756.635	783.0092	857.219	934.137	1003.2248	1015.6375	1016.6442	1051.5127	1062.1182	1141.8701	1183.637	1219.3325	1247.8474	1255.5736	1295.124	1381.6198	1420.1224	1453.5183	1460.5083	1466.3835	1594.6405	1624.6266	1839.1874	2878.0071	3029.435	3108.9699	3136.2796	3143.8358	3171.6922
O=CCC1=CN=CN=C1	O=CCc1cncnc1	
InChI=1S/C6H6N2O/c9-2-1-6-3-7-5-8-4-6/h2-5H,1H2	InChI=1S/C6H6N2O/c9-2-1-6-3-7-5-8-4-6/h2-5H,1H2
