13
gdb 130513	4.06889	1.68046	1.18928	3.5634	75.83	-0.2182	-0.1082	0.11	933.5265	0.09169	-415.586666	-415.580674	-415.57973	-415.616957	23.821	
O	-0.0722996333	 1.3260672256	 0.0102083063	-0.250327
N	 1.050677493	 2.1155668329	 0.0033854544	-0.073666
C	 2.2098820962	 1.5210214582	-0.0112659777	 0.039878
C	 2.447185016	 0.1077047611	-0.021236922	-0.281525
C	 1.3522439505	-0.6857674953	-0.0147180523	 0.261716
C	 1.018054504	-2.0794717009	-0.0189623384	-0.145093
N	-0.2875617125	-2.2394444593	-0.0069031745	-0.211701
C	-0.9114978982	-0.9880167844	 0.0060086241	-0.180351
C	 0.0396553391	-0.0177208189	 0.0018457296	 0.311207
H	 3.0367526054	 2.2233267902	-0.0156421572	 0.148086
H	 3.4652383223	-0.2661636799	-0.0333095188	 0.14126
H	 1.7030795875	-2.9164448255	-0.0302569571	 0.118034
H	-1.98594591	-0.9020004138	 0.0170909138	 0.122483
175.1036	249.2366	354.0871	415.6317	533.9114	574.1358	603.9682	644.454	731.0238	737.7691	803.7877	826.4047	845.0891	888.2099	934.4358	951.2427	974.9128	1052.6485	1075.1542	1175.7383	1239.8976	1277.6442	1318.8101	1340.7002	1352.2012	1450.6499	1550.0124	1587.5607	1701.566	3191.2826	3203.309	3222.5829	3263.9351
O1N=CC=C2C=NC=C12	O1N=C[CH]c2cncc12	
InChI=1S/C6H4N2O/c1-2-8-9-6-4-7-3-5(1)6/h1-4H	InChI=1S/C6H5N2O/c1-2-8-9-6-4-7-3-5(1)6/h1-4,7H
