15
gdb 61116	2.08769	1.33164	1.04502	3.9437	70.1	-0.2977	-0.0714	0.2263	1170.8573	0.109896	-416.841349	-416.831798	-416.830853	-416.876367	32.757	
C	 0.1242554978	 1.6465160336	-0.2833862498	-0.428102
C	 0.0299628789	 0.106832588	-0.1258679827	-0.038407
C	 0.6434477764	-0.386782809	 1.2107363533	-0.364445
C	 2.0217861869	 0.0520688231	 1.4015490194	 0.276565
N	 3.1081890616	 0.4158224298	 1.5490303508	-0.299231
C	-1.4723094047	-0.2596783397	-0.1544347784	 0.157105
O	-2.0791783624	-0.6295110371	 0.8103555348	-0.231413
C	 0.6625599926	-0.5502574408	-1.2751768435	 0.277512
N	 1.1193753144	-1.0790527154	-2.1955535434	-0.310642
H	 1.1706632053	 1.9560907494	-0.3177045766	 0.178604
H	-0.3639432487	 1.9715954981	-1.2053807393	 0.149636
H	-0.3632529793	 2.1328618025	 0.5660028766	 0.147965
H	 0.020675226	-0.011802012	 2.0278668314	 0.178897
H	 0.5990788663	-1.4786218063	 1.2595354689	 0.178711
H	-1.9516554513	-0.1156477342	-1.1440597115	 0.127246
55.8348	81.2626	128.7052	176.925	187.4317	228.6958	258.0419	328.4388	346.4871	387.0727	478.0283	527.0045	579.7173	635.4107	732.7973	878.9216	914.459	967.508	974.1517	1009.7944	1106.6372	1162.4127	1198.2139	1280.485	1338.9906	1401.8735	1417.7731	1454.9496	1489.6198	1497.3886	1841.0611	2356.1485	2367.6501	2934.9628	3052.3402	3071.3442	3113.779	3132.5735	3143.735
CC(CC#N)(C=O)C#N	C[C@@](CC#N)(C=O)C#N	
InChI=1S/C6H6N2O/c1-6(4-8,5-9)2-3-7/h5H,2H2,1H3	InChI=1S/C6H6N2O/c1-6(4-8,5-9)2-3-7/h5H,2H2,1H3/t6-/m0/s1
