18
gdb 87424	3.51242	1.45429	1.37286	2.6419	75.42	-0.2247	0.0806	0.3053	1007.1273	0.147402	-401.835454	-401.828103	-401.827159	-401.867067	29.386	
C	-0.2140948789	 1.4164063558	 0.0165139056	-0.315873
N	 0.0035496997	-0.0207901428	 0.0989630636	-0.13812
C	 1.3706656055	-0.5111386362	-0.1459078055	-0.341617
C	 0.7683688917	-0.5253910413	 1.2052893782	 0.465858
C	 1.3206836841	 0.1302346718	 2.4572995411	-0.250455
C	 0.3924536492	-0.3947985514	 3.5714280418	 0.09461
O	-0.6459488368	-1.1613156624	 2.9631276974	-0.290606
C	 0.3884032281	-1.7140892037	 2.0937238756	-0.05846
C	 1.5107468409	-1.2511307719	 3.1001927334	-0.139498
H	 0.6416403239	 2.0148688971	 0.3706473848	 0.095064
H	-0.4159980373	 1.6929570181	-1.0229468441	 0.121988
H	-1.0890969256	 1.6793763734	 0.6185256322	 0.132097
H	 1.4490376191	-1.4155438148	-0.7449414929	 0.114465
H	 2.1521093401	 0.2257694261	-0.3322894272	 0.105177
H	 1.9465769124	 1.0053073842	 2.5687626522	 0.097045
H	 0.1972130208	 0.1159624086	 4.5049875782	 0.112007
H	 0.1616092387	-2.7067201611	 1.7127358632	 0.091036
H	 2.3635334744	-1.7252459395	 3.5634345124	 0.105282
126.3074	162.6579	206.2488	246.0572	375.2878	412.2743	500.1656	595.3322	624.9917	762.4772	768.1886	781.7195	827.9937	834.7766	873.1394	901.0241	926.3463	947.6118	978.9599	1021.3126	1034.0616	1046.1727	1053.9593	1072.2872	1113.2159	1130.8747	1149.8693	1163.5164	1175.1296	1203.6333	1208.5302	1241.3855	1278.7796	1361.3172	1440.3673	1452.1018	1494.2723	1495.8871	1523.3905	2967.0178	3069.9188	3080.6225	3108.3342	3157.8231	3165.9919	3205.3197	3208.7554	3226.5655
CN1CC11C2C3OC1C23	CN1C[C@]21[C@H]1[C@H]3O[C@@H]2[C@@H]13	
InChI=1S/C7H9NO/c1-8-2-7(8)4-3-5(4)9-6(3)7/h3-6H,2H2,1H3	InChI=1S/C7H9NO/c1-8-2-7(8)4-3-5(4)9-6(3)7/h3-6H,2H2,1H3/t3-,4+,5-,6+,7-,8?/m0/s1
