17
gdb 39177	2.53284	1.7217	1.4959	2.0705	73.28	-0.218	-0.0193	0.1987	951.2324	0.137563	-421.827202	-421.819881	-421.818937	-421.859078	28.404	
C	 0.0879246671	 1.4604787865	 0.2571287123	-0.256323
C	 1.6177926169	 1.4426900205	-0.0447121164	-0.161055
C	 1.9812364004	 1.950264499	-1.4448704433	-0.08316
O	 1.0107058346	 1.7733391822	-2.4792906801	-0.239694
C	 0.2688103134	 0.638655324	-2.6201916397	 0.061756
C	-0.2199101357	-0.1738272915	-1.6788360004	-0.144683
O	 2.3103459211	-0.9565902961	 0.3326780659	-0.311897
C	 1.5287497377	-0.0948636552	 0.0597776631	 0.420163
C	 0.0064645756	-0.0361963584	-0.195374792	-0.185631
H	-0.1176263085	 1.5777891768	 1.3230955532	 0.113762
H	-0.5133356315	 2.1645439039	-0.3183636423	 0.124072
H	 2.2951722566	 1.9118122811	 0.6747643419	 0.101192
H	 2.1259007702	 3.0336602773	-1.4052519336	 0.125899
H	 2.9271906257	 1.4933175371	-1.7661687691	 0.125298
H	 0.0350623262	 0.4776392184	-3.6686445425	 0.115813
H	-0.7850381343	-1.0310370691	-2.0252329443	 0.10449
H	-0.6246067955	-0.7187621365	 0.3755113372	 0.089999
90.1517	153.0744	198.4226	322.7605	344.7103	411.9704	473.8276	545.9212	662.6867	731.038	750.7208	784.4522	814.2284	834.3745	876.0741	896.4058	940.1434	955.2204	1012.8967	1051.2932	1068.8673	1081.2121	1119.8672	1141.8172	1155.9715	1218.228	1240.3154	1280.2365	1303.5202	1311.8156	1323.3615	1403.2195	1426.5798	1487.4388	1497.9971	1697.045	1892.1313	3017.1578	3071.7613	3080.6647	3089.6993	3104.2051	3144.0348	3172.8573	3202.8469
C1C2COC3C4OC23C14	C1[C@@H]2COC=C[C@H]1C2=O	
InChI=1S/C7H8O2/c1-3-2-8-6-5-4(1)7(3,6)9-5/h3-6H,1-2H2	InChI=1S/C7H8O2/c8-7-5-1-2-9-4-6(7)3-5/h1-2,5-6H,3-4H2/t5-,6-/m1/s1
