21
gdb 78601	2.9516	1.3686	1.11413	1.5787	82.98	-0.2476	0.0734	0.321	1178.8943	0.181576	-387.023288	-387.014562	-387.013618	-387.055979	34.418	
C	-0.1548796452	 1.6046620782	-0.041233408	-0.424509
C	-0.0241289598	 0.0898909729	 0.0057782869	-0.001199
C	 1.189558815	-0.5973408074	-0.6612404006	-0.091929
C	 2.1463875114	-0.2658871795	 0.5371192142	-0.104422
C	 2.5957506728	-1.73330069	 0.6354238937	 0.094785
O	 3.0774352053	-2.2506571866	 1.8521209043	-0.451628
C	 1.0949299184	-1.8469640908	 0.2923633141	 0.308605
C	 0.268904785	-3.0898142984	 0.1083458301	-0.52943
C	 0.7401518807	-0.5780028469	 1.170939983	-0.122588
H	 0.7922211877	 2.1025967265	 0.1897723358	 0.114614
H	-0.4743666469	 1.9402663796	-1.0343065527	 0.114667
H	-0.9017460597	 1.9567745027	 0.6793498996	 0.113521
H	-0.9867228292	-0.3839388231	-0.2252559606	 0.061558
H	 1.4759007619	-0.6233989761	-1.7149484865	 0.064831
H	 2.7331987541	 0.6430876568	 0.6697512427	 0.071158
H	 3.2924807975	-2.0805150333	-0.1353704542	 0.076967
H	 2.5109484092	-1.9279522557	 2.561588685	 0.2797
H	 0.3191988878	-3.7216953926	 1.0019447143	 0.123715
H	-0.7844999087	-2.8555119683	-0.079434603	 0.120575
H	 0.6369721155	-3.6825756427	-0.7364854371	 0.121716
H	 0.4849669873	-0.5707719254	 2.2341444988	 0.059291
167.6875	187.1289	188.2354	210.8171	218.7091	257.2927	297.819	342.0405	406.963	520.7049	593.178	649.9347	731.9211	746.8818	834.3984	847.9726	853.5024	864.3792	900.3827	947.8408	982.6826	1021.2403	1058.5613	1059.8621	1087.3347	1110.0874	1119.6893	1143.5948	1148.9545	1165.3608	1172.3964	1210.3066	1238.1556	1272.0417	1284.8752	1293.2842	1343.0663	1398.6801	1408.9335	1414.4601	1448.0099	1485.0613	1492.6716	1495.6048	1498.7573	3019.9695	3026.2443	3028.2996	3056.4043	3068.831	3087.4985	3087.719	3091.4809	3094.2537	3101.3304	3116.2201	3802.8108
CC1C2C3C(O)C2(C)C13	C[C@H]1[C@H]2[C@@H]3[C@@H](O)[C@@]2(C)[C@H]13	
InChI=1S/C8H12O/c1-3-5-4-6(3)8(5,2)7(4)9/h3-7,9H,1-2H3	InChI=1S/C8H12O/c1-3-5-4-6(3)8(5,2)7(4)9/h3-7,9H,1-2H3/t3-,4-,5-,6+,7-,8+/m1/s1
