16
gdb 5231	7.18431	1.19359	1.03683	1.1222	68.24	-0.1916	0.0382	0.2298	1123.5305	0.130269	-383.762691	-383.754888	-383.753944	-383.796659	27.806	
C	-0.0111164495	 1.4548211894	 0.0098889267	-0.389025
C	 0.008822283	-0.0615496689	 0.0018656257	-0.051045
O	-1.3556142458	-0.5071706364	 0.011408939	-0.278131
C	-1.579839572	-1.82367588	 0.0058339495	 0.457514
C	-2.7526500882	-2.5151332216	 0.0100929313	-0.320834
C	-2.3724262059	-3.900306575	 0.0004962774	-0.159564
C	-1.0187397583	-3.9402994213	-0.0087436616	-0.035965
O	-0.5139025883	-2.6580376608	-0.0055575652	-0.187814
H	 1.0129503361	 1.8396244289	 0.0030608846	 0.121871
H	-0.5327210299	 1.8399040712	-0.87048442	 0.132631
H	-0.5174278383	 1.8307046095	 0.9030734723	 0.13264
H	 0.5139224855	-0.4517809101	-0.8895328287	 0.11623
H	 0.5292911748	-0.4609176216	 0.8802694484	 0.116277
H	-3.7428205974	-2.0925616095	 0.0188196083	 0.107365
H	-3.0347475176	-4.7521117326	 0.0005362588	 0.108829
H	-0.2828472781	-4.7249993812	-0.0177700665	 0.129022
16.3004	66.3326	164.031	249.2038	290.6451	351.959	470.99	606.8958	643.425	700.9824	719.3464	759.3355	816.492	838.5041	894.9354	902.3579	978.1056	1025.1763	1061.5941	1096.2691	1133.5423	1176.5105	1181.43	1250.3907	1294.277	1298.6774	1393.9404	1418.8902	1428.4889	1484.3542	1499.1091	1522.022	1564.1467	1657.6133	3027.7476	3048.3728	3066.2048	3123.3516	3128.3675	3253.0551	3279.1894	3299.003
CCOC1=CC=CO1	CCOc1ccco1	
InChI=1S/C6H8O2/c1-2-7-6-4-3-5-8-6/h3-5H,2H2,1H3	InChI=1S/C6H8O2/c1-2-7-6-4-3-5-8-6/h3-5H,2H2,1H3
