20
gdb 87765	3.72109	1.06487	1.0608	2.2225	80.38	-0.2383	0.0751	0.3134	1247.8501	0.170236	-403.088843	-403.080092	-403.079148	-403.121887	34.158	
C	 0.0423248085	 1.5149607333	-0.0185721194	-0.481263
C	-0.0570025394	 0.0233793578	 0.0852004452	 0.348413
C	-1.3676560329	-0.7986513023	 0.052531689	-0.371936
C	-0.7060479931	-1.7926666214	 1.0289939505	 0.362846
C	-1.3772328125	-2.4717579719	 2.19288068	-0.405401
C	-0.833883231	-3.2814089192	 1.0334296568	 0.030986
O	-1.7202926442	-3.8224788178	 0.095698341	-0.423393
C	 0.5627200551	-0.9610504286	 1.0424889685	-0.190665
N	 1.0812376861	-0.8001100739	-0.3179317779	-0.361333
H	 1.062466974	 1.8439117678	 0.1956188566	 0.131206
H	-0.2145329792	 1.8542896534	-1.0294227479	 0.119994
H	-0.6411222067	 2.0061816386	 0.6823181034	 0.114671
H	-2.2141732912	-0.2719973606	 0.5025653448	 0.104727
H	-1.668852946	-1.1882022387	-0.925020783	 0.108192
H	-0.8548317891	-2.5183254679	 3.1438356668	 0.112059
H	-2.4566355526	-2.3800409215	 2.2670462745	 0.113369
H	 0.067506454	-3.870224194	 1.2101145147	 0.085288
H	-2.1698536701	-4.5692101974	 0.5051872677	 0.288095
H	 1.2388025546	-0.8122628013	 1.8779315475	 0.086569
H	 0.8175271558	-1.5789819943	-0.9201389587	 0.227578
94.1127	142.1296	190.845	217.2561	264.9045	305.3599	340.3286	407.078	429.1677	469.2359	525.4155	558.9218	668.5584	792.4058	812.9499	841.9167	889.933	900.4866	944.1554	978.771	980.0888	1004.5461	1021.8586	1051.0082	1094.2381	1100.7493	1130.9249	1144.2147	1163.1948	1187.3286	1207.5266	1232.505	1243.8092	1283.0378	1305.3104	1351.6756	1399.501	1426.5932	1446.448	1484.1789	1485.5452	1494.5935	1497.0305	3027.0965	3047.4725	3086.2042	3087.7086	3098.8797	3117.3341	3119.6865	3167.0708	3206.531	3455.612	3801.6704
CC12CC3(CC3O)C1N2	C[C@]12C[C@]3(C[C@H]3O)[C@H]1N2	
InChI=1S/C7H11NO/c1-6-3-7(2-4(7)9)5(6)8-6/h4-5,8-9H,2-3H2,1H3	InChI=1S/C7H11NO/c1-6-3-7(2-4(7)9)5(6)8-6/h4-5,8-9H,2-3H2,1H3/t4-,5+,6+,7+/m1/s1
