14
gdb 25435	2.66272	1.57199	0.98844	4.6089	73.45	-0.2396	-0.067	0.1726	1100.2551	0.102422	-436.719604	-436.712272	-436.711328	-436.75177	27.118	
N	 0.1862483651	 1.4188567388	 0.2489952006	-0.532839
C	 0.1539782877	 0.1357930718	 0.1868370467	 0.225623
C	 1.2879546831	-0.7790540339	 0.3463340052	-0.214386
C	 1.1368390431	-2.1056825514	 0.2612829816	 0.060231
O	-0.0598878695	-2.715731396	 0.0235681325	-0.195583
C	-1.1355302998	-1.9199430509	-0.1308713773	 0.040155
C	-1.1093163954	-0.5730011244	-0.0669343894	 0.022128
C	-2.3875911647	 0.1599719326	-0.2598847315	 0.100707
O	-3.4483435538	-0.3872400191	-0.4701870044	-0.282505
H	 1.1355683948	 1.7486828189	 0.43075085	 0.212279
H	 2.2762076845	-0.3755590892	 0.5382203541	 0.119079
H	 1.9281293795	-2.8358027337	 0.3685399739	 0.150155
H	-2.0437967093	-2.479679913	-0.3155309122	 0.170954
H	-2.2939205355	 1.2579135695	-0.1946169799	 0.124002
100.114	133.5299	208.7347	259.3211	358.6641	421.6779	463.8356	498.2914	552.1697	646.408	747.0543	811.2028	818.5489	860.0452	890.5949	958.354	960.757	983.5073	1056.8889	1091.8928	1181.31	1198.5394	1284.5518	1328.6051	1391.876	1418.9791	1455.0633	1613.4162	1645.0914	1718.6651	1792.2334	2993.6479	3193.9868	3230.0523	3234.9723	3455.3539
N=C1C=COC=C1C=O	[NH]C1=CCOC=C1C=O	
InChI=1S/C6H5NO2/c7-6-1-2-9-4-5(6)3-8/h1-4,7H	InChI=1S/C6H6NO2/c7-6-1-2-9-4-5(6)3-8/h1,3-4,7H,2H2
