19
gdb 17792	5.83687	1.0677	1.05777	0.7585	72.26	-0.2267	0.0814	0.3081	1172.5928	0.166623	-364.969603	-364.961828	-364.960884	-365.002434	29.067	
O	-0.0955579658	 1.4910471952	-0.5597634404	-0.422946
C	-0.1192659283	 0.0786710199	-0.7090750384	-0.063073
C	-1.4029908519	-0.4332651822	-0.0619008709	-0.247909
C	-1.4788860737	-1.949361437	-0.0833755552	 0.08882
C	-2.8007329854	-2.756133896	 0.0014643267	-0.083555
C	-3.022733721	-2.3286823221	-1.4644546392	-0.174691
N	-1.5202639854	-2.6757652594	-1.459051982	-0.158086
C	-1.965731695	-3.8922521764	-0.6260331103	-0.164911
H	 0.6804438541	 1.8267528837	-1.017508455	 0.285341
H	-0.09978621	-0.2186633101	-1.7675031553	 0.108528
H	 0.7537889833	-0.3882719882	-0.2238143935	 0.082692
H	-1.4225200927	-0.1009471205	 0.9836081487	 0.109115
H	-2.2544931816	 0.0445463987	-0.5536523721	 0.108599
H	-0.6628377534	-2.3566696252	 0.5267098074	 0.06898
H	-3.5236172264	-2.8058001009	 0.824106947	 0.062429
H	-3.611515997	-2.9929892756	-2.1029967254	 0.099253
H	-3.2441997504	-1.2857934752	-1.691001256	 0.104414
H	-1.1608155566	-4.3340450218	-0.0316729118	 0.098175
H	-2.4891841428	-4.6495266471	-1.2155774744	 0.098825
64.7477	83.5715	135.5857	262.3178	329.7996	373.3233	390.3469	600.5812	627.3736	735.3375	779.0931	787.9518	838.5975	887.5737	905.7567	924.8496	1001.9282	1031.449	1051.9902	1055.4761	1077.4055	1097.8099	1139.8344	1157.0786	1163.8191	1179.4462	1199.8221	1224.3026	1231.283	1244.4713	1253.5376	1287.7982	1313.1266	1335.4421	1441.3306	1460.098	1487.7155	1519.085	1528.695	1555.5071	2965.3273	3013.3302	3021.4846	3030.8907	3041.016	3051.4479	3068.7162	3095.6664	3116.3231	3138.5895	3831.0735
OCCC1C2CN1C2	OCC[C@H]1[C@H]2CN1C2	
InChI=1S/C6H11NO/c8-2-1-6-5-3-7(6)4-5/h5-6,8H,1-4H2	InChI=1S/C6H11NO/c8-2-1-6-5-3-7(6)4-5/h5-6,8H,1-4H2/t6-/m0/s1
