21
gdb 15421	5.26902	0.85789	0.80007	1.332	76.83	-0.2446	0.0798	0.3244	1512.1177	0.187545	-366.227326	-366.217645	-366.216701	-366.262589	33.935	
C	 0.4607774032	 1.5265788226	 0.1393287605	-0.376165
C	-0.2226365701	 0.183868381	-0.1426324431	-0.182926
C	 0.3975839375	-0.5270543818	-1.3265850586	-0.00092
N	 1.6450075785	-1.2729002697	-1.0858102873	-0.334549
C	 0.4394632734	-2.0021751036	-1.5138217915	-0.039494
C	-0.1495662398	-2.9964688606	-0.5485234455	-0.055533
O	 0.3962842089	-4.2659640008	-0.8447016368	-0.234224
C	-0.0839504851	-5.2773483756	 0.0056660391	-0.224043
H	 1.522718734	 1.3766401506	 0.3571208333	 0.13017
H	 0.3861703666	 2.1989281051	-0.7230127762	 0.109357
H	 0.0052938164	 2.032639478	 0.9958920702	 0.110556
H	-0.153757577	-0.453444588	 0.7441058363	 0.104128
H	-1.2909530862	 0.3420556799	-0.340399473	 0.094512
H	 0.3453527565	 0.049329549	-2.2516978646	 0.076668
H	 2.2923764549	-1.1648488485	-1.8612069765	 0.230246
H	 0.4084242417	-2.3569999615	-2.5431021755	 0.087549
H	 0.0837236903	-2.7068721664	 0.486718778	 0.095091
H	-1.2493955274	-3.0227794853	-0.6515444188	 0.080616
H	 0.3839822951	-6.2155148598	-0.3029997333	 0.125336
H	 0.1718415901	-5.083234435	 1.0596231923	 0.104049
H	-1.1787079114	-5.3871177294	-0.0641367989	 0.099574
58.4886	84.1198	93.0321	107.2904	208.8393	231.7236	237.8086	288.7534	341.1024	437.69	484.4976	556.6856	756.2525	816.3769	849.4053	890.747	946.5162	989.5925	994.1088	1014.3711	1056.1642	1078.8346	1112.2853	1157.2581	1158.1983	1182.3984	1207.9362	1231.2215	1253.2924	1273.8563	1282.9034	1306.1863	1341.6621	1380.7829	1405.63	1437.0269	1475.2179	1477.1679	1484.7167	1494.1842	1498.4204	1499.4004	1508.9841	1523.458	2943.6967	2965.3353	3006.5964	3011.2694	3025.6322	3032.0683	3075.2776	3090.1727	3103.6993	3111.2877	3112.3349	3120.6562	3510.2463
CCC1NC1COC	CC[C@H]1N[C@H]1COC	
InChI=1S/C6H13NO/c1-3-5-6(7-5)4-8-2/h5-7H,3-4H2,1-2H3	InChI=1S/C6H13NO/c1-3-5-6(7-5)4-8-2/h5-7H,3-4H2,1-2H3/t5-,6+/m1/s1
