21
gdb 84376	2.22588	1.57986	1.19706	1.6153	78.94	-0.2396	0.008	0.2476	1135.2089	0.181161	-424.23694	-424.227501	-424.226557	-424.270313	37.283	
C	-0.9234988324	 1.1571801708	-0.0137902652	-0.420909
C	 0.0319242664	-0.036711173	-0.0865126315	-0.030287
C	 1.118429815	 0.0689714591	-1.133615225	-0.069175
C	 2.2561456431	-0.5017613032	-0.7402886666	-0.147888
C	 2.1205293059	-1.0878212239	 0.642170927	 0.047064
O	 3.2773653024	-1.0012855253	 1.4629458026	-0.438843
C	 0.8355422653	-0.3832670719	 1.2041707825	 0.335636
C	 1.2089510305	 0.8507230293	 2.0318833077	-0.452109
O	 0.0358040123	-1.2648181876	 1.9861660085	-0.483995
H	-0.3933575177	 2.1011827368	 0.145333931	 0.115085
H	-1.4865642331	 1.2483828216	-0.9486401958	 0.111764
H	-1.6464870685	 1.0278656176	 0.7973291048	 0.128046
H	-0.5739223162	-0.9299708157	-0.2990727662	 0.09969
H	 0.9421045588	 0.5203070807	-2.1048833017	 0.095278
H	 3.1633041894	-0.6057481708	-1.325763661	 0.098342
H	 1.9054038733	-2.1634800456	 0.5907098549	 0.100384
H	 3.6202003591	-0.1037278548	 1.395713323	 0.279508
H	 1.7525787342	 1.5911414523	 1.4351494361	 0.111317
H	 0.3097698249	 1.3239833346	 2.4313517283	 0.126032
H	 1.8489384567	 0.5576785894	 2.8698771719	 0.115559
H	 0.5349475008	-1.4819456405	 2.7814730145	 0.279501
71.5422	196.8329	240.3786	264.5467	288.8705	295.935	309.8639	324.5977	344.6259	368.1138	391.5291	487.1939	509.1206	579.7922	611.9781	700.1353	730.6732	799.8529	857.7977	926.3263	950.2463	975.1702	995.5021	1039.678	1058.2294	1073.8095	1094.2746	1133.3522	1152.4651	1172.475	1213.3546	1249.9714	1274.2453	1313.7535	1344.4361	1352.786	1387.6765	1397.0705	1409.5447	1429.9521	1489.0769	1496.8303	1508.8582	1512.0004	1678.2233	2995.6575	3022.1118	3034.9166	3038.0891	3099.8271	3102.8887	3112.0193	3130.4745	3174.1276	3200.6387	3799.6192	3807.4908
CC1C=CC(O)C1(C)O	C[C@H]1C=C[C@@H](O)[C@]1(C)O	
InChI=1S/C7H12O2/c1-5-3-4-6(8)7(5,2)9/h3-6,8-9H,1-2H3	InChI=1S/C7H12O2/c1-5-3-4-6(8)7(5,2)9/h3-6,8-9H,1-2H3/t5-,6+,7+/m0/s1
