19
gdb 13562	2.84583	1.61731	1.1627	2.5597	72.63	-0.238	-0.0219	0.2161	1072.8814	0.162703	-365.042988	-365.033753	-365.032809	-365.077401	32.767	
C	 2.5659715123	 0.100279409	 0.9491286657	-0.400373
C	 1.2932822901	-0.7007350751	 0.6331908657	-0.031209
C	 0.1109572642	-0.0167170926	 1.306487596	 0.165915
O	-0.3495982141	-0.3400595743	 2.3702193688	-0.253402
N	 1.0626139381	-0.6896818327	-0.8070292477	-0.09538
C	 1.7740974942	-1.6672681594	-1.6261974179	-0.252733
C	 0.2973352871	-1.76853722	-1.4471507067	 0.024817
C	-0.327244022	-2.9168562918	-0.6836537233	-0.418871
H	 3.4270313415	-0.3585424066	 0.454244206	 0.125955
H	 2.474378235	 1.127906482	 0.5847492553	 0.130962
H	 2.7507315218	 0.117698488	 2.0264863907	 0.131991
H	 1.3864430833	-1.7057986764	 1.0692888018	 0.080153
H	-0.2887914965	 0.8460624155	 0.7266328743	 0.08544
H	 2.2090568231	-1.2921361592	-2.5490989406	 0.116322
H	 2.3782529979	-2.415886198	-1.113620466	 0.108488
H	-0.3276316494	-1.3940981948	-2.2567537365	 0.094384
H	 0.3591137753	-3.3664307173	 0.0378467609	 0.126813
H	-1.2243709663	-2.5957905858	-0.1432704231	 0.134819
H	-0.6271370057	-3.7020032905	-1.3854269933	 0.125909
51.9253	65.9232	148.8702	198.0105	211.3447	229.1558	287.6793	335.2569	370.8231	448.8395	503.584	541.9191	771.5489	792.0849	893.0854	907.6225	926.3299	952.7051	1028.9109	1044.762	1077.6038	1116.6161	1119.6829	1147.9217	1155.0059	1182.1262	1193.7318	1303.1151	1327.0928	1342.2963	1394.1719	1403.0735	1410.4329	1422.6571	1488.1944	1490.9507	1496.3999	1498.5342	1512.0437	1836.5291	2881.537	3000.2186	3038.3977	3041.6629	3085.1283	3098.699	3105.3731	3115.0645	3125.1256	3126.4582	3172.0107
CC(C=O)N1CC1C	C[C@@H](C=O)N1C[C@H]1C	
InChI=1S/C6H11NO/c1-5-3-7(5)6(2)4-8/h4-6H,3H2,1-2H3	InChI=1S/C6H11NO/c1-5-3-7(5)6(2)4-8/h4-6H,3H2,1-2H3/t5-,6+,7?/m1/s1
