21
gdb 70001	2.82986	1.66564	1.56287	1.1981	80.1	-0.2471	0.0834	0.3305	977.5167	0.185977	-387.08438	-387.077285	-387.07634	-387.115175	30.956	
O	-0.0863009788	 1.3789457048	 0.152187929	-0.480175
C	-0.0031408487	-0.0060616168	-0.0187908098	 0.416996
C	-0.4794405779	-0.6279344814	-1.3064416921	-0.37427
C	-1.2617950896	-0.8312295512	-0.0161840689	-0.077212
C	-0.9480095565	-2.0022869709	 0.9419706517	-0.016531
C	 0.0857392873	-2.9745499315	 0.3233227468	-0.217127
C	 1.4005076303	-2.1247134631	 0.3145338135	-0.222947
C	 0.9496242877	-0.7795275012	 0.9300997722	-0.072969
C	-0.070001934	-1.2690416413	 1.9911984002	-0.212569
H	 0.6430803738	 1.7818707554	-0.3314395791	 0.278257
H	-0.9336080344	 0.0676814308	-2.0055380038	 0.107546
H	 0.0503557563	-1.4460290906	-1.7797420726	 0.108978
H	-2.2302408591	-0.3493956735	 0.0590764081	 0.090214
H	-1.8435957465	-2.4983188008	 1.3198611072	 0.05565
H	 0.1946253585	-3.8600795183	 0.9560899215	 0.093276
H	-0.2079875883	-3.3233787116	-0.6697995661	 0.098845
H	 2.1674153322	-2.5827561317	 0.9458900126	 0.093896
H	 1.8326610194	-2.0099558581	-0.6829515273	 0.09558
H	 1.7684797596	-0.1528871243	 1.2878393302	 0.052505
H	-0.5924815907	-0.4437581173	 2.4823932738	 0.102108
H	 0.3608450794	-1.9314932971	 2.7509105028	 0.079948
198.6596	292.1019	311.9392	315.5817	390.0381	410.61	467.9057	506.8955	578.1393	672.6791	747.2403	753.1287	813.7079	849.3142	875.9258	890.8173	902.2736	919.83	934.8551	953.4276	966.7661	979.1906	1007.4409	1035.9226	1059.3334	1076.7068	1092.0881	1134.6411	1148.8404	1169.6158	1215.1828	1225.4476	1237.8848	1256.0611	1281.4076	1291.4333	1310.7652	1327.3672	1337.6968	1342.8662	1400.8142	1485.2987	1493.494	1495.462	1520.2839	3039.0686	3050.8035	3061.1336	3086.8639	3096.4931	3099.1873	3103.6332	3106.6245	3132.7113	3172.3985	3217.3378	3791.1069
OC12CC1C1CCC2C1	O[C@]12C[C@H]1[C@H]1CC[C@@H]2C1	
InChI=1S/C8H12O/c9-8-4-7(8)5-1-2-6(8)3-5/h5-7,9H,1-4H2	InChI=1S/C8H12O/c9-8-4-7(8)5-1-2-6(8)3-5/h5-7,9H,1-4H2/t5-,6+,7-,8-/m0/s1
