18
gdb 66355	2.37808	1.47074	1.35821	2.7869	71.37	-0.2783	0.0176	0.2959	1056.5321	0.148248	-439.103889	-439.095561	-439.094617	-439.1365	31.699	
C	 0.0120666521	 1.5181004602	 0.0648787421	-0.424717
C	-0.0094510763	-0.009371154	-0.0082891046	 0.201367
C	 0.6984763371	-0.548580019	-1.2726980196	-0.226789
C	 0.9319774086	-2.0551441311	-1.1431946434	-0.109713
O	 1.6014390539	-2.3393321537	 0.0789062551	-0.22832
C	 0.8575981318	-1.8840626526	 1.1699601906	-0.000076
O	 0.6682364053	-0.4805259516	 1.1542728947	-0.264499
C	-1.4220582	-0.4802804796	 0.0117325715	 0.264546
N	-2.51816045	-0.8468640434	 0.0227841033	-0.344434
H	 1.0511436561	 1.8552325455	 0.0799433591	 0.1371
H	-0.4963328404	 1.9515116297	-0.8000378682	 0.135415
H	-0.483172897	 1.8588079337	 0.9764840277	 0.146988
H	 0.1124405018	-0.3177598461	-2.1675789692	 0.119641
H	 1.6634539685	-0.0376819272	-1.3468329947	 0.121418
H	-0.0256855365	-2.598114261	-1.1848841552	 0.117059
H	 1.5716004721	-2.4264572251	-1.947015576	 0.121639
H	-0.1238566024	-2.3883020299	 1.2043574163	 0.105515
H	 1.4300261456	-2.100507165	 2.0729393404	 0.12786
118.0689	153.0565	198.8045	226.9625	278.5244	306.3984	362.9069	409.6767	436.9467	496.7653	587.1852	603.6025	676.1477	687.5606	844.8861	887.6403	903.4336	976.6437	1009.2461	1031.3925	1058.5497	1091.225	1148.9555	1170.0504	1209.9191	1229.9928	1270.1672	1278.178	1331.3847	1366.1237	1399.2024	1406.9352	1445.321	1463.4317	1479.8635	1492.3971	1498.6015	1514.1204	2347.8923	2960.1271	2988.7608	3051.9656	3056.2388	3102.82	3108.2254	3127.2974	3137.4381	3142.1718
CC1(CCOCO1)C#N	C[C@]1(CCOCO1)C#N	
InChI=1S/C6H9NO2/c1-6(4-7)2-3-8-5-9-6/h2-3,5H2,1H3	InChI=1S/C6H9NO2/c1-6(4-7)2-3-8-5-9-6/h2-3,5H2,1H3/t6-/m0/s1
