14
gdb 123711	4.20478	1.61025	1.26836	4.7106	66.62	-0.2479	-0.008	0.2399	926.3653	0.103503	-436.649648	-436.643715	-436.642771	-436.679866	24.204	
C	 0.0064425971	 1.4952088824	 0.0870952284	-0.319662
C	 1.2960447739	 0.7407380507	 0.017349536	 0.086596
O	 1.9844685791	 0.461124409	 1.2428440842	-0.254216
C	 1.1823088147	-0.3761480755	 1.9313556519	 0.45971
N	 1.3367616315	-0.9078381677	 3.1095216292	-0.269358
O	 0.1815416563	-1.7156154777	 3.2290244409	-0.183232
C	-0.5902138992	-1.5955485279	 2.1218447832	-0.085297
C	-0.0082285447	-0.7447775792	 1.249039497	 0.141259
C	-0.0264542614	-0.0288855185	-0.0408398235	-0.241029
H	-0.2898059349	 1.9357550342	 1.0324738282	 0.140926
H	-0.2671132649	 2.0659890047	-0.7935915965	 0.130384
H	 1.9837310558	 0.8488125938	-0.8106909711	 0.123209
H	-1.4967181421	-2.1800341199	 2.1283657735	 0.155717
H	-0.3905028112	-0.4860708184	-0.9520318414	 0.114993
172.7195	265.3666	403.3509	463.848	479.2667	568.7117	643.8469	699.6375	752.3195	780.886	790.3682	824.0578	832.0752	887.0484	947.9257	956.86	981.148	1031.2881	1059.9074	1085.6654	1111.9041	1128.618	1181.129	1187.2655	1271.6815	1314.7594	1364.041	1450.9284	1466.9095	1586.0718	1704.8078	3137.7228	3192.5642	3208.9198	3231.5926	3267.2902
C1C2OC3=NOC=C3C12	C1[C@H]2Oc3nocc3[C@@H]12	
InChI=1S/C6H5NO2/c1-3-4-2-8-7-6(4)9-5(1)3/h2-3,5H,1H2	InChI=1S/C6H5NO2/c1-3-4-2-8-7-6(4)9-5(1)3/h2-3,5H,1H2/t3-,5-/m1/s1
