17
gdb 46837	2.85446	1.85457	1.511	2.953	73.63	-0.2311	-0.0074	0.2237	912.4649	0.139931	-418.006984	-418.000222	-417.999278	-418.038088	27.29	
N	-0.0810344768	 1.2797287499	 0.2926264077	-0.522017
C	-0.0236409771	 0.0529592274	-0.010454432	 0.403256
O	 1.1684113819	-0.5682257024	-0.2798736144	-0.267727
C	 1.2290915869	-1.8817461125	-0.8760909981	-0.079037
C	-0.104139303	-2.6426568328	-0.7962859838	-0.071127
N	-1.1959867517	-1.7395113019	-1.2136174811	-0.29805
C	-1.2604806305	-0.8294867722	-0.0513544632	-0.128535
C	-1.1477132717	-1.8252938353	 1.097235042	-0.055573
C	-0.4769189208	-2.884973883	 0.6585185076	-0.059832
H	 0.8548680976	 1.6925424017	 0.2781391339	 0.216903
H	 1.5230101336	-1.7505651936	-1.9266143546	 0.108222
H	 2.0369096261	-2.4129809652	-0.3610193001	 0.117675
H	-0.0562229072	-3.5440510562	-1.4156876858	 0.083911
H	-0.9433178768	-1.2285030865	-2.0576173984	 0.220158
H	-2.1542887596	-0.205610786	-0.0478892279	 0.102436
H	-1.5012757545	-1.6198493217	 2.0979616512	 0.120374
H	-0.1611273363	-3.7521785797	 1.2230837971	 0.108963
107.995	179.2938	312.6164	389.2987	416.351	432.7922	578.2858	630.763	685.3016	743.9402	767.0949	827.1479	860.6053	875.2833	886.8865	906.9013	940.8579	957.0822	992.3796	1011.7351	1034.2637	1071.9938	1096.9073	1128.0493	1136.0882	1229.0891	1250.055	1276.6171	1293.1906	1309.1263	1325.6059	1347.0327	1414.4254	1435.5515	1505.8066	1673.825	1746.8979	3007.9825	3059.8191	3068.7032	3118.3359	3216.6089	3243.9742	3451.5792	3478.5745
N=C1OCC2NC1C=C2	[NH][C]1OC[C@@H]2N[C@H]1C=C2	
InChI=1S/C6H8N2O/c7-6-5-2-1-4(8-5)3-9-6/h1-2,4-5,7-8H,3H2	InChI=1S/C6H8N2O/c7-6-5-2-1-4(8-5)3-9-6/h1-2,4-5,7-8H,3H2/t4-,5+/m1/s1
