23
gdb 100664	2.60279	1.04257	0.92035	3.1162	82.09	-0.244	-0.0132	0.2308	1414.3758	0.201447	-425.445153	-425.433732	-425.432788	-425.481432	41.431	
C	-0.0280713726	 1.6428186116	 0.0057158225	-0.381654
C	 0.0483450156	 0.1145564015	 0.0791787022	-0.207063
C	 0.7110222161	-0.4969151647	-1.1607251127	 0.118482
O	 2.0505925073	-0.0252413828	-1.3171339624	-0.435748
C	 0.6771031063	-2.0493199033	-1.2406331269	 0.13155
C	 1.2894696375	-2.7343736981	-0.0133480348	-0.429321
C	-0.7626428503	-2.5528292916	-1.4871817998	-0.434598
C	 1.4738742873	-2.4141008358	-2.4951376554	 0.164573
O	 2.3205849813	-3.2658705214	-2.5579011113	-0.262264
H	 0.9654011946	 2.0710812923	-0.1495693725	 0.131477
H	-0.6625521962	 1.9648706016	-0.827333231	 0.115754
H	-0.4460523484	 2.061609586	 0.92578716	 0.111576
H	 0.6153250435	-0.1849121789	 0.9706640613	 0.095157
H	-0.9576860193	-0.3018787676	 0.2026249873	 0.101407
H	 0.1949909674	-0.1132635703	-2.0517032413	 0.084865
H	 2.556279476	-0.2983599053	-0.5435639451	 0.283293
H	 0.6623860267	-2.6006369055	 0.8721862031	 0.113788
H	 1.4040846507	-3.8043701778	-0.2002564671	 0.138042
H	 2.2910201453	-2.3515183422	 0.2096835692	 0.107872
H	-1.193855232	-2.1087182672	-2.3912220206	 0.119943
H	-0.7742578693	-3.6404992527	-1.6066149271	 0.131515
H	-1.4159326843	-2.3032761248	-0.6464516692	 0.127679
H	 1.1743113868	-1.8351474031	-3.3995249483	 0.073675
63.0974	89.5345	101.5727	169.1809	208.2443	221.0953	233.1463	254.267	292.5608	301.6465	311.7807	320.5112	351.7228	385.6477	485.9691	532.1631	657.1223	765.8634	788.1761	848.9959	918.7509	946.8767	962.104	979.7573	1009.2637	1029.7647	1063.7511	1103.5226	1123.5494	1174.798	1223.8471	1250.9706	1265.0668	1330.0102	1334.1459	1387.301	1397.8018	1405.4433	1409.8689	1420.7115	1437.046	1479.447	1481.6636	1490.4977	1496.2094	1504.1305	1507.6277	1509.9658	1835.3265	2862.1821	3011.5934	3025.5342	3033.1345	3038.7341	3042.1889	3067.5734	3102.0227	3104.239	3105.7121	3112.6927	3124.7866	3130.1374	3802.8011
CCC(O)C(C)(C)C=O	CC[C@@H](O)C(C)(C)C=O	
InChI=1S/C7H14O2/c1-4-6(9)7(2,3)5-8/h5-6,9H,4H2,1-3H3	InChI=1S/C7H14O2/c1-4-6(9)7(2,3)5-8/h5-6,9H,4H2,1-3H3/t6-/m1/s1
