21
gdb 111634	2.16843	1.47368	1.20711	1.4464	83.3	-0.224	0.014	0.238	1175.365	0.182434	-387.088969	-387.080115	-387.07917	-387.122376	34.644	
C	 0.2268408437	 1.4944324254	-0.0888887471	-0.372159
C	-0.1813599153	 0.0369213814	 0.157364367	-0.207914
C	 0.6477730863	-0.6201231755	 1.2388941286	-0.022984
C	 0.7916570989	-2.1226671557	 1.435916292	-0.174202
C	 0.5012471044	-3.0716595253	 0.27467368	-0.282578
C	 1.5355874183	-2.6990608513	-0.7697129162	-0.064597
C	 2.3431989507	-1.7220231391	-0.3495883806	-0.176616
C	 1.9932931999	-1.2645068474	 1.0287175572	 0.373883
O	 3.0136199623	-0.8783853161	 1.8991656122	-0.47072
H	 1.2688045719	 1.5580151199	-0.4193007087	 0.120721
H	-0.4001457987	 1.958413306	-0.8568520159	 0.106963
H	 0.1343077943	 2.0920132776	 0.8245922021	 0.114119
H	-1.239289048	-0.0057974585	 0.4483914235	 0.092759
H	-0.0953148015	-0.5273140833	-0.776683911	 0.100201
H	 0.6153588517	-0.0939539527	 2.1918829852	 0.090648
H	 0.7089839785	-2.4925939491	 2.4513940567	 0.084459
H	 0.5924437872	-4.1233278769	 0.5765844966	 0.106248
H	-0.5186930183	-2.9570927541	-0.11701954	 0.113245
H	 1.5595319855	-3.15575607	-1.7530928994	 0.09523
H	 3.1524335792	-1.2722776438	-0.9141683457	 0.095725
H	 3.6076882587	-1.6302744416	 2.0061692534	 0.277568
63.7434	133.4025	189.7375	230.8191	249.4384	321.5446	337.7746	394.9694	405.5061	508.6374	547.7631	609.424	713.3765	744.6026	757.5348	803.0192	843.3382	885.7358	915.7321	936.9681	956.1965	970.5426	1010.1161	1023.4156	1044.515	1084.6238	1104.6881	1130.139	1149.2679	1184.7323	1234.6823	1245.5438	1290.8484	1300.7735	1320.0809	1334.7362	1377.0439	1384.3057	1409.2472	1455.7806	1473.592	1482.2713	1498.561	1504.5681	1664.4259	3014.4169	3021.0766	3031.6354	3038.3106	3068.1185	3100.793	3104.2059	3123.8333	3175.3995	3182.4533	3207.2082	3784.0208
CCC1C2CC=CC12O	CC[C@H]1[C@H]2CC=C[C@@]12O	
InChI=1S/C8H12O/c1-2-6-7-4-3-5-8(6,7)9/h3,5-7,9H,2,4H2,1H3	InChI=1S/C8H12O/c1-2-6-7-4-3-5-8(6,7)9/h3,5-7,9H,2,4H2,1H3/t6-,7+,8+/m0/s1
