17
gdb 30074	3.32856	1.17222	0.89015	2.3043	79.47	-0.2013	0.0107	0.212	1275.3043	0.13624	-418.033068	-418.024247	-418.023303	-418.067911	31.238	
C	 0.0866651113	 1.4084801458	 0.2420184394	-0.344266
N	 0.0928689597	-0.0338999438	 0.097009877	-0.053818
C	 0.1579414019	-0.732689191	-1.0904640281	-0.103773
C	 0.0663024658	-2.0736045302	-0.812148612	-0.151092
C	-0.076681024	-2.2155644275	 0.5987352693	-0.283766
C	-0.0561306165	-0.9410618286	 1.1132242496	 0.366798
O	-0.1800004505	-0.4645845023	 2.387165694	-0.217254
C	 0.5438368546	-1.0873179511	 3.3598178804	 0.109647
N	 0.3288198705	-0.7952276336	 4.5646637944	-0.430803
H	 0.7822579331	 1.850054416	-0.4753552998	 0.139253
H	-0.911911721	 1.8257808597	 0.0712216837	 0.143181
H	 0.402322961	 1.6702876107	 1.2522707431	 0.160206
H	 0.2589963432	-0.2049075389	-2.0250142161	 0.116733
H	 0.0959098218	-2.8728622752	-1.5361549265	 0.099424
H	-0.1997408766	-3.1269473665	 1.1614207444	 0.104291
H	 1.2671650193	-1.8013220768	 2.950662342	 0.108989
H	 0.9592049063	-1.3210981666	 5.1665518551	 0.236251
43.0638	63.6658	117.8789	149.6082	182.0451	285.8251	359.6981	472.4423	495.8131	618.7097	643.4458	689.0304	706.8946	755.8235	811.3768	827.7851	831.5097	913.5523	1016.1122	1052.2333	1057.405	1070.5361	1114.9564	1151.4086	1212.066	1261.9572	1276.2362	1332.7634	1398.6423	1402.3282	1448.5835	1483.6027	1490.7098	1515.3651	1544.714	1593.5736	1745.5179	3038.5625	3064.7516	3107.6087	3153.5135	3246.5858	3260.028	3272.011	3522.4113	43.0638	63.6658	117.879	149.6082	182.0452	285.8251	359.6981	472.4423	495.8131	618.7093	643.4457	689.0304	706.8945	755.8236	811.3768	827.785	831.5098	913.5523	1016.1122	1052.2333	1057.4051	1070.5361	1114.9562	1151.4085	1212.0659	1261.9572	1276.2362	1332.7634	1398.6423	1402.3283	1448.5834	1483.6027	1490.7098	1515.3651	1544.7139	1593.5737	1745.5178	3038.5626	3064.7516	3107.6087	3153.5135	3246.5858	3260.028	3272.0109	3522.4113
CN1C=CC=C1OC=N	Cn1cccc1O[CH][NH]	
InChI=1S/C6H8N2O/c1-8-4-2-3-6(8)9-5-7/h2-5,7H,1H3	InChI=1S/C6H8N2O/c1-8-4-2-3-6(8)9-5-7/h2-5,7H,1H3
