21
gdb 76389	2.41356	1.22605	1.13749	3.4004	79.91	-0.2222	0.0337	0.2559	1237.8062	0.180559	-420.422801	-420.412272	-420.411328	-420.457874	38.677	
C	 1.4809223398	-3.9042078043	 1.5007295078	-0.423487
C	 0.8371288696	-2.6484238469	 0.9566068063	-0.011311
N	 0.1495186747	-1.6595977575	 1.788375863	-0.153357
C	 0.0891953362	-1.8082618882	 3.2360963553	-0.321612
C	 1.4116466336	-1.2629999073	 1.1375841605	 0.175184
C	 2.6929008285	-1.0175953955	 1.9077996566	-0.479112
C	 1.232255588	-0.2888314623	-0.0228684165	 0.36727
N	-0.0638788749	-0.0646958344	-0.3613956457	-0.532277
O	 2.1844201334	 0.2046088553	-0.6021147533	-0.380089
H	 2.0143489425	-3.7535351023	 2.4401980678	 0.124331
H	 0.7207447604	-4.6751514433	 1.6687324519	 0.126398
H	 2.194646741	-4.2993503536	 0.7705777492	 0.134368
H	 0.3140006313	-2.8216182572	 0.0160256857	 0.095253
H	 0.998374012	-2.2040377848	 3.7056340907	 0.109776
H	-0.1189757843	-0.8298854126	 3.6801222344	 0.128425
H	-0.7423765747	-2.4743864003	 3.4869625741	 0.126268
H	 3.4819081132	-0.7954344752	 1.187112655	 0.158898
H	 2.5914906039	-0.145131784	 2.5628056575	 0.123006
H	 3.0006427102	-1.8664400276	 2.5187037559	 0.111622
H	-0.7807567133	-0.3901026231	 0.2692364272	 0.264652
H	-0.2635616212	 0.6122003353	-1.0777158535	 0.255793
70.7264	135.9099	143.9488	157.983	169.8417	223.9804	245.1359	245.8865	334.4124	356.818	376.3595	412.5988	513.5722	536.6664	562.3521	657.0302	686.8449	724.5151	780.4428	826.1963	902.9529	997.3172	1047.1401	1079.9948	1093.3214	1115.4611	1138.9863	1154.4597	1170.1844	1188.9289	1243.2089	1352.4434	1376.3452	1399.8567	1411.1469	1423.0277	1460.2553	1480.5393	1486.9664	1490.2102	1501.6231	1506.7591	1516.0353	1574.2069	1788.4778	3013.5307	3041.4029	3048.6466	3078.7894	3097.0442	3098.8902	3103.4038	3119.7918	3140.527	3153.9856	3573.2568	3725.7944
CC1N(C)C1(C)C(N)=O	C[C@H]1N(C)[C@]1(C)C(=O)N	
InChI=1S/C6H12N2O/c1-4-6(2,5(7)9)8(4)3/h4H,1-3H3,(H2,7,9)	InChI=1S/C6H12N2O/c1-4-6(2,5(7)9)8(4)3/h4H,1-3H3,(H2,7,9)/t4-,6+,8?/m1/s1
