13
gdb 75689	2.77581	1.32815	1.15506	2.5335	60.83	-0.2545	-0.0737	0.1807	1050.3167	0.086138	-493.664155	-493.656107	-493.655163	-493.697295	28.651	
O	 0.500822068	 1.1122345055	-0.3888737706	-0.413671
C	 0.0803313136	-0.1711269317	-0.0620147957	-0.044152
C	 0.1403060317	-0.6861706423	 1.4301189081	 0.389159
O	 1.0151384237	-0.9118516817	 2.2055278741	-0.276458
C	-1.37493433	-0.9144211861	 1.4326152989	-0.17128
O	-1.9310319178	 0.3597247716	 1.0769364751	-0.272734
C	-1.4340036144	-0.4476560825	 0.004265856	 0.273291
C	-2.383628667	-0.9275716407	-1.0261588486	 0.061068
O	-2.031542729	-1.34026681	-2.101227568	-0.242534
H	 0.0241645399	 1.7299789347	 0.1792578468	 0.299023
H	 0.6027793137	-0.8768564305	-0.7153802804	 0.148614
H	-2.0106253501	-1.61407747	 1.9627590198	 0.146756
H	-3.4483131326	-0.8795425764	-0.7137868655	 0.102918
72.0206	139.309	148.0744	204.9163	239.9671	318.3303	427.2917	484.0405	502.7919	566.4558	631.0711	693.8852	761.8015	830.6943	842.0707	933.8751	998.6423	1017.1556	1045.0998	1143.3455	1159.4872	1206.8787	1231.3208	1287.6916	1354.4948	1417.8488	1432.8693	1815.9137	1912.4753	2915.2574	3086.8507	3198.6631	3789.6019
OC1C(=O)C2OC12C=O	O[C@H]1C(=O)[C@H]2O[C@@]12C=O	
InChI=1S/C5H4O4/c6-1-5-3(8)2(7)4(5)9-5/h1,3-4,8H	InChI=1S/C5H4O4/c6-1-5-3(8)2(7)4(5)9-5/h1,3-4,8H/t3-,4+,5-/m0/s1
