17
gdb 86741	3.68017	1.0882	0.90009	3.7743	73.79	-0.2165	-0.0019	0.2146	1262.0791	0.136971	-455.187809	-455.179092	-455.178148	-455.221825	32.324	
N	-0.0281025779	 1.3532801981	 0.1207166943	-0.567922
C	 0.0147709473	-0.0372545931	 0.0802846291	 0.443331
O	 1.0492960183	-0.6692801568	 0.1825396815	-0.391187
N	-1.2092692419	-0.6617896393	-0.0429769698	-0.118525
C	-1.3098633816	-2.1241132243	-0.1685622276	-0.194801
C	-2.828806743	-2.4325767655	-0.011059359	 0.072976
O	-3.138470706	-3.1907661284	 1.1548944895	-0.425662
C	-3.4498367512	-1.0554692579	 0.0056878738	-0.223035
C	-2.4917045975	-0.1227755461	 0.04463722	 0.006722
H	 0.8989307342	 1.745956008	 0.0443921348	 0.263208
H	-0.7060019452	 1.8177445214	-0.4650139766	 0.251937
H	-0.9223539289	-2.4380244531	-1.1420138756	 0.125687
H	-0.7228437347	-2.621851576	 0.6057275155	 0.143021
H	-3.183435387	-3.058031206	-0.8353781863	 0.099068
H	-3.0240852217	-2.6073936759	 1.9140695413	 0.27573
H	-4.5128262042	-0.8749506861	 0.065314176	 0.108243
H	-2.611157649	 0.9463768709	 0.1503270891	 0.131211
51.1041	88.2906	133.1634	202.835	316.404	337.3825	371.8215	399.2721	447.6982	545.1379	567.5214	586.3094	659.158	739.5978	773.8423	786.9521	850.6109	871.0763	920.2014	958.6147	1028.9126	1076.1417	1085.8523	1132.9234	1180.6897	1209.8365	1249.1767	1267.4001	1314.2402	1320.2318	1406.785	1431.1481	1450.0728	1503.883	1624.9114	1665.3727	1790.1955	3058.6908	3072.8684	3119.8873	3229.1523	3254.3459	3571.2181	3679.8724	3792.3786
NC(=O)N1CC(O)C=C1	NC(=O)N1C[C@@H](O)C=C1	
InChI=1S/C5H8N2O2/c6-5(9)7-2-1-4(8)3-7/h1-2,4,8H,3H2,(H2,6,9)	InChI=1S/C5H8N2O2/c6-5(9)7-2-1-4(8)3-7/h1-2,4,8H,3H2,(H2,6,9)/t4-/m0/s1
