21
gdb 54755	2.57401	1.38165	1.14301	2.6927	83.8	-0.2353	-0.0134	0.2218	1185.1174	0.181275	-387.068104	-387.058999	-387.058055	-387.102227	34.473	
C	 0.364367967	 0.8707992044	 1.2668750069	-0.482788
C	 0.1470599878	 0.0055954638	 0.0348026033	 0.345721
O	 0.9535408753	-0.0199301817	-0.870148858	-0.305158
C	-1.1378601706	-0.7918782224	 0.0216785189	-0.098327
C	-1.5288169375	-1.6745639951	-1.1951066191	-0.055658
C	-0.4340957003	-2.6956848357	-0.7672467513	-0.259724
C	-1.1578201964	-2.2887332378	 0.5537704119	 0.323414
C	-0.8667962702	-2.7588235421	 1.9540948928	-0.515317
C	-2.4942890484	-2.4306212747	-0.2382413401	-0.261853
H	 1.3579759911	 1.3194647704	 1.2356124897	 0.139671
H	-0.3909907519	 1.6647220537	 1.3038432287	 0.14013
H	 0.2462847756	 0.2809383075	 2.1828741612	 0.13682
H	-1.9497554674	-0.187314083	 0.4454313674	 0.06703
H	-1.7392240329	-1.3189777689	-2.2028510862	 0.079004
H	-0.5936334456	-3.7292354099	-1.0883367282	 0.084483
H	 0.6025631112	-2.3892108186	-0.8935564871	 0.121905
H	 0.162635918	-2.5269508226	 2.2488967428	 0.122659
H	-1.541805271	-2.2912321097	 2.6796156123	 0.118229
H	-0.9956809696	-3.844249403	 2.0296155041	 0.124453
H	-3.3564518041	-1.8757000341	 0.1443928461	 0.085486
H	-2.7695961201	-3.4474583205	-0.5325503559	 0.08982
48.9667	120.084	127.3985	196.273	222.1723	297.2107	303.437	358.1626	435.7045	549.0097	566.7685	619.4545	642.9787	756.7639	794.8142	848.4194	904.3749	907.7212	927.148	949.9458	1002.5049	1011.8684	1020.0434	1023.5491	1063.5831	1094.6563	1107.821	1139.3188	1179.7798	1195.6505	1200.0715	1219.1577	1229.6093	1245.0045	1312.7403	1376.4149	1400.1274	1410.7233	1462.5973	1474.8839	1488.712	1490.3629	1501.6358	1541.8428	1795.7009	3024.1844	3025.6217	3034.1673	3041.7926	3061.3953	3092.1713	3092.6055	3093.6225	3106.8164	3124.162	3150.4348	3158.2508
CC(=O)C1C2CC1(C)C2	CC(=O)[C@H]1[C@H]2C[C@]1(C)C2	
InChI=1S/C8H12O/c1-5(9)7-6-3-8(7,2)4-6/h6-7H,3-4H2,1-2H3	InChI=1S/C8H12O/c1-5(9)7-6-3-8(7,2)4-6/h6-7H,3-4H2,1-2H3/t6-,7-,8+/m0/s1
