16
gdb 51231	4.77612	1.06181	1.01718	2.8326	69.23	-0.241	-0.0059	0.235	1166.3861	0.124264	-437.815562	-437.808253	-437.807309	-437.847912	27.609	
O	 0.1452762245	 0.0260700862	 0.2192084164	-0.261008
C	 0.1518901236	 1.2108592901	 0.3419175056	 0.151711
O	 1.0011258508	 2.0068892393	-0.3597846314	-0.233994
C	 0.8762117352	 3.381442675	-0.1772096301	 0.392274
C	 0.0954373711	 4.3760257792	-1.0114634055	-0.237081
N	 0.9740106739	 5.462471339	-0.4142014333	-0.164753
C	 0.5427629734	 5.4479004569	 1.046786244	-0.174956
C	 1.1723217819	 4.0760901941	 1.1789163528	-0.151916
C	 1.9941552652	 4.3590748289	-0.0505563475	-0.096988
H	-0.5023870445	 1.7866858816	 1.0211731145	 0.090107
H	 0.3085545554	 4.282363318	-2.0788943027	 0.126515
H	-0.9794988216	 4.5116519832	-0.8508012625	 0.106897
H	 1.0861021701	 6.2244491623	 1.5907202623	 0.121013
H	-0.5345060326	 5.5707710707	 1.2035811901	 0.105148
H	 1.4498261044	 3.4972769386	 2.0515968346	 0.106958
H	 3.0452820093	 4.3462936769	-0.2973884274	 0.120075
72.3772	137.2281	144.2149	343.8951	367.2348	427.8612	478.0096	506.7587	705.028	764.3729	782.2709	828.8584	841.1303	900.1664	912.435	959.6469	972.4353	1023.3307	1044.8018	1048.3422	1083.8344	1109.941	1120.034	1144.5434	1164.2936	1185.895	1223.547	1235.381	1287.6783	1310.6747	1390.6618	1418.1843	1503.1239	1523.1114	1875.6219	2979.8483	3039.1846	3048.6092	3104.8445	3113.6869	3189.0173	3233.4582
O=COC12CN3CC1C23	O=CO[C@@]12CN3C[C@@H]1[C@@H]23	
InChI=1S/C6H7NO2/c8-3-9-6-2-7-1-4(6)5(6)7/h3-5H,1-2H2	InChI=1S/C6H7NO2/c8-3-9-6-2-7-1-4(6)5(6)7/h3-5H,1-2H2/t4-,5+,6+/m1/s1
