22
gdb 12067	3.36858	1.59935	1.43454	0.2004	81.26	-0.2483	0.0875	0.3358	1018.4693	0.200245	-313.049048	-313.040629	-313.039685	-313.081278	33.298	
C	 0.1043134218	 1.5409535229	-0.0874870739	-0.387372
C	 0.0070692487	 0.0270778578	 0.1381277229	-0.229843
C	-1.4110390471	-0.5512958608	 0.036251579	 0.355752
C	-2.3372640598	 0.0157419536	 1.1157342257	-0.4484
C	-2.1073565408	-0.5145958372	-1.3785589757	-0.287639
C	-2.2650675364	-2.0385582221	-1.3287291873	-0.031604
C	-0.916026891	-2.6910683902	-1.2348887516	-0.29757
C	-1.5197770148	-2.0931857596	 0.0051263565	-0.07863
H	 1.1484561222	 1.8690754106	-0.0745248311	 0.110468
H	-0.3191408026	 1.8262686144	-1.0569114963	 0.116036
H	-0.4258025032	 2.1064497581	 0.6847254472	 0.116319
H	 0.6526587342	-0.4780021269	-0.5894383282	 0.090883
H	 0.4158405822	-0.2223813698	 1.1271382777	 0.089147
H	-2.4815346883	 1.0947090996	 1.0011782771	 0.112775
H	-3.3232153513	-0.4583152738	 1.0673743435	 0.111781
H	-1.9294151224	-0.1651204077	 2.1176950635	 0.107284
H	-3.0526191749	 0.0330713804	-1.3614835913	 0.09695
H	-1.5031785382	-0.1355078795	-2.2105069113	 0.088469
H	-3.1451867811	-2.5886315285	-1.6389979237	 0.080385
H	-0.918840008	-3.7764155851	-1.264207625	 0.107494
H	-0.0518896072	-2.24217595	-1.7191811155	 0.103048
H	-1.7323787019	-2.7016524662	 0.8779263979	 0.074266
97.193	179.8468	191.336	246.0144	260.9535	307.9172	359.1869	404.1424	425.1775	487.2225	611.3901	747.9966	782.0986	789.205	828.7078	882.5007	920.2213	924.6824	953.2815	984.2924	991.5125	1014.5089	1025.1347	1045.9356	1064.1902	1082.322	1086.237	1145.7345	1176.51	1195.5465	1221.8378	1246.6687	1273.9036	1296.54	1318.6881	1368.1013	1371.1031	1407.3897	1413.6417	1478.4123	1481.0996	1493.1918	1497.1316	1501.5119	1506.9467	1511.2975	3013.1596	3023.1493	3033.2837	3036.1058	3057.0346	3087.0073	3097.2673	3098.429	3099.6058	3108.7464	3109.8733	3159.563	3179.3949	3196.1564
CCC1(C)CC2CC12	CC[C@@]1(C)C[C@H]2C[C@@H]12	
InChI=1S/C8H14/c1-3-8(2)5-6-4-7(6)8/h6-7H,3-5H2,1-2H3	InChI=1S/C8H14/c1-3-8(2)5-6-4-7(6)8/h6-7H,3-5H2,1-2H3/t6-,7-,8+/m1/s1
