19
gdb 38309	2.93196	1.93085	1.90613	1.5948	72.38	-0.2517	0.0825	0.3342	853.2546	0.164319	-423.004275	-422.998408	-422.997464	-423.034102	26.171	
C	-0.0678380257	 1.5225837266	 0.0914572767	-0.222488
C	 1.4893091581	 1.4411254307	 0.0214763776	-0.056178
C	 1.3338872574	 0.1230927312	 0.8460662071	-0.208224
C	-0.0030780948	-0.0266885526	 0.0551304598	-0.066638
C	 0.3746890656	-0.4540948282	-1.4106750859	 0.201426
O	-0.0989214252	 0.4869440718	-2.3814323559	-0.274188
C	 0.9589109303	 1.4537164021	-2.5211859475	-0.103448
C	 1.9427094608	 1.0206321487	-1.4196298326	 0.052168
O	 1.7786953324	-0.4040342023	-1.5415709449	-0.24538
H	-0.3941971118	 1.8873022637	 1.068893467	 0.092002
H	-0.6290031305	 2.031565836	-0.6898691017	 0.113573
H	 2.0862689872	 2.2673702449	 0.4131526524	 0.062992
H	 2.0936217822	-0.6507156581	 0.7508504285	 0.109368
H	 1.1423205332	 0.3440726674	 1.8982275107	 0.094127
H	-0.8252654434	-0.6179664533	 0.4623578483	 0.061447
H	 0.0180468189	-1.4494742163	-1.6809772404	 0.090011
H	 1.41253862	 1.3603807256	-3.5143726004	 0.107289
H	 0.562318389	 2.4656989884	-2.3967552266	 0.105814
H	 2.9859394763	 1.2653780637	-1.6212942723	 0.086327
260.1119	354.516	390.3317	498.6703	516.7377	541.6394	599.5681	733.81	773.0318	798.3644	827.7336	844.5591	879.6051	893.477	916.471	927.2858	956.4071	976.1535	988.9074	1003.3812	1032.486	1051.0183	1078.9066	1095.4039	1120.5549	1138.4528	1167.7454	1203.0125	1239.8984	1251.3784	1258.7339	1275.0831	1306.9442	1320.9102	1331.3874	1336.0594	1362.6085	1379.4255	1486.797	1515.4499	1529.8854	3035.1967	3068.3797	3075.5366	3084.114	3086.1859	3092.0074	3108.3628	3118.1956	3146.7424	3149.9113
C1C2CC1C1OCC2O1	C1[C@H]2C[C@@H]1[C@H]1OC[C@@H]2O1	
InChI=1S/C7H10O2/c1-4-2-5(1)7-8-3-6(4)9-7/h4-7H,1-3H2	InChI=1S/C7H10O2/c1-4-2-5(1)7-8-3-6(4)9-7/h4-7H,1-3H2/t4-,5+,6-,7-/m0/s1
