20
gdb 68068	2.86477	1.68016	1.28481	2.0141	78.86	-0.2443	0.0224	0.2667	1049.6959	0.171304	-403.164159	-403.156121	-403.155177	-403.19589	32.731	
C	-0.1570213693	 1.5314460419	 0.00025681	-0.474493
C	 0.0558283284	 0.040567765	 0.0153970871	 0.413121
C	 1.1118888898	-0.6562082767	-0.8820063144	-0.292492
C	 1.0878761215	-1.8000080339	 0.1826930034	 0.315618
C	 2.3017410558	-2.6730004457	 0.4019593947	-0.464801
C	 0.7063316346	-0.6927764879	 1.2175374112	-0.292492
N	-0.1131542485	-2.6203622209	-0.0635916219	-0.293096
C	-1.1614154378	-1.9341589925	-0.2541315601	 0.096537
O	-1.2329555851	-0.5827429402	-0.2444074655	-0.269733
H	 0.7877636543	 2.0476451913	 0.1916420023	 0.118663
H	-0.5421565303	 1.8565196836	-0.9712914399	 0.129245
H	-0.878140609	 1.8262302376	 0.7690208312	 0.129243
H	 0.8289112608	-0.908078265	-1.9065458966	 0.105174
H	 2.0552392394	-0.1046714785	-0.8696109712	 0.099637
H	 3.1942800533	-2.0660787839	 0.5849868588	 0.102175
H	 2.1465073511	-3.334693988	 1.2601625243	 0.123028
H	 2.4815498261	-3.3044134561	-0.4740747655	 0.123027
H	 1.5828747831	-0.1472637173	 1.5757892128	 0.099637
H	 0.0638768416	-0.9770575082	 2.0539777847	 0.105174
H	-2.1307476797	-2.3862147848	-0.4492344755	 0.126827
206.5365	214.194	239.9484	245.7961	252.9402	356.6008	387.9731	446.3081	457.3505	483.5931	578.9754	618.3365	694.7589	775.7592	846.3882	850.6526	858.4854	901.0498	945.8931	948.3568	981.5381	1007.6099	1013.4682	1050.7317	1119.0341	1129.866	1165.7698	1197.3687	1214.5476	1222.75	1250.04	1312.653	1333.6869	1379.5702	1411.4448	1418.3185	1465.5396	1478.7193	1481.2174	1490.77	1492.6388	1500.7629	1698.523	3032.9815	3039.7628	3058.6133	3065.8761	3105.6576	3107.3425	3110.7874	3119.9558	3124.2528	3127.9525	3173.9003
CC12CC(C)(C1)N=CO2	C[C@@]12C[C@@](C)(C1)[N][CH]O2	
InChI=1S/C7H11NO/c1-6-3-7(2,4-6)9-5-8-6/h5H,3-4H2,1-2H3	InChI=1S/C7H11NO/c1-6-3-7(2,4-6)9-5-8-6/h5H,3-4H2,1-2H3/t6-,7+
