19
gdb 59159	2.70349	1.33916	1.18202	3.5068	75.99	-0.2367	-0.0057	0.231	1136.7177	0.158133	-423.014419	-423.005677	-423.004732	-423.04818	33.384	
C	-0.0904816566	 1.5433338084	 0.1332834633	-0.406907
C	 0.0643031094	 0.0316715871	-0.0507932463	 0.090051
O	 0.9946328592	-0.5041235219	 0.8782571389	-0.421753
C	-1.3019578381	-0.6598730765	-0.0241476856	-0.001078
C	-1.6116069308	-2.11551135	 0.002730606	-0.100855
C	-0.6365360625	-2.9417460345	 0.8589351008	-0.343172
C	-1.033209556	-2.0391397461	 2.0510721239	 0.407165
O	-0.8281172156	-2.0994377175	 3.2321401354	-0.331368
C	-1.9817402418	-1.2104429135	 1.2231937324	-0.214125
H	 0.8908371471	 2.0244677428	 0.116185545	 0.128311
H	-0.7060134194	 1.9820883861	-0.6583613998	 0.118924
H	-0.5714796212	 1.7667088674	 1.0933835637	 0.119967
H	 0.5155168368	-0.1613773252	-1.0325652941	 0.096074
H	 0.7496996318	-0.2082203259	 1.762661018	 0.293943
H	-2.0216471184	-0.1128681969	-0.6335538061	 0.097483
H	-2.3178381408	-2.5517407774	-0.6925620411	 0.101146
H	-1.0011380558	-3.9585587739	 1.0377613916	 0.123038
H	 0.4132764472	-2.968408704	 0.5710102612	 0.137109
H	-2.9383897644	-0.8301987187	 1.5620891825	 0.106047
42.0118	104.4305	207.2055	234.4268	263.3425	302.7696	360.0013	390.5353	445.2579	511.0618	544.0613	633.8236	696.2929	740.7721	785.2535	837.3416	863.4416	911.6184	937.4315	961.9264	1005.8146	1027.9044	1039.1251	1068.7752	1092.0127	1101.7574	1120.0549	1152.1243	1192.719	1226.2848	1284.4915	1301.1198	1333.3493	1343.6473	1400.6651	1414.2783	1438.4537	1461.1641	1491.5986	1495.4149	1870.3616	3026.6323	3031.7192	3064.7041	3098.0695	3110.7622	3122.4701	3146.7415	3183.7244	3195.296	3798.0302
CC(O)C1C2CC(=O)C12	C[C@@H](O)[C@H]1[C@H]2CC(=O)[C@@H]12	
InChI=1S/C7H10O2/c1-3(8)6-4-2-5(9)7(4)6/h3-4,6-8H,2H2,1H3	InChI=1S/C7H10O2/c1-3(8)6-4-2-5(9)7(4)6/h3-4,6-8H,2H2,1H3/t3-,4-,6+,7+/m1/s1
