16
gdb 130412	3.17353	1.41071	1.00889	6.7384	73.87	-0.2211	-0.0314	0.1897	1123.4683	0.127451	-434.086631	-434.079207	-434.078263	-434.118567	28.531	
N	 0.3113108504	 0.918659274	 0.4195890011	-0.526296
H	 0.3240027037	-0.090755082	 0.5203246442	 0.251146
H	 1.40195826	 2.0870278501	 1.3003235992	 0.311173
H	 0.3582577126	 1.1231345562	-0.5745457965	 0.252554
C	-0.921887161	 1.4856568958	 1.0045307081	-0.287173
C	-0.8315733916	 2.9892260476	 1.0974010023	 0.145521
C	-1.9371477171	 3.8167007411	 0.9002985173	-0.038192
N	-1.9437577079	 5.1412155246	 1.0335947875	-0.225121
N	-0.8078410372	 5.7494006859	 1.3836032576	-0.200765
C	 0.2934655363	 5.0359198151	 1.5710771539	-0.032862
C	 0.3567806991	 3.6392455008	 1.4382034778	 0.288228
O	 1.5202446983	 3.0075279885	 1.6428326505	-0.426963
H	-1.8339593461	 1.2006666305	 0.4615397926	 0.11839
H	-1.0121105005	 1.0654094064	 2.0147418625	 0.139783
H	-2.8935797828	 3.3808699788	 0.6169334844	 0.106742
H	 1.1884515439	 5.5867597968	 1.8455107374	 0.123838
108.8798	163.9997	260.5209	272.2908	336.1492	409.9454	424.0712	464.3576	579.3618	595.0068	643.7866	780.022	793.9649	855.1603	895.5792	929.8856	940.9114	969.4923	1002.9375	1038.1288	1057.0591	1165.8402	1197.2678	1236.7533	1282.5482	1302.6448	1338.4938	1357.4534	1410.6362	1464.0958	1497.8308	1514.4433	1600.2833	1639.1095	1651.7415	3002.2261	3042.7407	3146.4109	3177.9142	3311.9831	3499.6775	3583.0878
[NH3+]CC1=C[N-]N=CC1=O	NCc1cnncc1O	
InChI=1S/C5H7N3O/c6-1-4-2-7-8-3-5(4)9/h2-3H,1,6H2,(H,7,9)	InChI=1S/C5H7N3O/c6-1-4-2-7-8-3-5(4)9/h2-3H,1,6H2,(H,7,9)
