20
gdb 71905	3.13432	1.73036	1.6931	0.8367	77.26	-0.2059	0.0857	0.2916	926.8323	0.173883	-403.134796	-403.127974	-403.12703	-403.165412	29.263	
C	 0.0533782228	 1.458912028	-0.0655697076	-0.476841
C	-0.0237312286	-0.0445411145	 0.0454474731	 0.384103
C	-1.4013486289	-0.7305515143	 0.1429279718	-0.261882
C	-0.8042758952	-2.122049624	 0.0796188105	-0.027958
C	 0.2600113208	-2.0507863285	-1.0538792444	 0.097724
C	 1.2246735729	-2.6885482777	-0.049410389	-0.186673
N	 0.368820587	-2.1668571343	 1.0764731999	-0.144049
C	 0.6835822909	-0.7165178596	 1.243726219	-0.204558
O	 0.5194316423	-0.6435061443	-1.1564111924	-0.315268
H	 1.0927497114	 1.7859255485	-0.1649990247	 0.126599
H	-0.4980240564	 1.8098268756	-0.9426684344	 0.125758
H	-0.3723327894	 1.9306297662	 0.8252560173	 0.117775
H	-1.9307082835	-0.5216366105	 1.0759320333	 0.106796
H	-2.0424693315	-0.5019875279	-0.7122266881	 0.105891
H	-1.4507267315	-2.9956370911	 0.1416015228	 0.079039
H	 0.1101304874	-2.4617569507	-2.0561355457	 0.069859
H	 1.2042498271	-3.7835979927	-0.0568215225	 0.100554
H	 2.2599762236	-2.3361172188	-0.054007265	 0.103718
H	 1.7649287639	-0.5558453529	 1.2453898212	 0.102941
H	 0.2806390446	-0.3504287264	 2.1954996749	 0.096471
200.7098	244.3465	288.1429	373.5251	399.6288	475.5575	500.9207	591.5383	603.4151	664.2432	794.8414	805.8818	819.699	846.9076	874.3507	895.8072	913.261	951.8691	968.8575	979.5782	1002.4579	1020.4193	1045.1597	1067.2192	1095.068	1174.2163	1182.6577	1213.0544	1220.354	1227.5869	1241.7167	1262.0014	1278.7174	1294.0206	1312.6993	1346.8862	1361.3805	1415.07	1471.8437	1481.8504	1486.538	1497.2666	1507.9507	3029.697	3037.5538	3041.6596	3066.4338	3068.5125	3094.3663	3100.9797	3113.3278	3115.6883	3124.3257	3134.2333
CC12CC3C(CN3C1)O2	C[C@]12C[C@H]3[C@H](CN3C1)O2	
InChI=1S/C7H11NO/c1-7-2-5-6(9-7)3-8(5)4-7/h5-6H,2-4H2,1H3	InChI=1S/C7H11NO/c1-7-2-5-6(9-7)3-8(5)4-7/h5-6H,2-4H2,1H3/t5-,6-,7-/m0/s1
