23
gdb 112422	2.38132	1.16897	0.89067	3.0024	85.37	-0.2332	-0.0112	0.222	1403.5193	0.205172	-388.338327	-388.328603	-388.327659	-388.373031	36.803	
C	 0.1329978483	 1.6727815295	-0.0384893065	-0.388198
C	 0.0688563189	 0.1416086613	-0.0644992128	-0.197339
C	 0.6807828567	-0.5171456314	 1.1747355934	 0.037239
C	-0.0671981938	-0.2626028427	 2.4970262595	-0.333686
C	 0.3398492489	-1.4196930555	 3.4164742879	 0.403144
O	 0.0896403094	-1.5113328203	 4.5903571707	-0.314969
C	 1.1244599383	-2.4365799619	 2.5804450127	-0.329647
C	 0.826884738	-2.0701833772	 1.1146095347	-0.02122
C	-0.4190865469	-2.802279235	 0.596562971	-0.394879
H	 1.1674118099	 2.024614844	 0.0443453084	 0.114844
H	-0.2911835823	 2.1002123882	-0.9521987066	 0.113936
H	-0.4253034537	 2.0841931656	 0.8087236054	 0.120449
H	-0.9765686462	-0.1737522369	-0.1709750059	 0.098415
H	 0.5921004946	-0.2260046654	-0.95735656	 0.09371
H	 1.699271832	-0.1183251808	 1.292957564	 0.071508
H	 0.1469544955	 0.6977103463	 2.9722863325	 0.127181
H	-1.1561821212	-0.3085680516	 2.359389159	 0.127363
H	 2.1875912607	-2.2885538632	 2.8141508914	 0.125073
H	 0.8730765654	-3.4615300397	 2.8650717275	 0.121384
H	 1.6699175422	-2.3318052705	 0.4661324896	 0.071445
H	-1.306954496	-2.5829945688	 1.2007817656	 0.117882
H	-0.6467490634	-2.5341393794	-0.4387810969	 0.119487
H	-0.2628995454	-3.8852668844	 0.6320653755	 0.116879
66.7231	97.9537	126.0438	176.0505	224.4032	239.1508	299.0823	334.7797	382.8817	452.889	470.971	490.1267	566.1862	658.6846	748.9611	780.769	796.0231	824.8529	903.9974	929.0896	962.5694	981.6451	1014.2346	1039.8358	1046.1781	1088.9797	1124.0847	1151.8894	1158.3414	1201.901	1220.9472	1251.9026	1261.9719	1303.3416	1311.1214	1319.0824	1363.0347	1384.5221	1397.7873	1412.8555	1415.812	1445.755	1453.41	1486.0709	1496.3984	1500.4269	1505.2676	1508.6743	1845.6436	2989.0574	3014.9268	3025.1021	3027.1606	3032.4888	3034.0396	3045.5277	3053.4061	3095.7171	3099.6475	3100.4431	3101.8039	3106.1272	3111.5302
CCC1CC(=O)CC1C	CC[C@H]1CC(=O)C[C@H]1C	
InChI=1S/C8H14O/c1-3-7-5-8(9)4-6(7)2/h6-7H,3-5H2,1-2H3	InChI=1S/C8H14O/c1-3-7-5-8(9)4-6(7)2/h6-7H,3-5H2,1-2H3/t6-,7+/m1/s1
