13
gdb 131364	3.65146	1.61306	1.11882	1.2022	64.89	-0.2091	0.0172	0.2263	976.7081	0.091885	-452.759488	-452.752622	-452.751677	-452.790823	26.149	
O	 0.0958826079	 1.3641674258	-0.016585329	-0.422593
C	 0.0748555716	 0.0191701196	 0.0547579055	 0.27154
N	 0.0782870621	-0.7302937148	-1.0389368606	-0.33578
N	 0.053319066	-2.0404145041	-0.5954876673	-0.377237
C	 0.0347746826	-2.0480956554	 0.7473153196	 0.482198
C	 0.047381451	-0.7605665155	 1.239166787	 0.135514
C	 0.0259950069	-0.9262542393	 2.6713500955	-0.368242
C	 0.0031885361	-2.2655021236	 2.8879004807	-0.014471
O	 0.0081888183	-2.9964240264	 1.6924993893	-0.223487
H	 0.1119226294	 1.5953192678	-0.9545620613	 0.303693
H	 0.0491419388	-2.7918218782	-1.2599137541	 0.280547
H	 0.0271131817	-0.1680245838	 3.4379069282	 0.12704
H	-0.0176958424	-2.8726868822	 3.7765405264	 0.141278
110.3415	197.2452	252.8221	298.5329	415.7514	469.7436	550.2567	585.6396	642.404	652.0007	694.9702	709.3551	766.422	827.1389	831.5943	914.3424	1002.3624	1065.8338	1106.944	1171.5374	1201.6774	1264.5683	1341.8155	1374.6877	1473.3735	1536.7075	1580.5629	1598.0756	1639.9005	3263.5229	3297.0088	3709.5194	3786.16
OC1=NNC2=C1C=CO2	Oc1n[nH]c2c1cco2	
InChI=1S/C5H4N2O2/c8-4-3-1-2-9-5(3)7-6-4/h1-2H,(H2,6,7,8)	InChI=1S/C5H4N2O2/c8-4-3-1-2-9-5(3)7-6-4/h1-2H,(H2,6,7,8)
