17
gdb 44744	2.67952	1.82127	1.30505	5.8528	74.84	-0.2345	-0.0476	0.1869	978.8326	0.13845	-418.016662	-418.00938	-418.008436	-418.048358	28.973	
N	-0.0521380017	 1.1588615996	 0.595975353	-0.497444
C	 0.0293422471	-0.0010044733	 0.0717777406	 0.246636
N	 1.1647805693	-0.6677425855	-0.3575475977	-0.326571
C	 1.0737698026	-2.0725934989	-0.745498543	-0.000029
C	-0.0508661264	-2.2188740427	-1.8014305801	-0.231496
C	-1.0310052315	-2.2463747218	-0.5837279453	-0.127763
C	 0.1543044433	-2.8496560147	 0.239148562	-0.244363
C	-1.2646459632	-0.8147629848	-0.1330307732	 0.395548
O	-2.353080577	-0.3440471774	 0.0633763458	-0.293168
H	 0.8723099617	 1.5880258698	 0.6922224218	 0.203238
H	 2.0501566398	-0.3355748949	-0.0072257039	 0.240081
H	 2.0736822372	-2.446481302	-0.9677361449	 0.080811
H	-0.1523777182	-1.4194374813	-2.5386623642	 0.118942
H	-0.0239644187	-3.1899658731	-2.3003774574	 0.115324
H	-1.9774482237	-2.7812420957	-0.6556761258	 0.09096
H	 0.2145179237	-3.931417113	 0.0985379744	 0.114849
H	 0.2311163956	-2.6069688404	 1.3018810979	 0.114445
81.3705	174.6742	297.8548	352.4077	402.2169	438.654	444.6806	483.644	536.7088	594.1612	682.5144	789.8902	813.9608	870.1641	873.6396	889.057	896.7009	966.1616	993.0784	1002.3179	1073.0115	1078.4634	1101.4531	1135.8852	1157.7829	1202.7363	1240.737	1259.8039	1264.6499	1317.8163	1320.7291	1405.2852	1441.3964	1473.3924	1504.0889	1710.8108	1839.2562	3062.0917	3068.732	3107.3799	3121.7763	3124.8979	3130.9682	3428.9324	3616.404
N=C1NC2CC(C2)C1=O	[NH][C]1N[C@@H]2C[C@@H](C2)C1=O	
InChI=1S/C6H8N2O/c7-6-5(9)3-1-4(2-3)8-6/h3-4H,1-2H2,(H2,7,8)	InChI=1S/C6H8N2O/c7-6-5(9)3-1-4(2-3)8-6/h3-4H,1-2H2,(H2,7,8)/t3-,4+
