21
gdb 115284	3.48604	1.03138	0.9816	1.4351	74.84	-0.2552	0.0675	0.3227	1322.6183	0.181159	-461.367038	-461.357387	-461.356443	-461.40161	36.054	
C	-0.1909406013	 1.3477702762	 0.2475925389	-0.243078
O	-0.1626823422	-0.0621695963	 0.3769417042	-0.240214
C	-1.2877935321	-0.6966219898	-0.1695661395	 0.226354
C	-1.099176983	-2.2156038211	-0.0192811672	-0.306336
C	-2.238756507	-2.6691424804	 0.9212500204	 0.392839
C	-3.4157058581	-3.2768359139	 0.1556421631	-0.446287
O	-1.7053112762	-3.5974224715	 1.8573361915	-0.47355
C	-2.6281791291	-1.3230638975	 1.5727217788	-0.14873
O	-2.4811905491	-0.3669814597	 0.52979214	-0.255193
H	 0.7320661334	 1.727848274	 0.6906810998	 0.125379
H	-0.2304603261	 1.6506748967	-0.8102097863	 0.103428
H	-1.0521294481	 1.7824239647	 0.7678266034	 0.125512
H	-1.4429265747	-0.3519398159	-1.2019241864	 0.065758
H	-1.1260059696	-2.7278722409	-0.983138686	 0.104455
H	-0.1375851141	-2.4143170297	 0.4559889141	 0.134525
H	-3.0976965728	-4.1659790204	-0.3965784849	 0.123337
H	-4.2204991698	-3.5666374962	 0.8431789874	 0.103314
H	-3.8301132531	-2.5518933465	-0.5514569001	 0.132716
H	-2.4388118884	-3.9758095777	 2.3533761051	 0.27638
H	-3.6628948366	-1.2785353962	 1.9247304974	 0.09469
H	-1.948196892	-1.1187703578	 2.4108500862	 0.104701
46.4535	120.7758	151.9168	206.472	259.8893	271.2123	274.9651	311.1029	330.7528	390.9768	434.5691	478.4388	563.1992	607.4208	738.8248	786.7745	844.1478	929.7485	945.3692	973.3711	989.2258	1000.712	1026.1402	1066.9861	1126.8929	1138.5597	1154.2736	1180.8995	1204.7824	1221.3423	1235.4372	1282.3747	1305.3442	1348.4111	1359.3667	1397.4081	1399.4927	1409.5445	1474.4827	1480.8341	1483.8612	1491.959	1498.195	1514.0481	1515.9675	2987.0871	3004.618	3014.8598	3022.3987	3064.9773	3080.2604	3089.6518	3092.7336	3118.0677	3124.7998	3137.5148	3809.5389
COC1CC(C)(O)CO1	CO[C@H]1C[C@@](C)(O)CO1	
InChI=1S/C6H12O3/c1-6(7)3-5(8-2)9-4-6/h5,7H,3-4H2,1-2H3	InChI=1S/C6H12O3/c1-6(7)3-5(8-2)9-4-6/h5,7H,3-4H2,1-2H3/t5-,6-/m1/s1
