19
gdb 126931	3.28667	1.01557	0.78591	1.7833	79.68	-0.1777	0.0435	0.2212	1451.5272	0.161137	-415.399594	-415.390129	-415.389185	-415.434218	34.627	
C	-0.021229094	 1.5517406053	 0.0178480827	-0.399602
C	 0.0514156572	 0.0290090404	-0.0191493548	-0.105545
N	 0.6220094352	-0.4353422103	-1.2756453115	-0.419805
C	 0.7916615665	-1.81850142	-1.4224657607	 0.206286
C	 0.3507006444	-2.8721762915	-0.6460282052	-0.111139
N	 0.7750703128	-4.0077178419	-1.2692424582	-0.211932
N	 1.4580105494	-3.7623024853	-2.4103488711	-0.299284
C	 1.4728225305	-2.4390749307	-2.5042664604	 0.277536
N	 2.1533293852	-1.7532050869	-3.5204513529	-0.603422
H	 0.9794003234	 1.9953950652	-0.0432247494	 0.115988
H	-0.6120448414	 1.9320362963	-0.8204621745	 0.127911
H	-0.4781190519	 1.8944840438	 0.9505075294	 0.118765
H	 0.6162508982	-0.3428003281	 0.8550378071	 0.086893
H	-0.9587163479	-0.3926072001	 0.0629296017	 0.108039
H	 1.4812574922	 0.0555210164	-1.5012955293	 0.229947
H	-0.2075788004	-2.9013689576	 0.2749533782	 0.120157
H	 0.6125932183	-4.9588098051	-0.9946468085	 0.267296
H	 2.5004665127	-2.4021928028	-4.2171291569	 0.24741
H	 1.5576508596	-1.0656461672	-3.9700052057	 0.2445
65.5716	85.6647	120.0238	236.8633	242.6347	253.1775	289.142	298.0747	342.5397	385.1319	516.661	630.7846	640.4402	698.1926	714.011	750.2591	815.1967	825.3491	858.9706	928.7526	945.529	1065.8729	1079.1645	1110.7906	1148.3253	1165.526	1231.6238	1243.6763	1291.8401	1340.2978	1381.7125	1411.4655	1447.6427	1474.6054	1488.4991	1497.9122	1502.6461	1526.3522	1562.4402	1627.8336	1662.5187	2935.3769	3030.4059	3036.4494	3101.5898	3120.8493	3270.4565	3506.8937	3515.5262	3604.5898	3705.0445
CCNC1=CNN=C1N	CCNc1c[nH]nc1N	
InChI=1S/C5H10N4/c1-2-7-4-3-8-9-5(4)6/h3,7H,2H2,1H3,(H3,6,8,9)	InChI=1S/C5H10N4/c1-2-7-4-3-8-9-5(4)6/h3,7H,2H2,1H3,(H3,6,8,9)
