25
gdb 104712	2.35124	1.1882	0.95966	0.9855	88.91	-0.2403	0.0805	0.3208	1404.805	0.226939	-389.482791	-389.472103	-389.471159	-389.518312	40.052	
C	 0.7623456702	 1.1208534689	 0.2871922046	-0.384177
C	 0.3310365623	-0.2901929006	-0.1220696083	-0.248464
C	 0.5641823801	-0.5942389487	-1.6068364107	 0.456097
C	 2.052125926	-0.7615770552	-2.0181197764	-0.296522
C	 1.8260778986	-2.2833849114	-2.2632318593	 0.047762
C	 2.5365428908	-3.2265737102	-1.2987220209	-0.399135
C	 0.3001321735	-2.0806204774	-2.0157240056	-0.307659
O	-0.0451826613	 0.3720200794	-2.4554140344	-0.289879
C	-1.453452348	 0.4311131285	-2.4037366308	-0.252767
H	 1.829556687	 1.2792377887	 0.0998973611	 0.118421
H	 0.21662349	 1.8788819412	-0.2807428622	 0.127661
H	 0.5817097109	 1.2930736408	 1.3525420013	 0.107348
H	 0.8778811755	-1.035299189	 0.4680693391	 0.097654
H	-0.7289240158	-0.4443291936	 0.1179679553	 0.093177
H	 2.2767572868	-0.1931577864	-2.9223247344	 0.107523
H	 2.7884626964	-0.5100353289	-1.2492494383	 0.09103
H	 2.0519447692	-2.5863629168	-3.2895049297	 0.070652
H	 2.3357783258	-2.9612432422	-0.2540450423	 0.113601
H	 2.2092925645	-4.2622301351	-1.4443880122	 0.112179
H	 3.6223199423	-3.1948687204	-1.4435788158	 0.113069
H	-0.1446090746	-2.7173408582	-1.2445560423	 0.088517
H	-0.2998982518	-2.1602260508	-2.9251056862	 0.099642
H	-1.8273734722	 0.8336718712	-1.451615274	 0.105859
H	-1.7714077622	 1.0996213435	-3.2081752062	 0.123737
H	-1.915905844	-0.5536875073	-2.5657329314	 0.104675
52.3397	114.9284	134.7127	180.7178	188.9634	203.2999	246.4991	270.0627	314.3248	335.5721	368.7988	377.939	456.2271	520.3179	639.2963	767.7978	785.2708	822.1661	830.9109	891.3489	908.2755	938.076	974.7367	1000.7566	1015.3796	1058.7737	1072.7037	1106.0732	1132.2659	1150.2056	1184.6058	1196.0121	1206.5648	1228.6985	1234.368	1270.5473	1282.891	1294.0349	1325.9355	1363.8007	1367.4263	1407.07	1414.0109	1460.1409	1472.4277	1481.11	1483.7707	1492.6575	1497.0048	1497.2707	1503.5686	1504.6843	1516.2215	2987.5264	3021.5488	3025.8167	3036.4304	3040.3226	3048.6372	3052.2359	3056.3976	3059.5587	3089.3812	3090.1792	3103.9703	3106.5895	3110.2703	3119.0891	3122.9796
CCC1(CC(C)C1)OC	CC[C@]1(C[C@@H](C)C1)OC	
InChI=1S/C8H16O/c1-4-8(9-3)5-7(2)6-8/h7H,4-6H2,1-3H3	InChI=1S/C8H16O/c1-4-8(9-3)5-7(2)6-8/h7H,4-6H2,1-3H3/t7-,8-
