19
gdb 68366	2.85609	1.61248	1.2376	4.2771	75.23	-0.2329	0.0557	0.2886	1047.5804	0.161528	-419.248984	-419.241151	-419.240207	-419.280695	31.932	
C	-0.0927908289	 1.5275407657	 0.0237100624	-0.497612
C	 0.0454117346	 0.0218383071	 0.0548455553	 0.326728
C	 1.0501663322	-0.7151644074	-0.8933795794	-0.263563
C	 1.0501065286	-1.8238557703	 0.2032016307	-0.011299
C	 0.7837051177	-0.6898221625	 1.2299964281	-0.236555
N	-0.1628146476	-2.6301964188	 0.1011034552	-0.326023
C	-1.35588025	-1.9983964183	-0.216699835	 0.412593
O	-2.3649764886	-2.5818278607	-0.5631290719	-0.41295
N	-1.2692802917	-0.6228730772	-0.061795773	-0.357677
H	 0.8837510889	 2.0046791058	 0.1413509526	 0.123403
H	-0.5195533459	 1.8639606479	-0.928628953	 0.12235
H	-0.7460710164	 1.8751463858	 0.8311700871	 0.130881
H	 0.7069451112	-0.9830254142	-1.8955092222	 0.102432
H	 2.0097760808	-0.1951183008	-0.9422003744	 0.102304
H	 1.9173993633	-2.4725090491	 0.3248603692	 0.077922
H	 1.7025204308	-0.1654562985	 1.5010359681	 0.101432
H	 0.1987280917	-0.9382317598	 2.1169790467	 0.111185
H	-0.1018708775	-3.5809747611	-0.225421458	 0.250006
H	-2.0239620931	-0.1141329035	-0.4954055386	 0.244443
137.877	224.5131	246.9748	276.3491	359.0575	400.8472	406.5086	463.9821	474.0241	503.8972	535.2104	640.3708	667.6123	771.3977	819.2354	852.2909	860.1803	927.5497	944.123	988.3277	993.0242	1023.5645	1055.3066	1069.1287	1120.0712	1144.4569	1199.0756	1217.6175	1244.337	1259.7983	1268.4998	1323.1075	1395.6909	1411.8798	1429.7203	1441.397	1464.1427	1488.6203	1495.3217	1502.0915	1817.6268	3029.143	3060.2583	3072.6633	3094.0112	3113.6702	3116.6982	3126.7725	3140.0669	3635.2545	3649.2775
CC12CC(C1)NC(=O)N2	C[C@@]12C[C@@H](C1)NC(=O)N2	
InChI=1S/C6H10N2O/c1-6-2-4(3-6)7-5(9)8-6/h4H,2-3H2,1H3,(H2,7,8,9)	InChI=1S/C6H10N2O/c1-6-2-4(3-6)7-5(9)8-6/h4H,2-3H2,1H3,(H2,7,8,9)/t4-,6+
