22
gdb 123204	10.7479	0.38687	0.3787	4.7495	85.4	-0.259	0.0365	0.2955	2776.6315	0.192545	-404.361596	-404.350532	-404.349588	-404.399367	37.513	
C	-0.0361423591	 1.3998124966	 0.0488901696	-0.228516
O	-0.0065698585	-0.0062888276	 0.0195115418	-0.229814
C	 0.642609299	-0.5196707977	-1.1214824955	-0.049705
C	 0.6167965093	-2.0408619655	-1.0504751045	-0.203036
C	 1.3009144969	-2.7015433201	-2.2509490727	-0.189691
C	 1.2738763334	-4.2311383009	-2.177777868	-0.180183
C	 1.9660839355	-4.8805870879	-3.3926304091	-0.342437
C	 1.9495381076	-6.3408888586	-3.3391811632	 0.257009
N	 1.9273502871	-7.4948098733	-3.2808296383	-0.304291
H	 0.977797277	 1.8311789778	 0.0596417973	 0.102847
H	-0.5746017896	 1.8168582791	-0.8173671499	 0.102846
H	-0.555305797	 1.6978913644	 0.9629845757	 0.128203
H	 0.1403181232	-0.1690221754	-2.0409313642	 0.082749
H	 1.6842668531	-0.1545300762	-1.1690134209	 0.082747
H	 1.1033154317	-2.3549515311	-0.1193010192	 0.110848
H	-0.4272733795	-2.3693251743	-0.9836219791	 0.11085
H	 0.8139048318	-2.3737059509	-3.1798416199	 0.100579
H	 2.3431225143	-2.3594363492	-2.3162373751	 0.100579
H	 1.7672417579	-4.5718378911	-1.2606549816	 0.122952
H	 0.2386532818	-4.5861175431	-2.1239803127	 0.122953
H	 1.4785729711	-4.5625575816	-4.3218869647	 0.151255
H	 3.0090074928	-4.5482808033	-3.4574836857	 0.151255
43.4296	67.2992	75.9851	99.3056	144.63	149.9787	154.3662	240.213	256.1026	294.2113	400.5116	423.1444	494.6192	562.2419	737.315	767.2755	846.1471	934.5771	967.6437	980.7459	1010.0457	1046.8476	1065.6314	1096.4871	1139.5317	1166.3486	1177.8034	1214.104	1221.3489	1258.1299	1267.5389	1308.713	1316.5871	1326.37	1334.2172	1373.731	1402.9672	1430.1702	1468.9499	1482.7577	1486.1958	1487.6181	1493.9363	1503.7758	1511.5351	1533.3634	2362.4862	2937.0525	2961.5363	2968.0664	3006.5376	3009.7621	3033.7296	3035.1707	3036.4224	3047.1712	3067.4492	3078.7431	3094.4267	3114.3749
COCCCCCC#N	COCCCCCC#N	
InChI=1S/C7H13NO/c1-9-7-5-3-2-4-6-8/h2-5,7H2,1H3	InChI=1S/C7H13NO/c1-9-7-5-3-2-4-6-8/h2-5,7H2,1H3
