15
gdb 11981	2.68639	2.35822	1.76408	2.4571	61.55	-0.2362	-0.0235	0.2126	797.5284	0.1172	-399.761991	-399.754306	-399.753361	-399.793618	28.743	
C	-0.0426802927	 1.6261948705	-0.1007315827	-0.459334
C	 0.0103568187	 0.1126923512	-0.0459766756	 0.308721
O	-1.2519662885	-0.4763373615	 0.2190434877	-0.478887
C	 0.6783182284	-0.6582829194	-1.2007960253	-0.080267
N	 2.0603401362	-0.186728517	-1.2533252766	-0.335882
C	 1.7063811064	-1.2929805184	-0.2955954547	-0.194714
C	 1.0649221453	-0.6079039276	 0.8805333249	 0.398299
O	 1.0989334704	-0.7495403692	 2.0692288666	-0.324297
H	 0.9169935812	 2.0323679673	-0.4276773094	 0.144765
H	-0.8293054574	 1.9489742043	-0.7899518253	 0.123888
H	-0.2703806131	 2.0301142066	 0.8918342188	 0.122406
H	-1.4343598697	-0.3553579196	 1.1586524957	 0.293857
H	 0.1692204754	-1.1118243052	-2.0409229397	 0.117319
H	 2.5201664609	-0.6410524089	-2.0421760224	 0.245441
H	 2.2023011586	-2.2535551532	-0.3511037419	 0.118684
110.7796	200.8882	208.597	234.3321	274.4695	320.163	359.4837	490.3367	523.5669	638.0838	691.7206	749.6989	821.9108	849.2622	866.686	907.985	961.1029	971.6756	1054.8629	1077.8381	1098.8905	1110.581	1185.1625	1216.4757	1248.0455	1313.6662	1350.0989	1387.5964	1396.8354	1485.8639	1492.8611	1885.4004	3036.7084	3102.9866	3135.0419	3200.6799	3215.3027	3476.3999	3792.8809
CC1(O)C2NC2C1=O	C[C@@]1(O)[C@H]2N[C@H]2C1=O	
InChI=1S/C5H7NO2/c1-5(8)3-2(6-3)4(5)7/h2-3,6,8H,1H3	InChI=1S/C5H7NO2/c1-5(8)3-2(6-3)4(5)7/h2-3,6,8H,1H3/t2-,3+,5-/m1/s1
