21
gdb 64089	3.1595	1.20564	1.09655	3.8598	78.59	-0.2136	0.0324	0.2459	1202.8336	0.184031	-420.449197	-420.440113	-420.439169	-420.482499	35.338	
C	 0.0425846342	 1.5361448711	 0.0193863571	-0.423729
C	-0.06107703	 0.0079747369	-0.0028129154	 0.249994
C	-1.5408284245	-0.4106944437	-0.0293168622	-0.402791
C	 0.6838739156	-0.5359499882	-1.2422413834	-0.167804
N	 0.8879107167	-1.9753101453	-1.1465093523	-0.313412
C	 0.9992696713	-2.7044923311	 0.0032699088	 0.385141
O	 1.2995303013	-3.8845522938	 0.0010157852	-0.37925
C	 0.6511734223	-1.9606138491	 1.294391339	-0.295503
N	 0.5714640688	-0.5020257073	 1.2269236619	-0.308257
H	 1.0876613377	 1.8598925955	 0.0865166219	 0.108735
H	-0.3852832596	 1.9732816581	-0.8881950851	 0.116342
H	-0.4920122708	 1.936648366	 0.8845286705	 0.129968
H	-2.0590029132	 0.0816172873	-0.8578263026	 0.112597
H	-1.6629237558	-1.4889788883	-0.1595167167	 0.12678
H	-2.0257461416	-0.1196626764	 0.9062919321	 0.12698
H	 0.1156603879	-0.3226681221	-2.1556830841	 0.107778
H	 1.6489105781	-0.0133025872	-1.3353360429	 0.094734
H	 1.1466878273	-2.4829844227	-1.9807624923	 0.244638
H	-0.3058082121	-2.3728686855	 1.6391907445	 0.138188
H	 1.3890435218	-2.2508103579	 2.0462495278	 0.13378
H	 1.5086829746	-0.1153559164	 1.2888597081	 0.21509
79.4472	156.6494	204.5791	229.3071	252.7307	286.8729	327.9574	376.8363	429.6659	455.8127	470.5945	506.6168	545.2632	647.0039	703.5514	759.9905	793.3549	841.8516	896.9491	919.244	954.5443	996.7988	1018.227	1051.2423	1092.5318	1129.8051	1191.4139	1221.7914	1232.9857	1272.6955	1312.5891	1337.6768	1352.7861	1387.7349	1402.0542	1416.5771	1460.5995	1473.8144	1479.0591	1487.5803	1494.0191	1504.7547	1514.7786	1525.132	1790.1793	2972.6548	3031.3401	3033.7011	3041.6776	3047.1125	3097.4241	3105.5062	3114.7105	3122.0731	3126.3346	3503.2302	3598.9905
CC1(C)CNC(=O)CN1	CC1(C)CNC(=O)CN1	
InChI=1S/C6H12N2O/c1-6(2)4-7-5(9)3-8-6/h8H,3-4H2,1-2H3,(H,7,9)	InChI=1S/C6H12N2O/c1-6(2)4-7-5(9)3-8-6/h8H,3-4H2,1-2H3,(H,7,9)
