16
gdb 47749	2.63124	1.77649	1.18724	2.3674	65.07	-0.267	-0.0085	0.2584	1007.1876	0.126347	-475.027419	-475.020024	-475.01908	-475.059576	27.881	
O	 0.0516812751	 0.0607063798	 0.4355057934	-0.348834
C	 0.0282048622	 1.2030893889	 0.0549367042	 0.38894
O	-1.1385766722	 1.7712390577	-0.3177087315	-0.235028
C	-1.1383572232	 3.0513150216	-0.9812992883	 0.017866
O	-0.1562444653	 3.9117374813	-0.5314521014	-0.213646
C	 1.1338025761	 3.3573799697	-0.7720466756	-0.188179
C	 1.2593144387	 2.0690318685	 0.012000155	 0.15996
C	 2.1339964956	 1.9571360447	 1.2211518498	-0.250616
N	 2.5470158584	 1.3736217355	-0.0522228651	-0.348755
H	-1.0401229055	 2.8554107752	-2.0607272084	 0.108936
H	-2.1090336265	 3.4962492275	-0.7597588002	 0.13977
H	 1.2720789684	 3.1677556828	-1.8478577976	 0.112917
H	 1.8712382585	 4.0965565139	-0.4549701707	 0.130899
H	 2.6927599486	 2.8348105087	 1.5351620806	 0.127421
H	 1.8036295433	 1.2934491763	 2.0138009868	 0.14365
H	 2.3588524178	 0.3714345279	-0.0317689211	 0.254698
82.7255	135.0345	277.8393	289.5457	297.9137	407.4949	424.2392	470.2432	572.0925	631.8292	757.2079	768.8538	851.8104	917.8155	956.6796	988.0921	1000.9576	1022.0998	1059.069	1087.0213	1112.0285	1128.7654	1154.1842	1233.2626	1254.0709	1293.9852	1320.7615	1345.5582	1369.8196	1416.9655	1460.8051	1493.7384	1502.7593	1522.9614	1824.4858	2982.9042	2992.3665	3113.9526	3117.2188	3130.517	3212.647	3477.5356
O=C1OCOCC11CN1	O=C1OCOC[C@]21CN2	
InChI=1S/C5H7NO3/c7-4-5(1-6-5)2-8-3-9-4/h6H,1-3H2	InChI=1S/C5H7NO3/c7-4-5(1-6-5)2-8-3-9-4/h6H,1-3H2/t5-/m0/s1
