14
gdb 129983	5.97247	0.96872	0.83392	4.1214	68.67	-0.2257	0.0011	0.2268	1293.4382	0.102687	-466.192906	-466.184884	-466.183939	-466.225824	29.337	
N	-0.1744059901	 1.3875046343	 0.2169218756	-0.5953
C	-0.0655613426	 0.0370425433	 0.1378313582	 0.521858
N	-1.035367372	-0.8333956349	 0.0716254409	-0.421403
C	-0.3270749057	-2.0150926767	 0.0773454124	 0.488718
N	-1.0501748369	-3.1849976549	 0.0195310611	-0.38743
C	-0.5974304888	-4.4900778402	 0.005339169	 0.069624
N	 0.6296170466	-4.8078370075	 0.0411175118	-0.404697
N	 0.9801210751	-1.9181396763	 0.1362022274	-0.200334
O	 1.1545463611	-0.4912716929	 0.1774382726	-0.215152
H	 0.6425285402	 1.9207544532	-0.0343481799	 0.277524
H	-1.0585100832	 1.7690237217	-0.0778593162	 0.279086
H	-2.0450041523	-3.0336760931	-0.0122814981	 0.266897
H	-1.4435062142	-5.186693964	-0.0411542855	 0.093384
H	 0.7290687129	-5.820619192	 0.0210771907	 0.227226
59.2783	155.8274	168.6857	257.5086	289.1577	377.2043	388.2198	460.4245	466.1262	505.3222	586.2259	715.6087	762.381	785.6415	810.6284	825.2899	891.6638	1029.1862	1036.1798	1050.5991	1095.5038	1155.749	1243.7878	1334.9077	1417.3041	1438.4767	1564.6413	1602.352	1630.7325	1694.8762	1742.6825	3042.4252	3510.2536	3602.6855	3658.4241	3718.3594
NC1=NC(NC=N)=NO1	Nc1nc(NC=N)no1	
InChI=1S/C3H5N5O/c4-1-6-3-7-2(5)9-8-3/h1H,(H4,4,5,6,7,8)	InChI=1S/C3H5N5O/c4-1-6-3-7-2(5)9-8-3/h1H,(H4,4,5,6,7,8)
