18
gdb 61496	2.97235	0.85632	0.7776	3.393	73.64	-0.2852	-0.049	0.2362	1497.2279	0.145073	-439.113584	-439.103627	-439.102683	-439.149269	34.963	
C	-1.5508058271	-0.3523396668	 0.173105915	-0.404199
C	-0.0818871182	 0.0991241249	 0.0760377875	-0.125065
C	 0.7621401046	-0.4119636759	 1.2650251836	-0.215597
C	 2.170105904	 0.2084020488	 1.2875230848	 0.031911
O	 2.0952133537	 1.6052357687	 1.3780519333	-0.433592
C	 2.9787076999	-0.3536592983	 2.4387378815	 0.136742
O	 3.4552308249	 0.3627359039	 3.2852253107	-0.257399
C	 0.5111511218	-0.3393659256	-1.192466694	 0.275112
N	 0.9866372866	-0.7057222545	-2.180547583	-0.331466
H	-1.9919796486	 0.0262929301	 1.0992585079	 0.129579
H	-2.1336033344	 0.0289261049	-0.6686737601	 0.142142
H	-1.6263210718	-1.4435560265	 0.1740456074	 0.136618
H	-0.0388716603	 1.193998269	 0.0932326511	 0.155011
H	 0.2440567971	-0.1368953263	 2.1902448834	 0.118923
H	 0.8305095029	-1.5055480837	 1.2275515759	 0.115966
H	 2.6927664427	-0.0903287068	 0.3602852607	 0.121858
H	 2.6026906147	 1.8453543672	 2.1698315651	 0.298006
H	 3.1088721074	-1.4545623632	 2.461328239	 0.10545
57.0702	69.3864	110.7226	137.1175	217.4864	234.2921	270.0144	302.8819	328.5319	361.1118	423.3585	501.5286	558.5457	593.5281	750.0582	777.1036	843.6016	887.3995	930.7117	994.1798	1018.3961	1082.9502	1107.4014	1134.9727	1174.5539	1229.3629	1263.6497	1296.1318	1344.0252	1357.2542	1374.837	1403.1322	1413.6631	1437.9652	1469.8068	1493.6583	1500.9346	1814.3741	2353.9246	2932.8926	2953.5841	3035.8393	3047.2186	3059.6604	3089.5992	3123.0697	3130.0969	3688.3065
CC(CC(O)C=O)C#N	C[C@@H](C[C@@H](O)C=O)C#N	
InChI=1S/C6H9NO2/c1-5(3-7)2-6(9)4-8/h4-6,9H,2H2,1H3	InChI=1S/C6H9NO2/c1-5(3-7)2-6(9)4-8/h4-6,9H,2H2,1H3/t5-,6+/m0/s1
