21
gdb 22405	6.7628	0.62377	0.59193	0.8941	85.21	-0.2192	0.0059	0.2251	1899.6229	0.180608	-420.33895	-420.32895	-420.328006	-420.374492	36.155	
C	-0.0663982974	 1.5950056314	-0.0452080744	-0.380742
C	-0.0470217585	 0.0647925038	-0.0130283062	-0.172236
C	-1.4479928201	-0.5443208538	-0.0876218024	-0.12627
N	-1.4144977338	-1.9933843031	-0.0360174314	-0.083122
C	-0.9174391527	-2.7236020623	-1.2350818361	-0.263385
C	-2.1103863619	-3.6398213282	-1.0972286772	 0.411713
C	-2.7149343958	-2.7117872837	-0.068189125	-0.264203
N	-2.38636418	-4.7479574506	-1.6355644246	-0.231958
O	-3.6223405727	-5.236604639	-1.171444473	-0.393816
H	 0.9466046249	 2.0049286355	 0.0054733726	 0.115411
H	-0.5305751171	 1.9688776984	-0.964578794	 0.115468
H	-0.6324404648	 2.0028915575	 0.799692181	 0.115684
H	 0.5553612736	-0.3115809296	-0.8500733776	 0.099143
H	 0.4391854973	-0.2928488832	 0.9016896301	 0.107842
H	-2.0438530555	-0.1951591292	 0.765509961	 0.101545
H	-1.9615530579	-0.1781904844	-1.0015234976	 0.070231
H	-0.9453224293	-2.1278086803	-2.1629611631	 0.106459
H	 0.0781393323	-3.1664293318	-1.1298581322	 0.125918
H	-3.0264057899	-3.1531153529	 0.884382126	 0.128537
H	-3.5519467564	-2.1208017056	-0.4752185743	 0.109857
H	-3.6967247643	-6.0758336486	-1.6381726919	 0.307924
50.7645	83.2001	97.0013	160.8646	203.1423	240.2332	262.3319	312.9131	346.886	386.0412	411.3884	472.2277	536.7416	710.1765	757.591	794.751	892.9002	898.6428	916.2031	952.6073	980.9218	1028.2048	1052.8519	1061.8438	1101.7636	1132.6898	1150.5463	1176.3345	1197.8779	1220.745	1265.1917	1282.9007	1318.5207	1328.6435	1339.7156	1409.1505	1410.7376	1416.6943	1476.9142	1485.0242	1493.8103	1500.3359	1503.6015	1514.7479	1812.9522	2881.8755	2962.4928	2973.9669	3022.7976	3030.5638	3038.3853	3063.6962	3065.7132	3066.4828	3097.8395	3106.1861	3818.2314
CCCN1CC(C1)=NO	CCCN1CC(=NO)C1	
InChI=1S/C6H12N2O/c1-2-3-8-4-6(5-8)7-9/h9H,2-5H2,1H3	InChI=1S/C6H12N2O/c1-2-3-8-4-6(5-8)7-9/h9H,2-5H2,1H3
