22
gdb 86081	2.28686	1.45043	1.13017	1.2365	83.33	-0.2376	0.0329	0.2705	1227.6193	0.192414	-404.39495	-404.384945	-404.384001	-404.429437	37.635	
C	-0.4860362268	 1.4429691409	 0.052169733	-0.410959
C	 0.1256321091	 0.0591329637	-0.0720402346	 0.086219
O	 1.2189066053	 0.1009814443	-1.0243389546	-0.270619
C	 2.1911568233	-0.7006698766	-0.5062243231	 0.392397
C	 3.3546432441	-0.9372942345	-1.4081143584	-0.476886
N	 2.0389113381	-1.1614401245	 0.6678172309	-0.33286
C	 0.7711610408	-0.6032755724	 1.1939093851	 0.259209
C	 1.123317577	 0.3859841136	 2.3155495618	-0.412174
C	-0.1103709944	-1.7297583041	 1.741435393	-0.419659
H	 0.2405029811	 2.1723468889	 0.4179757291	 0.127105
H	-0.8505098548	 1.7819291579	-0.9216286325	 0.126743
H	-1.335802975	 1.4219000712	 0.7417742451	 0.12145
H	-0.6226580804	-0.6283811675	-0.4896195263	 0.079173
H	 3.0272050728	-1.4251628928	-2.3316744527	 0.141907
H	 3.8132736117	 0.0157210088	-1.6905385504	 0.142621
H	 4.0904767772	-1.5623881189	-0.9034880649	 0.149287
H	 1.7531430579	 1.2003837325	 1.9465170338	 0.116219
H	 0.2250169246	 0.8188552523	 2.7673638636	 0.107892
H	 1.6826589032	-0.1384071807	 3.0948505415	 0.12608
H	 0.3822919546	-2.2251782988	 2.5825694195	 0.124503
H	-1.0734684344	-1.3385467843	 2.089331924	 0.107555
H	-0.301916165	-2.482011889	 0.9705920773	 0.114796
56.5562	138.1891	159.6934	215.147	234.1883	258.2669	270.4379	279.0696	304.3623	341.1548	417.7593	469.5097	510.5134	596.2486	644.2116	657.4692	744.4553	864.1997	900.8087	940.1012	957.1718	967.1764	1007.8853	1044.6687	1058.925	1068.2939	1094.1008	1139.6297	1191.5547	1221.3535	1245.0375	1295.4932	1363.8814	1387.5402	1397.0241	1409.1712	1415.5358	1420.095	1473.7789	1475.7647	1476.9194	1481.7289	1487.6598	1497.2948	1499.2388	1512.3918	1736.3486	3004.909	3030.5352	3038.4681	3046.4384	3049.4335	3100.8957	3106.1557	3109.03	3114.4532	3116.1343	3120.6523	3130.1149	3164.6525
CC1OC(C)=NC1(C)C	C[C@H]1O[C](C)[N]C1(C)C	
InChI=1S/C7H13NO/c1-5-7(3,4)8-6(2)9-5/h5H,1-4H3	InChI=1S/C7H13NO/c1-5-7(3,4)8-6(2)9-5/h5H,1-4H3/t5-/m1/s1
