21
gdb 78010	2.57714	1.26385	1.01523	3.3263	85.72	-0.2406	-0.0152	0.2254	1263.6847	0.181524	-387.083584	-387.074313	-387.073369	-387.11731	35.032	
C	-0.2767628007	 1.2625846723	-0.6540847626	-0.42267
C	 0.1414943979	-0.1909202083	-0.556255792	-0.059668
C	 1.5164309639	-0.7670079684	-0.5996954042	-0.140934
C	 2.6016338085	 0.0003362053	 0.1779904738	 0.045457
C	 3.1893471744	 1.2869903137	-0.393086594	-0.415591
C	 1.6803992323	 0.0288251467	 1.4434666597	-0.342352
C	 0.6537830516	-0.8415988159	 0.7139417711	 0.25917
C	 0.0526759451	-2.0588711486	 1.2603327855	 0.054757
O	 0.1634619008	-2.4320032168	 2.4061931247	-0.276373
H	-0.1893306258	 1.6198514623	-1.6856282065	 0.124197
H	-1.3227839648	 1.3726762889	-0.3494416267	 0.123612
H	 0.3193786926	 1.920818773	-0.0209702682	 0.129274
H	-0.5563598871	-0.8518599356	-1.0717155976	 0.095408
H	 1.7317675155	-1.6002615761	-1.260682941	 0.0954
H	 3.422770383	-0.6965130766	 0.3742015865	 0.087563
H	 2.426362057	 2.0400011336	-0.6044221711	 0.119445
H	 3.9055978689	 1.7254107904	 0.3105783945	 0.118922
H	 3.7244798345	 1.0866457078	-1.3279424415	 0.11712
H	 2.1076304169	-0.4828289283	 2.3065882202	 0.128715
H	 1.3251896889	 1.012321402	 1.7645408661	 0.101131
H	-0.5249751334	-2.6545021613	 0.5134287135	 0.057416
91.6725	151.3526	169.7669	196.3577	229.0828	236.4742	265.1181	310.0365	365.379	436.7963	503.2461	594.3306	653.0837	705.1533	746.6943	834.9629	869.4009	899.7166	941.5062	967.4941	989.374	1032.7759	1043.7985	1062.9106	1099.9765	1113.0563	1127.7371	1149.2202	1190.7373	1238.6765	1247.4748	1272.0476	1334.8992	1347.2914	1376.8242	1410.0354	1413.9594	1424.9715	1463.7367	1488.2606	1496.1884	1499.1	1505.5431	1509.4658	1794.1751	2841.733	3034.0818	3040.4788	3049.0447	3061.0484	3093.4675	3097.1434	3102.9741	3121.8745	3129.4813	3143.6436	3164.9683
CC1C2C(C)CC12C=O	C[C@H]1[C@H]2[C@@H](C)C[C@@]12C=O	
InChI=1S/C8H12O/c1-5-3-8(4-9)6(2)7(5)8/h4-7H,3H2,1-2H3	InChI=1S/C8H12O/c1-5-3-8(4-9)6(2)7(5)8/h4-7H,3H2,1-2H3/t5-,6-,7+,8+/m0/s1
