16
gdb 7415	3.30919	1.80152	1.18377	2.2489	62.85	-0.264	-0.0083	0.2557	978.4504	0.129726	-417.138616	-417.129872	-417.128928	-417.17218	31.147	
C	-1.0784971802	 1.192784099	 0.3514148602	-0.354263
N	-0.2208029081	 0.0492601345	 0.0247747326	-0.191291
C	 0.5243795081	-0.5719019197	 1.0145260284	 0.439789
C	 0.3944246787	-0.0036011539	 2.4155890621	-0.493826
O	 1.2599375307	-1.5292312995	 0.8142547141	-0.37892
C	-0.2325972799	-0.3429037439	-1.3669121451	 0.488019
N	 0.5502497666	-1.3920450507	-1.6834938488	-0.55702
O	-0.9204885244	 0.2646542056	-2.1642552751	-0.398873
H	-1.5557406672	 1.5037845117	-0.5746138576	 0.185332
H	-1.8481239978	 0.9165356623	 1.0771942474	 0.130338
H	-0.493730025	 2.0254830906	 0.7515387463	 0.130354
H	-0.6370540012	-0.0533669903	 2.7767759094	 0.147617
H	 1.0351580716	-0.5947148545	 3.068371161	 0.151557
H	 0.7033617397	 1.0451164849	 2.4556910459	 0.147583
H	 1.0969652022	-1.8500375641	-0.9646342472	 0.290684
H	 0.5492948562	-1.6727367321	-2.6482456837	 0.262921
64.4042	90.5842	115.5415	212.3455	271.0866	308.4888	359.7717	399.2431	425.3826	454.1393	570.5322	589.9821	629.4282	707.3748	726.0215	784.4491	910.8095	1022.4202	1054.1313	1127.6875	1155.9484	1166.1626	1227.4072	1340.3064	1360.9075	1401.8369	1452.074	1467.5771	1482.4285	1505.5915	1521.0951	1576.4725	1750.7585	1814.1005	3048.2615	3054.0962	3108.7343	3116.9297	3167.1073	3183.2495	3499.4203	3718.8531
CN(C(C)=O)C(N)=O	CN(C(=O)C)C(=O)N	
InChI=1S/C4H8N2O2/c1-3(7)6(2)4(5)8/h1-2H3,(H2,5,8)	InChI=1S/C4H8N2O2/c1-3(7)6(2)4(5)8/h1-2H3,(H2,5,8)
