16
gdb 82016	2.56541	1.45085	1.32014	2.6249	69.39	-0.2424	0.012	0.2544	1022.6772	0.124612	-434.020896	-434.012439	-434.011495	-434.05367	31.975	
N	-0.0744095272	 1.4593414755	 0.1998247712	-0.503813
C	-0.0296434658	 0.0420380604	 0.023411341	-0.037182
C	-1.379841015	-0.6647523279	-0.0421833261	 0.039906
O	-2.0255810856	-0.2205076399	-1.2532587839	-0.26067
C	-1.0893213067	-1.2965200933	-1.3362998666	-0.029538
C	 0.3005008215	-0.6091536741	-1.4436714771	 0.098432
N	 0.5161576457	 0.3693578398	-2.4899920463	-0.556522
C	 1.4009609241	-1.5578129496	-1.3757537208	 0.243462
N	 2.255588871	-2.3336073262	-1.3013200115	-0.333229
H	 0.8332650741	 1.8784129371	 0.0271448661	 0.247287
H	-0.7313088766	 1.8769347933	-0.4511499301	 0.239987
H	 0.6301073633	-0.4135530939	 0.7661098545	 0.115277
H	-2.0242280778	-0.9828376028	 0.7675522458	 0.122228
H	-1.4250313788	-2.2336941328	-1.7648264488	 0.124037
H	 0.8182670724	-0.0776414745	-3.3502776238	 0.244479
H	-0.3703170386	 0.829699999	-2.6781313435	 0.24586
105.8015	151.2528	183.4564	229.5798	262.4102	281.4367	319.7237	429.9938	495.4085	511.0933	561.5271	623.6812	671.662	766.6282	820.6236	842.245	869.6745	881.716	915.586	953.1334	993.0003	1035.9633	1058.4217	1119.2392	1179.389	1227.3684	1235.6906	1241.6231	1275.6224	1343.2357	1373.9733	1426.845	1645.4931	1658.5314	2349.1592	3087.4643	3188.3859	3209.7842	3490.5419	3512.7895	3576.9742	3592.2736
NC1C2OC2C1(N)C#N	N[C@H]1[C@H]2O[C@H]2[C@]1(N)C#N	
InChI=1S/C5H7N3O/c6-1-5(8)3(7)2-4(5)9-2/h2-4H,7-8H2	InChI=1S/C5H7N3O/c6-1-5(8)3(7)2-4(5)9-2/h2-4H,7-8H2/t2-,3+,4-,5+/m1/s1
