18
gdb 32964	3.48889	0.85654	0.71546	5.0265	82.18	-0.1664	-0.0032	0.1632	1544.5849	0.146669	-439.098074	-439.088521	-439.087576	-439.133096	34.707	
N	-0.0762032425	 0.7265175239	 1.1162277835	-0.511758
H	-1.2657295291	 0.472745247	 2.5071348359	 0.30119
H	 0.9098275367	 0.9279438287	 1.243738165	 0.245176
H	-0.1382579179	-0.0491662121	 0.4630646263	 0.242274
C	-0.7928604833	 1.9036045543	 0.5827438597	-0.156682
C	-2.3114413181	 1.6958987158	 0.7214607753	-0.295668
C	-2.7657508557	 1.597754083	 2.1527195361	 0.323965
C	-3.7670718519	 2.3159249847	 2.6839423046	-0.157618
C	-4.2056505096	 2.2121350183	 4.070139641	-0.425952
C	-3.70954974	 1.4213998457	 5.0053952693	 0.474138
O	-3.3418200007	 0.7624542317	 5.8932032325	-0.241892
O	-2.1206924728	 0.6915389296	 2.9412038663	-0.447259
H	-0.4890488817	 2.7725853485	 1.1757573948	 0.123954
H	-0.5395519125	 2.1166079243	-0.4660806517	 0.095824
H	-2.8370202448	 2.5178015703	 0.22755452	 0.111367
H	-2.5777097732	 0.7758386035	 0.1769125665	 0.104038
H	-4.3080764112	 3.0125261545	 2.0567851693	 0.083039
H	-5.0207325619	 2.8368294282	 4.4210731457	 0.131864
66.4645	74.7314	98.2179	183.1669	227.5109	281.7591	293.6663	323.0202	375.914	467.8013	508.181	531.0538	572.3255	644.5728	725.8084	771.3146	817.8921	851.8234	886.9802	897.7195	971.334	997.5573	1018.6412	1070.8793	1138.9911	1157.702	1204.0395	1263.0398	1321.1927	1371.9229	1383.2884	1411.2637	1426.4505	1449.8123	1467.7421	1507.7802	1650.3296	1744.6585	2205.8918	2980.1923	2992.6998	3076.1163	3093.9936	3179.7843	3213.3342	3401.7007	3498.9396	3580.8352
[NH3+]CCC1=CC=C([O-])O1	NCC[C](C=C[C][O])O	
InChI=1S/C6H9NO2/c7-4-3-5-1-2-6(8)9-5/h1-2,8H,3-4,7H2	InChI=1S/C6H9NO2/c7-4-3-6(9)2-1-5-8/h1-2,9H,3-4,7H2
