23
gdb 73866	2.40652	1.51779	1.06043	0.2278	92.29	-0.2178	0.0362	0.254	1238.6998	0.206555	-351.173817	-351.164627	-351.163683	-351.207489	35.648	
C	 0.3972670437	 1.3977627346	 0.2109487449	-0.483398
C	-0.1607210731	 0.0082106991	 0.0285887984	 0.20862
C	-0.2183401473	-0.6545001092	-1.1371864548	 0.208634
C	 0.2653009695	-0.1226954129	-2.4633056457	-0.483396
C	-0.8341679753	-2.0360573254	-1.2530234316	-0.299513
C	-0.9240110655	-2.8237993688	 0.0374094469	-0.020919
C	 0.2919776342	-2.9621947167	 0.9219470342	-0.291866
C	-0.8593092078	-2.0810118872	 1.344154153	-0.020929
C	-0.7067552555	-0.5743911478	 1.3184460078	-0.299516
H	 1.2580011504	 1.3810760392	 0.8927059888	 0.121351
H	 0.7169027355	 1.8737917348	-0.7160196807	 0.118458
H	-0.3498904372	 2.0521308416	 0.679643112	 0.119898
H	 0.6332931468	 0.9025117616	-2.4237906939	 0.118452
H	 1.0724001007	-0.7529331855	-2.8599738504	 0.121355
H	-0.5417780392	-0.1573087406	-3.2073212991	 0.119895
H	-1.8438652287	-1.9302196469	-1.6803830459	 0.103717
H	-0.2700848647	-2.6137422558	-2.0001493668	 0.096369
H	-1.5834432089	-3.6857512725	-0.0091473694	 0.074993
H	 0.4419614398	-3.8991438691	 1.4470928941	 0.102507
H	 1.2066810808	-2.4748143655	 0.5996436774	 0.110204
H	-1.4762205455	-2.4548088435	 2.1563548655	 0.074995
H	-0.0641629006	-0.2537660742	 2.1517519879	 0.096382
H	-1.685174252	-0.1106592593	 1.5208854573	 0.103707
88.7902	127.1061	132.5679	151.3547	304.8323	307.8944	348.6521	361.9894	362.4817	462.751	517.8265	532.322	686.4933	695.0999	768.7276	829.613	835.3729	902.9659	904.636	946.6591	989.3067	1010.8008	1033.9301	1057.1227	1076.7766	1078.0329	1093.3062	1122.5154	1134.8504	1147.4729	1153.8063	1229.1923	1240.8447	1255.5988	1255.6405	1349.8357	1376.9662	1387.4379	1405.6958	1417.9483	1426.3685	1476.359	1478.2291	1480.1938	1487.2137	1488.766	1495.6912	1501.1162	1742.5237	2980.3599	2981.0945	3004.2066	3004.6639	3012.7066	3016.2901	3052.4581	3052.9088	3127.5517	3130.0522	3135.7554	3146.7519	3147.2576	3213.6218
CC1=C(C)CC2CC2C1	CC1=C(C)C[C@H]2C[C@H]2C1	
InChI=1S/C9H14/c1-6-3-8-5-9(8)4-7(6)2/h8-9H,3-5H2,1-2H3	InChI=1S/C9H14/c1-6-3-8-5-9(8)4-7(6)2/h8-9H,3-5H2,1-2H3/t8-,9+
