19
gdb 79159	2.6186	1.84661	1.35689	1.3911	83.01	-0.202	-0.0303	0.1717	996.198	0.159118	-385.790181	-385.78238	-385.781436	-385.822101	31.417	
C	-0.1490094477	 1.346054846	-0.1640839314	-0.471811
C	-0.0172973426	-0.061518187	 0.3195823828	 0.202907
C	-1.0393243285	-0.9382240709	 0.4601320966	-0.040653
C	-1.7711079209	-1.3382087424	-0.8345160265	-0.264995
C	-0.7111565564	-2.4997158065	-0.8247714127	-0.077917
C	 0.7118555326	-2.243349743	-0.1565251903	-0.089953
C	-0.5220265534	-2.3735603883	 0.6561616402	-0.114412
C	 1.3020844408	-0.8600986198	 0.1375212096	 0.060761
O	 2.1027231525	-0.3140708257	-0.8972980452	-0.423531
H	 0.5990643237	 1.5905225936	-0.9227371118	 0.127173
H	-1.1537338742	 1.54135393	-0.5542364714	 0.119785
H	 0.0090713253	 2.0479186051	 0.6666956231	 0.134334
H	-2.7709103611	-1.7748206171	-0.7247336554	 0.106013
H	-1.7775947426	-0.6065292376	-1.6490055788	 0.096148
H	-0.8261363159	-3.4275623465	-1.3819700247	 0.088712
H	 1.3872792859	-3.0887249753	-0.2767390041	 0.083241
H	-0.7423225493	-3.0651454476	 1.4583925803	 0.09077
H	 1.9709090616	-0.911398584	 1.0068843964	 0.092569
H	 1.6286010302	-0.4497484331	-1.7258035568	 0.280859
112.8453	144.3078	218.4288	295.9642	321.1148	390.4522	451.3849	482.3432	554.9479	602.121	616.0531	722.5088	763.3252	780.2832	824.9058	877.9804	901.4305	957.7171	969.3996	988.8734	1022.4627	1034.2604	1039.0055	1051.0105	1081.2046	1090.9644	1103.8365	1133.2805	1198.9056	1230.7064	1242.2351	1260.3636	1266.9944	1292.5753	1362.0332	1400.1304	1419.5444	1465.2615	1486.4092	1503.8324	1614.6367	3013.1786	3015.6428	3023.1404	3067.2949	3079.3468	3118.33	3124.0771	3134.2864	3199.0542	3794.2494
CC1=C2CC3C(C23)C1O	C[C]1[C]2C[C@H]3[C@H]([C@@H]23)[C@H]1O	
InChI=1S/C8H10O/c1-3-4-2-5-6(4)7(5)8(3)9/h5-9H,2H2,1H3	InChI=1S/C8H10O/c1-3-4-2-5-6(4)7(5)8(3)9/h5-9H,2H2,1H3/t5-,6+,7-,8+/m1/s1
