19
gdb 30306	2.82046	1.62951	1.08822	0.6979	81.96	-0.2052	0.0244	0.2297	1120.7594	0.161892	-385.931647	-385.923997	-385.923053	-385.963775	30.	
C	-0.0174664951	 1.5934614129	 0.0235903071	-0.39591
C	 0.0177355787	 0.0620886067	 0.0742533062	-0.120177
C	 0.7077131709	-0.600395181	-1.1711306711	-0.206896
C	 1.5408359625	-1.8351266967	-0.6796909642	-0.356783
C	 1.6836399107	-1.5458285628	 0.7874488422	 0.236041
C	 0.861822686	-0.5347656056	 1.1504503907	 0.333115
O	 0.9181583583	-0.2880967696	 2.4806508382	-0.208641
C	 1.8267841497	-1.1874493054	 2.9770880626	-0.016213
C	 2.3250166009	-1.9867015707	 1.9906452035	-0.360947
H	 0.9942071403	 2.0030826585	-0.0658629577	 0.117351
H	-0.6034562638	 1.9406283175	-0.8337145255	 0.112559
H	-0.469881942	 2.0068234992	 0.9303138587	 0.123452
H	-1.0178413236	-0.3002095951	 0.1620316729	 0.084593
H	-0.0181345238	-0.8699040844	-1.9427245624	 0.099071
H	 1.3892444763	 0.1340376226	-1.6133323276	 0.107053
H	 1.0029938381	-2.7761007949	-0.8548031418	 0.107512
H	 2.4917233186	-1.9160674654	-1.2171239127	 0.105868
H	 2.0116233205	-1.1195197927	 4.036599235	 0.129651
H	 3.0540611468	-2.7712714532	 2.1235865859	 0.109302
99.5669	152.688	219.3389	241.8756	278.7735	420.7248	465.8202	556.9462	615.0624	640.0965	703.9247	716.3017	732.3908	817.8231	823.3018	896.2614	914.8268	947.6207	979.9212	1019.4472	1047.7563	1083.9013	1101.6747	1115.0192	1155.6941	1193.7521	1223.7934	1252.9781	1280.0782	1307.4328	1319.092	1347.0713	1379.5345	1406.9689	1462.2087	1486.0644	1495.7609	1501.1102	1506.7616	1519.2483	1654.7187	2980.6988	3018.1161	3031.6456	3047.0266	3062.1832	3099.4863	3103.43	3107.5137	3248.1511	3280.7235
CC1CCC2=C1OC=C2	C[C@H]1CCc2c1occ2	
InChI=1S/C8H10O/c1-6-2-3-7-4-5-9-8(6)7/h4-6H,2-3H2,1H3	InChI=1S/C8H10O/c1-6-2-3-7-4-5-9-8(6)7/h4-6H,2-3H2,1H3/t6-/m0/s1
