15
gdb 32158	4.17407	1.16057	0.9133	0.6328	71.54	-0.2495	-0.0182	0.2313	1210.3491	0.114679	-454.017155	-454.009529	-454.008585	-454.049484	28.205	
C	-0.0324843618	 1.4228595952	 0.0521671163	-0.233884
O	-0.0240637861	-0.0072440104	 0.0225844489	-0.260793
C	-1.2070536545	-0.6314222318	 0.0030832368	 0.485187
N	-2.3314248473	 0.0897550255	 0.0118529308	-0.360677
C	-3.463716526	-0.6108184177	-0.0089632486	 0.066972
N	-3.5954241161	-1.9321065569	-0.0371164083	-0.360158
C	-2.4492479602	-2.62524742	-0.0451821276	 0.461222
O	-2.5447443475	-3.9633711042	-0.0734992719	-0.410369
C	-1.1990288225	-2.0262278602	-0.0258446044	-0.344651
H	 1.0180650114	 1.7153137106	 0.0638665446	 0.131965
H	-0.5321366918	 1.8305980157	-0.8302138918	 0.13992
H	-0.541652782	 1.7938087368	 0.9452801168	 0.139911
H	-4.3861854916	-0.0344710781	-0.002056641	 0.121396
H	-3.4918434875	-4.1633478189	-0.0828797488	 0.30237
H	-0.2810668165	-2.5964842758	-0.0326261316	 0.121589
100.395	157.5335	221.967	232.7483	240.9945	384.3124	476.7905	479.4068	558.8412	569.3461	641.6225	725.4389	797.5465	834.0346	872.2472	959.1903	1000.5453	1001.2468	1058.9414	1167.007	1177.4416	1198.1112	1248.6451	1317.17	1348.6356	1374.4657	1440.2783	1480.3639	1495.2373	1501.4672	1522.6166	1609.5144	1661.1581	3049.3667	3124.3024	3152.822	3161.1442	3234.9262	3760.4165
COC1=NC=NC(O)=C1	COc1ncnc(O)c1	
InChI=1S/C5H6N2O2/c1-9-5-2-4(8)6-3-7-5/h2-3H,1H3,(H,6,7,8)	InChI=1S/C5H6N2O2/c1-9-5-2-4(8)6-3-7-5/h2-3H,1H3,(H,6,7,8)
