20
gdb 99613	2.1109	1.44087	1.02222	2.2958	81.32	-0.2383	0.0276	0.2659	1249.7572	0.168184	-403.076228	-403.066083	-403.065139	-403.111204	37.14	
C	-1.3365214864	 0.5717012554	 0.3124165199	-0.241044
O	-0.6621190517	-0.6679789597	 0.4040428287	-0.243139
C	 0.6879128349	-0.5695585213	 0.8277320892	-0.125112
C	 0.7931564481	-0.1033333945	 2.2173871571	 0.354944
C	 0.8696072094	 0.280391809	 3.3541712088	-0.479921
C	 1.3563319582	-1.9397988883	 0.6427931792	 0.32124
C	 2.8540259742	-1.9288208538	 0.8511201439	-0.461482
C	 0.5532312457	-3.149156557	 0.9394853848	-0.266001
N	 0.8737856754	-2.7811221105	-0.4581035953	-0.371557
H	-0.8333067265	 1.2497140074	-0.393238738	 0.110219
H	-2.3423102045	 0.3570120697	-0.0545535751	 0.132499
H	-1.4047744739	 1.0672254279	 1.289169945	 0.126628
H	 1.2152009612	 0.1539332073	 0.1799941714	 0.094918
H	 0.9418236179	 0.6158099909	 4.3595497302	 0.202601
H	 3.1100959063	-1.6394979449	 1.8748311075	 0.128066
H	 3.2612059141	-2.9226262499	 0.6529896144	 0.130823
H	 3.3399723834	-1.2249956969	 0.1650473512	 0.11517
H	 1.0479393322	-4.045104108	 1.304596027	 0.10985
H	-0.4677847647	-3.0100466368	 1.2799997191	 0.123478
H	 0.0487378867	-2.341625426	-0.8614104488	 0.237821
64.5811	100.5948	137.4447	184.2081	195.6786	199.1835	257.061	325.0754	346.2358	366.3646	383.037	471.2132	527.783	595.503	627.0174	678.2877	765.3805	849.5037	897.4024	944.2235	984.9804	988.2667	1001.2519	1046.3972	1092.2821	1114.0286	1137.0082	1143.2817	1185.9995	1215.1336	1283.5785	1315.9835	1338.1951	1361.2656	1388.9224	1420.9382	1478.55	1485.1915	1485.6377	1495.0439	1509.5508	1512.0575	2228.4671	2939.6756	2990.974	3033.5625	3056.064	3099.3748	3114.8808	3126.3042	3130.8386	3206.5643	3497.362	3500.6591
COC(C#C)C1(C)CN1	CO[C@@H](C#C)[C@@]1(C)CN1	
InChI=1S/C7H11NO/c1-4-6(9-3)7(2)5-8-7/h1,6,8H,5H2,2-3H3	InChI=1S/C7H11NO/c1-4-6(9-3)7(2)5-8-7/h1,6,8H,5H2,2-3H3/t6-,7+/m0/s1
