19
gdb 112489	3.46256	0.96814	0.8502	2.6467	83.45	-0.2371	-0.025	0.2121	1414.67	0.156724	-385.870779	-385.861189	-385.860245	-385.905728	35.085	
C	 0.1635605641	 1.4684294259	 0.2184412968	-0.386229
C	 0.0617431367	-0.0381686768	-0.0432583129	-0.199854
C	-1.3739753171	-0.555118357	 0.0200882526	-0.088184
C	-1.6634610434	-2.0810360691	-0.1269531796	-0.275623
C	-2.6684527834	-2.026576319	 1.0768281893	-0.293238
C	-2.6481169642	-3.0554128126	 2.0884021274	 0.316694
C	-2.5988153761	-3.9025720261	 2.9401586469	-0.429524
C	-2.0514949135	-0.6284267644	 1.3986361233	 0.39038
O	-2.0086855804	 0.0412297838	 2.3859586461	-0.289794
H	 1.2050119132	 1.8016659265	 0.182741755	 0.113767
H	-0.3949089027	 2.0380300734	-0.5328576913	 0.111863
H	-0.2440844366	 1.7180796613	 1.2014345287	 0.148751
H	 0.4788865147	-0.2804624483	-1.0288063966	 0.102319
H	 0.6679430275	-0.5836070847	 0.6908515697	 0.105709
H	-2.0146028396	 0.0241664987	-0.6589187828	 0.102973
H	-2.0796467683	-2.415562268	-1.0771454633	 0.115059
H	-0.7887439685	-2.6860470125	 0.1203107147	 0.12534
H	-3.6890148665	-1.8640971347	 0.706292862	 0.130869
H	-2.5627929259	-4.6490064463	 3.6944159741	 0.198722
44.9034	92.5265	127.4587	170.0642	201.5955	242.2947	271.1227	360.8457	378.1842	478.7693	539.3367	572.8442	617.4915	637.5998	673.8762	756.7046	811.7335	824.1721	931.8151	952.4886	971.6825	1008.3144	1033.1469	1072.5045	1090.2146	1127.5335	1154.6624	1206.7531	1232.0909	1245.9278	1284.0845	1318.5239	1337.5249	1374.1228	1410.7994	1487.2609	1491.5514	1498.3507	1512.3481	1889.2685	2236.455	3018.5	3023.3474	3029.1095	3036.2407	3057.5433	3082.864	3102.0931	3126.5774	3144.3625	3504.2821
CCC1CC(C#C)C1=O	CC[C@H]1C[C@@H](C#C)C1=O	
InChI=1S/C8H10O/c1-3-6-5-7(4-2)8(6)9/h1,6-7H,4-5H2,2H3	InChI=1S/C8H10O/c1-3-6-5-7(4-2)8(6)9/h1,6-7H,4-5H2,2H3/t6-,7+/m1/s1
