21
gdb 104529	2.18403	1.3863	1.03506	1.318	84.11	-0.2444	0.0505	0.2949	1255.106	0.180063	-387.03746	-387.027628	-387.026684	-387.072215	36.763	
C	 0.9270895392	 0.0519024748	-1.2510692651	-0.257707
O	 0.0586266476	 0.0904704113	-0.1385282575	-0.280198
C	 0.4536741781	-0.6717204122	 0.9774513476	 0.440262
C	 1.7987788255	-0.2008344434	 1.5774607552	-0.436706
C	 1.8079235564	 1.2085878286	 1.9460457184	 0.326607
C	 1.8064966085	 2.3712479271	 2.2506533124	-0.452538
C	-0.6807014238	-0.7603723282	 2.0258946737	-0.269087
C	-0.4114941482	-2.284396224	 2.1554332093	-0.220976
C	 0.3969345657	-2.2270620345	 0.8294743674	-0.278562
H	 1.1669192016	-0.9790467742	-1.5510225726	 0.104571
H	 0.4035678702	 0.540920951	-2.076145413	 0.127952
H	 1.8659141391	 0.5933156832	-1.0694647549	 0.115484
H	 2.015065364	-0.8156866329	 2.4597558798	 0.131944
H	 2.6083492851	-0.4063685338	 0.8660490146	 0.126635
H	 1.8057431428	 3.3989458902	 2.516951404	 0.194083
H	-0.5808511771	-0.1358817134	 2.9161463581	 0.107739
H	-1.6383052026	-0.5490221518	 1.5454882985	 0.113525
H	 0.2149726393	-2.5305025605	 3.0168144123	 0.103961
H	-1.283809958	-2.9400805015	 2.1710438106	 0.103407
H	-0.2156470587	-2.5002149515	-0.0334069525	 0.107624
H	 1.3434504353	-2.7727204043	 0.7839533837	 0.09198
58.7989	111.2325	128.2492	145.9197	200.1491	256.6699	312.4897	336.583	370.6756	382.2994	452.6929	532.2793	618.681	631.6225	660.6702	735.7999	795.9651	844.9449	888.5725	895.4013	935.2941	968.5416	975.4165	1044.3985	1070.7096	1089.4343	1149.8078	1181.6848	1184.6644	1199.5491	1229.6611	1249.4103	1253.1631	1271.6385	1286.5203	1318.2899	1336.0111	1460.9859	1470.2487	1478.8538	1485.8104	1497.6041	1506.2481	1510.7999	2238.5349	2987.0324	3026.9079	3040.6493	3054.5018	3057.5472	3065.916	3073.8851	3105.2807	3112.9003	3119.5173	3133.9863	3507.3344
COC1(CC#C)CCC1	COC1(CC#C)CCC1	
InChI=1S/C8H12O/c1-3-5-8(9-2)6-4-7-8/h1H,4-7H2,2H3	InChI=1S/C8H12O/c1-3-5-8(9-2)6-4-7-8/h1H,4-7H2,2H3
