19
gdb 122250	2.71591	0.94225	0.77743	2.4134	79.27	-0.2575	0.026	0.2835	1530.1021	0.155205	-422.956085	-422.945956	-422.945012	-422.992132	35.874	
C	-0.0376839368	 1.4664691198	 0.2482420083	-0.385492
C	-0.0295118801	-0.0260049837	-0.0327147737	-0.02357
O	-1.3523583861	-0.5119301091	 0.0884542326	-0.238795
C	-1.4644334074	-1.8871237283	-0.1689648521	-0.128004
C	-2.9205746386	-2.2890020052	-0.0690866209	 0.19819
C	-3.2530886504	-3.659702322	 0.3732895365	-0.214745
O	-3.3917648393	-2.5613465952	 1.2636338143	-0.255426
C	-3.8398867863	-1.5823653974	-0.9294757369	 0.309709
C	-4.5935452912	-1.0067671564	-1.6669708999	-0.440708
H	 0.9735909212	 1.8752446704	 0.1634081579	 0.114146
H	-0.6851469933	 1.9859802652	-0.4635267951	 0.130098
H	-0.4100862236	 1.6635851569	 1.2572528033	 0.131508
H	 0.3563724645	-0.2295702768	-1.0463035097	 0.08633
H	 0.63370941	-0.5511085153	 0.6755588282	 0.087478
H	-1.0891024365	-2.1306119083	-1.1780871194	 0.094386
H	-0.8876078842	-2.4790064756	 0.5599101672	 0.09382
H	-4.1806814905	-4.1109207543	 0.0270748129	 0.125825
H	-2.4452946542	-4.3551876133	 0.6005637645	 0.115627
H	-5.2627276272	-0.4885013115	-2.308468018	 0.199624
49.2058	65.1444	105.5297	133.3355	176.8951	222.7464	241.3816	297.2519	331.6232	403.5109	466.7084	552.1389	578.2904	618.8433	666.5055	732.5307	820.9395	830.1984	903.2593	919.9596	975.9821	1032.7624	1049.6615	1131.7595	1149.493	1162.6673	1173.4127	1188.3785	1244.2561	1287.9313	1297.545	1353.7593	1392.3397	1409.6643	1452.2638	1482.5099	1495.5499	1500.8524	1519.5246	1532.7975	2243.1905	2948.474	2959.7785	2978.0577	2995.2637	3046.6751	3081.749	3120.916	3124.8265	3176.3101	3502.7272
CCOCC1(CO1)C#C	CCOC[C@]1(CO1)C#C	
InChI=1S/C7H10O2/c1-3-7(6-9-7)5-8-4-2/h1H,4-6H2,2H3	InChI=1S/C7H10O2/c1-3-7(6-9-7)5-8-4-2/h1H,4-6H2,2H3/t7-/m0/s1
