20
gdb 84241	2.45165	1.96583	1.37465	1.0152	85.84	-0.2062	-0.0335	0.1727	1010.891	0.170336	-365.897906	-365.8898	-365.888856	-365.929889	32.549	
C	 0.016585295	 1.5237721111	-0.051481541	-0.407859
C	-0.024794794	-0.0081272276	-0.0318459785	-0.067934
C	 0.8541073616	-0.5954525418	-1.1293691507	-0.123356
C	 1.5690258388	-1.6272896099	-0.6301051316	 0.00336
C	 2.9147224886	-1.2370819043	-0.0205691274	-0.170303
N	 2.1377817526	-1.1040316786	 1.2995608854	-0.191931
C	 1.0843016166	-2.0146557324	 0.7686905509	-0.131726
C	 0.6225675729	-0.6927929224	 1.204832419	 0.333247
C	 0.0749795242	-0.4119918301	 2.5803458169	-0.474041
H	 1.0474936587	 1.8924277456	-0.0347738839	 0.12221
H	-0.4697083143	 1.9153360674	-0.950266494	 0.120669
H	-0.5035361745	 1.9378150968	 0.8180112474	 0.120288
H	-1.0804644382	-0.3227468663	-0.0358659856	 0.084886
H	 1.2841783077	 0.0772403368	-1.8685008731	 0.090634
H	 3.6512169279	-2.0290516977	 0.1496479342	 0.1146
H	 3.4000223892	-0.3335045291	-0.4001551761	 0.108652
H	 0.8859797228	-2.9971750864	 1.1851119891	 0.089744
H	 0.5209705354	-1.0728865841	 3.3258975252	 0.134699
H	 0.2753595908	 0.6211365111	 2.8827852285	 0.127107
H	-1.0115106319	-0.5589373483	 2.5880930555	 0.117054
125.4239	188.5556	219.1299	243.6524	281.8934	342.1599	374.0017	456.0976	532.4672	535.6082	591.9726	672.3547	728.5499	747.5882	794.3157	867.8447	886.336	911.3682	945.5879	1010.3419	1019.6832	1028.9196	1038.5469	1060.4513	1072.3885	1110.2042	1113.0532	1122.725	1198.2694	1211.3055	1262.3111	1269.7918	1295.646	1336.2046	1378.0608	1407.2497	1412.7911	1485.1554	1490.3416	1498.1033	1499.2784	1509.0238	1578.0278	2971.9947	3032.1384	3034.7839	3038.7586	3091.1364	3102.8406	3105.3542	3107.5715	3130.5591	3143.7048	3157.0772
CC1C=C2CN3C2C13C	C[C@H]1[CH][C]2CN3[C@H]2[C@]13C	
InChI=1S/C8H11N/c1-5-3-6-4-9-7(6)8(5,9)2/h3,5,7H,4H2,1-2H3	InChI=1S/C8H11N/c1-5-3-6-4-9-7(6)8(5,9)2/h3,5,7H,4H2,1-2H3/t5-,7+,8-,9?/m0/s1
