17
gdb 75823	2.6287	1.6344	1.23523	3.2413	67.54	-0.2692	-0.0054	0.2638	1032.4417	0.135456	-458.989558	-458.981394	-458.98045	-459.022155	31.147	
C	-0.2942755177	 1.501392063	 0.0279840914	-0.49243
C	 0.0256679249	 0.0270135424	-5.163*^-7	 0.319021
C	-0.6846940847	-0.9396682468	 0.9331906435	-0.35171
C	 0.7822496194	-0.6779247401	 1.0974111184	 0.041836
O	 1.6475594153	-1.6698101204	 0.5534982892	-0.211018
C	 1.4740084026	-1.7324050564	-0.7884404738	 0.408585
O	 1.9371896558	-2.592862499	-1.4813772348	-0.348661
C	 0.5622698853	-0.5901018048	-1.272954789	-0.096803
O	-0.4291383766	-1.0971641046	-2.137309916	-0.430037
H	 0.551433522	 2.0978380492	-0.3321900497	 0.123697
H	-1.1575966789	 1.7225863041	-0.6082562949	 0.140729
H	-0.5336338547	 1.8363489865	 1.0419535262	 0.119691
H	-1.3584658083	-0.505526207	 1.6637231785	 0.124942
H	-0.9891865964	-1.9075954327	 0.5497315692	 0.139797
H	 1.2116125399	-0.1900529726	 1.9626718268	 0.119082
H	 1.1979926255	 0.1469582071	-1.7929973761	 0.095561
H	 0.0020816466	-1.7740096981	-2.6767779328	 0.297718
81.6736	192.2861	200.3824	232.1455	270.3479	297.5736	396.8206	450.585	496.3886	511.2621	565.5542	673.7036	715.7123	752.3086	855.4336	889.8951	912.633	970.6503	972.2624	1028.0526	1046.5317	1099.4475	1113.4936	1122.3037	1129.9383	1181.9176	1226.545	1288.3198	1319.0117	1346.9645	1388.1183	1420.4426	1441.5068	1488.0169	1488.2119	1502.1702	1875.8009	2958.3488	3029.9441	3095.6228	3104.6001	3136.4437	3203.0643	3227.0112	3758.9829
CC12CC1OC(=O)C2O	C[C@]12C[C@H]1OC(=O)[C@H]2O	
InChI=1S/C6H8O3/c1-6-2-3(6)9-5(8)4(6)7/h3-4,7H,2H2,1H3	InChI=1S/C6H8O3/c1-6-2-3(6)9-5(8)4(6)7/h3-4,7H,2H2,1H3/t3-,4-,6+/m1/s1
