16
gdb 50131	4.36456	1.0411	0.96047	1.791	71.28	-0.2562	-0.0515	0.2047	1201.7727	0.122409	-437.851458	-437.843128	-437.842183	-437.88527	29.758	
O	-0.6814459816	 0.8337128708	-0.4345865367	-0.235301
C	 0.2207780877	 0.9571752897	 0.3545846454	 0.148497
C	 1.3413356353	 1.9603553236	 0.2199355029	-0.030099
C	 1.2755057918	 3.0244068365	-0.8951238387	-0.34231
C	 1.2240525925	 4.0621874723	 0.2192911273	 0.263283
C	 0.1061121185	 3.7939256707	 1.1571183007	-0.285309
N	 1.3245128093	 2.9983989342	 1.343481875	-0.192532
C	 2.0571790224	 5.2788720585	 0.2977360445	 0.070895
O	 2.6643412769	 5.7349122162	-0.6396258106	-0.253449
H	 0.2704158778	 0.3435724642	 1.2815960931	 0.095634
H	 2.2993656336	 1.4345669454	 0.2769503748	 0.115481
H	 2.1863045472	 3.0918720514	-1.4891936204	 0.139519
H	 0.4069502471	 2.9756541873	-1.5539011762	 0.135909
H	-0.0506184979	 4.4978760191	 1.9688549039	 0.138466
H	-0.7990617689	 3.3364673365	 0.7644493679	 0.147258
H	 2.0912311583	 5.7438450735	 1.3079613771	 0.084058
52.9251	89.8705	134.7583	185.8684	263.6753	275.103	387.878	458.5859	519.2918	626.9587	669.6661	743.1341	757.3478	829.07	864.5288	944.7572	965.5682	987.7969	1025.7818	1067.6348	1086.8646	1119.2731	1141.57	1157.758	1240.5419	1244.1977	1302.1404	1336.6489	1379.5259	1415.0208	1428.4904	1487.6353	1500.482	1810.7675	1823.4778	2889.8146	2891.0284	3066.3175	3091.4046	3111.581	3152.545	3204.2276
O=CC1CC2(CN12)C=O	O=C[C@H]1C[C@]2(CN12)C=O	
InChI=1S/C6H7NO2/c8-2-5-1-6(4-9)3-7(5)6/h2,4-5H,1,3H2	InChI=1S/C6H7NO2/c8-2-5-1-6(4-9)3-7(5)6/h2,4-5H,1,3H2/t5-,6+,7?/m1/s1
