20
gdb 42337	4.00093	0.99124	0.86121	3.7238	82.79	-0.2318	0.0287	0.2605	1395.4956	0.171754	-403.1549	-403.145881	-403.144937	-403.190247	32.263	
O	-0.0316045802	 0.0159688656	 0.3580867785	-0.404921
C	-0.0231988619	 1.2299178883	 0.1984528357	 0.402429
C	 1.2278898084	 2.0469010537	 0.2687933112	-0.135474
C	 2.3049379194	 1.560429599	 1.2207120595	-0.2467
C	 2.4962239685	 1.3939662686	-0.2513071788	-0.246828
N	-1.1681897976	 1.9156225576	-0.0473022125	-0.087709
C	-1.5034256762	 3.2916876199	-0.4273096668	-0.169731
C	-2.9718653736	 2.821718687	-0.6424038218	-0.24502
C	-2.5116758688	 1.3823421677	-0.2660153816	-0.157969
H	 1.1288222211	 3.1180754585	 0.1352216818	 0.082979
H	 2.8842115603	 2.3121692135	 1.7444721916	 0.110251
H	 2.0568998231	 0.6728726048	 1.7906500219	 0.139495
H	 2.3766879742	 0.395940555	-0.6561010124	 0.138231
H	 3.2098385218	 2.0286745574	-0.7641249769	 0.110209
H	-1.3561917056	 4.0286687745	 0.3703673684	 0.115246
H	-0.9921656543	 3.6450538102	-1.3304553628	 0.115571
H	-3.6903716754	 3.2635181189	 0.04830982	 0.118287
H	-3.3413182877	 2.934317239	-1.6617726883	 0.118184
H	-2.5595841392	 0.6410011395	-1.0703912793	 0.122235
H	-2.9675402261	 0.9514359015	 0.6309996226	 0.121235
27.3077	86.1388	113.1617	140.4449	145.8572	273.0504	288.6132	366.2616	535.639	713.5455	740.3334	766.5981	798.9732	832.2158	848.3062	863.1868	909.1847	918.8183	936.078	966.0537	1048.3969	1069.615	1094.4151	1105.0415	1123.4265	1138.6565	1143.456	1196.6107	1199.3275	1209.4899	1226.6728	1230.0275	1271.9233	1299.974	1333.3458	1364.0125	1450.9397	1469.3019	1486.7822	1494.7347	1512.203	1534.9033	1740.1688	3020.951	3042.69	3060.8515	3082.2988	3094.3263	3140.5184	3142.5806	3148.5183	3172.4518	3229.3883	3243.403
O=C(C1CC1)N1CCC1	O=C(C1CC1)N1CCC1	
InChI=1S/C7H11NO/c9-7(6-2-3-6)8-4-1-5-8/h6H,1-5H2	InChI=1S/C7H11NO/c9-7(6-2-3-6)8-4-1-5-8/h6H,1-5H2
