20
gdb 85518	2.47428	1.54819	1.09833	1.6122	78.49	-0.2339	-0.0189	0.215	1145.7398	0.171389	-403.153905	-403.145564	-403.14462	-403.18707	32.463	
C	-0.191657162	 1.5315736717	 0.0738621044	-0.385165
C	 0.0364760169	 0.0201853876	 0.0797227556	 0.040696
C	 0.5077075965	-0.4821615269	-1.2987171946	-0.328226
C	 1.0335911137	-1.9152294237	-1.3246268562	 0.374313
O	 1.2388405845	-2.4943320494	-2.364818894	-0.311826
C	 1.2746524661	-2.586385462	 0.023055451	-0.329995
C	 1.553081553	-1.6405557636	 1.1763186637	-0.013273
C	 2.3629026404	-0.4036154577	 0.986938184	-0.26584
N	 0.9160491287	-0.3266127285	 1.2080079955	-0.089879
H	 0.7464773393	 2.0616601175	-0.1252595677	 0.11727
H	-0.9110544238	 1.8155912371	-0.7006295818	 0.113765
H	-0.5695693461	 1.8631315888	 1.0440222694	 0.127334
H	-0.92030372	-0.4693746125	 0.3079714898	 0.087337
H	-0.3011594311	-0.4085931893	-2.0331515722	 0.132602
H	 1.3114955671	 0.1564216007	-1.6892852158	 0.13381
H	 0.3602049932	-3.1570775112	 0.2464181612	 0.13553
H	 2.0709593311	-3.3269427219	-0.0987378119	 0.134562
H	 1.5954068314	-2.1320200336	 2.1471567665	 0.094774
H	 2.9748067013	-0.0170836192	 1.797162697	 0.118569
H	 2.7661589197	-0.2086104638	-0.003931314	 0.113638
49.9982	126.4913	229.9014	257.9206	286.3399	337.5715	423.6146	460.921	467.8306	493.4909	550.0902	633.6104	710.0362	754.4485	825.7911	867.5596	890.5494	926.9089	937.3035	986.3788	1040.6112	1081.9195	1088.9394	1109.4502	1112.6894	1144.1244	1171.1917	1207.1155	1218.0781	1244.8899	1288.5387	1310.8981	1329.8914	1368.505	1376.7952	1407.2112	1415.2967	1445.2421	1450.7061	1487.8481	1498.8666	1519.5582	1814.2387	3004.1216	3008.8095	3030.681	3036.4363	3081.0546	3085.4472	3103.3822	3108.0714	3111.6894	3124.5395	3187.6458
CC1CC(=O)CC2CN12	C[C@H]1CC(=O)C[C@H]2CN12	
InChI=1S/C7H11NO/c1-5-2-7(9)3-6-4-8(5)6/h5-6H,2-4H2,1H3	InChI=1S/C7H11NO/c1-5-2-7(9)3-6-4-8(5)6/h5-6H,2-4H2,1H3/t5-,6-,8?/m0/s1
