17
gdb 132546	3.0512	1.30653	0.92525	3.7522	78.11	-0.2452	-0.0229	0.2223	1214.3007	0.135945	-426.055264	-426.047099	-426.046155	-426.087889	30.778	
C	 0.005769101	 1.5140015276	-0.0210574679	-0.503349
C	 0.0098543925	 0.0082319087	 0.0088480344	 0.2004
C	-0.0068227094	-0.7251569627	-1.173192575	-0.06165
N	-0.0046531885	-2.0626159172	-1.2451048312	-0.332364
C	 0.0147885062	-2.7025781977	-0.1023508457	 0.343995
F	 0.0170420917	-4.0337133258	-0.1669838196	-0.076121
C	 0.0329248234	-2.1035344535	 1.1532237477	-0.350764
C	 0.0305504594	-0.7148738271	 1.2195986583	 0.256175
C	 0.0496879402	-0.0099482177	 2.549775315	-0.495529
H	 0.8926382825	 1.9334220307	 0.4684938673	 0.131763
H	-0.0115656351	 1.8827508555	-1.0498414977	 0.129575
H	-0.8669653741	 1.9292341906	 0.4966449129	 0.131756
H	-0.0230377763	-0.2030144048	-2.1276245438	 0.108593
H	 0.0483697651	-2.7168841425	 2.0464829529	 0.108764
H	 0.9290309953	 0.6376500847	 2.6430727137	 0.139272
H	-0.8287463885	 0.6343915126	 2.6701508119	 0.139256
H	 0.0637662848	-0.7229640214	 3.3770086168	 0.130231
134.8867	145.1205	179.9155	213.8538	289.7805	328.7397	350.1466	454.4917	472.1076	531.6933	552.608	622.8084	750.7707	765.581	771.885	883.3777	950.1013	975.3171	1022.3649	1028.3347	1047.513	1075.8055	1153.2444	1224.2814	1299.7221	1322.5994	1335.7586	1405.8099	1417.8102	1424.127	1477.1362	1488.9915	1492.4022	1495.9908	1524.1662	1613.3902	1646.089	3026.0719	3032.0187	3074.6619	3083.6357	3114.8198	3124.3413	3149.0803	3199.5309
CC1=CN=C(F)C=C1C	Cc1cnc(F)cc1C	
InChI=1S/C7H8FN/c1-5-3-7(8)9-4-6(5)2/h3-4H,1-2H3	InChI=1S/C7H8FN/c1-5-3-7(8)9-4-6(5)2/h3-4H,1-2H3
