13
gdb 128078	4.66196	1.05411	0.86442	4.0844	62.25	-0.2764	-0.0905	0.1859	1243.0474	0.088356	-486.031442	-486.023221	-486.022277	-486.065632	27.732	
C	 0.0269256618	 1.4401186876	 0.0618954888	-0.339026
N	-0.0770105612	-0.00653581	 0.1076829095	-0.328702
C	-1.2354753966	-0.6578410928	-0.1619718795	 0.369567
O	-2.2913299422	-0.1406476937	-0.462989394	-0.353212
C	-1.115688202	-2.1511987499	-0.0562343322	 0.336539
N	-0.0343642446	-2.8059735498	 0.258199454	-0.152579
O	-0.3831730996	-4.1011672681	 0.2319011968	-0.14137
N	-1.7495192038	-4.1837410538	-0.1200241088	 0.056334
N	-2.1698649005	-3.0180200119	-0.2877063886	-0.174519
H	 0.7633046763	 1.7574456551	-0.6836917974	 0.138383
H	-0.9522810823	 1.832693909	-0.2126637025	 0.178465
H	 0.315531715	 1.8440621574	 1.0377852289	 0.138391
H	 0.7345509399	-0.5555422391	 0.3458848449	 0.271729
49.872	75.5958	114.6599	155.2097	246.5081	312.0951	387.6854	492.5017	513.8351	605.8523	668.0922	692.7246	816.5837	820.3298	981.2115	1016.1105	1053.7752	1107.6549	1153.1798	1178.3233	1224.8402	1333.9065	1444.2538	1480.952	1498.1465	1500.4773	1558.5896	1583.3075	1798.8034	3036.6455	3092.6964	3160.3005	3629.2812
CNC(=O)C1=NON=N1	CNC(=O)c1nonn1	
InChI=1S/C3H4N4O2/c1-4-3(8)2-5-7-9-6-2/h1H3,(H,4,8)	InChI=1S/C3H4N4O2/c1-4-3(8)2-5-7-9-6-2/h1H3,(H,4,8)
