16
gdb 15543	2.85461	2.13301	1.48168	1.6671	70.64	-0.2503	0.012	0.2623	873.1817	0.130311	-346.576534	-346.568979	-346.568035	-346.60824	29.037	
O	 0.1192186885	 1.3987981731	-0.1934538995	-0.428623
C	 0.0316968696	 0.0026171223	-0.0327114133	 0.101326
C	 0.6939341987	-0.5559075093	 1.2092720129	-0.103147
C	-0.0156582084	-1.5345205921	 1.7636774713	-0.054189
C	-1.2954801502	-1.8122939557	 1.0102825281	-0.268446
C	-1.435306848	-0.5701660419	 0.0755703043	-0.219596
C	-2.3281373786	 0.4296411193	 0.6498415459	 0.328274
C	-3.0351235523	 1.2723121486	 1.1381778027	-0.474224
H	-0.4686154695	 1.8013979437	 0.4593370847	 0.281059
H	 0.5089241395	-0.4102112446	-0.9311821955	 0.096079
H	 1.6605794027	-0.1933840679	 1.5390946994	 0.101836
H	 0.2785190674	-2.1134115867	 2.6322086521	 0.098916
H	-1.2085033702	-2.7305643782	 0.4143524668	 0.112258
H	-2.1648988968	-1.9396740256	 1.6616756652	 0.119395
H	-1.8113424197	-0.8502947035	-0.9128729041	 0.107287
H	-3.6848859827	 1.9998590586	 1.5583899491	 0.201797
80.5763	155.1446	208.2022	302.2172	360.7519	392.9237	454.835	499.5635	585.0344	621.0728	647.3847	688.2532	759.9742	798.9763	824.1276	868.7188	952.7227	978.8192	1002.6187	1021.6621	1078.6488	1098.8611	1143.8787	1186.4895	1198.7313	1272.1546	1296.2821	1324.6497	1343.2164	1365.4515	1441.4897	1487.4973	1687.5031	2225.404	3019.3065	3021.232	3065.6522	3081.2223	3186.825	3213.9249	3501.9426	3756.1168
OC1C=CCC1C#C	O[C@H]1C=CC[C@H]1C#C	
InChI=1S/C7H8O/c1-2-6-4-3-5-7(6)8/h1,3,5-8H,4H2	InChI=1S/C7H8O/c1-2-6-4-3-5-7(6)8/h1,3,5-8H,4H2/t6-,7+/m1/s1
