17
gdb 17699	5.05654	2.02963	1.9799	1.65	70.85	-0.214	0.0833	0.2973	759.4809	0.143871	-326.634109	-326.62804	-326.627096	-326.663852	25.049	
C	 0.0564731761	 1.5496883019	-0.0314351614	-0.529804
C	-0.0212160764	 0.058667372	-0.0018015871	 0.339473
C	 0.4350053428	-1.0282180084	-0.9685630349	-0.141879
C	 0.9162290879	-1.0049184472	 0.490979681	-0.078894
N	-0.1172176447	-1.8026479269	 1.2193538831	-0.153906
C	-0.4262963767	-2.9523270741	 0.2873900043	-0.178752
C	-0.8237758657	-1.9045869543	-0.7693436125	-0.073612
C	-1.1265419216	-0.9418413701	 0.4288468011	-0.07029
H	 1.0428893011	 1.8791517062	-0.375640085	 0.123338
H	-0.6901996931	 1.9782530903	-0.7098254222	 0.121327
H	-0.1082502677	 1.9774488201	 0.9641157568	 0.12685
H	 1.1001538948	-0.9557298657	-1.8186718233	 0.085251
H	 1.9528337665	-0.9532154656	 0.7994200324	 0.08691
H	 0.4091324175	-3.6297883636	 0.0854718016	 0.099156
H	-1.2800364507	-3.5129266387	 0.6807291757	 0.103783
H	-1.4881167039	-2.0894744141	-1.6129383869	 0.066409
H	-2.1005647962	-0.7395995417	 0.8718241373	 0.074638
204.2165	224.1119	250.7888	440.6325	574.2681	576.9693	725.9571	774.3618	805.6164	820.0921	831.3757	856.2989	876.1165	889.0532	915.0119	945.571	963.0475	1016.4556	1033.2339	1047.4346	1060.8425	1108.3581	1136.7005	1155.549	1164.2138	1191.5517	1208.4948	1220.743	1241.3756	1258.4607	1295.832	1411.1623	1461.2127	1484.5561	1496.5205	1498.2831	3022.1633	3045.109	3083.1467	3092.6401	3104.1415	3116.1517	3127.9288	3190.133	3206.3235
CC12C3C1N1CC3C21	C[C@@]12[C@H]3[C@@H]1N1C[C@H]3[C@H]21	
InChI=1S/C7H9N/c1-7-4-3-2-8(5(3)7)6(4)7/h3-6H,2H2,1H3	InChI=1S/C7H9N/c1-7-4-3-2-8(5(3)7)6(4)7/h3-6H,2H2,1H3/t3-,4-,5-,6+,7+/m1/s1
