19
gdb 63824	3.12468	1.52763	1.35769	0.658	73.84	-0.2484	0.0707	0.3191	1007.612	0.15811	-422.961959	-422.954037	-422.953093	-422.993755	32.202	
C	-0.205215959	 1.6074030274	-0.0232181927	-0.462265
C	 0.0212345115	 0.1044690337	 0.0019633463	 0.41703
O	-1.2101793096	-0.5973966419	-0.1482233592	-0.483364
C	 1.1430298402	-0.4906796658	-0.9284444763	-0.301881
C	 1.762331951	-1.2340340504	 0.29090199	-0.056722
C	 2.8847854412	-0.4935846212	 1.0623353017	 0.010344
O	 2.6477513089	 0.9125439514	 0.944601744	-0.236123
C	 1.897628801	 0.1815293348	 1.9271626807	-0.001518
C	 0.7227824948	-0.5483050179	 1.2325366687	-0.083697
H	 0.7300226497	 2.1500179522	 0.1218580632	 0.144589
H	-0.6274731638	 1.9100320309	-0.990554199	 0.099165
H	-0.9156015597	 1.8961964027	 0.7581103793	 0.11677
H	-1.6002359295	-0.3226592658	-0.9857547932	 0.271752
H	 0.732970634	-1.1562236289	-1.6913236658	 0.093363
H	 1.8000168132	 0.2477557681	-1.39093931	 0.107126
H	 1.8545895652	-2.3182009895	 0.2507174127	 0.076928
H	 3.9082479091	-0.8010448117	 1.2473514935	 0.102829
H	 1.9642097119	 0.5415350845	 2.9478301015	 0.104805
H	 0.07832374	-1.1277029927	 1.8924025247	 0.080868
136.9887	200.8112	245.8955	278.2924	313.6652	346.1759	374.767	387.7409	499.1144	597.088	633.2312	740.7402	780.3717	801.7513	827.07	862.2611	895.9458	903.9862	924.3302	955.9917	959.796	990.0891	1014.0995	1047.6787	1090.8796	1101.83	1125.6148	1175.0333	1200.3615	1215.2373	1231.6532	1258.327	1260.6347	1274.603	1302.8812	1364.1962	1382.6769	1402.3559	1450.4731	1487.53	1504.0561	3021.6911	3067.5999	3089.1134	3120.921	3129.1005	3134.4419	3144.2249	3170.0197	3185.1468	3793.645
CC1(O)CC2C3OC3C12	C[C@@]1(O)C[C@H]2[C@H]3O[C@H]3[C@@H]12	
InChI=1S/C7H10O2/c1-7(8)2-3-4(7)6-5(3)9-6/h3-6,8H,2H2,1H3	InChI=1S/C7H10O2/c1-7(8)2-3-4(7)6-5(3)9-6/h3-6,8H,2H2,1H3/t3-,4+,5-,6+,7-/m1/s1
