23
gdb 63935	2.26204	1.60787	1.39109	1.6386	84.86	-0.2342	0.0761	0.3103	1114.3512	0.20419	-388.276165	-388.266722	-388.265778	-388.309726	37.127	
C	 0.2017375872	 1.4580518044	-0.172785452	-0.43753
C	 0.0243396101	-0.0389133793	 0.0432266083	 0.379801
C	-1.4259801177	-0.4488055006	-0.2122863068	-0.428407
O	 0.8962156834	-0.8136492362	-0.8406665032	-0.349624
C	 1.4149050185	-1.5995024787	 0.2481643247	 0.082532
C	 2.7868802975	-1.0914039377	 0.7317523339	-0.22911
C	 2.0620718826	-0.1264469028	 1.7191281396	-0.29183
C	 0.6744154651	-0.7145022662	 1.298614144	 0.254161
C	-0.1961656684	-1.2132979023	 2.4327745309	-0.502908
H	 1.2510767923	 1.753913642	-0.126084456	 0.12135
H	-0.1778921566	 1.738715986	-1.1607428983	 0.120911
H	-0.3574299763	 2.0283680022	 0.5772143678	 0.113155
H	-1.7034743018	-0.1723747783	-1.2342736424	 0.1202
H	-1.5583981139	-1.5288786375	-0.1119568432	 0.118069
H	-2.1133467107	 0.0526557858	 0.4775425255	 0.110616
H	 1.2610694791	-2.6734293729	 0.1005838311	 0.065162
H	 3.3864426988	-1.8550440589	 1.2353079206	 0.096311
H	 3.3862913335	-0.6310611847	-0.05659068	 0.107296
H	 2.292172981	-0.3280032493	 2.7684478534	 0.098594
H	 2.2083749866	 0.9409446111	 1.5471389667	 0.100012
H	-0.567548512	-0.3756667752	 3.0364567682	 0.117654
H	-1.0618855817	-1.7825458165	 2.0844142912	 0.118849
H	 0.3790790033	-1.8623425045	 3.1022444259	 0.114734
65.6645	169.3267	193.2065	196.1334	252.2326	290.9707	323.9458	345.4708	369.3183	397.8851	431.9693	485.1353	612.7791	621.1772	733.5187	766.1749	847.8045	863.8482	887.8191	906.9249	926.5575	952.3274	975.0745	994.1354	999.3206	1031.1369	1108.1641	1150.9293	1156.2124	1175.4031	1204.5424	1211.3064	1232.9171	1243.1745	1264.8983	1280.3596	1327.1513	1343.4971	1397.1497	1407.7368	1415.9437	1463.7414	1470.1837	1478.7685	1484.9341	1492.1358	1499.8798	1501.1317	1518.7148	3023.4595	3033.7226	3039.9812	3046.7382	3059.6091	3069.4067	3081.1251	3098.9209	3107.7701	3108.8733	3110.4469	3120.3417	3125.5366	3134.2171
CC1(C)OC2CCC12C	CC1(C)O[C@H]2CC[C@@]12C	
InChI=1S/C8H14O/c1-7(2)8(3)5-4-6(8)9-7/h6H,4-5H2,1-3H3	InChI=1S/C8H14O/c1-7(2)8(3)5-4-6(8)9-7/h6H,4-5H2,1-3H3/t6-,8+/m0/s1
