16
gdb 24034	4.32278	1.04687	0.86015	3.8719	82.12	-0.2572	-0.0155	0.2416	1279.9184	0.126888	-363.69794	-363.690373	-363.689428	-363.731488	28.27	
N	-0.4540946149	-0.6394901922	 1.4230853699	-0.312963
C	-0.2294840998	 0.2126227073	 0.6759155132	 0.270729
C	 0.0529000666	 1.2996781943	-0.2598987538	-0.444864
C	 1.4563989343	 1.8795405131	-0.1446824047	 0.30853
C	 2.1841068382	 1.8176614219	 1.0436953406	-0.184617
C	 3.4481531822	 2.3974722734	 1.1240314676	-0.097101
C	 3.9955142571	 3.0446173095	 0.0197834377	-0.114808
C	 3.2733992356	 3.1068544089	-1.1699233114	-0.093663
C	 2.01183729	 2.5254837794	-1.2511899659	-0.187137
H	-0.1179205563	 0.9293792257	-1.2768254211	 0.161669
H	-0.6965036522	 2.0853037664	-0.0936853434	 0.169123
H	 1.7666975532	 1.3067201734	 1.9048707456	 0.122733
H	 4.0055725209	 2.3389697672	 2.0528697411	 0.105236
H	 4.9809165693	 3.4935210673	 0.0833385141	 0.102125
H	 3.6936570288	 3.6033885626	-2.0381573292	 0.101994
H	 1.4551524069	 2.5728125218	-2.1827440102	 0.093015
18.3387	121.996	208.0333	320.2013	375.4462	413.8092	441.8234	474.4465	625.2754	630.9488	715.189	751.8979	811.0064	868.301	907.4607	953.8815	959.6653	965.3495	997.1313	1015.2708	1053.4357	1107.8994	1184.3594	1205.3491	1209.1119	1229.6497	1299.9005	1348.5584	1361.7865	1457.7598	1484.623	1529.3627	1627.7699	1645.4142	2365.2475	3024.345	3070.0742	3163.8134	3175.1518	3184.1968	3192.453	3201.593
N#CCC1=CC=CC=C1	N#CCc1ccccc1	
InChI=1S/C8H7N/c9-7-6-8-4-2-1-3-5-8/h1-5H,6H2	InChI=1S/C8H7N/c9-7-6-8-4-2-1-3-5-8/h1-5H,6H2
