17
gdb 48309	2.15742	1.94281	1.18468	2.3301	79.92	-0.2492	-0.0344	0.2149	1044.9399	0.134701	-384.605712	-384.597711	-384.596766	-384.638221	30.892	
O	-0.1699741513	 0.0636594716	-0.1924923186	-0.247267
C	 0.0081828074	 1.2047861327	 0.1458840443	 0.078016
C	 1.3233231591	 1.9620965347	 0.0141270742	 0.113263
C	 1.6035692901	 2.5599074394	 1.3086814019	 0.209245
C	 1.7523328332	 3.012816593	 2.4137602285	-0.410844
C	 2.4931263375	 1.3179237684	-0.8117885168	-0.071138
C	 1.654543356	 1.5565046911	-2.1040718925	-0.246174
C	 1.52743499	 2.867582444	-1.279598597	-0.085414
C	 3.05579196	 2.7569558398	-1.0136401327	-0.23899
H	-0.8010427289	 1.8024289405	 0.6205986703	 0.089179
H	 1.9094218619	 3.4222865953	 3.381247326	 0.19711
H	 3.0388623115	 0.4190198233	-0.5277833685	 0.09163
H	 2.2338274858	 1.6462331247	-3.0252686884	 0.09733
H	 0.7663233769	 0.9452744139	-2.2485181532	 0.123387
H	 0.9516791239	 3.7634939791	-1.5146330254	 0.087073
H	 3.4483751921	 3.2698343476	-0.1352424716	 0.115865
H	 3.6948946647	 2.8976456108	-1.8880398505	 0.097727
93.9213	145.2846	165.1419	205.2823	283.829	422.2316	490.5806	512.1647	530.3622	593.1365	621.3651	660.7739	696.1766	793.606	809.138	873.4336	902.1527	906.0054	992.7286	1010.5079	1020.7953	1051.9444	1075.54	1096.8137	1112.5719	1157.392	1183.6506	1192.5683	1198.7307	1232.9194	1243.906	1254.3452	1420.7627	1504.1223	1541.2751	1821.6673	2220.403	2890.0372	3071.3336	3081.4245	3110.4249	3127.1143	3143.9605	3166.0346	3499.3186
O=CC1(C#C)C2CC1C2	O=C[C@@]1(C#C)[C@H]2C[C@@H]1C2	
InChI=1S/C8H8O/c1-2-8(5-9)6-3-7(8)4-6/h1,5-7H,3-4H2	InChI=1S/C8H8O/c1-2-8(5-9)6-3-7(8)4-6/h1,5-7H,3-4H2/t6-,7+,8-
