22
gdb 100333	2.38278	1.11478	0.93689	4.8312	81.91	-0.2816	0.0327	0.3143	1352.5323	0.191839	-404.368882	-404.357899	-404.356955	-404.405018	39.737	
C	-0.1357726731	 1.544050289	 0.135317973	-0.409203
C	-0.0104849142	 0.0214417603	 0.014671451	-0.1886
C	 0.6999899317	-0.520329349	-1.2501290352	 0.237328
C	 0.6379602731	-2.057549915	-1.2391014846	-0.424646
C	 0.034797639	 0.0067675121	-2.5339467747	-0.096194
O	-1.3432175734	-0.3247212159	-2.4965387758	-0.424511
C	 2.1840698928	-0.0573974876	-1.3096325628	-0.373631
C	 2.9763567477	-0.4881017345	-0.160167151	 0.273748
N	 3.5960986046	-0.8300980543	 0.7536393656	-0.321468
H	 0.8359215759	 2.0494156497	 0.1283283538	 0.114275
H	-0.746057425	 1.9647558476	-0.6693103448	 0.122783
H	-0.6219321059	 1.8037100436	 1.0804961628	 0.121501
H	 0.5201281862	-0.3690670465	 0.8908079685	 0.116243
H	-1.0129265211	-0.4157519993	 0.037240187	 0.118148
H	-0.4009842243	-2.3893437596	-1.2941184608	 0.137311
H	 1.1742010256	-2.4814482556	-2.0959561681	 0.105281
H	 1.086541161	-2.4629622404	-0.3275876338	 0.134509
H	 0.1757948031	 1.0960601589	-2.6114105951	 0.087351
H	 0.5284605498	-0.4500875881	-3.4073096645	 0.085493
H	-1.7494598346	-0.0296914411	-3.3162522182	 0.292095
H	 2.6586167893	-0.4532771114	-2.2157274438	 0.144966
H	 2.2465845817	 1.034524817	-1.3750597787	 0.147221
43.7294	86.7436	130.7215	143.0718	223.0157	231.5426	243.5056	249.5191	299.1766	327.6758	346.8142	384.6097	400.6189	441.8875	477.6747	612.6114	728.9843	780.9017	873.8326	899.1913	939.232	965.951	976.1071	1020.8014	1057.8572	1085.089	1091.5382	1168.3765	1185.8812	1211.4102	1242.9567	1272.6051	1311.649	1321.426	1355.244	1385.4249	1408.2989	1414.9521	1456.4498	1465.3271	1483.0751	1495.6556	1502.4674	1504.0091	1508.7853	1526.0827	2358.5935	2962.9998	2994.5912	3034.1578	3036.5263	3040.6509	3043.8593	3077.3756	3084.9174	3102.8267	3104.8175	3112.3139	3133.3329	3838.1437
CCC(C)(CO)CC#N	CC[C@@](C)(CO)CC#N	
InChI=1S/C7H13NO/c1-3-7(2,6-9)4-5-8/h9H,3-4,6H2,1-2H3	InChI=1S/C7H13NO/c1-3-7(2,6-9)4-5-8/h9H,3-4,6H2,1-2H3/t7-/m1/s1
