18
gdb 117457	5.51589	0.65834	0.61965	6.973	72.35	-0.2619	0.0019	0.2638	1788.246	0.145621	-476.273677	-476.263501	-476.262557	-476.311112	34.422	
C	-0.0660981738	 1.1731163959	-0.4374483602	-0.375186
C	-0.0789308198	-0.1184425368	 0.3807803574	-0.147599
N	-1.4277582345	-0.6116897661	 0.6309060568	-0.316683
C	-1.8901412593	-1.7887783723	 0.1370955607	 0.418491
O	-1.2284839845	-2.5701953344	-0.5204350253	-0.361529
C	-3.3739760045	-2.0692349715	 0.4215319957	-0.219722
O	-3.5979766021	-3.453343133	 0.6122726419	-0.165592
C	-3.5881413318	-4.2356742168	-0.4971886735	 0.192587
O	-3.6829266943	-5.4218496818	-0.4303641793	-0.275351
H	 0.962549881	 1.5125212267	-0.5921431963	 0.128448
H	-0.5283859598	 1.0188044579	-1.4166289321	 0.132782
H	-0.6082146977	 1.9765895479	 0.0734741708	 0.113872
H	 0.4396276548	-0.9212013528	-0.1468259537	 0.158732
H	 0.4316055761	 0.032727108	 1.3395275434	 0.11537
H	-2.0450126624	-0.0454770053	 1.1911986892	 0.247806
H	-3.7262024237	-1.5735736608	 1.3294253956	 0.128611
H	-3.9606080066	-1.6850771821	-0.4251162721	 0.136468
H	-3.5182819868	-3.6552154526	-1.432846379	 0.088496
22.6244	42.4312	76.7667	103.6294	189.4782	204.2737	277.148	288.2895	346.5729	372.8482	440.5542	462.3472	596.5782	650.7576	750.988	804.2718	900.5155	932.5085	991.4352	1021.4695	1067.7289	1076.0493	1118.7355	1162.4254	1173.916	1253.0291	1299.6811	1317.4552	1385.6874	1402.4769	1413.6111	1430.7135	1480.3241	1489.2373	1493.1903	1504.116	1553.829	1788.4819	1873.4868	2993.9062	3014.221	3034.9871	3035.6123	3098.8699	3102.1898	3119.1251	3130.5736	3631.0432
CCNC(=O)COC=O	CCNC(=O)COC=O	
InChI=1S/C5H9NO3/c1-2-6-5(8)3-9-4-7/h4H,2-3H2,1H3,(H,6,8)	InChI=1S/C5H9NO3/c1-2-6-5(8)3-9-4-7/h4H,2-3H2,1H3,(H,6,8)
