17
gdb 47648	2.3595	1.82184	1.28178	1.1853	70.23	-0.2598	-0.0102	0.2496	1004.6233	0.137267	-455.132662	-455.124833	-455.123889	-455.165097	29.546	
N	-0.0329934139	 1.3281461274	-0.1395510731	-0.466319
C	-0.0130398994	 0.0714221938	-0.0147046302	 0.3392
C	-1.3003051224	-0.7289759515	 0.0407582101	-0.132066
O	-1.240358017	-1.7160892905	 1.0708060909	-0.224646
C	-1.0263680958	-1.1961669027	 2.3249351982	 0.100263
N	 0.0727187948	-1.2064637464	 2.9381608064	-0.209061
C	 1.2532704676	-1.7471016881	 2.2633412934	-0.157009
C	 1.8562105861	-0.7720547891	 1.2471065568	-0.095954
O	 1.1074762971	-0.7175728641	 0.024240128	-0.249632
H	 0.9180255928	 1.6993290128	-0.2043435588	 0.227573
H	-2.1422387502	-0.0418693075	 0.1792893684	 0.132166
H	-1.4386364999	-1.285687855	-0.890327282	 0.141231
H	-1.916818152	-0.7735909193	 2.7964790492	 0.119448
H	 2.012149823	-1.9417920788	 3.0285422879	 0.109249
H	 1.0346355263	-2.6881562048	 1.7458168845	 0.127661
H	 1.9438064813	 0.2315446597	 1.6813388779	 0.116099
H	 2.8520354014	-1.118156696	 0.9588157225	 0.121795
83.4661	154.84	229.2979	241.1021	273.1076	318.2729	397.2569	478.5703	554.709	585.1343	673.1323	712.8317	784.011	854.532	895.0013	954.8922	957.1807	1005.8863	1023.659	1047.7918	1059.0767	1087.0616	1110.9815	1148.8832	1257.4859	1266.175	1311.9029	1315.215	1369.2022	1374.1201	1396.5393	1407.5373	1478.9546	1483.8109	1487.9503	1744.3979	1746.0541	3033.3941	3036.4381	3049.1668	3084.255	3106.0976	3107.5841	3110.4786	3455.8096
N=C1COC=NCCO1	[NH][C]1COC=NCCO1	
InChI=1S/C5H8N2O2/c6-5-3-8-4-7-1-2-9-5/h4,6H,1-3H2/b6-5?,7-4-	InChI=1S/C5H8N2O2/c6-5-3-8-4-7-1-2-9-5/h4,6H,1-3H2/b6-5?,7-4-
