21
gdb 95494	2.04652	1.51957	0.91348	1.5357	88.84	-0.2139	-0.024	0.1899	1310.8505	0.1833	-387.107329	-387.098288	-387.097343	-387.141268	34.856	
C	 0.0227163362	 1.5900006896	-0.0582960631	-0.480114
C	-0.0204636581	 0.0776018602	 0.0018917615	 0.296038
C	-1.2086282289	-0.5479023187	 0.0129093251	-0.204333
C	-1.5134873371	-2.0231161975	 0.0653434625	 0.075818
O	-2.847842926	-2.254633957	-0.3940514727	-0.429467
C	-0.5235490617	-2.9078055799	-0.707557644	-0.229874
C	 0.852943202	-3.0718451211	-0.0608136754	-0.268627
C	 1.6848117782	-1.8323053535	 0.0986205158	-0.070981
C	 1.3082674257	-0.5460923456	 0.0964161838	-0.103359
H	 0.5895228676	 1.9319781279	-0.9332414157	 0.124416
H	-0.9786619012	 2.0230527204	-0.1101965899	 0.11951
H	 0.5285365811	 2.0043966478	 0.8228451687	 0.125361
H	-2.1086765287	 0.0634547631	-0.0102770441	 0.083599
H	-1.5367969179	-2.3565628293	 1.1126005212	 0.098571
H	-2.8967402362	-1.93201394	-1.3010925981	 0.274231
H	-0.9882585248	-3.8941234296	-0.8061123232	 0.104812
H	-0.4060210716	-2.503016962	-1.72102051	 0.094334
H	 0.7490078313	-3.5573746667	 0.9218677865	 0.115746
H	 1.4283788728	-3.7882482294	-0.6621579355	 0.108687
H	 2.7480512474	-2.0242039156	 0.2332594653	 0.088385
H	 2.11266986	 0.1794203368	 0.2088912514	 0.077246
40.2242	157.649	201.9708	223.2908	275.4202	309.696	319.4167	347.3883	394.8887	427.7229	507.7244	569.3925	571.9325	723.1396	761.4395	815.5416	839.2541	877.6348	920.0066	947.5446	1014.6778	1024.4492	1042.3521	1065.0321	1069.2436	1081.0901	1116.8173	1159.8472	1201.085	1231.1156	1277.3959	1294.7548	1337.981	1353.1768	1384.938	1391.6254	1411.0594	1419.2123	1456.3126	1467.4304	1479.928	1488.6844	1495.7754	1688.1719	1722.7172	2992.573	3006.2355	3019.0656	3022.2983	3037.0179	3067.0351	3080.8587	3118.9919	3123.2343	3143.4506	3147.7449	3794.7123
CC1=CC(O)CCC=C1	CC1=C[C@@H](O)CCC=C1	
InChI=1S/C8H12O/c1-7-4-2-3-5-8(9)6-7/h2,4,6,8-9H,3,5H2,1H3	InChI=1S/C8H12O/c1-7-4-2-3-5-8(9)6-7/h2,4,6,8-9H,3,5H2,1H3/t8-/m0/s1
