16
gdb 106545	2.31192	1.59428	1.14526	0.729	65.55	-0.2505	-0.0164	0.2341	1066.4221	0.123908	-474.95408	-474.945844	-474.9449	-474.98721	30.824	
O	-0.0636935264	 1.3810205068	-0.1077784545	-0.417691
C	-0.0182389674	-0.0371348868	-0.1507251037	-0.215709
C	-1.3884021846	-0.6227576251	 0.0105186024	 0.126751
N	-2.5273672503	-0.378029752	-0.9997624906	-0.373977
C	-3.214396905	-1.2048223625	 0.095773355	-0.210675
C	-1.9261770777	-2.1005172776	 0.0440830808	 0.165619
O	-1.7277224273	-2.8865444475	-1.0798912358	-0.449182
C	-2.455059891	-0.2917847127	 1.0673532918	 0.414798
O	-2.626805824	 0.4608839025	 1.9809487875	-0.341808
H	-0.3885549979	 1.6348767876	 0.7640119353	 0.30109
H	 0.4028787473	-0.3072578096	-1.1241589813	 0.131016
H	 0.64327635	-0.4555739077	 0.6235493251	 0.108743
H	-2.8262876098	 0.5996770101	-0.9912084677	 0.244285
H	-4.2599695653	-1.4955890184	 0.0244510146	 0.109538
H	-1.6965610558	-2.69156887	 0.930816426	 0.109474
H	-1.9564334248	-2.3274584371	-1.8372766047	 0.297727
69.6994	124.3778	166.0912	248.3123	259.7256	334.3048	394.0681	440.6981	545.7312	565.8798	572.6128	681.0859	741.2249	751.8712	800.3851	835.3557	894.2852	947.3026	1000.8574	1051.0688	1077.0273	1085.2587	1146.8983	1165.9007	1173.1075	1210.5329	1221.7967	1247.4459	1322.2635	1339.2956	1387.8757	1424.0545	1456.5356	1489.7309	1889.8779	2991.874	3083.2554	3125.3803	3155.3858	3440.2892	3733.0956	3797.4856
OCC12NC(C1O)C2=O	OC[C@@]12N[C@@H]([C@H]1O)C2=O	
InChI=1S/C5H7NO3/c7-1-5-3(8)2(6-5)4(5)9/h2-3,6-8H,1H2	InChI=1S/C5H7NO3/c7-1-5-3(8)2(6-5)4(5)9/h2-3,6-8H,1H2/t2-,3+,5+/m0/s1
