17
gdb 19827	3.51946	2.24245	1.85652	2.9074	66.62	-0.219	0.0547	0.2736	772.0198	0.143524	-363.776906	-363.770312	-363.769368	-363.80722	26.727	
O	 0.1564162006	 1.4086530425	-0.2778077846	-0.418154
C	 0.0462849376	 0.0306557912	-0.0084003176	 0.113245
C	 0.2934233608	-0.5020599193	 1.4494282707	-0.305945
C	-1.1220145828	-1.1456725682	 1.4240356514	-0.028433
C	-2.2986573811	-0.2907988789	 1.9232665267	-0.036291
C	-2.1610562006	 1.146092767	 1.6254495337	-0.241448
N	-2.586057734	 0.2587994642	 0.5241573808	-0.14771
C	-1.3991363043	-0.5438620048	 0.0253095519	 0.005405
H	 1.0914112206	 1.6306575425	-0.3312029292	 0.286888
H	 0.6389273612	-0.5523795501	-0.7282709515	 0.074641
H	 1.1163098328	-1.2175565444	 1.5230398321	 0.098515
H	 0.4362651982	 0.2755737942	 2.2041351722	 0.104668
H	-1.2032894936	-2.2130747256	 1.6208769032	 0.072905
H	-3.1035071148	-0.6733174382	 2.5443641337	 0.090859
H	-2.9773023461	 1.7848489073	 1.9525329237	 0.11634
H	-1.1998830619	 1.6409876197	 1.5767153116	 0.135998
H	-1.7056105626	-1.135380219	-0.8373811886	 0.078516
174.8057	217.2004	266.6169	334.088	410.3509	463.032	600.1392	641.3085	710.595	717.6647	747.9946	869.3262	871.3836	889.3403	908.3864	968.5739	1013.7547	1017.1	1056.364	1069.0169	1096.1195	1112.1889	1137.0102	1154.7436	1192.6883	1213.2107	1219.053	1236.4543	1251.6344	1300.0974	1316.8752	1326.6496	1368.1007	1426.1718	1473.7173	1517.9143	2987.2676	3057.8475	3104.6984	3110.9988	3126.6611	3128.2791	3150.0109	3228.6787	3815.8392
OC1CC2C3CN3C12	O[C@H]1C[C@H]2[C@H]3CN3[C@@H]12	
InChI=1S/C6H9NO/c8-5-1-3-4-2-7(4)6(3)5/h3-6,8H,1-2H2	InChI=1S/C6H9NO/c8-5-1-3-4-2-7(4)6(3)5/h3-6,8H,1-2H2/t3-,4+,5-,6+,7?/m0/s1
