18
gdb 96063	3.08832	1.15558	0.93667	2.4014	69.97	-0.2566	0.0138	0.2704	1249.211	0.147746	-476.21147	-476.202661	-476.201717	-476.246199	31.701	
O	-0.2644407191	 1.1825378415	-0.6296280673	-0.430056
C	-0.1674208879	-0.0782067923	-0.022884785	 0.112188
C	 0.4210350268	-0.1091973425	 1.3965405929	-0.11967
O	 0.03715337	-1.3759107156	 1.9005953008	-0.24961
C	-1.2953964169	-1.6344693846	 1.4623774166	-0.093588
C	-1.5345556781	-0.7880429931	 0.198885924	 0.03421
O	-2.5321740525	 0.1963513306	 0.4844939916	-0.210072
C	-3.2764822915	 0.6479308551	-0.5509304842	 0.123665
N	-3.994506474	 1.6732311693	-0.4012373067	-0.442885
H	-0.8644445699	 1.7188781915	-0.0962948742	 0.301013
H	 0.4521827641	-0.6931460944	-0.682714475	 0.103956
H	 1.5105944034	-0.0452538443	 1.4239646553	 0.119857
H	 0.0012125058	 0.7180355159	 1.9947087245	 0.095284
H	-1.3826665236	-2.7087855445	 1.2792255323	 0.115061
H	-2.0305700099	-1.3438805113	 2.2246457813	 0.120424
H	-1.8459288441	-1.3814813442	-0.6662748242	 0.090259
H	-3.187122259	 0.0312673748	-1.4546765561	 0.096286
H	-4.5199334138	 1.8588490383	-1.2529124867	 0.233679
47.3645	60.6058	106.3348	208.766	235.2473	278.3361	369.253	393.774	449.4702	550.2237	580.699	661.5586	705.4789	823.531	866.6365	904.7247	951.61	998.558	1026.1457	1042.2643	1066.3279	1092.9682	1116.2468	1133.0049	1151.6891	1218.3841	1251.1936	1257.8576	1280.6633	1291.9599	1318.4713	1358.19	1379.0398	1398.7077	1425.0809	1434.5175	1501.9875	1515.3749	1743.5807	2962.3834	3019.6617	3034.4947	3055.3267	3073.9387	3092.9567	3112.7476	3520.9967	3784.5484
OC1COCC1OC=N	O[C@H]1COC[C@H]1O[CH][NH]	
InChI=1S/C5H9NO3/c6-3-9-5-2-8-1-4(5)7/h3-7H,1-2H2	InChI=1S/C5H9NO3/c6-3-9-5-2-8-1-4(5)7/h3-7H,1-2H2/t4-,5+/m0/s1
