18
gdb 13147	4.0028	1.20541	1.01001	2.8324	65.15	-0.2441	0.0573	0.3014	1184.2658	0.151801	-422.031971	-422.022925	-422.02198	-422.066753	31.01	
C	-0.1810330042	 1.3182282069	-0.077583167	-0.224129
O	 0.0742444637	-0.0623806832	 0.0014113358	-0.235673
C	 0.6077898268	-0.5882409065	-1.1929891023	-0.054554
C	 0.7828397757	-2.0825834221	-1.0068744474	 0.099466
O	-0.452760651	-2.8302896821	-1.1134942621	-0.286039
C	 0.0001842378	-3.5193822935	-2.2948824071	-0.097098
C	 1.3936537068	-2.8583348156	-2.1956254712	 0.041483
O	 1.8019580377	-2.024104221	-3.2545522555	-0.423037
H	 0.7357201228	 1.8932238529	-0.2871037442	 0.100119
H	-0.9178357318	 1.5544392387	-0.8617758562	 0.104394
H	-0.5819155013	 1.6330622923	 0.8890854017	 0.125907
H	-0.057396074	-0.3903962544	-2.0471476221	 0.096589
H	 1.5860484706	-0.1340134092	-1.4242395274	 0.094552
H	 1.2614468071	-2.2612511257	-0.0363707712	 0.087514
H	-0.0427717077	-4.6093574779	-2.1797304403	 0.098321
H	-0.555848331	-3.2219737718	-3.1939462521	 0.100449
H	 2.1925978936	-3.5496347804	-1.9013221136	 0.080829
H	 2.1726599782	-2.5718613575	-3.9529524378	 0.290908
47.4593	80.0395	97.4223	136.6005	217.527	238.4996	273.5186	349.7014	411.3542	475.4343	548.7211	756.783	871.1494	897.6608	909.4138	990.2858	1024.0835	1061.9139	1073.8528	1119.7405	1153.2411	1164.5508	1178.5981	1185.6005	1200.4825	1232.7223	1252.3904	1286.8975	1316.9307	1333.5433	1364.9822	1429.4332	1438.227	1478.6993	1486.0897	1495.7005	1512.6437	1517.7418	2961.5722	2972.5315	3005.9279	3008.2335	3011.0411	3021.7676	3043.1683	3059.6096	3112.2851	3827.0004
COCC1OCC1O	COC[C@H]1OC[C@H]1O	
InChI=1S/C5H10O3/c1-7-3-5-4(6)2-8-5/h4-6H,2-3H2,1H3	InChI=1S/C5H10O3/c1-7-3-5-4(6)2-8-5/h4-6H,2-3H2,1H3/t4-,5-/m1/s1
