21
gdb 114050	2.75574	1.21917	1.0079	1.2471	79.5	-0.2393	0.0772	0.3165	1269.8274	0.180653	-424.183041	-424.173361	-424.172417	-424.217184	36.231	
C	 0.1397918562	 1.3715717931	 0.0515684629	-0.237521
O	-0.2958251404	 0.0566825897	-0.2107723257	-0.239488
C	 0.4690768149	-0.5912473813	-1.1981683363	 0.154788
C	 1.8875335974	-1.1561155429	-0.8218227713	-0.353595
C	 1.3952434656	-2.5393357458	-1.2680109353	 0.36944
O	 2.1402439535	-3.3799662077	-2.0800628246	-0.459951
C	 0.2154144981	-3.0112277466	-0.4711548719	-0.064603
C	-0.0290009002	-2.8088964101	 1.0104457725	-0.416348
C	-0.0018911121	-1.9882295099	-1.5751284396	-0.179759
H	 1.1691048091	 1.3973062613	 0.4403377805	 0.107009
H	 0.0995943382	 1.9990431465	-0.8529815041	 0.104229
H	-0.5304697811	 1.7940148548	 0.8040534706	 0.126295
H	 0.5429379844	 0.0517628565	-2.0879263373	 0.072973
H	 2.6768554359	-0.7718919683	-1.4711639426	 0.107551
H	 2.1946791534	-1.0519489656	 0.2235292098	 0.094811
H	 2.6145986461	-4.0012776221	-1.5171577198	 0.285039
H	-0.0958886242	-3.9915658983	-0.8314755592	 0.086878
H	 0.2471654155	-1.8069039852	 1.3389039871	 0.133883
H	-1.0910925735	-2.9417864974	 1.2426530989	 0.118535
H	 0.5341391618	-3.5406156602	 1.6019432823	 0.101603
H	-0.6555337885	-2.2065581505	-2.4109617369	 0.088229
101.4806	123.1946	167.3838	174.8888	204.5474	231.141	261.9361	294.8732	368.6227	376.4606	463.1471	486.9045	558.583	668.7306	709.7312	762.8975	843.2739	926.9144	950.6825	976.9539	985.688	1009.1645	1050.1876	1065.1008	1123.0065	1127.4909	1144.9327	1162.4097	1185.1279	1212.0075	1236.3727	1241.2789	1251.6521	1308.9357	1328.97	1344.3615	1387.0298	1418.3568	1462.7816	1478.365	1486.4654	1490.5139	1503.9516	1507.3984	1510.3819	2972.0254	2986.1619	3020.011	3030.6216	3052.004	3085.9341	3113.4243	3113.9841	3115.8182	3150.7103	3185.1323	3797.4517
COC1CC2(O)C(C)C12	CO[C@H]1C[C@@]2(O)[C@@H](C)[C@@H]12	
InChI=1S/C7H12O2/c1-4-6-5(9-2)3-7(4,6)8/h4-6,8H,3H2,1-2H3	InChI=1S/C7H12O2/c1-4-6-5(9-2)3-7(4,6)8/h4-6,8H,3H2,1-2H3/t4-,5-,6-,7+/m0/s1
