21
gdb 92358	2.16926	1.86415	1.48104	1.0323	76.48	-0.2427	0.068	0.3106	1013.5923	0.184217	-424.241181	-424.233046	-424.232102	-424.27329	32.972	
C	 0.0452241401	 1.4810765332	 0.0045628984	-0.497716
C	 0.0050214413	-0.0356194205	-0.0094579624	 0.266342
C	 0.5922754725	-0.6883780447	-1.2735262552	-0.111054
O	 0.111315988	-2.0432220633	-1.2486522404	-0.284967
C	-0.7269264152	-2.1464979714	-0.0845275538	 0.101265
C	 0.1876737615	-2.184277195	 1.1507845958	-0.270731
C	 0.6914738848	-0.7066903369	 1.2240196167	 0.134356
O	 2.0958221771	-0.5446021107	 1.2865406299	-0.449876
C	-1.3646236471	-0.7537758776	 0.0151028672	-0.268005
H	 1.0805481286	 1.8357053252	 0.0396382184	 0.13111
H	-0.4318153307	 1.9062155051	-0.8850121086	 0.11167
H	-0.4699742434	 1.879183794	 0.8854257751	 0.115247
H	 0.241536044	-0.1869522663	-2.1859941892	 0.09455
H	 1.6896039113	-0.6765782618	-1.2901961212	 0.086448
H	-1.3864130914	-3.0046227147	-0.2177323095	 0.073363
H	-0.3481653693	-2.4815208235	 2.057283707	 0.100709
H	 1.0151941041	-2.8851893452	 1.005611302	 0.100873
H	 0.3196201783	-0.2166393321	 2.1302680877	 0.08334
H	 2.4992736054	-1.1528771466	 0.6589274924	 0.284231
H	-1.9213255311	-0.5915386561	 0.9429674496	 0.096741
H	-2.0012594489	-0.5108928711	-0.8399598199	 0.102103
106.5413	211.5615	244.4533	269.4629	297.7178	318.7989	390.1017	430.74	457.5048	540.9749	570.8631	595.9886	760.7078	779.7866	849.4931	872.3112	906.2925	933.2902	943.1821	970.0893	991.2234	1013.8269	1021.904	1054.5396	1075.1039	1123.6776	1156.5751	1167.8554	1181.4702	1223.76	1255.3851	1268.2512	1287.3664	1303.1452	1309.37	1324.141	1350.9458	1393.6039	1410.4488	1435.2333	1475.9163	1492.3553	1496.9233	1501.6496	1538.5032	3002.8661	3029.1893	3035.5972	3044.7862	3051.9673	3058.1415	3095.0852	3098.5442	3101.4343	3110.6153	3115.0997	3815.656
CC12COC(CC1O)C2	C[C@@]12CO[C@@H](C[C@H]1O)C2	
InChI=1S/C7H12O2/c1-7-3-5(9-4-7)2-6(7)8/h5-6,8H,2-4H2,1H3	InChI=1S/C7H12O2/c1-7-3-5(9-4-7)2-6(7)8/h5-6,8H,2-4H2,1H3/t5-,6+,7+/m0/s1
