18
gdb 85550	2.49718	1.56725	1.07193	2.6508	72.15	-0.2353	0.0271	0.2624	1109.6999	0.149432	-439.111353	-439.103357	-439.102413	-439.143837	31.325	
O	-0.1564059027	 1.4664644407	 0.1951991895	-0.434051
C	-0.0282031358	 0.0596309251	 0.0171486555	 0.102323
C	 0.8750935764	-0.5587110262	 1.0949815408	-0.369912
C	 0.8283383682	-2.0797350754	 1.2101872718	 0.383453
O	 1.7780989346	-2.7394736799	 1.5880452889	-0.373717
N	-0.377759583	-2.6471674978	 0.9028490589	-0.310957
C	-1.5595923	-1.9576150166	 0.4679179786	 0.020335
C	-2.1628103865	-0.8450425894	 1.294887544	-0.304674
C	-1.4163519301	-0.5334550351	 0.013866354	-0.03304
H	 0.7168285157	 1.8595386541	 0.0930132575	 0.283196
H	 0.4156962146	-0.1516826797	-0.9694669816	 0.076979
H	 1.9205569775	-0.2807398666	 0.9387529984	 0.122197
H	 0.5804755378	-0.1451677961	 2.0673212973	 0.138646
H	-0.4392362052	-3.6362551395	 1.092987733	 0.249044
H	-2.2282674406	-2.6061891381	-0.0869144888	 0.106005
H	-3.240032776	-0.722069837	 1.2912898743	 0.118783
H	-1.6884211248	-0.6136702249	 2.2416030354	 0.12511
H	-2.0207624502	-0.2254081576	-0.8329260874	 0.10028
95.7364	126.0248	235.1084	284.6919	320.8926	373.209	428.3706	469.0411	497.0354	507.7518	575.6507	655.4683	695.3121	755.8653	832.4242	858.5359	900.0684	963.871	977.1727	1024.5483	1046.8934	1063.7414	1084.2925	1113.0907	1135.7297	1142.0311	1199.7769	1239.3075	1261.2298	1286.0542	1336.5877	1370.829	1396.9736	1420.5078	1442.0639	1458.4357	1482.8233	1501.1305	1792.0812	2963.3601	3044.5927	3103.9458	3140.9488	3159.969	3170.7539	3229.3883	3619.3401	3810.5534
OC1CC(=O)NC2CC12	O[C@H]1CC(=O)N[C@H]2C[C@@H]12	
InChI=1S/C6H9NO2/c8-5-2-6(9)7-4-1-3(4)5/h3-5,8H,1-2H2,(H,7,9)	InChI=1S/C6H9NO2/c8-5-2-6(9)7-4-1-3(4)5/h3-5,8H,1-2H2,(H,7,9)/t3-,4+,5+/m1/s1
