23
gdb 107658	3.01601	1.23123	1.03875	1.3261	85.19	-0.2428	0.0838	0.3266	1272.3017	0.207546	-388.291081	-388.282278	-388.281334	-388.32435	34.579	
C	 0.1237288923	 1.4922380319	 0.3623046593	-0.381453
C	-0.0256577187	 0.0605638493	-0.171045176	-0.262698
C	-1.4378375058	-0.4920062825	-0.0802694026	 0.33893
C	-1.9092438281	-1.0663923938	 1.2306133532	-0.319068
C	-1.6249375694	-1.9916349695	 0.0663160257	-0.079767
C	-2.7823561278	-2.6958489407	-0.6381192111	-0.235001
C	-3.5055013154	-1.7557242981	-1.6080006572	-0.071838
O	-3.6964749977	-0.4692349595	-1.041998904	-0.243617
C	-2.4715149117	 0.2325310737	-0.9323892109	-0.152502
H	 1.1682280955	 1.8165084839	 0.3221428851	 0.111439
H	-0.4636230234	 2.2073669775	-0.2225004884	 0.119179
H	-0.2103580908	 1.5604738863	 1.4029384374	 0.119431
H	 0.3115252185	 0.023558656	-1.216479943	 0.093056
H	 0.6460919147	-0.6023032364	 0.3879437445	 0.093551
H	-1.2214404058	-1.0666622208	 2.0703230023	 0.101265
H	-2.9515915291	-0.9207661198	 1.4966398643	 0.11641
H	-0.7099501264	-2.5721844134	 0.142769296	 0.077715
H	-2.4130731299	-3.5635646684	-1.1961738933	 0.096431
H	-3.4942221038	-3.0787602136	 0.1024604742	 0.105354
H	-2.9298553775	-1.6620516312	-2.5443819625	 0.083735
H	-4.4998545742	-2.1347406376	-1.8614224165	 0.10301
H	-2.7231806257	 1.2078245447	-0.5029045273	 0.106453
H	-2.0512156999	 0.4069950821	-1.9400824093	 0.079984
86.1468	129.2987	162.09	223.8727	261.9441	334.0324	350.9072	394.3339	401.5634	490.7313	523.0531	615.1692	733.2652	774.6841	791.8278	845.6874	887.2994	905.586	943.7685	951.2347	980.7289	1004.2335	1057.8381	1063.8768	1074.183	1089.6161	1117.906	1136.894	1143.6	1149.585	1238.5657	1255.1884	1271.1816	1282.6974	1323.7557	1348.5192	1366.3753	1367.3611	1385.6025	1409.4616	1419.2481	1428.8959	1478.1235	1483.4284	1491.2049	1498.8115	1500.5245	1505.2196	1508.2664	2935.6025	2963.2548	3008.0166	3029.5365	3035.3152	3046.7344	3065.0878	3068.1092	3083.9688	3104.4081	3104.7334	3121.3536	3139.7135	3208.9424
CCC12CC1CCOC2	CC[C@]12C[C@H]1CCOC2	
InChI=1S/C8H14O/c1-2-8-5-7(8)3-4-9-6-8/h7H,2-6H2,1H3	InChI=1S/C8H14O/c1-2-8-5-7(8)3-4-9-6-8/h7H,2-6H2,1H3/t7-,8-/m1/s1
