21
gdb 41961	2.1712	1.98289	1.72227	1.2303	81.22	-0.2331	0.0223	0.2553	958.7472	0.187109	-387.100482	-387.093297	-387.092353	-387.131775	29.878	
C	-0.0446075603	 1.539150981	-0.0207654767	-0.204452
C	 1.3738967905	 2.1609408243	-0.0312482067	-0.204443
C	 2.4852272863	 1.0805421004	-0.0090298555	-0.082368
C	 2.6124225926	 0.4119304805	 1.3922912421	-0.073388
O	 1.8085600656	-0.7339791082	 1.5812020557	-0.225269
C	 0.4189633669	-0.5500158645	 1.4075107769	-0.07338
C	-0.0029916412	-0.0101188598	 0.0084458871	-0.082365
C	 0.957338381	-0.4947912554	-1.0548606379	-0.052657
C	 2.1783945988	 0.040355113	-1.0633893572	-0.052653
H	-0.6218174561	 1.8973470829	 0.839126055	 0.091967
H	-0.5942680565	 1.8522642357	-0.9134968837	 0.098482
H	 1.5052991813	 2.7718585872	-0.9293817451	 0.098479
H	 1.5120086542	 2.8333247014	 0.8229831649	 0.091958
H	 3.4437996209	 1.5704620462	-0.2108314561	 0.06571
H	 3.6366213208	 0.0555590064	 1.538839609	 0.105255
H	 2.4044682939	 1.1658881174	 2.171824231	 0.078291
H	-0.0108546294	-1.544161992	 1.5636992761	 0.105247
H	 0.0142251286	 0.1173199037	 2.1886783596	 0.07829
H	-1.0151960455	-0.3839032351	-0.1795403529	 0.065715
H	 0.647123237	-1.2499295351	-1.7700038932	 0.085791
H	 2.9354583005	-0.2470100201	-1.7860032924	 0.085789
98.9489	264.706	300.0936	328.2125	343.4602	386.7849	478.1709	547.581	621.5954	686.8487	747.8416	777.5302	782.3259	819.5179	882.415	924.1544	950.5312	957.7529	972.3344	996.8831	1014.4872	1023.2701	1051.4691	1101.2322	1120.529	1156.9968	1158.1572	1207.9681	1245.29	1256.1923	1275.4328	1299.3071	1313.6038	1340.177	1352.7612	1354.2576	1370.7668	1383.0893	1415.8561	1422.0851	1483.6016	1495.3309	1496.3003	1509.7585	1695.0267	2946.793	2951.3993	3029.2584	3037.7091	3044.8093	3051.4921	3065.6703	3075.1403	3077.3463	3088.7288	3164.3586	3188.2087
C1CC2COCC1C=C2	C1C[C@H]2COC[C@@H]1C=C2	
InChI=1S/C8H12O/c1-2-8-4-3-7(1)5-9-6-8/h1-2,7-8H,3-6H2	InChI=1S/C8H12O/c1-2-8-4-3-7(1)5-9-6-8/h1-2,7-8H,3-6H2/t7-,8+
