20
gdb 57851	2.32186	1.1914	0.93064	4.2304	79.79	-0.263	-0.0399	0.2232	1348.8127	0.167976	-403.191459	-403.180751	-403.179807	-403.227912	37.573	
C	-0.5855767993	 1.5060709006	-0.008077451	-0.400337
C	-0.0326990674	 0.0672174996	 0.0835554183	-0.083776
C	 0.8293972202	-0.1336866401	 1.3313135325	-0.388686
C	-1.1599125397	-0.9559291126	 0.020800257	 0.389905
O	-1.4076799394	-1.7263522399	 0.9125206671	-0.292772
C	-2.0024384461	-1.0051415299	-1.2960510008	-0.225354
C	-2.3611656389	-2.4594843364	-1.654369289	-0.391828
C	-3.2066595152	-0.191730658	-1.1199640083	 0.283834
N	-4.157380861	 0.4504763699	-0.9759949165	-0.325332
H	 0.2450164489	 2.2175186285	-0.0020742879	 0.127045
H	-1.1669668698	 1.6788730433	-0.9171992771	 0.134167
H	-1.2294723626	 1.7287667379	 0.848196635	 0.142573
H	 0.5798921024	-0.1067716802	-0.814807761	 0.096431
H	 0.2405845843	 0.0280808113	 2.2383139127	 0.135759
H	 1.2312745712	-1.1486663316	 1.3788022719	 0.126852
H	 1.6648079351	 0.5724542353	 1.3308316571	 0.112903
H	-1.419915682	-0.5490478146	-2.1045473303	 0.129885
H	-2.8699486567	-2.931511315	-0.8130633924	 0.163528
H	-3.0079453382	-2.4909409285	-2.5335661484	 0.136623
H	-1.4491158558	-3.0232243195	-1.8673386089	 0.12858
41.2794	49.5252	136.4398	180.4456	200.9072	211.6214	215.2088	231.9082	287.4143	315.2536	333.2388	425.0641	437.7586	563.7483	644.0653	699.1395	793.3089	843.3111	894.4589	932.0824	971.1045	1005.6435	1011.6617	1105.8702	1109.4684	1118.7719	1139.7788	1199.9446	1295.7973	1305.1891	1322.5819	1361.8577	1403.6807	1407.6089	1425.6055	1481.7967	1487.5207	1490.7104	1496.8432	1503.583	1506.0076	1821.4454	2351.127	2990.7972	3044.4238	3049.115	3051.5872	3058.9562	3115.9136	3121.5712	3122.5509	3126.8995	3133.7305	3157.4055
CC(C)C(=O)C(C)C#N	CC(C)C(=O)[C@@H](C)C#N	
InChI=1S/C7H11NO/c1-5(2)7(9)6(3)4-8/h5-6H,1-3H3	InChI=1S/C7H11NO/c1-5(2)7(9)6(3)4-8/h5-6H,1-3H3/t6-/m0/s1
