21
gdb 47721	2.40546	1.64028	1.12119	2.8615	82.59	-0.2347	-0.0109	0.2239	1145.5087	0.184376	-387.124598	-387.116395	-387.115451	-387.157426	32.506	
O	 0.020000331	 0.0313567895	 0.4377113482	-0.328577
C	 0.0069579625	 1.2026619999	 0.122208045	 0.318717
C	-1.3099300294	 1.9553309594	-0.0488423485	-0.295189
C	-1.2692606285	 3.1069907932	-1.0634370355	-0.205381
C	-0.0645590271	 4.019805237	-0.8083425658	-0.19896
C	 1.2374591007	 3.2208819689	-0.9324390596	-0.28889
C	 1.272177097	 2.0097043218	-0.0091533055	 0.261916
C	 2.0634969854	 2.0957167336	 1.3001352714	-0.287462
C	 2.5665158209	 1.2558309947	 0.167773618	-0.305169
H	-2.0886095004	 1.2217292415	-0.273488797	 0.120455
H	-1.5441372658	 2.3653602934	 0.9452387668	 0.125244
H	-1.2047466611	 2.7000532797	-2.0813697571	 0.103168
H	-2.2058719629	 3.6725300725	-1.0147423347	 0.099059
H	-0.0597380797	 4.8537501959	-1.518331401	 0.095172
H	-0.1394505697	 4.4579241787	 0.1959983175	 0.096817
H	 1.3421194721	 2.8805994576	-1.9724299846	 0.10248
H	 2.1059445386	 3.8582014017	-0.7306994516	 0.0938
H	 2.5534884924	 3.0402973124	 1.5134619915	 0.113887
H	 1.6542067931	 1.5855529156	 2.1649098035	 0.128953
H	 2.4829912788	 0.1801875993	 0.2661261948	 0.139559
H	 3.421474562	 1.6129878738	-0.396416936	 0.1104
63.5557	126.761	237.4628	276.7859	289.7729	363.7987	384.3099	430.5431	495.8652	560.494	631.1798	666.5009	789.3142	802.7068	836.2859	860.7287	880.3824	906.5857	940.4556	970.564	998.8613	1003.2293	1058.0365	1075.6734	1086.9469	1107.5534	1134.9796	1153.9932	1181.8804	1203.2448	1264.4191	1277.0502	1306.477	1341.8268	1347.729	1371.1034	1378.0343	1389.6989	1454.2687	1454.7158	1482.8792	1490.3149	1491.7768	1504.1663	1786.6349	3005.9701	3006.604	3017.633	3023.9416	3057.2844	3068.9314	3072.7718	3097.845	3129.2973	3138.1226	3217.571	3236.1668
O=C1CCCCC11CC1	O=C1CCCCC21CC2	
InChI=1S/C8H12O/c9-7-3-1-2-4-8(7)5-6-8/h1-6H2	InChI=1S/C8H12O/c9-7-3-1-2-4-8(7)5-6-8/h1-6H2
