15
gdb 22513	2.47229	1.22732	1.11157	4.1627	70.07	-0.2755	-0.0295	0.246	1154.4597	0.110024	-453.886462	-453.877486	-453.876541	-453.92034	32.027	
C	-0.1972228312	 1.5767613034	 0.1827032245	-0.427499
C	 0.0223791178	 0.0727874922	 0.0753069183	 0.184733
O	 1.1357737416	-0.2739960816	-0.7958114155	-0.309955
C	 1.8491311199	-0.9790977184	 0.2558381337	-0.167583
C	 0.755759288	-0.6123541289	 1.2224593888	 0.313943
N	 0.4716943205	-0.7109779951	 2.4458580017	-0.211292
O	 1.4690969499	-1.3913544623	 3.1467245052	-0.377824
C	-1.2057062274	-0.6226126165	-0.3475489181	 0.277713
N	-2.1715007792	-1.1646190328	-0.6765483021	-0.329284
H	 0.7304721479	 2.0575972901	 0.5000650747	 0.135964
H	-0.4967079783	 1.9787191722	-0.7885825198	 0.151274
H	-0.9815639883	 1.7905641049	 0.9135088504	 0.153064
H	 1.9531775254	-2.0500513705	 0.045808086	 0.146466
H	 2.8360340924	-0.5471475123	 0.4556483286	 0.14134
H	 1.1223947511	-1.4042703744	 4.0462471036	 0.318939
80.2739	114.1446	157.1215	197.706	211.5329	242.7035	315.6979	364.4128	427.8344	447.3801	507.4819	546.1781	628.0568	655.558	775.9114	883.306	931.4197	989.1698	1006.5894	1009.6747	1102.649	1124.3998	1131.3098	1181.7601	1248.7516	1313.9925	1401.0848	1418.9014	1477.527	1482.7758	1498.765	1815.2285	2356.6417	3032.4387	3052.5959	3078.4051	3135.4557	3141.316	3808.787
CC1(OCC1=NO)C#N	C[C@]1(OCC1=NO)C#N	
InChI=1S/C5H6N2O2/c1-5(3-6)4(7-8)2-9-5/h8H,2H2,1H3	InChI=1S/C5H6N2O2/c1-5(3-6)4(7-8)2-9-5/h8H,2H2,1H3/t5-/m0/s1
