20
gdb 8035	3.26591	1.84134	1.46242	1.1851	74.38	-0.2429	0.0785	0.3213	945.5003	0.176754	-348.982303	-348.974199	-348.973254	-349.014398	31.665	
C	 0.155498041	 1.6353958998	-0.0342470557	-0.414578
C	 0.0412902719	 0.1194644134	 0.0221406536	 0.05364
C	 0.8979873252	-0.7485451396	-0.9549759503	-0.319033
C	 1.2382760336	-1.7190102979	 0.2221839818	 0.431632
O	 0.6967206731	-3.0082326932	 0.1475178275	-0.487641
C	 2.6403426294	-1.5265077147	 0.8426422061	-0.289421
C	 2.0782110044	-0.3245689264	 1.6628889778	-0.233166
C	 0.6252954046	-0.6801448413	 1.2171697372	-0.075093
H	 1.1946439108	 1.9713886642	 0.04709529	 0.113221
H	-0.2375854493	 2.0205029524	-0.9819423538	 0.113265
H	-0.4114901172	 2.1070994859	 0.7763935814	 0.113516
H	-1.0112779263	-0.1632500762	-0.0887133137	 0.077909
H	 0.3441221903	-1.2138138451	-1.7743044976	 0.095296
H	 1.7699926729	-0.2308475017	-1.3682660064	 0.08979
H	 1.1026206429	-3.4619929059	-0.599898443	 0.273629
H	 2.8938861559	-2.3750965738	 1.4839928291	 0.102781
H	 3.4745159558	-1.3313958483	 0.161001938	 0.085133
H	 2.2490219755	-0.3893480746	 2.7390192536	 0.104256
H	 2.4289552459	 0.6538968687	 1.3270484879	 0.099548
H	-0.0556268503	-0.9727134856	 2.0173584164	 0.065316
76.8558	210.9666	215.0521	237.4222	260.8687	334.2993	355.7202	415.6775	497.1749	582.4552	615.7097	743.6343	754.3095	852.0403	863.1392	892.0807	908.1335	939.588	970.0052	985.7188	1032.3207	1037.386	1100.9689	1125.5344	1146.5416	1178.3506	1190.5827	1219.4197	1231.641	1247.7258	1266.3752	1277.5574	1304.4654	1322.1111	1357.4129	1373.8963	1412.0874	1470.9021	1472.7021	1489.2421	1497.5266	1503.1071	3025.6232	3038.2785	3041.5478	3044.2186	3070.1385	3089.1749	3094.6494	3096.2612	3101.3414	3104.1054	3122.9924	3788.9982
CC1CC2(O)CCC12	C[C@H]1C[C@@]2(O)CC[C@@H]12	
InChI=1S/C7H12O/c1-5-4-7(8)3-2-6(5)7/h5-6,8H,2-4H2,1H3	InChI=1S/C7H12O/c1-5-4-7(8)3-2-6(5)7/h5-6,8H,2-4H2,1H3/t5-,6-,7-/m0/s1
