20
gdb 68795	2.83031	1.26576	1.06793	4.467	84.17	-0.2617	0.0323	0.2939	1210.7824	0.170232	-366.016604	-366.007409	-366.006465	-366.050187	34.683	
C	 0.020836912	 1.5686234988	 0.0386335275	-0.500029
C	-0.0175887177	 0.0675978557	 0.0462548751	 0.314106
C	 1.1468003934	-0.7982164822	-0.359765025	-0.38399
C	 0.5920196049	-0.9437235265	 1.0333485421	 0.311032
C	 1.4050999293	-0.763138507	 2.2819189739	-0.503293
C	-0.6990469415	-1.7901132019	 0.9733751733	-0.204687
C	-1.3020578065	-0.7654500014	-0.0556560533	-0.300296
C	-0.5700857066	-3.1813857034	 0.5574403819	 0.273572
N	-0.4536605204	-4.2779954653	 0.2084873736	-0.337928
H	 1.0083760637	 1.9423313459	 0.3280162803	 0.121613
H	-0.1981918599	 1.9637847551	-0.9606768165	 0.127459
H	-0.7150774866	 1.9936291868	 0.730931555	 0.117417
H	 1.0314901628	-1.591567072	-1.0953443602	 0.12392
H	 2.1045281644	-0.2885262474	-0.4078696805	 0.11359
H	 2.1465638055	 0.0321660088	 2.1558439896	 0.124085
H	 0.7755204967	-0.5011782853	 3.1402131106	 0.117878
H	 1.9484181543	-1.6813561743	 2.5348716741	 0.136104
H	-1.2436939686	-1.7557222365	 1.9208368422	 0.119454
H	-2.1826574969	-0.2659542124	 0.3541383289	 0.113104
H	-1.5472952624	-1.1651675655	-1.0435840228	 0.116889
96.7171	130.6484	175.2208	188.9656	205.9662	246.3004	314.3439	338.0477	420.0265	442.299	503.268	571.4506	601.7008	704.9344	715.5092	804.4909	846.1218	943.538	947.4084	981.5998	994.2191	1005.2502	1043.5648	1067.8107	1088.9246	1113.0881	1147.1295	1176.32	1224.2467	1240.7071	1255.4331	1327.6518	1340.2588	1403.7661	1414.7508	1433.6577	1482.1382	1485.5469	1488.645	1495.409	1500.1793	1517.5423	2348.6711	3021.0399	3023.0558	3059.1093	3073.0264	3079.5848	3081.3654	3096.5057	3099.9464	3105.6585	3116.402	3194.0076
CC12CC1(C)C(C2)C#N	C[C@@]12C[C@]1(C)[C@@H](C2)C#N	
InChI=1S/C8H11N/c1-7-3-6(4-9)8(7,2)5-7/h6H,3,5H2,1-2H3	InChI=1S/C8H11N/c1-7-3-6(4-9)8(7,2)5-7/h6H,3,5H2,1-2H3/t6-,7+,8+/m0/s1
