17
gdb 52188	3.87063	0.74761	0.66401	2.0935	76.7	-0.2697	0.014	0.2837	1634.2016	0.135357	-418.001408	-417.992082	-417.991138	-418.03771	31.945	
N	-0.1090275345	 1.2175036588	-0.5452543842	-0.435381
C	-0.0792917448	 0.0332418372	-0.1127975409	 0.130538
O	-1.1552587816	-0.7655387624	-0.2676842968	-0.186001
C	-1.0197477889	-2.1041020662	 0.212599691	-0.106351
C	-2.3772511523	-2.7471827393	 0.1315427228	-0.01528
C	-2.8543770148	-3.3421961976	-1.1563300317	-0.272918
C	-2.498802056	-4.2610561913	 0.003559251	-0.182888
C	-1.3215304325	-5.0813869334	-0.0712590941	 0.286331
N	-0.370738188	-5.7387741889	-0.1264905845	-0.339116
H	 0.7727423271	 1.6840025022	-0.3431573261	 0.231903
H	 0.7591490784	-0.4527997629	 0.4055718905	 0.09029
H	-0.2936978561	-2.6568447602	-0.3969190733	 0.129338
H	-0.6570009975	-2.0997960125	 1.2491988419	 0.120398
H	-3.1272490564	-2.284848892	 0.7651392616	 0.119177
H	-3.903165407	-3.2619354198	-1.414895988	 0.139404
H	-2.1735832465	-3.3300244968	-1.9995966226	 0.148937
H	-3.3207392787	-4.724977395	 0.5376028634	 0.141618
28.3757	57.6651	84.1478	125.1558	171.1439	212.7292	315.2723	347.5404	434.3337	551.9033	583.8461	668.7831	773.3315	823.1096	829.0265	888.3289	915.9561	959.8484	1008.5968	1045.1393	1056.179	1078.7406	1122.9211	1129.6921	1137.8148	1181.959	1230.6609	1278.9817	1295.5556	1362.1103	1390.0005	1424.0869	1449.8458	1489.4074	1513.1599	1751.4649	2351.9347	3007.6349	3025.0286	3057.3064	3150.4416	3167.428	3176.648	3242.1385	3519.6915
N=COCC1CC1C#N	[NH][CH]OC[C@H]1C[C@H]1C#N	
InChI=1S/C6H8N2O/c7-2-5-1-6(5)3-9-4-8/h4-6,8H,1,3H2	InChI=1S/C6H8N2O/c7-2-5-1-6(5)3-9-4-8/h4-6,8H,1,3H2/t5-,6+/m0/s1
