15
gdb 19897	3.90535	2.04307	1.69892	2.9709	64.98	-0.2319	-0.0328	0.1991	782.1881	0.117946	-362.56168	-362.554908	-362.553964	-362.593026	25.485	
O	-0.1388789443	-0.0916817209	-0.182318881	-0.242448
C	-0.0635221941	 1.1090776798	-0.218851931	 0.120175
C	 1.1493183219	 1.9231840826	 0.1284756415	-0.077911
C	 1.4720004694	 2.8589900301	 1.2409237063	-0.065158
C	 1.1002911554	 2.4445975726	 2.6725344354	-0.071549
C	 0.3507128723	 1.1484836911	 2.7246367229	-0.302382
C	 1.8156534821	 1.1412991635	 2.3870802638	 0.011356
N	 2.2735467406	 1.5970246377	 1.0078795645	-0.158888
H	-0.8930884254	 1.7317117226	-0.6284638269	 0.080903
H	 1.5390704684	 2.314776382	-0.818642986	 0.128755
H	 1.9118574192	 3.8290288289	 1.0283606649	 0.105367
H	 1.2014387704	 3.1209117884	 3.5101131799	 0.100809
H	 0.1656164271	 0.7955845991	 3.7356386749	 0.122787
H	-0.4402094693	 0.8919132931	 2.0344579672	 0.136276
H	 2.5473720864	 0.5943097493	 2.9657443535	 0.111908
66.2411	124.0309	232.3929	325.2114	416.6456	574.4999	658.7511	688.7499	699.3615	738.1212	773.5301	871.0677	893.1732	912.5844	965.2073	973.2377	1026.7241	1037.7765	1056.0508	1063.9202	1075.295	1083.2344	1122.1448	1187.8834	1245.3988	1270.3488	1337.3694	1349.8757	1418.6737	1420.548	1496.164	1819.181	2857.2921	3048.0945	3141.0753	3150.9049	3201.5229	3211.6065	3238.2643
O=CC1C2C3CC3N12	O=C[C@H]1[C@H]2[C@H]3C[C@H]3N12	
InChI=1S/C6H7NO/c8-2-5-6-3-1-4(3)7(5)6/h2-6H,1H2	InChI=1S/C6H7NO/c8-2-5-6-3-1-4(3)7(5)6/h2-6H,1H2/t3-,4+,5-,6+,7?/m0/s1
