16
gdb 17901	2.7709	2.4489	2.20772	2.4703	59.85	-0.2336	0.0587	0.2923	734.4998	0.131581	-420.843231	-420.836341	-420.835397	-420.874179	26.073	
O	 0.0386770633	 1.5270827198	-0.0523421177	-0.4209
C	 0.0228997519	 0.1306000341	 0.0347030046	 0.118301
C	 0.1259631344	-0.6021613937	 1.3996941035	 0.00268
C	-0.6214483075	 0.1445790825	 2.491845162	-0.054518
O	-1.8006715243	 0.7626156196	 1.9931213533	-0.267761
C	-2.380466352	 0.1691392468	 0.838554856	-0.05757
C	-1.3459481083	-0.5784750975	 0.0127209411	 0.024031
O	-0.7738157175	-1.6163186205	 0.8636613493	-0.301324
H	 0.9076667262	 1.80985369	-0.3492120037	 0.292357
H	 0.6943674374	-0.3422197313	-0.6897682067	 0.089137
H	 1.0787053104	-1.0181794178	 1.7400094082	 0.076614
H	-0.8630375006	-0.5694438517	 3.2947509227	 0.099201
H	-0.0031291734	 0.9459919262	 2.912840704	 0.105992
H	-3.172266165	-0.5430069536	 1.1192004203	 0.09915
H	-2.8303437988	 0.9840641392	 0.2605918457	 0.113533
H	-1.7499302264	-0.9703247221	-0.9246612226	 0.081077
139.5431	178.7902	205.6401	227.7037	396.483	421.7632	532.9957	637.7028	642.1515	824.9155	838.522	857.9486	885.0726	901.1919	999.976	1007.673	1018.8909	1044.372	1090.3139	1147.3196	1176.943	1186.3518	1217.981	1237.2228	1267.0118	1277.1668	1324.4417	1331.3916	1372.6213	1376.0103	1411.2164	1456.2667	1484.1281	1495.4582	2981.7835	2989.1724	3047.93	3058.854	3066.7229	3074.3278	3082.4206	3843.0132
OC1C2COCC1O2	O[C@H]1[C@H]2COC[C@@H]1O2	
InChI=1S/C5H8O3/c6-5-3-1-7-2-4(5)8-3/h3-6H,1-2H2	InChI=1S/C5H8O3/c6-5-3-1-7-2-4(5)8-3/h3-6H,1-2H2/t3-,4+,5+
