16
gdb 31752	6.39079	0.86469	0.769	1.2891	68.06	-0.2138	0.0311	0.2449	1432.8421	0.123501	-475.037056	-475.028045	-475.027101	-475.071709	31.081	
C	-0.1047147545	 1.3755128357	 0.0094381411	-0.244533
O	-0.0543593405	-0.0531076172	 0.0041523575	-0.252847
C	-1.209898008	-0.7023339836	 0.0124594091	 0.48976
N	-1.3519057802	-1.9870005951	 0.0105428949	-0.417362
C	-2.7366988736	-2.1581047861	 0.0216915617	 0.260382
C	-3.3432836366	-3.5195666735	 0.0234231007	-0.185837
O	-4.7532796434	-3.3765319825	 0.0352692943	-0.419722
C	-3.3484264809	-0.9555946531	 0.0298691947	-0.12352
O	-2.3539423833	 0.0139751385	 0.0237583621	-0.199895
H	 0.9345565371	 1.7031800798	 0.0016493066	 0.145174
H	-0.6233583307	 1.7536544691	-0.8765779458	 0.14061
H	-0.6080859217	 1.7475873424	 0.9067603255	 0.140597
H	-2.9937292408	-4.0708008491	-0.8645250726	 0.110045
H	-2.9793292542	-4.0749717999	 0.9029495992	 0.110037
H	-5.1427639821	-4.2548790243	 0.0364817293	 0.293099
H	-4.3645999268	-0.6095277911	 0.0393315818	 0.154011
52.9819	73.9845	153.2422	153.9405	189.2492	238.6866	268.1485	349.6306	377.126	589.5434	632.424	666.164	701.1357	739.4376	750.5305	964.5406	1005.3807	1048.825	1075.6393	1098.7138	1106.5615	1178.6296	1194.5549	1215.9187	1235.113	1241.5944	1309.8291	1382.1743	1470.2299	1486.7586	1486.9037	1500.1124	1512.5433	1653.6177	1667.769	2968.7267	2989.0468	3040.6822	3111.5868	3158.6572	3324.5312	3845.6389
COC1=NC(CO)=CO1	COc1nc(CO)co1	
InChI=1S/C5H7NO3/c1-8-5-6-4(2-7)3-9-5/h3,7H,2H2,1H3	InChI=1S/C5H7NO3/c1-8-5-6-4(2-7)3-9-5/h3,7H,2H2,1H3
