17
gdb 17746	3.86186	2.5497	2.07774	1.9024	69.7	-0.2257	0.0762	0.3019	722.5637	0.143854	-326.645599	-326.639592	-326.638648	-326.675215	25.05	
C	-0.026695079	 1.4915689267	 0.0087125024	-0.512807
C	-0.0192567257	-0.0128999713	-0.0589587788	 0.329485
C	 0.2324889436	-0.8183476087	-1.3653588558	-0.288845
C	-0.4738503365	-1.9798966829	-0.6241211519	-0.076099
C	 0.3212292344	-2.2239877785	 0.6746514153	-0.037683
C	 0.649421721	-0.8293731363	 1.0741278891	-0.088618
N	-0.6161195786	-1.4683783393	 1.576414718	-0.183877
C	-1.2350215542	-0.9507841581	 0.2716320484	-0.02573
H	 0.9771287176	 1.8982959372	-0.1637564678	 0.119047
H	-0.6923858383	 1.920271331	-0.7479147947	 0.116682
H	-0.3622605293	 1.8415639762	 0.9911096052	 0.127287
H	-0.3760031006	-0.4358991937	-2.1924832979	 0.096769
H	 1.2651372569	-0.9625587765	-1.6988563129	 0.093345
H	-0.9379754712	-2.8219272271	-1.132616356	 0.073825
H	 0.8474987971	-3.1095746407	 1.0096917092	 0.092855
H	 1.4505139886	-0.5405106307	 1.7448762429	 0.088435
H	-2.2902616459	-0.6890307774	 0.2195564054	 0.07593
220.3436	257.5242	273.4218	409.0857	552.1478	587.0076	732.6349	763.3048	790.1499	814.0145	839.7907	849.9929	867.839	898.6978	925.1195	944.0285	962.9501	1001.2332	1010.6806	1036.0986	1073.7521	1108.9944	1140.5774	1154.4098	1203.7436	1206.3994	1212.8145	1224.8508	1244.3962	1284.5053	1327.0473	1370.4872	1415.2092	1484.224	1492.2814	1492.8952	3022.6925	3036.3004	3085.0893	3093.7424	3096.6165	3129.9149	3143.3061	3174.4966	3189.8757
CC12CC3C4C1N4C23	C[C@@]12C[C@H]3[C@H]4[C@@H]1N4[C@@H]23	
InChI=1S/C7H9N/c1-7-2-3-4-6(7)8(4)5(3)7/h3-6H,2H2,1H3	InChI=1S/C7H9N/c1-7-2-3-4-6(7)8(4)5(3)7/h3-6H,2H2,1H3/t3-,4-,5+,6-,7-,8?/m0/s1
