21
gdb 92240	2.50767	1.70736	1.30948	1.4616	81.7	-0.2264	0.0765	0.3029	1070.0393	0.183413	-387.046163	-387.038211	-387.037267	-387.078428	31.768	
C	-0.2702587081	 1.5574076248	 0.0111716481	-0.419907
C	 0.0401814044	 0.0684178264	 0.0293716151	-0.057106
C	 1.1901927196	-0.5119835938	-0.8668186049	-0.258657
C	 1.6618664033	-1.4427059798	 0.2992649854	-0.097245
C	 2.9304468573	-0.9813501978	 1.0645900165	-0.251133
C	 2.0484826029	-0.0188245606	 1.9111158267	-0.149123
C	 1.3761144168	-0.6203117206	 3.1678972678	-0.100649
O	 0.1680105832	-0.963321927	 2.4370685163	-0.334541
C	 0.7623175696	-0.5480368044	 1.2165392779	 0.489236
H	 0.6343045992	 2.1503514663	 0.1873164363	 0.110618
H	-0.6866014371	 1.8653501332	-0.9539482698	 0.115219
H	-0.9987138873	 1.8167289517	 0.7868529972	 0.123539
H	-0.8740218706	-0.5116130178	-0.1506967073	 0.083159
H	 0.8652088877	-1.023157048	-1.7745132681	 0.104821
H	 1.9351082449	 0.241071756	-1.1424713268	 0.097326
H	 1.4856679791	-2.508186119	 0.1477892748	 0.068596
H	 3.4211622108	-1.7637839463	 1.6520927878	 0.098402
H	 3.6898823702	-0.4917590632	 0.4475628475	 0.097901
H	 2.3220485333	 1.0350415642	 1.9710956179	 0.073899
H	 1.8674075973	-1.5062653544	 3.5900221462	 0.099882
H	 1.1581754933	 0.0894885602	 3.9734772755	 0.105762
102.0184	146.2307	206.4584	231.8709	309.4419	377.0541	408.0032	472.8728	515.46	608.9975	710.6656	778.3087	808.4922	835.0795	860.9319	887.025	919.6512	947.37	983.6539	992.2531	1007.8088	1020.3582	1029.2662	1096.4744	1114.2061	1130.2071	1134.7068	1157.4054	1164.1352	1203.3583	1210.7181	1231.2903	1268.4828	1271.9465	1290.5614	1295.1946	1322.1923	1351.0331	1383.7604	1407.559	1476.551	1489.6295	1495.767	1497.6586	1517.856	3014.7337	3027.2683	3027.5472	3042.2132	3054.9748	3064.4224	3087.5842	3094.4557	3098.284	3102.3668	3104.9377	3120.2242
CC1CC2CC3COC123	C[C@H]1C[C@H]2C[C@@H]3CO[C@]123	
InChI=1S/C8H12O/c1-5-2-6-3-7-4-9-8(5,6)7/h5-7H,2-4H2,1H3	InChI=1S/C8H12O/c1-5-2-6-3-7-4-9-8(5,6)7/h5-7H,2-4H2,1H3/t5-,6-,7+,8+/m0/s1
