17
gdb 15869	2.53081	2.07747	1.26548	5.0244	69.81	-0.2374	0.0169	0.2544	971.9301	0.142554	-360.020269	-360.011922	-360.010978	-360.053011	30.285	
C	 0.0247902234	 1.520899946	 0.0403333889	-0.332815
N	-0.0117574315	 0.0777167532	 0.1294234724	-0.063328
C	-1.2762918527	-0.604842509	 0.45859419	-0.194685
C	-0.4590247354	-1.6619782494	 1.2666957064	 0.013048
N	-0.0760076044	-2.8989171753	 0.6278505373	-0.50268
C	 0.6714840996	-0.5779212237	 1.2580450645	-0.138051
C	 2.0525255387	-0.9861628614	 1.0060951877	 0.312916
N	 3.1480837445	-1.2912119375	 0.8014353618	-0.330083
H	 1.0535269594	 1.8547309576	-0.1273676478	 0.139051
H	-0.5789266606	 1.8501118098	-0.8110307491	 0.130004
H	-0.3597113588	 2.0190680515	 0.9500311366	 0.096273
H	-1.9418463713	-0.0075211572	 1.1043546195	 0.087917
H	-1.8426977348	-0.963990128	-0.4075530363	 0.103433
H	-0.8498745361	-1.8855136766	 2.260445956	 0.097548
H	-0.8694963991	-3.5284958612	 0.568193245	 0.23432
H	 0.2505101732	-2.7295954132	-0.3191485224	 0.244322
H	 0.647509376	 0.0155292244	 2.1877523394	 0.102811
83.3569	132.942	166.6272	230.6601	273.8816	282.3831	324.6108	380.5933	403.4962	545.8198	558.286	726.4161	817.4592	822.2216	871.6324	919.0851	991.4383	1017.4415	1050.9212	1118.1159	1131.743	1173.2801	1181.1979	1218.7434	1249.2549	1261.2469	1288.4504	1317.6923	1366.709	1426.1801	1451.985	1487.8883	1496.8152	1512.5712	1659.2123	2358.8013	2934.2737	2955.9472	2964.5748	3060.3812	3067.5504	3102.3652	3110.0873	3497.9594	3581.8347
CN1CC(N)C1C#N	CN1C[C@@H](N)[C@H]1C#N	
InChI=1S/C5H9N3/c1-8-3-4(7)5(8)2-6/h4-5H,3,7H2,1H3	InChI=1S/C5H9N3/c1-8-3-4(7)5(8)2-6/h4-5H,3,7H2,1H3/t4-,5-/m1/s1
