23
gdb 117625	2.49926	0.82404	0.72582	0.8722	92.35	-0.2387	0.0549	0.2936	1747.7695	0.200809	-388.267562	-388.25546	-388.254516	-388.307115	41.995	
C	-0.2177760865	 1.563758133	 0.0130192761	-0.379055
C	-0.0040308428	 0.0575773171	 0.0012635544	-0.040182
O	-1.2846492491	-0.5477329187	 0.0116761891	-0.286869
C	-1.3564520393	-1.9831248961	 0.0046583944	 0.174368
C	-0.7257453641	-2.5723439308	-1.2745570009	-0.413605
C	-0.7011615135	-2.5857585625	 1.2651315868	-0.41354
C	-2.7945995092	-2.2870929561	 0.016995159	 0.084687
C	-3.9632827377	-2.5738488706	 0.0266134883	 0.066856
C	-5.3812985513	-2.904296786	 0.0374603092	-0.50029
H	 0.7440771862	 2.0857323849	 0.005417509	 0.109756
H	-0.7915251436	 1.8754264698	-0.8642786301	 0.12578
H	-0.7715944818	 1.8644751559	 0.9067930493	 0.125762
H	 0.5679257497	-0.2321680529	-0.8928888438	 0.086936
H	 0.5876113386	-0.2432208178	 0.8788028964	 0.086906
H	 0.3583007294	-2.4273031633	-1.2858976585	 0.112408
H	-0.9234404849	-3.6459750459	-1.3272317641	 0.123669
H	-1.158122755	-2.0957369304	-2.1576356339	 0.128433
H	-1.1165380699	-2.1187230334	 2.1613816067	 0.128434
H	-0.8976261517	-3.6599669626	 1.3101547356	 0.123651
H	 0.3828786338	-2.4404492095	 1.2571519189	 0.112391
H	-5.5359007249	-3.9890233121	 0.0358301151	 0.146201
H	-5.8773107686	-2.5008046236	 0.9270651326	 0.148654
H	-5.8921002637	-2.4960306683	-0.8415438197	 0.148649
20.3772	26.3242	77.1946	86.0724	124.2173	217.3752	234.3411	255.1442	264.3086	293.2468	310.2367	326.1856	373.0066	398.5607	425.4874	556.1525	560.6481	678.8786	806.1287	825.8891	914.9768	923.2228	971.6214	1011.8119	1053.7957	1053.8894	1070.5284	1093.265	1142.542	1172.0812	1183.7726	1186.8186	1294.2078	1298.5591	1385.8347	1396.7634	1405.4097	1413.9009	1425.6615	1477.5278	1477.7987	1479.6124	1481.934	1485.229	1496.4698	1500.4923	1503.5532	1531.1588	2375.4958	2982.8679	3011.5652	3027.0873	3043.7973	3044.7819	3049.1422	3087.7041	3088.4171	3116.4104	3117.5169	3122.4362	3122.5595	3130.451	3132.6522
CCOC(C)(C)C#CC	CCOC(C)(C)C#CC	
InChI=1S/C8H14O/c1-5-7-8(3,4)9-6-2/h6H2,1-4H3	InChI=1S/C8H14O/c1-5-7-8(3,4)9-6-2/h6H2,1-4H3
