15
gdb 29665	3.41328	1.34781	0.97219	2.9724	78.53	-0.1951	-0.013	0.1821	1137.325	0.112518	-416.838784	-416.830186	-416.829242	-416.872025	31.435	
C	-0.0218366119	 1.4266368634	 0.0611708058	-0.34885
N	 0.0007121279	-0.0189541763	 0.0444751933	-0.185679
C	-0.0122838429	-0.7557224936	-1.1317081176	 0.454761
O	-0.0427552931	-0.347993035	-2.2764458367	-0.441977
N	 0.0178138881	-2.0783296619	-0.6909721139	-0.343867
C	 0.0473436447	-2.1480543194	 0.6866289699	-0.203627
C	 0.0371776819	-0.8729285299	 1.1604563032	 0.178598
C	 0.0574075526	-0.4047362684	 2.4851773672	 0.290621
C	 0.0741395305	 0.0223924619	 3.6122258542	-0.473581
H	 0.8718036257	 1.8287573816	 0.5481449576	 0.139345
H	-0.049020116	 1.7536400433	-0.9793851671	 0.169793
H	-0.90637733	 1.8005565729	 0.5857669363	 0.139352
H	 0.015260225	-2.8501345384	-1.3340504485	 0.274239
H	 0.0734460084	-3.0779803517	 1.2265655969	 0.152905
H	 0.0891163191	 0.3883723916	 4.6088306796	 0.197967
98.9384	121.0549	138.5348	174.0788	252.869	297.3133	418.9393	436.58	503.6141	526.1608	535.1302	609.3885	635.253	690.9567	727.1074	730.1764	753.7262	796.7302	972.9918	1085.5648	1138.9243	1161.1665	1190.5273	1290.3672	1346.5929	1394.7943	1420.1555	1463.1705	1492.151	1513.1066	1633.1785	1829.8903	2227.2567	3040.3923	3100.1251	3151.2882	3294.9862	3501.6372	3695.0212
CN1C(=O)NC=C1C#C	Cn1c(=O)[nH]cc1C#C	
InChI=1S/C6H6N2O/c1-3-5-4-7-6(9)8(5)2/h1,4H,2H3,(H,7,9)	InChI=1S/C6H6N2O/c1-3-5-4-7-6(9)8(5)2/h1,4H,2H3,(H,7,9)
