20
gdb 79824	2.13665	1.97264	1.69023	0.6647	77.38	-0.2254	0.0879	0.3134	968.7483	0.171282	-403.111345	-403.103275	-403.102331	-403.143409	31.98	
C	-0.3505577474	 1.5309748799	-0.0476872465	-0.423117
C	 0.0570691728	 0.0689610198	-0.067156909	 0.038504
N	 1.1080363669	-0.3813918107	-1.0591963841	-0.174962
C	 2.4628423331	-0.180943447	-0.4651667084	-0.048325
C	 2.6704712207	 0.7744815731	 0.6939199419	-0.118196
O	 1.7365894528	 0.3660174107	 1.6961502856	-0.296869
C	 0.84445374	-0.5851606913	 1.107225748	 0.374954
C	 0.1175725059	-1.3279313291	 2.1988856667	-0.484853
C	 1.651622161	-1.3125206698	 0.0005971403	-0.108102
H	-0.5780401616	 1.8641578215	-1.065794262	 0.12585
H	-1.2532912401	 1.6633992628	 0.5581263803	 0.118346
H	 0.4220983597	 2.180059514	 0.3664911292	 0.128898
H	-0.8190707535	-0.5478814785	-0.2984986731	 0.07957
H	 3.257494367	-0.313362418	-1.1911187227	 0.102383
H	 3.6899297234	 0.679869833	 1.0912222697	 0.108238
H	 2.5130989961	 1.8246264951	 0.4179543051	 0.105141
H	-0.4613548792	-0.6316832195	 2.8133140051	 0.130673
H	-0.5672732831	-2.0667700833	 1.7736009353	 0.120525
H	 0.8297299158	-1.8426455786	 2.8508655938	 0.127376
H	 1.8197729497	-2.3711219538	-0.1553541252	 0.093968
128.1624	196.2952	206.3802	240.139	246.4941	306.4889	328.8972	485.2005	575.445	605.4877	642.0513	703.2767	783.7953	792.3095	800.1592	866.744	887.1479	899.4848	940.484	985.5612	1021.1872	1039.5514	1068.1767	1094.8341	1112.6053	1133.2987	1159.8277	1189.2749	1205.0741	1221.9714	1231.7406	1275.5931	1329.3203	1368.5431	1393.5064	1401.2983	1405.6861	1417.17	1481.1671	1485.2319	1493.1528	1494.1941	1528.3155	3011.5981	3033.7757	3040.5945	3042.0615	3044.2952	3101.6661	3112.8105	3120.1391	3140.8359	3175.684	3190.108
CC1N2C3COC1(C)C23	C[C@H]1N2[C@H]3CO[C@]1(C)[C@@H]23	
InChI=1S/C7H11NO/c1-4-7(2)6-5(3-9-7)8(4)6/h4-6H,3H2,1-2H3	InChI=1S/C7H11NO/c1-4-7(2)6-5(3-9-7)8(4)6/h4-6H,3H2,1-2H3/t4-,5+,6+,7+,8?/m1/s1
