19
gdb 50088	4.26535	0.71496	0.66087	3.0756	78.3	-0.2481	-0.0199	0.2282	1676.014	0.157697	-422.998212	-422.989133	-422.988189	-423.033327	32.632	
O	-0.0905721955	 0.1118783283	-0.724544143	-0.269922
C	 0.0103011031	 1.2064506586	-0.2263838737	 0.1667
C	 1.2942802726	 1.8422835379	 0.1400237958	-0.123079
C	 1.4100212116	 3.3617430565	 0.0482233352	-0.300997
C	 1.4289876938	 2.7122472433	 1.3908253928	 0.011913
C	 0.3074272509	 2.9061311766	 2.3961435845	-0.268574
C	 0.5845583408	 4.092526918	 3.2917536577	 0.106687
C	 0.2521598731	 4.090636488	 4.7206370659	-0.18086
O	 1.6002497405	 3.9079993827	 4.2826692454	-0.236497
H	-0.895112091	 1.8255006812	-0.0256297297	 0.06239
H	 2.1613443023	 1.2515760511	-0.1346485903	 0.109663
H	 2.3247364165	 3.7640729338	-0.3710589672	 0.131483
H	 0.5104543911	 3.8976972127	-0.2418986642	 0.121563
H	 2.4040082696	 2.6265427965	 1.8622271891	 0.119654
H	-0.6516879258	 3.0633558116	 1.8895884276	 0.105777
H	 0.2027849471	 2.010365226	 3.019020575	 0.115655
H	 0.6397572709	 5.0570351868	 2.7833767673	 0.095021
H	 0.049341132	 5.0297542366	 5.2333016323	 0.117414
H	-0.2193799736	 3.2118234036	 5.1590162997	 0.116011
51.0728	77.6406	92.0183	146.6496	213.6318	267.3391	350.3641	385.3251	441.4371	453.9743	544.0443	788.365	807.2319	846.4508	854.1831	878.7336	902.4391	943.9145	966.4474	1000.9734	1047.8872	1074.9395	1086.5496	1106.3371	1142.5431	1157.0626	1161.0197	1177.8699	1196.8815	1227.2386	1265.746	1293.7263	1316.559	1344.2424	1412.3592	1446.1068	1449.5173	1470.1572	1489.5692	1530.0858	1816.2606	2854.6598	3036.3308	3075.2871	3083.0722	3098.1183	3127.7202	3153.0997	3169.7558	3178.6534	3219.2522
O=CC1CC1CC1CO1	O=C[C@H]1C[C@H]1C[C@H]1CO1	
InChI=1S/C7H10O2/c8-3-6-1-5(6)2-7-4-9-7/h3,5-7H,1-2,4H2	InChI=1S/C7H10O2/c8-3-6-1-5(6)2-7-4-9-7/h3,5-7H,1-2,4H2/t5-,6+,7-/m0/s1
