18
gdb 8150	3.78527	1.75091	1.56039	2.6733	67.25	-0.2419	0.0778	0.3197	893.8528	0.153396	-384.939491	-384.93173	-384.930786	-384.971118	29.905	
C	 0.2476713992	 1.4115886315	-0.262674553	-0.486735
C	-0.1526315558	 0.0184155396	 0.1393475851	 0.417218
C	-1.6186374272	-0.3895136768	 0.1609123499	-0.276283
C	-1.6724525433	-1.7379184444	 0.9141628513	 0.121509
O	-1.7360154324	-2.7671728822	-0.0617486344	-0.429052
C	-0.3750973821	-1.7891064744	 1.7716639352	-0.274637
C	 0.5788330018	-0.8279741062	 1.095379509	-0.002301
O	 0.7031312748	-1.0448015424	-0.3153501867	-0.289145
H	 1.3296140381	 1.540469707	-0.1778387776	 0.128494
H	-0.0369355606	 1.6110356394	-1.3017051942	 0.128568
H	-0.2464161512	 2.1584748517	 0.3681362331	 0.117957
H	-2.2019798053	 0.3753170839	 0.6865218846	 0.096073
H	-2.0391954033	-0.5060615959	-0.8418161333	 0.122844
H	-2.5596833273	-1.7863359601	 1.5619907061	 0.063164
H	-1.6757978778	-3.6134081563	 0.3924739035	 0.278095
H	-0.5705709994	-1.4509858588	 2.7969736629	 0.099285
H	 0.0220073696	-2.8086556288	 1.8303575333	 0.100739
H	 1.4850908223	-0.4974459668	 1.5997928053	 0.084208
118.0157	180.3596	211.6955	248.7552	294.6509	377.8374	392.7045	424.8236	457.0856	592.0959	696.8934	768.7778	819.6147	850.5225	885.4415	924.5819	949.8469	970.2934	1007.7582	1029.4598	1038.9073	1092.6185	1146.1368	1184.3215	1210.908	1241.7231	1255.6759	1284.5184	1315.5986	1337.8105	1368.4179	1412.236	1423.7221	1455.5092	1463.3062	1475.1395	1489.5065	1502.3224	2983.4046	3031.2899	3033.5659	3046.5774	3075.1121	3094.7048	3101.774	3121.4373	3128.2905	3817.1232
CC12CC(O)CC1O2	C[C@]12C[C@@H](O)C[C@H]1O2	
InChI=1S/C6H10O2/c1-6-3-4(7)2-5(6)8-6/h4-5,7H,2-3H2,1H3	InChI=1S/C6H10O2/c1-6-3-4(7)2-5(6)8-6/h4-5,7H,2-3H2,1H3/t4-,5+,6-/m0/s1
