18
gdb 96032	2.90406	1.1722	0.91516	4.7786	72.3	-0.2707	0.0365	0.3072	1266.8258	0.147737	-439.102661	-439.093832	-439.092888	-439.136932	31.632	
C	-0.4173325429	 1.5062637558	-0.127956894	-0.423797
C	 0.1607192125	 0.105790361	-0.0702822919	 0.089421
O	 1.3738925785	 0.0489782092	-0.8177848692	-0.247685
C	 1.9689125671	-1.1599759038	-0.4319651553	 0.018724
O	 1.6462339959	-1.370291698	 0.9382840492	-0.266306
C	 0.6180673922	-0.4555766732	 1.2961084247	 0.108152
C	 1.1849252618	 0.6112786123	 2.2555259767	-0.36778
C	 1.7409717315	 0.0185410106	 3.4686506206	 0.273795
N	 2.1648390866	-0.4431551995	 4.4390186156	-0.302735
H	 0.2991155267	 2.2495345665	 0.2302010497	 0.133932
H	-0.6764459358	 1.757302288	-1.1594393823	 0.139032
H	-1.3277134454	 1.5706417343	 0.475784595	 0.128255
H	-0.5625978135	-0.61000669	-0.4952412973	 0.083576
H	 1.579124103	-2.0041230155	-1.0258478031	 0.095813
H	 3.0532976756	-1.0794457784	-0.5564407021	 0.123899
H	-0.1862038384	-1.0052546231	 1.7965680564	 0.103671
H	 1.9685104628	 1.1785631639	 1.7427778913	 0.160604
H	 0.3980243219	 1.3166048801	 2.5453513458	 0.149428
56.0748	95.2724	133.8087	193.2357	223.0883	248.0801	347.2382	367.0439	406.107	518.0636	542.2702	688.8471	744.8535	829.2923	875.2379	921.473	953.3615	985.5196	1015.7744	1046.6512	1093.3467	1130.2867	1144.5348	1151.7409	1182.4763	1226.3952	1239.8985	1279.7065	1336.3349	1351.9039	1387.0105	1397.3086	1422.4437	1433.2697	1461.3859	1484.9613	1509.3363	1548.0884	2366.7071	2958.7589	2966.1452	3047.3195	3051.8449	3055.4976	3077.6961	3097.4722	3122.9624	3132.8799
CC1OCOC1CC#N	C[C@H]1OCO[C@H]1CC#N	
InChI=1S/C6H9NO2/c1-5-6(2-3-7)9-4-8-5/h5-6H,2,4H2,1H3	InChI=1S/C6H9NO2/c1-5-6(2-3-7)9-4-8-5/h5-6H,2,4H2,1H3/t5-,6+/m1/s1
