19
gdb 93179	2.88763	1.3153	0.93714	4.6447	78.51	-0.2281	-0.0553	0.1728	1246.5813	0.160848	-419.250719	-419.242081	-419.241137	-419.284161	32.728	
C	-0.1484788206	 1.5374709157	 0.0012042951	-0.402533
C	 0.0056920116	 0.0156409384	-0.0309512168	 0.00194
C	 0.8033881578	-0.4471761648	-1.2534478962	-0.155605
N	 0.9216504713	-1.8941522701	-1.2718530168	-0.329271
C	 1.1716183523	-2.6701548669	-0.166582866	 0.26726
N	 1.5350921936	-3.8899835917	-0.2750587809	-0.51681
C	 0.9462169248	-2.0115330198	 1.1969397177	 0.336119
O	 1.0051639636	-2.6859025318	 2.1977229518	-0.304431
C	 0.6983396226	-0.5151585163	 1.2327774686	-0.311962
H	 0.8284189911	 2.0326603657	 0.0462146063	 0.12014
H	-0.66949689	 1.9019879631	-0.8899785362	 0.119562
H	-0.7221483572	 1.8542356463	 0.8774783931	 0.124108
H	-0.9905647579	-0.441309335	-0.097452577	 0.09532
H	 0.2971422863	-0.1365738466	-2.1731398325	 0.113109
H	 1.7899099098	 0.0490977827	-1.2476267892	 0.099627
H	 1.1772635132	-2.3357159136	-2.1433108183	 0.248982
H	 1.6022350846	-4.2830108055	 0.6656482319	 0.234262
H	 1.6875190138	-0.0384889243	 1.3230001841	 0.131031
H	 0.1510822395	-0.2767067957	 2.1491594311	 0.129153
76.4226	89.0064	201.8126	230.2705	277.3719	355.8844	377.308	398.1504	408.0346	461.9404	563.3352	593.652	646.9915	701.1749	745.5586	864.5765	870.498	906.8283	949.0656	965.6522	1047.5608	1076.4088	1108.0461	1152.722	1181.3287	1208.5376	1225.6156	1287.5487	1295.1012	1322.6137	1377.6576	1393.4006	1411.876	1436.0655	1450.4647	1476.1977	1497.8944	1499.0108	1518.7812	1704.8659	1812.4639	2945.6635	2995.2609	3024.6963	3031.5502	3066.7942	3092.5025	3098.8806	3107.7245	3469.7346	3603.4715
CC1CNC(=N)C(=O)C1	C[C@H]1CN[C]([NH])C(=O)C1	
InChI=1S/C6H10N2O/c1-4-2-5(9)6(7)8-3-4/h4H,2-3H2,1H3,(H2,7,8)	InChI=1S/C6H10N2O/c1-4-2-5(9)6(7)8-3-4/h4H,2-3H2,1H3,(H2,7,8)/t4-/m1/s1
