19
gdb 63884	2.74333	1.62662	1.35697	2.6372	75.09	-0.2258	-0.0166	0.2092	1020.3686	0.158081	-423.023137	-423.014841	-423.013897	-423.055455	32.667	
C	 0.0127103976	 1.4925177094	 0.0019234906	-0.432485
C	 0.0019815579	-0.0349859813	 0.0750910641	 0.393893
C	-1.4150088875	-0.570630899	-0.1105400851	-0.436906
O	 0.8619454922	-0.5700799609	-0.9962463313	-0.322981
C	 1.9123738963	-1.2345215951	-0.2852967582	-0.014217
C	 1.1558956289	-2.0293003282	 0.8160528797	-0.27228
C	 0.7625772229	-0.5922854578	 1.308867465	-0.211744
C	 2.2105925675	-0.2511556918	 0.8728917844	 0.436824
O	 3.1427274404	 0.3409162448	 1.3230867868	-0.322381
H	 1.0283351356	 1.888717828	 0.0787799181	 0.136863
H	-0.411502722	 1.8236994749	-0.9503839037	 0.126661
H	-0.5858693054	 1.9234475416	 0.811317143	 0.116933
H	-1.7744363904	-0.3082802811	-1.110391433	 0.131013
H	-1.4654637651	-1.6568042342	-0.0120839452	 0.117705
H	-2.0928916107	-0.1247575799	 0.624465479	 0.116922
H	 2.646514586	-1.6530848604	-0.9688197265	 0.100256
H	 0.3542587651	-2.6763835173	 0.4606936832	 0.120772
H	 1.8118220355	-2.555796014	 1.5121036332	 0.12305
H	 0.3683653951	-0.3748422678	 2.298656586	 0.092103
136.9551	164.3746	183.768	224.3647	265.1542	357.0082	368.8064	436.9821	473.5382	509.4957	578.7183	625.5376	729.1378	789.8349	819.8529	837.2493	873.6011	936.1951	950.7716	963.1859	985.8053	1009.0155	1021.8411	1059.5033	1082.7286	1110.9816	1151.5564	1190.8566	1212.1302	1228.3545	1237.8352	1291.2518	1299.2311	1403.3694	1419.9495	1471.2266	1478.1928	1487.2671	1499.315	1504.2026	1906.7335	3038.5	3044.4625	3083.3241	3107.2728	3114.4689	3124.1867	3126.3104	3153.9128	3155.9126	3165.4021
CC1(C)OC2CC1C2=O	CC1(C)O[C@@H]2C[C@H]1C2=O	
InChI=1S/C7H10O2/c1-7(2)4-3-5(9-7)6(4)8/h4-5H,3H2,1-2H3	InChI=1S/C7H10O2/c1-7(2)4-3-5(9-7)6(4)8/h4-5H,3H2,1-2H3/t4-,5+/m0/s1
