21
gdb 93760	2.85835	1.25496	0.90869	3.8901	87.61	-0.2309	-0.0407	0.1902	1326.9854	0.1826	-387.149368	-387.14022	-387.139276	-387.183076	34.707	
C	 0.0197367208	 1.5831593398	-0.0045968694	-0.399231
C	 0.0768172938	 0.0556887968	-0.0110539479	-0.092025
C	 0.7718884833	-0.5216526163	-1.2530705639	-0.216738
C	 0.7871576563	-2.0529488406	-1.2347080139	-0.308314
C	 1.2693903287	-2.6152613859	 0.0806996301	 0.318389
C	 1.7583214026	-4.0342705104	 0.0676765933	-0.475993
C	 1.2450052057	-1.8744352993	 1.2016027619	-0.237962
C	 0.7274362126	-0.4945711858	 1.2636352551	 0.380955
O	 0.7846847177	 0.1556872328	 2.2909054608	-0.345518
H	 1.0263445846	 2.0102640018	-0.0682514817	 0.117491
H	-0.5609917777	 1.9530419695	-0.8553202167	 0.103565
H	-0.4320992897	 1.9467115792	 0.9199070732	 0.136921
H	-0.954474373	-0.3352664522	 0.0043377052	 0.094715
H	 0.2787524532	-0.1593812092	-2.1616974815	 0.099036
H	 1.8051212448	-0.1515644686	-1.2868433741	 0.105375
H	-0.2238689971	-2.4441341483	-1.4297515879	 0.118074
H	 1.4103676067	-2.4425634968	-2.0491465008	 0.106672
H	 2.6263119857	-4.1398778395	-0.5954873131	 0.134432
H	 2.0391119857	-4.3800139529	 1.0650628039	 0.13197
H	 0.985611329	-4.7061659646	-0.327659382	 0.133665
H	 1.6055870465	-2.2720301693	 2.1464871694	 0.094521
74.0191	142.6177	187.0711	202.9395	208.63	274.6777	310.0834	361.3565	392.1181	448.1811	503.6383	516.1494	645.5702	680.0787	747.1759	804.9743	857.7566	906.8933	950.5719	959.2931	1016.6378	1039.8498	1044.9739	1072.2308	1112.2297	1138.1498	1162.4015	1201.7432	1223.2155	1257.3041	1312.5313	1323.7475	1350.1275	1379.683	1394.1422	1409.4511	1410.255	1468.873	1478.3771	1481.5037	1489.6218	1494.2393	1500.5557	1694.1513	1764.1811	2970.7154	2991.0792	3019.2096	3022.0783	3040.2519	3046.3896	3066.8893	3069.0621	3103.263	3122.8341	3137.1711	3169.337
CC1CCC(C)=CC1=O	C[C@H]1CCC(=CC1=O)C	
InChI=1S/C8H12O/c1-6-3-4-7(2)8(9)5-6/h5,7H,3-4H2,1-2H3	InChI=1S/C8H12O/c1-6-3-4-7(2)8(9)5-6/h5,7H,3-4H2,1-2H3/t7-/m0/s1
