14
gdb 131256	3.35479	1.17374	0.93428	3.7178	64.42	-0.2462	-0.0453	0.2009	1178.2718	0.099949	-469.997159	-469.988858	-469.987914	-470.031674	28.711	
O	 0.2362016241	 1.3408846505	 0.0454244963	-0.424582
C	 0.0713576183	 0.0100429056	-0.0770403757	 0.368281
C	-0.0388326298	-0.8795720016	-1.1211317045	-0.184811
N	-0.1913591704	-2.1260969097	-0.5904223192	-0.175098
N	-0.1824863811	-2.0595274827	 0.7036063125	-0.156247
N	-0.0255177892	-0.7437776977	 1.0414523995	-0.00372
C	 0.0569732864	-0.326115178	 2.4196547321	-0.245234
C	 1.4902060884	-0.0388692768	 2.8692061594	 0.150889
O	 1.7490095126	 0.6319387035	 3.8291540021	-0.220038
H	 0.2712736518	 1.7401952611	-0.8299306583	 0.3228
H	-0.0201246636	-0.7021324134	-2.1838197891	 0.122916
H	-0.5608044163	 0.5573503345	 2.5989803275	 0.162678
H	-0.3331020771	-1.1532876599	 3.0215771984	 0.177169
H	 2.2733191861	-0.5218755654	 2.2440331089	 0.104995
31.3629	70.4197	112.4999	245.0965	274.3676	293.7524	378.1752	405.8796	477.2415	686.5652	703.2171	713.6197	716.7915	788.5866	822.8316	980.2665	1019.1182	1034.1752	1117.6922	1136.6944	1185.9361	1285.4733	1290.0386	1331.1158	1341.8984	1370.0868	1408.5706	1434.1701	1549.1789	1623.9571	1847.9115	2899.1237	3066.7309	3124.1493	3268.4703	3837.5553
OC1=CN=NN1CC=O	Oc1cnnn1CC=O	
InChI=1S/C4H5N3O2/c8-2-1-7-4(9)3-5-6-7/h2-3,9H,1H2	InChI=1S/C4H5N3O2/c8-2-1-7-4(9)3-5-6-7/h2-3,9H,1H2
