14
gdb 131254	3.06956	1.3107	1.04909	4.459	68.85	-0.2371	0.0056	0.2427	1110.5174	0.100369	-432.816171	-432.80794	-432.806995	-432.849803	29.66	
O	 0.2944824825	 1.3303482097	 0.2196834501	-0.423295
C	 0.1250977694	 0.0139022778	-0.00461369	 0.377134
C	 0.018077812	-0.7893026638	-1.1170315377	-0.187788
N	-0.1611853446	-2.071545629	-0.6891245501	-0.178678
N	-0.1686948776	-2.1065021473	 0.6065252674	-0.152731
N	 0.0038025636	-0.8260145937	 1.0465240241	 0.011208
C	 0.0588018858	-0.5263231209	 2.4693271526	-0.307688
C	 1.4057181364	-0.235501132	 2.9528066628	 0.325912
C	 2.5067777331	 0.0081852339	 3.3635781505	-0.449028
H	 0.3647894101	 1.7880220956	-0.6242358207	 0.320032
H	 0.0537793756	-0.5283598614	-2.1620145939	 0.1185
H	-0.607096855	 0.3183956615	 2.6763489799	 0.160695
H	-0.3505031048	-1.4085039698	 2.9695162771	 0.175578
H	 3.4834045734	 0.2180395895	 3.7247447678	 0.210149
39.618	91.2837	224.0715	245.4538	270.9676	318.9407	323.2925	432.776	495.0368	627.1246	675.5879	684.4365	712.9957	714.6981	784.3139	793.4994	935.0783	959.8763	991.6394	1113.4842	1119.4855	1185.6667	1284.0221	1296.0354	1342.1827	1368.9627	1381.2674	1455.0156	1546.9667	1626.9617	2249.2236	3052.1362	3104.3851	3267.1763	3504.2339	3838.9662
OC1=CN=NN1CC#C	Oc1cnnn1CC#C	
InChI=1S/C5H5N3O/c1-2-3-8-5(9)4-6-7-8/h1,4,9H,3H2	InChI=1S/C5H5N3O/c1-2-3-8-5(9)4-6-7-8/h1,4,9H,3H2
