20
gdb 94118	3.69536	0.8677	0.81268	2.8071	77.68	-0.2559	0.0226	0.2785	1468.0475	0.17104	-440.29332	-440.283917	-440.282973	-440.329577	33.781	
O	 0.0927776501	 1.1744248111	-0.3496283237	-0.43592
C	-0.1530261033	-0.1910395597	-0.0604000832	 0.133552
C	 0.7244529568	-0.7673091949	 1.0785437279	-0.235291
C	-0.1692613597	-1.7913628063	 1.8285195578	-0.228349
C	-1.5594893957	-1.7171747508	 1.1495733218	 0.097988
C	-1.5825591988	-0.3541294665	 0.4659102508	-0.234181
O	-1.6744516496	-2.706190585	 0.109648132	-0.19643
C	-2.1108587653	-3.9260248061	 0.4672650658	 0.125822
N	-2.0813648658	-4.8812826857	-0.3586428616	-0.443947
H	 0.9469114644	 1.2393715305	-0.7872797333	 0.283209
H	-0.0372755994	-0.8035742631	-0.9654856584	 0.089756
H	 1.6499310049	-1.2134376314	 0.7048024246	 0.099494
H	 1.0014277541	 0.0631774872	 1.7354692193	 0.108076
H	 0.2182331033	-2.8118802022	 1.7807759939	 0.11478
H	-0.2596545593	-1.531340326	 2.8873709388	 0.106805
H	-2.3832637811	-1.8563205558	 1.859077006	 0.078819
H	-1.770271913	 0.4303785005	 1.2082530786	 0.110303
H	-2.3468780478	-0.2895355414	-0.3104904741	 0.11746
H	-2.4896576018	-3.970659218	 1.4989535901	 0.081118
H	-2.4809728231	-5.7159646064	 0.065423077	 0.226935
20.0979	63.0686	85.0563	111.8874	257.596	271.1678	325.725	346.1493	437.8877	464.6677	578.9623	590.7126	751.9161	777.8531	820.3037	861.0235	882.0735	913.7039	954.1404	994.0573	1001.8045	1046.8869	1063.5971	1081.361	1107.5152	1120.4024	1190.812	1200.5093	1232.4633	1255.9296	1284.864	1299.5085	1308.8015	1329.0599	1338.3843	1367.2524	1387.6295	1426.983	1436.3708	1475.5794	1479.2138	1504.551	1742.8202	3004.7427	3007.279	3036.0069	3050.9601	3053.5757	3065.5918	3091.9538	3112.5736	3124.1766	3515.6936	3825.01
OC1CCC(C1)OC=N	O[C@H]1CC[C@@H](C1)O[CH][NH]	
InChI=1S/C6H11NO2/c7-4-9-6-2-1-5(8)3-6/h4-8H,1-3H2	InChI=1S/C6H11NO2/c7-4-9-6-2-1-5(8)3-6/h4-8H,1-3H2/t5-,6-/m0/s1
