18
gdb 65402	3.39578	0.96941	0.92564	3.0361	74.72	-0.2422	-0.0211	0.2212	1316.8615	0.146064	-439.044843	-439.035824	-439.03488	-439.079048	33.249	
O	-0.0964596787	 1.2945588033	 0.5159177888	-0.459824
C	 0.0184556463	-0.0661868426	 0.1856148878	 0.350533
C	 1.0827528037	-0.4684435266	-0.777692847	-0.373394
C	 1.2584166771	-0.784972537	 0.7104866317	-0.14046
C	 2.2809383694	-0.0335928821	 1.4773772884	 0.171818
O	 2.911805789	-0.5007247046	 2.3935564199	-0.269349
C	-1.2809738195	-0.8216476279	 0.2368712547	-0.022179
C	-2.2872919066	-0.5004240059	 1.2754961645	-0.24179
N	-2.5368271286	-0.1584487078	-0.1398737297	-0.329533
H	-0.1401363861	 1.8010544163	-0.3016050926	 0.296085
H	 0.9056303881	-1.300258142	-1.4499364812	 0.137385
H	 1.7175143244	 0.3169512331	-1.1779558344	 0.125082
H	 1.1309477736	-1.8140010008	 1.0283061418	 0.114227
H	 2.4357119211	 1.013772385	 1.1409740114	 0.074885
H	-1.2026653217	-1.8483608779	-0.1146209629	 0.093908
H	-2.9206378219	-1.2853252143	 1.6776858718	 0.121273
H	-2.0544547094	 0.3083607922	 1.9613019472	 0.129842
H	-2.3577553604	 0.8372930597	-0.2554680902	 0.22149
57.0415	104.3384	131.0461	204.1959	255.5142	285.531	305.8808	351.0543	416.1876	462.7748	502.1606	606.3664	709.2251	824.8343	849.7683	867.4426	887.8304	927.5945	963.3675	986.4257	1018.016	1037.4097	1057.6718	1076.2748	1109.9106	1147.6009	1173.6976	1179.0363	1218.1721	1257.1648	1284.9884	1300.481	1338.6794	1352.8236	1428.7748	1448.4876	1475.4813	1503.3031	1815.9797	2904.1241	3119.3318	3126.1992	3129.7503	3180.2395	3210.1229	3220.4058	3487.6227	3814.2627
OC1(CC1C=O)C1CN1	O[C@]1(C[C@H]1C=O)[C@H]1CN1	
InChI=1S/C6H9NO2/c8-3-4-1-6(4,9)5-2-7-5/h3-5,7,9H,1-2H2	InChI=1S/C6H9NO2/c8-3-4-1-6(4,9)5-2-7-5/h3-5,7,9H,1-2H2/t4-,5+,6-/m0/s1
