23
gdb 103592	2.80837	1.09871	0.95574	2.4225	81.47	-0.2549	0.0587	0.3136	1354.2229	0.203261	-425.422377	-425.412083	-425.411138	-425.456858	39.841	
C	 0.4847335558	 1.2788851371	 0.1886021974	-0.446438
C	-0.0719427499	-0.1362177975	 0.0188004483	 0.364244
C	-1.572568412	-0.0860501735	-0.2639634551	-0.440597
C	 0.7522276628	-1.0161651579	-0.9811731967	-0.342717
C	 1.3412641062	-1.8206669646	 0.2101196285	 0.395413
O	 1.2611930153	-3.2402722298	 0.1403267291	-0.494518
C	 2.8141488642	-1.5506538577	 0.4997960437	-0.078858
O	 3.2169733412	-2.1487971812	 1.7140807351	-0.428443
C	 0.3444226582	-1.1141294418	 1.168949931	-0.344727
H	 1.5583384953	 1.2762870151	 0.4006022884	 0.118594
H	 0.3279742091	 1.8716359834	-0.7200646103	 0.112736
H	-0.0130383368	 1.7977137932	 1.0159368959	 0.114152
H	-1.7838031131	 0.4811598705	-1.1781223708	 0.113914
H	-1.9905404382	-1.0905332233	-0.3933490639	 0.099524
H	-2.113142251	 0.3956726186	 0.559307362	 0.113973
H	 0.1228752428	-1.6427208469	-1.6204459916	 0.090942
H	 1.4746565341	-0.4940996693	-1.6170189181	 0.096473
H	 0.3354499957	-3.4976736443	 0.181689264	 0.278977
H	 3.4063402678	-1.9210767068	-0.3536145963	 0.089762
H	 2.9974038992	-0.4765078955	 0.5928091865	 0.105145
H	 2.8928643414	-3.0567701807	 1.6681645385	 0.287348
H	 0.7812558125	-0.6755839963	 2.0697691134	 0.113762
H	-0.4748397405	-1.7746528408	 1.4744377313	 0.081339
76.096	124.4466	166.1904	225.7397	250.428	270.867	286.3975	310.1454	322.4405	343.9983	381.4413	418.8001	451.3466	475.4809	515.7137	630.7821	739.1674	831.2643	857.9893	872.9269	914.6986	930.8034	945.2231	965.9751	998.7387	1018.0578	1079.1358	1089.6107	1101.9515	1109.8365	1157.7032	1206.1547	1218.6913	1229.7905	1284.1835	1294.3516	1305.9078	1367.2231	1394.9423	1404.5629	1421.9582	1442.9202	1466.8134	1482.3209	1484.3659	1491.5857	1496.4598	1504.6539	1506.924	2970.3426	3016.9777	3024.8006	3036.0079	3043.2714	3083.5347	3085.8639	3087.3412	3089.2756	3095.5115	3101.0859	3104.9608	3785.8892	3829.1343
CC1(C)CC(O)(CO)C1	CC1(C)CC(O)(CO)C1	
InChI=1S/C7H14O2/c1-6(2)3-7(9,4-6)5-8/h8-9H,3-5H2,1-2H3	InChI=1S/C7H14O2/c1-6(2)3-7(9,4-6)5-8/h8-9H,3-5H2,1-2H3
