17
gdb 93388	2.43124	1.83555	1.38679	3.7575	68.16	-0.2482	0.0347	0.2829	961.9865	0.138429	-455.1554	-455.147768	-455.146824	-455.187461	29.785	
O	 0.1084236742	 1.4559004692	 0.0515924765	-0.434963
C	 0.0120644479	 0.045215486	-0.0168171121	 0.095476
C	 0.6959014653	-0.6097752826	 1.1962612709	-0.187549
N	-0.0370744055	-0.183806539	 2.3818932877	-0.33545
C	-1.4044050411	 0.004628797	 2.424830767	 0.379273
O	-1.9682895312	 0.5218577488	 3.3639436339	-0.37617
N	-2.0810350666	-0.5058551298	 1.2980955551	-0.122401
C	-2.5944378339	 0.3949451145	 0.2686064908	-0.247822
C	-1.4218557833	-0.4813970952	-0.0098317953	-0.031992
H	 0.0884933582	 1.7047344998	 0.9840289791	 0.293356
H	 0.5087576128	-0.2603331264	-0.9422483743	 0.096779
H	 0.7018688319	-1.7023623788	 1.0806163672	 0.11942
H	 1.7324789273	-0.2714594838	 1.2810791076	 0.122435
H	 0.4509471376	 0.0398675931	 3.2338300136	 0.258583
H	-3.5694213237	 0.135707362	-0.132777613	 0.128541
H	-2.4022161644	 1.4565606509	 0.3870364467	 0.140929
H	-1.5746735854	-1.3887081856	-0.5915533016	 0.101556
79.8327	194.7794	210.0521	291.6827	369.8676	403.3613	434.8221	486.5096	494.4456	582.0959	595.3643	709.1996	772.6612	778.4147	869.2707	901.8806	922.2062	985.7209	1004.7593	1023.3011	1097.6567	1112.1082	1128.2684	1148.0128	1170.4209	1226.682	1246.1094	1259.4007	1345.6903	1355.2425	1389.8346	1406.975	1425.1458	1448.4276	1506.2456	1512.063	1812.2833	3009.7159	3073.053	3089.0988	3120.958	3125.3026	3217.3634	3649.8056	3777.3701
OC1CNC(=O)N2CC12	O[C@H]1CNC(=O)N2C[C@@H]12	
InChI=1S/C5H8N2O2/c8-4-1-6-5(9)7-2-3(4)7/h3-4,8H,1-2H2,(H,6,9)	InChI=1S/C5H8N2O2/c8-4-1-6-5(9)7-2-3(4)7/h3-4,8H,1-2H2,(H,6,9)/t3-,4-,7?/m0/s1
