21
gdb 106733	2.51337	1.52008	1.10803	1.7061	83.13	-0.2386	0.0085	0.2471	1185.3616	0.181158	-387.097956	-387.088827	-387.087883	-387.131571	35.096	
C	-0.3856219849	 1.4574955422	-0.2044841305	-0.377852
C	 0.2019472069	 0.0780746835	 0.1255724214	-0.277561
C	 0.9545861471	-0.5204997087	-1.0370203052	 0.348512
C	 2.279857626	 0.1005413133	-1.4954788066	-0.331536
C	 2.9911077682	-1.0470584233	-2.1785298728	-0.084933
C	 2.2839075402	-2.1764565021	-2.1252114065	-0.119884
C	 0.9727391104	-1.9501374683	-1.432462509	 0.311428
C	 0.2425639549	-3.0868663162	-0.7743478338	-0.495364
O	 0.1524649435	-0.9785627317	-2.139531855	-0.343426
H	 0.3995196883	 2.1831285962	-0.440946085	 0.116784
H	-1.0530777945	 1.3896845485	-1.0685945357	 0.135198
H	-0.9585071584	 1.8507798723	 0.6404387391	 0.111265
H	 0.8792690433	 0.1547116084	 0.9857735555	 0.096437
H	-0.6071747181	-0.5988867509	 0.4168588881	 0.102537
H	 2.1133142416	 0.9428519198	-2.1777844761	 0.123285
H	 2.8550579776	 0.4896012726	-0.644521112	 0.10698
H	 3.9471827918	-0.924878956	-2.6751688454	 0.099016
H	 2.5742597675	-3.1343491165	-2.5406686695	 0.096968
H	 0.8851530471	-3.5882183252	-0.0426931978	 0.123413
H	-0.6615045604	-2.7403521863	-0.2698546257	 0.130496
H	-0.0557892681	-3.8301737115	-1.5221815174	 0.128236
66.7939	144.5097	172.5283	201.1983	234.0108	278.9203	286.8084	362.6037	426.3289	475.8816	528.7872	590.9692	673.1174	708.585	746.0566	780.6306	801.7012	890.1319	909.9885	950.8504	952.2308	969.7694	986.026	1012.6136	1079.9909	1087.3959	1101.9527	1150.	1187.9564	1212.0868	1232.009	1298.4492	1325.1384	1354.0814	1375.3777	1405.9242	1411.2739	1445.442	1461.074	1472.821	1486.2846	1496.4146	1498.324	1509.4526	1670.2247	3019.7445	3029.1141	3035.7611	3038.2078	3059.4563	3076.8919	3094.464	3107.3671	3117.0202	3130.4204	3186.3855	3211.7387
CCC12CC=CC1(C)O2	CC[C@@]12CC=C[C@]1(C)O2	
InChI=1S/C8H12O/c1-3-8-6-4-5-7(8,2)9-8/h4-5H,3,6H2,1-2H3	InChI=1S/C8H12O/c1-3-8-6-4-5-7(8,2)9-8/h4-5H,3,6H2,1-2H3/t7-,8+/m0/s1
