19
gdb 10305	2.20527	1.79282	1.26348	3.4859	72.13	-0.2355	0.0301	0.2656	1055.7727	0.165093	-361.232458	-361.222832	-361.221888	-361.266686	34.109	
C	 0.2570512328	-0.2315088029	 1.5682099074	-0.331662
N	-0.0815054672	-0.1683863093	 0.1502044177	-0.054948
C	 0.9662858432	-0.7606701924	-0.6774783291	-0.34034
C	-1.4301323598	-0.6630627965	-0.1267382788	-0.101346
C	-1.9821282465	-0.130060106	-1.4624421775	-0.169943
N	-2.0485387658	 1.3241642985	-1.3784510029	-0.513691
C	-1.5270652678	-2.142331337	-0.0681058261	 0.272018
N	-1.5497767924	-3.2973325111	-0.0176003717	-0.332008
H	 1.21928335	 0.2630137247	 1.729951615	 0.125115
H	-0.5000450297	 0.2982842777	 2.1537937796	 0.127443
H	 0.335175053	-1.2637339415	 1.9514682747	 0.118513
H	 1.1188801748	-1.8348256668	-0.4798072517	 0.125756
H	 0.7333154103	-0.6384667323	-1.7379043984	 0.126297
H	 1.9065454954	-0.2382172705	-0.4800667695	 0.125817
H	-2.0822603483	-0.2604956998	 0.6561406887	 0.13559
H	-1.375500518	-0.5253774792	-2.2934553411	 0.098566
H	-2.992507891	-0.5318929691	-1.5950221988	 0.12296
H	-1.1213196517	 1.6770165164	-1.1608576122	 0.235234
H	-2.3239386415	 1.7168752173	-2.2721710253	 0.230628
69.584	118.7058	134.3934	165.618	220.7816	233.9695	258.5651	298.8852	348.7765	372.9585	420.651	476.6962	557.4603	614.8186	769.2483	865.4421	930.7749	968.3966	1051.892	1054.7236	1069.5621	1118.5539	1126.7745	1173.9932	1190.9901	1243.3205	1264.6894	1299.4061	1327.9452	1385.8363	1424.1854	1445.1085	1475.0816	1481.3807	1496.523	1501.3809	1514.9286	1520.3626	1637.2874	2342.3692	2960.2969	2968.1237	2974.2825	3056.1561	3067.2899	3070.3482	3080.5937	3112.4408	3121.4079	3500.096	3584.3952
CN(C)C(CN)C#N	CN(C)[C@@H](CN)C#N	
InChI=1S/C5H11N3/c1-8(2)5(3-6)4-7/h5H,3,6H2,1-2H3	InChI=1S/C5H11N3/c1-8(2)5(3-6)4-7/h5H,3,6H2,1-2H3/t5-/m0/s1
