22
gdb 119159	3.02422	0.96005	0.80593	2.4598	82.43	-0.2403	0.0725	0.3128	1510.2624	0.1935	-404.300751	-404.291021	-404.290076	-404.336036	35.843	
C	 0.2029201539	 1.670019888	-0.3322042474	-0.381143
C	 0.1355858068	 0.1511516642	-0.1423827237	-0.199137
C	-1.2955616243	-0.3823041378	-0.2687976492	-0.247485
C	-1.522272804	-1.8704158691	-0.0205296521	 0.284251
C	-0.4561222074	-2.8829393447	-0.2469753608	-0.277136
N	-0.8951375773	-2.5510829749	 1.1222313547	-0.34431
C	-2.9474539002	-2.2767209247	-0.2795581883	 0.022954
C	-3.6728244727	-3.2172537744	 0.5787674724	-0.170224
O	-3.9216881376	-1.8096772446	 0.659649002	-0.246833
H	 1.2302641385	 2.0359526509	-0.2436312917	 0.113704
H	-0.171319846	 1.9609657364	-1.3197722657	 0.118014
H	-0.4040544676	 2.1896167543	 0.4169534614	 0.120855
H	 0.7823096569	-0.332289533	-0.8841698875	 0.103149
H	 0.551771862	-0.1002878235	 0.8422161116	 0.095152
H	-1.9493246683	 0.1629472155	 0.4248457179	 0.122755
H	-1.6705297851	-0.1474236449	-1.2746503287	 0.100692
H	-0.723528937	-3.8830915133	-0.5782165919	 0.113948
H	 0.5222857248	-2.5466236185	-0.5758243991	 0.11297
H	-0.2158035036	-1.9380608529	 1.5649426103	 0.229958
H	-3.2608420307	-2.1777440783	-1.3214370165	 0.087055
H	-4.4851332853	-3.8089221147	 0.157780056	 0.104887
H	-3.153555996	-3.6434332199	 1.4325020064	 0.135926
60.009	69.1766	111.0511	148.4175	232.7372	246.3186	266.2511	323.0476	340.8789	392.7655	481.8635	597.2786	708.9639	745.8879	827.1424	848.5454	869.1295	897.1491	914.5288	948.748	962.2347	978.8479	1019.6246	1053.7158	1060.0184	1111.3232	1118.8967	1130.9115	1155.507	1159.3805	1175.8033	1257.882	1260.3758	1281.5332	1299.3952	1325.4137	1342.7546	1368.2415	1408.1496	1416.0744	1448.7195	1484.6847	1491.5736	1499.9141	1507.5581	1514.1881	1519.9351	3008.8229	3018.0544	3033.0855	3039.708	3061.6181	3081.1989	3091.9517	3100.8368	3106.3308	3112.4454	3195.7733	3197.4928	3506.8405
CCCC1(CN1)C1CO1	CCC[C@]1(CN1)[C@H]1CO1	
InChI=1S/C7H13NO/c1-2-3-7(5-8-7)6-4-9-6/h6,8H,2-5H2,1H3	InChI=1S/C7H13NO/c1-2-3-7(5-8-7)6-4-9-6/h6,8H,2-5H2,1H3/t6-,7+/m1/s1
