13
gdb 66721	2.9761	1.70532	1.30127	4.3807	67.26	-0.2386	-0.0008	0.2378	927.4241	0.088663	-415.484971	-415.478044	-415.4771	-415.516304	26.653	
O	-0.1470165784	 1.3584762959	-0.077432354	-0.429221
C	 0.0256590431	 0.0156047984	-0.0359607661	 0.316067
C	 0.914513224	-0.9958318309	-0.8322407768	-0.138098
C	-0.1740105758	-2.00532567	-0.7988119351	-0.112881
N	 0.8415115834	-1.9774323157	 0.3082744162	-0.162669
C	-0.0430568732	-0.9991481204	 1.0679332763	-0.153934
C	-1.1117298463	-1.0358849449	-0.0349119945	 0.225281
C	-2.5079692037	-0.8433476425	 0.0261283434	 0.12958
N	-3.6561606043	-0.6937548704	 0.071292307	-0.355975
H	 0.5211528002	 1.7848654923	 0.4731443354	 0.307573
H	 1.7894983104	-0.8969406889	-1.4626091117	 0.119289
H	-0.3745058235	-2.8825063186	-1.4010621243	 0.121561
H	-0.1555993357	-0.9490693945	 2.1433656342	 0.133427
119.4333	161.1554	263.1959	337.7385	344.9091	503.2108	521.3948	557.8959	642.5573	714.1817	737.3768	773.3602	782.5345	864.3726	888.3162	947.4486	968.2532	969.9859	992.953	1020.8046	1097.0955	1173.118	1192.1085	1206.5779	1283.1866	1305.6737	1357.2724	1477.7918	2338.0349	3189.7151	3202.9062	3205.1123	3779.0584
OC12C3C4N3C1C24C#N	O[C@@]12[C@@H]3[C@H]4N3[C@@H]1[C@@]24C#N	
InChI=1S/C6H4N2O/c7-1-5-2-3-6(5,9)4(5)8(2)3/h2-4,9H	InChI=1S/C6H4N2O/c7-1-5-2-3-6(5,9)4(5)8(2)3/h2-4,9H/t2-,3+,4-,5+,6+,8?/m1/s1
