21
gdb 96475	2.23481	1.53536	1.1021	1.9796	80.96	-0.2349	0.0143	0.2492	1189.0385	0.183287	-424.22821	-424.219173	-424.218229	-424.262109	34.516	
C	 0.3150935221	 1.4706811479	 0.0254443982	-0.482698
C	-0.0307292778	 0.0029633791	-0.0095107537	 0.303609
C	-0.0510109619	-0.6659629489	-1.1672402907	-0.151371
C	-0.2774934924	-2.1368923206	-1.4257338536	-0.266225
C	-1.3209415222	-2.8426291001	-0.5623673559	-0.070409
O	-1.0088309679	-2.8621274556	 0.8208543978	-0.254262
C	-1.3217898801	-1.6637339631	 1.5085336744	-0.113478
C	-0.2244287749	-0.6082724797	 1.3770198701	 0.03232
O	 1.0086658062	-1.1335616968	 1.8694809485	-0.435164
H	 1.1921843782	 1.6371248425	 0.6634841495	 0.138927
H	 0.5335712771	 1.8666026367	-0.969621775	 0.116182
H	-0.5024875559	 2.0631353137	 0.4568667492	 0.119374
H	 0.190722007	-0.0938998659	-2.062066383	 0.080088
H	-0.5807512791	-2.2679918395	-2.4721863291	 0.104013
H	 0.6769645538	-2.6764951761	-1.3287834567	 0.115581
H	-2.3084120295	-2.3795554189	-0.713786408	 0.092978
H	-1.3921948605	-3.8922918045	-0.8672829222	 0.104669
H	-2.2900740383	-1.2611324964	 1.1749655628	 0.090329
H	-1.4018001796	-1.9385368501	 2.5654665064	 0.111229
H	-0.4843223074	 0.2035428173	 2.068133459	 0.080435
H	 1.1066079331	-1.9982565411	 1.4511212919	 0.283872
42.5971	138.6321	203.6704	217.0131	256.5878	308.3764	331.8896	350.4483	400.1709	415.7319	485.0798	584.8487	626.2456	679.1038	769.68	846.7875	854.4258	900.8873	929.3408	963.8154	1015.7799	1061.0785	1069.0983	1078.3417	1095.657	1121.9521	1146.061	1175.2738	1238.164	1264.3408	1303.9513	1327.1731	1362.5205	1379.6365	1387.3943	1408.1036	1414.4042	1425.3776	1430.226	1467.6188	1476.9685	1480.7137	1493.4153	1497.4442	1734.5492	2983.115	2993.029	2996.873	3013.6759	3032.3612	3047.0694	3063.4748	3068.4632	3077.3877	3112.0114	3128.4394	3777.2895
CC1=CCCOCC1O	CC1=CCCOC[C@H]1O	
InChI=1S/C7H12O2/c1-6-3-2-4-9-5-7(6)8/h3,7-8H,2,4-5H2,1H3	InChI=1S/C7H12O2/c1-6-3-2-4-9-5-7(6)8/h3,7-8H,2,4-5H2,1H3/t7-/m1/s1
