17
gdb 28093	4.50466	0.8605	0.76909	1.1421	76.73	-0.2253	-0.0466	0.1788	1462.3655	0.135286	-418.053802	-418.044891	-418.043947	-418.088976	31.045	
C	 0.0263690839	 1.5123695108	-0.0871820967	-0.485294
C	 0.0140951645	 0.0191789797	-0.0414535024	 0.282572
C	 0.048046926	-0.8701271516	-1.0855118795	-0.216488
N	 0.0055061192	-2.1315061229	-0.517594575	 0.017838
C	 0.0844823314	-3.3902587007	-1.2180509707	-0.264915
C	 1.4849052746	-3.6749517332	-1.7637643123	 0.148241
O	 1.6938594058	-4.41282846	-2.6869444488	-0.220401
C	-0.041361855	-1.9387989202	 0.833390755	-0.005255
N	-0.042639889	-0.6678657065	 1.1545846895	-0.316427
H	 0.8833288387	 1.9144732239	 0.4635767415	 0.135342
H	 0.0805676003	 1.8750817576	-1.1171413283	 0.117307
H	-0.8756778308	 1.9270948993	 0.3751987921	 0.135539
H	 0.0836372758	-0.7342735286	-2.1544907733	 0.131195
H	-0.1703333575	-4.1955025502	-0.5185944933	 0.154543
H	-0.6336023498	-3.436040859	-2.042394744	 0.154006
H	 2.3005339234	-3.1486394899	-1.219476518	 0.104105
H	-0.0811614315	-2.7708173584	 1.5223309541	 0.128092
40.5308	69.7079	101.7041	106.7446	242.0355	266.4939	363.4864	394.7495	427.7543	630.3476	655.7574	684.6894	718.7705	723.6997	802.1258	818.0118	979.6777	1014.1095	1030.7468	1059.0186	1063.09	1065.5108	1189.7007	1204.2163	1259.4265	1312.8356	1328.3399	1395.8953	1406.9905	1413.1373	1432.0105	1449.7755	1476.0523	1489.0058	1536.0554	1601.7863	1844.4589	2893.9012	3036.2175	3046.3138	3091.5	3098.789	3117.474	3237.8037	3263.4452
CC1=CN(CC=O)C=N1	Cc1cn(CC=O)cn1	
InChI=1S/C6H8N2O/c1-6-4-8(2-3-9)5-7-6/h3-5H,2H2,1H3	InChI=1S/C6H8N2O/c1-6-4-8(2-3-9)5-7-6/h3-5H,2H2,1H3
