13
gdb 129405	2.96366	1.65309	1.06587	5.2804	62.2	-0.2437	-0.0188	0.2249	1023.0655	0.09047	-486.100072	-486.092531	-486.091587	-486.132686	27.808	
N	-0.1345487293	 1.3102985798	-0.2352142104	-0.565328
C	 0.0898631538	-0.0196499898	 0.0457969198	 0.439148
N	 1.1814070055	-0.6361986392	 0.2404427654	-0.499029
N	-1.1200172843	-0.7669530909	 0.0556201478	-0.150613
N	-2.3443790739	-0.1154716933	 0.0383200846	-0.246312
C	-3.2001458006	-1.0677425634	 0.0631941123	 0.111044
O	-2.6796895384	-2.3061307686	 0.0935645684	-0.205715
C	-1.274145701	-2.148866465	 0.08616427	 0.517543
O	-0.512680587	-3.0582523668	 0.0969365234	-0.332528
H	 0.6007522415	 1.9392915776	 0.0423615447	 0.258218
H	-1.0757936014	 1.6497454021	-0.1058052096	 0.276505
H	 1.9751761188	-0.0019053904	 0.1769030857	 0.217904
H	-4.2726288836	-0.9553109222	 0.0624991078	 0.179164
54.8344	127.0379	227.1646	256.7336	391.0513	404.3258	458.1436	496.7178	585.1708	632.1626	656.5338	703.1628	744.9711	766.8608	805.8402	860.6026	909.367	962.2313	1084.9811	1099.6535	1154.8071	1233.7605	1263.7087	1329.9012	1449.9839	1621.061	1659.9976	1747.3902	1941.0764	3281.6245	3511.7366	3584.0209	3704.9965
NC(=N)N1N=COC1=O	NC(=N)n1ncoc1=O	
InChI=1S/C3H4N4O2/c4-2(5)7-3(8)9-1-6-7/h1H,(H3,4,5)	InChI=1S/C3H4N4O2/c4-2(5)7-3(8)9-1-6-7/h1H,(H3,4,5)
