21
gdb 104276	2.38394	1.14886	0.9736	2.2169	79.31	-0.2436	-0.0251	0.2185	1308.0624	0.180308	-424.221401	-424.211381	-424.210437	-424.256838	36.513	
C	-0.1292363216	 1.5515751848	 0.0929968859	-0.458448
C	-0.0393919371	 0.0258139275	 0.0068719105	 0.321922
C	-1.408119239	-0.5842229121	-0.2671570051	-0.133847
O	-1.8720347629	-0.085308801	-1.5133295944	-0.425639
C	 1.1171274334	-0.4526492791	-0.9244002587	-0.245214
C	 1.993693474	-0.707292568	 0.326631136	-0.255398
C	 0.7177476678	-0.6612007918	 1.2152607057	-0.113842
C	 0.791145321	 0.070927132	 2.5253239951	 0.150647
O	 0.2482584845	-0.282073346	 3.5427719023	-0.258549
H	 0.8530410306	 2.0121814217	 0.2365558092	 0.111019
H	-0.5549964092	 1.9394844706	-0.8355093685	 0.141558
H	-0.7751166587	 1.8697450252	 0.9194969955	 0.118209
H	-1.3203937122	-1.6821927754	-0.2903723411	 0.08317
H	-2.0975556569	-0.3247961818	 0.5533873247	 0.09407
H	-2.7501935403	-0.4415908345	-1.6749077905	 0.291021
H	 0.8608862855	-1.3763368685	-1.4497800174	 0.104567
H	 1.4843378698	 0.2698019807	-1.6566351276	 0.10349
H	 2.5762976697	-1.6297239165	 0.3633652449	 0.109216
H	 2.6642906706	 0.1304071383	 0.5435976977	 0.107282
H	 0.3055312834	-1.655996007	 1.4059953572	 0.086199
H	 1.4047654578	 1.0018521708	 2.5034732086	 0.068567
46.5373	79.3554	109.2664	181.6765	232.4186	254.4229	280.819	284.4409	349.1651	353.7534	407.7491	457.1869	496.9853	656.1759	720.4767	828.8981	883.5283	894.4206	936.6475	956.6986	970.8411	998.7428	1055.1913	1062.5992	1079.8544	1125.8008	1157.9165	1197.2876	1205.5178	1226.0674	1249.7126	1256.2624	1267.8498	1303.817	1310.9078	1341.9797	1406.4411	1432.5167	1456.49	1480.1606	1491.3277	1496.2278	1506.7208	1519.5576	1819.8643	2855.9873	2959.8668	2992.4518	3032.1042	3053.5709	3063.4238	3073.5258	3096.0222	3107.1859	3121.5569	3124.798	3835.1714
CC1(CO)CCC1C=O	C[C@@]1(CO)CC[C@H]1C=O	
InChI=1S/C7H12O2/c1-7(5-9)3-2-6(7)4-8/h4,6,9H,2-3,5H2,1H3	InChI=1S/C7H12O2/c1-7(5-9)3-2-6(7)4-8/h4,6,9H,2-3,5H2,1H3/t6-,7-/m0/s1
