22
gdb 107123	3.07842	1.20072	1.14651	1.3114	86.48	-0.2124	0.0791	0.2915	1239.5895	0.19305	-367.141947	-367.132849	-367.131905	-367.175402	35.664	
C	 0.0537593112	 1.4467961496	 0.0283598361	-0.376036
C	-0.0513075385	-0.0765898988	-0.1227935309	-0.269573
C	-1.4620730465	-0.561870022	 0.0301293857	 0.398826
C	-2.1111066207	-0.9218008469	 1.3376217899	-0.355547
C	-2.0640791747	-1.9363543556	 0.2210971548	-0.208318
C	-3.0169970196	-1.5964081486	-0.9449126781	 0.346271
C	-3.2075545495	-2.5463584168	-2.0894907575	-0.478441
C	-3.8128475727	-0.3695731545	-0.7368824804	-0.30349
N	-2.3919348484	-0.2360229955	-1.1360574446	-0.217885
H	 1.0794519834	 1.7901693872	-0.1367883434	 0.107455
H	-0.5936924009	 1.945257317	-0.6991824199	 0.135627
H	-0.2546703993	 1.766057752	 1.0293881421	 0.111908
H	 0.3175428356	-0.3719081376	-1.1125700939	 0.104489
H	 0.5824504043	-0.5789537826	 0.6180462962	 0.092509
H	-1.3859794439	-1.1160836954	 2.1232165364	 0.113468
H	-3.0342915556	-0.4950968452	 1.713949001	 0.110107
H	-1.5746322325	-2.89758832	 0.317529356	 0.088674
H	-3.8711226183	-3.371714831	-1.8043817522	 0.119212
H	-3.6465474013	-2.0340085725	-2.9501358112	 0.126395
H	-2.2502398846	-2.9779602231	-2.4028811655	 0.122142
H	-4.4796101421	-0.0795342089	-1.5449073028	 0.116423
H	-4.1518373954	-0.0451758008	 0.2399916422	 0.115784
81.3092	117.0181	187.65	201.28	231.2162	298.738	349.6488	372.4992	411.9541	479.4398	506.1401	603.2089	635.7636	734.9688	776.5803	798.941	823.029	873.2283	921.6925	929.7268	965.1578	977.1057	994.119	1007.9945	1025.0445	1057.9893	1082.0128	1098.6136	1105.5357	1124.7301	1136.2505	1194.3592	1210.3565	1295.088	1304.3993	1348.3299	1376.8005	1400.9258	1409.3897	1418.1225	1475.2957	1478.1309	1485.5639	1494.7679	1496.5407	1510.0552	1529.2475	3024.3316	3026.1006	3036.3936	3062.9161	3084.2802	3105.4213	3112.1905	3114.9205	3117.569	3129.7685	3185.2288	3195.7782	3208.144
CCC12CC1C1(C)CN21	CC[C@]12C[C@H]1[C@@]1(C)CN21	
InChI=1S/C8H13N/c1-3-8-4-6(8)7(2)5-9(7)8/h6H,3-5H2,1-2H3	InChI=1S/C8H13N/c1-3-8-4-6(8)7(2)5-9(7)8/h6H,3-5H2,1-2H3/t6-,7+,8-,9?/m0/s1
