25
gdb 102497	1.92173	1.28302	0.96529	1.0934	85.38	-0.2447	0.0729	0.3176	1407.8114	0.224435	-426.626776	-426.614755	-426.61381	-426.663563	43.85	
C	 0.5342554139	 1.1840208722	-0.3286243909	-0.396208
C	 0.1781025947	-0.2872444668	-0.1005363808	-0.181278
C	-1.3251276399	-0.5150344393	 0.0837242332	 0.125957
O	-2.0008203284	-0.2167233786	-1.1392269021	-0.258911
C	-2.945298715	 0.828776537	-1.0735483887	-0.237699
C	-1.6914155905	-1.9585890117	 0.5207721007	 0.342449
C	-3.204316341	-2.0739478692	 0.7507766418	-0.425481
C	-1.2268516501	-3.0026941708	-0.5025868624	-0.426321
O	-1.0040242819	-2.1313440248	 1.7671842678	-0.470638
H	 1.6126374662	 1.3102127056	-0.4658790246	 0.109201
H	 0.0370716299	 1.5725654068	-1.2225032544	 0.123004
H	 0.2346107529	 1.8047815483	 0.5237086674	 0.10872
H	 0.518487684	-0.8781389699	-0.9581742896	 0.099102
H	 0.6921323342	-0.6737238324	 0.7840802386	 0.116297
H	-1.6850062025	 0.1523177792	 0.8806893784	 0.068355
H	-3.7740952335	 0.600481167	-0.3876014722	 0.104211
H	-2.4885030831	 1.7779770354	-0.7586050694	 0.108432
H	-3.3529293113	 0.9558710191	-2.080531636	 0.12241
H	-3.7589381531	-1.9001335165	-0.1746775106	 0.128804
H	-3.4577653397	-3.0786632408	 1.1093668869	 0.097761
H	-3.5340378113	-1.3538224902	 1.5057144258	 0.11413
H	-0.1364797488	-3.0356848722	-0.5596770778	 0.121386
H	-1.5815373128	-4.0002296168	-0.2178248471	 0.096441
H	-1.6244057836	-2.77065743	-1.4940937783	 0.134427
H	-1.1900028492	-3.0216063405	 2.0829498445	 0.275447
67.7528	79.6951	98.568	176.5081	189.2385	213.7544	227.8082	236.0427	258.8227	278.2567	298.3745	325.6405	335.0776	358.3753	443.5632	474.8585	495.337	553.4724	763.7791	786.1591	886.668	916.7553	937.8236	951.7815	993.2655	1002.1021	1056.2043	1091.2814	1123.61	1143.5476	1150.958	1183.9092	1202.3007	1215.8808	1232.4109	1301.4934	1325.6015	1366.8553	1380.7834	1388.1333	1396.0759	1405.355	1408.2498	1478.9254	1480.7806	1484.7104	1487.8891	1492.1085	1498.8567	1500.1388	1507.0018	1512.0372	1517.9603	2982.1116	2997.8799	3027.9308	3030.7767	3034.8816	3035.1829	3046.9458	3089.212	3094.694	3100.1846	3104.0817	3104.4521	3115.0044	3126.1181	3132.3613	3811.1119
CCC(OC)C(C)(C)O	CC[C@@H](OC)C(C)(C)O	
InChI=1S/C7H16O2/c1-5-6(9-4)7(2,3)8/h6,8H,5H2,1-4H3	InChI=1S/C7H16O2/c1-5-6(9-4)7(2,3)8/h6,8H,5H2,1-4H3/t6-/m1/s1
