17
gdb 112474	2.63959	1.34889	0.9514	4.007	71.38	-0.2113	0.0105	0.2219	1199.1454	0.137649	-455.193627	-455.184939	-455.183995	-455.227901	31.851	
O	-0.0691938964	 1.4448431046	-0.0183793335	-0.424987
C	 0.0473325484	 0.0288422358	-0.0196531421	-0.071531
C	-1.3788856945	-0.5317254517	 0.0793360659	-0.010605
N	-2.183179107	-0.0676455969	-1.0500261201	-0.358033
C	-2.6868575269	-0.8066546438	-2.0854854038	 0.457686
O	-3.2212981753	-0.3251668246	-3.0666216409	-0.409394
N	-2.5624580861	-2.1827346275	-1.9209028907	-0.372995
C	-1.9622278045	-2.7604815262	-0.813370044	 0.02235
C	-1.399558462	-2.0317498418	 0.1520735988	-0.150756
H	 0.7740153573	 1.8248417518	-0.2792555738	 0.294383
H	 0.5161811604	-0.341423142	-0.9425902097	 0.097569
H	 0.6404057758	-0.3280175795	 0.8371951639	 0.087527
H	-1.8067126181	-0.1054300157	 1.0009833173	 0.100287
H	-2.1739384467	 0.9259025168	-1.2220996092	 0.259765
H	-2.9934868332	-2.738338658	-2.6391952369	 0.261098
H	-1.9889935816	-3.8437088403	-0.7873783469	 0.119492
H	-0.9426604896	-2.5125474811	 1.0067343558	 0.098145
36.7124	101.6335	130.4158	207.4652	236.8657	340.1456	412.4644	434.0153	493.8208	524.1613	560.7726	584.17	616.5386	729.9342	759.7737	802.8393	939.3116	950.4208	958.8325	1021.8932	1053.1153	1074.1297	1094.7152	1172.1073	1209.0861	1221.8438	1252.1224	1309.8459	1354.0372	1389.4865	1439.198	1449.7278	1466.6375	1477.9399	1509.3313	1740.4347	1814.7822	2964.6296	2976.0681	3027.0072	3196.7136	3223.2516	3639.2429	3679.9474	3843.3763
OCC1NC(=O)NC=C1	OC[C@H]1NC(=O)NC=C1	
InChI=1S/C5H8N2O2/c8-3-4-1-2-6-5(9)7-4/h1-2,4,8H,3H2,(H2,6,7,9)	InChI=1S/C5H8N2O2/c8-3-4-1-2-6-5(9)7-4/h1-2,4,8H,3H2,(H2,6,7,9)/t4-/m0/s1
