22
gdb 88162	2.467	1.37024	1.20895	2.0186	82.02	-0.2293	0.0817	0.311	1178.9331	0.194254	-404.321531	-404.312402	-404.311458	-404.355488	34.789	
C	 0.3818648012	 1.7473131539	-0.1820058061	-0.39124
C	 0.0353703542	 0.2666164326	 0.0225770425	-0.088225
C	 0.6344104458	-0.6081554804	-1.0933623757	-0.089059
O	 1.9827662744	-0.8268175455	-0.7035371424	-0.253611
C	 1.9699714572	-1.0655758518	 0.69814041	-0.130741
C	 0.7252495701	-0.3508029049	 1.2499068553	 0.309915
C	 0.6717059075	 0.2341978183	 2.6174897582	-0.311411
N	 0.0301204885	-1.0467108864	 2.3360715588	-0.12186
C	-1.4232964359	-1.077647833	 2.3711814548	-0.31642
H	 1.4633147222	 1.8781857722	-0.2868079108	 0.131433
H	-0.0938576018	 2.1336156404	-1.0899046702	 0.110933
H	 0.0462489142	 2.3611770842	 0.6587346061	 0.111926
H	-1.0505824727	 0.1472960821	 0.0717273495	 0.075164
H	 0.0894040949	-1.5635171231	-1.175870383	 0.085939
H	 0.6427177662	-0.1263083275	-2.0749263184	 0.104642
H	 1.8962419665	-2.1398135925	 0.9226629946	 0.101604
H	 2.9094974566	-0.6859516479	 1.1117410297	 0.10663
H	 1.544346774	 0.2033580838	 3.2668898604	 0.111824
H	 0.0264503863	 1.0994956024	 2.7727858248	 0.104141
H	-1.9058388857	-0.129381127	 2.0831728068	 0.100965
H	-1.7918749179	-1.866680507	 1.70713032	 0.12214
H	-1.7423737158	-1.3185970829	 3.3902574252	 0.125311
42.9146	157.8805	193.1151	214.4597	236.0527	255.2693	265.7047	372.7484	402.5719	442.6347	502.4026	538.1184	693.8636	745.6181	782.49	868.4704	909.6202	914.942	953.5593	972.5001	1017.2444	1031.8164	1073.1407	1089.3264	1109.6295	1128.6579	1137.239	1163.2722	1167.476	1203.5874	1220.46	1246.2664	1262.6487	1270.3197	1341.1786	1347.0892	1379.2241	1401.8812	1422.2974	1449.735	1490.0584	1494.9634	1499.31	1501.3526	1508.6161	1514.7841	1520.5589	2962.9327	2968.0847	2997.2771	3034.2515	3063.5787	3069.2666	3073.1807	3076.9013	3089.4503	3099.079	3101.73	3114.9949	3159.9856
CC1COCC11CN1C	C[C@H]1COC[C@]21CN2C	
InChI=1S/C7H13NO/c1-6-3-9-5-7(6)4-8(7)2/h6H,3-5H2,1-2H3	InChI=1S/C7H13NO/c1-6-3-9-5-7(6)4-8(7)2/h6H,3-5H2,1-2H3/t6-,7-,8?/m0/s1
