21
gdb 88456	2.54245	1.37367	1.29096	3.1276	77.69	-0.226	0.069	0.2949	1126.7569	0.18187	-424.195525	-424.186548	-424.185604	-424.229141	34.774	
C	-0.1807741291	 1.735172839	-0.4916353987	-0.435215
C	-0.0807696733	 0.2629472329	-0.1199522355	 0.404182
C	 0.9939386311	-0.5667905849	-0.875972544	-0.322503
C	 1.6915172774	-0.6871702209	 0.4901398259	-0.07171
O	 0.673034903	 0.1103499644	 1.133199083	-0.334904
C	-1.4524795547	-0.3731351412	-0.0160847935	-0.10609
C	-1.6833648504	-1.5980397663	 0.8554156975	-0.360125
C	-2.2447307735	-0.2600113801	 1.2650170595	 0.143945
O	-1.7638246873	 0.4408601962	 2.3695413993	-0.436807
H	 0.8122257437	 2.1880507986	-0.5654204173	 0.113039
H	-0.6898816528	 1.8552259055	-1.4540750991	 0.115287
H	-0.7548263406	 2.2678476719	 0.2720251613	 0.143016
H	 0.6301692593	-1.5048412272	-1.2965018355	 0.115208
H	 1.5479522596	-0.0146577034	-1.6370578437	 0.109431
H	 1.7418486933	-1.6986545468	 0.9092843159	 0.107883
H	 2.6780216748	-0.2177618971	 0.5741477802	 0.109363
H	-2.0125103097	-0.31753555	-0.9470382801	 0.08447
H	-2.3538518821	-2.3743913925	 0.5021189328	 0.106871
H	-0.8369098725	-1.9573625	 1.4317264892	 0.117017
H	-3.3176736227	-0.1193505513	 1.1794588732	 0.100743
H	-0.8007017933	 0.3395572431	 2.3781826095	 0.296901
76.2089	89.1297	180.966	228.2181	238.3946	288.9213	347.1806	379.5566	422.5375	513.9875	555.8948	568.6009	691.7505	783.6325	793.3312	801.6437	848.6337	875.9749	902.0585	966.2074	976.8217	991.7735	1022.2393	1033.995	1043.7008	1074.5308	1125.8615	1132.7146	1156.5039	1166.5196	1207.5528	1218.9053	1231.2002	1249.8327	1273.5858	1342.4663	1365.1581	1389.2096	1403.3468	1456.634	1482.3324	1488.4866	1491.4548	1495.6517	1528.8599	3025.7668	3035.3591	3067.7022	3081.0833	3107.4611	3120.954	3126.5147	3129.8837	3139.3656	3160.6572	3216.7424	3717.8594
CC1(CCO1)C1CC1O	C[C@]1(CCO1)[C@H]1C[C@H]1O	
InChI=1S/C7H12O2/c1-7(2-3-9-7)5-4-6(5)8/h5-6,8H,2-4H2,1H3	InChI=1S/C7H12O2/c1-7(2-3-9-7)5-4-6(5)8/h5-6,8H,2-4H2,1H3/t5-,6+,7-/m0/s1
