23
gdb 120392	2.79291	0.87135	0.76895	2.852	86.6	-0.2353	-0.0141	0.2212	1614.2468	0.203867	-388.313174	-388.30285	-388.301906	-388.349063	37.734	
C	-0.0626747382	 1.5759305451	 0.2387182765	-0.381495
C	-0.1045677408	 0.057846058	 0.044295377	-0.168335
C	 0.774122263	-0.4225930982	-1.1171750053	-0.17139
C	 0.7307980995	-1.9365310758	-1.3218755807	-0.029699
C	-0.5827807432	-2.4506432418	-2.0000255351	-0.352277
C	 0.2279526067	-2.6233217174	-3.2937977442	 0.390721
O	-0.0601055143	-2.704934106	-4.4533525912	-0.300639
C	 1.5614150549	-2.4842580824	-2.544037573	-0.10281
C	 2.6939345204	-1.6994712842	-3.1916284048	-0.414233
H	 0.9569959897	 1.9212172651	 0.442777376	 0.114492
H	-0.4145994482	 2.0997088377	-0.6569793763	 0.115968
H	-0.6937518678	 1.8887793718	 1.0762984091	 0.113024
H	 0.2185791005	-0.440761711	 0.967833278	 0.09575
H	-1.141374082	-0.2610812718	-0.1232471293	 0.099343
H	 0.4624328825	 0.0858359404	-2.0409458271	 0.096709
H	 1.8105695869	-0.1090167422	-0.9350964484	 0.097024
H	 0.969001043	-2.4389524486	-0.3802136949	 0.06959
H	-0.935272759	-3.411044406	-1.61049106	 0.1262
H	-1.4331063942	-1.765396679	-2.0549394095	 0.12437
H	 1.9057060546	-3.4997417061	-2.3038589744	 0.101306
H	 2.3888903326	-0.6799810773	-3.4431285829	 0.124921
H	 3.5674558147	-1.6409811136	-2.5345282664	 0.117764
H	 3.0014967889	-2.1894878269	-4.1202202829	 0.133695
49.741	95.0381	111.7182	135.5704	179.8184	196.0401	250.3146	266.7535	317.6505	407.7885	428.9898	488.5457	541.2441	693.4397	732.7744	748.0692	823.3735	837.9638	873.2239	910.6181	927.3207	986.75	1009.7565	1044.6476	1051.037	1084.1776	1117.7219	1121.9405	1160.5018	1170.9895	1211.5604	1233.4977	1255.4945	1279.6253	1306.7318	1334.7758	1338.6133	1372.8224	1401.4975	1410.5242	1414.5688	1439.3682	1482.7783	1492.7718	1495.2711	1500.5583	1500.6319	1511.0074	1885.6312	3002.385	3016.0303	3017.7004	3030.2246	3032.8833	3041.7634	3051.5425	3057.0026	3069.2892	3096.8362	3102.9216	3108.2833	3110.5561	3118.6683
CCCC1CC(=O)C1C	CCC[C@H]1CC(=O)[C@H]1C	
InChI=1S/C8H14O/c1-3-4-7-5-8(9)6(7)2/h6-7H,3-5H2,1-2H3	InChI=1S/C8H14O/c1-3-4-7-5-8(9)6(7)2/h6-7H,3-5H2,1-2H3/t6-,7-/m0/s1
