19
gdb 85153	2.04875	1.71593	1.00642	1.206	79.93	-0.2482	-0.0131	0.2351	1201.0682	0.158594	-419.25597	-419.246586	-419.245642	-419.290438	34.054	
C	-0.0795742041	 1.5820069764	 0.0473983079	-0.40437
C	 0.007008955	 0.0650063586	 0.03424982	 0.065086
C	 1.0656074788	-0.5855835803	-0.9065158625	-0.403444
C	 1.7139507488	-1.1481074319	 0.3689391346	 0.423119
O	 2.6545443646	-1.8459612178	 0.6369610094	-0.364384
N	 0.7496148459	-0.5348447465	 1.1671963207	-0.106747
C	 0.4400753348	-0.5641593081	 2.522193596	 0.324929
C	 1.4392265598	-1.2902535819	 3.3892516592	-0.456266
N	-0.6355804513	 0.0163331706	 2.8899165504	-0.498413
H	 0.916620606	 2.028993276	 0.1325162645	 0.115125
H	-0.5375596915	 1.9372503006	-0.8814201005	 0.119977
H	-0.6866249978	 1.9179833796	 0.8902888817	 0.156378
H	-0.9890504766	-0.3784083617	-0.0552908589	 0.102501
H	 0.6944876744	-1.351867756	-1.5894414309	 0.136566
H	 1.6959811786	 0.1180944455	-1.454564674	 0.134293
H	 2.4196194594	-0.8078678397	 3.3347866693	 0.154611
H	 1.0966254351	-1.2956295171	 4.4258772605	 0.119863
H	 1.5839940818	-2.3171057383	 3.0436574928	 0.161402
H	-0.7549355616	-0.0704485277	 3.8980006899	 0.219772
71.2789	111.5491	121.8705	141.1014	181.9481	247.2383	295.0645	385.9931	411.6751	436.2141	535.968	579.4134	599.0521	678.4592	722.2987	844.1332	855.5205	910.3679	940.5394	1018.1503	1046.7762	1060.9186	1070.3006	1096.1304	1113.7621	1155.0936	1189.0959	1232.1634	1238.765	1343.2615	1381.802	1402.96	1408.5826	1439.7296	1461.3783	1467.7082	1472.5314	1486.176	1505.671	1701.9084	1870.5119	3038.611	3052.045	3066.7354	3082.9975	3107.5573	3120.0524	3137.8697	3140.3541	3141.195	3494.1241
CC1CC(=O)N1C(C)=N	C[C@H]1CC(=O)N1[C](C)[NH]	
InChI=1S/C6H10N2O/c1-4-3-6(9)8(4)5(2)7/h4,7H,3H2,1-2H3	InChI=1S/C6H10N2O/c1-4-3-6(9)8(4)5(2)7/h4,7H,3H2,1-2H3/t4-/m0/s1
