14
gdb 50504	4.18215	1.00082	0.9269	3.9733	62.97	-0.2657	-0.0547	0.211	1217.1856	0.099723	-473.823961	-473.815708	-473.814764	-473.858333	28.177	
O	-0.5461117548	 0.6028573458	 0.54591499	-0.217926
C	 0.3592465074	 0.8307788868	-0.2059694137	 0.158555
C	 1.3291349094	 2.0048385568	-0.0337582341	 0.117809
O	 2.6529897549	 1.5212963274	 0.0705267161	-0.254972
C	 3.3304754511	 1.8048134169	-1.145005348	-0.113636
C	 2.5753934413	 3.039075781	-1.6654494415	-0.045601
O	 1.2517549196	 2.8010264534	-1.2088535137	-0.258999
C	 3.1150636602	 4.3043454169	-1.1318663445	 0.282133
N	 3.546944014	 5.2949071789	-0.7241394063	-0.30645
H	 0.587161203	 0.1961855247	-1.0906977953	 0.087033
H	 1.080809566	 2.5778802946	 0.8673477553	 0.12508
H	 4.3828612711	 1.9877600703	-0.922576389	 0.152482
H	 3.240722639	 0.9813102804	-1.8645894638	 0.12354
H	 2.5525604079	 3.094882896	-2.7566718915	 0.15095
41.6359	66.743	113.7207	188.4633	265.5415	324.9787	358.4729	421.9746	484.6619	592.1948	760.8037	778.1552	848.9965	911.5081	981.9354	993.7652	1016.0724	1043.6831	1083.0231	1098.7775	1158.4309	1228.5125	1274.3349	1315.1918	1331.9047	1365.0626	1380.2501	1413.9357	1514.3823	1853.7139	2361.4667	2895.8621	3028.9328	3055.6302	3093.2259	3127.5967
O=CC1OCC(O1)C#N	O=C[C@H]1OC[C@@H](O1)C#N	
InChI=1S/C5H5NO3/c6-1-4-3-8-5(2-7)9-4/h2,4-5H,3H2	InChI=1S/C5H5NO3/c6-1-4-3-8-5(2-7)9-4/h2,4-5H,3H2/t4-,5-/m0/s1
