19
gdb 54757	2.63891	1.44387	1.15949	2.6659	76.11	-0.235	-0.0107	0.2243	1122.779	0.157665	-422.996554	-422.987724	-422.986779	-423.030377	33.319	
C	-1.3307993139	 0.6316577576	 0.4728354524	-0.48451
C	-0.0033451988	-0.0281317954	 0.1474784377	 0.342254
O	 0.9529065444	 0.0396137936	 0.8887761453	-0.306131
C	 0.0308873211	-0.7809212303	-1.1660587749	-0.095292
C	 1.233653043	-1.6916714644	-1.5467794036	-0.062677
C	 0.7608787864	-2.7120527232	-0.4661905675	-0.294735
C	-0.5185384946	-2.2434542305	-1.2241794859	 0.379778
O	-1.844133061	-2.5363336321	-0.9637688679	-0.472266
C	 0.2840734079	-2.4079890924	-2.5528272396	-0.290858
H	-1.5739170551	 1.389740052	-0.2807641864	 0.135879
H	-2.1308308952	-0.1166240525	 0.4381507319	 0.157801
H	-1.2864349773	 1.0972864511	 1.4581266992	 0.136233
H	-0.3587724749	-0.1482357136	-1.9726034158	 0.079216
H	 2.2539271423	-1.3673015002	-1.7276324241	 0.093549
H	 1.0589246426	-3.7516253099	-0.6302713018	 0.085142
H	 0.8740983414	-2.4134564574	 0.5744761321	 0.125028
H	-1.9494116161	-3.4933823208	-0.9301784502	 0.287692
H	-0.06244786	-1.8275255261	-3.4117431265	 0.094718
H	 0.5614212979	-3.4281884757	-2.8325151546	 0.089181
49.2649	126.4726	150.9933	194.2407	210.2985	329.4816	349.0332	383.9528	470.0082	545.4169	576.1325	630.2133	657.3113	773.7702	808.821	844.9264	918.8356	938.2878	949.6076	953.0082	995.2964	1012.4836	1055.3703	1073.0875	1089.5149	1114.4131	1130.6109	1145.8376	1194.8661	1207.1737	1213.673	1227.5241	1295.8234	1350.1831	1376.5036	1399.0774	1466.0093	1475.5615	1497.2938	1541.0958	1799.5289	3031.9683	3039.5079	3049.6105	3063.2916	3096.1267	3118.947	3151.1685	3158.563	3166.6222	3810.1882
CC(=O)C1C2CC1(O)C2	CC(=O)[C@H]1[C@H]2C[C@]1(O)C2	
InChI=1S/C7H10O2/c1-4(8)6-5-2-7(6,9)3-5/h5-6,9H,2-3H2,1H3	InChI=1S/C7H10O2/c1-4(8)6-5-2-7(6,9)3-5/h5-6,9H,2-3H2,1H3/t5-,6-,7-/m0/s1
