20
gdb 120081	5.66544	0.80509	0.80042	1.388	79.78	-0.23	0.0755	0.3055	1483.1168	0.171248	-403.036794	-403.028538	-403.027594	-403.070275	31.371	
O	 0.0149019034	 1.4744256364	-0.0588131145	-0.42028
C	 0.0446614811	 0.0629866596	 0.086772786	-0.067825
C	-1.3599778974	-0.4644079133	-0.1855854017	-0.219687
C	-1.4484949015	-1.9787004234	-0.0850731847	-0.003366
C	-1.5308255333	-2.6649319284	 1.2897573196	-0.013529
C	-3.0464736892	-2.3544298443	 1.496776385	-0.072803
C	-3.2970396472	-3.8373460956	 1.7374467995	-0.184654
N	-2.2134261414	-3.9136868259	 0.6657197844	-0.165878
C	-2.8231087274	-2.6579367343	-0.0177126132	-0.027867
H	 0.8998141794	 1.8131493751	 0.1046343095	 0.285672
H	 0.7558793932	-0.3970536	-0.6187479928	 0.08656
H	 0.3622693112	-0.2264781052	 1.1019542356	 0.086358
H	-2.0533855109	 0.0117913083	 0.5173992994	 0.105378
H	-1.6596624466	-0.1401344605	-1.1897118922	 0.108192
H	-0.7571302191	-2.4808380917	-0.7730988719	 0.079202
H	-0.7695013663	-2.790565953	 2.0630124285	 0.078059
H	-3.5053345994	-1.4720583391	 1.953976482	 0.068993
H	-2.9908953072	-4.2659510513	 2.6977839044	 0.098864
H	-4.2557088386	-4.2599626176	 1.4181475936	 0.099342
H	-3.5856024427	-2.7705488058	-0.7917918466	 0.079272
71.1115	91.5377	125.0747	243.3201	268.3802	325.6832	349.6467	460.915	584.3848	713.4317	753.9022	808.775	821.7089	846.734	865.6886	898.185	915.78	939.6598	1018.1057	1027.3973	1028.0229	1048.3056	1071.8617	1089.6365	1105.0731	1124.5486	1144.3232	1166.4622	1173.6564	1191.9603	1218.8276	1228.7869	1258.9989	1260.9353	1276.8011	1310.8685	1315.2998	1336.1321	1411.0069	1460.9451	1494.031	1518.6968	1528.3339	2959.8313	2984.9077	3031.3212	3032.272	3036.8015	3051.7277	3076.9621	3086.2549	3091.042	3094.0511	3830.987
OCCC1C2C3CN2C13	OCC[C@H]1[C@H]2[C@@H]3CN2[C@H]13	
InChI=1S/C7H11NO/c9-2-1-4-6-5-3-8(6)7(4)5/h4-7,9H,1-3H2	InChI=1S/C7H11NO/c9-2-1-4-6-5-3-8(6)7(4)5/h4-7,9H,1-3H2/t4-,5-,6-,7+
