21
gdb 122469	3.46456	0.69526	0.6161	1.7114	86.89	-0.2419	0.0493	0.2912	1845.6054	0.179944	-387.033382	-387.023025	-387.022081	-387.069772	37.068	
C	 0.1699923964	 1.3590525279	 0.1097297047	-0.227134
O	-0.1323300697	 0.0075320277	-0.1324113096	-0.229477
C	 0.7054562599	-0.5774638258	-1.1045884946	-0.042597
C	 0.2940816529	-2.0347168529	-1.2841810298	-0.233632
C	 1.1274765778	-2.7355075315	-2.3330972834	-0.002955
C	 2.4710278557	-3.316992077	-1.9939200258	-0.288106
C	 1.31166865	-4.2500203957	-2.3162771581	-0.208279
C	 0.7234849286	-5.0593354571	-1.2896695786	 0.338103
C	 0.2249786213	-5.7485621897	-0.4384319624	-0.472381
H	 1.1991114776	 1.4893244127	 0.4819226851	 0.101447
H	 0.0565228743	 1.9739793335	-0.7978432582	 0.101064
H	-0.5273341138	 1.7210543987	 0.8693697587	 0.125973
H	 0.6215363921	-0.0317380826	-2.0616620583	 0.079314
H	 1.7626719378	-0.5136748562	-0.7935085731	 0.085845
H	 0.3835007181	-2.5527569035	-0.3242505868	 0.119751
H	-0.7666694025	-2.0688314424	-1.559198321	 0.111365
H	 1.0362869938	-2.319650955	-3.3338729866	 0.09056
H	 3.2770121736	-3.2522091069	-2.7161787766	 0.117001
H	 2.7868072131	-3.2801585461	-0.9570465461	 0.127116
H	 1.3472258832	-4.7233539587	-3.2932757968	 0.112262
H	-0.2134839606	-6.3554222693	 0.3141567574	 0.19476
51.0519	74.0714	88.0448	123.0537	159.7484	205.3957	232.0798	301.4713	311.4845	414.7815	456.5775	526.4783	578.523	618.9942	648.8839	768.2861	796.6387	821.5588	873.657	939.7705	963.6021	994.2695	1059.5198	1070.2353	1080.1764	1125.0998	1139.8555	1163.8408	1174.8971	1195.9839	1225.3458	1229.8572	1248.9135	1301.3582	1314.5868	1375.9876	1414.5563	1429.5287	1481.3153	1482.8329	1485.1247	1493.955	1505.4279	1531.698	2234.4972	2939.087	2965.6808	2968.6454	3007.1068	3043.098	3090.7976	3111.3902	3131.8319	3136.629	3146.9822	3226.3488	3505.7196
COCCC1CC1C#C	COCC[C@H]1C[C@H]1C#C	
InChI=1S/C8H12O/c1-3-7-6-8(7)4-5-9-2/h1,7-8H,4-6H2,2H3	InChI=1S/C8H12O/c1-3-7-6-8(7)4-5-9-2/h1,7-8H,4-6H2,2H3/t7-,8+/m1/s1
