17
gdb 28057	5.4627	0.94966	0.81312	1.1777	80.52	-0.1846	0.029	0.2137	1383.0252	0.137938	-414.243262	-414.234533	-414.233589	-414.277371	31.763	
C	-0.0303330612	 1.5144906527	-0.0918446544	-0.499238
C	 0.0011819666	 0.0245110526	-0.0219380564	 0.353645
N	-0.0321560357	-0.7935969823	-1.0562733636	-0.371358
C	 0.0167008511	-2.0605755498	-0.5268138883	 0.349093
N	-0.004600878	-3.139584784	-1.4046231971	-0.376811
C	 0.0360345343	-4.4625171892	-1.0744035099	 0.073485
N	 0.1010565707	-4.8804272469	 0.1329434904	-0.46685
C	 0.0810327994	-2.0284801189	 0.8421442278	-0.17682
N	 0.0695639205	-0.6750768364	 1.1438441722	-0.282313
H	 0.8675860992	 1.9644763575	 0.3475214594	 0.131186
H	-0.0860509446	 1.8132893039	-1.1392596964	 0.155284
H	-0.8985763991	 1.9310806171	 0.4319757178	 0.131167
H	-0.0557314739	-2.8831374329	-2.3765528763	 0.257084
H	 0.0057600501	-5.1008203313	-1.9652614328	 0.086132
H	 0.12077152	-5.8970761905	 0.1458053927	 0.216796
H	 0.1306225534	-2.8095769831	 1.5756153467	 0.158877
H	 0.1059256672	-0.2842624386	 2.0698708383	 0.26064
48.8966	70.1105	169.2528	194.4256	246.0066	279.8368	377.1808	420.3748	487.2301	507.6722	573.9171	662.9313	709.1695	716.1213	739.4491	794.6176	829.4475	972.3335	1007.9895	1030.918	1042.9672	1061.1126	1098.6084	1142.2865	1220.1818	1266.747	1286.5128	1368.9228	1409.5768	1412.5284	1449.9131	1482.5761	1507.3223	1534.7558	1600.4185	1631.3284	1715.6817	3029.0489	3048.7271	3077.1931	3147.92	3332.4604	3515.3583	3658.9034	3668.7484
CC1=NC(NC=N)=CN1	Cc1nc(NC=N)c[nH]1	
InChI=1S/C5H8N4/c1-4-7-2-5(9-4)8-3-6/h2-3H,1H3,(H2,6,8)(H,7,9)	InChI=1S/C5H8N4/c1-4-7-2-5(9-4)8-3-6/h2-3H,1H3,(H2,6,8)(H,7,9)
