18
gdb 117435	5.229	0.62122	0.58025	3.9968	77.45	-0.2489	0.0196	0.2684	1896.4534	0.144138	-439.057732	-439.047081	-439.046136	-439.095802	35.979	
C	-0.1480556318	 1.3788112893	 0.0730931059	-0.223821
O	-0.0406940474	-0.0251412888	 0.0495234768	-0.207625
C	-1.2835530479	-0.6624637009	 0.0477397539	-0.167566
C	-1.0681031371	-2.1731464511	 0.1833322554	 0.402412
O	-0.1543092804	-2.6562531362	 0.8176906468	-0.350974
N	-2.0283709466	-2.9212437749	-0.4395178768	-0.326201
C	-2.0866947276	-4.3682725134	-0.2849946331	-0.289401
C	-3.4190102179	-4.8326914086	 0.0889445873	 0.283715
C	-4.525835781	-5.2059276875	 0.3701738058	-0.443179
H	 0.8679021747	 1.779225395	 0.086200175	 0.135378
H	-0.6725396045	 1.7668971145	-0.8148897434	 0.102835
H	-0.6832967065	 1.7310141001	 0.9691227254	 0.10722
H	-1.903218844	-0.3382499284	 0.9037284665	 0.114414
H	-1.855230524	-0.4285818543	-0.8681875007	 0.086035
H	-2.770305541	-2.4685678324	-0.9478209928	 0.252081
H	-1.7677635699	-4.8697658484	-1.2089309433	 0.141015
H	-1.3473703258	-4.6188828238	 0.4826578712	 0.17924
H	-5.4966382514	-5.5459205602	 0.6344277701	 0.204422
21.1918	45.1281	66.7036	79.6321	179.7194	211.7867	235.6963	286.5621	326.9225	342.5572	393.0934	424.6205	563.3652	619.3927	619.7219	669.9427	744.6535	914.1054	953.4685	1001.1436	1022.9404	1042.7713	1097.8267	1175.8521	1183.1387	1212.8526	1237.0155	1258.1648	1269.7222	1370.8919	1420.982	1474.1439	1486.1443	1487.1475	1492.9741	1517.4867	1529.587	1801.0405	2242.156	2935.3701	2961.118	2969.1871	3012.1391	3012.8704	3083.9667	3121.6478	3505.1205	3645.8148
COCC(=O)NCC#C	COCC(=O)NCC#C	
InChI=1S/C6H9NO2/c1-3-4-7-6(8)5-9-2/h1H,4-5H2,2H3,(H,7,8)	InChI=1S/C6H9NO2/c1-3-4-7-6(8)5-9-2/h1H,4-5H2,2H3,(H,7,8)
