15
gdb 133042	5.10205	1.00553	0.8456	3.562	73.74	-0.2131	-0.0453	0.1678	1276.005	0.113483	-458.142539	-458.134691	-458.133747	-458.175262	28.813	
C	 0.0603334151	 1.4368006744	 0.0895250475	-0.326515
N	-0.0475584235	 0.0105155846	-0.1179001854	-0.350767
C	-1.230864553	-0.6748835055	-0.0414955766	 0.398019
C	-2.4900579999	-0.0419797959	-0.0218285695	-0.098155
N	-3.6210436843	-0.7440563623	 0.0167182409	-0.277002
C	-3.5077100888	-2.0510863013	 0.0404476493	 0.288839
F	-4.6321159033	-2.7655205408	 0.0783414077	-0.076125
C	-2.2781143489	-2.7030877417	 0.0341403686	-0.138266
N	-1.1434497129	-2.0157192335	-0.0043728806	-0.310924
H	 1.112449749	 1.7211108098	 0.0314913658	 0.135751
H	-0.4748888594	 1.9905987815	-0.6908616817	 0.138031
H	-0.3315004417	 1.7603851526	 1.0654314963	 0.125898
H	 0.7642107042	-0.5604321834	 0.0544721056	 0.250409
H	-2.5850353068	 1.0384887607	-0.0384307625	 0.113567
H	-2.2200245357	-3.7872426991	 0.0644341048	 0.12724
78.8492	133.8597	189.634	205.0074	370.185	396.6114	415.0224	449.5874	494.789	554.6473	567.1684	660.0436	770.2703	794.8224	888.2184	898.0913	943.2958	1031.2267	1094.3143	1158.0886	1175.8326	1257.7982	1283.9621	1329.9337	1347.0621	1408.692	1468.8419	1475.6505	1485.0444	1523.2655	1559.6178	1597.4026	1635.4114	2991.7141	3054.5497	3130.0843	3172.8813	3182.8961	3639.0919
CNC1=CN=C(F)C=N1	CNc1cnc(F)cn1	
InChI=1S/C5H6FN3/c1-7-5-3-8-4(6)2-9-5/h2-3H,1H3,(H,7,9)	InChI=1S/C5H6FN3/c1-7-5-3-8-4(6)2-9-5/h2-3H,1H3,(H,7,9)
