18
gdb 124870	3.57626	1.25107	1.2365	0.5536	77.63	-0.2558	-0.0006	0.2552	1103.9576	0.149145	-398.124708	-398.116705	-398.115761	-398.158445	30.016	
C	-0.2253634816	 1.4414770497	 0.3006252216	-0.447537
C	 0.0146327406	-0.0266228968	 0.0209632656	 0.373657
C	 1.3537517708	-0.5134758307	-0.4598944105	-0.290275
C	 0.8773624792	-0.8559282646	 0.9316823933	-0.290126
N	-1.1340884553	-0.701617653	-0.5388236552	 0.078225
N	-2.0878842677	-1.2278525051	 0.2265878878	-0.222398
C	-3.0041945244	-1.6397400992	-0.6501009613	-0.065112
C	-2.5590391284	-1.3270074899	-1.9417252487	-0.0651
N	-1.3728109046	-0.725384148	-1.8484369664	-0.222273
H	 0.6735493669	 1.898692534	 0.7232447048	 0.119996
H	-0.4811255748	 1.9733635023	-0.6210882145	 0.136735
H	-1.0448019207	 1.5695357248	 1.0147616776	 0.136923
H	 1.3587245442	-1.2986955066	-1.2054238317	 0.134525
H	 2.1350528701	 0.228810494	-0.5775182716	 0.120347
H	 1.3289555254	-0.351083691	 1.7782112296	 0.120325
H	 0.5602193171	-1.8726396571	 1.1270758676	 0.134361
H	-3.906600283	-2.130243404	-0.3215280297	 0.123859
H	-3.0175685937	-1.5055392288	-2.9012973383	 0.123866
20.1597	123.5168	200.3769	234.3206	299.5472	318.2888	398.6499	524.3679	551.9881	681.6535	709.9122	774.9762	836.9988	848.003	887.7515	894.671	948.5999	957.556	982.7337	988.2154	1042.0273	1073.4601	1080.8742	1097.1246	1133.0673	1184.7954	1193.5663	1228.7308	1296.1594	1298.9355	1343.5392	1412.5739	1413.5935	1445.3562	1466.6408	1483.2102	1499.1912	1504.5836	1509.9448	3038.8638	3110.1262	3118.8266	3145.9746	3149.402	3231.017	3243.7403	3261.0584	3278.633
CC1(CC1)N1N=CC=N1	CC1(CC1)n1nccn1	
InChI=1S/C6H9N3/c1-6(2-3-6)9-7-4-5-8-9/h4-5H,2-3H2,1H3	InChI=1S/C6H9N3/c1-6(2-3-6)9-7-4-5-8-9/h4-5H,2-3H2,1H3
