17
gdb 77320	2.98663	1.26664	0.93963	3.6961	74.09	-0.265	0.0058	0.2709	1210.3109	0.135212	-421.844504	-421.835837	-421.834892	-421.877974	32.049	
C	-0.4705869199	 1.3373647687	-0.041578134	-0.408522
C	 0.107460355	-0.0663570435	 0.091543336	-0.142759
C	 0.8988815843	-0.609150884	-1.1192918255	-0.211257
C	 1.8372428562	-1.6274920486	-0.431643885	-0.100262
O	 2.0966787398	-1.0836350093	 0.8690763045	-0.220555
C	 1.1272392632	-0.1934492206	 1.2242602594	 0.43577
O	 1.1293121783	 0.3701676784	 2.2786840186	-0.337003
C	 0.0979572817	-1.1745920167	-2.1903011009	 0.307933
C	-0.5726846789	-1.6536051263	-3.0651266524	-0.433076
H	 0.3084802597	 2.0585509177	-0.3088887642	 0.125492
H	-1.2448313425	 1.3648577359	-0.8128394852	 0.129139
H	-0.905892932	 1.6530738029	 0.9094066349	 0.146654
H	-0.698472513	-0.7761656469	 0.3236814876	 0.122588
H	 1.513401343	 0.209205426	-1.5179152974	 0.118793
H	 1.3522957694	-2.6044342154	-0.3291201199	 0.127493
H	 2.7916127246	-1.7525264949	-0.9453034069	 0.135744
H	-1.1618453789	-2.0718733734	-3.8436668298	 0.203828
76.2345	125.8876	172.9502	202.5264	228.731	252.3468	352.2676	438.3835	476.4212	547.6272	576.1775	639.2191	647.2951	654.8621	710.4921	816.2254	846.1643	982.5357	1023.1568	1046.3995	1061.516	1078.832	1111.4647	1146.4702	1182.0566	1230.9455	1257.9909	1304.6194	1342.4936	1355.3814	1400.3934	1411.6756	1494.4952	1496.4461	1520.4266	1884.0091	2240.8841	3014.3412	3028.7498	3045.5579	3051.0028	3115.6766	3124.6144	3132.872	3502.5014
CC1C(COC1=O)C#C	C[C@H]1[C@@H](COC1=O)C#C	
InChI=1S/C7H8O2/c1-3-6-4-9-7(8)5(6)2/h1,5-6H,4H2,2H3	InChI=1S/C7H8O2/c1-3-6-4-9-7(8)5(6)2/h1,5-6H,4H2,2H3/t5-,6+/m0/s1
