15
gdb 81680	3.8538	1.3479	1.2685	5.1011	60.74	-0.2809	0.0309	0.3118	987.3291	0.11349	-494.917105	-494.910104	-494.90916	-494.94845	27.375	
O	 0.0206858326	 1.2733316678	-0.1724882511	-0.431603
C	 0.0078111667	-0.1219164444	-0.0154417306	 0.084029
C	 0.097917748	-0.6057403709	 1.465318554	 0.069354
C	-1.4062183429	-0.278926169	 1.6010824213	-0.274828
C	-1.4566923507	-0.61745815	 0.0934866483	 0.105731
O	-1.4568910114	-2.0457594485	-0.0690066953	-0.268852
C	-0.5568973527	-2.7590710917	 0.657416912	 0.473103
O	-0.4969560271	-3.9470822114	 0.6002701617	-0.359574
O	 0.2748507497	-2.0330279614	 1.4514920283	-0.266611
H	 0.923122465	 1.586366193	-0.0494963815	 0.296846
H	 0.6471773432	-0.6464934059	-0.7363143128	 0.09668
H	 0.8435759703	-0.203942423	 2.151100623	 0.098128
H	-2.0031793367	-0.8853962533	 2.2835449832	 0.127233
H	-1.5659863453	 0.7852776814	 1.7694806784	 0.139338
H	-2.2245230486	-0.2196473727	-0.5673557691	 0.111027
115.4937	269.5589	280.7924	299.0412	321.9602	442.8855	449.1356	471.2164	568.6123	680.954	772.623	808.1474	880.1349	896.1942	926.7724	942.636	978.3422	991.871	1098.0378	1107.2479	1121.2345	1133.292	1159.1146	1166.7409	1208.207	1249.7618	1283.5248	1305.7766	1350.4828	1371.7981	1421.7112	1467.0326	1901.6973	3035.4762	3093.8603	3122.471	3142.5711	3166.9128	3812.8208
OC1C2CC1OC(=O)O2	O[C@H]1[C@H]2C[C@@H]1OC(=O)O2	
InChI=1S/C5H6O4/c6-4-2-1-3(4)9-5(7)8-2/h2-4,6H,1H2	InChI=1S/C5H6O4/c6-4-2-1-3(4)9-5(7)8-2/h2-4,6H,1H2/t2-,3+,4+
