21
gdb 32641	4.81024	0.84677	0.76809	1.5571	88.72	-0.1643	0.0519	0.2162	1569.6498	0.183152	-383.296372	-383.286602	-383.285658	-383.331954	35.738	
C	 0.0430184234	 1.5088191756	-0.081573781	-0.366199
C	-0.0257515776	-0.0169328936	 0.0394175525	-0.154302
N	-1.3804891453	-0.5353394466	 0.0514961969	 0.035185
C	-2.1196882856	-0.8117773608	 1.1652473375	-0.087116
C	-3.389166121	-1.1828974073	 0.7744350876	-0.259659
C	-3.4264614834	-1.1198788473	-0.6499038205	 0.284972
N	-4.5347121966	-1.3723305131	-1.472191302	-0.385336
C	-5.589329727	-2.2191054767	-0.9417391793	-0.317776
C	-2.1719907828	-0.7153039112	-1.0675836229	-0.216256
H	 1.0854910889	 1.8432354398	-0.0915048338	 0.114646
H	-0.4359301079	 1.8482373263	-1.0043356913	 0.129651
H	-0.4660190192	 1.9871899843	 0.7600970605	 0.12929
H	 0.5141732891	-0.4857413422	-0.791071744	 0.114456
H	 0.4630346854	-0.3460170827	 0.9618050826	 0.115267
H	-1.6831985696	-0.7309060193	 2.1486155888	 0.108134
H	-4.188698731	-1.4816482436	 1.4332687494	 0.087121
H	-4.2576842776	-1.6524460031	-2.402468109	 0.224612
H	-6.0878673431	-1.7158603697	-0.1064629298	 0.128863
H	-6.340003436	-2.3820697184	-1.7196527589	 0.113987
H	-5.2392859499	-3.2007386513	-0.5807616646	 0.103155
H	-1.7797401931	-0.543169449	-2.0573500588	 0.097307
41.2789	53.4934	101.9949	177.5878	196.4388	234.1123	293.5336	342.8389	396.6272	460.004	554.2959	595.2838	626.2179	668.6729	681.2562	724.4677	739.172	776.5474	792.9439	946.6838	976.0395	1025.199	1071.1588	1094.417	1099.4216	1126.2152	1149.8643	1158.5146	1221.095	1265.3644	1298.8657	1374.7481	1387.6739	1403.568	1407.0591	1449.1835	1466.321	1478.4513	1485.2705	1488.1412	1490.6363	1506.6173	1521.8603	1547.5338	1624.2254	2962.4104	3039.1571	3040.6287	3061.4738	3081.5859	3109.2116	3113.8658	3124.2959	3245.4214	3251.2289	3265.9478	3578.3724
CCN1C=CC(NC)=C1	CCn1ccc(NC)c1	
InChI=1S/C7H12N2/c1-3-9-5-4-7(6-9)8-2/h4-6,8H,3H2,1-2H3	InChI=1S/C7H12N2/c1-3-9-5-4-7(6-9)8-2/h4-6,8H,3H2,1-2H3
