17
gdb 85842	2.01677	1.5626	1.39574	1.4487	69.71	-0.2429	0.0163	0.2592	1041.8796	0.133007	-458.904786	-458.895552	-458.894608	-458.938105	35.43	
O	 0.0041894176	 1.3413439142	-0.258262631	-0.444281
C	 0.0431878451	-0.0666976341	-0.0628756574	 0.074192
C	 0.2745700448	-0.5196125959	 1.3964211486	-0.305018
C	-1.2686442026	-0.5832000721	 1.6090659341	 0.175466
O	-1.6698573197	-1.7196423467	 2.3418310293	-0.461864
C	-1.8197464655	 0.6527550113	 2.1576654863	 0.26636
C	-2.2886515599	 1.6734586158	 2.5913443153	-0.469042
C	-1.396326718	-0.6504874284	 0.0258227867	 0.08219
O	-2.4013229723	 0.033753806	-0.6435622101	-0.429239
H	-0.2963221391	 1.7566618239	 0.55991844	 0.290421
H	 0.7036182579	-0.4646425755	-0.83451472	 0.094085
H	 0.6871936351	-1.5295907677	 1.4497696795	 0.130119
H	 0.8456497403	 0.1462030242	 2.0454381436	 0.117982
H	-2.624484392	-1.6744365806	 2.4680325369	 0.2881
H	-2.7088526291	 2.5659153002	 2.986513405	 0.207538
H	-1.4314649736	-1.7114515476	-0.2430819632	 0.096949
H	-2.0565319191	 0.9276731331	-0.7856402436	 0.286041
103.5124	131.0962	185.3909	232.4486	278.0475	285.0126	315.483	342.1353	368.7596	439.6063	510.8814	522.9769	595.9797	613.3849	638.346	680.9286	687.3847	795.7816	828.56	863.6463	924.4231	988.6172	1004.5243	1114.2996	1122.1719	1134.8318	1196.0476	1232.7047	1240.0945	1264.1715	1316.2863	1331.5891	1356.4391	1427.0029	1440.2854	1469.815	2217.4212	3062.6471	3076.9998	3105.0302	3139.6687	3495.5811	3725.7754	3773.7211	3803.7235
OC1CC(O)(C#C)C1O	O[C@H]1C[C@@](O)(C#C)[C@H]1O	
InChI=1S/C6H8O3/c1-2-6(9)3-4(7)5(6)8/h1,4-5,7-9H,3H2	InChI=1S/C6H8O3/c1-2-6(9)3-4(7)5(6)8/h1,4-5,7-9H,3H2/t4-,5-,6-/m0/s1
