16
gdb 60674	1.89603	1.57154	1.24231	2.1837	69.01	-0.2765	-0.0579	0.2186	1090.2877	0.121182	-437.876879	-437.867488	-437.866544	-437.911803	32.557	
C	-0.2739274436	 1.480236744	-0.1946888162	-0.422824
C	-0.0717251116	-0.0384274988	 0.0711231328	-0.059378
C	 0.561695472	-0.1726083252	 1.4729046693	 0.155658
O	 1.726565864	-0.3935778422	 1.6531466598	-0.236104
C	-1.3774695436	-0.7042895099	 0.0965049485	 0.274916
N	-2.4037049934	-1.2317066339	 0.1616568183	-0.337247
C	 0.8552016829	-0.6265372812	-0.9922732532	 0.088704
C	 0.6221846024	-1.907872298	-1.6638426766	-0.192623
O	 0.3414704087	-0.6601066826	-2.3152642976	-0.242387
H	 0.6965245592	 1.9834563349	-0.1865911182	 0.14435
H	-0.7371087875	 1.6125191968	-1.1742949409	 0.169904
H	-0.9156481973	 1.933088924	 0.5652703694	 0.143319
H	-0.1476693312	-0.0040110532	 2.3101241051	 0.11659
H	 1.8764581445	-0.263326686	-0.8965469319	 0.123165
H	 1.4726021117	-2.4583301237	-2.0609237983	 0.128983
H	-0.2523959871	-2.5020906352	-1.4101692904	 0.144976
50.8174	72.6625	143.9204	173.6975	194.9301	230.6362	258.7253	286.964	379.5658	441.4416	529.4443	593.9964	626.9859	676.9692	877.1784	895.0402	909.7955	949.7354	995.5442	1025.6177	1080.726	1114.7932	1163.9848	1173.7988	1182.5824	1239.4584	1300.8652	1395.9993	1410.6569	1430.0109	1488.601	1495.0319	1527.1195	1838.1286	2355.3916	2917.9088	3051.2356	3101.0381	3131.4742	3139.078	3145.8143	3195.3989
CC(C=O)(C#N)C1CO1	C[C@@](C=O)(C#N)[C@H]1CO1	
InChI=1S/C6H7NO2/c1-6(3-7,4-8)5-2-9-5/h4-5H,2H2,1H3	InChI=1S/C6H7NO2/c1-6(3-7,4-8)5-2-9-5/h4-5H,2H2,1H3/t5-,6+/m1/s1
