14
gdb 125763	2.0185	1.9077	0.98719	2.648	71.85	-0.2378	-0.0123	0.2255	1115.8583	0.101098	-432.895819	-432.887407	-432.886463	-432.928858	30.47	
C	-0.0482478173	 1.4951460994	 0.0045582448	-0.500732
C	-0.0035833864	 0.0037367868	 0.0240268968	 0.335389
N	-0.0235777937	-0.6752376396	-1.0911004958	-0.214006
O	 0.030541043	-2.0484178329	-0.7014810218	-0.216593
C	 0.0810109397	-2.121648556	 0.6233467332	 0.448579
N	 0.1850260294	-3.3467255218	 1.1836280803	-0.5968
C	 0.0605533005	-0.8526342228	 1.1719715221	-0.100447
C	 0.0883581179	-0.5250653947	 2.539420006	 0.169333
N	 0.1075710475	-0.2788788198	 3.6732114801	-0.358813
H	 0.840616495	 1.9131837752	 0.4872431683	 0.15315
H	-0.0971951478	 1.8538428071	-1.0246386506	 0.156212
H	-0.921432957	 1.8617352763	 0.5532290099	 0.152407
H	-0.0664937987	-4.1402981618	 0.6162384402	 0.282682
H	-0.001700982	-3.4223257956	 2.1706140565	 0.28964
116.527	119.8632	152.7895	205.4494	261.4554	363.4858	369.5685	395.6465	415.115	543.2463	548.6485	587.7076	639.8328	657.058	756.4077	794.0144	878.0963	1028.1998	1051.8928	1066.9827	1094.4193	1275.7967	1371.0572	1417.4436	1471.9904	1478.1334	1492.4148	1576.4915	1621.8502	1677.791	2331.5957	3048.0458	3107.2508	3148.1167	3598.0033	3714.4042
CC1=NOC(N)=C1C#N	Cc1noc(N)c1C#N	
InChI=1S/C5H5N3O/c1-3-4(2-6)5(7)9-8-3/h7H2,1H3	InChI=1S/C5H5N3O/c1-3-4(2-6)5(7)9-8-3/h7H2,1H3
