18
gdb 45306	3.88264	1.31776	1.07262	2.8267	77.11	-0.2077	-0.0186	0.1891	1108.5792	0.14933	-401.973149	-401.965783	-401.964839	-402.005467	28.683	
O	 0.0610140734	 0.1185169837	-0.8567367941	-0.300168
C	-0.0231670146	 1.191690188	-0.3229686277	 0.383609
C	-1.2962662728	 2.0083546679	-0.0997800874	-0.345541
C	-0.779169371	 3.4429519989	 0.1331153778	-0.020354
C	-1.4195038077	 4.2214152826	 1.2484239071	-0.086885
C	-0.5598814064	 4.4346266446	 2.2398877363	-0.072319
C	 0.7857900888	 3.8307433292	 1.9358767007	-0.213986
N	 0.6347647632	 3.309327942	 0.5754804991	-0.072106
C	 1.1491049262	 1.9900655469	 0.2682025929	-0.280124
H	-1.9920091612	 1.8907431162	-0.9325977577	 0.129249
H	-1.7808830159	 1.6196958493	 0.8050073078	 0.132301
H	-0.8335761361	 3.9987200308	-0.8161099915	 0.086539
H	-2.4494325849	 4.5540679845	 1.2075097647	 0.104111
H	-0.7627812087	 4.9711415333	 3.1587526844	 0.103883
H	 1.594131228	 4.5754963647	 2.0037310944	 0.108784
H	 1.0448856311	 3.0347588749	 2.6579673177	 0.094506
H	 1.5132008972	 1.4612848432	 1.1628948215	 0.120845
H	 1.9787942515	 1.9948325594	-0.452229746	 0.127655
68.229	95.1104	245.6995	322.9982	408.3505	445.0248	513.3005	537.8536	593.7848	669.901	731.6945	778.1602	804.3043	809.4438	853.2591	937.3278	959.6826	966.2119	1030.3963	1052.1884	1061.7938	1116.8418	1134.1954	1156.8862	1168.6832	1183.8722	1216.1626	1240.7945	1248.6788	1309.757	1321.985	1341.7602	1373.4815	1382.6066	1450.1361	1481.6774	1523.8683	1690.8746	1855.3097	2931.546	2965.4425	2977.7027	2990.1692	3019.2864	3038.3295	3120.1971	3199.5	3223.8252
O=C1CC2C=CCN2C1	O=C1C[C@H]2C=CCN2C1	
InChI=1S/C7H9NO/c9-7-4-6-2-1-3-8(6)5-7/h1-2,6H,3-5H2	InChI=1S/C7H9NO/c9-7-4-6-2-1-3-8(6)5-7/h1-2,6H,3-5H2/t6-/m1/s1
