19
gdb 44602	2.74664	1.82802	1.44895	2.8756	76.88	-0.2336	-0.0124	0.2212	957.0577	0.162556	-385.924303	-385.917466	-385.916522	-385.955567	28.272	
O	-0.01409303	 0.0574786553	 0.3237994908	-0.320496
C	-0.0479137235	 1.2305017522	 0.0595416419	 0.41032
C	-1.3220049987	 2.0552676783	-0.2003010563	-0.350641
C	-0.8299084292	 3.3910337597	-0.7199162323	-0.052373
C	 0.0352339523	 4.2897066919	 0.148618284	-0.038792
C	 0.4135830505	 3.8482209285	 1.5641566017	-0.243179
C	 1.4690029385	 2.733032889	 1.3599897034	-0.203905
C	 1.1717134665	 2.1603492988	-0.0561195712	-0.148275
C	 0.683120155	 3.3689431183	-0.8603484941	-0.087848
H	-1.9386439284	 1.5326291727	-0.9387527682	 0.1293
H	-1.9151139515	 2.1076670639	 0.7208366652	 0.12879
H	-1.4255030884	 3.8897138944	-1.4762326982	 0.087854
H	-0.0343081851	 5.3518805135	-0.0583371827	 0.084458
H	 0.8208786863	 4.6849554643	 2.1378596611	 0.103736
H	-0.4544336417	 3.4806301388	 2.1239824594	 0.105402
H	 2.4725119288	 3.1708550832	 1.3493673668	 0.105546
H	 1.4513521972	 1.9619101334	 2.1359328917	 0.113147
H	 2.0228229724	 1.6226407922	-0.4756223666	 0.090685
H	 1.200560039	 3.7111135917	-1.7472834462	 0.086269
81.2487	221.6795	252.3535	422.8089	434.9195	498.6597	608.4996	641.0062	677.5511	713.5989	745.3704	787.8885	799.363	856.138	893.8273	924.7832	938.1948	951.7692	968.6102	1002.1097	1021.4902	1046.4777	1063.7448	1095.664	1141.8319	1155.1699	1173.8846	1189.295	1200.6712	1254.7484	1273.8004	1279.6007	1291.7464	1322.1611	1338.7484	1355.1811	1402.8622	1454.459	1489.8592	1508.6488	1843.4474	3035.8873	3040.0469	3045.5793	3082.2764	3084.9347	3099.3763	3110.5353	3164.4717	3173.0504	3193.7161
O=C1CC2C3CCC1C23	O=C1C[C@H]2[C@H]3CC[C@@H]1[C@@H]23	
InChI=1S/C8H10O/c9-7-3-6-4-1-2-5(7)8(4)6/h4-6,8H,1-3H2	InChI=1S/C8H10O/c9-7-3-6-4-1-2-5(7)8(4)6/h4-6,8H,1-3H2/t4-,5+,6+,8+/m1/s1
