20
gdb 10781	2.69165	1.92637	1.50906	1.3103	70.1	-0.2442	0.0509	0.2951	944.6466	0.176048	-386.130568	-386.121486	-386.120542	-386.163616	34.086	
C	-0.8168701047	 1.227795323	 0.1721946766	-0.408332
C	-0.0291471774	-0.0686666196	 0.0456579943	 0.017885
C	 0.7874335168	-0.3930544592	-1.2539189323	-0.058838
C	 1.2328330908	 0.8001369513	-2.0959867857	-0.411974
C	 1.9040687134	-0.9862840814	-0.327245854	 0.13871
O	 3.25102078	-0.6986436758	-0.5893357237	-0.438863
C	 1.2607509332	-0.2495639752	 0.8877245972	 0.035474
O	 1.9002715213	 1.0052918756	 1.1112538746	-0.432908
H	-0.180483944	 2.1030621812	 0.0273559082	 0.131533
H	-1.6255903274	 1.2641541428	-0.565441257	 0.111145
H	-1.2697025403	 1.3109795656	 1.1660305392	 0.111827
H	-0.6901312019	-0.9144651076	 0.265849104	 0.073091
H	 0.312406485	-1.1331573573	-1.9056541249	 0.062363
H	 1.6785270794	 1.590890232	-1.4855232084	 0.122865
H	 1.9769042643	 0.4858682945	-2.834361669	 0.121948
H	 0.3858655823	 1.2368679853	-2.6347219969	 0.111792
H	 1.82115482	-2.0732478158	-0.2393182808	 0.082104
H	 3.3497377513	 0.249533618	-0.4339935632	 0.278097
H	 1.1667273831	-0.8025772323	 1.8302234113	 0.059496
H	 2.6207876146	 0.8577323447	 1.7315612005	 0.292584
88.8579	159.0559	196.7897	219.608	225.8826	248.3475	260.4954	263.7903	437.5403	494.2588	504.9786	536.5592	603.7897	745.7923	775.8264	806.8347	862.4895	894.9933	979.8315	1011.5066	1030.126	1047.9236	1116.4119	1149.1581	1165.7081	1176.6229	1179.1892	1227.7436	1261.2327	1279.9614	1293.9931	1312.6818	1362.5628	1372.6572	1407.7802	1408.2236	1427.8587	1443.4403	1487.5015	1498.3644	1500.3908	1514.4141	3018.8815	3034.6651	3037.9407	3039.7376	3050.4141	3075.3658	3094.8582	3104.4187	3112.3135	3130.5812	3768.8663	3826.7061
CC1C(C)C(O)C1O	C[C@H]1[C@@H](C)[C@@H](O)[C@H]1O	
InChI=1S/C6H12O2/c1-3-4(2)6(8)5(3)7/h3-8H,1-2H3	InChI=1S/C6H12O2/c1-3-4(2)6(8)5(3)7/h3-8H,1-2H3/t3-,4+,5-,6+
