20
gdb 62594	2.96669	1.78696	1.72449	1.4382	79.73	-0.2215	0.0749	0.2964	925.7109	0.171521	-365.963617	-365.956186	-365.955242	-365.994774	31.104	
C	 0.0590710321	 1.5081456822	 0.0219050549	-0.419447
C	-0.0226013266	-0.0187886238	-0.0268957136	 0.290049
C	-1.472832856	-0.5057984575	-0.0117868356	-0.419452
C	 0.7898750658	-0.6176055579	-1.1739654666	-0.09211
C	 2.2272571829	-0.7651585171	-0.7397332474	-0.107515
C	 1.3093562804	-1.9723056217	-0.7600198953	-0.107481
C	 1.2251133396	-1.9165319186	 0.7947411142	-0.075047
C	 2.1259573022	-0.732359445	 0.8146748179	-0.074995
N	 0.6984500499	-0.5867216216	 1.1364882622	-0.128048
H	 1.1010588608	 1.8414135809	 0.0244981095	 0.116122
H	-0.4384572211	 1.9515563472	-0.8466754221	 0.10818
H	-0.4253262129	 1.8891281786	 0.9256248966	 0.120958
H	-2.019062076	-0.1260266664	-0.8812619279	 0.10818
H	-1.5157084067	-1.5987344469	-0.0333507301	 0.116118
H	-1.9837323785	-0.1600684968	 0.8915112029	 0.12096
H	 0.5532493828	-0.4202671307	-2.2129774729	 0.084741
H	 3.0946396814	-0.5448854165	-1.3447626997	 0.088772
H	 1.3388913914	-2.8539236038	-1.383566584	 0.088782
H	 1.098343832	-2.744294641	 1.4805457265	 0.090612
H	 2.8785984565	-0.4041493036	 1.5199382506	 0.09062
184.2931	202.2007	237.5918	244.7198	327.1551	357.6844	551.336	600.5049	604.4512	699.2461	732.7016	774.9928	801.2302	803.4313	865.9309	877.8689	898.6213	916.7287	934.9851	947.2799	963.2191	982.4067	1005.3325	1006.1951	1024.0698	1038.5192	1044.4277	1061.5696	1179.9089	1198.3588	1212.3445	1224.2997	1241.6662	1261.4941	1271.4685	1317.1927	1380.8108	1397.0888	1415.5329	1479.8932	1484.7535	1497.8749	1505.4879	3035.0163	3039.5411	3105.0349	3108.978	3113.2003	3115.9131	3186.0336	3186.2518	3198.7219	3215.9459	3227.666
CC1(C)C2C3C2C2C3N12	CC1(C)[C@H]2[C@@H]3[C@H]2[C@H]2[C@@H]3N12	
InChI=1S/C8H11N/c1-8(2)5-3-4(5)7-6(3)9(7)8/h3-7H,1-2H3	InChI=1S/C8H11N/c1-8(2)5-3-4(5)7-6(3)9(7)8/h3-7H,1-2H3/t3-,4+,5-,6+,7-,9?
