18
gdb 99683	2.75173	1.16331	0.96329	3.3875	71.44	-0.265	0.0241	0.2891	1258.6827	0.147222	-439.072535	-439.063237	-439.062293	-439.107595	32.605	
O	 0.1483227086	 1.3728250722	-0.1384569282	-0.418241
C	 0.0492332811	-0.0237750486	 0.0166738216	-0.070452
C	-1.4203893476	-0.5147847882	 0.0784432358	-0.185015
C	-2.1201735824	-0.1092377581	-1.1435602301	 0.273945
N	-2.6476102947	 0.2311364116	-2.1145210986	-0.339574
C	-1.4879600139	-2.0330628757	 0.294355599	 0.142835
C	-2.8346625093	-2.763624604	 0.101502185	-0.314632
C	-2.0876686871	-3.540968983	-1.00234228	-0.058517
O	-0.8854508236	-2.7599625357	-0.7927701048	-0.288894
H	-0.1479126847	 1.5985312548	-1.0274440479	 0.29898
H	 0.5702661186	-0.5746927584	-0.7764730539	 0.131554
H	 0.5286126469	-0.2657124831	 0.9702580079	 0.119596
H	-1.9102470685	-0.0168243011	 0.925140878	 0.133238
H	-0.9854224178	-2.2558529701	 1.2463655158	 0.086889
H	-3.1747603575	-3.3503562683	 0.9551314051	 0.118161
H	-3.6497481087	-2.1326450113	-0.2558984102	 0.133899
H	-1.916925312	-4.603765685	-0.7969228592	 0.109931
H	-2.4716340675	-3.4238372979	-2.0203979452	 0.126296
64.2488	74.03	105.5338	139.1404	169.0515	211.5627	337.5823	364.7715	373.0422	426.1264	584.6889	666.16	761.4631	796.9392	827.8263	895.2287	951.4117	973.2231	1000.5736	1028.2065	1052.5358	1088.8006	1116.8959	1127.3287	1168.9353	1197.3215	1218.966	1245.1636	1266.5308	1295.7999	1331.3741	1365.6163	1382.4754	1395.8782	1422.1076	1489.2427	1507.4231	1527.7566	2352.0435	3001.2601	3028.232	3034.2972	3042.2969	3084.2135	3088.0088	3092.2973	3145.3372	3804.1593
OCC(C#N)C1CCO1	OC[C@@H](C#N)[C@H]1CCO1	
InChI=1S/C6H9NO2/c7-3-5(4-8)6-1-2-9-6/h5-6,8H,1-2,4H2	InChI=1S/C6H9NO2/c7-3-5(4-8)6-1-2-9-6/h5-6,8H,1-2,4H2/t5-,6-/m1/s1
