18
gdb 55324	2.47284	1.33478	0.95892	3.8516	79.99	-0.2389	0.0257	0.2646	1250.8059	0.145474	-401.930967	-401.921326	-401.920382	-401.966387	33.937	
C	-0.0998436667	 1.5364431375	 0.1414164522	-0.489845
C	 0.0129839989	 0.0214165174	 0.1923922441	 0.365798
O	 0.9866862812	-0.5689637897	 0.6217193763	-0.359054
N	-1.0716511705	-0.6533865329	-0.2936210478	-0.055878
C	-2.4786054888	-0.2746461624	-0.473856246	-0.177363
C	-2.8521860644	-1.7805173089	-0.4128655738	-0.261653
C	-1.3421741759	-2.0918219499	-0.1217783405	-0.161391
C	-0.6689776467	-2.9878510602	-1.0480604009	 0.349853
C	-0.152202766	-3.7498408138	-1.8201040227	-0.442593
H	 0.8778446621	 1.9642088374	 0.3616062444	 0.149983
H	-0.4445271569	 1.8828148462	-0.8375585427	 0.135139
H	-0.8171829497	 1.8926908417	 0.8895508618	 0.137225
H	-2.8845023466	 0.3312336016	 0.3446514248	 0.114975
H	-2.6911174404	 0.2294829125	-1.422565275	 0.120296
H	-3.5342870146	-2.0618024294	 0.3888694981	 0.122856
H	-3.202668199	-2.1959734903	-1.3564628885	 0.130322
H	-1.1494666102	-2.416253706	 0.9078959676	 0.120377
H	 0.3276913744	-4.415542621	-2.4941238813	 0.200952
66.3948	72.6033	89.3612	124.9084	144.5232	210.2146	246.4323	357.4233	484.8604	519.2801	571.0919	607.7829	624.2591	657.4427	663.6559	766.034	825.3357	904.449	950.6373	966.1215	1036.5979	1051.3998	1079.9884	1118.157	1148.6465	1178.3556	1219.0955	1247.1465	1268.8632	1320.0814	1366.5314	1375.7124	1417.1394	1470.2198	1481.7934	1487.8409	1523.9841	1773.4853	2239.6219	3024.869	3034.2279	3040.4443	3066.9617	3101.3448	3103.5686	3160.5608	3162.2776	3503.9843
CC(=O)N1CCC1C#C	CC(=O)N1CC[C@H]1C#C	
InChI=1S/C7H9NO/c1-3-7-4-5-8(7)6(2)9/h1,7H,4-5H2,2H3	InChI=1S/C7H9NO/c1-3-7-4-5-8(7)6(2)9/h1,7H,4-5H2,2H3/t7-/m1/s1
