20
gdb 121304	4.39278	0.82395	0.72473	1.3733	76.24	-0.2473	0.0248	0.2722	1548.53	0.172095	-440.29688	-440.28785	-440.286906	-440.331308	33.041	
O	 0.1145070431	 1.4283362497	 0.082246362	-0.416828
C	 0.0767050238	 0.0101922257	 0.0438205371	-0.071294
C	-1.3553533476	-0.5328223133	 0.0212637771	-0.220862
C	-1.4348138291	-2.0527284531	 0.064514784	 0.133459
C	-2.8558671015	-2.6071269998	 0.1194167514	-0.2406
C	-2.8046806742	-4.1352001322	 0.0210809867	-0.164257
N	-1.9243046231	-4.613848272	-1.0418773665	-0.264848
C	-1.0565319708	-3.8163342195	-1.4963242123	 0.131005
O	-0.7625066152	-2.5473924208	-1.1164765011	-0.244995
H	-0.2096015257	 1.7544851638	-0.7631691003	 0.282112
H	 0.6428085927	-0.3881383439	-0.808783573	 0.1089
H	 0.5850142404	-0.3238107271	 0.9556922228	 0.109646
H	-1.8991856417	-0.126565517	 0.8818406359	 0.110026
H	-1.8702161951	-0.1809334539	-0.8828104175	 0.096422
H	-0.8695826831	-2.4262896386	 0.9319557273	 0.087944
H	-3.3465543673	-2.2837060353	 1.0432172689	 0.105591
H	-3.430154949	-2.1966480978	-0.719904209	 0.111277
H	-2.4696859228	-4.5711187522	 0.9720515034	 0.112315
H	-3.8051838634	-4.5421771504	-0.1614642534	 0.113068
H	-0.4069627904	-4.110210732	-2.3194071636	 0.121918
76.0843	91.4169	105.3692	158.2919	230.44	292.4756	318.295	359.1756	444.3223	507.9433	540.2144	560.4235	768.7153	791.7915	843.0882	886.0888	938.2567	964.8193	987.5101	1000.2209	1036.8309	1074.8635	1096.9547	1108.7691	1129.9003	1159.1623	1187.43	1235.9795	1252.8014	1293.31	1315.5253	1347.2288	1366.2485	1384.6633	1393.2213	1409.8057	1416.415	1422.6102	1471.4686	1480.769	1493.3034	1514.2651	1737.255	2989.4628	3015.3533	3017.78	3022.834	3036.3816	3060.1895	3061.3102	3081.8995	3089.401	3154.1831	3818.2801
OCCC1CCN=CO1	OCC[C@H]1CCN=CO1	
InChI=1S/C6H11NO2/c8-4-2-6-1-3-7-5-9-6/h5-6,8H,1-4H2	InChI=1S/C6H11NO2/c8-4-2-6-1-3-7-5-9-6/h5-6,8H,1-4H2/t6-/m1/s1
