16
gdb 19742	5.22882	2.12612	2.12611	0.	71.83	-0.2187	-0.0206	0.1981	705.9907	0.133295	-309.418066	-309.41272	-309.411776	-309.446951	23.515	
C	-0.0222352414	 1.4848926217	-0.0222355982	-0.103719
C	 1.2696877604	 1.8206860111	-0.0336592424	-0.103722
C	 1.99012685	 0.474352171	 0.0183200154	-0.054033
C	 1.1588754333	-0.4429858026	-0.9722685096	-0.054032
C	 1.5333930493	-1.8651746289	-0.5581868619	-0.103721
C	 1.5317723862	-1.8133774526	 0.7757047762	-0.10372
C	 1.1586193471	-0.3628156205	 1.0773248329	-0.054032
C	 0.0049981402	-0.0415235565	 0.0382463095	-0.054032
H	-0.9023576238	 2.1121951478	-0.0476581569	 0.099852
H	 1.7324416712	 2.7970231027	-0.0710164109	 0.099853
H	 3.0807779182	 0.4393971602	 0.0200031192	 0.057901
H	 1.0815641631	-0.1856324385	-2.0298773764	 0.0579
H	 1.7428923458	-2.6939211459	-1.2200477428	 0.099852
H	 1.7396386573	-2.5882707009	 1.5003443758	 0.099852
H	 1.080699947	-0.0237278753	 2.1115841339	 0.0579
H	-0.9304205438	-0.6030095727	 0.0599130662	 0.0579
352.316	352.3164	449.3778	574.0669	620.2829	639.4279	639.4373	749.1101	749.1104	865.6272	908.3522	908.3538	908.8639	915.9646	918.8747	938.6355	938.6366	954.8146	974.3198	1005.9882	1063.5479	1118.5767	1151.5697	1185.5509	1191.3242	1191.3242	1224.8649	1231.1126	1231.1129	1313.8277	1318.2999	1318.3004	1631.0836	1638.6918	3101.8849	3105.0989	3105.0989	3114.982	3213.7371	3213.7372	3241.07	3241.0747
C1=CC2C3C=CC2C13	C1=C[C@@H]2[C@H]3C=C[C@@H]2[C@@H]13	
InChI=1S/C8H8/c1-2-6-7-3-4-8(6)5(1)7/h1-8H	InChI=1S/C8H8/c1-2-6-7-3-4-8(6)5(1)7/h1-8H/t5-,6+,7-,8+
