21
gdb 40275	2.95066	1.40143	1.07854	1.0933	86.68	-0.2208	0.0243	0.2451	1185.9758	0.183933	-387.080422	-387.072258	-387.071314	-387.113149	32.658	
C	-0.4508906204	 1.4845947569	 0.1103596088	-0.317237
C	 1.0501026165	 1.3569896557	 0.161888759	-0.318313
C	 0.1693801455	 0.1152816164	 0.0206462423	 0.398422
O	-0.0233412454	-0.6269010193	 1.1869312241	-0.296024
C	 0.9270958551	-1.6497185202	 1.4508150953	-0.090155
C	 0.5541413446	-2.9532701817	 0.7486768911	-0.194472
C	 0.8893006051	-2.994364273	-0.7456901561	-0.256519
C	 0.4374422468	-1.8446228135	-1.6082531394	-0.09634
C	 0.1700038592	-0.5746686474	-1.2937424896	-0.074571
H	-0.9664784698	 1.7049770197	 1.037396056	 0.125029
H	-0.9108447053	 1.8978221898	-0.7804455518	 0.114022
H	 1.6341909568	 1.6800621607	-0.6924476171	 0.113793
H	 1.5292353069	 1.4912112255	 1.1250174912	 0.12036
H	 1.9404234056	-1.3188847742	 1.1757401771	 0.090179
H	 0.9065977915	-1.7940079834	 2.5363394911	 0.100843
H	 1.0666523108	-3.7871789995	 1.2446593971	 0.090017
H	-0.5212406107	-3.1030492931	 0.8986995636	 0.110834
H	 1.9826004066	-3.0781701212	-0.8599190495	 0.110302
H	 0.4931735463	-3.9255726895	-1.1701825106	 0.102879
H	 0.39391631	-2.0890758092	-2.6685488625	 0.084461
H	-0.0551073557	 0.0965182307	-2.12126737	 0.08249
60.6392	148.3101	254.1367	283.7194	289.7319	341.9322	377.8753	447.0195	504.9092	567.9316	633.5023	718.204	770.9483	774.098	819.32	871.4836	891.8848	895.4564	946.6868	959.1372	975.8775	988.846	1004.402	1045.4273	1079.3283	1080.11	1106.578	1115.0251	1192.8054	1214.3484	1242.0145	1278.3208	1284.4772	1307.9489	1336.1749	1387.7513	1394.9727	1413.8425	1445.0726	1452.5147	1469.4866	1478.1429	1484.7632	1499.8116	1731.3899	2977.0123	2990.605	3023.8094	3038.573	3067.4678	3074.529	3120.6602	3135.1781	3139.5192	3145.2245	3221.6042	3236.5222
C1CC11OCCCC=C1	C1CC21OCCCC=C2	
InChI=1S/C8H12O/c1-2-4-8(5-6-8)9-7-3-1/h2,4H,1,3,5-7H2	InChI=1S/C8H12O/c1-2-4-8(5-6-8)9-7-3-1/h2,4H,1,3,5-7H2
