16
gdb 21284	7.0033	1.268	1.08825	2.1623	68.28	-0.2105	0.0321	0.2426	1081.9091	0.130989	-379.943588	-379.935331	-379.934387	-379.977172	28.877	
C	-0.090864444	 1.4139270069	 0.0126392612	-0.230422
O	-0.0063408114	-0.0049017078	 0.082950462	-0.267658
C	-1.1797137047	-0.6601868886	 0.037738167	 0.471961
N	-2.3490113476	-0.0454480496	-0.0654807557	-0.327113
N	-3.2437787197	-1.0713541743	-0.0758711375	-0.283771
C	-2.6658059065	-2.2953365095	 0.0173263295	 0.415683
C	-3.4579094146	-3.5617025144	 0.0244796131	-0.500503
C	-1.3066393841	-2.0689904671	 0.0941771475	-0.445196
H	 0.9360316302	 1.7794314335	 0.0620145856	 0.122812
H	-0.5612749114	 1.7347224655	-0.9230868136	 0.129244
H	-0.6752331614	 1.8156668951	 0.8474377987	 0.129256
H	-4.2225405557	-0.8560799889	-0.1485960262	 0.265424
H	-4.0430351423	-3.6806205276	-0.8947218296	 0.135989
H	-2.7895702638	-4.4209403879	 0.107290637	 0.144245
H	-4.1570044638	-3.5993692551	 0.8678566047	 0.135972
H	-0.5206243792	-2.8004186702	 0.1782352763	 0.104078
29.6095	93.0284	173.7666	212.7643	222.5076	326.6266	345.489	421.9089	481.8793	644.8492	657.0757	720.6264	750.2147	782.7034	978.878	999.4172	1042.7111	1061.2822	1067.9619	1177.882	1181.8373	1183.4666	1234.5912	1303.0927	1412.8471	1436.7234	1452.8601	1476.4861	1478.0014	1482.6489	1503.0832	1521.7665	1556.8416	1621.9023	3028.3895	3030.2163	3079.9935	3092.2649	3131.2855	3139.3793	3274.9047	3683.7439
COC1=NNC(C)=C1	COc1n[nH]c(C)c1	
InChI=1S/C5H8N2O/c1-4-3-5(8-2)7-6-4/h3H,1-2H3,(H,6,7)	InChI=1S/C5H8N2O/c1-4-3-5(8-2)7-6-4/h3H,1-2H3,(H,6,7)
