20
gdb 106962	3.49522	1.06794	0.99298	0.9933	75.44	-0.2226	0.0555	0.2781	1274.7483	0.169101	-440.234604	-440.224978	-440.224034	-440.268783	36.335	
C	-0.0966295556	 1.5658073523	 0.0244704606	-0.453756
C	-0.0051572063	 0.0496707699	 0.026223594	 0.440323
O	-1.2829889039	-0.5629098545	 0.1288199489	-0.480817
C	 0.7494378647	-0.6481347814	-1.159175129	-0.329269
C	 1.7097466895	-1.2716577005	-0.1371101247	 0.353735
C	 2.3615431245	-2.6230738887	-0.2201932458	-0.226704
O	 3.0804662878	-2.9340949257	 0.9707680883	-0.411978
N	 2.3650358345	-0.1369756985	 0.5565113984	-0.388448
C	 1.0156916956	-0.6006691448	 0.9884840907	-0.175695
H	 0.9012033288	 2.0045064029	-0.0439676383	 0.142656
H	-0.7020799709	 1.9119103929	-0.8191943985	 0.118476
H	-0.5644208873	 1.9263934733	 0.9499316061	 0.097433
H	-1.7185484092	-0.2004513845	 0.9084036532	 0.272766
H	 0.0881524372	-1.3740534137	-1.636346955	 0.116316
H	 1.2098189219	 0.0021234586	-1.9068025208	 0.09694
H	 1.5907195541	-3.3928254899	-0.3494688346	 0.121564
H	 3.0162846474	-2.6725030353	-1.1027920605	 0.100906
H	 4.010783735	-2.7529534571	 0.8146727382	 0.294217
H	 3.013899732	-0.5647602173	 1.2198309553	 0.220597
H	 0.8415885703	-0.9387883778	 2.0038149635	 0.090738
67.7031	117.7075	166.4529	198.4948	244.2348	264.526	302.079	305.7746	370.4018	402.0438	413.6919	492.9225	521.6239	638.8329	698.0253	777.847	869.6954	874.4287	915.1062	950.9366	973.1799	986.8421	998.82	1027.9824	1083.4774	1089.4715	1109.6786	1140.1243	1169.3919	1215.8638	1233.3163	1258.3337	1288.1687	1333.5041	1371.2616	1383.067	1399.0079	1416.4039	1437.5873	1472.169	1487.2623	1497.2637	1499.1811	2994.163	3020.5499	3049.975	3065.8512	3090.1917	3131.6698	3133.6504	3180.502	3450.3336	3796.2778	3849.7461
CC1(O)CC2(CO)NC12	C[C@@]1(O)C[C@@]2(CO)N[C@@H]12	
InChI=1S/C6H11NO2/c1-5(9)2-6(3-8)4(5)7-6/h4,7-9H,2-3H2,1H3	InChI=1S/C6H11NO2/c1-5(9)2-6(3-8)4(5)7-6/h4,7-9H,2-3H2,1H3/t4-,5+,6-/m0/s1
