21
gdb 83574	2.43836	1.65884	1.56532	1.585	81.38	-0.2338	0.0235	0.2573	1004.9167	0.186158	-387.116103	-387.10845	-387.107506	-387.147706	31.49	
O	 0.0836544301	 1.4113492871	 0.0528016403	-0.464184
C	 0.0383245996	-0.0061892191	-0.0063381608	 0.155128
C	-1.3857920876	-0.5767267916	-0.1605506113	-0.036045
C	-1.6954411867	-0.3491216929	-1.6701457679	-0.226341
C	-0.3077511595	-0.2227504068	-2.3752224139	-0.227734
C	 0.7069102735	-0.5984904446	-1.264135217	-0.070575
C	 0.7693787372	-2.1037428059	-1.1024565205	-0.072421
C	-0.1760344369	-2.7705500609	-0.438820302	-0.046738
C	-1.3551081953	-2.0768556919	 0.1994791164	-0.270074
H	-0.3958444106	 1.7669782409	-0.7020028601	 0.278973
H	 0.5268915438	-0.343839227	 0.911566622	 0.081343
H	-2.09429733	-0.0521033574	 0.4861822215	 0.066174
H	-2.2825016925	-1.1757953544	-2.079027611	 0.103906
H	-2.2943519042	 0.5549977509	-1.8182979092	 0.094996
H	-0.2223084018	-0.8735978658	-3.248402939	 0.102074
H	-0.130495559	 0.8004511702	-2.7272456877	 0.089104
H	 1.6993119216	-0.1762915094	-1.4405704261	 0.06664
H	 1.5989391951	-2.6330431907	-1.5637608677	 0.084841
H	-0.1184907137	-3.8517643739	-0.3378960661	 0.084499
H	-1.3130791846	-2.2035155779	 1.2912765699	 0.105307
H	-2.2918939987	-2.5580866289	-0.1146848201	 0.101126
150.188	203.7365	211.5573	278.6171	316.9283	363.72	464.7509	472.723	512.3958	687.1137	710.6982	747.123	786.7023	825.4584	831.6723	880.7648	898.9087	935.9015	965.3495	968.3273	996.303	1016.2778	1040.626	1066.7832	1083.3043	1089.0889	1153.5291	1164.1322	1203.9523	1209.3048	1239.3871	1254.0334	1272.7019	1291.6319	1320.7703	1329.5855	1345.5811	1349.6607	1373.7665	1405.8551	1434.636	1479.2288	1497.0553	1514.5919	1710.3499	2997.4848	3021.7911	3030.4473	3051.4608	3070.9459	3077.0167	3084.2839	3086.5236	3103.8204	3145.4566	3169.7262	3820.2651
OC1C2CCC1C=CC2	O[C@H]1[C@H]2CC[C@@H]1C=CC2	
InChI=1S/C8H12O/c9-8-6-2-1-3-7(8)5-4-6/h1-2,6-9H,3-5H2	InChI=1S/C8H12O/c9-8-6-2-1-3-7(8)5-4-6/h1-2,6-9H,3-5H2/t6-,7+,8+/m0/s1
