19
gdb 63387	3.03687	1.1568	0.97861	4.0399	76.74	-0.2666	0.0317	0.2983	1242.0495	0.158132	-419.210052	-419.200584	-419.19964	-419.243663	36.285	
C	 0.5987734579	 1.4088282485	 0.0983266485	-0.463253
C	-0.1172966638	 0.0718897154	-0.0355747248	 0.426189
O	-1.5092666555	 0.2433677646	-0.2133770181	-0.473835
C	 0.5639516758	-0.9294415983	-1.0258361266	-0.299021
C	 1.1677044228	-1.6927307623	 0.194751522	 0.141023
N	 2.5415323522	-1.2630343822	 0.4568530248	-0.540621
C	 0.1570869723	-0.9346442226	 1.1113695604	-0.279168
C	 1.0271884182	-3.1542694335	 0.163860362	 0.223662
N	 0.9544051933	-4.308911135	 0.1447630325	-0.346318
H	 1.6644469527	 1.258851996	 0.2843658834	 0.147786
H	 0.4932879156	 1.994571001	-0.8243235612	 0.104851
H	 0.1680073661	 1.9855142247	 0.92322206	 0.122932
H	-1.6483192928	 0.9480485421	-0.8553385986	 0.276541
H	-0.1893087456	-1.5236802449	-1.5449174017	 0.125678
H	 1.2956137627	-0.5383884859	-1.7368692116	 0.105829
H	 2.8563855392	-1.6352805558	 1.3492348323	 0.241657
H	 3.1643814028	-1.6428112725	-0.2515638092	 0.241356
H	 0.5698923556	-0.5448278943	 2.0441535306	 0.110992
H	-0.7351099597	-1.528288345	 1.3142501153	 0.133721
89.2498	141.7679	197.2894	246.8206	264.5006	270.875	307.0888	314.6623	368.0738	403.8818	429.1911	452.0043	519.4444	595.1137	605.7183	714.6555	830.4384	860.8327	899.908	908.7702	925.2591	966.7877	974.7312	981.1402	1078.7228	1105.1426	1149.1123	1213.1281	1236.7344	1241.3264	1278.3848	1301.1983	1303.4425	1383.2476	1406.1286	1456.0684	1474.919	1491.498	1503.6753	1656.8599	2338.3306	3019.7891	3070.0258	3078.2955	3090.3579	3133.2476	3141.785	3146.4792	3481.164	3560.4336	3804.3123
CC1(O)CC(N)(C1)C#N	C[C@@]1(O)C[C@@](N)(C1)C#N	
InChI=1S/C6H10N2O/c1-5(9)2-6(8,3-5)4-7/h9H,2-3,8H2,1H3	InChI=1S/C6H10N2O/c1-5(9)2-6(8,3-5)4-7/h9H,2-3,8H2,1H3/t5-,6-
