22
gdb 61681	3.54362	0.82125	0.7612	3.8939	84.41	-0.238	0.0333	0.2713	1583.1177	0.194365	-404.364221	-404.35444	-404.353496	-404.40009	35.144	
C	-0.3455886555	 1.3674572096	-0.0781127088	-0.347503
N	 0.0506427515	-0.0288650828	-0.0211298868	-0.023943
C	 0.0664613986	-0.7040758063	 1.2664854386	-0.213361
C	-1.3189556859	-0.9796984139	 1.8438621218	 0.052406
C	-2.2386166912	-2.0101019674	 1.1294281205	-0.220558
C	-2.6601111763	-2.542500786	 2.5262740413	-0.206249
C	-1.4079254866	-1.850268569	 3.129969834	-0.235174
C	 0.4282537409	-0.667700085	-1.1658423899	 0.154605
O	 0.4408649331	-0.1823693649	-2.2780045018	-0.345447
H	 0.2679181749	 1.9680354758	 0.6044634976	 0.121764
H	-0.1986862134	 1.7114448254	-1.1019772041	 0.168707
H	-1.3981525595	 1.5009359004	 0.1958385464	 0.127477
H	 0.5968480864	-1.6548561047	 1.1373141027	 0.109867
H	 0.6533547838	-0.1058233293	 1.9791386425	 0.104864
H	-1.8557560893	-0.0370933597	 1.9958250165	 0.07646
H	-3.0194815905	-1.62681875	 0.4692477597	 0.103587
H	-1.6511342998	-2.7496286658	 0.5746830105	 0.099538
H	-3.5867726091	-2.0782450857	 2.8750858666	 0.105275
H	-2.7486263592	-3.623975143	 2.6500721022	 0.100387
H	-0.5601019764	-2.5402751681	 3.2023897955	 0.099507
H	-1.5162707832	-1.3356300323	 4.0875843926	 0.09941
H	 0.7375561067	-1.712431707	-0.9646319278	 0.068381
48.3485	57.8694	99.981	137.969	168.4016	225.6174	304.6269	343.5748	367.1124	408.1113	424.7954	638.5778	701.6865	763.9517	792.4781	877.2315	883.9625	907.7042	935.1612	968.3923	975.2587	1030.1584	1059.3952	1087.6052	1113.0279	1140.0924	1159.1558	1203.5562	1220.1265	1257.7387	1262.2297	1266.3785	1281.7603	1282.8995	1297.5104	1362.8885	1394.4069	1432.851	1440.0059	1442.3782	1477.9208	1485.0518	1488.7339	1498.8385	1511.1447	1522.2097	1793.577	2934.71	2996.1418	3022.0382	3041.9489	3044.9371	3050.1378	3061.4695	3065.9851	3074.0043	3099.9079	3105.7373	3120.7031	3156.1136
CN(CC1CCC1)C=O	CN(CC1CCC1)C=O	
InChI=1S/C7H13NO/c1-8(6-9)5-7-3-2-4-7/h6-7H,2-5H2,1H3	InChI=1S/C7H13NO/c1-8(6-9)5-7-3-2-4-7/h6-7H,2-5H2,1H3
