16
gdb 9183	7.34504	0.88427	0.8009	1.434	68.38	-0.2699	0.0118	0.2818	1392.1509	0.127141	-383.74217	-383.73288	-383.731936	-383.777891	31.529	
C	-0.0750504093	 1.4641216164	-0.1052851881	-0.371666
C	 0.0486758713	-0.0474603592	 0.0696781995	-0.301457
C	 0.7975039698	-0.4320165363	 1.3283817377	 0.46102
O	 1.2639254812	 0.3311157626	 2.1364321646	-0.35004
O	 0.8831467361	-1.7771255938	 1.4412066848	-0.24471
C	 1.5823656988	-2.2395859286	 2.614275378	-0.228804
C	 1.5981557731	-3.6921573455	 2.6074206363	 0.287126
C	 1.6296724898	-4.8919680284	 2.6329932003	-0.413873
H	 0.9101167447	 1.9340813142	-0.1592069541	 0.133365
H	-0.6212125948	 1.6981128338	-1.0230615974	 0.113926
H	-0.6056143921	 1.9137912101	 0.737689918	 0.13341
H	-0.9343915949	-0.5313090885	 0.1083951712	 0.136075
H	 0.5662998881	-0.5111586298	-0.7782982183	 0.136062
H	 2.5987952252	-1.8311055458	 2.6142997214	 0.15224
H	 1.0837443267	-1.8517676181	 3.5092346435	 0.152256
H	 1.6561514364	-5.9535243632	 2.6532505725	 0.205068
23.1317	44.3272	109.9113	147.1937	216.7095	220.9395	307.8206	328.7301	387.5511	544.9281	580.1059	617.5658	665.9137	684.4841	809.1696	888.3396	978.588	999.3021	1014.0063	1040.8021	1101.7339	1108.3081	1206.0241	1247.8611	1277.27	1368.3294	1404.578	1417.602	1458.3586	1487.8741	1494.6135	1500.953	1818.3366	2251.3573	3043.7079	3045.1404	3053.3589	3073.6767	3078.4493	3125.5321	3130.0555	3506.0057
CCC(=O)OCC#C	CCC(=O)OCC#C	
InChI=1S/C6H8O2/c1-3-5-8-6(7)4-2/h1H,4-5H2,2H3	InChI=1S/C6H8O2/c1-3-5-8-6(7)4-2/h1H,4-5H2,2H3
