16
gdb 14944	4.27252	1.54149	1.24036	2.505	66.81	-0.2442	-0.0304	0.2138	957.8606	0.13068	-383.748067	-383.740811	-383.739867	-383.779977	26.687	
O	-0.5388150795	 0.7431014703	-0.6930814976	-0.24176
C	 0.1754485628	 0.9948189056	 0.2425222553	 0.151409
C	 1.3680534171	 1.9322267303	 0.1928173042	-0.142305
C	 1.4834731125	 2.6627116878	-1.1504009543	-0.090291
O	 2.4784241042	 3.6691234105	-1.0905868106	-0.250358
C	 2.1525087146	 4.7078237983	-0.1894661359	-0.115673
C	 1.644101568	 4.206104318	 1.1344292443	-0.080531
C	 1.3116975742	 2.932558425	 1.3253197916	-0.074158
H	 0.0022207394	 0.5279249019	 1.2405497621	 0.080579
H	 2.2483467333	 1.2821837436	 0.341751305	 0.116179
H	 1.7775215678	 1.9798871065	-1.9498353253	 0.121013
H	 0.5047750146	 3.0887895055	-1.4165351572	 0.10721
H	 3.071472223	 5.2892003846	-0.0490091268	 0.120654
H	 1.408619442	 5.3935205356	-0.6366651447	 0.10257
H	 1.5633473168	 4.9342829149	 1.9369448114	 0.100385
H	 0.9705156392	 2.5819250716	 2.2965709786	 0.095077
71.409	133.3916	211.8011	284.0498	305.9975	417.0507	485.557	520.7855	637.2293	702.6159	759.7023	843.7103	900.9623	936.4476	990.7654	994.706	1027.2687	1053.8587	1077.9616	1117.7351	1152.8661	1214.1424	1240.7833	1259.5204	1299.8965	1326.3815	1368.4827	1406.8619	1418.5342	1431.3374	1484.8922	1495.6602	1722.3903	1829.8625	2856.3836	2933.5765	2958.3377	3003.694	3052.3354	3110.997	3147.5211	3174.2995
O=CC1COCC=C1	O=C[C@H]1COCC=C1	
InChI=1S/C6H8O2/c7-4-6-2-1-3-8-5-6/h1-2,4,6H,3,5H2	InChI=1S/C6H8O2/c7-4-6-2-1-3-8-5-6/h1-2,4,6H,3,5H2/t6-/m0/s1
