17
gdb 22593	2.92443	1.24007	1.03916	1.4792	73.89	-0.238	0.0109	0.2489	1174.3489	0.134912	-455.024459	-455.015878	-455.014934	-455.057416	32.732	
C	 0.0045646491	 1.4451390402	-0.0183507096	-0.523532
C	-0.0429252059	-0.0473133688	 0.0672241001	 0.172975
N	 0.6282463694	-0.9754563606	-0.9793477825	-0.393059
C	-0.00620981	-1.9433341249	 0.0342947834	-0.183962
C	 0.6286794645	-1.010141011	 1.1222805656	 0.188003
O	 2.0087285044	-0.9786005717	 1.2416661891	-0.453282
C	-1.2051863422	-1.0177498322	 0.0568460352	 0.462313
N	-2.4603125168	-0.9480409943	-0.0450639546	-0.318537
O	-3.0396510423	-2.2379763603	-0.1169419105	-0.398637
H	 1.0409128411	 1.7921178985	 0.0298235949	 0.138071
H	-0.4438729411	 1.8060972334	-0.9490555347	 0.132903
H	-0.5475446043	 1.8864174363	 0.8167687797	 0.140656
H	 0.084665669	-0.9717227642	-1.8463674962	 0.226215
H	 0.0544888461	-3.0224252009	-0.0796868065	 0.106251
H	 0.1833477811	-1.0355921189	 2.1168211852	 0.104299
H	 2.3422359015	-0.973853162	 0.33120604	 0.292865
H	-3.9781336935	-2.0296469386	-0.1770668186	 0.306457
118.7624	150.6407	176.5116	202.3655	262.2289	321.1516	342.724	378.4581	413.684	534.0559	587.1882	623.4321	666.9909	726.2627	756.2552	771.3091	833.8856	857.7741	924.7575	949.207	1039.5614	1077.8441	1093.6773	1127.83	1169.5091	1179.5056	1180.5445	1227.8231	1254.5128	1330.9685	1344.7536	1407.0832	1425.8666	1457.4156	1482.6392	1485.2333	1817.5869	3041.8193	3113.0331	3119.4034	3127.3787	3163.7796	3418.4089	3717.424	3818.3734
CC12NC(C1O)C2=NO	C[C@@]12N[C@@H]([C@H]1O)C2=NO	
InChI=1S/C5H8N2O2/c1-5-3(7-9)2(6-5)4(5)8/h2,4,6,8-9H,1H3	InChI=1S/C5H8N2O2/c1-5-3(7-9)2(6-5)4(5)8/h2,4,6,8-9H,1H3/t2-,4-,5+/m1/s1
