18
gdb 10531	2.83385	1.56318	1.15093	2.3821	64.62	-0.255	0.0667	0.3217	1077.1499	0.151807	-422.032815	-422.023858	-422.022914	-422.066643	31.759	
C	 0.2240794892	 1.3742738642	 0.2030297186	-0.230687
O	 0.1809921844	-0.0359525527	 0.1667097821	-0.252012
C	 0.5491485221	-0.5669038777	-1.0963780239	-0.142496
C	 0.5545697334	-2.0792662479	-1.0137489917	 0.379467
C	-0.5530149853	-2.7001024688	-0.1685205236	-0.144464
O	-1.7987816808	-2.0531315245	-0.3479383634	-0.422313
C	 1.1980994265	-2.8296387238	-2.0985610803	-0.230717
O	 1.8327577912	-2.6992676511	-0.8230295448	-0.271389
H	 1.2400818682	 1.7489961028	 0.0100096855	 0.115939
H	-0.4562536795	 1.8218616556	-0.5379286703	 0.110366
H	-0.0847632738	 1.684573486	 1.2036911251	 0.133894
H	-0.1700362075	-0.2374264472	-1.8632755119	 0.105532
H	 1.550738356	-0.2201160975	-1.3899456049	 0.107858
H	-0.6871029892	-3.7492581303	-0.4473807173	 0.111181
H	-0.228275237	-2.6744483001	 0.8809885593	 0.111762
H	-1.696283649	-1.183263655	 0.0574754252	 0.290056
H	 0.8343869023	-3.8259222148	-2.346276746	 0.117373
H	 1.6867681788	-2.3006432173	-2.9171648777	 0.110651
88.5506	93.0579	122.0579	170.2432	228.9848	244.7491	322.3912	356.8725	401.8387	464.7725	491.3446	543.0655	782.8819	830.5582	918.2395	922.7932	987.1147	1013.2285	1059.6827	1088.1724	1128.5366	1145.2971	1166.4788	1186.2414	1206.3135	1225.8128	1265.1233	1302.5025	1368.8952	1385.4517	1424.823	1451.3241	1476.5871	1485.8614	1491.8237	1494.5629	1519.1904	1532.0823	2972.4413	2982.6121	3010.8159	3022.7239	3031.0337	3075.7719	3088.3936	3121.5847	3161.7095	3780.94
COCC1(CO)CO1	COC[C@@]1(CO)CO1	
InChI=1S/C5H10O3/c1-7-3-5(2-6)4-8-5/h6H,2-4H2,1H3	InChI=1S/C5H10O3/c1-7-3-5(2-6)4-8-5/h6H,2-4H2,1H3/t5-/m0/s1
