20
gdb 53955	2.43102	1.22916	1.18323	3.6891	74.61	-0.2443	0.0275	0.2717	1187.37	0.168747	-440.299703	-440.289551	-440.288607	-440.334978	37.333	
C	-0.2853520617	 1.4807072357	 0.1276674227	-0.411013
C	 0.044445804	-0.0222183349	-0.0347834898	 0.115968
C	 0.8370444109	-0.5122550185	 1.1852328259	-0.47775
C	-1.2873334983	-0.7653585243	-0.1852709078	 0.099296
C	-1.5747228382	-2.0954482269	 0.3636547422	-0.194323
O	-2.0814004029	-0.9120434163	 0.9923746254	-0.249621
C	 0.7717868669	-0.180254396	-1.3879106628	 0.409736
N	 2.0796414353	-0.5595165992	-1.3540977851	-0.53946
O	 0.1938303623	 0.0364019711	-2.4384951948	-0.383644
H	 0.6288449895	 2.0721219193	 0.2418144135	 0.111319
H	-0.8233322998	 1.8479069823	-0.7490958428	 0.140799
H	-0.9073792521	 1.6292690582	 1.0149360551	 0.131572
H	 0.1879452465	-0.5029918001	 2.0647436192	 0.147473
H	 1.2140856726	-1.5318286329	 1.0581502147	 0.116563
H	 1.6853470408	 0.1476048252	 1.3949623439	 0.114108
H	-1.8428655038	-0.4560849304	-1.0682454438	 0.117927
H	-2.3222441005	-2.7215744716	-0.1210694506	 0.118722
H	-0.8222464233	-2.6358624068	 0.9335066541	 0.110788
H	 2.5919422628	-0.6875434897	-0.5012012658	 0.260544
H	 2.5720983689	-0.6086818641	-2.2311649933	 0.260998
38.3766	78.8284	176.7368	191.1799	228.3298	256.0255	260.7132	288.2442	331.9839	353.8622	402.1919	459.4913	483.3307	595.2959	600.5256	693.8811	769.3361	820.8023	868.9752	911.9613	947.8636	973.7872	1009.9997	1039.2668	1089.1418	1105.4424	1156.2697	1174.8092	1185.1356	1203.6481	1253.366	1303.5751	1355.3744	1387.1025	1402.5874	1432.7065	1489.0238	1492.7766	1508.9369	1520.3468	1533.0648	1615.3259	1775.5771	3033.6411	3040.7763	3091.6816	3099.422	3110.9974	3119.4947	3132.8343	3139.117	3178.3134	3609.2222	3750.5241
CC(C)(C1CO1)C(N)=O	CC(C)([C@H]1CO1)C(=O)N	
InChI=1S/C6H11NO2/c1-6(2,5(7)8)4-3-9-4/h4H,3H2,1-2H3,(H2,7,8)	InChI=1S/C6H11NO2/c1-6(2,5(7)8)4-3-9-4/h4H,3H2,1-2H3,(H2,7,8)/t4-/m1/s1
