16
gdb 19265	3.25292	1.85454	1.35206	2.6991	64.6	-0.2418	-0.0302	0.2116	925.6745	0.129115	-383.714688	-383.707048	-383.706104	-383.746933	27.866	
C	 0.0661168434	 1.5039247448	 0.1368507641	-0.383778
C	 0.0163797854	 0.001626749	-0.163993019	-0.200383
C	-1.3917666281	-0.5728312603	-0.0309766633	-0.137396
C	-1.5822302192	-2.1008594849	-0.0594655047	 0.011312
O	-0.8803925913	-2.6199027687	 1.064500601	-0.232341
C	-2.231153817	-2.1454966842	 1.2745446961	-0.10943
C	-2.0842263593	-0.6279939212	 1.3742541648	 0.416177
O	-2.4587009365	 0.2029920105	 2.1464355979	-0.301575
H	 1.0903900986	 1.88164469	 0.0666475175	 0.114515
H	-0.5483113716	 2.0705833143	-0.5716108357	 0.113608
H	-0.3092258983	 1.7163641882	 1.1418461058	 0.143623
H	 0.3831990941	-0.1879779305	-1.1810016626	 0.099264
H	 0.6798103757	-0.5428804411	 0.5155977146	 0.119203
H	-2.0907186913	-0.0681186166	-0.7123859912	 0.103045
H	-1.7498019324	-2.758664963	-0.9036241469	 0.118967
H	-2.9440766021	-2.8352095363	 1.7098949416	 0.125187
87.6914	119.6607	173.2607	208.7654	265.9638	344.4813	461.7748	541.7856	640.4612	730.2565	754.8142	818.4989	849.6642	871.6399	889.6813	945.7475	979.2465	1018.1705	1053.794	1065.5889	1098.3232	1155.5512	1197.1963	1212.6681	1253.3801	1278.3586	1326.051	1350.0398	1378.2	1416.839	1492.6345	1499.4271	1509.4508	1895.3813	3024.362	3026.8194	3037.0789	3077.3662	3105.0727	3121.0668	3192.6881	3205.9726
CCC1C2OC2C1=O	CC[C@H]1[C@H]2O[C@H]2C1=O	
InChI=1S/C6H8O2/c1-2-3-4(7)6-5(3)8-6/h3,5-6H,2H2,1H3	InChI=1S/C6H8O2/c1-2-3-4(7)6-5(3)8-6/h3,5-6H,2H2,1H3/t3-,5-,6+/m1/s1
