13
gdb 128499	2.8234	1.18095	0.83706	2.8581	68.51	-0.2657	-0.0842	0.1815	1271.725	0.086194	-489.900927	-489.891703	-489.890759	-489.93592	30.151	
C	-0.1240203735	 1.3746529132	 0.2049850625	-0.24399
O	 0.0523888413	-0.0198116227	-0.0879520712	-0.243085
C	 0.7010802038	-0.2836191306	-1.2378818702	 0.456946
C	 0.8221897556	-1.7346447583	-1.4317494148	-0.030853
C	 0.34186458	-2.8128281799	-0.5611048153	 0.117436
O	 0.4799364388	-3.9935519963	-0.7886637454	-0.302651
N	 1.4462342692	-2.1115778963	-2.5356281261	 0.243159
N	 1.9620666197	-2.5056193456	-3.4502368107	-0.1536
O	 1.1228901021	 0.5522052137	-2.0006695566	-0.398679
H	 0.8440775319	 1.87357043	 0.2898858221	 0.148806
H	-0.7059575657	 1.860540441	-0.5815281347	 0.148806
H	-0.65789119	 1.4081861672	 1.1541103892	 0.141469
H	-0.1680062932	-2.4269826455	 0.3397188812	 0.116236
75.3531	102.2743	120.8389	120.8759	151.4487	193.4066	279.1588	297.3798	390.1785	441.6312	493.7024	581.9199	760.368	788.8108	829.0303	997.483	1018.4998	1161.4338	1178.7963	1217.2827	1264.223	1337.1564	1416.6491	1474.5455	1481.1491	1498.1266	1768.0726	1796.1812	2263.019	2978.0874	3056.8597	3134.4614	3166.5888	75.3532	102.2735	120.8385	120.8757	151.4487	193.4064	279.1587	297.3799	390.1784	441.6312	493.7023	581.9198	760.3682	788.8107	829.0302	997.4831	1018.4997	1161.4339	1178.7963	1217.2829	1264.223	1337.1564	1416.6491	1474.5457	1481.1493	1498.1267	1768.0724	1796.1816	2263.0189	2978.0874	3056.8597	3134.4615	3166.5888
COC1=C(C=O)N=NO1	COC(=O)[C](C=O)[N][N]	
InChI=1S/C4H4N2O3/c1-8-4-3(2-7)5-6-9-4/h2H,1H3	InChI=1S/C4H4N2O3/c1-9-4(8)3(2-7)6-5/h2H,1H3
