23
gdb 118124	3.17802	0.75037	0.69263	1.0476	83.04	-0.2561	0.068	0.324	1771.456	0.202807	-425.413261	-425.402234	-425.40129	-425.450225	39.428	
C	-0.0580965069	 1.5328965979	-0.3271000664	-0.383
C	-0.0033008592	 0.0530826122	 0.0601903351	-0.167398
C	-1.3746804771	-0.6283625387	 0.0178515507	-0.187321
C	-1.3447886815	-2.091832871	 0.471485876	 0.080432
O	-0.8737301269	-2.2390945373	 1.8102161318	-0.429511
C	-2.7126293314	-2.7339045819	 0.335261138	 0.039887
O	-3.1988930561	-2.9719450913	-0.9884845634	-0.266918
C	-2.9628864238	-4.1044375516	-0.1363892338	 0.079588
C	-1.9016473551	-5.0874287046	-0.5567388114	-0.420091
H	 0.9353896821	 1.9907170341	-0.2916926539	 0.112391
H	-0.4499268866	 1.6649526182	-1.3418460154	 0.11505
H	-0.7079841261	 2.0969043085	 0.3516546694	 0.111033
H	 0.6806017202	-0.478724836	-0.6143623191	 0.096163
H	 0.4176691523	-0.0573353679	 1.0656662954	 0.10543
H	-2.0846955234	-0.0767668447	 0.6546556725	 0.078437
H	-1.7877829562	-0.5943450971	-0.9977821744	 0.117742
H	-0.6225120162	-2.6381716807	-0.1428462458	 0.090093
H	-1.4262191138	-1.6891100346	 2.3773748015	 0.278583
H	-3.4593619879	-2.2962141388	 1.0071394276	 0.074494
H	-3.8856667288	-4.5698480589	 0.2175711367	 0.08752
H	-1.0049313125	-4.5877395268	-0.9275727202	 0.130731
H	-1.6214841892	-5.7261277082	 0.2875661628	 0.128663
H	-2.2827007358	-5.7324850008	-1.3552957236	 0.128002
40.7975	86.2462	98.2863	105.8562	161.9439	210.1299	224.4102	248.0466	277.0788	334.6747	381.3482	406.6848	421.9887	522.6393	585.4184	748.6586	783.0712	844.5916	857.268	907.8086	942.8623	981.4682	1004.251	1045.4919	1068.3149	1086.7443	1094.7431	1121.5653	1144.7779	1171.6833	1185.2105	1238.0361	1266.7179	1292.5383	1304.9628	1330.9719	1354.5782	1393.5463	1401.0033	1411.1101	1415.1355	1421.9377	1469.9177	1480.5334	1491.228	1494.1467	1499.9557	1511.1712	1513.9993	2987.0399	3024.2709	3028.6481	3041.5803	3042.4436	3051.2506	3068.2086	3076.7625	3082.279	3096.3542	3101.8471	3102.8835	3138.4049	3794.4468
CCCC(O)C1OC1C	CCC[C@@H](O)[C@H]1O[C@H]1C	
InChI=1S/C7H14O2/c1-3-4-6(8)7-5(2)9-7/h5-8H,3-4H2,1-2H3	InChI=1S/C7H14O2/c1-3-4-6(8)7-5(2)9-7/h5-8H,3-4H2,1-2H3/t5-,6+,7-/m0/s1
