14
gdb 21135	5.25295	1.65631	1.26931	1.8376	69.78	-0.2235	-0.0712	0.1524	910.0644	0.109182	-374.897497	-374.890574	-374.889629	-374.928683	25.27	
C	-0.1851573919	 1.4097291861	 0.0747474617	-0.345641
N	-0.113682791	-0.0374059391	 0.0299058266	-0.313519
C	 0.6600373909	-0.6220091112	 0.8661119468	 0.3818
N	 1.4600174887	-0.0188250557	 1.8366117664	-0.307191
N	 2.2666354107	-0.6668549881	 2.7048627724	-0.172251
C	 2.2798875784	-1.9565666621	 2.6069197851	 0.078642
N	 1.5546151754	-2.7222003039	 1.7079908358	-0.244392
C	 0.7936765915	-2.0760275253	 0.8919080906	 0.006979
H	 0.7898392978	 1.8893743182	-0.1184592893	 0.110974
H	-0.8793285361	 1.7635440612	-0.6907323246	 0.133079
H	-0.5470077073	 1.7872118733	 1.0466373411	 0.110987
H	 1.471126913	 0.9832968574	 1.9372473759	 0.276332
H	 2.922377276	-2.4889815496	 3.2971383607	 0.137923
H	 0.199550744	-2.6231799312	 0.1625411208	 0.146279
105.9398	177.1453	221.9471	234.06	393.1296	448.807	491.1793	588.8928	634.7987	638.8965	746.8306	811.1835	913.8047	995.1484	996.5916	1039.5007	1102.4793	1103.7948	1137.7633	1188.3425	1311.5005	1367.6489	1393.5963	1420.2926	1450.0841	1497.5444	1504.6454	1580.5675	1654.267	1708.739	2945.9888	2986.6043	3105.9488	3161.581	3218.1608	3648.0019
CN=C1NN=CN=C1	C[N]c1[nH]ncnc1	
InChI=1S/C4H6N4/c1-5-4-2-6-3-7-8-4/h2-3H,1H3,(H,5,8)	InChI=1S/C4H11N4/c1-5-4-2-6-3-7-8-4/h4,6-8H,2-3H2,1H3
