17
gdb 89401	2.68592	1.46136	1.21355	2.6298	68.5	-0.2359	-0.0249	0.211	1053.3158	0.135499	-458.970409	-458.962175	-458.961231	-459.00297	31.896	
O	 0.1552472126	 1.3304953684	 0.1993765273	-0.428402
C	-0.046613112	-0.074053693	 0.0391852826	-0.007024
C	-1.5420592783	-0.3627894509	-0.1434094134	-0.295231
C	-1.7752320783	-0.4815441742	-1.6518196915	 0.393204
O	-2.8250758526	-1.2871820072	-2.0841952721	-0.46854
C	-1.295483794	 0.6454156181	-2.5002420354	-0.348532
C	-0.4294547625	-0.6207601449	-2.3350293806	-0.204859
C	 0.6193083069	-0.5352202494	-1.2845608868	 0.404534
O	 1.7987526828	-0.7701087085	-1.3950265001	-0.341599
H	 1.1073537017	 1.4841406246	 0.1772757251	 0.295832
H	 0.3896374976	-0.6247021436	 0.8820772859	 0.093793
H	-1.7966098389	-1.3247841794	 0.3114950883	 0.119574
H	-2.1519944884	 0.413733456	 0.3287406678	 0.113511
H	-3.6383391581	-0.7729560639	-2.0332062191	 0.287783
H	-1.7442237373	 0.7392429849	-3.4829838879	 0.124865
H	-0.9644321661	 1.5665291615	-2.0356376683	 0.143876
H	-0.2717331352	-1.2440463988	-3.2052515216	 0.117215
92.4983	151.1156	232.8958	252.6983	317.9614	358.5286	380.4002	399.3554	437.9151	483.9316	549.7466	634.7926	676.8976	740.8219	812.3198	880.7233	914.7312	919.7669	974.1675	984.1455	1007.9158	1063.5934	1075.739	1087.0208	1176.185	1186.16	1221.1507	1240.0181	1285.3165	1312.3433	1326.7195	1335.4074	1397.2887	1413.8628	1470.8448	1491.7487	1829.0499	3024.3465	3054.3416	3101.8596	3139.3754	3209.8956	3238.2691	3793.8342	3799.6396
OC1CC2(O)CC2C1=O	O[C@H]1C[C@@]2(O)C[C@H]2C1=O	
InChI=1S/C6H8O3/c7-4-2-6(9)1-3(6)5(4)8/h3-4,7,9H,1-2H2	InChI=1S/C6H8O3/c7-4-2-6(9)1-3(6)5(4)8/h3-4,7,9H,1-2H2/t3-,4-,6-/m0/s1
