16
gdb 9891	4.02944	1.24505	1.1674	4.9007	61.99	-0.2738	0.0067	0.2805	1062.5174	0.128105	-420.877984	-420.869538	-420.868594	-420.911648	29.445	
C	-0.0725751639	 1.6337296042	-0.1541094754	-0.463753
C	-0.1911504473	 0.1337915551	-0.0223871334	 0.405688
C	-1.5935620313	-0.436899423	-0.0220449927	-0.15879
O	-2.3786690405	 0.1264600918	 1.0360288893	-0.183695
C	-2.322433512	-0.4913033331	 2.2387660674	 0.178476
O	-2.8954346966	-0.0708655445	 3.1968568995	-0.271611
C	 0.9126672551	-0.7534372362	-0.417368157	-0.226846
O	 0.6620993277	-0.4738595834	 0.9620275176	-0.267424
H	-0.4566188005	 1.968819095	-1.1236152971	 0.124741
H	-0.6521789255	 2.1307495842	 0.6284390643	 0.152663
H	 0.971600595	 1.9409209596	-0.0647878451	 0.132523
H	-2.1210126476	-0.1861622637	-0.9464992837	 0.129058
H	-1.552210823	-1.5276903263	 0.0748347844	 0.117647
H	-1.7073126519	-1.4092206899	 2.2211858553	 0.093406
H	 0.7109644656	-1.7768029421	-0.7326820234	 0.115626
H	 1.8230579369	-0.3172071276	-0.8253820401	 0.122291
63.1229	73.4607	140.9572	190.3144	249.9994	308.2967	350.5485	391.6685	405.5964	496.759	679.8256	739.5609	844.6333	899.3763	931.5706	962.4946	1029.0925	1043.1163	1069.8028	1108.935	1135.0409	1144.0351	1176.392	1288.2307	1311.9611	1378.9484	1407.8879	1422.8287	1439.7334	1479.2127	1489.0649	1500.4109	1534.7926	1869.185	2979.93	3042.3038	3045.4019	3083.193	3104.3522	3114.1957	3135.972	3169.3203
CC1(COC=O)CO1	C[C@@]1(COC=O)CO1	
InChI=1S/C5H8O3/c1-5(3-8-5)2-7-4-6/h4H,2-3H2,1H3	InChI=1S/C5H8O3/c1-5(3-8-5)2-7-4-6/h4H,2-3H2,1H3/t5-/m1/s1
