18
gdb 66943	2.58647	1.94404	1.3921	2.8781	75.25	-0.2406	0.0795	0.3201	969.495	0.147634	-401.867938	-401.86041	-401.859466	-401.899571	29.779	
C	 0.0353019039	 1.4903716923	 0.064956319	-0.514982
C	-0.0843781689	 0.0056535139	-0.0596141681	 0.235369
C	-0.9639925551	-0.8649106042	 0.7862299617	-0.089012
C	-1.0706237168	-2.2490162674	 0.1639194789	-0.248273
C	 0.4023805628	-2.0096365449	-0.2204995896	-0.123752
N	 0.5287335452	-0.9588716191	 0.9402894144	-0.192932
C	 0.3704698853	-0.8543504896	-1.2078317733	 0.470662
C	 0.2658025724	-0.7589731024	-2.661334271	-0.291828
O	 1.5042389436	-0.4888148826	-1.9715450678	-0.28927
H	 0.9999995762	 1.8247475185	-0.3277003369	 0.144918
H	-0.7593338388	 1.9989036428	-0.4925133832	 0.121867
H	-0.0357383619	 1.7946472428	 1.1131190668	 0.134155
H	-1.5794931633	-0.4419186827	 1.5735979579	 0.097253
H	-1.1655947996	-3.0146714359	 0.937996787	 0.116445
H	-1.7943948785	-2.4341465082	-0.6367338918	 0.099476
H	 1.1341609015	-2.8090997185	-0.3119481959	 0.096798
H	 0.2625145249	-1.6627782481	-3.2695204298	 0.116929
H	-0.2078052728	 0.1085399832	-3.1191541386	 0.116177
151.7735	182.0574	208.5287	241.9514	281.8064	376.3511	462.1419	513.4883	607.8583	636.4599	738.1105	793.1925	798.1461	830.1248	879.4015	923.9381	939.6401	970.7668	992.922	1013.6859	1022.455	1056.4978	1085.0416	1116.1957	1123.8515	1153.3477	1164.9569	1180.8176	1234.0571	1265.7271	1284.6832	1296.4651	1395.8196	1425.6063	1465.0522	1480.2706	1495.1455	1498.373	1546.3582	3035.1803	3043.3881	3080.4876	3101.5313	3105.9967	3119.7157	3150.9485	3166.1635	3167.3978
CC12C3CC(N13)C21CO1	C[C@]12[C@H]3C[C@H](N13)[C@]12CO1	
InChI=1S/C7H9NO/c1-6-4-2-5(8(4)6)7(6)3-9-7/h4-5H,2-3H2,1H3	InChI=1S/C7H9NO/c1-6-4-2-5(8(4)6)7(6)3-9-7/h4-5H,2-3H2,1H3/t4-,5+,6-,7+,8?/m1/s1
