16
gdb 65948	2.25896	1.54643	1.38049	5.1312	69.02	-0.2851	0.0008	0.2859	1026.7188	0.12222	-437.850371	-437.841848	-437.840903	-437.883617	31.129	
C	-0.2473036983	 1.5848133883	 0.1031103819	-0.437881
C	 0.0347264666	 0.0897684054	 0.0602432907	 0.155344
O	 1.1862302499	-0.2268776752	-0.7611595381	-0.308098
C	 1.8476355752	-0.9650552306	 0.2973378185	-0.156735
C	 0.751448039	-0.557052975	 1.2707772457	 0.338036
C	 0.7714920906	-0.1624306737	 2.6758063612	-0.254382
O	 0.1536757069	-1.3835986005	 2.2256805714	-0.242664
C	-1.1524701302	-0.6652080226	-0.3754236365	 0.2838
N	-2.0892818297	-1.2487958237	-0.7166047709	-0.328922
H	 0.639183598	 2.1134128315	 0.461219085	 0.131497
H	-0.4938752168	 1.9459224201	-0.8987357592	 0.154045
H	-1.0913039619	 1.7997263657	 0.7649895209	 0.142779
H	 1.8814820865	-2.041457233	 0.0937143162	 0.135788
H	 2.8570473753	-0.5875158331	 0.4887264647	 0.123254
H	 1.683414449	-0.2888280568	 3.2568354448	 0.131706
H	 0.0832276397	 0.5984961032	 3.0387280135	 0.132434
73.4856	126.933	195.467	208.1917	225.6182	295.9813	324.7549	389.4305	455.3658	513.8526	561.8946	634.1064	648.1467	871.0666	878.3428	892.9654	916.4003	942.0401	1007.1417	1075.3397	1116.3065	1124.0335	1144.6981	1151.2133	1173.4489	1204.8101	1229.3548	1323.1165	1403.637	1450.2493	1479.8207	1486.5079	1513.9994	1543.5351	2356.7641	3035.6297	3048.4555	3089.4321	3091.4167	3127.5017	3135.7718	3182.0789
CC1(OCC11CO1)C#N	C[C@]1(OC[C@]21CO2)C#N	
InChI=1S/C6H7NO2/c1-5(2-7)6(3-8-5)4-9-6/h3-4H2,1H3	InChI=1S/C6H7NO2/c1-5(2-7)6(3-8-5)4-9-6/h3-4H2,1H3/t5-,6+/m0/s1
