17
gdb 70284	2.85672	1.39019	1.25662	4.1396	68.33	-0.2363	-0.0233	0.213	1052.4029	0.134408	-458.944654	-458.936483	-458.935539	-458.977669	30.905	
O	-0.1550209518	 1.1006764634	 0.7015454874	-0.464442
C	 0.0243421205	-0.1468863594	 0.1104998169	 0.372698
C	-0.5980320419	-0.4436397778	-1.239663403	-0.366816
C	-1.1209669723	-1.1017357234	 0.0199079956	 0.055834
O	-0.6623984139	-2.4088839455	 0.2572254759	-0.246779
C	 0.571717747	-2.3299570682	 0.9507835836	 0.015661
C	 1.2377186437	-0.9896010355	 0.5275616982	-0.344592
C	 0.3757377942	-2.3642752177	 2.4630560033	 0.156304
O	-0.6865179332	-2.2936078947	 3.0175136652	-0.230663
H	 0.3397493668	 1.7497379659	 0.1894656177	 0.285883
H	-1.2129266284	 0.3422587024	-1.6663243228	 0.118061
H	-0.0577020521	-1.0617806043	-1.9491482369	 0.116894
H	-2.106476971	-0.8743858562	 0.4089035438	 0.122705
H	 1.1785350017	-3.2008577276	 0.6725936084	 0.102384
H	 1.954971352	-1.1423211799	-0.2839705537	 0.112414
H	 1.7574337523	-0.5002037565	 1.3560586586	 0.121802
H	 1.3330994166	-2.4462518648	 3.0326812719	 0.072652
63.0487	120.4	174.9214	285.5183	305.4777	327.1394	377.0788	406.3749	459.8532	598.3561	639.3463	742.2896	771.4386	806.1175	871.9035	885.1404	918.8467	941.9084	981.7779	1009.8288	1025.1102	1054.8824	1066.7299	1079.1622	1137.6896	1177.4347	1245.2454	1254.2918	1271.7737	1308.1592	1319.5021	1369.0964	1405.6332	1415.4508	1473.2123	1492.4507	1846.6894	2841.2105	3036.523	3055.264	3102.7641	3126.0996	3187.9346	3223.7087	3795.7088
OC12CC1OC(C2)C=O	O[C@]12C[C@H]1O[C@@H](C2)C=O	
InChI=1S/C6H8O3/c7-3-4-1-6(8)2-5(6)9-4/h3-5,8H,1-2H2	InChI=1S/C6H8O3/c7-3-4-1-6(8)2-5(6)9-4/h3-5,8H,1-2H2/t4-,5+,6+/m0/s1
