15
gdb 129425	2.73772	1.56259	1.00312	1.5796	72.06	-0.2035	-0.0278	0.1757	1102.0012	0.115548	-450.178921	-450.170862	-450.169917	-450.211384	30.776	
N	-0.0650307614	 1.3528963993	 0.057162115	-0.555293
C	 0.0286629947	-0.0238698136	-0.0525359362	 0.325373
O	 1.1043133711	-0.5882636708	-0.2151415726	-0.382126
C	-1.2235464926	-0.7662670139	-0.0133495103	 0.226715
C	-1.3845257792	-2.1470484779	 0.0867692065	 0.163607
N	-0.377936772	-3.0765876667	 0.2437070763	-0.613222
C	-2.7882135944	-2.3388974562	 0.0788665281	-0.069315
N	-3.4437510828	-1.1843058052	-0.0334797732	-0.207591
N	-2.4981697226	-0.2431815721	-0.0558166165	-0.304597
H	 0.8291359603	 1.8109120576	 0.1638466932	 0.261143
H	-0.8000774402	 1.7317650185	 0.6354295383	 0.252578
H	 0.5241816875	-2.7241640718	-0.0521407406	 0.272091
H	-0.5867681838	-4.0031998612	-0.0952748442	 0.24782
H	-3.3362654328	-3.267044412	 0.1469474173	 0.111607
H	-2.7591289316	 0.693652526	-0.313353271	 0.271209
95.7421	167.5618	176.9186	315.8791	324.5871	369.7615	416.0246	443.4872	471.6299	512.345	558.1054	633.0731	670.03	684.242	715.1632	734.255	795.5746	853.5781	953.656	1070.6902	1092.803	1159.7918	1180.3568	1269.0465	1287.0468	1365.2854	1416.4117	1463.2691	1537.8846	1597.8591	1622.3325	1656.1536	1750.3955	3246.3718	3539.6537	3563.7833	3660.3973	3668.5492	3680.2066
NC(=O)C1=C(N)C=NN1	NC(=O)c1c(N)cn[nH]1	
InChI=1S/C4H6N4O/c5-2-1-7-8-3(2)4(6)9/h1H,5H2,(H2,6,9)(H,7,8)	InChI=1S/C4H6N4O/c5-2-1-7-8-3(2)4(6)9/h1H,5H2,(H2,6,9)(H,7,8)
