16
gdb 44926	3.03714	1.45652	1.42621	2.0898	67.72	-0.236	-0.0375	0.1985	963.0283	0.126253	-437.922793	-437.915889	-437.914945	-437.954271	27.395	
O	-0.0214573133	 0.0120922159	 0.0399734395	-0.315117
C	-0.0365548417	 1.2128516301	 0.0293803832	 0.420887
C	-1.2737556578	 2.1380552142	 0.0099553294	-0.355479
C	-0.5928937805	 3.5346081816	 0.0075419604	-0.128582
N	 0.655618532	 3.3349970857	-0.7716354421	-0.311682
C	 1.1641149746	 2.1773119114	 0.0040141498	-0.131187
C	 1.2593055584	 2.8134543118	 1.4092133903	-0.326703
C	 0.0103245623	 3.7144383673	 1.408461168	 0.453084
O	-0.4155074948	 4.3795133329	 2.3110468185	-0.316621
H	-1.8438017278	 1.9827493856	-0.9124639655	 0.138061
H	-1.9400952102	 1.9308256053	 0.8519722338	 0.148113
H	-1.2053696361	 4.3689780271	-0.3276989445	 0.101165
H	 0.4410386873	 3.0615229841	-1.7288569937	 0.229109
H	 2.0836820072	 1.74200491	-0.3825636505	 0.100237
H	 1.2468358341	 2.105987018	 2.2415306013	 0.144605
H	 2.1570721564	 3.433391339	 1.4892222322	 0.15011
90.0621	159.4918	284.3664	409.7217	455.7348	479.6911	506.8914	569.2978	602.6282	681.0144	711.3078	777.85	805.0652	891.6873	907.0523	924.6435	950.8055	972.9179	1005.7433	1034.7178	1050.2276	1119.0406	1152.151	1169.5943	1191.7111	1222.2421	1248.8247	1271.2335	1295.3128	1330.9625	1394.3246	1441.8715	1453.3197	1860.0349	1875.0191	3053.9084	3068.9944	3105.2306	3124.0373	3143.0204	3145.6852	3481.2599
O=C1CC2NC1CC2=O	O=C1C[C@@H]2N[C@H]1CC2=O	
InChI=1S/C6H7NO2/c8-5-1-3-6(9)2-4(5)7-3/h3-4,7H,1-2H2	InChI=1S/C6H7NO2/c8-5-1-3-6(9)2-4(5)7-3/h3-4,7H,1-2H2/t3-,4-/m0/s1
