18
gdb 103138	2.32702	1.49426	1.13978	3.4309	68.75	-0.2387	0.0202	0.2589	1124.7779	0.146533	-476.241628	-476.232301	-476.231357	-476.275508	34.566	
C	 0.0238970197	 1.6031100096	-0.0345478173	-0.3912
C	 0.0498418904	 0.0852258389	 0.0094403977	-0.002603
N	 1.1386789241	-0.5610915335	-0.7545945084	-0.345444
C	 1.7242051474	-1.1853323106	 0.3101298763	 0.398934
O	 2.6363650568	-1.9691122982	 0.4305172945	-0.391848
C	 0.6700892156	-0.5790164998	 1.28391078	 0.233049
O	 1.1433076658	 0.3439915226	 2.2251922978	-0.47246
C	-0.1023494318	-1.70043005	 1.9733599691	-0.13211
O	 0.7654018523	-2.3169058449	 2.9156790182	-0.433091
H	 0.9916093911	 2.0153903071	 0.2569977127	 0.141765
H	-0.2253232861	 1.9547185865	-1.0410413948	 0.113019
H	-0.7333789904	 1.9858527319	 0.655976398	 0.130762
H	-0.9328511141	-0.32962015	-0.2489324935	 0.085118
H	 1.2796794881	-0.6720017821	-1.7488574963	 0.249866
H	 1.4073337545	-0.1839481039	 2.9921035757	 0.293635
H	-0.9443926168	-1.2918639487	 2.5419868448	 0.117366
H	-0.4927941313	-2.4191593839	 1.2379825389	 0.100431
H	 1.5185276947	-2.664540041	 2.4152106166	 0.304811
95.1407	111.5068	158.7566	200.209	208.7323	266.6155	285.8172	338.8272	430.1165	445.0819	459.7418	517.8254	589.4214	598.446	722.9726	754.446	781.1043	883.0984	907.0654	990.5564	1025.7667	1060.3942	1073.294	1118.8436	1141.3743	1186.6475	1207.3958	1263.5674	1290.8287	1352.2027	1376.9654	1382.9655	1413.1961	1427.572	1440.9864	1488.1752	1491.3873	1496.5668	1864.1394	2998.8319	3022.581	3044.6287	3077.7061	3111.3965	3142.0174	3596.8518	3730.6559	3748.1293
CC1NC(=O)C1(O)CO	C[C@H]1NC(=O)[C@]1(O)CO	
InChI=1S/C5H9NO3/c1-3-5(9,2-7)4(8)6-3/h3,7,9H,2H2,1H3,(H,6,8)	InChI=1S/C5H9NO3/c1-3-5(9,2-7)4(8)6-3/h3,7,9H,2H2,1H3,(H,6,8)/t3-,5+/m1/s1
