12
gdb 53726	4.54806	0.6244	0.59109	4.8435	70.08	-0.27	-0.1224	0.1477	1763.5857	0.073957	-472.623782	-472.614192	-472.613248	-472.660676	31.054	
N	 0.1997328238	 1.2052308846	-0.4432128183	-0.521245
C	-0.1640763347	 0.2382293467	 0.4394423148	 0.281948
O	 0.4290589065	-0.022026358	 1.4657015973	-0.31696
C	-1.3745642748	-0.491182576	 0.062347042	 0.068948
C	-2.3578570332	-1.1491674141	-0.1862160333	 0.021044
C	-3.5546155248	-1.9158253116	-0.4523249346	 0.156083
O	-3.6616853668	-2.7119538434	-1.3530142324	-0.239136
C	-4.7238621822	-1.6356450757	 0.5275580265	 0.076837
O	-5.7862997651	-2.1724718837	 0.4028499271	-0.194284
H	 1.0488700248	 1.7172057152	-0.2643201047	 0.278273
H	-0.2743980418	 1.3267088167	-1.3216760181	 0.277732
H	-4.4970530316	-0.9100606807	 1.3373430337	 0.110762
24.0595	62.9521	65.6479	108.2364	207.3826	229.4606	266.5374	288.9326	347.8927	519.8645	555.1465	571.5498	589.0383	631.8343	768.1627	812.8788	883.9097	1004.598	1092.3941	1121.2152	1348.5671	1398.0849	1613.4997	1770.956	1781.8543	1843.3884	2307.3868	2914.8255	3597.1057	3735.9799
NC(=O)C#CC(=O)C=O	NC(=O)C#CC(=O)C=O	
InChI=1S/C5H3NO3/c6-5(9)2-1-4(8)3-7/h3H,(H2,6,9)	InChI=1S/C5H3NO3/c6-5(9)2-1-4(8)3-7/h3H,(H2,6,9)
