19
gdb 105700	3.60844	0.75332	0.68089	2.3142	72.64	-0.2557	-0.0265	0.2292	1629.5846	0.15661	-460.145537	-460.135772	-460.134828	-460.181581	34.484	
O	-0.0056300828	 1.5590655056	-0.0693248536	-0.41583
C	 0.0924250225	 0.2099632744	 0.3230903577	-0.132912
C	-1.2576398428	-0.4987534623	 0.2708849235	 0.37947
C	-1.2517106189	-2.0030163459	 0.4695096883	-0.298466
C	-0.6643807446	-2.7647423097	-0.7358187443	-0.27254
C	-0.8840596214	-4.2548407027	-0.6098941729	 0.156431
O	-0.0168972877	-5.0878017933	-0.6540424063	-0.233116
C	-2.4703320984	 0.2836454688	 0.5399614963	-0.226965
O	-2.0860632822	-0.0352572967	-0.8116830138	-0.289373
H	-0.5442913243	 1.5579307581	-0.8721323416	 0.293033
H	 0.8133640668	-0.3389148613	-0.3041647019	 0.098465
H	 0.4761695803	 0.1928716875	 1.3496563929	 0.119314
H	-0.6862325458	-2.2446215855	 1.3781096366	 0.120134
H	-2.2806240168	-2.3403637603	 0.63781436	 0.112005
H	-1.1893351885	-2.4234628914	-1.6388922718	 0.140252
H	 0.4052686549	-2.5835865906	-0.8660099323	 0.126715
H	-1.9515672116	-4.5466845048	-0.4630978715	 0.072093
H	-3.3684112594	-0.2207317086	 0.8915754425	 0.117491
H	-2.3778336094	 1.3340697389	 0.8027265223	 0.1338
53.311	57.6609	89.2634	110.455	186.5557	245.8531	299.3176	344.6856	353.5284	442.929	499.3873	535.463	596.6122	717.2465	764.019	829.8483	857.9038	915.4167	937.9049	1008.2179	1045.0459	1059.0979	1089.3209	1110.6464	1130.3041	1174.516	1189.1067	1236.5601	1251.0467	1263.7367	1316.9911	1363.4977	1375.1615	1424.8121	1430.6838	1442.4609	1463.8895	1484.9697	1504.5665	1518.1636	1838.4009	2847.8954	2977.205	3024.1393	3033.0452	3062.8111	3072.0397	3098.5907	3112.8571	3195.6894	3761.1863
OCC1(CCC=O)CO1	OC[C@@]1(CCC=O)CO1	
InChI=1S/C6H10O3/c7-3-1-2-6(4-8)5-9-6/h3,8H,1-2,4-5H2	InChI=1S/C6H10O3/c7-3-1-2-6(4-8)5-9-6/h3,8H,1-2,4-5H2/t6-/m0/s1
