21
gdb 70327	2.14993	1.9972	1.34979	1.0097	81.03	-0.2349	0.0779	0.3128	1042.7629	0.182872	-387.07185	-387.063537	-387.062593	-387.103899	34.187	
C	 0.0319916672	 1.5059628197	-0.0876819038	-0.479689
C	 0.0825513401	-0.004229225	-0.0538592523	 0.277031
C	-0.6255312095	-0.7542596485	 1.0512351611	-0.347134
C	 0.8830979221	-0.7783565817	 0.9774388661	-0.065943
C	 1.5931040989	-1.9492546878	 0.2884005457	-0.253628
C	 1.2017506855	-1.8900059433	-1.1897995474	-0.071087
C	-0.2421364208	-2.1181030863	-1.6063659644	-0.368076
C	 0.2814051908	-0.7185206217	-1.4005604243	 0.340456
O	 0.4708540072	 0.0951776015	-2.5223341628	-0.460454
H	 0.8889123441	 1.9214914978	-0.6250136082	 0.130027
H	-0.8762142159	 1.869831156	-0.58384139	 0.10385
H	 0.0320800311	 1.9108153186	 0.9290479264	 0.109499
H	-1.0645024914	-0.1530672418	 1.8421736565	 0.102577
H	-1.1915541414	-1.6527586563	 0.8343611445	 0.106735
H	 1.4258969378	-0.25466652	 1.7583369091	 0.079737
H	 2.6768260209	-1.8179076648	 0.3780204554	 0.104156
H	 1.3540878142	-2.9150429195	 0.7496627709	 0.100491
H	 1.9577515485	-2.1173791533	-1.9330978148	 0.092249
H	-0.3830313357	-2.4131641247	-2.6414117593	 0.107957
H	-0.9516349232	-2.5630521764	-0.9185473779	 0.109773
H	-0.3960124506	 0.3632243276	-2.8461322105	 0.281473
127.6733	200.8532	237.0432	283.2406	313.7064	325.1135	373.2536	418.2885	442.0276	459.2779	590.13	598.7157	670.6999	791.9331	805.4204	834.3033	846.2203	870.7805	910.8085	942.9018	954.0676	978.2864	1029.0465	1050.2316	1051.3936	1061.8369	1082.0396	1105.1305	1119.7232	1129.2209	1182.9764	1224.5648	1232.3943	1268.9414	1315.1346	1327.0145	1331.1352	1391.6724	1393.5062	1418.536	1479.4512	1484.9053	1489.5044	1501.726	1506.5696	3024.8551	3032.0308	3068.3549	3085.4286	3113.2131	3122.9477	3131.8321	3151.5246	3171.8842	3204.2875	3217.1431	3796.4855
CC12CC1CC1CC21O	C[C@]12C[C@H]1C[C@H]1C[C@@]21O	
InChI=1S/C8H12O/c1-7-3-5(7)2-6-4-8(6,7)9/h5-6,9H,2-4H2,1H3	InChI=1S/C8H12O/c1-7-3-5(7)2-6-4-8(6,7)9/h5-6,9H,2-4H2,1H3/t5-,6+,7+,8+/m1/s1
