16
gdb 19666	4.52021	2.11802	1.98279	2.001	62.9	-0.2409	0.0779	0.3188	727.133	0.133085	-383.694114	-383.688435	-383.68749	-383.723569	24.008	
O	 0.1813786557	 1.4269001257	-0.0725648008	-0.45018
C	 0.0267152648	 0.0417964902	-0.0360811464	 0.185324
C	 0.1277797097	-0.6761403786	 1.3316196513	 0.012556
O	-0.8356921846	 0.0772108951	 2.098956764	-0.289721
C	-2.0087686465	-0.3284432166	 1.3580975489	 0.070098
C	-2.0543547257	-1.8457592581	 1.6299366484	-0.237222
C	-0.7852225911	-1.8340168161	 0.7629105775	-0.069233
C	-1.3650936869	-0.6188717269	-0.0606923219	-0.130416
H	-0.2047985877	 1.7486994332	 0.7534217936	 0.286707
H	 0.6799115664	-0.4033399905	-0.791741837	 0.089795
H	 1.0500055532	-0.8172933939	 1.8920741192	 0.081855
H	-2.8366726906	 0.3547823915	 1.5367802625	 0.084074
H	-2.0023148489	-2.1653962116	 2.673656621	 0.104262
H	-2.8786387005	-2.3397319806	 1.1092079211	 0.105161
H	-0.3146170679	-2.7110345841	 0.3248944967	 0.079721
H	-2.0081372094	-0.7093339786	-0.9331646081	 0.077219
209.7127	286.8762	462.5478	495.4236	513.9658	609.1323	699.6548	756.0852	783.2518	810.1029	831.0765	860.7177	913.2672	923.9605	958.393	966.1762	995.9011	1037.4473	1049.0672	1066.9695	1090.9311	1127.8555	1155.3702	1169.5382	1189.5803	1218.8978	1238.7569	1252.8411	1273.6441	1282.6498	1310.4501	1344.8777	1441.2058	1484.7877	3060.7249	3085.5977	3123.2249	3138.7012	3140.9106	3145.633	3154.0219	3757.8509
OC1C2OC3CC2C13	O[C@H]1[C@H]2O[C@@H]3C[C@H]2[C@H]13	
InChI=1S/C6H8O2/c7-5-4-2-1-3(4)8-6(2)5/h2-7H,1H2	InChI=1S/C6H8O2/c7-5-4-2-1-3(4)8-6(2)5/h2-7H,1H2/t2-,3+,4-,5+,6-/m0/s1
