18
gdb 50931	2.23522	1.28768	0.92482	4.0536	75.43	-0.2526	-0.0379	0.2147	1289.3568	0.145358	-439.068559	-439.059206	-439.058261	-439.103738	32.931	
N	 0.1018242912	 1.248197779	-0.0937047198	-0.44497
C	 0.035389584	 0.0113757853	 0.1341366625	 0.150026
O	-1.0291719461	-0.689962554	-0.3226399507	-0.184666
C	-1.0854367523	-2.0685245153	-0.0217895284	-0.017192
C	-1.3185404693	-2.3188975763	 1.4681024699	 0.158148
O	-1.2802381667	-1.4689364879	 2.3155352045	-0.231852
C	-2.1991350047	-2.7069137095	-0.8343088163	-0.024803
C	-3.4917909017	-1.9693964247	-1.0772010359	-0.256375
C	-2.5314189264	-2.2117009484	-2.2159460716	-0.273341
H	 0.9613668978	 1.6281844466	 0.2966984825	 0.23199
H	 0.774036021	-0.6026455794	 0.6623109563	 0.092702
H	-0.1289589491	-2.5595739653	-0.2785627004	 0.103788
H	-1.5212649284	-3.3864111023	 1.713303801	 0.08683
H	-2.2683468644	-3.7782545948	-0.6694265947	 0.094617
H	-4.4145221158	-2.5371948538	-1.0428487264	 0.114802
H	-3.5637327436	-0.9551679642	-0.7031487222	 0.145247
H	-1.9793220259	-1.3556338916	-2.5840333598	 0.139865
H	-2.7896637198	-2.9497636333	-2.9669730105	 0.115183
61.1887	79.9415	107.1271	141.7817	155.4	217.6622	275.691	328.1576	395.0718	527.9117	607.7363	680.3235	787.0384	812.3842	825.4139	842.006	855.1147	915.8668	1008.8115	1019.9077	1035.3947	1063.5554	1068.5213	1093.3972	1111.7232	1134.7845	1194.9928	1201.5951	1234.8404	1278.7334	1289.8501	1353.2189	1399.0485	1414.828	1426.991	1460.4529	1502.0579	1749.0993	1844.1327	2875.4556	2942.6813	3051.1443	3143.0112	3144.6264	3152.3513	3229.0495	3241.977	3522.7016
N=COC(C=O)C1CC1	[NH][CH]O[C@@H](C=O)C1CC1	
InChI=1S/C6H9NO2/c7-4-9-6(3-8)5-1-2-5/h3-7H,1-2H2	InChI=1S/C6H9NO2/c7-4-9-6(3-8)5-1-2-5/h3-7H,1-2H2/t6-/m0/s1
