16
gdb 69108	2.59663	1.60071	1.21839	2.6109	69.72	-0.264	0.0133	0.2773	1020.854	0.124321	-437.883845	-437.875702	-437.874758	-437.916567	30.412	
O	 0.0979688396	 1.383032503	 0.0581691125	-0.455273
C	 0.0188011753	 0.0067823324	 0.047497872	 0.360983
C	-0.3353175678	-0.8148589106	-1.1470872582	-0.386555
C	-1.2846625026	-0.8120517959	 0.0611733617	 0.089305
C	-1.0522634672	-1.916635266	 1.0866083185	-0.147006
O	 0.3604462566	-1.9767229715	 1.2433538706	-0.253451
C	 0.8898241903	-0.6669515183	 1.094209243	-0.122493
C	-2.5478161831	-0.1597038685	-0.0488191467	 0.189181
N	-3.5538444819	 0.4059545933	-0.1461166446	-0.345308
H	-0.5596072107	 1.7543007624	-0.5407244593	 0.302157
H	-0.6921595205	-0.2889173411	-2.0262645465	 0.136465
H	 0.2097200925	-1.7324175512	-1.3455557894	 0.144042
H	-1.5592345164	-1.6603962896	 2.028702452	 0.117427
H	-1.3866053176	-2.9056631961	 0.7606835714	 0.127524
H	 1.9377423111	-0.7662553472	 0.7980143299	 0.126336
H	 0.8332247725	-0.0822552851	 2.0247095328	 0.116665
87.266	143.7406	172.7996	235.5131	263.8443	349.6329	394.4065	431.8877	487.7926	562.2489	604.5341	628.0763	719.6239	732.0082	870.9171	926.3806	937.9528	959.9848	1046.0321	1071.0588	1084.1638	1107.1091	1126.6395	1179.0352	1215.1093	1246.0025	1271.965	1329.0993	1358.6829	1408.4102	1431.0595	1472.365	1508.5289	1520.9535	2341.7514	2998.5641	3002.5545	3087.9762	3094.0468	3128.5672	3223.0862	3809.4554
OC12CC1(COC2)C#N	O[C@]12C[C@]1(COC2)C#N	
InChI=1S/C6H7NO2/c7-2-5-1-6(5,8)4-9-3-5/h8H,1,3-4H2	InChI=1S/C6H7NO2/c7-2-5-1-6(5,8)4-9-3-5/h8H,1,3-4H2/t5-,6+/m1/s1
