17
gdb 77709	3.20122	1.34244	1.12527	2.2522	68.63	-0.2492	0.0473	0.2965	1093.6137	0.134295	-458.897646	-458.889579	-458.888635	-458.930244	31.003	
O	 0.5605695578	 0.7623910126	-0.5551733446	-0.429797
C	 0.0384228944	-0.4811576153	-0.1987097249	-0.005589
C	 0.1290496352	-0.8648429423	 1.2912656462	 0.365034
C	 1.2864132654	-0.9941021954	 2.1658452064	-0.266978
O	 0.4748886631	 0.198732883	 2.1810540222	-0.277606
C	-1.2915944349	-1.4354056866	 1.2883913182	-0.410664
C	-1.4854836805	-0.6855640063	-0.043159066	 0.408711
C	-2.5458256272	 0.2336704442	-0.4467201695	-0.259947
O	-2.368868347	-1.0482403244	-1.0779528056	-0.277182
H	 0.5947594351	 1.2794589035	 0.2623036747	 0.29335
H	 0.4611365568	-1.2445609393	-0.8627226776	 0.103107
H	 1.2234647656	-1.5996804954	 3.0682474681	 0.125864
H	 2.2870887556	-0.8666901546	 1.7558382062	 0.127812
H	-1.3159940382	-2.5218397584	 1.1610336945	 0.125674
H	-1.9238784098	-1.1477831791	 2.1304211877	 0.128827
H	-3.4408248081	 0.3306643816	 0.1658296315	 0.117959
H	-2.2940640033	 1.093073522	-1.0650113375	 0.131425
71.2896	203.1678	212.6281	247.6833	281.4833	336.8453	370.3048	431.8486	471.0921	517.2019	605.9309	703.8888	796.7435	817.7456	861.8866	883.5438	896.7799	922.2655	962.1681	1067.6731	1087.954	1118.2318	1123.2064	1132.1738	1141.1701	1157.5749	1174.2176	1197.6332	1220.7902	1246.2287	1333.2573	1413.6364	1438.1267	1443.8604	1474.597	1526.6448	1544.1963	3046.4297	3063.16	3088.6534	3088.8133	3125.5541	3177.5872	3182.2144	3740.5609
OC1C2(CO2)CC11CO1	O[C@H]1[C@]2(CO2)C[C@]21CO2	
InChI=1S/C6H8O3/c7-4-5(2-8-5)1-6(4)3-9-6/h4,7H,1-3H2	InChI=1S/C6H8O3/c7-4-5(2-8-5)1-6(4)3-9-6/h4,7H,1-3H2/t5-,6-/m1/s1
