19
gdb 58691	2.4525	1.17725	0.95765	3.5179	72.45	-0.2725	0.0023	0.2748	1282.1204	0.156191	-460.168209	-460.158453	-460.157509	-460.202899	35.686	
C	-1.4808690599	-0.0950469746	-0.1662488083	-0.418503
C	 0.0229979371	-0.0546009953	 0.0959576416	 0.069678
O	 0.3729585231	-0.731486814	 1.2953694265	-0.426645
C	 0.8260471478	-0.6011739332	-1.0867119067	 0.400496
C	 2.1988870111	-1.1847924334	-0.8997184456	-0.32586
C	 1.0291849651	-2.0721855161	-1.2724268512	-0.313347
O	 0.5596443736	 0.1171081281	-2.2858202007	-0.23331
C	 1.2698029542	 1.2484367055	-2.4990513529	 0.151714
O	 1.0751262749	 1.9565385193	-3.4403811083	-0.274024
H	-1.7357466608	 0.4571279864	-1.0735882715	 0.14846
H	-1.817483334	-1.1303259162	-0.3029184655	 0.11484
H	-2.0219910888	 0.3412584702	 0.6776829546	 0.126501
H	 0.3313394409	 0.9886730911	 0.2511584583	 0.090911
H	-0.2196348485	-1.4833599981	 1.3962421498	 0.287767
H	 2.9416781104	-0.9915306231	-1.6651120143	 0.125242
H	 2.5737456568	-1.2404799604	 0.1147635403	 0.142124
H	 0.638312057	-2.7426762515	-0.5156928859	 0.10818
H	 0.9804286646	-2.4466681568	-2.2879851128	 0.13438
H	 2.0371609155	 1.4249098521	-1.7237324074	 0.091396
75.1278	82.8902	172.1496	198.0083	228.4688	236.6357	251.4715	291.9132	333.004	399.1525	425.0466	460.4875	547.4502	631.7993	738.6371	777.6723	889.7956	906.7845	943.0316	966.2652	1008.7984	1051.9394	1061.7912	1072.8022	1080.2594	1090.6352	1140.2417	1169.6782	1195.6418	1244.7708	1304.3709	1341.4306	1372.5466	1404.1266	1412.8852	1418.334	1443.7112	1491.193	1492.1544	1496.7232	1864.1273	2977.5388	3012.3088	3032.3199	3106.0218	3135.3166	3143.4216	3146.6075	3229.744	3243.8771	3818.8999
CC(O)C1(CC1)OC=O	C[C@@H](O)C1(CC1)OC=O	
InChI=1S/C6H10O3/c1-5(8)6(2-3-6)9-4-7/h4-5,8H,2-3H2,1H3	InChI=1S/C6H10O3/c1-5(8)6(2-3-6)9-4-7/h4-5,8H,2-3H2,1H3/t5-/m1/s1
