20
gdb 100273	1.96873	1.42949	1.18147	3.8225	70.27	-0.2535	0.014	0.2675	1180.5661	0.170122	-477.459755	-477.449626	-477.448682	-477.494827	37.2	
C	 0.0369858638	 1.567794465	-0.0603909711	-0.402885
C	-0.0184759983	 0.0368905461	 0.0021193062	-0.217881
C	-1.4285007602	-0.5851707416	-0.076067863	 0.086262
N	-2.1493818867	-0.1162880615	-1.2741394044	-0.565223
H	-1.5196693368	-0.0222494307	-2.0646166281	 0.238597
H	-2.8465145926	-0.8181631825	-1.5168988258	 0.253603
H	-2.9990030496	 1.0408551713	-0.0566333883	 0.309855
C	-1.3307884244	-2.1210276057	-0.028892319	-0.095631
O	-2.616434553	-2.71703135	-0.1110245038	-0.4365
C	-2.2488918533	-0.1285529676	 1.157179789	 0.437472
O	-3.0665660819	 0.8993673758	 0.9159404768	-0.371605
O	-2.1520086635	-0.6523539945	 2.23919479	-0.370439
H	 1.0748774741	 1.9081541807	-0.0041510407	 0.121507
H	-0.3898619412	 1.9534767997	-0.9909293349	 0.119957
H	-0.5095484315	 2.0246481351	 0.7696284504	 0.141865
H	 0.578069862	-0.3880067524	-0.8169840458	 0.097332
H	 0.4416204175	-0.3095670197	 0.9333761054	 0.129629
H	-0.7682468336	-2.4719558918	-0.9009791205	 0.10159
H	-0.8010986661	-2.43056075	 0.8784618865	 0.120886
H	-3.0187934748	-2.6333890055	 0.7615716011	 0.30161
65.11	97.9549	110.7936	177.3805	189.929	240.9392	296.6669	314.239	357.6487	385.8653	391.2018	472.206	498.8808	561.7973	603.701	744.7212	768.8861	803.9136	874.5901	888.1722	943.423	958.3057	1021.5535	1041.0342	1060.5593	1089.4571	1148.7159	1197.5824	1217.341	1256.7484	1278.8551	1351.1768	1371.2451	1392.2623	1409.189	1420.6712	1436.5522	1477.3044	1487.8682	1500.2437	1507.0978	1643.5196	1846.7844	3013.6117	3036.9192	3045.1177	3075.2984	3089.5343	3114.3857	3119.0883	3439.1002	3475.5737	3565.925	3798.0712
CCC([NH3+])(CO)C([O-])=O	CC[C@@](N)(CO)C(=O)O	
InChI=1S/C5H11NO3/c1-2-5(6,3-7)4(8)9/h7H,2-3,6H2,1H3,(H,8,9)	InChI=1S/C5H11NO3/c1-2-5(6,3-7)4(8)9/h7H,2-3,6H2,1H3,(H,8,9)/t5-/m1/s1
