19
gdb 6400	4.58102	1.01877	0.88437	3.6513	68.5	-0.2351	0.0364	0.2715	1313.677	0.16422	-402.243161	-402.233627	-402.232683	-402.277857	34.466	
C	-0.1683725844	 1.5639278012	-0.5117523869	-0.384206
C	-0.1704016387	 0.1917822808	 0.1662959026	-0.182928
C	-1.4428564586	-0.6180671489	-0.1037259412	 0.10278
O	-1.6502646256	-0.7939261282	-1.5161248457	-0.424732
C	-1.4397042294	-1.9630799979	 0.6397149759	-0.304173
C	-2.7579946509	-2.7478040268	 0.6473656615	 0.366295
N	-3.436678718	-2.7507341773	-0.532724322	-0.513031
O	-3.1357707087	-3.346848739	 1.6366565204	-0.364056
H	 0.7711429486	 2.0924542045	-0.3264931007	 0.115027
H	-0.3012305846	 1.4659716297	-1.5923000918	 0.125671
H	-0.9843850346	 2.1891841889	-0.1335443086	 0.119373
H	 0.6970470226	-0.3968376868	-0.1679817952	 0.088903
H	-0.0566074505	 0.3066874476	 1.2507368245	 0.108794
H	-2.312654586	-0.0313861937	 0.2166659201	 0.102752
H	-0.8776664133	-1.2529027201	-1.8677095828	 0.283193
H	-0.6591791296	-2.6065092837	 0.2082700354	 0.11051
H	-1.1762201126	-1.8122480976	 1.6892180382	 0.130356
H	-3.1377890007	-2.155003647	-1.2911994138	 0.266238
H	-4.334263435	-3.2060076154	-0.55702711	 0.253235
45.962	84.8433	124.0097	163.6578	221.3542	289.9738	310.0562	339.8051	372.8429	435.0251	458.5986	520.1026	567.0986	631.5665	748.2101	780.8061	854.368	869.4265	920.0997	982.7901	1031.9726	1056.7175	1095.1722	1123.5171	1149.3267	1185.462	1262.7984	1285.3523	1347.4882	1348.6907	1367.1172	1388.7263	1407.4909	1421.1752	1457.8269	1483.0569	1495.3065	1508.3452	1609.1559	1797.9206	3000.9554	3014.2638	3040.1179	3044.365	3061.0002	3106.0318	3110.5516	3122.9902	3549.826	3706.2824	3784.6969
CCC(O)CC(N)=O	CC[C@@H](O)CC(=O)N	
InChI=1S/C5H11NO2/c1-2-4(7)3-5(6)8/h4,7H,2-3H2,1H3,(H2,6,8)	InChI=1S/C5H11NO2/c1-2-4(7)3-5(6)8/h4,7H,2-3H2,1H3,(H2,6,8)/t4-/m1/s1
