15
gdb 65844	2.74118	1.33417	1.22518	5.1598	67.02	-0.291	0.0079	0.299	1072.3367	0.11099	-457.780271	-457.77197	-457.771026	-457.813434	30.509	
C	-0.0591100628	 1.5932862477	-0.0199054368	-0.435837
C	 0.0422813854	 0.0699097293	-0.0288954862	 0.146539
C	 0.8776758419	-0.4915131597	-1.2106234416	-0.128862
O	 1.6872940999	-1.4971221801	-0.6099962666	-0.242251
C	 1.7084224902	-1.3285009747	 0.7377918719	 0.497586
O	 2.3947115627	-1.9415409542	 1.4881136119	-0.36526
O	 0.8379003282	-0.3502247743	 1.1054088408	-0.259174
C	-1.2777360837	-0.5592063375	 0.0504304767	 0.359186
C	-2.365461417	-1.0661369621	 0.0938772181	-0.484717
H	 0.9422943785	 2.0313434724	-0.0212455261	 0.135462
H	-0.6037349641	 1.9368628677	-0.9038705778	 0.139014
H	-0.5950312898	 1.9304049019	 0.8693579093	 0.153268
H	 0.2622634142	-0.9434494322	-1.988247372	 0.146109
H	 1.5201934387	 0.2824530084	-1.6445010275	 0.123947
H	-3.3251639221	-1.5200097525	 0.142570306	 0.214989
66.7151	137.2409	179.2009	205.9345	234.0333	310.4144	396.3628	479.1057	490.1637	593.8211	618.7467	648.4483	683.8659	726.4474	772.5333	807.3761	886.8622	946.4821	963.1843	1015.7637	1104.8425	1108.2885	1150.3439	1201.5673	1234.2979	1278.7319	1395.5231	1411.0478	1480.1843	1492.0402	1519.3599	1931.7872	2241.0995	3046.5605	3052.381	3129.5331	3137.6744	3143.9163	3497.1854
CC1(COC(=O)O1)C#C	C[C@]1(COC(=O)O1)C#C	
InChI=1S/C6H6O3/c1-3-6(2)4-8-5(7)9-6/h1H,4H2,2H3	InChI=1S/C6H6O3/c1-3-6(2)4-8-5(7)9-6/h1H,4H2,2H3/t6-/m1/s1
