19
gdb 115889	2.5244	1.50877	1.13642	0.2553	71.72	-0.2566	0.0816	0.3382	1131.2394	0.158588	-460.141883	-460.133121	-460.132177	-460.17527	32.902	
C	 0.0348053109	 1.3547702009	-0.1163426199	-0.240495
O	 0.0234064487	-0.0613124755	-0.0464410325	-0.247296
C	-1.2497592858	-0.6131089627	 0.0185429632	 0.155236
O	-1.9318315059	-0.4284676678	-1.2172820966	-0.281776
C	-2.8118873224	-1.5324071071	-1.4335771659	-0.093591
C	-2.1806128817	-2.7085714006	-0.7110315767	-0.113034
C	-0.6967505384	-2.9118907782	-0.946256684	-0.342844
C	-1.1823511714	-2.1146837595	 0.2353659761	 0.365693
O	-1.0477943579	-2.5745365534	 1.5391080672	-0.472473
H	 1.079945754	 1.6681503041	-0.0687558554	 0.125687
H	-0.4102477986	 1.7125618273	-1.0515797052	 0.131743
H	-0.5114697142	 1.799137436	 0.7291682625	 0.106945
H	-1.8215026227	-0.1430350528	 0.8417054409	 0.06067
H	-3.8118012829	-1.3235522898	-1.0232547396	 0.09867
H	-2.9055202714	-1.6669382824	-2.5164371084	 0.11165
H	-2.7930104186	-3.5520721974	-0.4173357629	 0.101666
H	-0.3112914322	-3.8991654339	-0.7184838291	 0.11387
H	-0.2121281717	-2.3919827989	-1.7657170819	 0.129233
H	-0.1363817278	-2.4117128283	 1.8080717083	 0.290445
90.1314	121.8578	168.1956	207.8253	231.9934	293.8941	327.7455	360.2266	430.9774	485.3437	559.1497	594.1962	687.8657	759.0633	853.6877	915.7752	938.2481	977.6452	984.5231	1025.293	1031.034	1051.8673	1079.4545	1092.3853	1121.2429	1158.4097	1181.3936	1221.2377	1237.2889	1247.4484	1273.9655	1332.8788	1354.4633	1376.7609	1407.0742	1423.1495	1480.1791	1486.1746	1492.599	1511.6992	1520.111	2922.6118	2987.8056	2993.8956	3065.9491	3069.7315	3124.8605	3135.3177	3194.0179	3230.1939	3793.3253
COC1OCC2CC12O	CO[C@H]1OC[C@H]2C[C@@]12O	
InChI=1S/C6H10O3/c1-8-5-6(7)2-4(6)3-9-5/h4-5,7H,2-3H2,1H3	InChI=1S/C6H10O3/c1-8-5-6(7)2-4(6)3-9-5/h4-5,7H,2-3H2,1H3/t4-,5+,6+/m1/s1
