19
gdb 34634	2.98043	1.36133	1.00435	1.0199	90.68	-0.22	-0.0137	0.2063	1197.2646	0.160339	-348.729502	-348.72141	-348.720466	-348.76198	32.128	
C	 0.0879570885	-1.2071774213	-0.1031849491	-0.431749
C	 0.002360892	-0.0070286596	-0.0323000795	 0.242479
C	-0.042669349	 1.4143458434	 0.0420815512	 0.142799
C	-1.2043467982	 2.0918066589	 0.0398644692	-0.147745
C	-1.2654610552	 3.5949262416	 0.1130034066	-0.24848
C	-0.1039972353	 4.1798975602	 0.9389730504	-0.230563
C	 1.2446546238	 3.5821163052	 0.5414126286	-0.02836
C	 1.8910710807	 2.5285221754	 1.4103781149	-0.284356
C	 1.2630642848	 2.1420549203	 0.0887533605	-0.125137
H	 0.148666893	-2.2653315823	-0.1627544982	 0.189859
H	-2.1383432472	 1.5413658581	-0.0200444696	 0.093949
H	-1.2443336013	 4.0087934966	-0.9066373514	 0.116036
H	-2.2245416467	 3.9084652666	 0.5397305751	 0.103186
H	-0.0777827152	 5.2685327388	 0.8267769191	 0.098052
H	-0.3010586687	 3.9835931278	 1.9988314718	 0.105155
H	 1.9186966627	 4.2532730613	 0.0188925479	 0.083416
H	 2.9728589611	 2.5031043727	 1.4853654566	 0.110425
H	 1.3683804743	 2.2398943024	 2.3167081188	 0.114703
H	 1.9548648057	 1.8693895039	-0.7029332328	 0.096331
94.9534	138.8262	183.6585	235.5791	364.3711	396.9313	423.9782	491.7021	544.0301	573.8391	615.1867	631.9538	643.3834	748.2576	778.0174	835.4503	871.6686	885.3865	922.566	957.1275	993.2991	1013.5184	1060.3092	1072.2886	1101.0918	1125.1064	1133.9459	1163.4382	1218.8138	1226.9993	1253.3661	1318.0007	1347.6553	1370.4036	1391.735	1416.8036	1473.7497	1482.3636	1494.9118	1676.9159	2217.8395	2994.8976	3035.6046	3060.8678	3077.0849	3127.2128	3144.5053	3155.8074	3175.0197	3216.0473	3504.1464
C#CC1=CCCC2CC12	C#CC1=CCC[C@H]2C[C@@H]12	
InChI=1S/C9H10/c1-2-7-4-3-5-8-6-9(7)8/h1,4,8-9H,3,5-6H2	InChI=1S/C9H10/c1-2-7-4-3-5-8-6-9(7)8/h1,4,8-9H,3,5-6H2/t8-,9-/m0/s1
