18
gdb 63363	2.87301	1.16215	1.06031	2.6092	79.81	-0.2392	-0.0295	0.2097	1227.5708	0.144157	-401.912	-401.902318	-401.901373	-401.94646	35.682	
C	-0.8811885562	 1.5006269311	-0.0417943116	-0.416458
C	-0.1775532827	 0.1462890729	-0.0166274923	 0.190473
C	-1.1440667508	-1.0123274545	-0.2887774733	-0.442256
N	 1.0817938954	 0.1158569465	-0.8316017764	-0.348216
C	 1.9183208597	-0.3937113905	 0.2956018716	-0.306411
C	 3.161639678	 0.3027900696	 0.5548432294	 0.348902
C	 4.1860272333	 0.8818276287	 0.7991118215	-0.423387
C	 0.6969892676	-0.1106093051	 1.2252631543	 0.370711
O	 0.5238183053	-0.0841626632	 2.402381412	-0.285715
H	-0.1648939931	 2.3091997208	 0.1202569491	 0.133219
H	-1.3618420795	 1.6603204025	-1.0128239353	 0.119637
H	-1.6490024616	 1.5469736388	 0.7367073138	 0.129007
H	-1.5808826073	-0.9064741926	-1.2882662359	 0.12644
H	-0.6400311779	-1.9830289978	-0.2363557819	 0.120512
H	-1.9610986378	-1.0152766794	 0.4387169993	 0.140105
H	 1.0459855144	-0.5217119184	-1.6197218917	 0.221216
H	 2.0978911708	-1.4799386617	 0.26600588	 0.121724
H	 5.0902960824	 1.3974288922	 1.0093344974	 0.200498
53.7033	121.5719	157.7682	192.7134	210.7904	224.2199	275.2522	331.6677	377.4632	397.602	480.0952	555.2386	580.0008	614.5623	662.9108	678.3017	765.6749	772.1833	898.4634	937.9772	945.1607	977.5585	1000.0439	1013.72	1086.4541	1152.8929	1177.1787	1218.4282	1264.9045	1331.8337	1372.086	1392.1772	1412.9891	1475.8079	1480.2136	1498.5643	1502.3628	1919.4559	2237.104	2980.5971	3027.9431	3038.3871	3096.7487	3107.8001	3112.8305	3129.5012	3503.9651	3532.8991
CC1(C)NC(C#C)C1=O	CC1(C)N[C@@H](C#C)C1=O	
InChI=1S/C7H9NO/c1-4-5-6(9)7(2,3)8-5/h1,5,8H,2-3H3	InChI=1S/C7H9NO/c1-4-5-6(9)7(2,3)8-5/h1,5,8H,2-3H3/t5-/m0/s1
