13
gdb 123678	4.28142	1.63158	1.42109	4.3637	62.82	-0.2821	-0.0448	0.2372	862.979	0.091331	-452.636446	-452.630801	-452.629857	-452.666417	22.916	
C	-0.0506448465	 1.5857475088	-0.0751511086	-0.229488
C	 1.4899896253	 1.3394507214	-0.0085038375	-0.065777
O	 1.1910692265	 0.1663768535	 0.8362067582	-0.280827
C	-0.0171407391	 0.0262858529	-0.0002112165	-0.065777
C	 0.6453984709	-0.3066014345	-1.3238821836	 0.395633
N	 0.6797574361	-1.0338805602	-2.3857624598	-0.243523
O	 1.795804414	-0.552433258	-3.0829339542	-0.171977
N	 2.4298349732	 0.4909778459	-2.3953966335	-0.243524
C	 1.7207652814	 0.630370998	-1.329800753	 0.395633
H	-0.4234529396	 2.0194883775	 0.8535656569	 0.13538
H	-0.4766022558	 2.0690551744	-0.9566859074	 0.129868
H	 2.2116203794	 2.0351729209	 0.408495636	 0.122189
H	-0.8024703659	-0.5910096607	 0.4250798231	 0.122189
178.6373	310.6282	437.9976	474.0957	568.3237	596.9127	689.1079	700.2827	740.0547	783.3279	833.6935	850.9984	854.6438	893.3793	924.9773	1004.8827	1039.9751	1052.6337	1062.1807	1161.7843	1168.5575	1226.0534	1255.8449	1265.1363	1275.1039	1355.8572	1480.8345	1607.9225	1697.8894	3078.6738	3154.7874	3181.5438	3182.784
C1C2OC1C1=NON=C21	C1[C@H]2O[C@@H]1c1nonc21	
InChI=1S/C5H4N2O2/c1-2-4-5(3(1)8-2)7-9-6-4/h2-3H,1H2	InChI=1S/C5H4N2O2/c1-2-4-5(3(1)8-2)7-9-6-4/h2-3H,1H2/t2-,3+
