17
gdb 97192	3.49589	1.1778	0.90867	3.0115	75.21	-0.2417	-0.0069	0.2348	1256.6425	0.13718	-455.201669	-455.193175	-455.192231	-455.235442	30.654	
C	-0.2184039668	 1.4431111528	 0.074987448	-0.326045
N	-0.1371816337	-0.004723985	 0.1284463965	-0.343222
C	 0.6655887292	-0.5574841454	 0.9287447492	 0.493878
N	 0.7715098344	-1.9529879655	 0.937342771	-0.385195
C	 1.403795824	-2.7480772482	 1.8724787068	 0.41048
O	 1.3470049779	-3.9561736472	 1.8329539519	-0.35157
C	 2.1594820424	-1.9505078687	 2.9204710563	-0.332911
C	 2.5794967655	-0.6028679161	 2.3522197794	-0.100294
O	 1.4439092004	 0.0986872042	 1.8262527525	-0.254107
H	 0.6516181572	 1.9549714549	 0.5022128248	 0.118615
H	-0.3354429974	 1.752115271	-0.9685893291	 0.123866
H	-1.111503856	 1.7873812358	 0.6117914855	 0.126316
H	 0.2076791685	-2.4220333146	 0.2414532512	 0.271768
H	 1.5020901149	-1.8067956463	 3.7859844253	 0.14668
H	 3.0195300807	-2.538137502	 3.2484776641	 0.143471
H	 2.9946230821	 0.0547749518	 3.1176765304	 0.132396
H	 3.3281972169	-0.7287228514	 1.5595683963	 0.125874
74.0173	90.01	121.1963	207.8979	259.0501	259.8519	397.8909	451.2579	477.5394	542.0805	614.6277	687.9495	722.3606	730.0648	795.1755	898.6231	924.7218	984.6982	1061.9658	1077.0219	1097.7884	1133.7739	1169.1932	1216.669	1253.0226	1284.029	1342.4982	1366.2201	1415.2848	1435.736	1444.1525	1455.6039	1494.3183	1500.3166	1512.4701	1786.2391	1818.9995	3013.6316	3029.3543	3053.7497	3069.2273	3091.1471	3118.8263	3123.1009	3611.6346
CN=C1NC(=O)CCO1	CN=C1NC(=O)CCO1	
InChI=1S/C5H8N2O2/c1-6-5-7-4(8)2-3-9-5/h2-3H2,1H3,(H,6,7,8)	InChI=1S/C5H8N2O2/c1-6-5-7-4(8)2-3-9-5/h2-3H2,1H3,(H,6,7,8)
