19
gdb 40630	4.10592	1.17793	1.15862	1.756	74.58	-0.2371	0.0872	0.3244	1125.0731	0.160848	-422.970215	-422.962909	-422.961965	-423.00246	28.858	
C	 0.0890103882	 1.5063410806	 0.0252617837	-0.180931
O	 1.0853278981	 0.5547464491	-0.3542506658	-0.225756
C	-0.212027731	 0.067619635	 0.007606059	 0.039104
C	-0.3921087003	-0.7314453189	 1.2714329711	-0.016155
C	 0.0385966302	-2.2435943917	 1.2623854822	-0.090515
C	 1.490766111	-1.7456914923	 1.5485406166	-0.244286
C	 0.7061428177	-0.7042126712	 2.377120544	 0.096815
O	 0.1078267106	-1.4892826171	 3.4222905584	-0.285489
C	-0.3912194617	-2.6316151612	 2.6819267681	-0.087493
H	 0.2614878074	 2.005176199	 0.9777406851	 0.117354
H	-0.2747118096	 2.1470653449	-0.7765256185	 0.116552
H	-0.7838842895	-0.3042185504	-0.8458079845	 0.093989
H	-1.405796096	-0.5479482723	 1.6479475666	 0.081316
H	-0.2109820234	-2.9228867389	 0.4474034995	 0.071278
H	 2.1567961991	-2.410275576	 2.1043288757	 0.09549
H	 1.9833213906	-1.3186936818	 0.6784879312	 0.138627
H	 1.1362477275	 0.2025534498	 2.7987570082	 0.081335
H	-1.4775189994	-2.7133656156	 2.8072051425	 0.097668
H	 0.0811370803	-3.5517092309	 3.0456979468	 0.101098
55.679	162.5711	199.3871	328.5377	372.0293	404.4768	488.095	598.8705	658.0586	794.9586	835.23	850.8952	890.2829	891.2993	913.995	930.9695	944.1649	967.5748	997.1482	1005.9897	1038.6343	1061.2705	1088.7791	1101.601	1126.3069	1131.541	1158.9178	1172.3456	1188.9317	1219.3795	1237.0029	1256.3885	1265.5589	1280.2759	1299.536	1356.2332	1384.4503	1426.4344	1494.126	1526.104	1529.2536	3020.7723	3035.5862	3061.3622	3076.6548	3080.5118	3086.3254	3119.8073	3139.2703	3172.9552	3177.691
C1OC1C1C2CC1OC2	C1O[C@H]1[C@H]1[C@H]2C[C@@H]1OC2	
InChI=1S/C7H10O2/c1-4-2-8-5(1)7(4)6-3-9-6/h4-7H,1-3H2	InChI=1S/C7H10O2/c1-4-2-8-5(1)7(4)6-3-9-6/h4-7H,1-3H2/t4-,5-,6+,7-/m0/s1
