25
gdb 118341	2.03113	0.98484	0.70275	2.6665	90.29	-0.2432	-0.0171	0.2261	1715.5213	0.225408	-389.516747	-389.504939	-389.503995	-389.554996	41.67	
C	-0.0728237913	 1.5779140381	 0.0828741573	-0.383553
C	-0.0647777744	 0.0482768917	 0.0219421576	-0.174738
C	 0.6934912564	-0.4903539908	-1.1991366714	-0.205462
C	 0.7512164124	-2.0323608407	-1.2716503742	-0.051139
C	-0.6676023452	-2.5532721083	-1.3994077388	 0.164583
O	-1.2474569709	-3.2387800572	-0.5972573539	-0.262734
C	 1.5962993385	-2.5707495161	-2.4595275331	 0.018021
C	 3.0364428421	-2.0380336927	-2.4512338557	-0.399541
C	 1.6050983191	-4.1081256621	-2.4712518928	-0.399244
H	 0.946206659	 1.9784586726	 0.1281711367	 0.113716
H	-0.5568707571	 2.0080889821	-0.8011128037	 0.114355
H	-0.6114693079	 1.9377458059	 0.9647278371	 0.115828
H	 0.3935150272	-0.3551012517	 0.9340387616	 0.103334
H	-1.0965011744	-0.3239592895	 0.018289229	 0.111018
H	 0.23355838	-0.102275931	-2.1198126671	 0.09533
H	 1.7142737874	-0.0954041157	-1.1815059639	 0.105422
H	 1.1579002202	-2.4280956264	-0.3323309504	 0.085554
H	-1.173266604	-2.2284927224	-2.3432672896	 0.064892
H	 1.1153148633	-2.2262624431	-3.3873497987	 0.075361
H	 3.5393633257	-2.2805496908	-1.5076272595	 0.116134
H	 3.6128430229	-2.4988496598	-3.2599569328	 0.11443
H	 3.0856885769	-0.9555895708	-2.5915050381	 0.118585
H	 2.0826335453	-4.5008672968	-1.5660652078	 0.120685
H	 0.5959462524	-4.5285153125	-2.5160653841	 0.126798
H	 2.1633318966	-4.4854938421	-3.3336767439	 0.112366
38.8954	58.5898	73.9528	89.8093	130.7084	205.0628	226.1372	242.2829	256.8196	304.8239	314.3603	333.5249	383.4372	441.1271	484.7711	551.9354	737.3368	828.1451	849.5216	904.98	926.5044	931.2511	963.5309	970.2354	1005.3204	1039.0788	1066.9952	1084.925	1143.3462	1162.7824	1181.7155	1189.3149	1248.8633	1266.7127	1309.0658	1329.7998	1346.2579	1351.4913	1374.5639	1389.8373	1404.9432	1413.5485	1423.8503	1426.2826	1482.0764	1486.4785	1491.8865	1494.2301	1499.9287	1506.136	1510.2618	1511.8034	1831.1222	2818.3091	2991.9617	3006.35	3024.8811	3029.5087	3029.8744	3033.5615	3040.7063	3051.8661	3076.589	3093.7138	3096.3075	3100.0413	3104.3542	3107.8351	3116.4154
CCCC(C=O)C(C)C	CCC[C@@H](C=O)C(C)C	
InChI=1S/C8H16O/c1-4-5-8(6-9)7(2)3/h6-8H,4-5H2,1-3H3	InChI=1S/C8H16O/c1-4-5-8(6-9)7(2)3/h6-8H,4-5H2,1-3H3/t8-/m0/s1
