23
gdb 107664	3.12676	1.21603	1.0214	1.6576	84.98	-0.253	0.0832	0.3361	1288.3069	0.207171	-388.306962	-388.29804	-388.297096	-388.340507	34.812	
C	-0.5103107993	 1.4323823091	 0.1672693801	-0.382349
C	 0.1809034352	 0.0912674912	-0.1114573505	-0.25517
C	 0.9264533767	-0.4656586646	 1.0887282795	 0.405155
C	 2.1371916468	 0.3175224553	 1.5717557537	-0.267677
C	 2.860063671	-0.3630907457	 2.7419657928	-0.20479
C	 3.1896291561	-1.8205211034	 2.4029817137	-0.195634
C	 1.9181233645	-2.6532721538	 2.1682701943	-0.225508
C	 0.84334769	-1.9088200986	 1.3950388344	-0.008388
O	 0.0735147883	-0.9502091143	 2.1411632555	-0.299882
H	 0.209589285	 2.2277892523	 0.3829069886	 0.116567
H	-1.1017158396	 1.7497727306	-0.6966747347	 0.111568
H	-1.1831610389	 1.3423811635	 1.0253561319	 0.133572
H	-0.5714560904	-0.6431501582	-0.4192930036	 0.100548
H	 0.8822601023	 0.1960497967	-0.9495062867	 0.094607
H	 2.8286400129	 0.4330758764	 0.7254271371	 0.096031
H	 1.8248896167	 1.3286379002	 1.8575981341	 0.102975
H	 3.7755917587	 0.1907176587	 2.9751688476	 0.08984
H	 2.2233912878	-0.3241795234	 3.6326648637	 0.112637
H	 3.8088393961	-1.8397313551	 1.495894969	 0.092617
H	 3.7894394567	-2.2776210708	 3.19714918	 0.093388
H	 2.1667344258	-3.5777762757	 1.6349946008	 0.095815
H	 1.4810087172	-2.9569121667	 3.12780803	 0.114118
H	 0.2298360703	-2.5249809136	 0.7352209586	 0.079959
67.5504	118.9014	176.1049	209.9874	260.896	317.8076	336.7089	390.009	399.2798	490.8465	547.4367	610.3055	681.8842	773.2711	790.4627	833.678	863.6904	885.9815	916.0966	927.0887	974.4384	1006.7246	1044.6595	1055.5355	1076.0229	1087.4953	1106.8854	1127.2245	1194.1753	1209.1515	1224.5274	1278.3149	1285.6131	1307.9544	1332.5569	1366.2394	1371.4437	1379.3592	1389.1134	1393.4924	1407.2359	1460.9954	1475.4286	1477.6495	1488.0187	1490.7731	1498.5669	1500.3864	1508.4659	3013.6409	3015.4944	3025.3441	3027.3286	3038.7322	3040.3705	3059.0634	3063.1746	3066.7818	3072.6528	3084.7284	3089.7132	3108.2279	3115.9891
CCC12CCCCC1O2	CC[C@]12CCCC[C@H]1O2	
InChI=1S/C8H14O/c1-2-8-6-4-3-5-7(8)9-8/h7H,2-6H2,1H3	InChI=1S/C8H14O/c1-2-8-6-4-3-5-7(8)9-8/h7H,2-6H2,1H3/t7-,8+/m1/s1
