22
gdb 110638	2.42684	1.3916	1.06453	1.5155	86.28	-0.2092	0.071	0.2802	1256.2819	0.193503	-367.124416	-367.11537	-367.114426	-367.157919	35.374	
C	 0.2875477779	 1.5352485103	-0.1912856638	-0.405346
C	-0.2584770531	 0.1275158519	 0.0813144445	-0.216402
C	 0.5283747415	-0.5622629416	 1.1977089787	-0.017208
N	 0.0211857017	-1.3387688651	 2.369292611	-0.214312
C	-0.9542295579	-2.431408507	 1.9931608801	 0.002579
C	-1.3436910404	-2.6391399376	 0.55630159	-0.306675
C	 0.0086027629	-3.0931964874	 1.0353210662	-0.125837
C	 0.9972608843	-1.9576271642	 1.3828997842	 0.296096
C	 2.3987193178	-2.3162426995	 1.7877107854	-0.477028
H	 1.3387399424	 1.4991595022	-0.4972405441	 0.119161
H	-0.2759342365	 2.026982009	-0.9899637282	 0.112381
H	 0.2220848326	 2.1634798822	 0.7033094293	 0.12447
H	-1.3143048841	 0.2019095016	 0.3613628504	 0.119885
H	-0.2127945785	-0.454808314	-0.8443708651	 0.114647
H	 1.2666262426	 0.1267712617	 1.6120250153	 0.091778
H	-1.5258034259	-2.8484509743	 2.8124704342	 0.100261
H	-2.0409766955	-3.4661382798	 0.4435690115	 0.111985
H	-1.5010321076	-1.8510272848	-0.1624145451	 0.114116
H	 0.328484153	-4.1261308982	 0.9904888707	 0.090251
H	 2.9993906929	-2.586534192	 0.910356148	 0.11734
H	 2.8869870132	-1.4788969512	 2.2936058938	 0.124966
H	 2.3995113066	-3.1730680722	 2.471126513	 0.122893
66.7129	180.588	184.7551	197.8325	227.8229	277.5467	299.916	354.1572	400.0837	499.1089	557.8949	621.9597	693.7763	717.5833	766.5523	802.8991	850.954	882.3685	914.3118	940.382	955.7756	990.4079	1016.102	1055.2202	1061.4197	1065.7481	1077.3962	1088.1236	1119.2395	1142.1396	1150.8679	1188.8171	1229.5713	1297.871	1311.8144	1325.7293	1349.8173	1374.3598	1410.1708	1411.2588	1465.8168	1481.044	1485.0623	1493.2876	1499.3755	1503.8642	1511.7427	3022.2096	3032.3418	3040.1345	3076.0379	3081.3135	3083.1025	3104.974	3108.2722	3113.689	3135.1825	3185.2565	3197.2193	3259.0002
CCC1N2C3CC3C12C	CC[C@H]1N2[C@H]3C[C@H]3[C@@]12C	
InChI=1S/C8H13N/c1-3-7-8(2)5-4-6(5)9(7)8/h5-7H,3-4H2,1-2H3	InChI=1S/C8H13N/c1-3-7-8(2)5-4-6(5)9(7)8/h5-7H,3-4H2,1-2H3/t5-,6+,7-,8+,9?/m1/s1
