23
gdb 120923	3.15041	0.87128	0.79361	1.4061	86.15	-0.243	0.0816	0.3246	1555.6612	0.204957	-388.262461	-388.252586	-388.251642	-388.297444	37.05	
C	-0.0982024659	 1.5274397037	 0.0470144139	-0.499246
C	 0.0251247816	 0.030102829	 0.0306797256	 0.35591
C	-0.8156449533	-0.8653705526	 0.9026190136	-0.327552
C	 0.681564666	-0.9246735655	 1.0355230673	-0.094064
C	 1.2637002056	-1.7690298528	-0.1023156761	-0.249212
C	 0.6319584343	-0.7726320472	-1.1386019688	-0.039874
C	-0.292200588	-1.2972262349	-2.2336158449	-0.19763
C	 0.4443150307	-2.0992338708	-3.2993762466	-0.071671
O	-0.5096838571	-2.5424395016	-4.2541171157	-0.421657
H	 0.8376026083	 2.0095233189	-0.2601919156	 0.112168
H	-0.8862471459	 1.8724852612	-0.6339571961	 0.119531
H	-0.3489985066	 1.8932710046	 1.0484158095	 0.115554
H	-1.3344448165	-0.3526211349	 1.7070944981	 0.105139
H	-1.3656852585	-1.7113753531	 0.4960635518	 0.102833
H	 1.1831765617	-0.6902882513	 1.9674580267	 0.079722
H	 2.3553841586	-1.7795603794	-0.1363218875	 0.098058
H	 0.9057683797	-2.8044130199	-0.1476482292	 0.091263
H	 1.4322391747	-0.1793881214	-1.5982684193	 0.064519
H	-1.0759934655	-1.9331587391	-1.8060905411	 0.103247
H	-0.8031216891	-0.4588508475	-2.7238846385	 0.102168
H	 1.2161527478	-1.4686998366	-3.7718079181	 0.080516
H	 0.9644965132	-2.9518150568	-2.8328018802	 0.086784
H	-0.0491791356	-3.0603982219	-4.9205893488	 0.283496
73.2865	90.407	117.9769	170.0426	202.839	252.6126	263.7735	306.7112	340.8415	391.2334	452.7564	516.0099	615.0495	723.7445	786.7561	806.5743	848.7585	873.8733	912.7599	960.4713	968.9898	994.5146	1017.2695	1034.9239	1050.2775	1075.4403	1086.1132	1099.2435	1110.6304	1155.0402	1179.5245	1213.9973	1234.6455	1246.0283	1256.1334	1268.0966	1302.0266	1313.3824	1326.4128	1376.0706	1404.8821	1423.8138	1461.1925	1483.0425	1485.6893	1489.381	1498.9151	1506.8921	1527.4102	2956.4058	2981.9763	3015.6444	3022.2668	3029.0714	3032.3185	3072.1004	3073.2116	3091.4818	3099.9958	3103.1147	3172.0046	3190.9552	3828.7138
CC12CC1CC2CCO	C[C@]12C[C@H]1C[C@H]2CCO	
InChI=1S/C8H14O/c1-8-5-7(8)4-6(8)2-3-9/h6-7,9H,2-5H2,1H3	InChI=1S/C8H14O/c1-8-5-7(8)4-6(8)2-3-9/h6-7,9H,2-5H2,1H3/t6-,7-,8-/m1/s1
