19
gdb 33093	6.22595	0.77394	0.69603	1.6612	80.6	-0.1726	0.0586	0.2312	1625.7912	0.159498	-419.230104	-419.220508	-419.219564	-419.264774	35.08	
C	 0.0026156195	 1.5264990487	-0.0662585014	-0.391406
C	 0.0142408451	 0.0091574758	-0.0179407635	-0.037506
O	 0.6584089495	-0.4674048524	-1.1876698521	-0.274435
C	 0.762844133	-1.8178293138	-1.2926525844	 0.377234
C	 0.3073359523	-2.7969458284	-0.438232155	-0.235594
N	 0.6405261079	-4.0146082348	-1.0206146983	-0.289186
C	 1.3003512838	-3.8057009862	-2.1992934465	 0.325101
N	 1.7984412352	-4.9128397104	-2.9166329062	-0.608091
C	 1.3861707781	-2.4474279991	-2.4109539851	-0.364724
H	 1.0229538103	 1.9181122882	-0.1061264348	 0.128232
H	-0.5349283935	 1.8791385229	-0.9510088488	 0.127909
H	-0.4900570742	 1.9301059703	 0.8233903282	 0.11388
H	 0.549842011	-0.3527725691	 0.8732843467	 0.095217
H	-1.010477921	-0.3908138818	 0.030026605	 0.094483
H	-0.2288612357	-2.7498600555	 0.4925115157	 0.109253
H	 0.6015508517	-4.9069996592	-0.5608394751	 0.254436
H	 1.0625436976	-5.4193494153	-3.401142932	 0.242584
H	 2.4701449939	-4.6103023513	-3.6112303839	 0.246614
H	 1.8084829653	-1.9493746585	-3.2691454683	 0.086
61.9425	103.7039	120.808	143.9619	220.6605	252.7022	313.8733	335.0669	346.3767	431.6037	485.7504	601.6328	641.8032	667.3639	676.1658	749.1007	759.4814	829.2251	832.3551	912.7887	994.2976	1013.8529	1082.1845	1117.6533	1138.444	1159.3398	1189.3574	1208.8186	1281.2174	1292.9417	1323.3191	1397.1938	1414.3102	1451.288	1483.8394	1498.1364	1501.8115	1527.742	1572.3698	1629.6404	1658.7236	2976.3672	3006.1208	3045.3565	3119.5884	3122.6029	3257.1366	3288.9698	3489.1335	3597.778	3685.5224
CCOC1=CNC(N)=C1	CCOc1c[nH]c(N)c1	
InChI=1S/C6H10N2O/c1-2-9-5-3-6(7)8-4-5/h3-4,8H,2,7H2,1H3	InChI=1S/C6H10N2O/c1-2-9-5-3-6(7)8-4-5/h3-4,8H,2,7H2,1H3
