15
gdb 29046	2.76783	1.68386	1.04694	4.5552	86.64	-0.2107	-0.067	0.1437	1066.8812	0.114761	-416.853977	-416.846483	-416.845538	-416.88595	28.722	
N	-0.0001698372	 1.3722197048	 0.0092952124	-0.528778
C	-0.059465325	 0.0294727898	 0.0020410261	 0.231002
C	-1.2631110057	-0.6556712512	 0.0051942396	-0.180982
C	-1.4889720153	-2.0380073783	-0.0007932139	-0.059095
C	-0.5840691255	-3.0786241097	-0.0110507089	-0.034611
N	 0.761098753	-3.0485789694	-0.0179317709	-0.244012
C	 1.5384866156	-2.0037626846	-0.0169712862	-0.059396
C	 1.3055704623	-0.5659049555	-0.0090283374	 0.305312
O	 2.2644905682	 0.2134322252	-0.0111767231	-0.400426
H	 0.9331381276	 1.7636344849	 0.0037344207	 0.283466
H	-0.8179912334	 1.9540853545	 0.0139095586	 0.265761
H	-2.1567221628	-0.034091319	 0.0134370362	 0.091224
H	-2.5352293584	-2.3352219482	 0.0033360298	 0.103071
H	-0.9980699636	-4.0847699402	-0.0140932271	 0.105115
H	 2.6100642002	-2.2126162431	-0.0236185259	 0.122349
96.2012	150.592	247.8323	346.1001	371.4659	394.1463	399.917	457.3524	521.3986	630.3329	658.1694	682.1038	755.4501	778.937	816.1131	862.21	917.7251	966.6999	987.3644	993.5823	1049.8154	1170.4582	1248.7446	1298.422	1375.6412	1424.3124	1444.3159	1466.5248	1521.2571	1575.6251	1613.7754	1649.4822	1672.6703	3113.7419	3133.4542	3142.5837	3164.9652	3545.1759	3729.6705
NC1=CC=CN=CC1=O	Nc1cccncc1=O	
InChI=1S/C6H6N2O/c7-5-2-1-3-8-4-6(5)9/h1-4H,(H2,7,9)	InChI=1S/C6H6N2O/c7-5-2-1-3-8-4-6(5)9/h1-4H,(H2,7,9)
