18
gdb 47019	3.51561	1.34995	1.02714	4.2361	81.37	-0.2248	-0.0436	0.1812	1142.9822	0.149882	-401.95548	-401.948058	-401.947113	-401.987379	29.326	
O	 0.017341612	-0.0496021682	 0.1785793868	-0.334212
C	-0.0053516903	 1.1639717786	 0.138985133	 0.411789
C	-1.3476110797	 1.9166070797	 0.1038071268	-0.286117
N	-1.2639757441	 3.263053472	 0.6850312375	-0.320906
C	-0.2510728085	 4.0383175016	 0.0033895886	-0.020955
C	 0.5289235441	 5.1844726929	 0.7294182886	-0.249915
C	 1.8577853671	 4.5754967947	 0.1607754403	-0.323179
C	 1.06399446	 3.3086044342	-0.0521980856	 0.373454
C	 1.2144872537	 1.9923557249	 0.0996964059	-0.359293
H	-1.6760676618	 1.9172145317	-0.9547850208	 0.101168
H	-2.0682234307	 1.3159195914	 0.6633000897	 0.129542
H	-2.1719344713	 3.7142470091	 0.6382802062	 0.222581
H	-0.5505255915	 4.3823787625	-1.0053446202	 0.070616
H	 0.2861951041	 6.2119042671	 0.4528277395	 0.10461
H	 0.4629266679	 5.0583986309	 1.8113638205	 0.125471
H	 2.1564012965	 5.0547400978	-0.7775093374	 0.124461
H	 2.7281736364	 4.5165449735	 0.8171741172	 0.126011
H	 2.1703808161	 1.4935188558	 0.2245101535	 0.104873
95.2536	190.8501	195.3295	323.9234	348.4382	436.5271	454.6601	507.9304	560.757	658.8472	688.2536	745.935	773.6231	830.346	878.0005	896.1988	915.9896	977.2235	1012.7031	1036.9173	1052.934	1092.7062	1111.1832	1162.0811	1188.3971	1219.3307	1226.1333	1237.8249	1258.7821	1264.0233	1311.3565	1323.9708	1400.1107	1465.7773	1468.2217	1480.6301	1486.6949	1730.9293	1778.7932	2906.3613	2908.6951	3052.7259	3077.4335	3102.7893	3113.933	3143.9343	3184.2439	3512.8475
O=C1CNC2CCC2=C1	O=C1CN[C@H]2CC[C]2[CH]1	
InChI=1S/C7H9NO/c9-6-3-5-1-2-7(5)8-4-6/h3,7-8H,1-2,4H2	InChI=1S/C7H9NO/c9-6-3-5-1-2-7(5)8-4-6/h3,7-8H,1-2,4H2/t7-/m0/s1
