19
gdb 38881	2.76097	2.13274	1.93573	0.237	72.27	-0.2351	0.0904	0.3255	838.0454	0.164401	-423.037173	-423.031304	-423.03036	-423.066972	26.169	
C	-0.0201415965	 1.5971295406	 0.0172783696	-0.216371
C	 1.5154835358	 1.6162020682	-0.0302907522	 0.061343
O	 1.8159385093	 1.0085341955	 1.2314921669	-0.281836
C	 1.1190197409	-0.2551624471	 1.0995089657	 0.061384
C	 2.1550538232	-1.2336600847	 0.5311475311	-0.201689
C	 2.8629393887	-0.472692709	-0.6250511552	-0.201689
C	 1.8379322448	 0.5456127663	-1.1410713196	 0.061384
O	 0.5936539448	-0.1877812611	-1.2591541747	-0.281835
C	 0.0101338724	 0.0609722257	 0.0250794395	 0.061344
H	-0.3870613731	 2.0783721266	 0.9250760725	 0.10512
H	-0.5362573909	 1.9714036997	-0.8680812238	 0.105121
H	 2.0422882966	 2.5660580844	-0.1133359894	 0.080093
H	 0.7159853026	-0.5437897851	 2.0725457907	 0.077346
H	 2.8662602889	-1.5226953848	 1.3093216542	 0.100231
H	 1.6675086198	-2.1415823908	 0.1654034733	 0.106193
H	 3.764419826	 0.0341956506	-0.2698197429	 0.106193
H	 3.1536185454	-1.1543178146	-1.4286700841	 0.10023
H	 2.0882186734	 0.9822301004	-2.1102284179	 0.077346
H	-0.9202564522	-0.497880681	 0.1183762864	 0.080093
271.6486	344.6436	371.712	511.4552	516.0518	546.7527	644.0499	675.9109	763.1658	795.8045	811.3791	852.6732	891.7875	897.5762	911.8322	922.4501	964.5819	968.8045	991.998	1026.781	1029.5471	1041.4423	1053.4974	1065.7133	1143.6891	1168.2564	1202.4368	1206.0694	1260.9206	1268.8792	1284.1353	1289.8507	1303.1853	1307.7298	1343.0665	1345.4867	1359.9624	1367.8424	1473.4267	1474.0176	1490.9273	3055.6961	3063.7079	3081.6699	3087.207	3088.7501	3098.09	3113.751	3131.0354	3136.2663	3146.2866
C1C2OC3CCC2OC13	C1[C@H]2O[C@@H]3CC[C@H]2O[C@H]13	
InChI=1S/C7H10O2/c1-2-5-7-3-6(9-5)4(1)8-7/h4-7H,1-3H2	InChI=1S/C7H10O2/c1-2-5-7-3-6(9-5)4(1)8-7/h4-7H,1-3H2/t4-,5-,6-,7-/m1/s1
