15
gdb 128920	7.05532	0.76244	0.71756	1.542	71.39	-0.2796	-0.0115	0.268	1476.2749	0.115278	-413.025673	-413.017805	-413.016861	-413.059523	27.317	
N	-0.0309313141	-1.1325051123	-0.0648276132	-0.293455
C	-0.0408064019	 0.0208288364	 0.000277929	 0.25925
C	-0.0198086793	 1.4776106666	 0.082923624	-0.33517
C	 1.4122574224	 2.0310369373	-0.0686416284	-0.160656
N	 1.4158084061	 3.476657511	 0.0024326248	 0.049393
C	 2.0072154323	 4.2997640632	 0.895419314	 0.01491
N	 1.7578451786	 5.5602539976	 0.5973713717	-0.2708
C	 0.985259442	 5.4512928134	-0.5177715418	 0.04411
N	 0.748537591	 4.2131828265	-0.920920829	-0.256377
H	-0.6495331601	 1.9019776484	-0.7046003156	 0.188788
H	-0.4422997337	 1.7916175089	 1.0432866737	 0.163949
H	 2.0582369265	 1.6539480008	 0.7272180297	 0.149033
H	 1.8318198366	 1.7171285386	-1.0280208893	 0.160195
H	 2.5993391067	 3.9378575214	 1.7229529362	 0.150757
H	 0.588763127	 6.3044443324	-1.0475569859	 0.136072
56.8593	68.6623	98.8773	186.0942	317.4536	374.8474	403.1779	508.474	661.8679	695.2296	768.6802	779.4636	855.628	913.9593	960.0074	973.1125	1019.3943	1033.7079	1055.749	1169.9613	1178.3523	1237.0445	1281.1469	1306.6111	1311.9149	1350.4393	1382.8633	1407.8166	1469.9714	1476.4904	1491.5257	1549.7549	2367.2472	3058.6241	3075.1375	3104.0443	3131.6324	3255.4036	3263.8272
N#CCCN1C=NC=N1	N#CCCn1cncn1	
InChI=1S/C5H6N4/c6-2-1-3-9-5-7-4-8-9/h4-5H,1,3H2	InChI=1S/C5H6N4/c6-2-1-3-9-5-7-4-8-9/h4-5H,1,3H2
