19
gdb 58021	1.90631	1.52533	0.91224	1.887	76.5	-0.269	0.0008	0.2697	1289.6063	0.157629	-419.265725	-419.255452	-419.254508	-419.301794	37.028	
C	 0.0253506635	 1.4882948882	-0.145663661	-0.415152
C	 0.042563412	-0.0216068384	 0.1247629894	 0.043351
C	 0.7792816329	-0.3275553517	 1.4365298564	-0.404564
C	-1.3929925723	-0.6208605971	 0.1661478858	-0.257686
C	-2.2942347835	-0.0450915459	-0.8342087956	 0.268785
N	-3.0322387221	 0.3697007531	-1.6224812189	-0.34063
C	-1.3985078198	-2.1760108653	 0.0330303377	 0.415621
N	-2.634267539	-2.7259459657	-0.1115139434	-0.520966
O	-0.3824096118	-2.8316820984	 0.1090513613	-0.343317
H	 1.0494515008	 1.8728027119	-0.1614062824	 0.119745
H	-0.4419332043	 1.7322834011	-1.1032681553	 0.139633
H	-0.5170892592	 2.0269265577	 0.6404550904	 0.11639
H	 0.5691015673	-0.5247606759	-0.6930828187	 0.107239
H	 0.8224216439	-1.4000361941	 1.6268209372	 0.15063
H	 1.8033849567	 0.0547396504	 1.3874254878	 0.116786
H	 0.2848110143	 0.1654966073	 2.2829006452	 0.106754
H	-1.8344054146	-0.3944349722	 1.1476934782	 0.148581
H	-3.4263381698	-2.1675004615	-0.3848518628	 0.278743
H	-2.6755497548	-3.7187161036	-0.2803613413	 0.270056
23.189	69.8843	153.9716	188.7828	201.9364	226.6572	260.8658	334.1684	347.0143	389.274	420.6	442.855	476.8077	536.5327	554.4855	603.3776	698.5029	843.9741	883.5363	932.4365	948.0267	970.723	1020.6643	1101.1258	1139.5761	1152.2518	1190.9101	1238.8506	1286.8469	1337.111	1338.6605	1364.7391	1397.7062	1422.9337	1486.2126	1494.8907	1503.1725	1518.0575	1625.5238	1810.8769	2344.9617	3013.4008	3028.0684	3032.7901	3058.7433	3094.4283	3103.4829	3119.4934	3152.526	3588.9023	3716.5417
CC(C)C(C#N)C(N)=O	CC(C)[C@@H](C#N)C(=O)N	
InChI=1S/C6H10N2O/c1-4(2)5(3-7)6(8)9/h4-5H,1-2H3,(H2,8,9)	InChI=1S/C6H10N2O/c1-4(2)5(3-7)6(8)9/h4-5H,1-2H3,(H2,8,9)/t5-/m1/s1
