17
gdb 84408	3.18685	1.28776	0.97475	1.9812	78.54	-0.2315	-0.0294	0.2021	1192.8697	0.136423	-418.054783	-418.046426	-418.045482	-418.088072	30.937	
C	-0.0905019348	 1.5799346625	 0.0230220282	-0.386847
C	 0.017537815	 0.0464943227	-0.0088696174	-0.121107
C	 0.8337227359	-0.5122218063	-1.1493292909	-0.157271
C	 1.8419744871	-1.2427880285	-0.6797543479	-0.014549
N	 1.8330063665	-1.2761057066	 0.7366253964	-0.130725
C	 2.7693931176	-1.9575563278	 1.4805844958	 0.155425
O	 3.6805387334	-2.5929804747	 1.0029499843	-0.311544
C	 0.7390866502	-0.5043077075	 1.2234093403	 0.387799
N	 0.3776928882	-0.2664931033	 2.4128503828	-0.525381
H	 0.9015982791	 2.0406599357	 0.0046361643	 0.123359
H	-0.6531240997	 1.9433572596	-0.8418294773	 0.118458
H	-0.6015729681	 1.8945002137	 0.9359068262	 0.14734
H	-0.9993570629	-0.3681868961	-0.0165353675	 0.12174
H	 0.6226406603	-0.3327248436	-2.1932922235	 0.118601
H	 2.6237123529	-1.7894103062	-1.1834561952	 0.160998
H	 2.5994652817	-1.8636919986	 2.5666317095	 0.089203
H	 0.9693958277	-0.702167305	 3.1187269817	 0.224501
55.8065	152.2533	209.2474	220.5003	231.3002	262.8795	332.1287	405.8524	530.7655	569.2372	656.447	684.8654	754.4792	783.0325	833.1062	863.0181	916.3694	940.8079	941.6242	1017.2658	1035.9889	1085.9302	1107.5674	1121.9708	1215.8129	1251.6584	1282.9926	1302.5504	1326.6283	1397.1764	1414.1993	1441.8423	1492.7312	1499.5131	1683.3257	1754.2748	1796.26	2986.4281	3021.0204	3043.9032	3116.0483	3132.8165	3241.914	3276.2224	3492.927
CC1C=CN(C=O)C1=N	C[C@H]1C=CN(C=O)[C]1[NH]	
InChI=1S/C6H8N2O/c1-5-2-3-8(4-9)6(5)7/h2-5,7H,1H3	InChI=1S/C6H8N2O/c1-5-2-3-8(4-9)6(5)7/h2-5,7H,1H3/t5-/m0/s1
