18
gdb 86951	3.96775	0.91768	0.81901	3.9123	70.06	-0.2438	0.0335	0.2773	1380.3092	0.147104	-476.229755	-476.220562	-476.219618	-476.264517	33.508	
O	 0.3695072072	 0.5671479298	-1.148824403	-0.44218
C	-0.0037073453	-0.3197218106	-0.1113846474	 0.096404
C	 0.175540798	 0.1278299469	 1.3623584701	-0.302675
C	-1.2788933691	-0.3701379539	 1.6330881506	 0.043056
N	-2.1628668178	 0.4391036779	 2.4222020394	-0.275873
C	-2.5987785081	 0.0861314148	 3.6594290364	 0.150384
O	-2.2442733594	-0.9002334083	 4.271384787	-0.329176
C	-1.5439645404	-0.3297309905	 0.1001265361	 0.086782
O	-2.1111445173	 0.910250289	-0.2683476083	-0.45379
H	 1.2343003278	 0.936869044	-0.9472446787	 0.297275
H	 0.3919965382	-1.3259496083	-0.294204111	 0.0863
H	 0.9828521444	-0.3216531979	 1.9431362181	 0.114974
H	 0.2330488498	 1.2175938138	 1.4336681859	 0.105012
H	-1.2894120197	-1.3823852707	 2.0390852091	 0.117789
H	-2.5546539555	 1.2454825174	 1.9577917486	 0.25728
H	-3.326756501	 0.8182957921	 4.0617963057	 0.073505
H	-2.1157916309	-1.1569675653	-0.3344565221	 0.077644
H	-1.4785350507	 1.3186411599	-0.8779549965	 0.29729
41.2021	77.8461	166.0365	196.4602	220.059	259.2714	287.5193	384.6461	444.897	448.4607	498.2435	615.995	620.7644	678.8929	761.8814	836.744	892.733	907.9315	948.3573	1030.8093	1041.8356	1064.8567	1116.1356	1133.8617	1141.9645	1199.3875	1223.9272	1241.9576	1250.2827	1273.0586	1333.5811	1353.3629	1369.4854	1388.2299	1407.9585	1429.1112	1474.9085	1523.6308	1800.9072	2936.5016	3029.4219	3045.2861	3064.0749	3113.6955	3131.9115	3613.7627	3716.172	3833.256
OC1CC(NC=O)C1O	O[C@H]1C[C@@H](NC=O)[C@H]1O	
InChI=1S/C5H9NO3/c7-2-6-3-1-4(8)5(3)9/h2-5,8-9H,1H2,(H,6,7)	InChI=1S/C5H9NO3/c7-2-6-3-1-4(8)5(3)9/h2-5,8-9H,1H2,(H,6,7)/t3-,4+,5-/m1/s1
