22
gdb 93858	1.94548	1.64619	1.41879	1.5509	80.83	-0.2439	0.0652	0.309	1104.2454	0.195314	-404.336192	-404.327117	-404.326173	-404.369718	35.295	
C	 0.6124361459	 1.6944622038	 0.0027178338	-0.40223
C	 0.1127156986	 0.2464507361	 0.1195239807	-0.073676
C	 0.5278433252	-0.6317750686	-1.0844228745	-0.218626
C	 1.9508291139	-1.1521315702	-0.7481855942	-0.222863
C	 2.1246888705	-1.002999043	 0.7821899875	 0.0696
O	 3.1638327323	-0.0472086099	 1.0013103148	-0.434523
C	 0.7630194363	-0.5102605546	 1.2745483104	 0.341286
C	 0.4634670922	-0.2597200085	 2.7013955844	-0.321447
N	-0.0146155745	-1.4962238327	 2.0502696934	-0.364793
H	 1.7019284704	 1.7287844183	-0.0724305046	 0.142469
H	 0.1850753209	 2.1795929875	-0.8812286606	 0.106622
H	 0.3217029092	 2.2816611098	 0.8802954656	 0.10609
H	-0.9779999772	 0.2610967211	 0.2396369817	 0.055972
H	-0.164512739	-1.4756264305	-1.1729820628	 0.098886
H	 0.4932085045	-0.08663755	-2.0320237035	 0.094893
H	 2.086954281	-2.1865101968	-1.0715909589	 0.103487
H	 2.7276689547	-0.5556847151	-1.2325687487	 0.119189
H	 2.3699240189	-1.9530743348	 1.2730881939	 0.075856
H	 3.2040716362	 0.1300002548	 1.947099151	 0.278848
H	 1.2211118229	-0.4139102412	 3.4674854799	 0.106863
H	-0.2577282462	 0.5173170282	 2.9440338089	 0.1121
H	-1.0046088969	-1.4012607739	 1.8321743317	 0.225999
68.6259	122.9043	203.3979	224.3224	235.2366	293.5335	316.7685	350.9525	400.5565	425.8751	540.6037	574.2146	650.8951	768.301	804.3832	849.2016	887.1834	891.4563	921.5363	940.774	962.7291	976.494	1003.8196	1041.5568	1052.9708	1076.5836	1105.0703	1131.652	1138.8652	1201.9122	1214.2342	1246.9082	1266.5613	1282.5224	1300.6641	1312.7812	1327.1299	1347.6423	1358.5248	1400.6444	1410.6309	1424.8633	1482.1478	1494.4912	1503.9311	1508.0299	1514.6196	3016.642	3023.7367	3033.9867	3046.3762	3071.7479	3086.7417	3092.0654	3095.4695	3117.4947	3128.8265	3172.0263	3480.2963	3808.9784
CC1CCC(O)C11CN1	C[C@H]1CC[C@@H](O)[C@]21CN2	
InChI=1S/C7H13NO/c1-5-2-3-6(9)7(5)4-8-7/h5-6,8-9H,2-4H2,1H3	InChI=1S/C7H13NO/c1-5-2-3-6(9)7(5)4-8-7/h5-6,8-9H,2-4H2,1H3/t5-,6+,7+/m0/s1
