20
gdb 40863	3.85387	1.42874	1.31321	1.7166	81.42	-0.2369	0.0754	0.3122	1041.373	0.173231	-365.941705	-365.934613	-365.933669	-365.973127	29.137	
C	-0.0043296211	 1.5622302863	-0.0859551996	-0.211556
C	 1.5388401021	 1.5860647024	 0.092069522	-0.310834
C	 1.4664226477	 0.133467683	 0.6251319112	 0.427848
C	 0.0351980333	 0.0131542564	 0.0339788417	-0.28675
C	 2.4521519787	-0.9951079095	 0.4244780897	-0.148813
C	 3.4097194901	-1.0192553321	 1.5724116307	-0.042107
C	 3.061468375	 0.1143015864	 2.5201857947	-0.250985
C	 1.6112031914	-0.2184557711	 2.1206114098	-0.083425
N	 2.0602651144	-1.664999033	 1.719293333	-0.164539
H	-0.5219794229	 2.0271118555	 0.7574929862	 0.103053
H	-0.4087084807	 1.9805291253	-1.0100447743	 0.09837
H	 2.0660729742	 1.6392825203	-0.8656934762	 0.102102
H	 1.9628739491	 2.342634805	 0.758589898	 0.096075
H	-0.7229551233	-0.4742245993	 0.6523024372	 0.105289
H	 0.0448369788	-0.4724943752	-0.94689553	 0.099425
H	 2.6174210663	-1.5768769827	-0.476918968	 0.086398
H	 4.3133163777	-1.6186908665	 1.5486935706	 0.093979
H	 3.2630077596	-0.1683899718	 3.5567064773	 0.110664
H	 3.44329795	 1.1225643698	 2.3284164579	 0.09728
H	 0.7805453596	-0.0861999894	 2.813154728	 0.078527
103.3008	170.2258	217.4689	321.0361	429.9772	451.2041	539.1446	684.2016	749.8115	771.2051	790.5241	804.0738	822.9593	854.499	890.8865	917.7257	937.2636	939.9686	966.0314	993.1103	1022.2295	1034.8873	1044.0615	1058.4445	1095.5777	1122.4031	1153.1739	1164.846	1191.2019	1202.6896	1208.945	1243.18	1253.9076	1263.5637	1273.9772	1278.886	1296.8841	1359.5633	1383.0596	1471.3605	1483.4795	1494.8702	1504.9055	3042.4303	3046.3335	3050.6632	3062.4525	3091.4048	3100.1115	3103.2274	3118.871	3123.0559	3162.2049	3178.1479
C1CC2(C1)C1C3CC2N13	C1CC2(C1)[C@H]1[C@H]3C[C@@H]2N13	
InChI=1S/C8H11N/c1-2-8(3-1)6-4-5-7(8)9(5)6/h5-7H,1-4H2	InChI=1S/C8H11N/c1-2-8(3-1)6-4-5-7(8)9(5)6/h5-7H,1-4H2/t5-,6+,7-,9?/m1/s1
