22
gdb 100738	2.74252	0.99727	0.87524	2.5134	79.31	-0.2429	0.0332	0.2761	1440.9643	0.190933	-441.519179	-441.507528	-441.506584	-441.557226	40.48	
C	-0.2228754392	 1.333374858	 0.0566309224	-0.238757
O	 0.0970906542	-0.0341227859	-0.0456450293	-0.254424
C	 0.6988287115	-0.5927552209	 1.1171590276	 0.156397
C	-0.3506297015	-0.9107808727	 2.1857277199	-0.419797
C	 1.4665178163	-1.8447031349	 0.650261775	-0.10185
C	 2.5054646273	-1.5047307946	-0.4320691705	-0.400937
C	 2.188264957	-2.478360652	 1.8409830954	 0.415586
N	 1.9812372098	-3.8159631402	 2.0110864293	-0.528824
O	 2.9136743885	-1.8346974366	 2.5778220074	-0.381837
H	 0.6601305586	 1.9391697203	 0.3127026935	 0.106964
H	-0.5959532846	 1.6502295302	-0.9208594328	 0.124471
H	-1.0036863702	 1.5324651628	 0.8053433522	 0.105975
H	 1.434881932	 0.1132818205	 1.530229381	 0.08849
H	-0.8988533478	-0.0112806101	 2.4792594244	 0.115935
H	-1.0743487259	-1.6400421262	 1.8066249111	 0.113235
H	 0.1230258986	-1.3141934537	 3.0846744795	 0.137144
H	 0.7323007403	-2.5474268214	 0.2352966657	 0.06827
H	 3.2787788297	-0.8532978911	-0.0146760186	 0.134742
H	 2.9924233106	-2.4100440375	-0.8078677015	 0.107838
H	 2.0206976076	-0.9933683708	-1.2647830076	 0.133373
H	 1.4099802977	-4.3561748065	 1.3864627699	 0.259008
H	 2.4841676394	-4.288414797	 2.7448038959	 0.258999
27.8325	51.265	75.8174	148.8268	154.0076	187.1076	216.4457	229.4196	245.2488	275.0424	310.5254	349.5926	401.3771	479.7784	526.4699	597.2387	621.9713	772.1376	807.1486	847.7204	904.8984	980.8716	1024.3242	1050.8708	1095.1011	1110.8578	1124.9752	1142.6133	1181.4819	1197.8324	1220.3589	1265.6814	1312.4724	1366.4234	1375.553	1394.5164	1403.1038	1408.2225	1477.453	1482.7607	1491.252	1496.7967	1504.3282	1504.9742	1512.936	1614.5798	1785.9817	2977.6308	2997.4074	3023.9843	3025.6163	3041.4577	3045.2753	3107.6538	3110.9374	3112.853	3123.1318	3144.6576	3601.0852	3741.8166
COC(C)C(C)C(N)=O	CO[C@@H](C)[C@@H](C)C(=O)N	
InChI=1S/C6H13NO2/c1-4(6(7)8)5(2)9-3/h4-5H,1-3H3,(H2,7,8)	InChI=1S/C6H13NO2/c1-4(6(7)8)5(2)9-3/h4-5H,1-3H3,(H2,7,8)/t4-,5+/m1/s1
