19
gdb 41974	2.47748	2.08808	1.64505	1.8015	72.22	-0.2301	0.0692	0.2992	903.4207	0.163348	-423.014328	-423.00765	-423.006705	-423.045257	27.639	
C	-0.0836134882	 1.4604705525	-0.2091602338	-0.249623
C	 1.3163144532	 1.9810597875	 0.2126811308	-0.231489
C	 1.9681915174	 0.8761287271	 1.0773604848	 0.082474
O	 1.7987661607	 1.0639085639	 2.4922546605	-0.247696
C	 0.464652901	 1.1449466678	 2.8782164379	 0.018534
O	-0.3224251837	 0.0175040968	 2.5192622676	-0.26945
C	 0.0087468911	-0.6576948089	 1.3401632148	 0.125955
C	-0.0128969189	-0.0590256552	-0.0466215706	-0.087653
C	 1.308281246	-0.4255910612	 0.6285326745	-0.130467
H	-0.8847198178	 1.8908152851	 0.4005028956	 0.114649
H	-0.3062017507	 1.7229405818	-1.2470030081	 0.101509
H	 1.9346321585	 2.1024156955	-0.6827008783	 0.106442
H	 1.3020706505	 2.9469555943	 0.7258161789	 0.108786
H	 3.0511731419	 0.8506034563	 0.9477559599	 0.087624
H	 0.4536540283	 1.1863635143	 3.9706321961	 0.11625
H	-0.0060785042	 2.0567049947	 2.4771175104	 0.083496
H	-0.3379762923	-1.6830994793	 1.4203003102	 0.100254
H	-0.4174223374	-0.6823032459	-0.8368813655	 0.083824
H	 1.9279155846	-1.2607774772	 0.3243039342	 0.086584
123.3471	193.0089	285.864	409.1738	446.2804	512.4	554.1588	671.9942	697.0636	744.9	763.6121	777.7854	826.8772	873.2313	919.9565	929.803	953.2601	988.7145	1025.1789	1040.2441	1059.3505	1069.4443	1084.9862	1113.8757	1135.917	1178.7833	1199.7684	1222.872	1244.1567	1287.1434	1296.8387	1307.3267	1314.7886	1349.9546	1367.0957	1390.766	1422.201	1466.9956	1479.	1502.3882	1535.7368	2971.501	3046.831	3050.7883	3082.5615	3087.8511	3097.1934	3103.5711	3154.0595	3163.302	3177.6775
C1CC2OCOC3C1C23	C1C[C@H]2OCO[C@H]3[C@@H]1[C@@H]23	
InChI=1S/C7H10O2/c1-2-5-6-4(1)7(6)9-3-8-5/h4-7H,1-3H2	InChI=1S/C7H10O2/c1-2-5-6-4(1)7(6)9-3-8-5/h4-7H,1-3H2/t4-,5+,6-,7-/m0/s1
