19
gdb 33540	2.22497	1.5698	1.13585	3.0758	79.59	-0.2538	0.0212	0.275	1139.9749	0.160375	-382.047873	-382.039301	-382.038357	-382.081392	32.281	
N	-0.2629737574	-1.2327994437	 0.3681660559	-0.343828
C	-0.1792607173	-0.0909432162	 0.2026528502	 0.247321
C	-0.0364537913	 1.3597830378	-0.0148632834	 0.154041
C	-0.1070149466	 2.1489852679	 1.3377851073	-0.271588
C	 1.4378429022	 2.1616389632	 1.3031231327	-0.160445
N	 1.3868407849	 1.7794927424	-0.1316803573	-0.334939
C	-0.9401927858	 1.8008094269	-1.15170651	-0.038158
C	-0.6966763425	 3.1164392984	-1.8394524232	-0.279584
C	-0.4243053365	 1.8231188485	-2.5664142925	-0.262019
H	-0.5529981877	 3.1326132499	 1.1862175062	 0.125792
H	-0.5871706638	 1.6454909481	 2.1753919609	 0.127086
H	 1.9377503557	 3.1166299393	 1.4873238898	 0.112997
H	 1.8782579518	 1.3974638495	 1.9548867342	 0.114396
H	 2.0290301534	 1.048415032	-0.4178699656	 0.234596
H	-1.9745778689	 1.4985879664	-1.0152327475	 0.098659
H	-1.5599059178	 3.7058895056	-2.1268609725	 0.111903
H	 0.1696721402	 3.685567715	-1.5231325127	 0.127264
H	 0.6168810702	 1.5643677986	-2.7238742823	 0.118637
H	-1.0935366827	 1.5103787104	-3.3594277601	 0.117869
71.536	113.5747	143.6805	193.2294	210.8674	280.3824	400.5802	445.5089	536.2143	573.3999	616.6176	714.7891	768.6226	785.694	828.3834	872.8721	918.8894	927.6793	948.9413	973.2302	1024.7945	1030.2028	1063.4555	1086.1784	1095.5696	1135.3187	1155.9884	1167.8117	1199.0511	1202.8426	1214.6411	1236.6987	1266.8243	1325.4445	1375.3651	1407.0039	1453.4755	1481.0455	1495.9577	1524.4133	2339.5583	3027.5881	3082.6083	3096.8065	3139.0679	3140.6176	3151.7514	3160.3909	3221.847	3235.189	3534.2843
N#CC1(CCN1)C1CC1	N#C[C@]1(CCN1)C1CC1	
InChI=1S/C7H10N2/c8-5-7(3-4-9-7)6-1-2-6/h6,9H,1-4H2	InChI=1S/C7H10N2/c8-5-7(3-4-9-7)6-1-2-6/h6,9H,1-4H2/t7-/m1/s1
