14
gdb 25290	7.69246	0.65807	0.60621	6.4017	90.66	-0.2259	-0.0554	0.1705	1703.6513	0.101915	-399.569696	-399.561695	-399.560751	-399.603317	28.405	
O	-0.0957819583	-0.0365955853	 0.0002969735	-0.247261
C	-0.0031112928	 1.1736433149	 0.0082505368	-0.012645
C	 1.2263941221	 1.9038340032	 0.0002403187	 0.168482
C	 2.2544951028	 2.5484833694	-0.0062708528	-0.071146
C	 3.4468471016	 3.2896392366	-0.0142196984	 0.148053
C	 4.7320021115	 2.7600451445	-0.0331688666	-0.184267
N	 5.6076948269	 3.7986616005	-0.0349736774	-0.227066
C	 4.9271622266	 4.9975418208	-0.0177486661	-0.061774
C	 3.5880230095	 4.7190718424	-0.0047419553	-0.267572
H	-0.9070010435	 1.8181575869	 0.0229796096	 0.088435
H	 5.0598404569	 1.7338112506	-0.0449560146	 0.145159
H	 6.6087261428	 3.7043514679	-0.0471077174	 0.274789
H	 5.4579941809	 5.9353063845	-0.016400805	 0.133964
H	 2.780735583	 5.4332679429	 0.0100558851	 0.11285
71.9861	73.1102	118.7855	203.295	252.2341	411.1398	508.149	512.9569	537.2757	636.2886	672.5758	697.5697	707.3012	799.3413	850.2134	901.3435	929.8123	1016.9741	1025.0954	1097.6117	1106.1025	1163.0361	1257.8892	1357.4629	1379.0521	1422.8751	1456.3493	1534.9047	1585.4265	1748.1287	2297.9807	2903.0572	3262.3386	3276.994	3282.2411	3678.6312
O=CC#CC1=CNC=C1	O=CC#Cc1c[nH]cc1	
InChI=1S/C7H5NO/c9-5-1-2-7-3-4-8-6-7/h3-6,8H	InChI=1S/C7H5NO/c9-5-1-2-7-3-4-8-6-7/h3-6,8H
