22
gdb 105257	2.23048	1.32246	1.04802	1.7094	82.99	-0.2291	0.0815	0.3105	1278.2442	0.192363	-404.293312	-404.283398	-404.282454	-404.328587	36.639	
C	-1.6803666497	-0.3405907956	-0.0502014429	-0.383086
C	-0.1715697288	-0.099121279	 0.106976874	-0.277587
C	 0.6550115189	-0.6054020887	-1.0677977493	 0.291425
C	 0.6184419141	 0.1689481483	-2.3511397762	-0.289166
N	 1.8432959304	 0.1077960224	-1.5711887473	-0.122808
C	 2.3257719266	 1.3236480744	-0.9382285815	-0.315661
C	 0.885956736	-2.0914346964	-1.1788600461	 0.076291
C	 1.0624615968	-2.9916044934	-0.0313924372	-0.200895
O	-0.1527139716	-2.9934430056	-0.7866985131	-0.236678
H	-2.0648850773	 0.1683744628	-0.9402541654	 0.111894
H	-1.8961040936	-1.405513518	-0.1487850796	 0.149663
H	-2.2231640752	 0.0472279177	 0.817837997	 0.105757
H	 0.0057835908	 0.9731234737	 0.2300841634	 0.099361
H	 0.181064556	-0.5671966363	 1.0336649668	 0.09892
H	 0.6290094728	-0.3376394596	-3.3141744371	 0.111725
H	 0.0551479146	 1.1025846823	-2.3387416944	 0.104674
H	 1.5421347226	 2.0491800473	-0.6705422113	 0.103606
H	 2.8847876596	 1.0692754369	-0.0320076433	 0.123285
H	 3.0132885749	 1.8211281112	-1.6301659196	 0.125748
H	 1.3932527826	-2.3700786195	-2.1030969837	 0.091543
H	 1.6820850685	-3.8804649472	-0.1428458354	 0.116324
H	 0.9790325211	-2.6152090377	 0.9860595521	 0.115664
32.9629	98.0449	164.4913	183.5975	210.2203	231.2526	240.2669	309.1531	346.8121	367.3462	456.2015	478.485	556.4971	683.4208	780.1702	807.1323	849.723	867.2122	917.2525	949.4522	981.5989	1007.7622	1045.3142	1078.5789	1091.2549	1105.2497	1122.221	1148.1068	1152.5672	1168.9389	1174.3454	1206.536	1270.1382	1291.0945	1331.2334	1355.2118	1370.3356	1406.9754	1450.292	1452.7419	1482.2368	1491.7818	1494.9625	1504.2062	1515.1427	1518.5236	1533.1648	2978.053	3038.9022	3040.2454	3064.4811	3076.5529	3083.4817	3088.016	3100.2574	3101.3175	3106.8551	3145.0654	3160.5141	3173.5689
CCC1(CN1C)C1CO1	CC[C@]1(CN1C)[C@H]1CO1	
InChI=1S/C7H13NO/c1-3-7(5-8(7)2)6-4-9-6/h6H,3-5H2,1-2H3	InChI=1S/C7H13NO/c1-3-7(5-8(7)2)6-4-9-6/h6H,3-5H2,1-2H3/t6-,7+,8?/m1/s1
