21
gdb 113665	2.86948	1.08142	0.86118	3.3574	81.68	-0.2404	0.0483	0.2887	1424.6667	0.181768	-420.424102	-420.413818	-420.412874	-420.459905	36.584	
C	-0.1609160736	 1.3757947671	 0.5308620465	-0.385928
C	-0.1116140227	-0.1325408371	 0.2613683502	-0.190924
C	-1.4597563293	-0.711230089	-0.1165030683	 0.028358
C	-1.7348743852	-2.1790859381	 0.0139040528	-0.282862
N	-2.4111692794	-1.2086344421	 0.8646021557	-0.134692
C	-2.2320951124	-1.1258671958	 2.2544699856	 0.436434
O	-1.9167511676	-0.100452264	 2.8306821827	-0.394437
N	-2.5113633251	-2.3045764521	 2.8978916779	-0.324441
C	-2.6383678391	-2.361996743	 4.3406258692	-0.323716
H	 0.8389387283	 1.7638225497	 0.7483305534	 0.106385
H	-0.5440356553	 1.9175263119	-0.3414419745	 0.105217
H	-0.8101567584	 1.5816226723	 1.3837284881	 0.161689
H	 0.5798361113	-0.3425472921	-0.5656554609	 0.096218
H	 0.2787360016	-0.6569501793	 1.1400251458	 0.107836
H	-1.9482739913	-0.1931194211	-0.9420244155	 0.094942
H	-2.3559249517	-2.6980024869	-0.7124756963	 0.117428
H	-0.9548142278	-2.7868948982	 0.4690888303	 0.12314
H	-2.9400062394	-3.0337365393	 2.3515691189	 0.247741
H	-2.1131252066	-1.4994432192	 4.751576338	 0.168514
H	-3.6847154741	-2.3200560248	 4.670159869	 0.122433
H	-2.1858562322	-3.2798334888	 4.7288478313	 0.120665
57.0565	87.0289	116.7666	124.7438	164.6923	186.5418	246.2953	266.16	313.7407	396.0857	456.89	482.1803	518.9007	606.344	764.3887	783.5338	806.3849	840.69	927.2433	968.083	998.836	1055.4148	1063.8794	1108.8676	1122.1619	1143.7992	1155.1037	1166.0435	1174.2647	1198.0817	1233.8405	1292.796	1343.6302	1363.9691	1408.466	1431.4817	1442.4428	1477.7723	1491.0027	1497.8167	1501.6346	1512.3466	1518.6024	1553.948	1774.6121	3017.3817	3020.683	3035.6871	3070.8484	3079.4143	3092.772	3097.9248	3107.6127	3143.7024	3155.4116	3179.1865	3641.6158
CCC1CN1C(=O)NC	CC[C@H]1CN1C(=O)NC	
InChI=1S/C6H12N2O/c1-3-5-4-8(5)6(9)7-2/h5H,3-4H2,1-2H3,(H,7,9)	InChI=1S/C6H12N2O/c1-3-5-4-8(5)6(9)7-2/h5H,3-4H2,1-2H3,(H,7,9)/t5-,8?/m0/s1
