21
gdb 95170	2.61093	1.40077	1.06477	1.6657	77.53	-0.2182	0.0733	0.2915	1197.7734	0.182571	-424.212837	-424.204102	-424.203158	-424.245734	34.641	
C	 0.0172474613	 1.5535394268	 0.0097193967	-0.404476
C	 0.0055040161	 0.0235663292	-0.0058317703	 0.016752
C	 0.6840124533	-0.5279013886	-1.2625969249	-0.08118
O	 0.5367900124	-1.9347187061	-1.3826246218	-0.253975
C	 0.8901069361	-2.6745439609	-0.2501107952	 0.049698
C	 2.2205840153	-2.5254757741	 0.4597108772	-0.356298
C	 0.9462489459	-2.0665880602	 1.1284361935	 0.351744
O	 0.5557683241	-2.8611654028	 2.219752664	-0.464843
C	 0.6705599021	-0.5678680255	 1.2530202999	-0.295879
H	 1.0431463341	 1.939679371	-0.0151500408	 0.116657
H	-0.5170811913	 1.967951477	-0.8516186134	 0.114694
H	-0.4579998357	 1.9405406156	 0.9169522994	 0.116926
H	-1.0362456838	-0.324046598	-0.0396595701	 0.076978
H	 0.2275119003	-0.1124916553	-2.1659392602	 0.107297
H	 1.7497528565	-0.2418597224	-1.2726519381	 0.088349
H	 0.4964170078	-3.6820858847	-0.3330597966	 0.103336
H	 2.6752115463	-3.4346697865	 0.8361305074	 0.12109
H	 2.9198017354	-1.7635135201	 0.1323135131	 0.113526
H	-0.4075958085	-2.8883653167	 2.236619024	 0.276858
H	 1.6011315985	-0.0261912045	 1.4677082437	 0.102283
H	 0.0228452539	-0.4143295031	 2.1228703125	 0.100464
88.1716	179.1796	225.763	257.8339	282.0882	319.1022	373.7851	382.0672	388.7339	423.2377	470.5719	512.0665	610.2783	753.3026	800.9533	856.6604	876.9262	917.2337	940.1218	947.9702	971.4836	999.7621	1012.0642	1032.3005	1072.9245	1117.5752	1122.0422	1175.6495	1194.7411	1210.9192	1251.3817	1282.6645	1302.7033	1319.1628	1332.8959	1354.6303	1383.2509	1400.0704	1413.0139	1425.9486	1470.6409	1490.4291	1498.4114	1500.6139	1509.8062	2963.1724	3009.4615	3020.9002	3027.8986	3070.1952	3079.6235	3093.598	3100.8323	3135.7692	3169.6704	3227.7911	3789.4818
CC1COC2CC2(O)C1	C[C@H]1CO[C@H]2C[C@@]2(O)C1	
InChI=1S/C7H12O2/c1-5-2-7(8)3-6(7)9-4-5/h5-6,8H,2-4H2,1H3	InChI=1S/C7H12O2/c1-5-2-7(8)3-6(7)9-4-5/h5-6,8H,2-4H2,1H3/t5-,6+,7+/m1/s1
