18
gdb 31983	6.11105	0.8572	0.759	0.0515	76.81	-0.1629	0.0772	0.2401	1492.1118	0.147033	-439.095543	-439.086185	-439.085241	-439.129928	33.628	
C	-0.1132382065	 0.3226135994	-1.052602915	-0.242931
O	 0.3695145808	 1.0181411214	 0.0819807989	-0.261973
C	 0.800623505	 0.2205557678	 1.0866175423	 0.4147
C	 0.8819392879	-1.1333837885	 1.2680507394	-0.30328
C	 1.4436074544	-1.3464285521	 2.5811114935	-0.303281
C	 1.6704806661	-0.1094548583	 3.1206565452	 0.4147
N	 1.2797398263	 0.8493293012	 2.2135266669	-0.420385
O	 2.1715798216	 0.3343400174	 4.2967669322	-0.261972
C	 2.5585285383	-0.690765453	 5.1931586959	-0.242931
H	-0.9709947336	-0.3109029431	-0.7915665161	 0.124178
H	-0.4228206149	 1.0798204498	-1.774355493	 0.131966
H	 0.6710372731	-0.3073039187	-1.4923540429	 0.124178
H	 0.5856427115	-1.8970386186	 0.5687097929	 0.091193
H	 1.6434215116	-2.2985062056	 3.0433452443	 0.091193
H	 1.3360475813	 1.8431632007	 2.3506914319	 0.264324
H	 1.7035520972	-1.3263137472	 5.4584117273	 0.124178
H	 3.3453137751	-1.3200287455	 4.7570091847	 0.124178
H	 2.9387635048	-0.1957396071	 6.0878658915	 0.131966
61.9436	88.8238	173.9098	189.0118	196.0077	249.4555	270.52	354.037	354.8163	372.654	571.5144	620.9883	645.0237	675.1462	691.5401	717.8979	741.2081	975.9556	1008.4848	1058.2138	1081.1995	1100.9106	1184.193	1184.4022	1204.1476	1218.7772	1252.9701	1268.7945	1279.7505	1453.9496	1462.5135	1477.2473	1479.7155	1479.8529	1483.1691	1509.5149	1512.5711	1614.8019	1647.1835	3003.607	3004.6422	3060.7167	3060.8528	3137.4311	3137.5666	3259.9914	3272.5467	3689.9973
COC1=CC=C(N1)OC	COc1ccc([nH]1)OC	
InChI=1S/C6H9NO2/c1-8-5-3-4-6(7-5)9-2/h3-4,7H,1-2H3	InChI=1S/C6H9NO2/c1-8-5-3-4-6(7-5)9-2/h3-4,7H,1-2H3
