20
gdb 96570	2.57005	1.50883	1.10203	1.9806	77.26	-0.2536	0.0069	0.2605	1155.3616	0.171617	-440.276824	-440.268293	-440.267349	-440.309629	32.698	
C	 0.1507147273	 1.6543000723	 0.0204568665	-0.400927
C	-0.0079859515	 0.1339156287	 0.0587738725	 0.013873
C	 0.6158131552	-0.4957616652	-1.2080216554	-0.060261
O	 0.7116671354	-1.9068063739	-1.2027096922	-0.244569
C	-0.4983886868	-2.6310681627	-1.1038948142	-0.082531
C	-0.6937022043	-3.1971140243	 0.3010014743	-0.075621
O	-0.8869247045	-2.1756274339	 1.2813506729	-0.238701
C	 0.2403708114	-1.5020875011	 1.6962241689	 0.096497
N	 0.6592170951	-0.4075419842	 1.2373789964	-0.202638
H	 1.2095315643	 1.9303810493	 0.0327193063	 0.125104
H	-0.312510219	 2.0753562335	-0.8781949424	 0.108022
H	-0.3248466838	 2.1091131236	 0.8933263978	 0.123644
H	-1.0772435174	-0.1153772584	 0.0737030169	 0.08534
H	 0.0422931185	-0.1481999674	-2.0820079177	 0.091495
H	 1.6473615628	-0.1458025966	-1.3157223729	 0.115673
H	-1.3629185996	-2.0144430169	-1.3853909928	 0.103261
H	-0.444639928	-3.4729759706	-1.8079400782	 0.105995
H	-1.5930573138	-3.8209693139	 0.3305769166	 0.112927
H	 0.1724435662	-3.8178970362	 0.5667285496	 0.111285
H	 0.7394502725	-1.9707359221	 2.5473320669	 0.112133
127.4027	159.4042	194.3712	216.4156	254.1123	284.3141	338.9534	365.6581	421.1488	485.8536	530.3066	609.2118	714.499	808.5756	848.783	878.7946	912.8735	939.3527	968.9333	1000.3923	1014.9778	1103.0433	1112.7683	1121.8639	1148.1223	1170.3091	1176.8775	1272.969	1311.0266	1315.8997	1345.338	1369.9153	1382.988	1398.2741	1407.1419	1411.0425	1418.8158	1480.118	1482.9288	1488.8551	1492.9025	1500.3733	1730.8087	2980.6266	3002.2785	3013.7244	3017.8664	3038.0288	3051.3963	3083.509	3087.5909	3109.4862	3110.6747	3119.4472
CC1COCCOC=N1	C[C@H]1COCCOC=N1	
InChI=1S/C6H11NO2/c1-6-4-8-2-3-9-5-7-6/h5-6H,2-4H2,1H3/b7-5-	InChI=1S/C6H11NO2/c1-6-4-8-2-3-9-5-7-6/h5-6H,2-4H2,1H3/b7-5-/t6-/m0/s1
