22
gdb 10228	2.70088	1.17451	0.91679	2.117	75.17	-0.2492	0.0741	0.3233	1363.3704	0.198118	-387.334314	-387.323928	-387.322983	-387.370234	36.409	
C	-0.0056959989	 1.5843794223	 0.0536287928	-0.380441
C	 0.0341554146	 0.0545720385	 0.0135969602	-0.169808
C	 0.6427296006	-0.4895948236	-1.2819966876	-0.165232
C	 0.7086701488	-2.0158359781	-1.3399008145	 0.080122
C	 1.325836211	-2.5298699441	-2.647953946	-0.067159
O	 2.6789805593	-2.1346662152	-2.762091923	-0.42165
O	 1.5270082442	-2.4538583552	-0.2479281596	-0.255655
C	 1.2425304337	-3.7555818329	 0.2204306765	-0.240402
H	 1.0014861199	 2.0078189573	-0.0288640104	 0.115561
H	-0.6011585251	 1.9901901344	-0.7721771239	 0.111035
H	-0.4435283518	 1.9477505156	 0.9886857028	 0.1096
H	 0.6123680071	-0.3264834208	 0.8615961065	 0.110497
H	-0.9839267717	-0.3416083708	 0.1317556434	 0.085422
H	 0.0566253162	-0.1445614529	-2.143932229	 0.091559
H	 1.6561206574	-0.0964084342	-1.4211505805	 0.110289
H	-0.3051316154	-2.4341354878	-1.2273060685	 0.061792
H	 1.2268545319	-3.6268248837	-2.7001600587	 0.081154
H	 0.788054718	-2.1148524152	-3.5072753947	 0.104995
H	 3.0653214634	-2.2958858768	-1.8915426803	 0.285866
H	 0.2054675469	-3.834235453	 0.5786780164	 0.111526
H	 1.401288225	-4.5267021386	-0.5468680912	 0.111412
H	 1.919983025	-3.952099705	 1.0553007093	 0.129516
69.8475	74.5077	92.125	110.009	151.3438	217.4919	246.9563	271.5418	307.0184	335.4759	369.326	477.8028	527.4631	669.3902	742.6956	820.0888	883.5245	894.2402	936.039	977.9375	1047.3546	1075.3479	1090.5597	1119.7628	1142.4755	1161.204	1184.0281	1223.8898	1228.7885	1265.1153	1281.7832	1324.4163	1341.1934	1372.8617	1385.4927	1407.9923	1413.3653	1431.5124	1477.0982	1480.9914	1485.7176	1494.5824	1499.7481	1508.258	1510.7954	1512.7854	2960.3957	2973.623	2988.8412	3013.7134	3024.4882	3028.6006	3036.9371	3065.1382	3068.8825	3079.3123	3098.7392	3100.5701	3112.7996	3769.7763
CCCC(CO)OC	CCC[C@@H](CO)OC	
InChI=1S/C6H14O2/c1-3-4-6(5-7)8-2/h6-7H,3-5H2,1-2H3	InChI=1S/C6H14O2/c1-3-4-6(5-7)8-2/h6-7H,3-5H2,1-2H3/t6-/m0/s1
