19
gdb 91098	2.67116	1.71574	1.56502	2.4033	73.45	-0.2255	0.0619	0.2874	954.1131	0.160818	-422.990865	-422.983531	-422.982587	-423.022335	30.014	
O	-0.3471343943	 1.3766963398	 0.7750792952	-0.406097
C	-0.0712654403	 0.130474015	 0.1773292238	 0.074933
C	 0.5110008725	-0.9814197409	 1.1071475397	-0.284123
C	-0.8271765253	-1.7733003962	 1.0100038145	-0.053457
C	-1.8294641093	-1.6882302555	 2.1513681291	-0.090075
C	-2.0493017266	-0.3529446398	 2.8526984498	-0.331097
C	-2.9115650769	-0.7484118217	 1.6907224832	 0.109198
O	-2.5976297011	-0.2217483988	 0.4224577866	-0.252553
C	-1.3625070581	-0.7364458715	-0.0259234821	 0.10956
H	 0.4946387793	 1.8072384157	 0.9567980484	 0.285487
H	 0.4939858499	 0.2635318277	-0.7555209184	 0.06718
H	 1.3696410943	-1.5061466199	 0.6801256143	 0.097524
H	 0.7718643523	-0.6369199275	 2.110672309	 0.102443
H	-0.7325143404	-2.8031211692	 0.6602163435	 0.070154
H	-2.0699707005	-2.5968293519	 2.6904290206	 0.087027
H	-2.4914512537	-0.3939583837	 3.8430316027	 0.105796
H	-1.3467886136	 0.4554882048	 2.6899471224	 0.136933
H	-3.972756554	-0.9399674022	 1.8041670059	 0.094444
H	-1.479584614	-1.0724513741	-1.061355748	 0.07672
120.6175	198.6415	228.706	288.31	373.3148	411.9288	478.4208	554.2839	641.6836	678.9461	729.4455	768.4631	802.4182	818.4311	855.8909	894.0341	923.827	957.1736	967.5913	1015.7679	1041.9835	1057.5726	1069.0626	1096.8469	1106.7046	1122.1668	1144.4803	1170.4131	1194.5683	1206.0398	1234.8618	1246.652	1269.078	1309.3471	1327.1449	1332.6907	1364.0952	1387.0483	1420.6635	1469.7588	1479.0193	2995.8839	3048.921	3059.6911	3085.5226	3116.2509	3133.0099	3169.2483	3179.3995	3231.2673	3813.7901
OC1CC2C3CC3OC12	O[C@H]1C[C@H]2[C@H]3C[C@H]3O[C@@H]12	
InChI=1S/C7H10O2/c8-5-1-4-3-2-6(3)9-7(4)5/h3-8H,1-2H2	InChI=1S/C7H10O2/c8-5-1-4-3-2-6(3)9-7(4)5/h3-8H,1-2H2/t3-,4+,5+,6-,7-/m1/s1
