17
gdb 76532	2.62631	1.26962	1.21509	1.3971	71.32	-0.2475	-0.0353	0.2122	1122.4078	0.133356	-458.936426	-458.927511	-458.926567	-458.970222	32.449	
C	-0.1596431959	 1.4837869387	-0.2100814582	-0.401517
C	 0.0184074877	-0.0165203584	-0.1715259632	-0.141695
C	 1.3917881257	-0.6500966764	-0.1894778662	 0.041319
O	 2.5268789272	 0.1454637445	-0.1162870387	-0.422803
C	 0.5499889099	-0.6840544794	 1.0737311537	 0.262852
O	 1.0475818106	 0.0558876863	 2.2022311424	-0.331159
C	 0.7117384038	-1.0191444839	 3.1232676237	-0.189369
C	 0.1192033852	-1.8164508038	 1.9440303313	 0.27328
O	-0.4355718445	-2.864009268	 1.7968478465	-0.296622
H	 0.6878701878	 1.9903524922	 0.2542401983	 0.135675
H	-0.2300912843	 1.8269710637	-1.2467787346	 0.128964
H	-1.0710411886	 1.7865353542	 0.3136382334	 0.124996
H	-0.7522158645	-0.6038181176	-0.6668530891	 0.112661
H	 1.5348209621	-1.5750660321	-0.74268696	 0.117541
H	 2.6649483968	 0.3545366808	 0.8194632338	 0.301403
H	 1.5969904238	-1.4606214741	 3.5929035692	 0.141104
H	-0.0037548527	-0.6986539266	 3.8871970577	 0.143368
106.7132	108.4599	131.4212	151.2659	214.2274	235.5671	306.2053	398.0581	480.1815	539.9213	582.5572	611.3835	629.9116	742.8815	766.4027	839.9099	932.3771	976.8526	983.9649	1018.3537	1027.9596	1057.1118	1117.8702	1138.476	1139.6874	1164.7119	1184.5456	1261.2883	1291.7686	1342.8808	1387.8056	1416.082	1432.2951	1478.9114	1488.6345	1498.9458	1912.1297	3044.0883	3047.7671	3102.4077	3109.4373	3129.048	3140.6168	3147.0182	3718.5813
CC1C(O)C11OCC1=O	C[C@H]1[C@@H](O)[C@]21OCC2=O	
InChI=1S/C6H8O3/c1-3-5(8)6(3)4(7)2-9-6/h3,5,8H,2H2,1H3	InChI=1S/C6H8O3/c1-3-5(8)6(3)4(7)2-9-6/h3,5,8H,2H2,1H3/t3-,5+,6+/m0/s1
