19
gdb 69948	3.54658	1.502	1.29467	1.3076	74.16	-0.236	0.0665	0.3024	1028.5633	0.159866	-422.998347	-422.990762	-422.989818	-423.030268	30.15	
C	-0.0541786888	 1.5283354584	 0.0424693755	-0.462199
C	 0.0672589949	 0.0307340674	 0.0067897538	 0.430155
C	-0.8508354822	-0.874621134	 0.7753892546	-0.343695
C	 0.6311688957	-0.8276483251	 1.1163462973	-0.128388
C	 1.5023446116	-1.8621075055	 0.4366561735	 0.078424
O	 0.8989655379	-3.1583675008	 0.1918785862	-0.290151
C	 0.874451944	-2.9365140287	-1.2372917202	-0.104762
C	 1.4433082691	-1.5150521472	-1.0726697873	 0.0479
O	 0.538845227	-0.4415543952	-1.2449721147	-0.306404
H	 0.9111448477	 2.0021976447	-0.1622758236	 0.122063
H	-0.7688379953	 1.8739954425	-0.7116447845	 0.13083
H	-0.4074856943	 1.8629201937	 1.0217863263	 0.118163
H	-1.532867128	-0.4169820708	 1.4843386225	 0.111542
H	-1.2199597984	-1.7798157595	 0.3080281944	 0.131455
H	 0.9545183427	-0.4020543417	 2.0587875769	 0.088407
H	 2.483239577	-1.9651314738	 0.9099840425	 0.079038
H	 1.5316823729	-3.6382118147	-1.7655665474	 0.101766
H	-0.1358045868	-2.9858241187	-1.6585760782	 0.109183
H	 2.3682685433	-1.2996119809	-1.6144303778	 0.086671
100.4228	154.4519	212.61	271.8459	335.156	388.7481	443.8478	518.9711	612.5816	661.1062	722.1653	797.211	827.2076	842.5106	891.1216	911.3159	928.8743	951.8741	968.3105	1010.7144	1018.4287	1043.3253	1061.0928	1077.3561	1099.9688	1123.9706	1140.6576	1178.1313	1220.1006	1232.2729	1262.6882	1286.3369	1332.8275	1345.7354	1375.0773	1390.2217	1425.7805	1479.5742	1484.0591	1501.7179	1510.5784	3018.9147	3036.9187	3060.4483	3069.9218	3079.0093	3102.3132	3117.9001	3136.9312	3180.8066	3228.772
CC12CC1C1OCC1O2	C[C@]12C[C@H]1[C@H]1OC[C@H]1O2	
InChI=1S/C7H10O2/c1-7-2-4(7)6-5(9-7)3-8-6/h4-6H,2-3H2,1H3	InChI=1S/C7H10O2/c1-7-2-4(7)6-5(9-7)3-8-6/h4-6H,2-3H2,1H3/t4-,5+,6+,7-/m0/s1
