23
gdb 107675	2.93487	1.21423	1.0186	1.3203	85.13	-0.2567	0.0749	0.3316	1273.4349	0.207953	-388.293553	-388.284707	-388.283763	-388.326813	34.942	
O	 0.02482196	 1.3264702251	 0.4958675033	-0.423654
C	 0.0002312905	 0.0194343037	-0.0683288065	-0.157127
C	-1.4135425174	-0.5051229826	-0.0028272859	 0.368414
C	-1.8356342123	-1.1587025618	 1.2884615545	-0.316023
C	-1.5850066599	-2.0140248783	 0.0661502874	-0.075284
C	-2.7501637534	-2.7068684857	-0.6438114303	-0.222039
C	-3.4933615946	-1.801827132	-1.6401715818	-0.181072
C	-3.7488083616	-0.4088232808	-1.0559454352	-0.216973
C	-2.4224826962	 0.3180471496	-0.7951228227	-0.253692
H	 0.8958846551	 1.7029595057	 0.3403946647	 0.284963
H	 0.3369038677	 0.0421940627	-1.1185479196	 0.079832
H	 0.6746116236	-0.6589790538	 0.4792180365	 0.076453
H	-1.1178283015	-1.1884001951	 2.1016514451	 0.105496
H	-2.8645163844	-1.0407023712	 1.6143463841	 0.105085
H	-0.6630527595	-2.5891081913	 0.0874840896	 0.074335
H	-2.3775918183	-3.59340297	-1.1680105641	 0.093902
H	-3.4617947265	-3.0776709653	 0.1052040404	 0.098143
H	-2.8942647817	-1.6929312525	-2.5545502858	 0.090633
H	-4.4340001866	-2.2780824534	-1.9381630948	 0.08795
H	-4.3575879437	 0.1893207551	-1.7427224785	 0.091067
H	-4.3311432284	-0.495811519	-0.1291072181	 0.094503
H	-2.5913699947	 1.2736072569	-0.2880447332	 0.108805
H	-1.971114706	 0.5639883739	-1.7674545189	 0.086282
88.2434	129.4128	167.5254	246.7326	263.7523	326.7777	354.1247	367.4902	393.4203	479.2692	509.8337	616.3047	691.1851	774.6893	814.705	864.3504	892.0084	901.3922	936.834	941.5672	949.5411	1009.9476	1029.5817	1049.4656	1063.4872	1076.2075	1107.2435	1126.9179	1138.1261	1186.9495	1196.0239	1225.7963	1245.4196	1262.0592	1288.0388	1300.1214	1336.9747	1367.0318	1376.4803	1380.2572	1387.4019	1418.2118	1461.8978	1482.0158	1491.1592	1492.5287	1498.355	1509.0745	1518.3942	2952.0941	2983.005	3001.8632	3012.2726	3018.2198	3023.7426	3059.8775	3065.5597	3067.7058	3071.6848	3123.2031	3133.5406	3205.416	3828.517
OCC12CC1CCCC2	OC[C@]12C[C@H]1CCCC2	
InChI=1S/C8H14O/c9-6-8-4-2-1-3-7(8)5-8/h7,9H,1-6H2	InChI=1S/C8H14O/c9-6-8-4-2-1-3-7(8)5-8/h7,9H,1-6H2/t7-,8+/m1/s1
