19
gdb 107205	3.89068	1.23601	1.11356	3.2504	73.82	-0.2578	0.06	0.3178	1150.0099	0.158869	-422.997926	-422.989938	-422.988994	-423.030529	31.075	
C	-0.329347217	 1.4686981268	 0.1410518093	-0.380967
C	 0.1719556902	 0.0393924984	-0.1064326393	-0.270929
C	 0.9194800971	-0.5301361684	 1.07484558	 0.41041
C	 2.2753916202	 0.0559510653	 1.4985735652	-0.32061
C	 3.0130854707	-1.0775906687	 2.2059856344	 0.035875
O	 2.4014079756	-1.5495092913	 3.4068459452	-0.231915
C	 2.1702997151	-2.2873318719	 2.2065779223	 0.008517
C	 0.864038933	-1.9407611946	 1.5140575474	-0.071711
O	 0.1039481127	-0.9342531708	 2.1854940798	-0.276157
H	 0.5008198355	 2.1624559126	 0.3095801158	 0.118318
H	-0.9000355443	 1.835830751	-0.7168190291	 0.114556
H	-0.9783396758	 1.4996487945	 1.0211998935	 0.137385
H	-0.6787802751	-0.6166344228	-0.3201665883	 0.107327
H	 0.8240574042	 0.0171549019	-0.9889455568	 0.097522
H	 2.841437272	 0.3648958187	 0.6120533955	 0.105659
H	 2.159087607	 0.9314675322	 2.1445428981	 0.130011
H	 4.1006729062	-1.1047558428	 2.2001808877	 0.097446
H	 2.5550422126	-3.3028457459	 2.1816078156	 0.096846
H	 0.2953096101	-2.7109322544	 0.9992052536	 0.092419
73.4014	136.0265	207.8977	254.4096	303.8076	364.5014	367.7779	422.639	603.822	640.2352	714.4953	734.379	779.3833	819.3033	850.7417	876.6858	901.7944	953.1262	954.5263	973.5693	999.4129	1042.8614	1054.4771	1082.1041	1091.1068	1120.7833	1205.7613	1218.1788	1243.4112	1270.4959	1300.0514	1314.3659	1339.8045	1360.446	1408.1053	1419.1434	1446.1904	1463.3875	1472.5723	1499.5803	1507.9916	3026.1957	3039.1641	3045.9788	3071.3094	3094.6558	3108.3396	3117.6311	3133.4959	3143.8385	3161.9058
CCC12CC3OC3C1O2	CC[C@]12C[C@H]3O[C@H]3[C@H]1O2	
InChI=1S/C7H10O2/c1-2-7-3-4-5(8-4)6(7)9-7/h4-6H,2-3H2,1H3	InChI=1S/C7H10O2/c1-2-7-3-4-5(8-4)6(7)9-7/h4-6H,2-3H2,1H3/t4-,5-,6-,7+/m1/s1
