18
gdb 41162	3.05006	1.85704	1.693	2.1597	75.94	-0.229	0.0143	0.2432	884.0028	0.150382	-401.868727	-401.862323	-401.861378	-401.899004	27.487	
C	-0.0639755651	 1.5912967863	-0.1697733337	-0.294438
C	 1.5061238424	 1.4790026805	 0.1145445015	-0.30541
C	 1.1342472207	 0.2173717602	 0.9406093299	 0.408973
C	 1.1610951474	-1.3235641662	 1.1525416667	-0.342987
C	-0.4422555522	-1.169708763	 1.0420810589	-0.059226
N	-0.9950445151	-0.7449040812	 2.3173723306	-0.249747
C	-0.3314977348	 0.2148138658	 2.8135029879	 0.107648
O	 0.7479419372	 0.7860687339	 2.2440864921	-0.27003
C	-0.0808035459	 0.0413695364	 0.0826185385	 0.012806
H	-0.5627500823	 2.1861901451	 0.594714368	 0.12874
H	-0.372851814	 1.9308602506	-1.1599507098	 0.1046
H	 2.0564582141	 1.2389336128	-0.7974313503	 0.113343
H	 1.9952917941	 2.2959567482	 0.6489179013	 0.113506
H	 1.577050167	-1.8623988489	 0.3010079785	 0.11484
H	 1.5524920581	-1.7155292345	 2.0939624897	 0.113442
H	-1.0124958668	-2.004533075	 0.6349754482	 0.082424
H	-0.5844644338	 0.6781207884	 3.7642628365	 0.128111
H	 0.2551432392	-0.4176786794	-0.8517179248	 0.093403
204.5376	286.8592	356.3308	394.7372	430.8839	525.0876	527.0426	640.7389	681.0853	719.5507	755.0633	776.8535	831.9331	845.1193	885.6857	924.9663	951.3187	960.0539	979.2281	1033.1922	1044.9958	1080.2597	1116.8541	1135.4744	1167.2371	1174.8078	1188.072	1207.1838	1216.3128	1228.1756	1244.5133	1258.93	1321.7679	1374.9131	1397.6029	1469.7441	1478.7035	1486.2404	1701.5385	3054.9406	3071.9771	3074.9669	3085.6692	3107.9711	3135.0259	3148.8213	3155.1407	3172.1145
C1CC23CC(N=CO2)C13	C1C[C@@]23C[C@@H]([N][CH]O2)[C@@H]13	
InChI=1S/C7H9NO/c1-2-7-3-6(5(1)7)8-4-9-7/h4-6H,1-3H2	InChI=1S/C7H9NO/c1-2-7-3-6(5(1)7)8-4-9-7/h4-6H,1-3H2/t5-,6-,7+/m1/s1
