20
gdb 119108	3.15314	0.80067	0.67785	2.4958	86.55	-0.2305	0.0482	0.2787	1721.2267	0.16869	-403.085002	-403.074343	-403.073399	-403.122671	36.542	
C	-0.0924577398	 1.5481971808	 1.1500904485	-0.228136
O	-0.0167562013	 0.1568802573	 1.3594323881	-0.244584
C	 0.512841728	-0.543909364	 0.2564973197	-0.155506
C	 0.505766494	-2.0379225973	 0.561307136	 0.10273
C	 0.732547193	-2.4842660354	 1.9671607812	-0.266574
N	-0.6098049874	-2.5782840259	 1.3720848542	-0.34767
C	 0.9563120761	-2.8429716002	-0.546750165	-0.027826
C	 1.3570118469	-3.4706592152	-1.4935026955	 0.180529
C	 1.8295829475	-4.2522971184	-2.6266932085	-0.5048
H	-0.7338461994	 1.7948448524	 0.2901896994	 0.111183
H	-0.521677403	 1.9906301803	 2.0519289946	 0.131613
H	 0.9019031522	 1.9865182725	 0.9754022838	 0.110817
H	-0.0910160903	-0.3547526231	-0.6462633268	 0.102719
H	 1.5419762893	-0.2155726695	 0.0388665205	 0.104322
H	 1.2238461713	-3.4361229245	 2.1428874758	 0.11928
H	 0.9150802566	-1.7109930191	 2.7066257875	 0.124458
H	-1.152822636	-1.7794526033	 1.6970591017	 0.240488
H	 1.2797238975	-5.196285817	-2.709601339	 0.152947
H	 1.6966026463	-3.7088866355	-3.5687415298	 0.147009
H	 2.8937569586	-4.495456255	-2.5310178765	 0.147001
19.8331	75.3302	78.5449	89.878	155.8681	198.7992	232.1139	295.5848	313.4227	355.5159	366.3075	403.8983	527.822	553.8737	686.5555	828.2687	852.9961	964.2895	979.7224	1006.409	1021.7423	1051.9444	1054.6712	1079.4219	1127.7298	1152.2127	1161.7005	1187.7001	1225.7798	1257.621	1290.9694	1323.5588	1361.4496	1413.1875	1427.933	1477.1407	1478.6489	1479.6279	1485.7483	1496.1634	1502.1725	1525.1471	2371.1699	2963.8085	2980.6873	2997.2287	3026.2098	3026.6035	3085.715	3088.7989	3119.1983	3120.2511	3214.5323	3484.7185
COCC1(CN1)C#CC	COC[C@]1(CN1)C#CC	
InChI=1S/C7H11NO/c1-3-4-7(5-8-7)6-9-2/h8H,5-6H2,1-2H3	InChI=1S/C7H11NO/c1-3-4-7(5-8-7)6-9-2/h8H,5-6H2,1-2H3/t7-/m1/s1
