23
gdb 87159	3.14524	1.0852	0.94931	1.9716	85.24	-0.2419	0.0791	0.321	1354.0255	0.204944	-388.258956	-388.249195	-388.248251	-388.293841	36.423	
C	-0.0375663813	 1.3326389268	-0.3229479683	-0.416246
C	 0.2302234894	-0.1235014725	-0.007143375	-0.033694
C	 1.6368019673	-0.6689611816	 0.09851766	-0.340399
C	 0.7546084944	-0.6150767711	 1.3273692288	 0.330217
C	 1.1038124006	 0.3785398789	 2.4224254487	-0.464028
C	 0.1945313472	-1.9086448892	 1.8943514146	-0.093025
C	-0.1005234473	-3.1042906116	 0.9582083546	-0.10338
O	 0.938116301	-3.9000708532	 1.5600256674	-0.274985
C	 1.2202385258	-2.8778799905	 2.5370841908	-0.076036
H	 0.726594408	 1.9937865598	 0.094416885	 0.115987
H	-0.0483233715	 1.4936928312	-1.4066826161	 0.118851
H	-1.0082968471	 1.6567989713	 0.0690917791	 0.11591
H	-0.4820337352	-0.79552683	-0.4816886628	 0.080801
H	 1.8672904726	-1.6304808743	-0.3490934159	 0.120622
H	 2.4536955051	 0.0444958934	 0.0446390374	 0.103801
H	 1.560545573	 1.2890492928	 2.0281255648	 0.116421
H	 0.2132898734	 0.6701784832	 2.9924264345	 0.114002
H	 1.8172233453	-0.0607826279	 3.1299255714	 0.117983
H	-0.6457099492	-1.6712875254	 2.5546544297	 0.07453
H	-1.0919625558	-3.5561909962	 1.0922728448	 0.096499
H	 0.0692145598	-2.9538605995	-0.1145253469	 0.100708
H	 2.2665694607	-2.5503606477	 2.4950665856	 0.100889
H	 0.9886368636	-3.2116111367	 3.5567579077	 0.094572
52.1678	90.8689	152.7703	175.8949	186.6723	234.2191	274.4968	303.4525	337.6824	437.9784	443.4672	528.1032	647.9167	781.6223	813.6777	862.8131	882.33	886.9229	932.8956	940.6042	986.943	1013.6129	1019.0246	1045.0772	1054.894	1077.1596	1089.293	1115.7688	1132.7481	1147.5992	1166.8471	1175.1195	1194.7447	1254.0897	1266.5332	1310.294	1321.6904	1367.5705	1394.607	1406.4885	1419.8423	1427.9672	1486.372	1490.5107	1493.7296	1501.742	1511.2671	1517.0441	1538.3856	3003.6753	3014.1454	3022.609	3030.4233	3043.1573	3052.1089	3061.9591	3076.5256	3086.2745	3103.7299	3117.336	3122.0587	3129.6015	3202.8066
CC1CC1(C)C1COC1	C[C@H]1C[C@]1(C)C1COC1	
InChI=1S/C8H14O/c1-6-3-8(6,2)7-4-9-5-7/h6-7H,3-5H2,1-2H3	InChI=1S/C8H14O/c1-6-3-8(6,2)7-4-9-5-7/h6-7H,3-5H2,1-2H3/t6-,8-/m0/s1
