19
gdb 37969	2.59174	2.02872	1.45684	0.7109	73.97	-0.2371	0.0849	0.322	940.5175	0.162264	-422.985879	-422.979079	-422.978134	-423.016682	28.426	
C	 0.0651293755	 1.6242783406	-0.0415736304	-0.293397
C	 1.5898470622	 1.5201391673	-0.1123258844	-0.088309
C	 2.1089631318	 0.8804236389	 1.1344194531	 0.104706
O	 1.5031883518	 1.1118123693	 2.3742722185	-0.258864
C	 0.8078483934	 0.0039223641	 2.9310133481	-0.092467
C	-0.6198996199	-0.1117970738	 2.4009267497	-0.075352
O	-0.7389987146	-0.5981663542	 1.0765920527	-0.26182
C	-0.0015437285	 0.0582206056	 0.0714162596	 0.13224
C	 1.52810162	-0.0195980248	 0.0898725556	-0.157411
H	-0.3110905086	 2.1974893723	 0.8079319282	 0.113855
H	-0.4043599649	 1.9895014713	-0.9560744582	 0.103858
H	 2.2290246994	 2.0874428044	-0.7770074253	 0.089607
H	 3.1954427617	 0.8348724388	 1.201389109	 0.09178
H	 1.3546926442	-0.9326464628	 2.7587046159	 0.103241
H	 0.763476718	 0.1840885813	 4.0114167831	 0.105716
H	-1.1752663905	-0.8254312314	 3.0203186196	 0.104829
H	-1.106248361	 0.869992536	 2.5047398082	 0.100064
H	-0.384864129	-0.360412243	-0.861995992	 0.093013
H	 2.110829799	-0.80782553	-0.373426691	 0.084708
197.7606	211.0888	294.7142	331.4146	409.9537	453.392	501.91	568.331	625.9508	729.1796	768.5572	812.1505	826.874	853.896	918.4654	946.3173	967.2249	982.0941	1007.4721	1034.6331	1042.4757	1070.9062	1096.6356	1112.2761	1124.2184	1144.2721	1182.4932	1229.1451	1242.5199	1269.8479	1282.6586	1298.8086	1327.4003	1351.1314	1383.5984	1402.452	1417.0228	1428.5028	1476.2385	1485.6272	1495.0115	2995.4151	3015.997	3067.2765	3073.6026	3077.2323	3082.88	3111.8199	3131.0779	3170.9708	3194.6771
C1C2C3OCCOC1C23	C1[C@H]2[C@H]3OCCO[C@@H]1[C@@H]23	
InChI=1S/C7H10O2/c1-2-9-7-4-3-5(8-1)6(4)7/h4-7H,1-3H2	InChI=1S/C7H10O2/c1-2-9-7-4-3-5(8-1)6(4)7/h4-7H,1-3H2/t4-,5+,6-,7-/m1/s1
