16
gdb 35224	3.34545	1.27378	1.08748	5.4635	77.75	-0.2349	-0.0106	0.2242	1117.0026	0.124481	-400.749181	-400.741431	-400.740487	-400.781814	29.178	
N	 0.2536065514	-1.1150405454	-0.1287121694	-0.338156
C	 0.1547676658	 0.0366249052	-0.0715243072	 0.303551
C	 0.0283370035	 1.4613355469	-0.0223220153	-0.271511
C	 0.2853792542	 2.2077775632	 1.2877222834	-0.349413
C	 1.2916576391	 2.3283711572	 0.1956428684	 0.439002
O	 2.5169635819	 1.6779964094	 0.3700758823	-0.292295
C	 3.5047720466	 2.3040800187	-0.456307058	-0.132618
C	 2.8203110462	 3.518584547	-1.0194984827	-0.103688
C	 1.5466836866	 3.5256321484	-0.6370966543	-0.156255
H	-0.7307628067	 1.8684763296	-0.6822058497	 0.132133
H	-0.3607826835	 3.0485971728	 1.5138818403	 0.13086
H	 0.5759826762	 1.6016797674	 2.1378427168	 0.153613
H	 4.3788421289	 2.5467271791	 0.1629557297	 0.122692
H	 3.8371126034	 1.6090324028	-1.2424259229	 0.12449
H	 3.3175735278	 4.24397678	-1.6494215817	 0.119312
H	 0.7837393488	 4.2511320277	-0.8849484297	 0.118284
77.1306	128.2894	145.4413	267.3109	327.5853	363.0304	446.5476	539.9101	567.8781	645.4969	712.7333	784.0264	804.2498	836.8229	864.6423	889.8249	946.1837	954.0636	960.1622	1035.9975	1041.2878	1076.9775	1084.4467	1119.5765	1122.2522	1198.43	1233.193	1289.6156	1343.7313	1384.4994	1414.0094	1472.1211	1514.4961	1678.1966	2350.9062	2990.7195	3027.1916	3140.3218	3164.0312	3218.35	3237.778	3241.5251
N#CC1CC11OCC=C1	N#C[C@H]1C[C@]21OCC=C2	
InChI=1S/C7H7NO/c8-5-6-4-7(6)2-1-3-9-7/h1-2,6H,3-4H2	InChI=1S/C7H7NO/c8-5-6-4-7(6)2-1-3-9-7/h1-2,6H,3-4H2/t6-,7-/m1/s1
