23
gdb 120045	4.13927	0.92554	0.8875	0.2623	88.84	-0.2421	0.0863	0.3284	1449.9473	0.20694	-351.109923	-351.101364	-351.10042	-351.143628	33.619	
C	-0.0535659678	 1.5765233265	-0.02906998	-0.379569
C	-0.0880047208	 0.0512659775	 0.0991477046	-0.158349
C	 0.8061146225	-0.4817487944	 1.2260785777	-0.209701
C	 0.7947433316	-2.0036356351	 1.3348795007	 0.039232
C	 1.4835157155	-2.725696963	 2.4936669797	-0.093793
C	 0.4640810701	-2.8698060049	 3.6388871309	-0.059673
C	-0.8494807126	-2.2425499741	 3.179257787	-0.232846
C	-0.4893262593	-2.7864968887	 1.7691593325	-0.075716
C	 0.4627983664	-3.8357430364	 2.4783118491	-0.087304
H	 0.9618116951	 1.9333018475	-0.235412656	 0.112212
H	-0.7005715005	 1.926500391	-0.8397822663	 0.108769
H	-0.3891182026	 2.058534815	 0.8960395197	 0.112625
H	-1.1214713113	-0.2774658351	 0.2704111373	 0.096979
H	 0.2196956503	-0.4042002044	-0.8516823651	 0.091985
H	 1.8406481644	-0.1515969976	 1.0544094653	 0.087568
H	 0.505517019	-0.029451028	 2.1788574237	 0.094598
H	 1.1515982178	-2.4391459405	 0.3925749683	 0.064367
H	 2.5456809489	-2.8093612252	 2.6898821886	 0.077071
H	 0.7985771531	-3.0568211834	 4.6515862366	 0.079992
H	-1.7041109632	-2.7819565793	 3.5978995825	 0.095651
H	-1.0099951403	-1.1651860988	 3.2994777749	 0.086264
H	-1.2702345431	-3.0129841719	 1.0458654632	 0.064259
H	 0.5610101269	-4.9098815165	 2.423226265	 0.085378
63.1516	88.258	123.7877	232.7983	268.9518	311.1223	353.0956	477.8201	577.6094	700.2951	733.5337	747.9507	783.0425	787.8971	802.6963	855.0099	890.1132	904.3373	932.7251	950.9671	993.3735	994.2339	1017.4948	1028.9217	1036.8034	1042.2682	1057.2639	1101.9073	1114.6109	1131.8244	1151.4566	1170.0144	1179.163	1209.4811	1245.4249	1260.6874	1270.8924	1307.2005	1325.6257	1327.1131	1367.4601	1382.8064	1406.9272	1413.8544	1482.5247	1492.4171	1499.0219	1506.4474	1515.0275	3006.8204	3015.4218	3019.9674	3027.7572	3032.2707	3039.5018	3062.7304	3088.9022	3094.5556	3098.7981	3131.4996	3183.1521	3193.4667	3223.8777
CCCC1C2C3CC1C23	CCC[C@H]1[C@H]2[C@H]3C[C@@H]1[C@@H]23	
InChI=1S/C9H14/c1-2-3-5-6-4-7-8(5)9(6)7/h5-9H,2-4H2,1H3	InChI=1S/C9H14/c1-2-3-5-6-4-7-8(5)9(6)7/h5-9H,2-4H2,1H3/t5-,6+,7-,8+,9-/m1/s1
