17
gdb 67892	2.81007	1.93485	1.41654	0.3709	72.22	-0.2153	0.0159	0.2312	926.6867	0.136878	-421.786779	-421.779843	-421.778898	-421.817588	28.827	
O	-0.021555855	 1.3331767132	 0.0293027548	-0.478653
C	 0.0486029462	-0.0663376927	-0.015946519	 0.333125
C	 1.1332657977	-0.6634571891	-0.8337609578	-0.102574
C	 1.035651392	-1.8769082751	-1.3777789377	-0.077062
C	-0.1736931844	-2.7588350488	-1.1821586591	-0.275394
C	-1.0798339342	-2.2168382156	-0.0866778579	 0.082179
O	-0.35549108	-2.1589550334	 1.1895805915	-0.296692
C	-0.5300769135	-0.7529962867	 1.2294514056	 0.027428
C	-1.3198628174	-0.6983844325	-0.0464516258	-0.20275
H	 0.6999661607	 1.6486635731	 0.5848393575	 0.286642
H	 2.0187698615	-0.0516490208	-0.9849552686	 0.082634
H	 1.8456692502	-2.2694223397	-1.9859102553	 0.091037
H	-0.7367540532	-2.8728546283	-2.1209147672	 0.109764
H	 0.1417206533	-3.7703904572	-0.8957942911	 0.120087
H	-1.9930175254	-2.8085482052	 0.0308398398	 0.087373
H	-0.6407338892	-0.2563375159	 2.1872518543	 0.105811
H	-2.2150924793	-0.1605298551	-0.325390564	 0.107046
183.9859	278.0977	291.2322	342.103	369.2225	384.8645	503.4843	539.5131	566.1811	688.6046	700.3907	753.0676	830.4824	869.4604	880.8408	899.0764	920.1859	947.9826	976.7006	1012.4306	1017.7815	1030.4549	1045.3775	1085.9395	1159.1751	1175.3421	1202.5086	1228.3879	1253.539	1289.4651	1313.986	1337.0794	1379.9244	1419.5744	1426.5963	1460.8224	1710.4978	2999.2623	3041.7955	3058.7469	3153.0616	3173.1662	3176.2031	3212.1395	3793.6116
OC12C=CCC3OC1C23	O[C@@]12C=CC[C@H]3O[C@@H]1[C@@H]23	
InChI=1S/C7H8O2/c8-7-3-1-2-4-5(7)6(7)9-4/h1,3-6,8H,2H2	InChI=1S/C7H8O2/c8-7-3-1-2-4-5(7)6(7)9-4/h1,3-6,8H,2H2/t4-,5+,6-,7-/m1/s1
