19
gdb 114148	4.19622	0.98505	0.87952	1.7994	84.48	-0.2292	0.0194	0.2487	1368.5624	0.157116	-385.819537	-385.81055	-385.809605	-385.853188	34.23	
C	-0.099362635	 1.5004594178	-0.1791358902	-0.379145
C	-0.0062532521	 0.019842798	 0.2054856287	-0.206838
C	-1.3419603597	-0.6892731247	 0.0834228049	 0.147741
O	-1.894531151	-0.6706969431	-1.2720391692	-0.336999
C	-2.139391233	-2.0842367741	-1.213311247	 0.31963
C	-0.8346854638	-2.8252885895	-1.1051793448	-0.339628
C	-1.4366759072	-2.213187823	 0.1365396372	-0.213777
C	-3.3597285623	-2.606860609	-1.7183519367	 0.216668
C	-4.3900594832	-3.0491089318	-2.1546221753	-0.416643
H	 0.8747573648	 1.9909975901	-0.0963360576	 0.112638
H	-0.450527972	 1.6059521556	-1.2093028812	 0.14008
H	-0.8007131763	 2.0354658886	 0.4705575176	 0.114661
H	 0.7346429222	-0.4847896286	-0.4240540107	 0.100496
H	 0.3360585482	-0.0833137206	 1.243659787	 0.099753
H	-2.0768363201	-0.232559637	 0.7604598334	 0.085926
H	-0.9115026472	-3.9063049963	-1.1535908464	 0.12958
H	 0.0426715757	-2.3987986308	-1.5818340403	 0.122508
H	-1.7235374774	-2.7994199698	 0.9985934519	 0.110804
H	-5.3010960604	-3.4363294717	-2.5388276215	 0.192545
91.5509	104.8299	129.326	209.3006	215.6472	274.1093	376.0039	443.3971	465.4298	507.3838	557.7208	571.8814	623.3929	687.7642	720.6357	787.4207	841.0852	885.2011	901.6129	949.2932	952.1163	998.862	1017.9922	1030.6796	1068.7827	1093.0339	1110.3156	1154.622	1169.979	1278.7542	1284.8404	1297.4763	1346.3496	1366.018	1408.245	1417.4421	1471.9517	1479.9797	1498.1036	1509.2791	2235.0031	3010.5781	3026.8442	3037.8699	3071.991	3105.6228	3121.5466	3126.0728	3208.8179	3221.7871	3501.79
CCC1OC2(CC12)C#C	CC[C@H]1O[C@]2(C[C@@H]12)C#C	
InChI=1S/C8H10O/c1-3-7-6-5-8(6,4-2)9-7/h2,6-7H,3,5H2,1H3	InChI=1S/C8H10O/c1-3-7-6-5-8(6,4-2)9-7/h2,6-7H,3,5H2,1H3/t6-,7+,8-/m0/s1
