19
gdb 82905	3.06909	1.85322	1.5953	0.553	72.69	-0.2355	0.0694	0.3049	900.0385	0.163763	-423.013237	-423.006921	-423.005977	-423.043506	27.61	
O	-0.0041188607	 1.437802466	 0.1203864665	-0.443021
C	 0.0123080966	 0.0320441066	-0.0214884635	 0.163265
C	-1.3787385396	-0.532500868	-0.3896907823	-0.102724
C	-1.6197476638	 0.2884013331	-1.6792047624	-0.20952
C	-0.4612393592	-0.3987577198	-2.4452409383	-0.067655
C	-1.0622640135	-1.8233762627	-2.4957715368	-0.19581
C	-0.9477701816	-1.972815298	-0.9692926514	 0.071862
O	 0.4951345247	-1.962180988	-0.8843730991	-0.26719
C	 0.6487584546	-0.5933600915	-1.292146956	 0.010729
H	 0.8833822414	 1.7151707382	 0.3657532573	 0.285845
H	 0.454324981	-0.4446237653	 0.8593499679	 0.074842
H	-2.1429888038	-0.5262308311	 0.3854841017	 0.067738
H	-2.5869528743	 0.1107642864	-2.1541083378	 0.086401
H	-1.4976664651	 1.3558791645	-1.5074309963	 0.123311
H	-0.1158332178	 0.0498398085	-3.3749031634	 0.064721
H	-2.0719470348	-1.829026782	-2.9123279859	 0.091767
H	-0.4533464222	-2.5835352771	-2.9874376105	 0.101706
H	-1.3507785776	-2.8562131615	-0.4774789656	 0.076192
H	 1.6869454357	-0.3723172184	-1.538269014	 0.067538
216.9443	270.874	331.3791	407.855	520.5313	548.003	579.0914	629.8263	693.1323	771.6191	806.2593	818.2235	876.7913	894.6329	907.987	918.0004	932.0873	944.6886	958.073	972.8506	1015.1946	1026.4672	1054.1207	1101.3216	1132.1044	1144.2772	1165.2085	1181.9166	1200.7986	1232.9947	1245.8529	1263.5467	1270.5249	1285.676	1298.7902	1314.531	1326.645	1343.1148	1422.6282	1487.149	1521.9134	3051.8469	3069.2893	3083.0135	3123.1009	3129.1648	3130.9456	3134.8513	3143.5997	3154.5978	3829.6608
OC1C2CC3CC2OC13	O[C@H]1[C@H]2C[C@@H]3C[C@H]2O[C@H]13	
InChI=1S/C7H10O2/c8-6-4-1-3-2-5(4)9-7(3)6/h3-8H,1-2H2	InChI=1S/C7H10O2/c8-6-4-1-3-2-5(4)9-7(3)6/h3-8H,1-2H2/t3-,4+,5-,6+,7+/m1/s1
