19
gdb 31520	3.10752	1.11776	0.87865	2.2599	79.97	-0.2181	0.0159	0.234	1375.0783	0.158913	-419.258807	-419.249095	-419.248151	-419.293943	34.681	
C	-0.3613556832	 1.4095887422	-0.1713085572	-0.378048
C	 0.1446839792	-0.0345648233	-0.0163800056	-0.287588
C	 0.9108753917	-0.5184784523	-1.199945442	 0.378115
N	 2.1579122827	-0.8683144061	-1.2591322763	-0.358463
C	 2.3711917531	-1.2265488391	-2.5903528909	 0.253756
C	 3.6938749116	-1.6975171314	-3.0886838502	-0.495217
C	 1.2150623505	-1.0683270663	-3.2805721278	 0.174353
N	 0.8790856189	-1.2789472822	-4.6156018437	-0.600478
O	 0.2563795909	-0.6071919577	-2.3836113764	-0.204667
H	 0.4741809025	 2.1046481746	-0.2967720468	 0.128447
H	-1.014102256	 1.5028845786	-1.0436556999	 0.12888
H	-0.9282780082	 1.7137472926	 0.7132116908	 0.117424
H	 0.8082757216	-0.1213661175	 0.8473324302	 0.133015
H	-0.7083394554	-0.7023437416	 0.1577847552	 0.118344
H	 4.0156632962	-2.5985361961	-2.5552421969	 0.131879
H	 3.6374697893	-1.9223979416	-4.1559764969	 0.134958
H	 4.4661251949	-0.937164955	-2.9291301973	 0.131641
H	 0.150291389	-1.9766821175	-4.7292933107	 0.246904
H	 0.5736687407	-0.4293052303	-5.0800743976	 0.246744
42.5872	102.6993	127.529	180.9198	196.8003	247.5406	252.0693	261.1753	313.7956	413.204	503.478	602.751	659.981	671.6177	741.5881	771.2187	797.4588	807.0868	965.938	990.7813	1008.8725	1065.3174	1070.3664	1081.1238	1106.3151	1215.8873	1249.0623	1268.8806	1317.5645	1352.668	1370.501	1408.6859	1420.7943	1474.2521	1481.4745	1489.3252	1497.2029	1507.0956	1614.4238	1652.8279	1723.4557	3033.4154	3036.003	3043.6569	3088.1642	3102.5466	3116.2169	3125.8582	3131.9063	3492.7446	3557.8492
CCC1=NC(C)=C(N)O1	CCc1nc(C)c(N)o1	
InChI=1S/C6H10N2O/c1-3-5-8-4(2)6(7)9-5/h3,7H2,1-2H3	InChI=1S/C6H10N2O/c1-3-5-8-4(2)6(7)9-5/h3,7H2,1-2H3
