20
gdb 110797	3.18674	1.0389	0.94339	2.1299	83.01	-0.2461	0.024	0.2701	1367.998	0.169643	-403.119748	-403.11036	-403.109416	-403.154743	33.978	
C	 0.1166518667	 1.346382453	-0.2266581074	-0.375814
C	 0.0054631427	-0.0906101652	 0.2959318859	-0.210046
C	-1.3896716295	-0.6544386947	 0.1282221438	-0.026033
C	-1.8902471998	-1.3249308489	-1.1044983368	 0.073632
O	-0.8270948202	-2.0657083794	-1.7537537963	-0.286089
C	-0.7394825539	-2.910248931	-0.6302388779	 0.485577
N	-0.0718709861	-3.9511592883	-0.4573885781	-0.343576
C	 0.7973329838	-4.4247384458	-1.525137216	-0.340211
C	-1.7501191114	-2.1487595232	 0.1602979249	-0.273583
H	 1.126991393	 1.7396700758	-0.0800077182	 0.116607
H	-0.1106362768	 1.3934740407	-1.2965640658	 0.123818
H	-0.5792144562	 2.0154735851	 0.2918213249	 0.112612
H	 0.7216292176	-0.7298530507	-0.228052277	 0.121439
H	 0.2743462246	-0.1241143671	 1.3584775231	 0.104749
H	-2.1708997807	-0.0700413894	 0.6150045787	 0.098174
H	-2.7497837222	-1.0703366742	-1.709982665	 0.118374
H	 1.8346005365	-4.416209688	-1.1719049533	 0.127945
H	 0.5473639552	-5.4666490702	-1.7523913828	 0.127211
H	 0.7355140005	-3.8362324378	-2.4477772794	 0.127359
H	-2.4832038638	-2.5696662206	 0.832749083	 0.117855
58.9522	78.2582	89.1689	176.0368	214.7854	218.9473	276.6647	290.72	446.771	494.0926	590.0793	704.1148	713.1099	760.094	797.0102	831.2881	880.7119	914.0565	945.6361	985.9429	1014.524	1035.5144	1056.2551	1078.1261	1084.0108	1097.0068	1128.8965	1135.833	1173.2527	1204.8351	1285.2288	1301.6721	1308.7953	1358.4377	1410.3378	1438.9591	1445.3346	1480.5621	1493.1384	1498.0093	1498.6891	1505.2579	1853.0013	3018.1465	3032.64	3039.2222	3082.6105	3083.1966	3089.3715	3104.0007	3109.6295	3118.7382	3207.2942	3227.9071
CCC1C2OC(=NC)C12	CC[C@H]1[C@H]2OC(=NC)[C@@H]12	
InChI=1S/C7H11NO/c1-3-4-5-6(4)9-7(5)8-2/h4-6H,3H2,1-2H3	InChI=1S/C7H11NO/c1-3-4-5-6(4)9-7(5)8-2/h4-6H,3H2,1-2H3/t4-,5+,6-/m1/s1
