19
gdb 91582	2.86516	1.18667	0.98021	2.7923	75.92	-0.2472	-0.0273	0.2199	1246.8208	0.156797	-423.002989	-422.993917	-422.992973	-423.037675	33.09	
C	-0.18406268	 1.4939986406	-0.1253596208	-0.417634
C	 0.0647461603	-0.0035892072	-0.231585369	-0.036653
C	 1.3887981937	-0.5030192882	-0.9249767294	-0.264559
C	 1.7564236471	-1.2075475273	 0.3840822383	-0.048217
O	 1.8074937559	-0.1969637103	 1.4035877382	-0.292424
C	 0.5252127683	-0.7443359791	 1.0471287551	 0.39727
C	-0.3135507062	-1.3200327058	 2.1515247009	-0.396772
C	-0.8702445152	-0.2359282427	 3.060605049	 0.160248
O	-2.0366852999	-0.1026165586	 3.3251855456	-0.238055
H	 0.6672503216	 1.9877114963	 0.3518458926	 0.132771
H	-0.3255151205	 1.9388969066	-1.1158007163	 0.117392
H	-1.0820287546	 1.7074515065	 0.4650506194	 0.125595
H	-0.7999818626	-0.5133750936	-0.6689429612	 0.081409
H	 1.2022391825	-1.187273311	-1.7557451142	 0.10762
H	 2.0935273811	 0.2715483463	-1.2378449079	 0.112717
H	 2.3524498895	-2.0987744692	 0.5471739139	 0.104555
H	-1.1471514043	-1.9067768187	 1.7548796115	 0.124947
H	 0.3220439843	-1.9724502012	 2.7649102218	 0.132248
H	-0.0979759608	 0.4463257565	 3.4789377926	 0.097541
48.7659	63.6762	132.9369	190.6235	234.8665	265.1369	312.3571	356.6117	455.6502	480.2117	563.7062	670.6984	701.4711	784.0054	838.1766	858.1003	889.1387	922.4583	952.1793	987.1981	1027.1451	1042.7684	1082.4838	1107.7939	1116.1514	1151.1028	1191.3841	1222.7833	1239.7127	1250.7663	1291.0496	1305.1116	1359.581	1404.6722	1422.2821	1438.6115	1449.7239	1480.179	1495.3232	1505.1943	1833.1775	2897.0791	3028.6274	3033.1602	3055.0805	3066.5071	3096.5804	3102.3724	3117.0995	3124.1627	3180.4798
CC1CC2OC12CC=O	C[C@H]1C[C@H]2O[C@@]12CC=O	
InChI=1S/C7H10O2/c1-5-4-6-7(5,9-6)2-3-8/h3,5-6H,2,4H2,1H3	InChI=1S/C7H10O2/c1-5-4-6-7(5,9-6)2-3-8/h3,5-6H,2,4H2,1H3/t5-,6+,7-/m0/s1
