14
gdb 26804	3.68006	1.13985	0.87433	1.8782	78.15	-0.1959	-0.0133	0.1826	1237.0406	0.101138	-432.869595	-432.860927	-432.859983	-432.903478	31.685	
N	 0.2379807611	 1.4415461577	 0.0069823529	-0.624213
C	 0.0317877975	 0.0503068536	-0.0134889008	 0.164883
C	-1.0739264682	-0.7782396806	-0.031357604	 0.288806
O	-2.3630990069	-0.3707939486	-0.0331260223	-0.445998
N	-0.7289140266	-2.0859920499	-0.0475345608	-0.390701
C	 0.6062750333	-2.1001297372	-0.0400450527	 0.177965
N	 1.0977412861	-0.8300375898	-0.0195837189	-0.308944
C	 1.4389404402	-3.2384190785	-0.0510497463	 0.269883
C	 2.1730365187	-4.1933062968	-0.0600779441	-0.406395
H	-0.178916352	 1.8706465628	 0.8271846398	 0.251623
H	-0.1699415223	 1.8933160346	-0.8055209601	 0.251627
H	-2.9001538656	-1.1725392491	-0.0473694103	 0.302472
H	 2.0668705187	-0.5563975643	-0.010223374	 0.27371
H	 2.8091427361	-5.0433491739	-0.0682146383	 0.195281
37.9031	126.828	141.9523	249.1889	266.2633	335.2941	385.7117	426.1198	462.5344	542.156	549.0901	575.9255	606.978	667.6349	687.5746	704.6924	742.1358	787.2176	848.2389	1036.149	1158.7176	1202.8333	1216.5046	1273.0576	1358.6858	1428.8949	1459.6927	1531.8724	1655.4543	1675.4313	2230.995	3497.9671	3503.0073	3558.5015	3661.8837	3801.4583
NC1=C(O)N=C(N1)C#C	Nc1c(O)nc([nH]1)C#C	
InChI=1S/C5H5N3O/c1-2-3-7-4(6)5(9)8-3/h1,9H,6H2,(H,7,8)	InChI=1S/C5H5N3O/c1-2-3-7-4(6)5(9)8-3/h1,9H,6H2,(H,7,8)
