16
gdb 110822	2.43478	1.39309	1.06175	3.0248	68.77	-0.2638	-0.0061	0.2576	1131.929	0.12366	-437.833038	-437.824664	-437.82372	-437.866544	30.373	
O	-0.2019142422	 1.4460397335	-0.3496173101	-0.424723
C	 0.0157154816	 0.10323292	 0.0634910724	-0.120108
C	-1.3337822648	-0.5709030729	 0.0502815339	-0.01237
C	-1.8957018663	-1.3097121809	-1.1162994711	 0.085842
O	-0.8678478516	-2.0199214769	-1.8321295228	-0.284227
C	-0.6533466317	-2.880282038	-0.6887935961	-0.017745
C	 0.7514669083	-3.0190494215	-0.2905608313	 0.288848
N	 1.8496919102	-3.1544201398	 0.0428147102	-0.324393
C	-1.611691129	-2.0571628934	 0.1750663845	-0.188195
H	 0.6552589655	 1.8759922682	-0.4221795834	 0.290966
H	 0.7058067565	-0.4158138023	-0.612283001	 0.117193
H	 0.4414875017	 0.0593783693	 1.0776869876	 0.098704
H	-2.0957999462	 0.0041235224	 0.573640766	 0.113052
H	-2.80838666	-1.0864633745	-1.6540416984	 0.120822
H	-1.055222832	-3.8791875313	-0.8965728548	 0.137923
H	-2.2719444	-2.4809797418	 0.9183514146	 0.118411
77.6757	103.2462	148.5912	215.9796	227.7884	260.3724	345.4288	462.6789	542.0393	546.9003	617.027	738.8163	797.5446	822.4647	902.7027	935.2204	988.893	996.568	1012.4523	1043.8824	1059.0362	1071.6423	1090.6369	1114.8806	1170.478	1239.975	1263.5425	1271.3497	1284.5416	1324.5943	1359.9544	1426.5388	1482.1816	1514.1632	2355.7232	2986.6898	3040.119	3051.2982	3138.6758	3199.1726	3216.8032	3832.1586
OCC1C2OC(C#N)C12	OC[C@H]1[C@H]2O[C@@H](C#N)[C@@H]12	
InChI=1S/C6H7NO2/c7-1-4-5-3(2-8)6(5)9-4/h3-6,8H,2H2	InChI=1S/C6H7NO2/c7-1-4-5-3(2-8)6(5)9-4/h3-6,8H,2H2/t3-,4+,5-,6-/m1/s1
