19
gdb 107582	2.65915	1.56919	1.13122	3.8809	75.75	-0.2296	0.0264	0.256	1117.433	0.160986	-419.232347	-419.22388	-419.222936	-419.265323	32.223	
C	 0.072178263	 1.4683601473	 0.4114147755	-0.382102
C	 0.0194097956	 0.0581528945	-0.1936314869	-0.297803
C	-1.3697263288	-0.5263604007	-0.192958953	 0.223779
N	-2.0156812956	-0.9838803352	 1.0727971677	-0.362252
C	-1.727163445	-1.9540812125	 0.0018736181	-0.120024
C	-2.9598005042	-2.2696625181	-0.8336463839	-0.164071
N	-3.2947368001	-0.9737920406	-1.403115065	-0.321028
C	-2.4266421517	 0.0468752961	-1.1252949442	 0.414028
O	-2.4846845789	 1.1765342828	-1.5655539256	-0.388582
H	 1.0909082984	 1.8656355783	 0.3774534825	 0.107945
H	-0.5874683428	 2.1380165152	-0.1437813505	 0.16117
H	-0.2525313783	 1.4608431638	 1.4572306869	 0.112536
H	 0.3882932161	 0.0885711784	-1.2257941424	 0.114381
H	 0.6868125404	-0.6186289809	 0.3564732676	 0.089095
H	-1.2877828858	-1.0564355678	 1.7833330382	 0.231154
H	-0.9765454372	-2.7209099723	 0.1566570112	 0.098189
H	-2.7283774281	-3.0052418741	-1.6153776004	 0.109429
H	-3.7735356429	-2.6642283387	-0.213623001	 0.121643
H	-4.135482644	-0.7987278254	-1.9289758451	 0.252511
96.0418	127.8328	179.5758	206.1875	263.4053	288.8852	349.072	447.0745	483.7076	498.7853	616.9998	678.0991	723.7331	774.3935	794.5529	848.5412	880.1968	917.3898	961.271	987.7591	1041.1278	1056.0672	1092.8839	1102.1621	1121.7706	1149.5181	1224.1983	1229.2489	1278.4297	1292.8229	1340.0647	1370.3664	1384.9342	1408.9873	1439.4462	1457.8746	1477.0478	1495.5053	1515.2456	1516.5508	1818.7808	3012.5629	3016.9176	3041.7604	3053.8542	3059.7014	3106.4573	3141.8412	3177.0448	3467.0163	3650.9152
CCC12NC1CNC2=O	CC[C@]12N[C@H]1CNC2=O	
InChI=1S/C6H10N2O/c1-2-6-4(8-6)3-7-5(6)9/h4,8H,2-3H2,1H3,(H,7,9)	InChI=1S/C6H10N2O/c1-2-6-4(8-6)3-7-5(6)9/h4,8H,2-3H2,1H3,(H,7,9)/t4-,6-/m0/s1
