14
gdb 130163	3.31227	1.3983	0.98379	5.1072	69.75	-0.2065	-0.0189	0.1876	1101.306	0.101908	-470.04176	-470.033555	-470.032611	-470.074311	30.79	
N	-0.009648735	 1.2965074194	 0.0993255357	-0.542931
C	-0.0481329161	-0.0568451635	 0.0430321244	 0.305278
N	-1.1866708617	-0.6911402221	 0.0281749187	-0.322624
N	-1.0979202314	-2.0582705833	 0.0092272541	-0.331279
C	 0.0531949979	-2.7608519286	 0.0080369517	 0.512283
O	-0.0211124141	-4.1104091027	 0.0146122063	-0.417257
C	 1.2669612363	-2.1258475697	 0.002664671	-0.366908
C	 1.3086792656	-0.7003011951	 0.0183854675	 0.363796
O	 2.3104937648	 0.016095435	-0.006698812	-0.422847
H	 0.9067757557	 1.684147674	-0.0754785258	 0.273825
H	-0.8334773259	 1.8287274235	-0.1199600128	 0.258667
H	-1.9912000905	-2.5132810117	 0.1041336259	 0.265871
H	-0.9123036372	-4.4097899794	-0.1968789033	 0.302819
H	 2.1781873015	-2.7060645457	-0.0326185616	 0.121307
114.7065	129.4382	192.4772	303.4862	339.3025	341.631	370.7455	423.731	470.2665	484.8456	523.7693	560.0857	613.2561	672.934	712.7466	793.4713	821.4303	847.5368	1002.1206	1074.0575	1187.9202	1201.8735	1266.0812	1286.0249	1410.8054	1422.3171	1558.0466	1576.2172	1651.426	1670.2353	1724.1077	3235.8512	3570.8391	3642.6167	3722.0944	3813.804
NC1=NNC(O)=CC1=O	Nc1n[nH]c(O)cc1=O	
InChI=1S/C4H5N3O2/c5-4-2(8)1-3(9)6-7-4/h1H,(H2,5,7)(H2,6,8,9)	InChI=1S/C4H5N3O2/c5-4-2(8)1-3(9)6-7-4/h1H,(H2,5,7)(H2,6,8,9)
