25
gdb 94676	2.31981	1.55843	1.1421	0.1904	92.4	-0.2461	0.0822	0.3283	1227.096	0.229128	-352.379561	-352.369912	-352.368967	-352.412911	38.516	
C	-0.0387822958	 1.559488849	-0.0047382006	-0.404595
C	 0.0360337126	 0.0309610676	 0.0224830983	-0.008308
C	 0.7784405422	-0.5754989281	-1.189995289	-0.24473
C	 1.2912257986	-1.9467677772	-0.7086478637	-0.266762
C	 1.5177633925	-1.7903531703	 0.7932973053	 0.308901
C	 1.6509554796	-3.0568002498	 1.6059190561	-0.481978
C	 2.2575750101	-0.5377074088	 1.2138290952	-0.386648
C	 0.7420987879	-0.5623287942	 1.2478650695	 0.329633
C	 0.0208516803	-0.4709897809	 2.5725302956	-0.488537
H	 0.963916564	 2.000202172	 0.0295380751	 0.112574
H	-0.5291825562	 1.9139160645	-0.9179166334	 0.108646
H	-0.6049412583	 1.9519946912	 0.8463740073	 0.110804
H	-0.9920109272	-0.361839952	 0.0305486026	 0.062507
H	 0.1361985464	-0.6507723063	-2.0720781109	 0.092542
H	 1.618115034	 0.0696425166	-1.4722406225	 0.0981
H	 0.528756618	-2.7201369933	-0.8711805726	 0.091235
H	 2.1911806862	-2.2710356715	-1.2447238223	 0.090322
H	 2.5366749625	-3.6264821967	 1.2994755814	 0.114791
H	 1.752419699	-2.8508849508	 2.6755725914	 0.111935
H	 0.779532857	-3.7094033315	 1.4720940532	 0.11027
H	 2.7636702817	-0.5721573065	 2.1740677425	 0.09892
H	 2.778808556	 0.0608896762	 0.4728848612	 0.101065
H	-0.1015479829	 0.5724066883	 2.8864488359	 0.116857
H	-0.9806927458	-0.9147540235	 2.512388938	 0.110223
H	 0.5653680378	-0.9845404841	 3.3702720364	 0.112233
123.1983	192.5077	203.0879	214.0758	230.9835	244.6958	249.927	309.4734	353.608	412.72	438.148	503.5229	532.1155	592.5639	658.7054	698.7173	812.9332	841.945	895.6473	927.9312	940.615	947.956	966.8358	990.0773	1006.0057	1052.3034	1057.9364	1063.0589	1090.0933	1125.663	1143.7802	1153.0473	1229.7072	1241.6769	1253.2742	1277.0602	1317.2056	1326.8382	1357.4232	1371.9243	1401.3501	1406.8293	1411.5839	1423.4506	1483.6265	1486.3435	1489.9116	1493.7207	1495.0088	1498.5616	1502.8425	1510.193	1518.4158	2984.8477	3014.9594	3018.4296	3021.9326	3027.0119	3039.8586	3056.8998	3073.1308	3074.541	3087.5717	3093.7536	3096.3223	3097.867	3104.1664	3117.7352	3195.91
CC1CCC2(C)CC12C	C[C@H]1CC[C@@]2(C)C[C@@]12C	
InChI=1S/C9H16/c1-7-4-5-8(2)6-9(7,8)3/h7H,4-6H2,1-3H3	InChI=1S/C9H16/c1-7-4-5-8(2)6-9(7,8)3/h7H,4-6H2,1-3H3/t7-,8-,9-/m0/s1
