17
gdb 67900	2.48168	1.90119	1.3621	4.976	71.97	-0.2275	0.0286	0.2561	969.8923	0.136494	-417.97092	-417.963427	-417.962483	-418.002471	29.963	
C	-0.0220607629	 1.5450222875	-0.024384337	-0.480581
C	 0.0060541714	 0.0381288459	 0.044515695	 0.379523
N	-1.2871356115	-0.6515134744	 0.1150588904	-0.365715
C	-0.9408476348	-1.4763848308	 1.1805920787	 0.448384
O	-1.527456281	-2.3589427939	 1.7399194123	-0.360709
C	 0.4376295303	-0.7754448977	 1.3091265587	-0.282552
C	 1.5696339597	-1.4167384223	 0.4679535407	-0.038201
N	 0.9345842945	-2.1261629856	-0.6661622449	-0.331713
C	 1.1588178744	-0.6693634684	-0.749950385	-0.119743
H	 0.9832178706	 1.9561149114	 0.1151146084	 0.124258
H	-0.3862111227	 1.885540127	-1.0011564193	 0.122383
H	-0.6791128105	 1.9569374072	 0.7464305378	 0.131612
H	-1.9258337969	-0.8815660285	-0.6348809667	 0.243199
H	 0.7154525563	-0.2941086027	 2.2443996495	 0.097548
H	 2.5528758054	-1.6967115487	 0.8220443908	 0.102992
H	 1.677556484	-2.5799342922	-1.1960636564	 0.235798
H	 1.7523087337	-0.2335143638	-1.5451557631	 0.093517
138.027	222.7868	225.8324	260.2412	308.9189	384.7883	473.2037	498.8567	561.2116	619.2889	696.9227	729.1029	798.6798	815.5352	843.1716	859.3663	911.5681	931.4659	959.0123	979.1273	1004.7478	1066.1497	1095.8763	1100.5665	1122.9472	1157.0657	1194.4683	1235.8293	1258.4841	1294.279	1314.1377	1346.9647	1381.4317	1412.3054	1486.6342	1492.3615	1898.4959	3028.8853	3091.9994	3117.2286	3146.134	3179.0502	3204.4501	3482.9026	3583.3045
CC12NC(=O)C1C1NC21	C[C@]12NC(=O)[C@H]1[C@H]1N[C@@H]21	
InChI=1S/C6H8N2O/c1-6-2(5(9)8-6)3-4(6)7-3/h2-4,7H,1H3,(H,8,9)	InChI=1S/C6H8N2O/c1-6-2(5(9)8-6)3-4(6)7-3/h2-4,7H,1H3,(H,8,9)/t2-,3-,4-,6+/m1/s1
