19
gdb 40302	6.30585	0.59753	0.57486	2.175	87.88	-0.2339	0.0406	0.2746	1939.1368	0.159213	-385.824241	-385.815192	-385.814248	-385.86052	32.145	
C	 0.7359938266	 1.6206124487	 0.1396608876	-0.25134
C	 1.1757615852	 0.3250570093	-0.4733740796	-0.251341
C	-0.2194223247	 0.4365423656	 0.1234115676	-0.156312
C	-0.543095554	-0.2491096537	 1.3403437419	 0.078803
C	-0.8169938562	-0.8264091134	 2.3640107613	 0.072968
C	-1.1684975149	-1.5222039338	 3.5823694014	-0.214172
C	-2.4704897994	-1.1236035831	 4.3353300218	-0.072801
O	-2.9039586567	-2.4950365127	 4.3923745105	-0.269439
C	-1.8630358615	-2.9114533675	 3.4895706981	-0.0728
H	 1.1557177582	 1.8998435641	 1.0985538506	 0.126252
H	 0.5035907417	 2.4532824839	-0.5145502766	 0.119064
H	 1.248463782	 0.2586687192	-1.5530299851	 0.119062
H	 1.894894117	-0.2776327341	 0.0681246539	 0.126253
H	-1.0317507152	 0.5006941594	-0.5949832111	 0.110102
H	-0.3145234013	-1.5551655845	 4.2654274176	 0.107738
H	-2.3474435701	-0.6851056449	 5.3314707363	 0.107239
H	-3.1467162608	-0.4983874794	 3.7390160608	 0.106743
H	-2.248583236	-3.1417789328	 2.4885342636	 0.106743
H	-1.2996066297	-3.7691129803	 3.8725567091	 0.107239
15.2847	70.209	89.0235	122.6162	204.3395	204.477	441.9418	452.9101	479.851	541.8406	621.4361	770.6529	808.2559	821.381	876.3355	890.1711	894.9348	939.7354	999.8469	1011.4961	1038.1939	1062.7019	1080.248	1093.7324	1108.7189	1118.3297	1157.4793	1170.9287	1193.7407	1201.2617	1233.309	1238.9534	1302.8951	1342.3245	1375.6523	1401.2777	1467.3028	1497.6043	1510.8605	1536.9174	2355.6555	3014.1904	3024.6308	3054.1864	3071.785	3080.1524	3140.9529	3142.0499	3147.2083	3225.6655	3240.8111
C1CC1C#CC1COC1	C1CC1C#CC1COC1	
InChI=1S/C8H10O/c1-2-7(1)3-4-8-5-9-6-8/h7-8H,1-2,5-6H2	InChI=1S/C8H10O/c1-2-7(1)3-4-8-5-9-6-8/h7-8H,1-2,5-6H2
