23
gdb 82598	3.66753	1.2904	1.22574	0.1	89.13	-0.2642	0.0955	0.3597	1164.1292	0.208124	-351.131208	-351.123273	-351.122328	-351.163073	32.89	
C	-0.2050662634	 1.6570655302	-0.1372892076	-0.434238
C	 0.0292898784	 0.1558766312	-0.0319424746	 0.047363
C	 1.1063037503	-0.6006047073	-0.8706523022	-0.073917
C	 2.4103139239	 0.1256744313	-0.4802158524	-0.22107
C	 2.341321134	-0.276201568	 1.0087887566	-0.046903
C	 2.4991028511	-1.8239169761	 0.8919218602	 0.025574
C	 2.5529542924	-2.6062193849	 2.2000918107	-0.422182
C	 1.0991424616	-1.7262508144	 0.2588764793	-0.023097
C	 0.7643656758	-0.4894271081	 1.1535542258	-0.049657
H	 0.6938159181	 2.2413360607	 0.077807928	 0.116526
H	-0.5544938532	 1.9352111561	-1.1384790763	 0.112112
H	-0.9737063071	 1.9722559386	 0.577384194	 0.112375
H	-0.9288185628	-0.3667257846	-0.1502576981	 0.065245
H	 0.941251214	-0.8371105505	-1.922344743	 0.052754
H	 3.3008842244	-0.2770688533	-0.9715648182	 0.088929
H	 2.3768622771	 1.1999450096	-0.6731889945	 0.089111
H	 2.9165894298	 0.3003317042	 1.7339999889	 0.053601
H	 3.3169105116	-2.1529245349	 0.2379489293	 0.05373
H	 1.7529484586	-2.3176056268	 2.8888916428	 0.114925
H	 2.4561228492	-3.6820305409	 2.0150972554	 0.111481
H	 3.5079801745	-2.4440278669	 2.7120343086	 0.110703
H	 0.424455419	-2.5732376244	 0.1285660414	 0.056481
H	 0.3449357728	-0.5543218008	 2.156466176	 0.060157
162.774	173.1301	213.759	228.4905	279.5403	325.0775	452.2811	486.9538	546.4355	651.3042	699.7265	761.478	787.4856	813.3149	840.7006	873.4316	919.7746	927.2922	937.1383	959.0467	965.5812	989.2123	1047.5842	1055.6951	1065.1218	1073.2936	1079.3038	1114.4708	1127.3637	1146.6494	1165.0495	1180.5703	1209.0732	1216.3008	1237.8223	1253.6	1275.0012	1286.7322	1309.8945	1323.7069	1383.1704	1400.1652	1410.2965	1414.1606	1492.065	1495.8751	1497.4063	1499.193	1521.7255	3011.9828	3020.8576	3028.1681	3029.8395	3057.8961	3086.5413	3087.5479	3099.0527	3101.0641	3101.8005	3105.7103	3110.2881	3114.1586	3125.6774
CC1C2CC3C(C)C2C13	C[C@H]1[C@H]2C[C@@H]3[C@@H](C)[C@H]2[C@H]13	
InChI=1S/C9H14/c1-4-6-3-7-5(2)9(6)8(4)7/h4-9H,3H2,1-2H3	InChI=1S/C9H14/c1-4-6-3-7-5(2)9(6)8(4)7/h4-9H,3H2,1-2H3/t4-,5+,6-,7-,8-,9-/m1/s1
