15
gdb 36062	2.38363	1.39405	1.07823	6.9073	69.54	-0.2961	-0.0151	0.281	1129.067	0.111998	-416.807054	-416.798461	-416.797517	-416.841231	30.033	
N	-0.0782882949	-1.1219943637	 0.3410182984	-0.288768
C	-0.0148004243	 0.0181277724	 0.1702487601	 0.285741
C	 0.0500003709	 1.4620078372	-0.0415997165	-0.394836
C	 1.492021886	 1.9982245266	-0.1217084989	 0.261602
C	 1.6431878928	 3.5421841633	-0.0031466943	-0.33717
C	 2.4696863555	 3.2160873548	 1.2565173963	-0.069405
O	 2.2061463239	 1.7963884851	 1.107688305	-0.288189
C	 2.2081812603	 1.4178480579	-1.2705973843	 0.278623
N	 2.7715479231	 0.9998546459	-2.1884157061	-0.320067
H	-0.4860202255	 1.718261865	-0.9624427171	 0.171223
H	-0.45139991	 1.9655517018	 0.7908614685	 0.162479
H	 2.1758619109	 4.0230408414	-0.821882764	 0.14868
H	 0.6997218426	 4.059490268	 0.176660676	 0.130793
H	 3.5394092761	 3.4340991249	 1.1815325987	 0.132909
H	 2.0842633126	 3.5971359893	 2.2065126182	 0.126384
59.5287	79.4901	115.2769	190.9285	198.9085	318.434	364.0486	390.1329	473.9746	534.4934	569.4985	710.949	776.4762	850.8489	878.7249	936.1014	975.8759	979.3745	1012.1525	1058.7275	1131.6534	1157.2822	1189.541	1218.9636	1265.2859	1285.9402	1333.2164	1354.3203	1449.0684	1487.7745	1530.1225	2357.6721	2372.0522	3049.8745	3051.1643	3093.0207	3099.4111	3100.5926	3160.7232
N#CCC1(CCO1)C#N	N#CC[C@]1(CCO1)C#N	
InChI=1S/C6H6N2O/c7-3-1-6(5-8)2-4-9-6/h1-2,4H2	InChI=1S/C6H6N2O/c7-3-1-6(5-8)2-4-9-6/h1-2,4H2/t6-/m0/s1
