15
gdb 128377	2.78077	1.57952	1.01371	0.8435	73.48	-0.2314	-0.0439	0.1875	1110.8409	0.113787	-450.114341	-450.106145	-450.105201	-450.147805	29.279	
C	 0.0535984564	 1.4105770388	-0.0779358444	-0.318809
N	-0.0699113792	-0.030273441	-0.069038996	-0.32997
C	-1.2454341119	-0.6728477306	 0.0174824522	 0.420085
N	-2.3511721477	 0.0172895459	 0.0984674437	-0.239813
O	-3.5296622429	-0.7675144845	 0.1849783374	-0.205495
C	-3.445496886	-2.0909764817	 0.179023222	 0.163275
N	-2.3977029883	-2.8259033471	 0.1024245648	-0.33784
C	-1.1834710444	-2.1580969049	 0.0133739965	 0.307005
N	-0.0366250769	-2.7125590333	-0.0703259369	-0.537324
H	 1.1096746362	 1.672261053	-0.1561010409	 0.131928
H	-0.4875754342	 1.8479380719	-0.924640792	 0.144885
H	-0.3569903046	 1.8478037596	 0.8393182391	 0.144814
H	 0.7320952294	-0.6403618444	-0.1270952358	 0.275777
H	-4.4383366978	-2.5299503057	 0.2518093396	 0.150172
H	-0.142434848	-3.728382146	-0.0622352795	 0.23131
66.0837	98.8565	126.6625	194.8152	273.6562	368.0571	435.4395	475.7442	510.0878	550.8141	567.6999	608.9971	746.4032	814.168	910.8704	933.3496	946.5027	975.3211	1031.3621	1117.1841	1161.0716	1195.4226	1209.8341	1293.4815	1378.7817	1436.1122	1457.3808	1475.4048	1514.1753	1586.7124	1618.2222	1653.2148	1705.6956	3028.9265	3079.0312	3141.103	3170.704	3474.4593	3614.7901
CNC1=NOC=NC1=N	CNC1=NO[CH]N=C1[NH]	
InChI=1S/C4H6N4O/c1-6-4-3(5)7-2-9-8-4/h2,5H,1H3,(H,6,8)	InChI=1S/C4H6N4O/c1-6-4-3(5)7-2-9-8-4/h2,5H,1H3,(H,6,8)
