25
gdb 118239	2.92364	0.78828	0.65626	0.9799	90.66	-0.2347	0.0883	0.323	1831.5864	0.226461	-389.479957	-389.468946	-389.468002	-389.517031	40.182	
C	-0.100412478	 1.6657808198	-0.1269934002	-0.380898
C	-0.1459792758	 0.135877525	-0.1137768169	-0.167873
C	 0.7806028439	-0.4980943165	-1.156310374	-0.171686
C	 0.7761413952	-2.0268641495	-1.1424754257	 0.135289
C	 1.6156926825	-2.6183301649	-2.2772356785	-0.403319
O	 1.2560825642	-2.4230498927	 0.1448599442	-0.26193
C	 0.978270695	-3.738469911	 0.5063653925	 0.156268
C	 2.0238895366	-4.8141407082	 0.3333099308	-0.283929
C	 1.6986523585	-4.259643206	 1.7068948806	-0.298311
H	 0.9097548929	 2.0335834689	 0.0855395079	 0.11334
H	-0.397247351	 2.0662069842	-1.1032405608	 0.109109
H	-0.7729151911	 2.0912962727	 0.6245762214	 0.109499
H	 0.1311209814	-0.2395292221	 0.8764282202	 0.114733
H	-1.1757941356	-0.2014375044	-0.2944126534	 0.086493
H	 0.4965909928	-0.1612175898	-2.1616342659	 0.088337
H	 1.8116927598	-0.1573815538	-0.9919170181	 0.098631
H	-0.26443551	-2.3800388141	-1.2493040343	 0.060973
H	 1.6014258742	-3.7106369474	-2.2554899462	 0.122949
H	 1.2253431035	-2.2937935663	-3.2473232787	 0.110955
H	 2.6557099634	-2.2855136111	-2.1955649565	 0.117647
H	-0.0662958423	-4.0243057169	 0.3729365642	 0.08015
H	 1.7050791256	-5.8207387644	 0.0837294245	 0.108627
H	 2.9682125522	-4.5118973125	-0.1042108073	 0.118581
H	 2.4278521357	-3.5938562903	 2.1544332439	 0.124112
H	 1.1553501264	-4.8793352187	 2.4111935862	 0.112253
45.7718	69.913	76.7783	115.6909	165.4053	195.7138	238.1419	246.0965	288.4699	339.3982	407.0756	431.1056	481.4276	527.3669	736.7077	758.5661	804.0059	811.85	861.8567	872.9337	897.4665	949.9005	966.6417	992.9342	1027.79	1044.2551	1057.1758	1069.365	1072.9686	1124.9087	1136.324	1163.9428	1179.4776	1194.5719	1215.3259	1241.995	1270.2748	1296.1607	1328.5604	1362.8465	1366.0792	1399.5094	1404.4383	1413.0389	1420.6094	1452.7694	1472.2782	1488.3652	1494.2542	1496.3011	1499.8076	1502.7362	1511.3332	2949.2507	3012.9097	3019.6589	3027.0096	3038.3508	3053.2274	3074.5826	3086.4755	3097.3952	3099.7898	3107.2343	3123.2652	3133.4126	3140.4302	3219.3289	3233.7065
CCCC(C)OC1CC1	CCC[C@@H](C)OC1CC1	
InChI=1S/C8H16O/c1-3-4-7(2)9-8-5-6-8/h7-8H,3-6H2,1-2H3	InChI=1S/C8H16O/c1-3-4-7(2)9-8-5-6-8/h7-8H,3-6H2,1-2H3/t7-/m1/s1
