20
gdb 87365	2.17531	1.57889	1.09172	2.9089	81.43	-0.251	0.0298	0.2808	1184.1219	0.170186	-403.146921	-403.13784	-403.136895	-403.180456	34.415	
C	-0.1984939771	 1.4924421767	-0.063319017	-0.410239
C	-0.0488150784	-0.0103491648	 0.0219067829	-0.057898
C	 1.292702029	-0.656827446	-0.191079027	-0.348732
C	 0.6542636875	-0.6842212849	 1.173629812	 0.178882
C	 1.1693832218	-0.2037637641	 2.536608533	 0.061928
C	 0.5206883926	 0.9766867756	 3.2259950532	-0.401145
O	 0.6983978162	-1.4787093025	 3.1141544547	-0.287702
C	 0.2187105354	-1.910179395	 1.8921412345	 0.397035
N	-0.3634155844	-2.9719658071	 1.5610120348	-0.568444
H	 0.6953963837	 2.0072887538	 0.3029355121	 0.11494
H	-0.3517809574	 1.800175367	-1.1031829353	 0.12524
H	-1.0538751659	 1.8490540722	 0.5194301459	 0.124538
H	-0.9017244261	-0.5762872519	-0.3444914425	 0.11411
H	 1.3492677358	-1.5997369268	-0.723801568	 0.137398
H	 2.1485485268	-0.0008939476	-0.3224326749	 0.114588
H	 2.2612048843	-0.161501472	 2.6114771215	 0.094882
H	-0.5673285017	 0.9388003073	 3.1253424724	 0.129832
H	 0.7722681157	 0.9685212867	 4.2909002327	 0.132081
H	 0.8795334066	 1.9185710216	 2.8001001753	 0.123288
H	-0.4828961145	-3.5992702082	 2.3571204495	 0.225418
100.7419	127.7666	165.8612	205.7128	229.3751	261.2916	281.4055	327.3151	384.0769	485.5917	561.6137	585.8788	672.6232	737.3625	819.8401	841.5415	850.458	866.8967	907.9104	932.1504	1003.0679	1017.5295	1058.0836	1061.7828	1077.5164	1103.6947	1135.4806	1144.143	1187.3695	1195.1663	1248.845	1301.4246	1353.0461	1382.88	1409.5944	1415.1093	1435.139	1480.0887	1483.5408	1496.2535	1497.2127	1508.615	1822.2622	3032.7931	3043.0854	3052.3253	3096.6094	3101.7307	3114.7832	3123.9092	3125.4271	3146.0474	3216.7852	3486.3678
CC1CC11C(C)OC1=N	C[C@H]1C[C@]21[C@@H](C)O[C]2[NH]	
InChI=1S/C7H11NO/c1-4-3-7(4)5(2)9-6(7)8/h4-5,8H,3H2,1-2H3	InChI=1S/C7H11NO/c1-4-3-7(4)5(2)9-6(7)8/h4-5,8H,3H2,1-2H3/t4-,5+,7-/m0/s1
