19
gdb 63674	4.33704	0.71538	0.67453	4.7704	77.78	-0.2356	0.0228	0.2584	1655.8809	0.157235	-419.186371	-419.17641	-419.175465	-419.221807	36.195	
C	 0.1135441128	 1.5470995785	-0.1580816128	-0.454492
C	-0.0068640609	 0.0494912073	 0.0225706547	 0.370058
O	-1.140331424	-0.504237768	-0.5950704887	-0.46281
C	 1.2380213142	-0.8162716488	 0.0883650887	-0.372698
C	 0.3337047165	-0.6264631572	 1.310729409	 0.01402
N	 0.7222919528	 0.1067129289	 2.4840083591	-0.312654
C	 1.7300399244	-0.5899142417	 3.2778748832	-0.255298
C	 2.1286439792	 0.2085796483	 4.4396210572	 0.252427
N	 2.4623859852	 0.8493203826	 5.3407332864	-0.297734
H	 1.0092423747	 1.9557242893	 0.3191389542	 0.114294
H	 0.1849311165	 1.7917033767	-1.2245338528	 0.117321
H	-0.7655459076	 2.056431067	 0.2482336177	 0.13989
H	-1.0226577833	-0.4268593402	-1.5489544288	 0.281275
H	 1.2130447943	-1.7766010054	-0.4147561226	 0.116652
H	 2.2010834805	-0.3141090859	 0.0830048943	 0.10801
H	-0.3048177809	-1.4760387565	 1.5387665273	 0.115698
H	 1.0427218684	 1.04005719	 2.2564192195	 0.23337
H	 1.3037935651	-1.5349123202	 3.6368865974	 0.158286
H	 2.641472262	-0.8548675547	 2.7130460968	 0.134385
53.6314	76.1618	95.9813	195.6344	230.6118	237.5791	287.7087	316.5454	381.8214	391.2877	418.4561	444.811	526.762	569.5153	698.0545	711.5788	851.7799	904.385	917.6181	947.6423	977.4994	995.6584	1016.1552	1026.2825	1070.2002	1097.808	1132.32	1199.7662	1236.9763	1271.9336	1292.633	1338.5604	1372.1277	1410.8488	1416.5108	1466.7674	1487.8775	1492.19	1496.8092	1527.0699	2368.4827	2951.122	3029.789	3049.331	3091.4562	3114.1526	3123.2652	3144.7113	3218.4205	3556.067	3787.8373
CC1(O)CC1NCC#N	C[C@@]1(O)C[C@H]1NCC#N	
InChI=1S/C6H10N2O/c1-6(9)4-5(6)8-3-2-7/h5,8-9H,3-4H2,1H3	InChI=1S/C6H10N2O/c1-6(9)4-5(6)8-3-2-7/h5,8-9H,3-4H2,1H3/t5-,6-/m1/s1
