17
gdb 126109	6.52481	0.66717	0.60984	1.8044	88.89	-0.218	0.0037	0.2217	1809.0848	0.137404	-380.874671	-380.865951	-380.865006	-380.909759	31.172	
C	-0.0268455001	 1.5633738783	 0.0208145313	-0.363343
C	 0.0205160705	 0.0253507505	-0.0345710782	-0.328639
C	 0.6968498479	-0.4806824509	-1.2227591577	 0.23182
C	 1.2613405058	-0.8704623376	-2.2150547972	-0.085793
C	 1.9170768441	-1.3745636099	-3.3667640371	 0.200267
N	 2.4340938423	-0.5590796603	-4.2986556011	-0.292557
N	 2.9585830628	-1.3916577412	-5.2112862128	-0.188807
C	 2.8002686253	-2.7034441237	-4.9054792902	-0.027354
C	 2.1249972795	-2.7385452831	-3.7086846579	-0.300895
H	 0.98272176	 1.9826875603	 0.0230363714	 0.131432
H	-0.5565375828	 1.9665904184	-0.8463050158	 0.131436
H	-0.5421090301	 1.8955469455	 0.9269930808	 0.112626
H	 0.5239228719	-0.35874062	 0.8625673704	 0.128863
H	-1.0014936612	-0.374686168	 0.0010709376	 0.128864
H	 3.4102669328	-0.9975643903	-6.0189852701	 0.277324
H	 3.1715768957	-3.485920938	-5.5479990099	 0.134851
H	 1.8187712256	-3.60646712	-3.1494440735	 0.109905
25.3194	72.1813	102.9932	187.2573	218.1871	314.3961	421.9315	480.8932	502.027	521.4115	574.2993	661.7931	731.1455	772.8403	786.9785	849.5149	881.8349	945.1034	978.4134	1047.1113	1075.5555	1091.0477	1103.5168	1120.2633	1211.3141	1283.8111	1305.7985	1347.149	1370.153	1410.051	1473.617	1474.8225	1484.9017	1494.4756	1506.1598	1559.047	2359.9302	3014.5105	3040.3128	3045.4079	3118.7676	3125.9316	3261.0689	3285.0653	3675.0086
CCC#CC1=NNC=C1	CCC#Cc1n[nH]cc1	
InChI=1S/C7H8N2/c1-2-3-4-7-5-6-8-9-7/h5-6H,2H2,1H3,(H,8,9)	InChI=1S/C7H8N2/c1-2-3-4-7-5-6-8-9-7/h5-6H,2H2,1H3,(H,8,9)
