16
gdb 11768	4.68905	1.7187	1.56475	1.7753	70.68	-0.2483	0.0215	0.2698	850.505	0.131156	-346.550211	-346.543529	-346.542585	-346.580726	26.892	
C	 0.0034986168	-1.1757121596	-0.0572172457	-0.340561
C	-0.021331473	 0.0255112949	-0.0257040785	 0.096151
C	-0.0284246192	 1.4623743885	 0.0427724458	 0.334128
C	-0.8857249362	 2.2694186521	 1.0569170022	-0.268158
C	-0.7408322596	 3.2833887893	-0.0945466181	 0.062456
C	 0.7530900366	 3.6667428685	-0.0686380143	-0.221116
C	 1.3279848128	 2.220801815	 0.0422824711	-0.266323
O	-0.7514805721	 2.1613165839	-1.0338177543	-0.327138
H	 0.0207752936	-2.2370971113	-0.0910555361	 0.188594
H	-1.8954266752	 1.8671419888	 1.1308010899	 0.121475
H	-0.4625336951	 2.497670422	 2.0382545632	 0.097686
H	-1.484048206	 4.0485824623	-0.3132729525	 0.083869
H	 1.0509310412	 4.1667285405	-0.992119946	 0.112064
H	 1.0144754772	 4.3068494569	 0.7782587367	 0.100699
H	 1.9052759489	 2.0401467357	 0.9519343301	 0.107151
H	 1.9285443694	 1.9305208325	-0.8208197033	 0.119024
152.8568	157.9656	290.713	419.8147	477.4392	513.8722	531.6814	577.3894	620.7764	682.8471	704.815	823.7781	826.8257	844.0088	877.8277	925.5834	950.7142	966.171	1002.0787	1025.835	1091.2758	1130.5674	1154.7206	1190.0483	1223.8181	1232.8765	1273.7396	1286.7611	1306.5247	1336.2464	1480.0891	1481.1765	1504.9903	2242.4077	3066.2613	3070.6629	3079.4766	3116.0116	3135.5552	3136.6136	3156.0779	3501.9351
C#CC12CC(CC1)O2	C#C[C@@]12C[C@@H](CC1)O2	
InChI=1S/C7H8O/c1-2-7-4-3-6(5-7)8-7/h1,6H,3-5H2	InChI=1S/C7H8O/c1-2-7-4-3-6(5-7)8-7/h1,6H,3-5H2/t6-,7+/m1/s1
