18
gdb 13939	3.51293	1.70971	1.42219	0.3026	67.09	-0.2507	0.0585	0.3092	930.2746	0.153302	-384.89733	-384.889508	-384.888563	-384.930052	28.471	
C	-0.282467799	 1.4810085569	-0.0495505091	-0.407097
C	 0.1576151554	 0.0319483197	-0.0867683246	 0.101864
O	 1.4194616299	-0.142495121	-0.7772670961	-0.295658
C	 1.992924476	-0.8353759078	 0.3471580537	-0.132986
C	 0.7273570922	-0.6282191845	 1.191718866	 0.213088
C	 0.7507741621	 0.0493439497	 2.5744107178	-0.133022
O	 0.0672375017	-1.0635591398	 3.1847017386	-0.273534
C	 0.0116425708	-1.7707708427	 1.9301217831	-0.134988
H	 0.4705363075	 2.1112344673	 0.4333249429	 0.121287
H	-0.4290889708	 1.8482293861	-1.0699581159	 0.131769
H	-1.2300349022	 1.5873058648	 0.4897315816	 0.120896
H	-0.6229312427	-0.5867164458	-0.5557350842	 0.07342
H	 2.2267104098	-1.8836465169	 0.1146974871	 0.100585
H	 2.9022250414	-0.3431046455	 0.7162964677	 0.103497
H	 1.7519921678	 0.2027229464	 2.9992954223	 0.101499
H	 0.1803422625	 0.9820665311	 2.6655182793	 0.105192
H	-1.021122479	-1.9644620076	 1.6095870405	 0.102168
H	 0.5572049268	-2.7234772506	 1.9666684192	 0.102019
70.272	74.2044	205.7042	229.7128	267.0856	334.1255	397.6672	493.5801	496.8782	766.7623	851.5995	876.9472	887.8861	894.9059	957.1865	986.66	1027.4844	1039.6289	1041.4665	1089.733	1115.422	1151.9128	1155.682	1160.276	1196.907	1227.4944	1249.2744	1289.2574	1308.8717	1366.7544	1384.0398	1388.6084	1405.2517	1481.6656	1493.8892	1506.2053	1519.6573	1533.3344	2980.5428	2993.8755	2998.614	3008.498	3034.6276	3038.283	3042.0713	3049.7174	3107.7477	3114.0363
CC1OCC11COC1	C[C@H]1OCC21COC2	
InChI=1S/C6H10O2/c1-5-6(4-8-5)2-7-3-6/h5H,2-4H2,1H3	InChI=1S/C6H10O2/c1-5-6(4-8-5)2-7-3-6/h5H,2-4H2,1H3/t5-/m1/s1
