21
gdb 59373	4.44348	0.81524	0.72959	5.1372	83.87	-0.246	0.0183	0.2643	1575.3479	0.182373	-383.269392	-383.259671	-383.258727	-383.304238	35.817	
C	-1.3317563287	-0.4822494176	-0.4888164049	-0.390872
C	 0.0555013778	-0.0230193468	-0.0173771421	 0.01156
C	 0.2912813689	 1.4475367811	-0.3905032004	-0.395783
C	 0.2083748041	-0.2407826154	 1.4943943402	 0.072317
C	 0.3332189052	-1.7212246504	 1.9516745397	-0.271862
C	 1.8486889446	-1.4294379069	 2.1559649251	-0.109694
N	 1.556685151	 0.0160072453	 2.0732830052	-0.322224
C	 2.4636943095	-1.8674682301	 3.4111520726	 0.289355
N	 2.9463112665	-2.2327790717	 4.3957617138	-0.324292
H	-2.1205465275	 0.1040303555	-0.0029467574	 0.119757
H	-1.440169776	-0.3502343218	-1.5697450731	 0.11807
H	-1.5143436489	-1.5373481852	-0.262847631	 0.116359
H	 0.8148511883	-0.635565493	-0.5268775398	 0.069035
H	-0.4473626416	 2.0949830411	 0.0961168435	 0.122152
H	 1.2852726937	 1.7992000997	-0.0949901339	 0.110198
H	 0.2024718853	 1.5939216881	-1.4714828246	 0.119088
H	-0.5704481594	 0.3344189704	 2.011693991	 0.079617
H	-0.1849421781	-1.9394835792	 2.8851352291	 0.133533
H	 0.0994264051	-2.4899110129	 1.2148821109	 0.118422
H	 2.4547842149	-1.8257503333	 1.3303491652	 0.112106
H	 2.1991739252	 0.5545688732	 1.5026930909	 0.223158
58.9	93.7251	123.785	205.277	220.7753	231.6961	241.9478	325.9236	354.0756	432.9131	439.5676	544.3969	567.9646	638.3909	775.8311	784.1666	896.5511	926.6455	928.7458	961.0309	974.5521	999.6285	1005.6911	1048.9072	1095.253	1114.6011	1138.7384	1182.8739	1199.1926	1246.3429	1259.9344	1300.8527	1312.4803	1346.0366	1349.1284	1380.0067	1401.8131	1420.0492	1426.6177	1483.6403	1487.7485	1492.5685	1507.4004	1508.9737	2356.1987	2987.6038	3010.9335	3017.5593	3027.9651	3032.5671	3092.9552	3094.7586	3097.4987	3102.6904	3106.0644	3154.2392	3536.2483
CC(C)C1CC(N1)C#N	CC(C)[C@H]1C[C@@H](N1)C#N	
InChI=1S/C7H12N2/c1-5(2)7-3-6(4-8)9-7/h5-7,9H,3H2,1-2H3	InChI=1S/C7H12N2/c1-5(2)7-3-6(4-8)9-7/h5-7,9H,3H2,1-2H3/t6-,7-/m1/s1
