15
gdb 19992	3.59688	1.69245	1.33396	5.5222	65.63	-0.2823	0.0305	0.3128	916.8836	0.118999	-362.637192	-362.629822	-362.628878	-362.669337	26.714	
N	 0.1014090271	-1.1629264544	 0.3421596965	-0.341232
C	 0.0889478661	-0.010255888	 0.246203658	 0.303339
C	 0.0380197695	 1.417750143	 0.0983922877	-0.182703
C	 0.6605770078	 2.3261676705	 1.1475124221	-0.293956
C	 1.3008353858	 2.2209486034	-0.2010915373	-0.037775
C	 2.6247182729	 1.535694857	-0.3529821696	 0.051613
C	 3.8096769515	 1.9996186964	 0.382553187	-0.171896
O	 3.1146302564	 0.8137746545	 0.7736901289	-0.214714
H	-0.8744765951	 1.7691753309	-0.3717347881	 0.134857
H	 0.1129627257	 3.2240309998	 1.4073582229	 0.128735
H	 1.1759812987	 1.8328481506	 1.9626286444	 0.160892
H	 1.1492390973	 3.0417594905	-0.8968196356	 0.11009
H	 2.7804458287	 1.0291530113	-1.3059851851	 0.110126
H	 4.8019580982	 1.8413366916	-0.0355946312	 0.124393
H	 3.7150989393	 2.841267183	 1.0668469293	 0.11823
73.3969	106.7731	190.7982	252.1237	268.3015	412.5339	529.0758	568.862	646.1218	744.3768	776.6331	846.2772	858.1899	907.524	957.5291	981.032	1041.7649	1088.4109	1092.6184	1110.02	1130.3178	1150.3654	1162.8038	1170.4038	1219.2632	1289.4766	1372.5394	1398.6739	1433.0104	1479.5585	1524.8404	2356.4209	3089.5724	3108.9591	3148.256	3151.6419	3168.3575	3180.1189	3247.7091
N#CC1CC1C1CO1	N#C[C@H]1C[C@H]1[C@H]1CO1	
InChI=1S/C6H7NO/c7-2-4-1-5(4)6-3-8-6/h4-6H,1,3H2	InChI=1S/C6H7NO/c7-2-4-1-5(4)6-3-8-6/h4-6H,1,3H2/t4-,5-,6-/m1/s1
