14
gdb 56942	3.91909	1.02653	0.88999	1.8234	67.53	-0.2821	-0.019	0.2631	1230.6687	0.100464	-432.846834	-432.838122	-432.837178	-432.880815	30.622	
N	-0.2943466983	 1.3519861773	-0.0263774387	-0.486611
C	-0.0275183645	-0.0700293585	-0.1048809995	-0.171629
C	 0.8819585434	-0.4586590312	-1.2120154926	 0.25232
N	 1.5868005916	-0.7236151094	-2.0889839193	-0.306067
C	 0.5535987725	-0.5834965527	 1.212127226	 0.084353
O	 1.342852352	 0.3278340721	 1.9616358667	-0.222474
C	 0.1099189804	-0.1184849003	 2.541207747	-0.10767
C	-0.9430695807	 0.8454223062	 2.7769232253	 0.322508
N	-1.8042733297	 1.5488267666	 3.0911195265	-0.322565
H	 0.5670002732	 1.8694757147	 0.1104445935	 0.260568
H	-0.7479653039	 1.6881835083	-0.8674834794	 0.256776
H	-0.9767357822	-0.5954890746	-0.2720880247	 0.155357
H	 0.9522637427	-1.5966391396	 1.1590108395	 0.133799
H	 0.2368597935	-0.809622989	 3.3737124699	 0.151335
49.9394	113.2178	160.8338	204.3034	246.361	256.7739	283.5826	364.3204	429.0778	552.3395	569.8304	596.619	689.9322	796.6307	814.0576	852.3249	932.4642	978.0515	991.3889	1091.7736	1128.3466	1163.0357	1207.0767	1290.5825	1313.0771	1383.0607	1394.5139	1456.7283	1650.7495	2348.0124	2363.6454	3038.6109	3117.2052	3128.4076	3526.292	3615.5816
NC(C#N)C1OC1C#N	N[C@@H](C#N)[C@H]1O[C@H]1C#N	
InChI=1S/C5H5N3O/c6-1-3(8)5-4(2-7)9-5/h3-5H,8H2	InChI=1S/C5H5N3O/c6-1-3(8)5-4(2-7)9-5/h3-5H,8H2/t3-,4-,5+/m0/s1
