17
gdb 66675	4.37421	1.19146	1.16333	3.4732	78.68	-0.2306	-0.0227	0.2079	1106.3486	0.133967	-384.59721	-384.58934	-384.588395	-384.629586	29.979	
C	-0.0465066182	 1.5155892917	-0.0655328571	-0.523565
C	-0.0072768798	 0.025319912	 0.0014767622	 0.354571
C	-0.0367469721	-1.0208049057	-1.1060605297	-0.1473
C	 0.8232312948	-1.9715166629	-0.2243105481	-0.117986
C	 0.8573589401	-0.9518807253	 0.8668597879	-0.187392
C	-0.3059832899	-1.9716592384	 0.8344067232	 0.292221
C	-0.5771042232	-3.0119038079	 1.8173343098	 0.00269
O	 0.2856484351	-3.6464137392	 2.3877073129	-0.283961
C	-1.1340420928	-1.0007876992	-0.0463104383	-0.244357
H	 0.9291775291	 1.9307109032	-0.3433982505	 0.126683
H	-0.7744241427	 1.8459903025	-0.8145275072	 0.125932
H	-0.3367751492	 1.9537292773	 0.8963935724	 0.126834
H	-0.1077773909	-0.8907348283	-2.177381258	 0.095133
H	 1.4916173054	-2.7951089835	-0.4344866479	 0.112681
H	 1.5565764377	-0.8179184945	 1.6814240164	 0.110294
H	-1.6566780658	-3.1966617371	 2.0201449089	 0.065518
H	-2.2000148975	-0.8493906347	-0.157628007	 0.092003
101.3045	149.7784	162.515	217.3413	262.0297	291.2328	441.253	588.9969	647.1475	696.7913	728.1749	783.659	826.8268	830.5487	849.0176	870.9557	896.963	899.4458	953.6166	968.2702	989.1882	1049.7089	1056.9537	1097.6253	1102.7126	1129.6958	1149.1353	1221.2917	1261.056	1272.2318	1372.9099	1408.2221	1436.8399	1440.7212	1480.6168	1498.6747	1777.2423	2866.4802	3021.7531	3082.1949	3094.1375	3194.6496	3204.1706	3210.8309	3219.7908
CC12C3C4C1C4(C=O)C23	C[C@@]12[C@H]3[C@H]4[C@@H]1[C@@]4(C=O)[C@@H]23	
InChI=1S/C8H8O/c1-7-3-4-6(7)8(4,2-9)5(3)7/h2-6H,1H3	InChI=1S/C8H8O/c1-7-3-4-6(7)8(4,2-9)5(3)7/h2-6H,1H3/t3-,4-,5+,6-,7-,8+/m0/s1
