16
gdb 98646	4.65384	0.89755	0.83874	4.4515	66.65	-0.2559	-0.0047	0.2512	1364.6319	0.12313	-475.072597	-475.063524	-475.062579	-475.108031	31.208	
C	-0.0882465811	 1.3853585644	 0.0353449564	-0.241965
O	 0.0253313139	-0.0439862656	-0.0385235163	-0.232025
C	 0.6275233613	-0.519702165	-1.1415989916	 0.439008
O	 1.0702114697	 0.162942452	-2.0293306394	-0.357561
C	 0.6684308481	-2.0360746486	-1.1036968652	-0.091404
C	-0.6411635391	-2.7504594432	-1.575690587	-0.39076
C	 0.2101682621	-3.227186775	-2.7798721152	 0.431347
O	 0.0092178595	-3.8418886231	-3.7880561639	-0.340396
N	 1.3438815831	-2.6477283402	-2.2422208864	-0.307711
H	 0.9007588767	 1.8495013317	 0.0171635706	 0.145572
H	-0.6727594568	 1.767796513	-0.8049221502	 0.145964
H	-0.5921166198	 1.5937401616	 0.9787266243	 0.139265
H	 1.035013687	-2.3651909412	-0.1267327081	 0.113888
H	-1.0059282102	-3.5402238499	-0.9182570236	 0.141638
H	-1.4627229929	-2.087110224	-1.8500555589	 0.144037
H	 2.1922515485	-2.350658397	-2.7031534053	 0.261102
30.6247	67.2868	110.2144	128.4014	199.0447	281.5896	325.5018	383.5945	404.4265	490.3502	564.1576	653.4398	755.06	762.5634	835.411	928.3922	988.5321	998.3792	1020.7543	1078.7507	1108.4073	1171.2359	1178.2212	1191.1721	1208.731	1237.358	1271.6525	1359.8054	1392.5374	1458.8916	1474.0821	1482.2313	1496.2497	1826.8854	1908.4097	3055.0627	3065.4794	3094.4057	3131.2076	3154.9702	3164.7058	3609.4434
COC(=O)C1CC(=O)N1	COC(=O)[C@H]1CC(=O)N1	
InChI=1S/C5H7NO3/c1-9-5(8)3-2-4(7)6-3/h3H,2H2,1H3,(H,6,7)	InChI=1S/C5H7NO3/c1-9-5(8)3-2-4(7)6-3/h3H,2H2,1H3,(H,6,7)/t3-/m1/s1
