20
gdb 14050	4.17888	1.61593	1.51251	1.5243	73.99	-0.2357	0.0778	0.3135	942.3588	0.178888	-349.008301	-349.000703	-348.999758	-349.041033	28.787	
C	-0.0153916794	 1.2394452671	-0.3594231488	-0.066794
C	 1.4022390376	 1.546359161	 0.1561755795	-0.365374
C	 1.3298142671	 0.1461342879	 0.8034239371	 0.470204
C	 2.2163518461	-0.9741514305	 0.2543043148	-0.250435
C	 1.9125309427	-2.1401409546	 1.2051249158	-0.20316
C	 1.8709744657	-1.4704389181	 2.5990918018	-0.202962
C	 1.4380559563	-0.0004812778	 2.3324916379	-0.259557
O	-0.0503803674	-0.0164492151	 0.3433094607	-0.32515
H	-0.8098794564	 1.9179872042	-0.0262205109	 0.099737
H	-0.1008167814	 1.1061174202	-1.4457326446	 0.09734
H	 2.1755476825	 1.6726013226	-0.6043698304	 0.105492
H	 1.4618534769	 2.3716686926	 0.8688218987	 0.106496
H	 2.0045829556	-1.1848795336	-0.7973719447	 0.096875
H	 3.2699782189	-0.6737752769	 0.3379741922	 0.09069
H	 0.9290781739	-2.5525207475	 0.9557675423	 0.115674
H	 2.6392708107	-2.9545416538	 1.1437478443	 0.089148
H	 1.1938998293	-1.9869124975	 3.2839526673	 0.099697
H	 2.8643962958	-1.4948189346	 3.059099596	 0.09627
H	 2.1777525796	 0.7067401508	 2.7225934097	 0.096545
H	 0.4761708657	 0.2497343336	 2.786678661	 0.109266
46.0636	69.9248	176.1206	256.3175	371.1527	422.2843	463.1255	582.063	737.855	760.1152	783.832	841.7048	862.2941	878.0165	904.0875	916.4565	972.6924	977.6053	999.094	1018.0385	1030.7033	1047.3089	1140.041	1161.2259	1192.8912	1208.9381	1218.5827	1222.7692	1255.7876	1266.1129	1278.8494	1296.737	1333.2618	1340.3871	1353.5278	1367.5001	1469.2753	1475.3405	1487.6861	1489.3864	1509.6256	1531.7061	3009.6699	3018.4321	3041.1599	3048.6069	3049.4811	3054.1079	3069.7263	3086.5577	3094.2444	3100.064	3110.818	3123.4034
C1CC2(CCCC2)O1	C1CC2(CCCC2)O1	
InChI=1S/C7H12O/c1-2-4-7(3-1)5-6-8-7/h1-6H2	InChI=1S/C7H12O/c1-2-4-7(3-1)5-6-8-7/h1-6H2
