21
gdb 91543	2.94105	1.26629	1.05182	1.8028	82.22	-0.2235	0.0854	0.3089	1227.5313	0.182092	-387.037246	-387.028589	-387.027645	-387.070857	33.628	
C	-0.156168237	 1.4490121765	-0.330351216	-0.408785
C	 0.1191868453	-0.0196729059	-0.0853619217	 0.106468
O	 1.3038913223	-0.5230802151	-0.7754504558	-0.311529
C	 1.7813391945	-1.0952886049	 0.4415424678	 0.05259
C	 2.0728837249	-0.02879161	 1.4509641712	-0.364855
C	 0.6481446712	-0.5247622002	 1.2691430093	 0.273762
C	-0.229701146	-1.0846941959	 2.3281508486	-0.121648
C	 0.2288974099	-1.3027828803	 3.7492211109	-0.276453
C	-0.7540672612	-0.2041280246	 3.4458561718	-0.256952
H	 0.6715921502	 2.0776006412	 0.0082575684	 0.119899
H	-0.3085186259	 1.6323774082	-1.3988580606	 0.127598
H	-1.0655718654	 1.7522089315	 0.1995627636	 0.119508
H	-0.7461804804	-0.6227224188	-0.3944423391	 0.075733
H	 2.2440213188	-2.0748012984	 0.4016981106	 0.102186
H	 2.5579437228	-0.3729350582	 2.358842137	 0.113919
H	 2.3817188509	 0.9568264244	 1.1141012616	 0.111433
H	-0.9378326397	-1.8228841156	 1.9574128153	 0.083683
H	-0.1283368218	-2.1896615318	 4.2606300642	 0.113696
H	 1.2382446121	-1.0142858232	 4.0190463271	 0.113572
H	-0.3893514024	 0.8164405225	 3.4868698051	 0.115011
H	-1.7854052431	-0.3261624915	 3.7573892708	 0.111164
46.2472	125.4305	198.156	219.2899	235.7608	289.0886	348.807	427.3191	483.894	525.7793	636.1023	712.2092	784.7629	814.561	846.6568	862.5198	871.13	916.0883	919.6222	946.116	997.9843	1013.759	1046.8368	1059.8853	1078.6949	1083.8605	1086.6465	1096.2525	1127.9629	1139.3887	1161.7565	1194.053	1201.6621	1222.6254	1273.2728	1276.438	1375.0587	1387.0765	1407.3328	1437.2118	1465.2577	1484.3547	1487.6453	1495.7765	1507.2673	3002.9591	3037.8995	3105.6093	3116.6736	3121.2122	3122.1223	3134.317	3140.665	3178.3861	3208.6214	3214.1544	3228.9242
CC1OC2CC12C1CC1	C[C@H]1O[C@H]2C[C@@]12C1CC1	
InChI=1S/C8H12O/c1-5-8(6-2-3-6)4-7(8)9-5/h5-7H,2-4H2,1H3	InChI=1S/C8H12O/c1-5-8(6-2-3-6)4-7(8)9-5/h5-7H,2-4H2,1H3/t5-,7+,8+/m1/s1
