20
gdb 86897	3.27386	1.08116	0.91466	3.5032	76.57	-0.243	0.0211	0.2641	1312.3491	0.171172	-440.322419	-440.313046	-440.312101	-440.357072	34.167	
C	-0.142360152	 1.5392457006	 0.0190182973	-0.407366
C	 0.1317252295	 0.0399156557	-0.00605928	-0.001764
C	 1.0636081532	-0.4247702666	-1.1422153923	-0.197081
N	 1.621935514	-1.6806183078	-0.6323263342	-0.052154
C	 1.3190383076	-1.8978159935	 0.7868316176	-0.198798
C	 0.8374612686	-0.5197019113	 1.2542314129	 0.106436
O	 1.9066248048	 0.3052297063	 1.6983936143	-0.434019
C	 2.2889743324	-2.5979346403	-1.3742130077	 0.137025
O	 2.7184408214	-3.6511727932	-0.9472390256	-0.338173
H	 0.7787085932	 2.0950189543	 0.2121609762	 0.129146
H	-0.5642498599	 1.8808659525	-0.9316415201	 0.11457
H	-0.854744586	 1.7920100315	 0.8103327075	 0.121595
H	-0.8155640415	-0.5058855601	-0.1058873055	 0.086611
H	 0.5309700753	-0.5771008402	-2.0858418446	 0.121453
H	 1.8517924462	 0.3204084618	-1.3256232469	 0.105582
H	 0.5431462232	-2.6644559633	 0.9066028716	 0.119742
H	 2.2050346262	-2.2367667434	 1.3293765752	 0.135913
H	 0.1543285935	-0.5897772601	 2.104359654	 0.093665
H	 2.6488679972	 0.1992158128	 1.0935586307	 0.288944
H	 2.4060652032	-2.2785666758	-2.4299053203	 0.068671
38.1633	123.059	175.1057	195.8489	213.8358	254.3857	271.8503	318.3109	324.4049	411.526	459.9213	560.896	673.4901	758.7367	823.4671	851.8524	903.0326	930.1658	953.4731	1007.0703	1033.0372	1037.2376	1103.7672	1132.3578	1159.8119	1196.3764	1203.5514	1216.6998	1273.9681	1301.6001	1314.995	1337.0408	1362.1577	1383.0453	1404.4481	1415.5459	1431.0969	1444.367	1494.1846	1501.0085	1511.4477	1529.1004	1790.041	2925.0145	2990.3703	3023.9396	3028.8287	3041.931	3071.8153	3088.7823	3099.6074	3105.6808	3125.4748	3809.0315
CC1CN(CC1O)C=O	C[C@H]1CN(C[C@H]1O)C=O	
InChI=1S/C6H11NO2/c1-5-2-7(4-8)3-6(5)9/h4-6,9H,2-3H2,1H3	InChI=1S/C6H11NO2/c1-5-2-7(4-8)3-6(5)9/h4-6,9H,2-3H2,1H3/t5-,6+/m0/s1
