14
gdb 125780	7.26333	0.87785	0.78702	1.7001	68.59	-0.2728	-0.0322	0.2406	1383.9779	0.100193	-470.006943	-469.998637	-469.997693	-470.04175	28.312	
C	-0.002570753	 1.4560178856	 0.0352072927	-0.486407
C	 0.0166697406	-0.0314355412	-0.0064380218	 0.375238
N	-0.02817784	-0.6913359239	-1.1349405711	-0.177338
O	 0.0117046559	-2.0500822403	-0.7112028555	-0.22569
C	 0.0750045471	-2.0005932241	 0.620516909	 0.545171
O	 0.1251337983	-3.125043077	 1.3266008837	-0.212562
C	 0.1109880487	-4.3487650967	 0.6828900146	 0.108814
N	 0.1608639057	-5.3727046273	 1.402917892	-0.404426
N	 0.0824739644	-0.8115764139	 1.1297719254	-0.39343
H	 0.8995711243	 1.8294631964	 0.5285152305	 0.154923
H	-0.0580480208	 1.8631524378	-0.9752074473	 0.152474
H	-0.862242288	 1.8042289515	 0.6151759579	 0.15492
H	 0.0566248194	-4.2699926679	-0.4024811897	 0.157722
H	 0.1443863975	-6.211020219	 0.8249592294	 0.250591
19.7579	73.3388	145.0479	166.1917	216.8768	317.748	368.8537	458.3043	522.5838	672.7441	692.8384	762.0061	815.5944	837.1633	893.2954	990.6283	997.1429	1044.3111	1048.2178	1070.5448	1111.4775	1250.5141	1347.0948	1383.1004	1413.7071	1435.4955	1471.194	1473.7325	1584.4551	1643.422	1762.3779	3053.9847	3116.0902	3143.031	3153.3494	3523.4228
CC1=NOC(OC=N)=N1	Cc1noc(O[CH][NH])n1	
InChI=1S/C4H5N3O2/c1-3-6-4(8-2-5)9-7-3/h2,5H,1H3	InChI=1S/C4H5N3O2/c1-3-6-4(8-2-5)9-7-3/h2,5H,1H3
