17
gdb 124905	3.55216	1.33169	1.20616	1.5408	75.18	-0.2432	0.0198	0.263	1069.5717	0.137099	-417.992181	-417.984312	-417.983368	-418.024528	30.134	
C	-0.1271319956	 1.6053574114	 0.0221329112	-0.417464
C	-0.0260322175	 0.0899406955	 0.0384286683	 0.231068
O	-1.3123223369	-0.4102642618	 0.3053130284	-0.455021
C	 0.7149532867	-0.5546175585	-1.2334334007	-0.222766
N	 1.6981369697	-1.0373734843	-0.2584254827	 0.085385
N	 2.874161388	-1.6430583051	-0.0798761543	-0.302539
C	 3.0412091237	-1.5121581318	 1.2502090049	 0.015891
C	 1.9879065311	-0.8097115041	 1.8958955905	-0.414732
C	 1.1348413671	-0.5197897508	 0.843939266	 0.315739
H	 0.8349834142	 2.0599047488	-0.2251876073	 0.127923
H	-0.8717451524	 1.9197858096	-0.7152172237	 0.131342
H	-0.4447900822	 1.9659450063	 1.0039256338	 0.135706
H	-1.2363397218	-1.3470194629	 0.517647321	 0.287664
H	 0.149761658	-1.3445284291	-1.7348958306	 0.126534
H	 1.1190243319	 0.1505520795	-1.9646414286	 0.132381
H	 3.9231623392	-1.9345621641	 1.7104821393	 0.112975
H	 1.8989006067	-0.5753234784	 2.9431645643	 0.109914
88.3418	133.2849	225.8116	282.7181	290.934	361.5877	371.3726	450.1643	538.1911	624.6665	653.5121	712.1751	760.5153	788.2599	840.9936	878.7057	918.8917	952.6762	975.9939	1022.0252	1064.8302	1119.9346	1132.0676	1135.0895	1189.0684	1218.8035	1260.573	1298.0179	1350.1095	1376.5027	1409.1166	1428.1308	1474.4563	1481.958	1494.7046	1514.3054	1554.3305	3048.1982	3056.9384	3117.8117	3122.6205	3133.9819	3240.7156	3279.3474	3807.0643
CC1(O)CN2N=CC=C12	C[C@@]1(O)Cn2nccc12	
InChI=1S/C6H8N2O/c1-6(9)4-8-5(6)2-3-7-8/h2-3,9H,4H2,1H3	InChI=1S/C6H8N2O/c1-6(9)4-8-5(6)2-3-7-8/h2-3,9H,4H2,1H3/t6-/m1/s1
