17
gdb 8351	4.52128	1.57437	1.43931	3.4471	69.61	-0.2502	0.0264	0.2766	908.9802	0.143538	-363.839932	-363.832788	-363.831844	-363.871797	27.122	
O	-0.1581635661	-0.0023828267	 0.0027513708	-0.320711
C	-0.0056703221	 1.2001241254	 0.0080668819	 0.128695
N	 1.200380432	 1.8317212859	 0.0003720529	-0.432843
C	 2.4467079091	 1.1320934368	-0.0156810168	 0.446027
C	 2.9763533417	 0.1518015432	-1.1065510744	-0.245053
C	 4.0997895741	 0.2649651421	-0.0363113983	-0.038934
C	 3.8418210562	 1.8032179613	-0.0224039307	-0.286065
C	 2.9945724101	 0.135426522	 1.0509471808	-0.244875
H	-0.8492299482	 1.9201028591	 0.0200150428	 0.072362
H	 1.2141069405	 2.8395208047	 0.0049914314	 0.247273
H	 2.4555552729	-0.8032590039	-1.1832896046	 0.116678
H	 3.1876003007	 0.5867322998	-2.0874735127	 0.087256
H	 5.0683349045	-0.2297932432	-0.0482752667	 0.081192
H	 4.1163924178	 2.354968748	-0.9264147689	 0.092453
H	 4.131717745	 2.3411531457	 0.8851347385	 0.092502
H	 3.2224639458	 0.5554453191	 2.0346370489	 0.087286
H	 2.4749516162	-0.8206969393	 1.1219589152	 0.116757
50.5029	148.3875	192.6184	330.9644	359.9665	499.3951	548.6341	562.045	584.359	766.4965	788.4459	855.153	898.5902	949.8887	958.7416	965.1366	982.0224	989.933	1032.0549	1101.6385	1105.0787	1131.7966	1139.0646	1152.3256	1167.8205	1184.5266	1225.5403	1228.7656	1247.2781	1309.7084	1432.4074	1498.6219	1499.2611	1504.2832	1559.1791	1804.5531	2926.1573	3042.368	3058.2609	3063.4991	3108.6147	3139.1514	3140.6039	3143.8583	3628.057
O=CNC12CC(C1)C2	O=CN[C@@]12C[C@@H](C1)C2	
InChI=1S/C6H9NO/c8-4-7-6-1-5(2-6)3-6/h4-5H,1-3H2,(H,7,8)	InChI=1S/C6H9NO/c8-4-7-6-1-5(2-6)3-6/h4-5H,1-3H2,(H,7,8)/t5-,6-
