19
gdb 66290	2.06399	1.53366	1.30491	2.6729	75.71	-0.2448	-0.0438	0.2009	1101.4795	0.157988	-423.077056	-423.068008	-423.067064	-423.111212	33.251	
C	 0.0761193734	 1.6951004925	 0.2359180309	-0.443103
C	 0.0142342065	 0.1628982771	 0.0573283592	 0.083076
C	 0.6656387217	-0.3619843326	-1.2338852078	-0.266445
C	 2.0880017401	-0.8146720775	-0.8317454456	-0.226516
C	 1.9187727527	-1.3690246549	 0.5892234943	-0.315085
C	 0.833537891	-0.4942473993	 1.2064346203	 0.380235
O	 0.6282833516	-0.3061612547	 2.377353125	-0.324726
C	-1.4360077257	-0.2767798536	 0.2328654355	 0.133885
O	-2.0453646059	-0.9699849667	-0.5388957609	-0.250241
H	 1.1042485911	 2.0539719942	 0.1297356454	 0.128954
H	-0.5382800025	 2.1975776745	-0.5174295516	 0.129725
H	-0.2778258732	 1.9777466441	 1.2310573573	 0.145062
H	 0.0806082464	-1.2103998537	-1.6018464571	 0.129575
H	 0.6758518892	 0.3895989608	-2.0273123736	 0.1052
H	 2.5030499263	-1.5458565985	-1.5289389893	 0.110662
H	 2.7721350177	 0.0415459245	-0.8156501987	 0.108471
H	 1.5289987164	-2.396499732	 0.56170807	 0.13879
H	 2.816933231	-1.3770912432	 1.2099913838	 0.130653
H	-1.9016994077	 0.098587079	 1.1692125429	 0.101827
52.5264	89.6621	183.0706	196.3268	217.6107	258.1695	288.8452	340.7081	463.443	505.9097	546.706	606.7086	651.8284	730.4341	815.9894	839.9443	880.8843	929.2207	942.9083	983.0165	1016.9478	1030.5886	1067.7707	1090.953	1159.6656	1206.0165	1208.9198	1234.3799	1273.4252	1301.4209	1337.6214	1344.4855	1393.7339	1420.8367	1451.2321	1489.8563	1495.5276	1500.3942	1510.4611	1813.1491	1843.0935	2908.2364	3023.757	3037.6234	3044.5803	3061.0835	3099.6277	3109.0675	3109.7086	3116.6882	3123.7813
CC1(CCCC1=O)C=O	C[C@]1(CCCC1=O)C=O	
InChI=1S/C7H10O2/c1-7(5-8)4-2-3-6(7)9/h5H,2-4H2,1H3	InChI=1S/C7H10O2/c1-7(5-8)4-2-3-6(7)9/h5H,2-4H2,1H3/t7-/m0/s1
