27
gdb 122211	2.44551	0.79266	0.6773	0.1287	96.57	-0.2606	0.0807	0.3413	1860.5875	0.250887	-353.560816	-353.549569	-353.548625	-353.597899	41.711	
C	 1.4283392313	-2.1935423847	 2.6418439209	-0.380738
C	 0.7799984282	-2.1148086741	 1.2571436909	-0.16147
C	-0.709492127	-2.4762490807	 1.2664535176	-0.160339
C	-1.3640170586	-2.3744952296	-0.118348961	-0.276836
C	-2.818684084	-2.8268167639	-0.1672767062	 0.405758
C	-3.8151805998	-2.0430577111	 0.6791502318	-0.252341
C	-3.9542476636	-0.5677593507	 0.2833485378	-0.38095
C	-3.3260931562	-3.3707791152	-1.4829039723	-0.315357
C	-3.0678558637	-4.3087888003	-0.3264020699	-0.311971
H	 2.4909936361	-1.933848356	 2.6027148677	 0.109644
H	 0.9437851077	-1.5069737565	 3.3451711297	 0.112427
H	 1.3477998635	-3.2031394946	 3.0603655854	 0.112753
H	 0.9048787845	-1.1016728309	 0.8516486503	 0.092805
H	 1.3099870522	-2.7830578785	 0.5652112502	 0.092359
H	-0.8347420382	-3.4972871444	 1.6521937204	 0.093841
H	-1.2302416586	-1.8194494108	 1.9755741557	 0.09396
H	-1.2839090607	-1.3408190117	-0.4814587062	 0.093554
H	-0.7874153739	-2.9835126858	-0.8270003829	 0.08663
H	-4.7955195066	-2.5281827772	 0.595766882	 0.089167
H	-3.537472508	-2.112450421	 1.7386974635	 0.096363
H	-4.7263558854	-0.0741773448	 0.8819221745	 0.109113
H	-3.0209407123	-0.0160895257	 0.4344468293	 0.11648
H	-4.2311358644	-0.4676879337	-0.7715556159	 0.116483
H	-4.3577109229	-3.1715062657	-1.7554203631	 0.104829
H	-2.6451134061	-3.400344863	-2.3272733613	 0.104684
H	-2.208597581	-4.9688785132	-0.3900790337	 0.104572
H	-3.9233735624	-4.746126926	 0.1780537947	 0.104579
42.8476	73.6101	98.0583	122.0516	146.4763	221.58	235.1681	249.5456	298.1867	302.4733	350.7788	402.6288	440.1018	520.5533	707.8438	734.9885	772.9743	793.0322	798.1344	887.3113	898.8613	915.3979	932.7363	938.2086	973.2127	1017.2154	1029.3239	1048.0373	1065.8697	1069.6468	1076.7874	1109.1157	1127.2675	1142.5996	1187.5991	1238.2349	1270.3819	1279.1375	1300.9224	1328.1463	1339.8532	1344.0786	1369.0858	1391.9304	1406.0304	1407.2723	1415.0655	1467.4327	1479.6496	1484.8819	1487.7547	1497.4415	1500.5652	1501.9511	1505.5006	1509.4219	1514.2039	3006.2047	3008.0372	3017.5223	3020.5921	3028.383	3029.1169	3034.5005	3039.7998	3050.4783	3062.8345	3094.3387	3099.7907	3102.2085	3104.4426	3121.7001	3126.3786	3198.2749	3212.824
CCCCC1(CC)CC1	CCCCC1(CC)CC1	
InChI=1S/C9H18/c1-3-5-6-9(4-2)7-8-9/h3-8H2,1-2H3	InChI=1S/C9H18/c1-3-5-6-9(4-2)7-8-9/h3-8H2,1-2H3
