21
gdb 22993	2.64386	1.1161	0.82463	1.0319	83.46	-0.2295	0.003	0.2325	1425.8243	0.180979	-420.346838	-420.336854	-420.33591	-420.381748	36.971	
C	 0.1491186557	 1.4834758311	 0.092903077	-0.398232
C	-0.0756071102	-0.0306804888	 0.010454709	 0.054143
C	-1.5641991131	-0.3957598122	 0.0651902411	-0.402246
C	 0.5738725718	-0.5912204747	-1.258873492	-0.064383
N	 2.0623409903	-0.4159184225	-1.3369811806	-0.331025
C	 2.2745363935	-1.8594925253	-1.6512418673	-0.260616
C	 0.8083829247	-2.0872829732	-1.3660355893	 0.404398
N	 0.0337618236	-3.0746914586	-1.2160586656	-0.237533
O	 0.728028161	-4.2883245399	-1.3839848913	-0.39127
H	 1.2164669508	 1.7196160197	 0.0538654499	 0.125119
H	-0.3489807707	 2.0013774182	-0.7364918358	 0.103911
H	-0.2563947527	 1.8882302181	 1.0256884595	 0.110884
H	 0.4352132588	-0.5000565436	 0.8611305715	 0.075091
H	-2.1112475045	 0.0635757972	-0.7673889877	 0.106219
H	-1.7092794573	-1.4779241555	 0.005928982	 0.139726
H	-2.0170434407	-0.0365671818	 0.9950113675	 0.108288
H	 0.0426062593	-0.1992212656	-2.1414790396	 0.079161
H	 2.3589172128	 0.206044395	-2.0798594705	 0.221181
H	 2.5500988893	-2.0859330874	-2.6901984912	 0.118184
H	 2.9846059732	-2.365417702	-0.9881166138	 0.131448
H	 0.0342987946	-4.9410337383	-1.2402701927	 0.307552
65.9608	108.816	118.6346	202.0769	227.9167	236.5041	260.6735	306.7255	342.6374	374.227	400.0004	465.5234	489.8982	599.5646	694.9553	779.5041	833.3563	902.0678	931.8346	945.8895	968.9184	972.0131	999.9259	1027.0598	1033.6261	1105.1047	1139.2667	1159.9885	1185.547	1203.8817	1240.6858	1288.7194	1317.0733	1346.2813	1371.4652	1383.1103	1396.1862	1409.4152	1418.7336	1490.2438	1491.4264	1495.0776	1503.4256	1516.3245	1799.6512	2968.3581	3012.8983	3020.8472	3023.2613	3030.3873	3063.8616	3087.4629	3093.6831	3111.8749	3118.2501	3542.1735	3817.4943
CC(C)C1NCC1=NO	CC(C)[C@H]1NCC1=NO	
InChI=1S/C6H12N2O/c1-4(2)6-5(8-9)3-7-6/h4,6-7,9H,3H2,1-2H3	InChI=1S/C6H12N2O/c1-4(2)6-5(8-9)3-7-6/h4,6-7,9H,3H2,1-2H3/t6-/m1/s1
