22
gdb 13278	6.31991	0.78916	0.74371	1.5844	79.35	-0.2404	0.0889	0.3293	1606.7569	0.199924	-350.197065	-350.187723	-350.186778	-350.232157	33.157	
C	 0.119785769	 1.5402619934	-0.0926305765	-0.379166
C	 0.0583977135	 0.0121205739	-0.0206149475	-0.165765
C	 0.6952283819	-0.5549558477	 1.252242545	-0.157194
C	 0.6357857428	-2.0842435936	 1.3349524921	-0.203597
C	 1.3177227828	-2.6312675419	 2.5757803737	 0.163633
C	 1.5818148234	-4.1518195785	 2.6649911056	-0.300487
C	 3.0605119217	-3.7415268081	 2.8067395774	-0.056376
O	 2.742673418	-2.3512280395	 2.5962493159	-0.293357
H	 1.1559220714	 1.895424587	-0.0665021108	 0.115465
H	-0.3385784482	 1.9170866176	-1.0124612834	 0.109047
H	-0.405921064	 1.9978439139	 0.7529677572	 0.112344
H	-0.9879782667	-0.3164880638	-0.0816653463	 0.090487
H	 0.5610630313	-0.4164907892	-0.897855074	 0.094191
H	 1.7449295036	-0.2425401156	 1.311973772	 0.116098
H	 0.1962307818	-0.1240684777	 2.1317700281	 0.088191
H	-0.4097296868	-2.4243073444	 1.3352937918	 0.090785
H	 1.1131618615	-2.5237848477	 0.4490718195	 0.092774
H	 0.8398047078	-2.2195582732	 3.4778860294	 0.06758
H	 1.1391562978	-4.6714966929	 3.5159067063	 0.107446
H	 1.346112752	-4.6966425323	 1.7480659891	 0.107523
H	 3.4960136995	-3.9148198374	 3.7996230102	 0.098199
H	 3.7527776358	-4.1243904624	 2.0476416856	 0.102179
58.7405	73.3155	93.069	120.5875	155.4584	246.7621	276.0892	311.041	449.3194	469.2033	733.0183	741.1377	788.7465	820.2515	879.0624	896.4702	912.5476	964.6386	982.4864	1012.8852	1031.0534	1055.5427	1071.8604	1111.877	1130.4616	1163.3251	1186.9841	1217.2651	1242.3457	1255.0601	1269.9608	1295.7743	1319.338	1332.9237	1348.8024	1369.9518	1397.3334	1407.1704	1414.8036	1472.0174	1486.1021	1490.3424	1498.9351	1499.7568	1512.5858	1532.5357	2981.6103	3005.4699	3007.4262	3010.7244	3015.4829	3029.2439	3037.4418	3046.0428	3051.744	3070.6923	3074.4432	3096.3945	3100.4599	3130.5557
CCCCC1CCO1	CCCC[C@H]1CCO1	
InChI=1S/C7H14O/c1-2-3-4-7-5-6-8-7/h7H,2-6H2,1H3	InChI=1S/C7H14O/c1-2-3-4-7-5-6-8-7/h7H,2-6H2,1H3/t7-/m0/s1
