15
gdb 45402	2.25549	1.77177	1.25177	4.022	71.73	-0.2632	-0.0022	0.261	1014.9034	0.111901	-420.601901	-420.594188	-420.593244	-420.634235	29.166	
O	-0.1191976343	 0.1922304686	 0.3686574264	-0.317739
C	 0.0017776394	 1.3204298543	 0.0255051468	 0.427618
O	-0.9730014662	 2.1769610145	-0.4285294148	-0.255718
C	-0.0230109929	 3.2650619293	-0.6430099524	 0.070206
C	 0.0592398261	 4.1976072013	 0.5763039438	-0.236786
C	 1.1559953335	 3.2836731363	 1.199986198	-0.284847
C	 1.129386488	 2.3658766967	-0.0835057746	-0.014422
C	 2.3551044242	 2.0204909417	-0.7391450681	 0.1723
C	 3.3876799859	 1.7403548185	-1.2876738348	-0.392506
H	-0.0794915816	 3.6467394815	-1.6602685754	 0.112876
H	 0.4291250356	 5.1935492393	 0.323818733	 0.122277
H	-0.8781496079	 4.2936000477	 1.1263428744	 0.129757
H	 2.1214499457	 3.7759762651	 1.3153919733	 0.134631
H	 0.9065112597	 2.7689387586	 2.1288130736	 0.132401
H	 4.2959735848	 1.4809748766	-1.7733440092	 0.199954
112.8145	125.5272	164.4333	215.2175	347.7474	388.5522	489.2806	528.7601	630.255	641.463	644.8547	657.6243	730.3862	761.5686	837.1361	871.8401	907.2696	957.9775	979.2507	1015.9786	1068.5833	1116.0572	1118.8888	1192.8974	1219.7536	1240.564	1273.6074	1314.4939	1330.3702	1467.9014	1487.6527	1942.0634	2239.0774	3079.1776	3089.6755	3131.8317	3145.463	3152.5923	3500.2786
O=C1OC2CCC12C#C	O=C1O[C@H]2CC[C@@]12C#C	
InChI=1S/C7H6O2/c1-2-7-4-3-5(7)9-6(7)8/h1,5H,3-4H2	InChI=1S/C7H6O2/c1-2-7-4-3-5(7)9-6(7)8/h1,5H,3-4H2/t5-,7+/m0/s1
