12
gdb 21681	7.67757	1.28647	1.10319	5.4519	61.42	-0.2487	-0.078	0.1706	981.4036	0.084189	-414.658611	-414.651748	-414.650804	-414.689764	24.829	
N	-0.0048154758	 1.3924734299	 0.1490114763	-0.589522
C	 0.0346812078	 0.0171577024	 0.0400953559	 0.432534
N	-1.0753534237	-0.6981431935	 0.0072451891	-0.199359
O	-0.6756597351	-2.0286135227	-0.0140899675	-0.197883
C	 0.6651266061	-2.0793629039	-0.0104230874	 0.362464
C	 1.3390701602	-3.3847936454	-0.0361058477	 0.080234
O	 0.7782858207	-4.4520989124	-0.0613116502	-0.249668
C	 1.1876518004	-0.8200091908	 0.0243277554	-0.389032
H	 0.7321335933	 1.8782372532	-0.3404614014	 0.260171
H	-0.9162575603	 1.7826242863	-0.049480313	 0.267275
H	 2.4464819897	-3.296386423	-0.0301853926	 0.090293
H	 2.2263404667	-0.53302166	 0.0481460532	 0.132493
101.8611	176.2623	242.1765	298.5854	361.9091	375.5626	495.0629	622.1355	644.0462	705.5603	728.886	785.6844	817.8944	969.0335	1002.3678	1018.9357	1046.4169	1135.4058	1166.8819	1331.6937	1414.4085	1483.9801	1531.2301	1628.9446	1659.2128	1805.4275	2904.84	3271.5486	3563.4448	3665.1615
NC1=NOC(C=O)=C1	Nc1noc(C=O)c1	
InChI=1S/C4H4N2O2/c5-4-1-3(2-7)8-6-4/h1-2H,(H2,5,6)	InChI=1S/C4H4N2O2/c5-4-1-3(2-7)8-6-4/h1-2H,(H2,5,6)
