16
gdb 13920	3.54725	1.79735	1.46886	3.1724	64.87	-0.2433	-0.0338	0.2095	882.1565	0.129835	-383.721169	-383.713676	-383.712732	-383.754727	26.714	
O	-0.0946111325	 0.0829905212	-0.386241578	-0.291701
C	-0.0945207624	 1.2398035139	-0.0786107326	 0.344115
C	-1.1595519837	 2.2200730273	 0.439548534	-0.34489
C	-0.0550155979	 3.3235727473	 0.4663332004	-0.324672
C	 1.0018061074	 2.3131489419	-0.0581465116	 0.176014
C	 2.3551749359	 2.0368942202	 0.6365992232	-0.120813
O	 3.0942105383	 2.277699043	-0.5737482824	-0.268849
C	 1.8857999756	 2.5532444279	-1.3037538279	-0.120801
H	-1.9858233241	 2.3835933402	-0.258447272	 0.136489
H	-1.5832059805	 1.940031911	 1.4084398255	 0.136485
H	-0.2391735036	 4.162910216	-0.2079229541	 0.11451
H	 0.1642154679	 3.7185678654	 1.4607889042	 0.114515
H	 2.6138863407	 2.7481471216	 1.4318259899	 0.105222
H	 2.4853094812	 1.0108915427	 1.0018378192	 0.119579
H	 1.7290210887	 1.842886347	-2.1246238948	 0.119575
H	 1.858104069	 3.5795644033	-1.692467433	 0.105223
16.9853	84.1719	167.1632	254.9155	294.0139	440.6457	508.183	573.4581	698.3598	734.8808	832.013	864.719	867.3154	933.6861	939.4045	989.7938	1047.6548	1050.3633	1075.8688	1152.0363	1153.4975	1166.2806	1184.351	1208.726	1220.5422	1235.3292	1289.3237	1308.4879	1369.6343	1435.8422	1484.4821	1499.6507	1525.3415	1885.5287	3002.9774	3014.1199	3058.5934	3059.0782	3060.2882	3071.1075	3106.504	3125.5753
O=C1CCC11COC1	O=C1CCC21COC2	
InChI=1S/C6H8O2/c7-5-1-2-6(5)3-8-4-6/h1-4H2	InChI=1S/C6H8O2/c7-5-1-2-6(5)3-8-4-6/h1-4H2
