19
gdb 121772	2.78368	0.75478	0.61745	4.6168	81.08	-0.3333	-0.0085	0.3248	1790.4706	0.158068	-382.102764	-382.092493	-382.091549	-382.139202	35.423	
C	-0.0692555107	 1.5735656848	 0.0546500034	-0.38375
C	-0.0189276909	 0.0442451977	 0.0090268926	-0.17393
C	 0.7164307646	-0.4889862485	-1.2262800197	-0.187129
C	 0.7595463911	-2.0182177542	-1.2655264449	-0.193752
C	 1.4976842966	-2.5697199334	-2.5201819334	-0.301821
C	 2.9060311099	-2.1478596235	-2.5533159947	 0.308892
N	 4.0016707569	-1.7840582	-2.5653967632	-0.309291
C	 1.3968634563	-4.0338866597	-2.5930980768	 0.295771
N	 1.2766012529	-5.1812455341	-2.6347752777	-0.300513
H	 0.9385521258	 2.0021388437	 0.0711434089	 0.122834
H	-0.5877999502	 1.9797350233	-0.8207263237	 0.117809
H	-0.5960595875	 1.9252204133	 0.9465451804	 0.119629
H	 0.4744427941	-0.3350012835	 0.9131288938	 0.106038
H	-1.0396801104	-0.359373381	 0.0266849612	 0.101608
H	 0.2241936048	-0.1144142788	-2.1345626399	 0.101455
H	 1.7389277283	-0.0919965153	-1.2429787435	 0.129022
H	 1.2526490266	-2.4152558635	-0.372557143	 0.138489
H	-0.2544440248	-2.4308697332	-1.2828888164	 0.131459
H	 1.0135878767	-2.1615254141	-3.4176095334	 0.177179
52.6342	74.5933	97.7888	130.733	139.1517	211.0911	222.7343	251.4946	338.2836	388.3673	393.6993	513.9567	584.5753	597.3809	738.4397	779.9176	845.3855	905.1335	950.6876	995.8899	1026.8732	1039.9906	1067.0414	1120.7439	1142.4324	1229.9137	1265.7315	1298.0103	1316.0179	1335.3439	1341.6189	1371.5918	1402.8625	1415.5604	1484.0643	1487.0853	1499.5084	1500.1392	1512.8308	2367.7629	2373.5335	3011.7462	3020.6124	3031.6448	3033.6219	3043.8151	3053.6233	3065.1624	3099.8769	3103.8999	3109.046
CCCCC(C#N)C#N	CCCCC(C#N)C#N	
InChI=1S/C7H10N2/c1-2-3-4-7(5-8)6-9/h7H,2-4H2,1H3	InChI=1S/C7H10N2/c1-2-3-4-7(5-8)6-9/h7H,2-4H2,1H3
