19
gdb 26680	2.22428	1.58763	0.94632	1.5154	80.39	-0.1927	0.0345	0.2272	1248.1527	0.158236	-419.244896	-419.234607	-419.233663	-419.280081	36.734	
C	 0.0671088292	 1.5714959268	 0.0406622407	-0.511568
C	 0.018787191	 0.0770917195	 0.0593815731	 0.168571
C	-0.0701474533	-0.7435025929	-1.0220343557	 0.1746
N	-0.1156426875	-0.4506954684	-2.3898454392	-0.593795
O	-0.1019704963	-2.0597083016	-0.6226747338	-0.19766
C	-0.0235252096	-2.0585385158	 0.7508975152	 0.174551
N	-0.0559034513	-3.2813168754	 1.4310107568	-0.593784
C	 0.0629321153	-0.7840597166	 1.2188512527	 0.168597
C	 0.1745237582	-0.3676959503	 2.6506720531	-0.511568
H	 1.0203013282	 1.954124779	 0.4263057723	 0.120068
H	-0.0577080286	 1.940190001	-0.9802595896	 0.137227
H	-0.723386442	 2.0079227496	 0.662883444	 0.120222
H	-0.8354665076	-0.9875515729	-2.8633249559	 0.241048
H	 0.7656705976	-0.644100677	-2.8573777781	 0.242468
H	 0.5623571548	-3.9634593844	 1.0032423421	 0.241044
H	-0.9872488788	-3.6871857759	 1.4549148436	 0.24246
H	 1.0548054444	 0.2641809643	 2.8190340777	 0.120221
H	-0.6978690696	 0.2123902265	 2.9764509304	 0.120067
H	 0.255972336	-1.2470878155	 3.2939693606	 0.137234
71.0018	92.447	142.3821	179.7952	188.4405	194.0438	225.604	271.6667	301.1624	317.4836	360.8213	533.9259	591.2153	620.031	645.8395	676.7609	719.526	799.8797	802.1345	866.4431	963.6592	1055.4511	1077.4349	1077.5589	1133.4327	1139.9985	1203.5893	1221.3691	1266.6061	1309.5142	1405.4542	1411.8598	1439.488	1485.3067	1486.5853	1493.3581	1498.3655	1639.4091	1647.6105	1684.7177	1721.6824	3019.724	3021.5489	3065.2655	3065.5034	3121.4163	3122.2471	3484.8329	3484.9161	3554.3709	3554.4877
CC1=C(N)OC(N)=C1C	Cc1c(N)oc(N)c1C	
InChI=1S/C6H10N2O/c1-3-4(2)6(8)9-5(3)7/h7-8H2,1-2H3	InChI=1S/C6H10N2O/c1-3-4(2)6(8)9-5(3)7/h7-8H2,1-2H3
