20
gdb 95862	2.91265	1.16741	0.87952	4.5187	80.9	-0.228	0.0269	0.2549	1321.4577	0.173271	-399.331335	-399.322708	-399.321764	-399.36447	32.865	
C	 0.0010536984	 1.4642511124	-0.0162377385	-0.319966
N	-0.0106443775	 0.0115258787	 0.0277962164	-0.069538
C	-1.3595258974	-0.5365110674	-0.0738494752	-0.14105
C	-1.3022675264	-2.0655164384	-0.1475562486	-0.1745
N	-0.5640078964	-2.675850778	 0.96209971	-0.293547
C	 0.7503928221	-2.0441557084	 1.1130408853	-0.12296
C	 0.6851782655	-0.5023317991	 1.1974923851	-0.146393
C	 1.4412404055	-2.5936445741	 2.2850508111	 0.271232
N	 1.9851541473	-2.9944678178	 3.2219602648	-0.317614
H	 1.0334162593	 1.8272372015	 0.0004320822	 0.122437
H	-0.4671428745	 1.8072675622	-0.9440152051	 0.122134
H	-0.5383345273	 1.9295226145	 0.8305546531	 0.097413
H	-1.9892489788	-0.2312453956	 0.7883280451	 0.072415
H	-1.8325852848	-0.1353138958	-0.9773025471	 0.103998
H	-2.3123731226	-2.4851038136	-0.1610656808	 0.110483
H	-0.8079802931	-2.359063528	-1.0817028858	 0.117573
H	-1.086383902	-2.5598692594	 1.827023889	 0.226281
H	 1.3385094678	-2.3011496418	 0.2218460545	 0.136954
H	 1.6984412758	-0.0877237837	 1.2235847271	 0.11869
H	 0.1864302989	-0.2193399181	 2.1469602074	 0.085957
110.9836	138.2953	160.207	233.4267	268.4735	321.0884	360.4977	387.2228	426.7188	437.333	546.8452	556.02	575.7656	794.4501	806.9688	878.1916	927.938	959.672	1005.4821	1032.5048	1070.6913	1082.077	1118.793	1133.4783	1166.3196	1187.7022	1206.086	1259.4204	1279.6657	1316.2625	1329.1302	1363.0023	1373.3987	1391.6379	1408.0155	1460.2591	1476.7845	1481.3524	1484.1448	1494.6899	1506.2848	1507.7804	2365.0964	2883.3182	2900.2423	2932.693	3029.0043	3035.6256	3059.1868	3062.241	3068.5892	3094.0622	3106.9061	3495.1662
CN1CCNC(C1)C#N	CN1CCN[C@@H](C1)C#N	
InChI=1S/C6H11N3/c1-9-3-2-8-6(4-7)5-9/h6,8H,2-3,5H2,1H3	InChI=1S/C6H11N3/c1-9-3-2-8-6(4-7)5-9/h6,8H,2-3,5H2,1H3/t6-/m1/s1
