15
gdb 49157	4.0505	1.48795	1.26524	3.7674	71.09	-0.2439	-0.0771	0.1668	963.514	0.113972	-416.757297	-416.750704	-416.749759	-416.788524	25.645	
O	-0.9457457859	 1.4253031213	-0.0510921507	-0.246513
C	 0.1709853921	 1.0597370774	 0.2181992769	 0.098032
C	 1.3555164111	 1.9511834668	 0.2522096056	 0.214564
N	 2.5417672217	 1.4761629851	 0.3656521696	-0.225209
C	 3.407929031	 2.6215338203	 0.2495030444	-0.016133
C	 3.162293181	 3.6324882599	-0.9140825339	-0.09196
C	 1.7450947	 3.5116154877	-1.4261995303	-0.186807
N	 1.2485384231	 3.3753240487	 0.0306943361	-0.196392
C	 2.6136898745	 3.8671410576	 0.4655397883	-0.045352
H	 0.4231997846	 0.0061708109	 0.4536417307	 0.101466
H	 4.4314453721	 2.5187300511	 0.5842466841	 0.113988
H	 4.0135535814	 4.0813399086	-1.4094276492	 0.110391
H	 1.3630895584	 4.4488908945	-1.8331537775	 0.134701
H	 1.4698238622	 2.6805491847	-2.0837300243	 0.123999
H	 2.7383473428	 4.6466147055	 1.20661773	 0.111226
89.5341	185.9677	237.8558	366.7378	468.0973	512.9643	607.3391	717.3634	734.811	786.0517	805.6904	817.1033	861.5276	882.7915	922.579	962.0866	1003.7659	1016.8737	1035.5137	1040.1972	1053.2658	1096.0211	1136.1928	1160.6374	1218.2835	1255.3709	1300.6977	1327.908	1356.5224	1394.3701	1505.1425	1637.7797	1807.9007	2939.1492	3051.54	3123.5676	3189.6448	3201.4782	3217.4761
O=CC1=NC2C3CN1C23	O=C[C]1[N][C@H]2[C@H]3CN1[C@@H]23	
InChI=1S/C6H6N2O/c9-2-4-7-5-3-1-8(4)6(3)5/h2-3,5-6H,1H2	InChI=1S/C6H6N2O/c9-2-4-7-5-3-1-8(4)6(3)5/h2-3,5-6H,1H2/t3-,5+,6-/m1/s1
