19
gdb 94786	2.65175	1.50691	1.16332	3.5184	75.82	-0.2174	-0.0244	0.1929	1112.0081	0.160576	-419.195047	-419.186541	-419.185597	-419.228372	32.211	
C	 0.5064525113	 1.4608675782	-0.1934560231	-0.375138
C	-0.0752959743	 0.0671026317	 0.0808953728	-0.105554
N	 0.1377264009	-0.8568854521	-1.0533323409	-0.299261
C	 1.4016478925	-1.5765151889	-0.7895796207	-0.293488
C	 1.5192513575	-1.6743250235	 0.7259155373	 0.213145
C	 1.6755097825	-2.9526265342	 1.4798518833	-0.275793
N	 2.7647110649	-1.9735216931	 1.452324759	-0.334368
C	 0.6328150536	-0.5820260276	 1.2820147011	 0.367537
O	 0.4945265174	-0.2982648786	 2.4438147645	-0.323671
H	 1.5791441419	 1.4099174858	-0.4065196833	 0.121069
H	 0.010434915	 1.9072444124	-1.0588405054	 0.126107
H	 0.3647748526	 2.1049348054	 0.6787502401	 0.13635
H	-1.1442865011	 0.1622121845	 0.2926127541	 0.100008
H	-0.6171091457	-1.5347895057	-1.0616788361	 0.224746
H	 1.3985669671	-2.5458315272	-1.2944871925	 0.110813
H	 2.2406466696	-0.9964161209	-1.1976727451	 0.116922
H	 1.1838729496	-3.0482818996	 2.4440926144	 0.139903
H	 1.7663181667	-3.8699273646	 0.9026559747	 0.115564
H	 3.471380098	-2.2640913121	 0.7778778258	 0.235109
53.7955	139.2064	208.3725	227.0324	249.9588	269.0652	344.2203	384.5787	463.235	561.6595	644.4748	685.3107	743.8717	800.8737	843.77	856.1044	882.3189	951.7621	960.5458	976.4949	1001.0129	1031.3611	1067.6791	1117.0973	1126.4941	1142.8242	1143.9364	1219.105	1269.8327	1286.789	1301.2542	1332.2077	1358.4289	1394.697	1401.4909	1462.5223	1487.9325	1495.0653	1495.8725	1504.0621	1845.2188	3011.4326	3042.7744	3069.4261	3091.4849	3102.0179	3115.0533	3130.2291	3196.5619	3473.2247	3521.1604
CC1NCC2(CN2)C1=O	C[C@H]1NC[C@]2(CN2)C1=O	
InChI=1S/C6H10N2O/c1-4-5(9)6(2-7-4)3-8-6/h4,7-8H,2-3H2,1H3	InChI=1S/C6H10N2O/c1-4-5(9)6(2-7-4)3-8-6/h4,7-8H,2-3H2,1H3/t4-,6+/m1/s1
