21
gdb 90429	2.23014	1.63359	1.33693	2.3071	77.13	-0.239	0.052	0.291	1079.1852	0.183308	-424.196108	-424.187468	-424.186524	-424.229433	34.178	
C	 0.4347682024	 1.6297832394	 0.0567814462	-0.404288
C	 0.1371444391	 0.137938218	 0.0350745939	-0.014149
C	 0.9685702313	-0.7706783514	-0.9485641243	 0.108054
O	 2.0123584051	-0.1921382998	-1.6890578808	-0.438143
C	 1.3211207479	-1.732985863	 0.2298143506	-0.125123
C	 2.634139421	-1.4538105604	 1.0168009937	 0.112982
O	 3.7578167911	-0.9051918884	 0.3295674372	-0.430444
C	 1.9090697948	-0.4238951944	 1.9114908493	-0.26006
C	 0.559726143	-0.7720744391	 1.2236649522	-0.036836
H	 1.5058176257	 1.8388557434	 0.1270697672	 0.116988
H	 0.0814677821	 2.1005436231	-0.8659586012	 0.121231
H	-0.0635853818	 2.1212115345	 0.8998536074	 0.107675
H	-0.9306809418	-0.0056038166	-0.1637688481	 0.067519
H	 0.3157314214	-1.2594125559	-1.6787406108	 0.080158
H	 2.766729327	-0.0871008437	-1.0916859078	 0.285821
H	 1.0687015559	-2.7842474357	 0.0801136636	 0.05706
H	 2.9479581328	-2.34061922	 1.5817028187	 0.080237
H	 4.1536760222	-1.6025421594	-0.205433075	 0.29191
H	 1.9570393717	-0.6493283943	 2.9789465183	 0.104288
H	 2.2587322931	 0.6002248105	 1.7649918646	 0.112446
H	-0.2346143938	-1.1225068967	 1.8826962151	 0.062673
41.5218	172.1016	221.0452	241.874	272.8286	309.2884	355.2807	405.1479	444.7094	523.6768	595.849	626.1811	668.3157	726.0305	750.7103	781.8764	858.9003	887.6951	923.9217	965.1078	979.7192	1020.8742	1031.2252	1062.0949	1100.7521	1123.9892	1134.08	1156.6858	1171.1152	1205.5331	1221.7723	1248.7331	1261.0332	1277.5768	1302.2232	1317.2413	1339.3608	1353.2234	1363.3657	1410.5825	1416.4091	1475.7172	1485.2431	1490.7361	1506.4901	3012.4451	3030.0086	3035.4676	3051.6107	3071.1833	3086.1325	3099.8231	3104.5736	3110.6846	3124.3797	3706.0354	3802.6787
CC1C(O)C2C(O)CC12	C[C@H]1[C@@H](O)[C@H]2[C@@H](O)C[C@@H]12	
InChI=1S/C7H12O2/c1-3-4-2-5(8)6(4)7(3)9/h3-9H,2H2,1H3	InChI=1S/C7H12O2/c1-3-4-2-5(8)6(4)7(3)9/h3-9H,2H2,1H3/t3-,4+,5+,6-,7-/m1/s1
