20
gdb 11626	4.53067	1.0314	0.98639	2.0865	71.96	-0.2545	0.0829	0.3374	1278.8347	0.175385	-386.116125	-386.106986	-386.106042	-386.150549	33.446	
C	-0.5173667928	 1.3387863326	 0.1272830486	-0.392758
C	 0.1881573708	-0.002939487	-0.0890999376	 0.13163
O	 1.1220942614	 0.0635701962	-1.1581633043	-0.439877
C	 0.8896394639	-0.5075601084	 1.1722176215	-0.080366
O	 1.951753163	 0.3987071034	 1.4459290987	-0.267853
C	 2.7771318666	 0.0016313705	 2.4965180279	 0.153898
C	 3.8890798469	-0.9802422746	 2.2298031251	-0.288026
C	 4.1876679513	 0.4894197369	 2.4585562372	-0.288366
H	 0.1916579998	 2.0901883956	 0.4869677175	 0.125735
H	-0.9487864285	 1.6864603052	-0.8146493401	 0.121411
H	-1.321064893	 1.2470025729	 0.8661661866	 0.10603
H	-0.5503949101	-0.7578702839	-0.385149769	 0.083233
H	 1.8880643527	 0.5314445162	-0.8035797686	 0.282704
H	 0.1917834261	-0.5534907454	 2.0229265454	 0.087969
H	 1.2921184239	-1.5152794783	 0.9986176187	 0.099004
H	 2.2714509519	-0.0494332234	 3.4613550683	 0.086446
H	 4.1516668704	-1.6965716005	 3.0004175344	 0.115314
H	 3.9847300549	-1.3476045851	 1.2140222666	 0.1237
H	 4.4726735597	 1.0754438226	 1.5922462346	 0.123202
H	 4.6554405411	 0.7943390342	 3.3876239885	 0.116969
46.3936	71.501	142.7703	157.358	240.0203	262.0319	370.6918	395.5807	412.2307	431.9033	468.3454	624.2837	760.3024	816.1003	828.6615	839.5268	931.2603	942.8151	975.549	987.9739	1029.5023	1053.759	1073.3647	1090.4231	1128.0498	1142.6489	1159.6116	1193.3398	1202.2885	1244.1593	1260.5379	1304.6098	1366.9737	1371.9101	1401.1106	1426.8739	1432.3926	1454.8638	1490.2397	1496.6125	1501.1042	1512.1374	2981.6716	3029.6409	3038.2011	3042.3042	3095.9753	3109.2363	3127.4446	3135.687	3142.7528	3219.7648	3234.5153	3786.096
CC(O)COC1CC1	C[C@@H](O)COC1CC1	
InChI=1S/C6H12O2/c1-5(7)4-8-6-2-3-6/h5-7H,2-4H2,1H3	InChI=1S/C6H12O2/c1-5(7)4-8-6-2-3-6/h5-7H,2-4H2,1H3/t5-/m1/s1
