19
gdb 41739	3.6638	1.45561	1.23973	1.2358	73.86	-0.2159	0.0854	0.3013	1046.0491	0.161971	-423.012419	-423.005298	-423.004353	-423.043746	28.692	
C	 0.1158424768	 1.1921185675	 0.2468448658	-0.084009
C	 1.439961746	 1.9096308315	-0.0900249823	-0.343235
C	 2.1893871704	 0.8352301018	-0.831390559	 0.440467
O	 3.3110329565	 1.184921826	-1.5838792024	-0.303432
C	 3.9076195931	-0.0332963386	-2.0325598401	-0.102611
C	 3.5562076495	-1.1213509632	-0.9863669946	-0.251528
C	 2.2784146572	-0.5979405443	-0.342863393	-0.180719
C	 1.1670601052	-0.1699814245	-1.2911906076	 0.022524
O	-0.076227081	 0.15546273	-0.7274312448	-0.270355
H	 0.1638234627	 0.749420098	 1.2510270939	 0.102217
H	-0.7556045934	 1.8510926689	 0.2102690721	 0.113638
H	 1.2841311395	 2.7601174435	-0.7623216586	 0.119334
H	 1.947789566	 2.2714263062	 0.8084979595	 0.110194
H	 3.5013184088	-0.3023824868	-3.0175386068	 0.102652
H	 4.9811668786	 0.1385784047	-2.1429903093	 0.112421
H	 3.4509301255	-2.1050421093	-1.454183593	 0.107871
H	 4.3378609491	-1.1958332216	-0.2236099579	 0.112665
H	 2.0379521589	-0.8959964679	 0.672120998	 0.0914
H	 1.0779704107	-0.574769292	-2.2939733599	 0.100506
169.7521	191.8183	213.0949	267.0477	349.4283	405.4625	484.2858	642.2094	684.7344	690.9556	732.4942	859.9999	870.2314	887.4345	916.5226	924.4467	960.1539	982.8281	994.1297	1015.537	1033.4864	1066.9799	1107.0057	1120.7633	1141.7034	1206.1297	1210.0596	1217.9905	1229.8806	1249.6109	1270.0089	1284.3092	1315.2792	1334.9808	1392.7086	1396.4171	1426.3181	1493.287	1498.5667	1523.678	1525.6443	3004.7629	3008.4655	3047.7536	3048.8251	3085.4866	3086.205	3099.2833	3099.4874	3163.7068	3165.645
C1CC23OCCC2C3O1	C1C[C@@]23OCC[C@@H]2[C@H]3O1	
InChI=1S/C7H10O2/c1-3-9-7-2-4-8-6(7)5(1)7/h5-6H,1-4H2	InChI=1S/C7H10O2/c1-3-9-7-2-4-8-6(7)5(1)7/h5-6H,1-4H2/t5-,6-,7-/m1/s1
