16
gdb 47313	3.17383	1.32285	0.99531	3.7167	65.71	-0.2518	-0.037	0.2147	1131.7899	0.125222	-475.075218	-475.0671	-475.066155	-475.109134	29.52	
O	 0.0905150347	-0.0447003874	 0.3429584063	-0.287802
C	-0.0014662661	 1.1151346869	 0.0180260946	 0.372149
C	-1.3575729013	 1.7917246531	-0.1362613005	-0.287649
C	-1.4603420864	 2.8616270023	-1.2316596183	-0.184161
N	-0.6315027986	 4.0310316483	-0.9734048072	-0.331414
C	 0.7224907956	 4.068549247	-1.1445390539	 0.422606
O	 1.3849168607	 5.0706162457	-1.1877989538	-0.357747
O	 1.2720152963	 2.8136711904	-1.3016689082	-0.242963
C	 1.2716663969	 1.9490129527	-0.1640250221	-0.183985
H	-2.0943598445	 1.0003712154	-0.298870624	 0.133777
H	-1.5890966955	 2.2593536679	 0.8309729305	 0.135656
H	-1.2133065052	 2.4271541291	-2.2068187119	 0.137638
H	-2.4953146969	 3.2086427071	-1.2852864258	 0.123056
H	-1.0686994674	 4.9383427571	-0.9409405599	 0.263208
H	 1.4524187601	 2.5258478809	 0.7546458022	 0.136398
H	 2.1017557075	 1.2538124333	-0.2982418979	 0.151233
31.1127	81.4888	174.4323	271.2849	286.2523	357.3726	421.732	460.7171	533.8886	547.7845	634.8578	653.858	749.8211	803.7725	835.2774	858.4148	938.4257	983.9013	1076.4009	1097.2005	1119.1284	1186.5394	1243.7797	1273.7424	1288.4282	1312.1275	1363.2825	1373.9817	1410.9927	1442.7852	1461.7016	1471.4424	1496.3789	1813.2659	1856.2109	3010.2587	3024.4118	3045.0896	3100.9767	3103.8624	3128.1064	3641.4082
O=C1CCNC(=O)OC1	O=C1CCNC(=O)OC1	
InChI=1S/C5H7NO3/c7-4-1-2-6-5(8)9-3-4/h1-3H2,(H,6,8)	InChI=1S/C5H7NO3/c7-4-1-2-6-5(8)9-3-4/h1-3H2,(H,6,8)
