20
gdb 112654	2.48737	1.24205	1.02433	2.1828	75.93	-0.2579	0.0225	0.2803	1250.5639	0.171661	-440.310517	-440.301367	-440.300423	-440.345099	33.944	
C	 0.6035122285	 1.4667340783	-0.0953037397	-0.398943
C	 0.0679708481	 0.0315708451	 0.0117293104	-0.068725
C	 0.3578904924	-0.8654971846	-1.211850871	-0.277657
C	 1.4378938091	-1.8534668076	-0.7302770541	 0.084575
C	 2.8519334254	-1.535828896	-1.2089128303	-0.065136
O	 3.8048750009	-2.4044062789	-0.6383455118	-0.419824
O	 1.4317321118	-1.7821566072	 0.7152066846	-0.26061
C	 0.7122325634	-0.7122840776	 1.1689328483	 0.399218
N	 0.6028077104	-0.389308047	 2.3841760561	-0.536027
H	 1.678642509	 1.4784093447	-0.3034780967	 0.120976
H	 0.0971339669	 2.0067310575	-0.901209281	 0.116571
H	 0.4358143893	 1.9975410739	 0.8446581125	 0.148062
H	-1.0062873903	 0.0837721241	 0.2075724718	 0.11187
H	-0.5382626659	-1.406680492	-1.5231223501	 0.117518
H	 0.7052822223	-0.2877749533	-2.0733454512	 0.11326
H	 1.2065510362	-2.8921752307	-0.9842638701	 0.098794
H	 2.9052798502	-1.6687670837	-2.2951873302	 0.113728
H	 3.0808427892	-0.4784433582	-0.9916846131	 0.091302
H	 3.6624495156	-2.375944703	 0.3151125599	 0.291326
H	 1.1337900176	-1.0256221439	 2.9806467755	 0.219723
49.6348	73.1262	133.1416	212.0891	245.7145	260.8942	346.873	369.0808	426.0271	446.1582	505.8717	640.3145	669.6238	734.2482	764.7765	851.9915	871.4682	892.766	935.1881	1014.0786	1018.2909	1044.4613	1052.6314	1089.0458	1108.4225	1127.2913	1156.3049	1216.7003	1242.8563	1262.3137	1288.8803	1328.21	1337.9636	1343.9992	1382.9178	1401.5328	1413.0121	1436.2187	1492.1778	1497.611	1500.2055	1502.0233	1770.6813	2963.9011	3037.9818	3060.1939	3063.6362	3071.455	3077.7066	3105.5443	3109.8611	3130.9741	3475.5805	3796.9796
CC1CC(CO)OC1=N	C[C@H]1C[C@@H](CO)O[C]1[NH]	
InChI=1S/C6H11NO2/c1-4-2-5(3-8)9-6(4)7/h4-5,7-8H,2-3H2,1H3	InChI=1S/C6H11NO2/c1-4-2-5(3-8)9-6(4)7/h4-5,7-8H,2-3H2,1H3/t4-,5-/m0/s1
