17
gdb 74014	2.13757	1.86335	1.09129	3.9311	76.58	-0.2352	-0.0251	0.2101	1100.6662	0.1351	-421.808102	-421.800037	-421.799093	-421.840919	30.083	
C	-0.0484673798	 1.4585166605	-0.0989764565	-0.491457
C	 0.0136116619	-0.0141495187	 0.1434214651	 0.177733
C	-0.9919860447	-0.8739913347	 0.3302538336	 0.082781
C	-2.3815804325	-1.220402263	-0.1477241276	-0.148197
O	-1.8665908787	-2.5258715397	-0.5742989633	-0.30005
C	-0.6336810229	-2.308438204	 0.1736485736	 0.011332
C	 0.7621496292	-2.2001115923	-0.4914053501	 0.348116
O	 1.2949291619	-2.9441726473	-1.2609679931	-0.277472
C	 1.3021234112	-0.817732518	 0.0014445048	-0.406771
H	 0.4745994112	 2.0159938605	 0.6881764024	 0.136453
H	 0.4428467791	 1.7194356218	-1.0447088279	 0.134442
H	-1.0809950253	 1.816834961	-0.1332655463	 0.12812
H	-3.1493633264	-1.3477770052	 0.6256295058	 0.113887
H	-2.7871700918	-0.6324709445	-0.9780041487	 0.123152
H	-0.5877304259	-2.9676750007	 1.0525357288	 0.100746
H	 1.9979139759	-0.3921694694	-0.7289987672	 0.132612
H	 1.8615145979	-0.9542848761	 0.9367135566	 0.134574
85.6811	145.2841	175.7798	203.5112	253.759	314.5578	408.7699	460.9628	565.8358	580.8589	632.7556	690.0885	785.6141	859.021	878.5708	918.8167	954.4244	967.7239	995.5178	1051.5838	1072.2669	1119.4051	1130.3208	1153.1833	1155.5627	1202.391	1250.8054	1290.0865	1304.0069	1328.3304	1412.3308	1456.5937	1475.1386	1488.0478	1508.4595	1756.5738	1871.3806	2999.5874	3018.7118	3020.2331	3022.7257	3067.5047	3074.6405	3083.2775	3111.1807
CC1=C2COC2C(=O)C1	C[C]1[C]2CO[C@H]2C(=O)C1	
InChI=1S/C7H8O2/c1-4-2-6(8)7-5(4)3-9-7/h7H,2-3H2,1H3	InChI=1S/C7H8O2/c1-4-2-6(8)7-5(4)3-9-7/h7H,2-3H2,1H3/t7-/m1/s1
