24
gdb 94610	3.42887	0.91123	0.8032	0.9303	89.77	-0.2287	0.0849	0.3136	1539.3705	0.217688	-368.370801	-368.36129	-368.360346	-368.405564	36.151	
C	-0.2254638228	 1.4865523718	-0.1771839449	-0.392211
C	 0.0338669575	-0.014637417	-0.0595453817	-0.00537
C	 1.303853738	-0.4894281827	-0.8284827849	-0.223344
C	 2.0852872711	-0.4968234272	 0.5121057309	-0.224516
C	 0.7230214999	-0.4982993455	 1.2614314628	 0.054826
C	 0.5541321704	 0.2932505371	 2.5499481737	-0.180984
N	 1.2096120031	-0.3825258934	 3.6679379266	-0.062089
C	 2.5950138939	-0.0108903954	 3.9377616417	-0.214382
C	 1.4980070152	 0.4329569315	 4.8408578322	-0.222185
H	 0.6751887721	 2.0756006207	 0.0282055785	 0.112204
H	-0.5536279008	 1.7357631652	-1.1923620215	 0.110924
H	-1.0065864104	 1.8206411621	 0.514111447	 0.112794
H	-0.8861624541	-0.5538931344	-0.3070555447	 0.062768
H	 1.1848575438	-1.4955352173	-1.2399897088	 0.097778
H	 1.671364645	 0.1671269223	-1.6224168333	 0.089989
H	 2.7663530982	-1.3299902839	 0.6997751433	 0.09649
H	 2.63617994	 0.4367462219	 0.6669036724	 0.093012
H	 0.4230900455	-1.5316034403	 1.4646300322	 0.080365
H	 0.9286400164	 1.3256215814	 2.4218030355	 0.07351
H	-0.513415441	 0.3695452267	 2.7958438859	 0.0992
H	 3.257954553	-0.8216897118	 4.2262903212	 0.114153
H	 3.0537354588	 0.7495825991	 3.3077093424	 0.107609
H	 1.2273552098	 1.4877454369	 4.8098512185	 0.105399
H	 1.3418912473	-0.0479112779	 5.802526945	 0.114062
61.9363	95.0934	111.7842	144.0166	241.9507	261.3826	312.5986	338.48	372.2301	433.7848	486.3248	679.8019	767.7751	769.6233	811.6908	839.5247	884.1181	895.7277	902.2205	922.1677	957.1815	991.6942	1012.2105	1025.0047	1047.7252	1089.1198	1110.9615	1115.933	1130.0531	1149.916	1167.9434	1173.2778	1199.3706	1217.8735	1251.6366	1264.3777	1279.4467	1285.7152	1289.2512	1319.892	1354.477	1369.0329	1405.0585	1409.7935	1481.8634	1485.9398	1492.6699	1497.6084	1499.9288	1502.4759	1522.4583	2929.0112	3026.0178	3029.6417	3038.6182	3045.6834	3053.4714	3058.9238	3090.0957	3091.148	3094.2228	3095.706	3097.0299	3111.4881	3172.8872	3187.7834
CC1CCC1CN1CC1	C[C@H]1CC[C@H]1CN1CC1	
InChI=1S/C8H15N/c1-7-2-3-8(7)6-9-4-5-9/h7-8H,2-6H2,1H3	InChI=1S/C8H15N/c1-7-2-3-8(7)6-9-4-5-9/h7-8H,2-6H2,1H3/t7-,8-/m0/s1
