20
gdb 11965	2.79694	1.90683	1.72894	1.7032	74.52	-0.2235	0.0799	0.3034	914.4775	0.17535	-348.978148	-348.969638	-348.968694	-349.011003	32.544	
C	-0.2025876846	 1.5068758597	 0.1128556235	-0.446942
C	-0.0407986309	-0.0073474675	 0.0042185713	 0.178014
C	-1.3396315145	-0.6880856289	-0.4206053304	-0.446945
C	 1.2172125995	-0.468126842	-0.7812244864	-0.106329
O	 1.8048656631	-1.059203472	 0.3984331999	-0.312635
C	 0.6831545465	-0.6706383921	 1.1903485878	 0.452774
C	 0.8523025098	-0.2233829525	 2.6042415958	-0.339293
C	 0.1666402588	-1.5470671058	 2.2825163622	-0.339293
H	 0.7310174266	 1.9844071407	 0.4246240017	 0.122576
H	-0.5006117947	 1.9364859023	-0.8503616045	 0.113273
H	-0.9754667948	 1.7700496542	 0.843852978	 0.113876
H	-1.669747161	-0.3204504833	-1.3988888674	 0.113273
H	-1.2153575174	-1.7728879415	-0.4885319156	 0.122575
H	-2.1440974235	-0.4858666996	 0.295566476	 0.113876
H	 1.0374266216	-1.2152348968	-1.5639603545	 0.096952
H	 1.8416835231	 0.3373699485	-1.1866611673	 0.096953
H	 1.8555030835	-0.2667944165	 3.0150249401	 0.122068
H	 0.2456592302	 0.597883129	 2.9727347219	 0.111581
H	-0.905624229	-1.6246922884	 2.4325311386	 0.111581
H	 0.7202257076	-2.4584702075	 2.4823322892	 0.122067
41.1156	195.503	220.3812	221.7987	267.7239	284.437	339.7803	370.3221	412.0386	525.3976	570.9282	646.7928	761.8712	867.7947	872.1138	876.5554	925.5873	959.1119	964.4211	972.9829	1002.0461	1025.5805	1043.7639	1049.0016	1067.2939	1158.3215	1182.3912	1187.9486	1232.0911	1257.9944	1267.3866	1351.9385	1381.4278	1401.4367	1422.4164	1446.2925	1482.349	1488.429	1490.4124	1504.3378	1507.3624	1528.0553	3011.2517	3023.39	3029.2039	3057.108	3086.1696	3091.8561	3105.571	3107.2863	3125.3989	3127.8623	3207.632	3221.9365
CC1(C)COC11CC1	CC1(C)COC21CC2	
InChI=1S/C7H12O/c1-6(2)5-8-7(6)3-4-7/h3-5H2,1-2H3	InChI=1S/C7H12O/c1-6(2)5-8-7(6)3-4-7/h3-5H2,1-2H3
