16
gdb 124802	2.64322	1.41318	1.01046	2.6586	66.5	-0.2384	-0.0075	0.2309	1147.3342	0.124598	-471.20718	-471.198317	-471.197372	-471.241212	32.089	
C	 0.1139327303	 1.4829631942	 0.2473696923	-0.396126
C	-0.1918650372	-0.0033235531	 0.007799606	 0.034118
O	-1.5801940118	-0.2209258287	-0.1661139559	-0.436159
C	 0.5914169734	-0.5415325448	-1.1582439833	 0.235206
N	 0.0025024003	-0.8789112297	-2.3048628554	-0.297707
N	 0.9997851105	-1.2644401844	-3.0851032648	-0.089569
N	 2.2200687938	-1.2182847958	-2.5429365806	-0.301135
C	 1.9761276945	-0.7570135694	-1.3234296216	 0.311271
O	 2.9323381993	-0.5374801898	-0.4023754571	-0.425451
H	 1.1790017571	 1.6330880547	 0.4510971842	 0.12538
H	-0.1612696573	 2.0740413231	-0.6319038149	 0.11532
H	-0.464056751	 1.8408578697	 1.1033723608	 0.124741
H	 0.1033256405	-0.5615733621	 0.9069110179	 0.099706
H	-1.7495976034	-0.2638950253	-1.1147045812	 0.294357
H	 0.8483868838	-1.6049962082	-4.0191535611	 0.2948
H	 3.7816915972	-0.7779938404	-0.7927504053	 0.311248
37.6562	143.9445	173.6742	222.8963	264.4362	307.7178	328.6957	360.0344	371.2451	407.9274	491.9101	553.8825	654.4991	697.994	765.2038	777.9392	914.9473	991.9151	1039.2257	1100.176	1113.4136	1156.6143	1196.6693	1231.0053	1266.0486	1318.2637	1362.4145	1396.5965	1412.5125	1432.3369	1468.4208	1491.2818	1495.9304	1587.082	1595.5675	3012.3249	3036.8396	3113.3644	3124.0649	3686.0862	3787.6168	3801.6948
CC(O)C1=NNN=C1O	C[C@@H](O)c1n[nH]nc1O	
InChI=1S/C4H7N3O2/c1-2(8)3-4(9)6-7-5-3/h2,8H,1H3,(H2,5,6,7,9)	InChI=1S/C4H7N3O2/c1-2(8)3-4(9)6-7-5-3/h2,8H,1H3,(H2,5,6,7,9)/t2-/m1/s1
