21
gdb 10302	2.45907	1.58781	1.02949	3.9094	78.93	-0.3103	0.0372	0.3475	1201.0387	0.187169	-329.160863	-329.150921	-329.149977	-329.195568	35.745	
C	 0.0417580168	 1.6095698963	 0.0923227043	-0.39845
C	-0.0415162887	 0.0840624739	-0.0067793808	-0.191919
C	 0.6952525752	-0.5033694162	-1.2351626702	-0.119821
C	 2.0995633172	-0.0731722109	-1.2162761225	 0.286692
N	 3.2059888065	 0.260829505	-1.1781557782	-0.346716
C	 0.6144569533	-2.0545678395	-1.3508178246	 0.031615
C	-0.8396642049	-2.5444544626	-1.3986615734	-0.405571
C	 1.3854004114	-2.5600805925	-2.5786346579	-0.406886
H	 1.0772770801	 1.9488519857	 0.1856244955	 0.147057
H	-0.3892575981	 2.0879211178	-0.7941549032	 0.117631
H	-0.5112403596	 1.967902527	 0.9654060675	 0.118991
H	 0.3695894097	-0.3743264278	 0.9006093366	 0.113776
H	-1.0908602334	-0.2176659179	-0.0667539593	 0.110467
H	 0.2452688239	-0.0741446962	-2.1425866196	 0.117142
H	 1.0903311145	-2.468368881	-0.451781723	 0.091818
H	-1.3831501805	-2.0839947832	-2.2326061937	 0.116041
H	-0.8631804645	-3.6278451703	-1.5504540176	 0.120284
H	-1.3880942061	-2.3319326615	-0.4779406688	 0.121889
H	 2.4322852303	-2.2465097086	-2.5591629179	 0.144578
H	 1.3603277427	-3.6530928455	-2.6218290323	 0.116732
H	 0.9360895643	-2.181657182	-3.5047470408	 0.114649
59.4967	87.3507	156.4181	178.5021	199.5106	233.4823	248.5413	277.7559	335.8464	373.9242	420.2208	429.2041	541.2365	584.3348	760.5496	831.8562	877.3209	932.3759	943.4792	964.7929	973.4097	1040.5622	1074.8064	1118.9567	1144.2507	1178.1556	1188.9451	1270.3395	1286.9986	1341.6389	1350.9417	1364.1649	1373.3787	1403.9596	1415.757	1425.2575	1484.8734	1489.4179	1495.8596	1499.434	1505.2359	1507.6148	1514.5583	2349.4132	3002.7925	3021.5422	3030.0006	3035.6681	3037.0458	3041.934	3088.0472	3095.5661	3102.0696	3106.4739	3117.9088	3121.974	3122.558
CCC(C#N)C(C)C	CC[C@@H](C#N)C(C)C	
InChI=1S/C7H13N/c1-4-7(5-8)6(2)3/h6-7H,4H2,1-3H3	InChI=1S/C7H13N/c1-4-7(5-8)6(2)3/h6-7H,4H2,1-3H3/t7-/m0/s1
