20
gdb 11991	2.53827	2.11658	1.71284	1.173	74.09	-0.2411	0.0738	0.315	903.0004	0.175642	-348.979692	-348.971266	-348.970322	-349.011602	33.167	
C	-0.4483073929	 1.5487337123	 0.3657678828	-0.416953
C	-0.1086494984	 0.0703920842	 0.213335186	-0.032745
C	 0.2870181342	-0.4652156597	-1.1723705674	-0.057903
C	 1.6173706095	 0.0811027652	-1.6073528622	-0.29889
C	 1.5853952663	-1.0409798344	-0.6094152444	-0.061044
C	 1.2369769514	-0.5384416913	 0.7953973958	 0.392553
C	 2.2210889636	 0.3818959447	 1.5061777921	-0.452764
O	 0.9803779415	-1.6896723389	 1.5922403345	-0.482174
H	 0.3209879234	 2.1974028844	-0.0641627783	 0.113355
H	-1.3917113918	 1.7804452415	-0.1410472564	 0.11566
H	-0.5649375308	 1.8261746849	 1.4196631101	 0.108139
H	-0.9169491712	-0.5409893804	 0.6256582235	 0.075031
H	-0.3981673764	-0.9146031784	-1.8813694732	 0.080832
H	 1.9297773217	-0.2073551514	-2.6061163031	 0.11194
H	 1.939758871	 1.0802406328	-1.3260548467	 0.102681
H	 2.0455102212	-2.0043112552	-0.7918768956	 0.088926
H	 2.4926147517	 1.2489739536	 0.8986080437	 0.115914
H	 1.7923243189	 0.760789184	 2.4429081788	 0.102818
H	 3.1342479698	-0.1696554213	 1.7501634171	 0.123774
H	 0.6662307773	-1.3875560266	 2.4516311029	 0.270851
150.6882	207.4743	210.641	224.7328	268.2686	282.6315	311.3341	379.5827	436.3819	492.081	536.3278	618.6796	718.0104	785.9715	802.6203	870.5161	925.287	946.4129	961.3477	992.0834	998.1208	1030.6501	1065.9508	1086.2762	1101.2627	1109.7374	1122.7162	1166.3884	1193.9839	1206.8924	1252.0896	1284.4589	1354.3467	1356.5508	1390.7706	1403.742	1412.4698	1481.7128	1486.7443	1489.2491	1499.9258	1503.4416	3022.2624	3027.8974	3059.0176	3087.1402	3090.1193	3102.1535	3111.2483	3118.3088	3174.6491	3187.8007	3199.8603	3798.951
CC1C2CC2C1(C)O	C[C@H]1[C@H]2C[C@H]2[C@]1(C)O	
InChI=1S/C7H12O/c1-4-5-3-6(5)7(4,2)8/h4-6,8H,3H2,1-2H3	InChI=1S/C7H12O/c1-4-5-3-6(5)7(4,2)8/h4-6,8H,3H2,1-2H3/t4-,5+,6+,7+/m0/s1
