16
gdb 75777	2.43042	1.33766	1.15831	4.2873	69.63	-0.2915	-0.0129	0.2786	1122.8691	0.122374	-437.930729	-437.921774	-437.92083	-437.96444	32.21	
C	-0.3691641079	 1.4372667354	-0.0481599116	-0.420865
C	-0.0021387532	-0.0394240883	-0.0417982734	-0.24239
C	 1.2578694844	-0.4712557165	-0.7924444998	 0.461523
O	 1.7117593219	-0.3651242127	-1.8824077669	-0.307615
O	 1.8282106169	-1.095853373	 0.2974534629	-0.268914
C	 0.7277490804	-0.6872163299	 1.1849455864	 0.249012
C	 1.2331202474	 0.2163611053	 2.2990986912	-0.437179
C	 0.0461729804	-1.8689857077	 1.7213028388	 0.267481
N	-0.5182273364	-2.778087766	 2.1567441162	-0.322924
H	 0.4704562092	 2.0755327798	 0.2366719921	 0.136065
H	-0.6777787856	 1.7255154861	-1.0567061373	 0.154914
H	-1.2035974178	 1.635393841	 0.6305110604	 0.138958
H	-0.855203569	-0.6469072557	-0.3562276994	 0.142437
H	 1.7760594207	 1.0640452222	 1.8769995451	 0.14241
H	 0.3980453705	 0.5871845654	 2.8995530863	 0.148099
H	 1.909437838	-0.3409870453	 2.951339749	 0.158988
75.8919	143.8894	183.1062	192.962	203.9713	228.0087	272.2946	362.9773	419.1254	468.1195	523.0967	602.4244	636.723	686.7704	780.7226	831.978	862.8972	929.9078	1024.6303	1048.4223	1074.8033	1127.6963	1178.6881	1202.4833	1213.2959	1268.6404	1353.6636	1407.2541	1417.0255	1475.9126	1484.2549	1497.5545	1501.7438	1951.5639	2360.7219	3050.447	3056.9679	3082.8899	3123.0409	3129.5569	3134.8633	3145.1636
CC1C(=O)OC1(C)C#N	C[C@H]1C(=O)O[C@]1(C)C#N	
InChI=1S/C6H7NO2/c1-4-5(8)9-6(4,2)3-7/h4H,1-2H3	InChI=1S/C6H7NO2/c1-4-5(8)9-6(4,2)3-7/h4H,1-2H3/t4-,6+/m0/s1
