21
gdb 105201	1.90069	1.45139	1.065	2.0046	79.58	-0.2409	-0.0199	0.221	1274.4676	0.178456	-424.241529	-424.230816	-424.229872	-424.277653	38.089	
C	-1.1588422872	 1.3840729478	 0.1453553582	-0.385957
C	-1.1202480479	 0.0176075315	-0.5519214255	-0.263166
C	 0.2037536732	-0.2274267328	-1.2465601353	 0.277219
O	 1.3725804204	-0.3700636599	-0.4162132415	-0.289455
C	 0.9513924179	-1.5103237568	-1.1609172438	 0.02417
C	 0.4910093166	-2.7280588569	-0.4019134952	-0.426321
C	 0.4224900853	 0.5944330153	-2.5068684541	 0.33071
C	 1.8415720961	 1.0099802916	-2.835788013	-0.479248
O	-0.5233350818	 0.9113826633	-3.1940885709	-0.311341
H	-0.3561130927	 1.4638884988	 0.8846107003	 0.128299
H	-1.0441974074	 2.1988621214	-0.576045793	 0.129066
H	-2.1128270527	 1.5281259781	 0.6603468866	 0.115219
H	-1.311688228	-0.7725985844	 0.1772536684	 0.098406
H	-1.9033758349	-0.0360835664	-1.3138919391	 0.12852
H	 1.6076346452	-1.7446512202	-2.002758208	 0.087758
H	-0.1134761603	-2.4665526605	 0.4674541045	 0.136179
H	-0.0922624289	-3.3852694502	-1.0553900418	 0.131347
H	 1.3612627751	-3.2923807194	-0.0506092473	 0.133735
H	 2.533303538	 0.1633416734	-2.8210986026	 0.142753
H	 1.8551375942	 1.4927427641	-3.8133801014	 0.137428
H	 2.1984821	 1.7072340721	-2.0700133054	 0.154681
63.1553	71.396	105.8234	141.466	160.65	203.8493	209.3214	220.9663	307.205	348.5314	412.3055	497.8314	513.9163	526.928	608.2792	662.7686	760.7198	804.6193	877.5172	915.0621	968.8136	976.3001	1018.6638	1035.4265	1083.1493	1095.5275	1136.0373	1144.8627	1194.4881	1270.8825	1312.6311	1333.9954	1372.0704	1389.4684	1404.5358	1408.1324	1447.4104	1456.3048	1469.3501	1472.0097	1487.0249	1499.2146	1503.6866	1509.5328	1796.7958	3042.0635	3042.3249	3048.3613	3067.4075	3076.9541	3102.4061	3103.2127	3110.839	3114.8502	3124.0885	3144.923	3157.2344
CCC1(OC1C)C(C)=O	CC[C@]1(O[C@H]1C)C(=O)C	
InChI=1S/C7H12O2/c1-4-7(5(2)8)6(3)9-7/h6H,4H2,1-3H3	InChI=1S/C7H12O2/c1-4-7(5(2)8)6(3)9-7/h6H,4H2,1-3H3/t6-,7-/m0/s1
