16
gdb 27106	3.1503	1.18853	0.88994	2.9982	75.24	-0.2157	0.007	0.2227	1269.9537	0.123629	-437.909687	-437.901074	-437.90013	-437.944056	30.486	
C	-0.0896435594	 1.4830127008	-0.0494152773	-0.510299
C	 0.0749683264	-0.0032199721	-0.0127312193	 0.125178
C	 0.3463669941	-0.8243234286	-1.0597379601	 0.347918
O	 0.6122704875	-0.5360358379	-2.353537647	-0.212209
C	-0.076463658	-1.2274189889	-3.3139015881	 0.111603
N	 0.2195714211	-1.0417779724	-4.5206532983	-0.422853
O	 0.4362441647	-2.1267027768	-0.6850021435	-0.180504
C	 0.2037318077	-2.1468241197	 0.6634867471	-0.015122
C	-0.0131321404	-0.8900410727	 1.1209189703	-0.258803
H	 0.6617445972	 1.9853466651	 0.5700736731	 0.133861
H	 0.0151223558	 1.856637434	-1.0708496059	 0.141557
H	-1.0735513504	 1.7873839657	 0.3246176418	 0.129924
H	-0.8396034697	-1.8908802757	-2.8961503857	 0.11597
H	-0.3791265081	-1.6083277837	-5.1180076845	 0.238959
H	 0.2251532299	-3.1202536737	 1.1229543834	 0.140084
H	-0.2185476783	-0.6082187435	 2.1424263538	 0.114735
46.9294	93.6306	121.5462	145.0422	245.6083	251.1421	362.5297	470.8832	499.972	619.2502	652.5842	671.8254	727.8108	817.3207	829.6955	833.4215	908.0188	982.7342	1029.9991	1042.6827	1066.1609	1068.7641	1134.0942	1186.8629	1261.3197	1279.7714	1284.6274	1407.2289	1416.335	1440.5756	1487.3442	1496.6208	1553.38	1690.1827	1758.1901	3031.7239	3081.6439	3082.6428	3122.7961	3250.209	3291.3252	3522.524
CC1=C(OC=N)OC=C1	Cc1c(O[CH][NH])occ1	
InChI=1S/C6H7NO2/c1-5-2-3-8-6(5)9-4-7/h2-4,7H,1H3	InChI=1S/C6H7NO2/c1-5-2-3-8-6(5)9-4-7/h2-4,7H,1H3
