21
gdb 57791	4.3242	0.6471	0.5941	1.7963	89.99	-0.2415	0.0293	0.2708	1950.2434	0.180951	-387.048499	-387.038204	-387.03726	-387.086164	36.044	
C	-0.010063473	 1.6563686234	 0.1137325707	-0.373869
C	 0.0742626337	 0.1167060401	 0.1051657952	-0.125358
C	 0.8339058526	-0.4108317814	 1.3387967901	-0.373702
C	-1.2587582903	-0.4795687954	 0.0149171027	 0.109739
C	-2.3593418954	-0.9689620774	-0.0385355108	 0.044496
C	-3.685069292	-1.5555191265	-0.1169837065	-0.028473
C	-4.4402447135	-1.46770453	-1.4733338364	-0.283344
C	-4.4676129456	-3.0052784779	-1.3966635762	-0.05844
O	-3.6824122377	-3.0088929288	-0.1858621584	-0.279495
H	 0.9950700223	 2.0891944435	 0.1390158386	 0.112996
H	-0.5248426787	 2.0285186246	-0.7759354185	 0.122373
H	-0.5572497829	 2.007115154	 0.9941762585	 0.124344
H	 0.6386204546	-0.1823023402	-0.789319542	 0.104888
H	 1.8453114728	 0.0071971862	 1.3671122174	 0.111309
H	 0.3172636398	-0.1249092676	 2.2601409856	 0.124298
H	 0.9094123918	-1.5009402687	 1.3174406384	 0.12829
H	-4.2918282684	-1.2208074838	 0.7357032975	 0.097744
H	-5.4053538327	-0.9611538308	-1.4383908881	 0.113033
H	-3.8389064496	-1.0575818998	-2.2844342831	 0.121128
H	-5.4591610439	-3.4488215437	-1.2405341634	 0.100604
H	-3.9648209839	-3.54020383	-2.2106005214	 0.107439
14.9576	57.0334	76.5733	113.9243	183.6596	201.7923	224.0406	261.1444	347.8485	461.3731	465.6454	521.1363	567.0747	680.9369	778.1826	817.2593	871.1719	929.1252	931.4371	944.4711	964.4333	1000.2758	1025.0695	1087.791	1095.4001	1118.5578	1157.2731	1164.0405	1210.5739	1215.6613	1257.634	1261.682	1325.0335	1349.9827	1352.884	1367.8343	1394.7875	1416.8032	1485.2029	1488.5116	1488.6491	1497.39	1509.868	1532.2222	2354.9536	3001.1582	3004.4469	3016.6747	3036.1607	3039.7957	3057.8378	3090.0316	3107.1199	3112.4322	3118.9675	3122.3502	3150.085
CC(C)C#CC1CCO1	CC(C)C#C[C@H]1CCO1	
InChI=1S/C8H12O/c1-7(2)3-4-8-5-6-9-8/h7-8H,5-6H2,1-2H3	InChI=1S/C8H12O/c1-7(2)3-4-8-5-6-9-8/h7-8H,5-6H2,1-2H3/t8-/m0/s1
