21
gdb 101432	2.57167	1.13716	0.86462	3.5339	74.76	-0.2452	0.0544	0.2996	1368.8197	0.180545	-461.332268	-461.321943	-461.320999	-461.368109	37.01	
C	-0.2727015088	 1.4333009633	 0.2530012984	-0.398696
C	 0.0754035789	-0.0348130955	-0.0185097732	-0.009014
C	 0.7471347869	-0.2129721098	-1.3899947384	-0.070049
O	-0.0685676348	 0.2368360645	-2.4634119994	-0.421123
C	 0.9699711738	-0.5856313382	 1.0878144611	 0.115141
O	 0.3935762025	-0.4300487286	 2.4113916116	-0.29338
C	 0.4040155451	-1.8498300263	 2.650043117	-0.095525
C	 1.0564425527	-2.1223090377	 1.2776031862	 0.036421
O	 0.2942562125	-2.8469006896	 0.338029309	-0.421608
H	 0.6347856095	 2.0482426458	 0.2950981506	 0.106656
H	-0.9019970463	 1.8239020091	-0.5499085189	 0.121709
H	-0.7958239842	 1.5379382578	 1.2060877039	 0.12844
H	-0.8490351203	-0.6275933056	-0.0218780167	 0.075052
H	 1.6572444607	 0.3975882984	-1.439860731	 0.10168
H	 1.0380847732	-1.2627761715	-1.5290439057	 0.1002
H	-0.8372832301	-0.3413794188	-2.5015103289	 0.281706
H	 1.9544534997	-0.0963925503	 1.047873466	 0.072559
H	 0.9961495772	-2.1156046329	 3.5346710032	 0.097746
H	-0.6072675612	-2.2655227823	 2.7456278835	 0.101679
H	 2.082310954	-2.5050272895	 1.3339443319	 0.079238
H	 0.412450819	-3.7863518823	 0.5077485896	 0.291169
52.5222	87.1368	92.007	163.6814	207.1468	224.968	233.5532	273.7238	304.0908	363.1991	386.152	428.4583	493.0922	584.0211	773.4472	834.073	884.932	897.2728	911.9935	964.1193	1011.69	1030.7003	1064.7639	1065.7577	1107.6727	1114.5578	1145.8858	1156.6371	1184.458	1206.3214	1234.4263	1284.2907	1299.4733	1309.3252	1342.616	1357.7554	1383.2248	1398.9799	1412.935	1422.4265	1436.2977	1495.7258	1501.217	1509.2708	1513.2283	2988.603	3009.0198	3011.8119	3021.6653	3029.7331	3034.3203	3059.8483	3062.8312	3106.5908	3136.2443	3814.0541	3826.334
CC(CO)C1OCC1O	C[C@@H](CO)[C@H]1OC[C@H]1O	
InChI=1S/C6H12O3/c1-4(2-7)6-5(8)3-9-6/h4-8H,2-3H2,1H3	InChI=1S/C6H12O3/c1-4(2-7)6-5(8)3-9-6/h4-8H,2-3H2,1H3/t4-,5+,6+/m0/s1
