16
gdb 28066	4.89619	0.81077	0.75571	4.2637	73.97	-0.193	-0.0171	0.1759	1465.7108	0.123439	-437.919072	-437.910268	-437.909324	-437.954041	31.398	
N	 0.0332331643	 1.3969934946	-0.1883462956	-0.592054
C	-0.0686653399	 0.020965649	-0.0653537969	 0.40438
C	-1.1129361105	-0.8555810156	-0.1043550497	-0.386533
C	-0.5275732173	-2.1701353695	-0.0060057079	 0.252092
C	-1.2484050391	-3.4849647632	-0.0432101084	-0.396282
C	-1.5871797573	-3.9025097393	-1.4684234289	 0.167282
O	-1.4266176407	-5.0098369716	-1.9093929251	-0.23717
C	 0.8129919183	-1.9815633996	 0.0814649233	-0.124946
O	 1.1068314567	-0.6381298195	 0.0484070176	-0.173854
H	 0.8293610416	 1.7779444069	 0.3066888651	 0.258322
H	-0.816650572	 1.8813271443	 0.0637216282	 0.257932
H	-2.160439941	-0.6097905663	-0.1788316024	 0.097024
H	-0.6678854693	-4.2890761187	 0.4160543944	 0.12816
H	-2.1986810497	-3.406400328	 0.5044992375	 0.127934
H	-2.0056294232	-3.0832825257	-2.0962399864	 0.080595
H	 1.6573969993	-2.6417636279	 0.1797541353	 0.137117
32.9235	57.2759	125.3301	190.0295	237.4016	279.3496	393.5621	423.1995	447.4269	609.4755	646.8449	659.3137	681.8554	718.5121	746.8561	755.6241	808.9464	965.7822	989.5898	1024.9704	1052.5095	1089.9072	1147.0276	1187.5776	1195.282	1264.7432	1293.202	1339.0324	1424.0904	1453.8068	1456.95	1603.3635	1632.9706	1672.0281	1834.7303	2876.8545	3013.2276	3104.3906	3254.5651	3288.8308	3551.024	3652.9813
NC1=CC(CC=O)=CO1	Nc1cc(CC=O)co1	
InChI=1S/C6H7NO2/c7-6-3-5(1-2-8)4-9-6/h2-4H,1,7H2	InChI=1S/C6H7NO2/c7-6-3-5(1-2-8)4-9-6/h2-4H,1,7H2
