19
gdb 82470	2.64536	1.68544	1.5114	2.4419	73.77	-0.2314	0.071	0.3024	978.5628	0.160077	-422.980076	-422.972587	-422.971643	-423.011512	30.787	
C	-0.0386439528	 1.5446174074	 0.0351856536	-0.434369
C	 0.1007695655	 0.0250788449	 0.0110130201	 0.063403
C	 1.0422682843	-0.6120049205	-1.0439357226	-0.117009
C	 2.4269312391	 0.0088897306	-0.7194304821	-0.323944
C	 2.3007224495	-0.8075534924	 0.5759696307	 0.40379
O	 3.3000609962	-1.0028717239	 1.5118248542	-0.480381
C	 1.4744691798	-1.893216623	-0.1674909452	 0.018947
O	 0.5635178971	-2.0565991791	 0.9187911734	-0.290272
C	 0.8462626116	-0.6488042409	 1.1849102494	 0.005617
H	 0.9044489584	 2.0592173707	 0.2360800325	 0.121497
H	-0.4257597689	 1.9184277907	-0.9186243299	 0.118642
H	-0.7436719599	 1.845072413	 0.81764851	 0.118511
H	-0.8937035125	-0.427706096	-0.0454162701	 0.084049
H	 0.6942450563	-0.7076216958	-2.0700654332	 0.069995
H	 3.2151448629	-0.4142194789	-1.3531259465	 0.09044
H	 2.5351096326	 1.0941475099	-0.6869950654	 0.102492
H	 4.0989281415	-1.2856624066	 1.0542185347	 0.282845
H	 1.8287556817	-2.8057978305	-0.6456878748	 0.082294
H	 0.6711813778	-0.3450426795	 2.2163538012	 0.083453
150.9105	192.3786	267.9138	298.0338	343.4148	359.9251	458.4033	521.8933	529.246	605.9982	686.419	717.9683	773.4354	832.5722	858.5923	889.5322	927.2928	936.5929	962.5221	1007.4761	1026.0773	1041.0343	1047.9531	1093.7986	1102.5229	1116.5503	1142.5221	1165.5906	1191.235	1208.3776	1235.674	1255.9935	1294.4685	1313.9692	1341.0751	1373.9143	1392.2502	1413.348	1492.8325	1497.015	1519.2732	3036.1277	3044.6359	3061.5043	3095.7759	3108.13	3121.9967	3127.1697	3133.5542	3142.6479	3808.128
CC1C2CC3(O)C2OC13	C[C@H]1[C@H]2C[C@]3(O)[C@H]2O[C@H]13	
InChI=1S/C7H10O2/c1-3-4-2-7(8)5(3)9-6(4)7/h3-6,8H,2H2,1H3	InChI=1S/C7H10O2/c1-3-4-2-7(8)5(3)9-6(4)7/h3-6,8H,2H2,1H3/t3-,4+,5+,6-,7+/m0/s1
