16
gdb 22901	2.88809	1.3488	1.00631	1.6394	70.39	-0.2377	-0.0786	0.1591	1157.2548	0.122707	-474.990766	-474.982091	-474.981147	-475.024567	31.36	
C	-0.008197776	 1.4435798225	-0.2234664629	-0.401325
C	-0.0868818906	-0.0472891133	 0.1179042954	 0.017051
O	 0.3652877308	-0.8831193673	-0.9453412536	-0.26997
C	 1.723952052	-1.2623668825	-0.731047767	-0.162183
C	 1.9200486593	-1.2128797379	 0.7632891855	 0.270123
N	 2.9038820336	-1.7962104198	 1.3330033436	-0.20114
O	 2.9225026363	-1.6476763839	 2.7019474111	-0.342868
C	 0.7931191455	-0.3934101351	 1.3243131069	 0.30774
O	 0.6076800673	-0.0440355766	 2.4620051087	-0.303371
H	 1.020926185	 1.7471591657	-0.4412253766	 0.121653
H	-0.6238102081	 1.6580566225	-1.1004753898	 0.132572
H	-0.3700047098	 2.0352592561	 0.6222537968	 0.141015
H	-1.1243997447	-0.3233599051	 0.3371330116	 0.116333
H	 1.8744568495	-2.2617407167	-1.1474465925	 0.138383
H	 2.4124217922	-0.5719914804	-1.243898241	 0.117464
H	 3.7054343876	-2.1513592482	 2.9553329836	 0.318521
55.1322	101.0226	200.3262	219.1204	228.5692	282.1233	318.7496	386.6992	443.8353	488.4033	537.0829	648.4546	673.7665	716.7761	779.0673	863.7985	963.8689	1006.9662	1021.8816	1063.5244	1091.4158	1114.7547	1151.0121	1207.8271	1226.916	1301.3978	1342.359	1374.6923	1395.084	1429.4738	1486.3983	1493.3023	1507.8177	1706.2235	1832.9043	2976.1477	3041.5967	3050.7378	3090.4596	3116.48	3130.4658	3795.6019
CC1OCC(=NO)C1=O	C[C@H]1OCC(=NO)C1=O	
InChI=1S/C5H7NO3/c1-3-5(7)4(6-8)2-9-3/h3,8H,2H2,1H3	InChI=1S/C5H7NO3/c1-3-5(7)4(6-8)2-9-3/h3,8H,2H2,1H3/t3-/m1/s1
