19
gdb 106450	2.73317	1.21705	0.99694	3.0009	76.93	-0.2336	-0.0282	0.2053	1248.6914	0.15723	-422.973014	-422.964198	-422.963254	-423.006981	32.749	
C	-0.0116370942	 1.4887400656	-0.0909807732	-0.383559
C	-0.0602871497	-0.0395817933	 0.0141197919	-0.315287
C	-1.4603253038	-0.568403183	 0.1238028465	 0.408759
C	-2.6002776838	-0.2127241993	 1.1186739542	-0.262751
C	-3.1705610413	-1.0925040838	-0.0105881397	 0.029066
O	-2.4123253068	-0.2932819426	-0.9949236082	-0.343816
C	-1.9576675496	-2.0598485501	 0.1303546623	-0.134384
C	-1.6069988685	-2.9183920455	-1.0485046779	 0.135719
O	-1.2190137579	-4.0576087223	-0.9444949415	-0.263195
H	 1.0178745169	 1.8343091847	-0.2177025054	 0.11917
H	-0.5991620003	 1.8339506133	-0.9457988322	 0.142073
H	-0.4166530731	 1.9615568351	 0.8092674526	 0.121025
H	 0.4139846667	-0.495434188	-0.8631840334	 0.119634
H	 0.5018773028	-0.3861517795	 0.890033394	 0.115022
H	-2.550582882	-0.6300205471	 2.1270842872	 0.10321
H	-2.9256943606	 0.8277577204	 1.0959104902	 0.113782
H	-4.2047939902	-1.3354575869	-0.252260904	 0.107139
H	-1.8577600752	-2.6126000316	 1.0673182667	 0.089448
H	-1.7286222694	-2.4312642162	-2.0358709003	 0.098945
71.5029	77.4041	175.1849	198.9109	224.8419	253.8292	338.4428	400.8789	442.9881	533.114	609.56	659.8254	701.4334	761.8549	807.6855	895.0713	920.4681	947.898	968.3491	1002.6015	1031.9068	1046.2484	1062.521	1118.2803	1127.629	1140.2971	1159.356	1196.6968	1212.9825	1235.2644	1276.8688	1319.3793	1322.4872	1385.7339	1410.7522	1421.3258	1470.1182	1494.0053	1497.7088	1507.799	1813.5	2943.3947	3032.4532	3044.9277	3067.7357	3068.6111	3096.5836	3113.9115	3126.2083	3127.2332	3152.4129
CCC12CC(O1)C2C=O	CC[C@@]12C[C@@H](O1)[C@H]2C=O	
InChI=1S/C7H10O2/c1-2-7-3-6(9-7)5(7)4-8/h4-6H,2-3H2,1H3	InChI=1S/C7H10O2/c1-2-7-3-6(9-7)5(7)4-8/h4-6H,2-3H2,1H3/t5-,6-,7+/m1/s1
