22
gdb 55279	2.31605	1.32776	1.15159	3.3279	82.28	-0.2409	0.0269	0.2678	1216.3252	0.192937	-404.387286	-404.377052	-404.376107	-404.422429	38.225	
C	-0.6718718232	 1.3371140893	 0.1978789638	-0.441212
C	-0.2775900679	-0.1392243117	 0.1215589633	 0.335466
C	-1.5132487452	-1.0332914594	 0.1167940061	-0.451431
C	 0.7725970216	-0.4093929601	-1.0029441183	-0.260286
C	 1.9000916222	-0.4075085461	 0.0597660597	-0.239481
C	 0.8383363301	-0.5502517591	 1.1732653398	-0.119349
C	 1.0054698355	 0.3276928951	 2.3988983151	 0.397719
N	 0.2937126984	-0.0731856261	 3.4963523191	-0.526737
O	 1.6765403931	 1.3442293102	 2.4029690577	-0.369645
H	 0.2035519506	 1.9889507501	 0.249229434	 0.139689
H	-1.2585318236	 1.6128834288	-0.6855964038	 0.105157
H	-1.2840089487	 1.5388261355	 1.0840975906	 0.112669
H	-2.1661049789	-0.7943271701	-0.7309319841	 0.116266
H	-1.2420116812	-2.0919665048	 0.0403528112	 0.106054
H	-2.1022354457	-0.8992199052	 1.0325026787	 0.107772
H	 0.6332215644	-1.39145145	-1.4650456612	 0.091993
H	 0.8349176821	 0.3395574661	-1.7970909094	 0.09633
H	 2.6513381694	-1.1974350604	-0.0043130071	 0.094936
H	 2.4061035195	 0.5557491131	 0.1474463888	 0.131797
H	 0.6919661057	-1.5942599937	 1.4705139603	 0.058971
H	-0.1654456008	-0.9657845823	 3.536770106	 0.255716
H	 0.3881938624	 0.4603378106	 4.3453627796	 0.257602
51.5434	80.34	150.6883	170.286	220.0646	242.8188	270.7009	298.9329	340.5966	374.5958	411.684	412.4025	565.4142	603.5555	627.0084	677.9848	772.5105	801.4375	874.3773	898.4187	945.6393	955.7407	977.97	987.1662	1005.7094	1045.1261	1076.2177	1137.1668	1175.3721	1185.0258	1226.202	1246.0357	1257.235	1277.5057	1289.1279	1313.5814	1398.5337	1406.2481	1422.5239	1478.7829	1482.8454	1491.0346	1498.2448	1502.4522	1507.7545	1614.628	1783.7733	3015.827	3028.6941	3041.2104	3049.7154	3073.0002	3080.6528	3088.8051	3090.4378	3097.9028	3121.7626	3132.5109	3598.936	3736.9266
CC1(C)CCC1C(N)=O	CC1(C)CC[C@H]1C(=O)N	
InChI=1S/C7H13NO/c1-7(2)4-3-5(7)6(8)9/h5H,3-4H2,1-2H3,(H2,8,9)	InChI=1S/C7H13NO/c1-7(2)4-3-5(7)6(8)9/h5H,3-4H2,1-2H3,(H2,8,9)/t5-/m0/s1
