22
gdb 92086	2.53982	1.5161	1.25039	2.3274	81.21	-0.211	0.0613	0.2723	1121.6751	0.195852	-404.330797	-404.32213	-404.321186	-404.36348	34.461	
C	 0.0142767859	 1.5655015891	 0.0129252524	-0.407273
C	 0.0483459177	 0.0347755353	 0.0233236486	 0.023512
C	 0.7077719032	-0.5088393465	-1.2554068823	-0.149798
N	 0.891612855	-1.9712776755	-1.3009929752	-0.108749
C	 2.1567371625	-2.5035590293	-0.7904924806	-0.247404
C	 0.893335878	-2.7288992681	-0.0403835225	 0.00804
C	 0.6106772359	-2.0557573659	 1.2930068222	-0.268747
C	 0.7454211045	-0.5265370445	 1.2673920181	 0.105198
O	 2.1058656105	-0.0894776642	 1.2355824352	-0.430261
H	 1.0281206717	 1.972539055	 0.0567737934	 0.134122
H	-0.4687675766	 1.9420773115	-0.8947312434	 0.110447
H	-0.5420508201	 1.9537186595	 0.8728824974	 0.106206
H	-0.9838337763	-0.3404500295	 0.0592257382	 0.074322
H	 0.0827760224	-0.2306279625	-2.1126010737	 0.097279
H	 1.6754019849	-0.013978065	-1.395090529	 0.110866
H	 2.5987213278	-3.3050444145	-1.3787418081	 0.100817
H	 2.8622190544	-1.7951400791	-0.3642278516	 0.119358
H	 0.4219408224	-3.7064720279	-0.1373854702	 0.083064
H	-0.4203208251	-2.2873114224	 1.5898745418	 0.104052
H	 1.2522928909	-2.4800202817	 2.0779273303	 0.089319
H	 0.2533541631	-0.1189801344	 2.1647637744	 0.062434
H	 2.5443027173	-0.4245866195	 2.0236940346	 0.283198
112.737	162.9709	214.8499	248.6473	283.4498	313.298	321.4235	371.4261	395.8978	456.965	530.8379	574.312	701.8848	744.613	798.6264	849.9046	878.8324	909.6265	937.8933	960.2298	993.901	1021.4175	1049.5703	1073.7479	1103.4253	1120.9089	1127.0189	1138.9052	1168.0792	1181.9517	1221.6569	1252.9147	1285.4898	1308.6028	1327.3726	1333.2758	1374.1787	1379.2111	1403.8627	1408.0492	1424.5837	1438.0965	1480.6401	1492.932	1496.3903	1505.6553	1516.1097	2966.3572	3007.6465	3012.3035	3021.8167	3035.1116	3044.4819	3062.8009	3094.2989	3096.6415	3100.9722	3119.4636	3186.8118	3823.9184
CC1CN2CC2CC1O	C[C@H]1CN2C[C@H]2C[C@H]1O	
InChI=1S/C7H13NO/c1-5-3-8-4-6(8)2-7(5)9/h5-7,9H,2-4H2,1H3	InChI=1S/C7H13NO/c1-5-3-8-4-6(8)2-7(5)9/h5-7,9H,2-4H2,1H3/t5-,6+,7+,8?/m0/s1
