21
gdb 115633	2.22025	1.42599	1.00429	2.4895	80.2	-0.2479	0.0676	0.3155	1273.7468	0.180133	-424.187884	-424.178223	-424.177279	-424.222608	35.38	
C	-0.3532902385	 1.4602099339	 0.0070220246	-0.236819
O	-0.5364101039	 0.2029371024	 0.6209821206	-0.233787
C	-1.3928230937	-0.6395787461	-0.0898106068	 0.073345
C	-0.8832489798	-1.3646507956	-1.3756316553	-0.259612
C	-1.5143238009	-2.6870716454	-0.8403141443	-0.318327
C	-1.6169294193	-2.0237942585	 0.5381591605	 0.391748
O	-0.8232364296	-2.4745198653	 1.6222905306	-0.278986
C	-2.2521107796	-2.4107377177	 1.7978520223	-0.029032
C	-2.7601388643	-1.3912085701	 2.7848447252	-0.427672
H	 0.3040568009	 2.044235786	 0.655171433	 0.130444
H	 0.1158236078	 1.3695642325	-0.9837538348	 0.109898
H	-1.3079848424	 1.9969139133	-0.1116389155	 0.103291
H	-2.3583801003	-0.1400830079	-0.2822902662	 0.064424
H	-1.233272384	-0.9921306379	-2.3401694369	 0.09647
H	 0.2085694534	-1.4129522076	-1.3746216556	 0.119024
H	-2.4889187251	-2.91129081	-1.2830197277	 0.107055
H	-0.8898770723	-3.5814052084	-0.87714377	 0.120244
H	-2.7268046382	-3.3934015574	 1.8411376226	 0.083372
H	-2.2263387235	-0.4465907543	 2.6574411899	 0.143831
H	-3.8329995271	-1.219304302	 2.6424215453	 0.114992
H	-2.6102402597	-1.7397763139	 3.8120333287	 0.126097
75.28	87.0882	145.0692	164.8341	202.8424	210.7173	233.2828	319.2299	392.8117	443.9325	455.4375	542.304	592.8467	731.4642	769.8868	805.2008	907.5576	925.779	930.6415	961.9424	1028.2767	1047.4903	1089.7647	1102.7677	1118.1113	1143.774	1163.954	1178.3393	1184.6408	1221.6282	1225.5186	1249.0741	1264.7541	1282.8028	1347.8134	1391.6898	1407.8315	1467.4383	1470.7356	1480.8233	1485.7936	1489.5889	1498.2046	1507.9143	1530.7629	2947.1121	2974.885	3024.726	3034.0295	3062.3069	3067.7681	3083.4141	3096.1126	3117.5281	3117.93	3132.2858	3133.4006
COC1CCC11OC1C	CO[C@H]1CC[C@]21O[C@H]2C	
InChI=1S/C7H12O2/c1-5-7(9-5)4-3-6(7)8-2/h5-6H,3-4H2,1-2H3	InChI=1S/C7H12O2/c1-5-7(9-5)4-3-6(7)8-2/h5-6H,3-4H2,1-2H3/t5-,6-,7-/m0/s1
