20
gdb 31507	3.142	1.07465	0.85396	0.799	84.55	-0.1992	0.0291	0.2283	1420.6504	0.170244	-403.193585	-403.183639	-403.182695	-403.228945	35.837	
C	-0.3926272094	 1.4293822722	-0.1736990552	-0.369952
C	 0.1154193556	-0.0121288375	 0.003028437	-0.291236
C	 0.9309695274	-0.4997083956	-1.1450308136	 0.378349
C	 2.2258012651	-0.8944827099	-1.2719203048	-0.394233
C	 2.4291107595	-1.2538960767	-2.6504325686	 0.279874
C	 3.6830122407	-1.7550940933	-3.2932048262	-0.506626
C	 1.2331316412	-1.0461494574	-3.2657881146	 0.16808
N	 0.8445017982	-1.2255759675	-4.5969887261	-0.597942
O	 0.3047013113	-0.583436554	-2.354939474	-0.211534
H	 0.4434969674	 2.1294219107	-0.2651167038	 0.120058
H	-1.0031800144	 1.5153340427	-1.076771072	 0.128344
H	-1.0031920837	 1.7339985947	 0.6818016413	 0.11052
H	 0.7301705151	-0.0866487144	 0.9059499229	 0.110997
H	-0.7437645682	-0.6795149462	 0.1535952952	 0.112084
H	 2.9572987109	-0.9321620833	-0.4782228996	 0.097304
H	 4.0339801652	-2.6812870687	-2.8231550906	 0.121666
H	 3.509378308	-1.9540365848	-4.3533313826	 0.137855
H	 4.498202494	-1.0265392978	-3.2103732675	 0.121534
H	 0.0705344614	-1.8776139093	-4.6838888135	 0.242449
H	 0.5583003149	-0.3541425841	-5.0337175433	 0.242409
51.9558	74.3472	121.6512	173.6714	195.5673	248.0887	251.3591	258.4376	308.0465	398.4237	490.5951	579.5216	653.4833	654.1952	693.068	779.538	783.26	807.0514	813.5999	952.1589	988.0887	1011.0995	1067.0369	1067.6806	1085.3269	1110.589	1174.4142	1214.5414	1249.661	1266.3057	1309.358	1355.4408	1400.894	1406.8832	1431.9849	1474.6157	1490.0843	1494.0859	1496.1235	1507.3587	1615.1671	1651.6155	1710.0539	3017.7072	3025.6207	3040.057	3072.1689	3075.7579	3110.7233	3120.6409	3123.5959	3240.8634	3486.2849	3548.8391
CCC1=CC(C)=C(N)O1	CCc1cc(C)c(N)o1	
InChI=1S/C7H11NO/c1-3-6-4-5(2)7(8)9-6/h4H,3,8H2,1-2H3	InChI=1S/C7H11NO/c1-3-6-4-5(2)7(8)9-6/h4H,3,8H2,1-2H3
