15
gdb 46646	2.28232	1.73997	1.49587	4.7468	68.67	-0.2706	-0.0346	0.2359	944.6088	0.113496	-416.825262	-416.817678	-416.816734	-416.858175	27.794	
O	 0.0079655512	-0.0051475533	 0.0276839526	-0.282114
C	-0.0412380637	 1.1866738252	-0.0064092401	 0.387932
C	-1.297357232	 2.0653948475	-0.018222331	-0.330057
C	-0.8061407631	 3.5254600254	 0.0066069464	-0.261631
C	 0.7207101671	 3.4157507898	 0.0158207789	-0.03416
C	 1.4104287962	 2.7843328023	 1.1830964792	-0.175341
C	 0.6714161339	 2.5114216275	 2.3908259204	 0.312079
N	 0.0765182666	 2.3145585448	 3.3631110123	-0.333986
N	 1.1505782421	 2.0189798967	-0.0695726899	-0.141875
H	-1.8838055152	 1.829726216	-0.9105361778	 0.14943
H	-1.9061988908	 1.7908589164	 0.8462819999	 0.167572
H	-1.1180325951	 4.0708533507	-0.8863482768	 0.126465
H	-1.1766894879	 4.077806594	 0.8738745327	 0.141255
H	 1.2976998296	 4.1222191771	-0.572883497	 0.120978
H	 2.464630851	 2.9837707297	 1.3515391604	 0.153454
50.3885	106.9639	131.7942	258.7778	344.0642	471.5151	516.1676	571.7666	615.0443	630.558	712.8688	727.898	796.8882	819.7541	861.6456	954.4658	958.8964	1013.6958	1041.0763	1069.032	1113.4538	1133.791	1181.3158	1254.2597	1260.0076	1275.8503	1324.8434	1351.418	1386.7402	1452.3963	1496.6728	1880.4983	2351.7446	3070.9261	3077.4475	3109.2913	3125.9698	3155.3115	3163.8155
O=C1CCC2C(C#N)N12	O=C1CC[C@H]2[C@@H](C#N)N12	
InChI=1S/C6H6N2O/c7-3-5-4-1-2-6(9)8(4)5/h4-5H,1-2H2	InChI=1S/C6H6N2O/c7-3-5-4-1-2-6(9)8(4)5/h4-5H,1-2H2/t4-,5+,8?/m0/s1
