15
gdb 54961	3.35837	1.04873	0.98507	4.608	67.26	-0.2695	-0.0244	0.2451	1212.7422	0.110822	-453.970339	-453.961278	-453.960333	-454.00426	32.613	
C	 1.0621760087	 0.8171853529	-0.5747138327	-0.473424
C	 0.051701266	-0.1013213655	 0.0740401597	 0.227824
O	 0.542137998	-1.2577661779	 0.7700512443	-0.267891
C	-0.1101521574	-0.2498984876	 1.5446896184	-0.079087
C	 0.7117368575	 0.549244848	 2.536129503	 0.356585
N	 2.0236424937	 0.1962859828	 2.5895632654	-0.519739
O	 0.1926766117	 1.4197652286	 3.2024161852	-0.345576
C	-1.1275846194	-0.3691221206	-0.7381444853	 0.267584
N	-2.0543316936	-0.5580260866	-1.4017602215	-0.320513
H	 1.8987541577	 1.0014020439	 0.0996942017	 0.148261
H	 1.4365659592	 0.3660314683	-1.4977343183	 0.151598
H	 0.5901899101	 1.7709929123	-0.8263920944	 0.157806
H	-1.097548444	-0.5096056527	 1.920537079	 0.146033
H	 2.3399402158	-0.6300984158	 2.1090874647	 0.278102
H	 2.6024983861	 0.6137662599	 3.3001623807	 0.272437
79.1309	111.4473	142.0787	198.2127	206.7157	275.6355	342.072	372.1178	389.957	474.0716	526.2438	572.9148	601.0777	615.0714	671.9272	753.4796	858.1526	902.3475	918.2716	1027.4403	1096.8433	1098.0377	1110.3767	1236.1935	1303.4965	1353.3777	1418.0544	1424.2707	1486.7111	1493.9515	1602.5738	1812.9894	2361.2923	3056.2801	3125.9025	3149.1115	3156.8652	3592.0995	3728.5645
CC1(OC1C(N)=O)C#N	C[C@]1(O[C@H]1C(=O)N)C#N	
InChI=1S/C5H6N2O2/c1-5(2-6)3(9-5)4(7)8/h3H,1H3,(H2,7,8)	InChI=1S/C5H6N2O2/c1-5(2-6)3(9-5)4(7)8/h3H,1H3,(H2,7,8)/t3-,5-/m0/s1
