21
gdb 73696	2.64112	1.8757	1.29877	2.0853	81.4	-0.2299	0.0739	0.3039	1033.9225	0.184368	-387.044756	-387.037278	-387.036334	-387.076097	31.242	
C	 0.0143817739	 1.5496126503	-0.050444713	-0.483198
C	-0.0152294778	 0.028787176	-0.0225834222	 0.356606
C	 0.3256463866	-0.5925763683	-1.3855376971	-0.283555
C	-0.2068393288	-2.0236694065	-1.5188832769	-0.209395
C	 0.0410146231	-2.8069004171	-0.2239999284	-0.243343
C	-0.2500749904	-1.9240369319	 0.9843191758	 0.003912
C	 0.6032239784	-0.6547020847	 1.2393855191	 0.004499
O	-0.4993844303	-0.1177918801	 2.065220568	-0.315695
C	-1.1387163816	-0.6496691661	 0.8441329798	-0.017483
H	 0.9888403055	 1.9085567547	-0.4023560796	 0.109784
H	-0.7418891204	 1.9384665478	-0.7420738862	 0.109485
H	-0.1734073382	 1.9612979164	 0.9418137691	 0.138475
H	-0.0808652825	 0.0354269729	-2.1868286754	 0.096911
H	 1.4171943887	-0.5733918948	-1.5126658869	 0.097767
H	-1.28879423	-1.9786825249	-1.6974295742	 0.100572
H	 0.2310215655	-2.5303241802	-2.3848694866	 0.093155
H	-0.5835417782	-3.7065926469	-0.1952515863	 0.099462
H	 1.0818433681	-3.1541114139	-0.1723247966	 0.099503
H	-0.4517083794	-2.4723686771	 1.9066670182	 0.078837
H	 1.6173328391	-0.5726828678	 1.6380685953	 0.080808
H	-2.2246119011	-0.5578083577	 0.7745852141	 0.082893
175.6498	206.3862	231.9664	329.2985	339.1487	375.524	429.1377	476.1886	586.6007	652.7515	671.7322	744.3364	773.7233	826.8634	871.6947	876.9288	899.8415	905.07	933.4183	950.5848	1028.2506	1036.0629	1048.8942	1090.0162	1104.0159	1142.6642	1154.4196	1183.4309	1199.4737	1211.3962	1221.8474	1233.2646	1260.8744	1294.3985	1315.7104	1354.0058	1369.6489	1377.4558	1393.7967	1401.4119	1483.4682	1487.1797	1492.7913	1503.4575	1507.0101	3010.1389	3016.5678	3022.9674	3028.8115	3054.9269	3061.5927	3076.9141	3081.5887	3085.4225	3091.3295	3102.8088	3143.3169
CC12CCCC3C1OC23	C[C@@]12CCC[C@H]3[C@@H]1O[C@@H]23	
InChI=1S/C8H12O/c1-8-4-2-3-5-6(8)9-7(5)8/h5-7H,2-4H2,1H3	InChI=1S/C8H12O/c1-8-4-2-3-5-6(8)9-7(5)8/h5-7H,2-4H2,1H3/t5-,6-,7+,8+
