14
gdb 24501	4.08452	1.68958	1.19519	5.0913	75.98	-0.236	-0.0254	0.2107	942.7932	0.106664	-395.820391	-395.814516	-395.813572	-395.850472	23.798	
N	-0.0238951473	 1.364293699	 0.0099296347	-0.39011
C	 1.296222655	 1.7634832778	-0.0007233876	 0.014667
N	 2.1427061941	 0.7728843459	-0.0142291436	-0.324806
C	 1.345652368	-0.3644617409	-0.0126976299	 0.217924
C	-0.0208783893	-0.0122392314	 0.0024212673	 0.360615
C	-1.0107395145	-0.9903686611	 0.0066860907	-0.277166
C	-0.5492962348	-2.3007089992	-0.0048812615	 0.018675
N	 0.7470914667	-2.668093998	-0.0194029332	-0.283277
C	 1.6792894727	-1.7203015809	-0.0232736455	-0.07231
H	-0.8286251799	 1.9678193663	 0.021019683	 0.271103
H	 1.5602089213	 2.8120117335	 0.0023974041	 0.14159
H	-2.0709417889	-0.7650131769	 0.01816291	 0.097488
H	-1.266348054	-3.1176003898	-0.0023730041	 0.106951
H	 2.7196112809	-2.0355490243	-0.035037736	 0.118658
228.4343	253.9787	416.0404	423.3986	478.225	562.7119	621.1993	637.6899	663.75	809.2443	810.7943	832.166	873.5357	894.7627	947.8023	954.9697	980.477	1052.0482	1091.7621	1192.2137	1213.4807	1279.9899	1297.3142	1325.8235	1367.6761	1413.7843	1472.3428	1489.3011	1537.1854	1610.6944	1658.1747	3159.333	3164.3588	3194.9594	3241.4882	3668.8648
N1C=NC2=C1C=CN=C2	[nH]1cnc2c1ccnc2	
InChI=1S/C6H5N3/c1-2-7-3-6-5(1)8-4-9-6/h1-4H,(H,8,9)	InChI=1S/C6H5N3/c1-2-7-3-6-5(1)8-4-9-6/h1-4H,(H,8,9)
