14
gdb 29894	3.35884	1.50172	1.04453	4.4612	68.76	-0.263	-0.055	0.208	1066.4601	0.102046	-470.069085	-470.06127	-470.060326	-470.102176	27.734	
C	 0.2700662723	 1.4581957156	-0.0039502526	-0.336083
N	-0.0230748527	 0.0274452591	-0.0071234969	-0.159746
C	-0.3502331487	-0.6582417444	-1.1495631878	 0.109368
N	-0.6179026085	-1.9064792789	-1.2262783057	-0.287361
C	-0.5787007354	-2.6476448571	-0.0616019604	 0.432315
N	-0.8240165428	-3.881828661	-0.0195910414	-0.498272
O	-0.2428667288	-1.9685083494	 1.1423633413	-0.257805
C	 0.0383766722	-0.648166115	 1.2115775702	 0.497662
O	 0.3176741792	-0.1091022771	 2.2441431726	-0.360197
H	 1.282920694	 1.637281623	 0.3627461505	 0.165537
H	 0.1789165534	 1.8326742944	-1.0246065466	 0.142571
H	-0.4310885052	 1.9877338548	 0.6443934972	 0.165568
H	-0.3740368562	-0.0513892266	-2.0524169707	 0.146423
H	-0.7391456127	-4.2307678475	 0.9345157004	 0.24002
68.4481	96.6369	140.8015	207.0095	318.7237	389.777	423.9427	477.4562	557.7897	617.9252	724.9965	750.4512	775.306	836.1792	879.5502	968.0853	985.604	987.0311	1100.5109	1124.9537	1158.8899	1230.2833	1339.3655	1383.5484	1431.6461	1472.8374	1474.0755	1517.812	1712.3527	1755.5615	1865.4724	3060.7887	3134.6209	3151.1475	3160.8546	3512.442
CN1C=NC(=N)OC1=O	CN1[CH]N=C([NH])OC1=O	
InChI=1S/C4H5N3O2/c1-7-2-6-3(5)9-4(7)8/h2,5H,1H3	InChI=1S/C4H5N3O2/c1-7-2-6-3(5)9-4(7)8/h2,5H,1H3
