20
gdb 89039	3.17793	0.96989	0.87083	3.1498	76.51	-0.2224	0.0568	0.2792	1396.1792	0.170943	-436.46966	-436.459727	-436.458782	-436.505375	36.205	
C	-0.0211142791	 1.7084113384	 0.5856182948	-0.322163
N	 0.0448474081	 0.280078525	 0.2975429551	-0.073696
C	 1.306156016	-0.2678055314	-0.1778047364	-0.252372
C	 0.7814865065	-0.6289228512	 1.1719813087	 0.002767
C	 1.5399572951	-0.2067022047	 2.4165498519	-0.188136
N	 0.6865081395	 0.0118466574	 3.5759616168	-0.337234
C	 0.5147390687	 1.2711428011	 4.1038288015	 0.45849
N	-0.4666414986	 1.3399362441	 5.0878699172	-0.562513
O	 1.1417691722	 2.2504519861	 3.7389432797	-0.395081
H	 0.8729641238	 2.1302579979	 1.0632470139	 0.129643
H	-0.1946373709	 2.2369988804	-0.3571800761	 0.116491
H	-0.8732558216	 1.9025891786	 1.2440200136	 0.126106
H	 1.2494728845	-0.9665504807	-1.0089839391	 0.111411
H	 2.1737524432	 0.3928542005	-0.1999728932	 0.106573
H	 0.2860986981	-1.5960770874	 1.279047394	 0.080014
H	 2.2757635376	-0.9896201787	 2.6453033119	 0.106537
H	 2.0904125459	 0.7228012395	 2.2684009433	 0.148928
H	-0.0252595368	-0.6773571057	 3.7617511075	 0.237709
H	-0.609682639	 0.522746003	 5.662771982	 0.245856
H	-0.4166675531	 2.2002620078	 5.612543153	 0.260669
36.2764	71.0025	93.5201	164.9228	214.9953	279.9632	322.3669	336.3187	365.5818	392.2018	450.4624	501.8599	559.5063	561.8564	659.992	747.3464	775.3016	789.5532	913.5526	923.7346	1007.5496	1036.4512	1083.6031	1094.2545	1118.6033	1126.9396	1152.0083	1161.5186	1190.9676	1201.3231	1269.0423	1321.9276	1344.5811	1378.0706	1425.0584	1455.1925	1478.8916	1490.4822	1502.3312	1516.1036	1546.9026	1628.5572	1793.8185	3012.1883	3014.8703	3077.0058	3078.7396	3081.2747	3104.7333	3135.7391	3165.9573	3571.6357	3623.5797	3684.9409
CN1CC1CNC(N)=O	CN1C[C@H]1CNC(=O)N	
InChI=1S/C5H11N3O/c1-8-3-4(8)2-7-5(6)9/h4H,2-3H2,1H3,(H3,6,7,9)	InChI=1S/C5H11N3O/c1-8-3-4(8)2-7-5(6)9/h4H,2-3H2,1H3,(H3,6,7,9)/t4-,8?/m1/s1
