15
gdb 124114	3.50472	0.97128	0.7678	4.5288	81.47	-0.2353	-0.0374	0.1979	1439.7592	0.110324	-416.779278	-416.770144	-416.769199	-416.815732	31.019	
C	-0.1021875978	 1.4721949673	-0.0480255307	-0.508412
C	-0.0280378694	 0.0205234142	-0.0271140678	 0.172872
C	 0.0241892106	-1.1842296416	-0.0096319307	-0.044497
C	 0.0852478362	-2.5919474825	 0.0111940469	 0.076145
C	 1.1763829708	-3.42488865	 0.0130630266	 0.288195
C	 2.6352607836	-3.155089439	-0.0052340619	-0.508686
O	 0.7477160367	-4.6809561098	 0.0360071924	-0.208204
N	-0.7010537257	-4.6219107838	 0.0491780972	-0.02336
N	-1.0310979447	-3.4169843299	 0.0344504712	-0.189337
H	 0.8985043	 1.9166765133	-0.0211417082	 0.15423
H	-0.6025086657	 1.8310964173	-0.9542079424	 0.157939
H	-0.6594298215	 1.8526835946	 0.8150681631	 0.158379
H	 3.1196214778	-3.5791614031	 0.8801727327	 0.159214
H	 3.1027799894	-3.6061419624	-0.8863350139	 0.159217
H	 2.8089948095	-2.0779064346	-0.0232400046	 0.156304
9.2643	85.52	106.5719	119.9689	240.2933	252.925	302.9965	354.2335	479.5034	501.0186	531.9942	610.4845	660.9677	690.5029	746.4503	982.6645	1008.829	1023.8704	1049.8716	1052.8148	1065.6295	1150.1119	1286.2253	1387.409	1411.7841	1426.5709	1472.4069	1476.2362	1476.3742	1479.3911	1488.8089	1621.6511	2365.6233	3028.8872	3045.3075	3090.3084	3094.2063	3104.157	3144.8246
CC#CC1=C(C)ON=N1	CC#Cc1c(C)onn1	
InChI=1S/C6H6N2O/c1-3-4-6-5(2)9-8-7-6/h1-2H3	InChI=1S/C6H6N2O/c1-3-4-6-5(2)9-8-7-6/h1-2H3
