17
gdb 97630	3.08602	0.71236	0.59617	2.8811	78.71	-0.257	-0.0049	0.2521	1825.4137	0.134148	-417.959885	-417.949339	-417.948395	-417.99803	35.392	
C	 0.0266582731	 1.4124869472	-0.3229860052	-0.330569
N	-0.0298207441	 0.0342066669	 0.1600669509	-0.264516
C	-1.3759610141	-0.5297837559	 0.2045484924	-0.296508
C	-2.05417064	-0.5442961606	-1.1250222829	 0.278926
N	-2.5252884295	-0.5158962881	-2.1801595389	-0.32843
C	-1.3625711801	-1.8839091136	 0.7623529893	 0.010609
C	-1.3499905801	-2.9959323747	 1.2211064021	 0.169613
C	-1.3585575938	-4.3698044469	 1.728866808	-0.196944
O	-2.5185307928	-5.0961013993	 1.3596359904	-0.396557
H	 1.0703735935	 1.7351948754	-0.3336873651	 0.132858
H	-0.3966180336	 1.558209042	-1.3288160368	 0.129827
H	-0.5167554829	 2.0609350781	 0.3730365692	 0.131225
H	 0.5631684916	-0.5683075473	-0.4010104726	 0.236539
H	-1.9784020243	 0.1228252009	 0.8527345899	 0.157713
H	-0.437410744	-4.8783981311	 1.4026851064	 0.12461
H	-1.3444901301	-4.3625724667	 2.8241375028	 0.147951
H	-2.6022035488	-5.0490397763	 0.4012415803	 0.293651
10.9047	63.1814	89.444	122.0921	171.7678	177.7643	236.2908	268.8097	317.7734	332.9812	389.5412	468.3387	500.3942	594.9502	616.4743	744.5915	834.651	905.8218	979.783	989.215	1055.667	1121.4597	1154.0463	1165.0253	1188.002	1216.0874	1313.9039	1328.6335	1362.0907	1418.015	1458.1034	1484.9362	1490.1233	1491.9836	1519.1272	2345.5106	2374.2432	2980.1074	2988.0602	3009.467	3067.8476	3070.0413	3120.1712	3532.9055	3813.9363
CNC(C#N)C#CCO	CN[C@@H](C#N)C#CCO	
InChI=1S/C6H8N2O/c1-8-6(5-7)3-2-4-9/h6,8-9H,4H2,1H3	InChI=1S/C6H8N2O/c1-8-6(5-7)3-2-4-9/h6,8-9H,4H2,1H3/t6-/m1/s1
