14
gdb 54243	2.43292	1.45966	1.34583	4.3096	58.09	-0.2637	-0.0222	0.2415	1001.539	0.099538	-511.006899	-510.998059	-510.997115	-511.041284	31.087	
N	-0.0536441025	 1.3670543309	-0.0674815025	-0.535209
C	 0.0724310578	 0.0297148318	 0.0703916195	 0.385002
O	 1.113823735	-0.5616117384	 0.2783453726	-0.365068
C	-1.2603717149	-0.7365982031	-0.0183948734	 0.118418
O	-2.2709651266	 0.0595108998	-0.5844044113	-0.483222
C	-1.0761762716	-2.1918051566	-0.5075908599	-0.106521
O	-1.3489168168	-2.6881973161	 0.8509224015	-0.231105
C	-1.6245463181	-1.4427901824	 1.3152526897	 0.40081
O	-2.0733058196	-1.1104206815	 2.3643012359	-0.323725
H	 0.7722483261	 1.9398733083	-0.0208903211	 0.270802
H	-0.9455425575	 1.7669834874	-0.3032809746	 0.277259
H	-3.0877436553	-0.0666370293	-0.0889161686	 0.307382
H	-1.8446285829	-2.5321729615	-1.2029334736	 0.128165
H	-0.0687279332	-2.4606850292	-0.8181388141	 0.157011
38.83	103.6598	130.5292	150.8168	263.7537	293.3223	342.9285	372.1242	445.1674	514.026	532.9101	631.6821	672.179	718.4704	756.4691	824.802	902.5445	932.7319	1005.2555	1095.3566	1112.0055	1145.6959	1167.8751	1229.7814	1316.9283	1348.0072	1392.0497	1488.2322	1593.189	1803.8968	1933.3852	3093.0433	3180.9751	3605.8469	3745.1386	3808.5573
NC(=O)C1(O)COC1=O	NC(=O)[C@@]1(O)COC1=O	
InChI=1S/C4H5NO4/c5-2(6)4(8)1-9-3(4)7/h8H,1H2,(H2,5,6)	InChI=1S/C4H5NO4/c5-2(6)4(8)1-9-3(4)7/h8H,1H2,(H2,5,6)/t4-/m0/s1
