17
gdb 76729	3.38501	0.86171	0.82549	2.6464	65.27	-0.2441	-0.033	0.2111	1414.2812	0.132457	-496.056172	-496.046677	-496.045733	-496.091807	33.403	
O	-0.359000881	 1.1995297069	-0.3293797555	-0.421939
C	-0.1505214748	-0.1554474242	-0.100268041	 0.051614
C	-0.4000893251	-0.6428381828	 1.3131791319	 0.018681
O	-0.8377562779	 0.3531343433	 2.193624455	-0.43032
C	-1.3527738842	-1.0416160138	 0.2114382928	 0.011038
O	-2.6105112908	-0.4536636514	 0.3277971115	-0.275438
C	-3.1780416875	-0.0388832238	-0.9067333492	-0.152441
C	-4.5106224665	 0.6213431448	-0.609833741	 0.142376
O	-5.2851205979	 0.9679658872	-1.4603245217	-0.23373
H	-0.4434479697	 1.6018166744	 0.5493848183	 0.293392
H	 0.6618889382	-0.5816164789	-0.6825891477	 0.106225
H	 0.2445585349	-1.3833015661	 1.7763800716	 0.109455
H	-1.8021660504	 0.3794909273	 2.1218487146	 0.303037
H	-1.3548275809	-2.0716596747	-0.1447686156	 0.098849
H	-2.5211723805	 0.6791694314	-1.4141892857	 0.161965
H	-3.3431829558	-0.8932984687	-1.5790123371	 0.12871
H	-4.7089378402	 0.7665583191	 0.4761014786	 0.088526
51.3674	53.62	102.1063	140.4153	215.4709	234.1354	294.5376	334.8614	360.7942	478.7304	564.1955	615.1576	678.0124	711.4343	748.0874	755.7026	790.4538	950.3263	1032.4186	1040.6468	1080.3445	1090.7061	1108.3943	1113.2745	1157.425	1171.6062	1236.8752	1246.3353	1324.7033	1333.428	1360.0228	1381.9723	1395.3837	1417.4023	1448.739	1473.6388	1847.3784	2884.7746	3006.8081	3061.6243	3103.1893	3145.1727	3158.6534	3693.664	3748.057
OC1C(O)C1OCC=O	O[C@H]1[C@@H](O)[C@H]1OCC=O	
InChI=1S/C5H8O4/c6-1-2-9-5-3(7)4(5)8/h1,3-5,7-8H,2H2	InChI=1S/C5H8O4/c6-1-2-9-5-3(7)4(5)8/h1,3-5,7-8H,2H2/t3-,4+,5-
