16
gdb 84203	3.78707	1.06435	0.83954	4.5602	79.4	-0.233	-0.058	0.175	1303.4174	0.123806	-437.952826	-437.944304	-437.94336	-437.986401	30.32	
C	 0.0013234282	 1.476861003	 0.0063818875	-0.355873
N	 0.0095385244	 0.0282979521	-0.0266338511	-0.088895
C	 0.038203758	-0.7686267635	-1.1516274071	-0.062428
C	 0.0380495348	-2.0873945118	-0.8472904345	 0.132105
C	 0.0057336916	-2.2168064963	 0.652652201	-0.46691
C	-0.0121271821	-0.7655109901	 1.1357395608	 0.425203
O	-0.0390238372	-0.3271771228	 2.2588087601	-0.357525
C	 0.0644324369	-3.1721656715	-1.8017902591	 0.074942
O	 0.0637739796	-4.3513744564	-1.507498886	-0.295925
H	 0.8999058902	 1.8877930532	-0.4648721656	 0.141644
H	-0.8827254769	 1.8786761827	-0.4990483875	 0.141678
H	-0.0204307023	 1.7706886671	 1.0569105049	 0.177054
H	 0.0575110105	-0.3107205447	-2.1327071185	 0.147617
H	-0.8767577108	-2.7476120671	 1.0245006012	 0.165438
H	 0.8762949445	-2.7388562951	 1.063022801	 0.165438
H	 0.0861966607	-2.8441517786	-2.866577227	 0.056436
96.6705	112.9635	152.4638	155.4523	203.7388	295.547	347.0996	441.8314	444.7153	502.1788	589.6533	645.5808	723.9019	804.9347	893.8326	912.9137	949.4944	1032.8804	1036.8824	1097.4984	1143.4149	1154.232	1187.4668	1224.2475	1312.0641	1371.6066	1392.9296	1429.6874	1430.4383	1468.2069	1497.2047	1506.5055	1657.5956	1767.5297	1837.0675	2862.0104	3036.2391	3062.8237	3096.0661	3096.6764	3150.5422	3219.798
CN1C=C(CC1=O)C=O	CN1C=C(CC1=O)C=O	
InChI=1S/C6H7NO2/c1-7-3-5(4-8)2-6(7)9/h3-4H,2H2,1H3	InChI=1S/C6H7NO2/c1-7-3-5(4-8)2-6(7)9/h3-4H,2H2,1H3
