21
gdb 96091	2.82402	1.29909	1.00959	1.5941	78.57	-0.2544	0.078	0.3324	1234.4894	0.18311	-424.224006	-424.21558	-424.214636	-424.256764	33.18	
C	 0.0160910561	 1.5331263562	 0.0558908791	-0.400658
C	 0.0229386368	 0.0127726462	 0.013058691	 0.135538
C	 0.6884531315	-0.5493672862	-1.2561750565	-0.278411
C	 0.7929712092	-2.0585472313	-1.16868813	 0.441014
C	-0.1451620331	-2.9207191628	-1.9044685709	-0.246604
O	 1.2003159987	-2.737690561	-2.3589818603	-0.295306
C	 1.4208360176	-2.5255716321	 0.1280853149	-0.283151
C	 0.7109154792	-1.8468187981	 1.3075745922	-0.079211
O	 0.7104521304	-0.4373107672	 1.1758882462	-0.25783
H	 1.0396919188	 1.9191902408	 0.0262896614	 0.125035
H	-0.5340205616	 1.9398595947	-0.7978534684	 0.114533
H	-0.4564324969	 1.8849871493	 0.976658952	 0.123792
H	-1.0173313416	-0.3585295757	 0.0527689721	 0.062078
H	 0.1275190298	-0.2527147939	-2.148037755	 0.100581
H	 1.697097653	-0.1247557361	-1.3401666551	 0.108379
H	-0.3789919358	-3.9164080353	-1.5285821501	 0.110254
H	-0.9147221977	-2.4745633454	-2.5338101712	 0.109609
H	 1.367541038	-3.6149503389	 0.2192522329	 0.101855
H	 2.4798777539	-2.2403952781	 0.1357543541	 0.113105
H	-0.3246317582	-2.2208483493	 1.3847429222	 0.085857
H	 1.2185042117	-2.0682721859	 2.2505018995	 0.109541
112.9619	132.7751	218.573	248.7622	286.2332	352.6941	357.0384	408.0618	448.306	464.8249	494.37	592.9293	733.1142	820.0185	861.116	877.497	899.5639	926.695	932.6972	964.8716	982.7844	1061.2063	1083.8968	1116.7243	1129.4189	1150.8071	1161.4684	1165.7039	1201.6437	1220.4329	1275.7605	1286.2903	1311.3539	1356.5534	1376.7127	1389.4868	1405.3238	1413.0494	1435.636	1469.5253	1481.8421	1487.0199	1497.4847	1503.505	1532.9266	2935.648	2959.8084	3028.8064	3037.374	3043.1063	3076.2446	3086.005	3087.4612	3091.0601	3116.9216	3122.9952	3160.8226
CC1CC2(CO2)CCO1	C[C@H]1C[C@]2(CO2)CCO1	
InChI=1S/C7H12O2/c1-6-4-7(5-9-7)2-3-8-6/h6H,2-5H2,1H3	InChI=1S/C7H12O2/c1-6-4-7(5-9-7)2-3-8-6/h6H,2-5H2,1H3/t6-,7-/m0/s1
