21
gdb 41841	2.77338	1.94257	1.69241	1.6554	79.61	-0.2353	0.079	0.3143	918.0218	0.188254	-387.125041	-387.11864	-387.117696	-387.155584	27.745	
C	-0.0633866514	 1.5425036759	-0.1791193936	-0.084456
O	 1.2202040186	 2.0403522947	 0.1992816733	-0.276285
C	 2.1036722569	 0.9427313326	 0.4278517725	 0.12888
C	 2.150873019	 0.5257814548	 1.9304121834	-0.232041
C	 1.2938335459	-0.7557907336	 1.9558750971	-0.008106
C	-0.1526863916	-0.4008919485	 1.5422154642	-0.227104
C	-0.0123277769	 0.0319821351	 0.04394576	-0.028016
C	 1.4760825039	-0.300408205	-0.2553708562	-0.045966
C	 1.8050517999	-1.4683985875	 0.6852518721	-0.2315
H	-0.8350769982	 2.040065523	 0.4212153631	 0.096392
H	-0.253160506	 1.7805661682	-1.2365494878	 0.087924
H	 3.0852561709	 1.2297026964	 0.0422122396	 0.072618
H	 3.1771245193	 0.3036294364	 2.2425759952	 0.089521
H	 1.7702982939	 1.3322329158	 2.5625068048	 0.101159
H	 1.3608249649	-1.3228409867	 2.8862484328	 0.05594
H	-0.800297702	-1.2788270099	 1.6306101797	 0.093547
H	-0.5858339881	 0.3898489877	 2.1629725685	 0.096175
H	-0.7175447668	-0.4958901881	-0.6016105147	 0.066718
H	 1.7191773459	-0.4147017806	-1.3124784132	 0.060334
H	 2.8726658085	-1.7077557325	 0.723934729	 0.092478
H	 1.2514160532	-2.3810685882	 0.4424521301	 0.091786
118.2778	306.4433	359.5309	421.735	444.1296	542.8055	565.3053	722.5275	768.3982	791.2051	806.9567	838.1479	867.9512	897.7482	918.7825	944.7983	957.8945	962.3204	976.504	987.0238	1008.4367	1018.9669	1058.3375	1102.0242	1109.2708	1127.6934	1148.3262	1165.8026	1185.1599	1219.4695	1237.3067	1276.3776	1279.7458	1288.9793	1299.6306	1315.654	1328.898	1348.213	1351.1527	1363.426	1398.5374	1478.763	1488.7442	1510.7651	1526.0177	2987.6142	3039.5214	3041.3011	3043.6282	3046.5178	3072.9614	3078.5368	3089.0378	3092.6034	3095.5592	3103.1685	3109.2689
C1OC2CC3CC1C2C3	C1O[C@H]2C[C@H]3C[C@@H]1[C@@H]2C3	
InChI=1S/C8H12O/c1-5-2-7-6(1)4-9-8(7)3-5/h5-8H,1-4H2	InChI=1S/C8H12O/c1-5-2-7-6(1)4-9-8(7)3-5/h5-8H,1-4H2/t5-,6-,7-,8-/m0/s1
