19
gdb 37640	3.12888	2.27708	2.02386	0.1836	79.57	-0.2371	0.0861	0.3232	798.981	0.163881	-348.700585	-348.695206	-348.694262	-348.729824	25.142	
C	-0.0633000618	 1.5671607422	 0.0565414174	-0.236531
C	 1.4940396779	 1.5231567264	-0.0097185038	-0.056245
C	 2.0860482995	 1.2848584748	 1.3744999797	-0.049897
C	 1.359918886	 0.2325542631	 2.191473439	-0.08869
C	 2.7043410474	-0.0779301349	 1.5341228812	-0.093339
C	 1.9612050076	-0.8914225978	 0.4487009313	-0.057602
C	 0.6069440657	-0.6890054757	 1.2051958421	-0.0429
C	-0.0370514875	 0.0290418089	-0.037886659	-0.039301
C	 1.41037325	 0.0829349627	-0.6356333349	-0.044062
H	-0.5111147717	 2.0325904056	 0.9409900385	 0.086866
H	-0.5021953833	 2.0077799717	-0.8437361701	 0.091685
H	 2.0100448913	 2.3060702576	-0.5690385044	 0.059121
H	 2.5073730218	 2.1161044722	 1.929586513	 0.078998
H	 1.1233745789	 0.3822016662	 3.2381260221	 0.077966
H	 3.6721590909	-0.2727193213	 1.9782069973	 0.080751
H	 2.3196574349	-1.8767435557	 0.1568863006	 0.06011
H	 0.0761091252	-1.5282620017	 1.654302215	 0.061047
H	-0.8639895569	-0.5058373761	-0.5079786797	 0.054904
H	 1.6418191642	-0.0355650982	-1.6944081154	 0.05712
328.4594	403.2809	547.9559	618.8284	656.7669	664.9536	724.2287	759.7754	779.6874	815.2553	827.7799	855.6198	862.1165	905.1649	914.3429	939.421	945.8265	952.0542	971.6747	987.541	1016.9266	1023.9491	1060.2479	1066.8189	1078.6648	1100.6533	1125.2422	1128.2985	1187.923	1202.2352	1210.9981	1224.3943	1236.8994	1255.6165	1277.4419	1281.6818	1289.7548	1319.8819	1332.0201	1390.5038	1484.9662	3037.3708	3080.0038	3086.0795	3092.816	3105.1858	3107.8265	3131.6911	3167.9113	3175.9005	3194.6383
C1C2C3C4C3C3C4C1C23	C1[C@H]2[C@H]3[C@@H]4[C@H]3[C@H]3[C@@H]4[C@@H]1[C@@H]23	
InChI=1S/C9H10/c1-2-4-3(1)6-8-5(2)7(4)9(6)8/h2-9H,1H2	InChI=1S/C9H10/c1-2-4-3(1)6-8-5(2)7(4)9(6)8/h2-9H,1H2/t2-,3+,4-,5-,6-,7+,8+,9+/m0/s1
