19
gdb 59861	2.5344	1.17271	0.9252	0.9074	75.41	-0.2137	-0.0573	0.1564	1321.4352	0.157153	-456.373933	-456.363472	-456.362527	-456.410352	36.733	
C	 0.5979037031	 1.0187771781	-0.2626590261	-0.326316
N	-0.3581322277	-0.0502258103	-0.0369046413	-0.05248
C	 0.0856990672	-1.0639906073	 0.9036954138	-0.327343
C	-1.7180152962	 0.4351237242	 0.1865103167	-0.250425
C	-2.3067845133	 0.4834523692	-1.2096286986	 0.321482
O	-2.3634920543	 1.4760616362	-1.9015243078	-0.32353
C	-2.7558652326	-0.8908818704	-1.7636700492	 0.335975
N	-3.0657786986	-0.8303978776	-3.0768717745	-0.517427
O	-2.8318028041	-1.8788081985	-1.0565258118	-0.359629
H	 1.551094045	 0.5979338067	-0.5973893946	 0.120379
H	 0.2269401433	 1.6886421819	-1.0437603608	 0.139104
H	 0.7873206314	 1.6249480063	 0.6433128885	 0.09613
H	 0.1826564008	-0.6863269919	 1.9385347717	 0.094414
H	-0.6217862656	-1.8968712738	 0.8970978136	 0.147798
H	 1.0634741365	-1.4448859967	 0.5920507152	 0.119158
H	-2.2721299459	-0.2851452821	 0.789255443	 0.13517
H	-1.7596346795	 1.4259710363	 0.6601088259	 0.102395
H	-3.0117680248	 0.0593113942	-3.5458410112	 0.277617
H	-3.4141717549	-1.6458336045	-3.5509817825	 0.267528
40.0261	65.3402	72.9943	129.2058	231.8077	246.7377	252.3443	304.4217	325.1794	365.6338	408.1371	429.1834	485.6815	520.1534	565.6883	658.2967	724.4485	798.2167	865.411	968.1179	1061.2351	1073.832	1091.0916	1122.9749	1128.5203	1182.8567	1215.1055	1309.4432	1316.9461	1360.4907	1387.4175	1443.0563	1457.2075	1483.4299	1488.7538	1498.2471	1500.7788	1513.2139	1588.1189	1790.6248	1804.3273	2929.5699	2937.3655	3005.8331	3065.6478	3068.8926	3112.8036	3119.4166	3131.9603	3597.34	3738.7353
CN(C)CC(=O)C(N)=O	CN(C)CC(=O)C(=O)N	
InChI=1S/C5H10N2O2/c1-7(2)3-4(8)5(6)9/h3H2,1-2H3,(H2,6,9)	InChI=1S/C5H10N2O2/c1-7(2)3-4(8)5(6)9/h3H2,1-2H3,(H2,6,9)
