17
gdb 82007	2.5762	1.43928	1.30366	3.2135	72.61	-0.2541	0.0028	0.2569	1052.2589	0.134941	-417.967673	-417.959036	-417.958091	-418.000615	32.446	
C	-0.2209503801	 1.542076894	 0.033296144	-0.41713
C	 0.040508992	 0.052193376	-0.0580358782	-0.005698
N	 0.712571601	-0.4728758578	-1.3012181571	-0.133119
C	 2.0905339274	 0.0473248222	-1.3116858838	-0.256249
C	 1.7886911984	-1.0909128154	-0.4254208868	-0.046319
C	 1.1521214713	-0.5891280483	 0.8685321757	 0.223807
O	 2.0037363584	 0.2665669066	 1.5972538422	-0.457729
C	 0.6230053207	-1.6532508433	 1.7291559475	 0.227776
N	 0.1912344428	-2.4580804697	 2.4378952556	-0.333374
H	 0.6991642434	 2.1287255397	 0.0721892437	 0.133716
H	-0.8049494536	 1.8644130548	-0.8343932393	 0.140156
H	-0.8020216191	 1.770788635	 0.9328944492	 0.125529
H	-0.8945359625	-0.5022782417	 0.0487548234	 0.112512
H	 2.6106516183	-0.1838685185	-2.235685186	 0.133147
H	 2.3223074433	 1.0180951124	-0.887953144	 0.1375
H	 2.1581882751	-2.0977467164	-0.5786728558	 0.119096
H	 1.5655251833	 0.5177587204	 2.4188398898	 0.296378
116.7272	148.8869	172.4094	203.3982	219.6476	292.2432	316.763	399.0148	474.923	502.9315	554.6729	572.968	655.0339	745.7136	779.1136	799.3301	906.1413	931.7092	1004.6812	1046.2889	1068.4002	1074.9677	1105.8247	1108.512	1117.3291	1177.5731	1183.3813	1231.2424	1282.9919	1321.4086	1369.3084	1395.2511	1405.2207	1483.3355	1492.4611	1508.8501	2350.7291	3043.0339	3082.9626	3107.7341	3130.3835	3136.4095	3189.3084	3223.0619	3800.1656
CC1N2CC2C1(O)C#N	C[C@H]1N2C[C@H]2[C@]1(O)C#N	
InChI=1S/C6H8N2O/c1-4-6(9,3-7)5-2-8(4)5/h4-5,9H,2H2,1H3	InChI=1S/C6H8N2O/c1-4-6(9,3-7)5-2-8(4)5/h4-5,9H,2H2,1H3/t4-,5+,6+,8?/m1/s1
