19
gdb 35752	3.02575	1.44894	1.2954	2.089	79.72	-0.2376	0.0537	0.2913	1054.1352	0.16086	-385.847662	-385.840017	-385.839073	-385.879612	30.804	
C	-0.0385872036	-1.2307670818	-0.3239603684	-0.476708
C	-0.0155253348	-0.0427052116	-0.1427145629	 0.346194
C	-0.0026751646	 1.400959388	 0.0684348024	-0.174154
C	-0.6824098999	 1.8286750905	 1.4122694385	-0.237166
C	 0.3369935031	 2.0009070085	 2.5641277583	-0.199488
C	 1.6895914851	 2.429964124	 1.9967113354	 0.101331
C	 1.5542779398	 3.3156926699	 0.7373800316	-0.268733
C	 1.4472753022	 1.9383623593	 0.0511261823	 0.092682
O	 2.1684298695	 1.3389782022	 1.1555588298	-0.285016
H	-0.0495406876	-2.2807488478	-0.4806671939	 0.193201
H	-0.5523415839	 1.8715398327	-0.7583323314	 0.100691
H	-1.1884421408	 2.7833260169	 1.2394497752	 0.104038
H	-1.4609063543	 1.1114690089	 1.6801701016	 0.115348
H	-0.0374310483	 2.7319186787	 3.2901590615	 0.094577
H	 0.4913333022	 1.0576095347	 3.0978483727	 0.120153
H	 2.4165937688	 2.7066962505	 2.7647577398	 0.076084
H	 0.7211818292	 4.0177260033	 0.6631733543	 0.099413
H	 2.4920961382	 3.8142891153	 0.4893557732	 0.112782
H	 1.9403541398	 1.7700576876	-0.9092582199	 0.084771
97.3116	138.9982	250.5174	295.0247	384.133	412.4104	425.0071	533.8681	571.7717	618.3616	633.517	683.9643	766.9005	811.3425	831.7961	882.5572	899.1194	917.4345	951.8112	968.447	992.2904	1021.3192	1053.7199	1087.6881	1117.5332	1126.8071	1184.9658	1208.4027	1232.1266	1259.3452	1281.8724	1309.014	1329.7444	1344.5735	1354.5318	1370.4905	1382.9092	1474.6687	1485.6431	1509.0978	2235.7548	3008.7209	3036.6808	3055.9469	3071.5935	3078.3397	3083.4868	3086.9266	3108.371	3137.0332	3505.502
C#CC1CCC2CC1O2	C#C[C@H]1CC[C@@H]2C[C@H]1O2	
InChI=1S/C8H10O/c1-2-6-3-4-7-5-8(6)9-7/h1,6-8H,3-5H2	InChI=1S/C8H10O/c1-2-6-3-4-7-5-8(6)9-7/h1,6-8H,3-5H2/t6-,7+,8+/m0/s1
