19
gdb 76127	2.94524	1.35879	1.1196	4.2375	79.53	-0.2511	0.0121	0.2632	1143.5083	0.158651	-382.049226	-382.040233	-382.039289	-382.082612	33.615	
C	-0.0966084889	 1.6593595054	 0.0668557386	-0.421142
C	 0.0597605198	 0.1459320588	 0.0772512283	-0.066908
C	 1.1534003518	-0.5596516402	-0.7997147699	-0.133857
C	 2.0977168164	 0.2849211711	-1.522439005	 0.302309
N	 2.837641679	 0.97634921	-2.0809806235	-0.336515
N	 1.7172015281	-1.3005159499	 0.39076415	-0.172088
C	 2.1613447815	-0.2536510824	 1.3407080003	-0.296738
C	 0.7172509243	-0.5514754378	 1.2760711599	 0.352669
C	-0.0437032729	-1.2274484345	 2.3773065783	-0.495227
H	 0.8510259997	 2.172033755	 0.2507829755	 0.135466
H	-0.476692535	 2.0053404818	-0.8996130515	 0.131538
H	-0.8083640109	 1.9726953844	 0.8378628596	 0.122526
H	-0.9041978989	-0.3239264393	-0.1393412078	 0.093381
H	 0.7285136902	-1.2837120002	-1.497991156	 0.13102
H	 2.7138812873	-0.6728361838	 2.1756352172	 0.128895
H	 2.5758610744	 0.672457534	 0.9513002476	 0.135423
H	-0.4771886408	-0.4869626457	 3.0596634008	 0.12854
H	-0.860842705	-1.8374874649	 1.9775975646	 0.125094
H	 0.6134616697	-1.8788671116	 2.9601603728	 0.135613
105.2019	132.1877	174.517	194.4717	195.2791	242.473	299.9783	358.5969	431.9574	481.7615	534.4194	612.1531	660.298	715.8406	744.4565	805.0498	879.3755	917.2466	959.5721	978.5329	1049.8011	1057.4764	1092.4583	1098.9191	1125.8414	1134.1413	1154.9843	1217.108	1244.5189	1303.4808	1340.7385	1361.0173	1397.8704	1416.8473	1427.5867	1482.3278	1491.1516	1493.2386	1494.077	1509.6934	2348.0764	3029.4475	3039.6078	3060.7149	3090.655	3091.9474	3105.0591	3113.7256	3116.8538	3121.9519	3205.0403
CC1C(C#N)N2CC12C	C[C@H]1[C@@H](C#N)N2C[C@@]12C	
InChI=1S/C7H10N2/c1-5-6(3-8)9-4-7(5,9)2/h5-6H,4H2,1-2H3	InChI=1S/C7H10N2/c1-5-6(3-8)9-4-7(5,9)2/h5-6H,4H2,1-2H3/t5-,6+,7-,9?/m0/s1
