16
gdb 55988	3.61241	0.98655	0.80656	3.912	67.02	-0.2451	-0.0459	0.1992	1341.4068	0.122959	-475.050451	-475.041648	-475.040703	-475.085104	31.443	
N	 0.1254641596	 0.3912131646	 0.9521459554	-0.508608
C	 0.0443921011	 0.0618619746	-0.3673416204	 0.366448
O	 0.7439208252	 0.5560234473	-1.2280070259	-0.35187
C	-1.050247063	-0.964578025	-0.6948799918	-0.305584
C	-0.9827337114	-2.2382825526	 0.1421012598	-0.012454
O	-1.2620820748	-2.0335274061	 1.5595191041	-0.296273
C	-2.4211591163	-2.8960811168	 1.5675749615	-0.193844
C	-2.2033508408	-3.1726096703	 0.0740378265	 0.345633
O	-2.7463994533	-3.8085820973	-0.7733547526	-0.263554
H	 0.8679859915	 1.0095273073	 1.236071569	 0.259146
H	-0.3774464859	-0.1400756875	 1.646739945	 0.274173
H	-2.0310114876	-0.4930469396	-0.5597283944	 0.125663
H	-0.9421785045	-1.2252707862	-1.7497332793	 0.149433
H	-0.0224691282	-2.7523494319	 0.0042257863	 0.125569
H	-2.298723914	-3.764210088	 2.2261344675	 0.143285
H	-3.3483936876	-2.3693409227	 1.8228839092	 0.142838
44.8879	87.2559	117.9542	137.4487	223.3865	334.6717	396.432	418.5305	487.4526	513.8437	570.7543	607.5636	696.9129	721.6016	833.5009	850.9905	866.3891	953.8728	1001.3168	1026.0603	1078.3823	1089.9927	1130.6531	1139.9792	1206.7091	1232.5333	1283.4901	1315.6189	1348.4165	1367.9998	1458.7145	1480.5501	1623.6524	1808.5474	1929.4079	3025.1501	3032.5866	3047.2171	3078.5755	3125.7739	3567.6502	3710.5477
NC(=O)CC1OCC1=O	NC(=O)C[C@H]1OCC1=O	
InChI=1S/C5H7NO3/c6-5(8)1-4-3(7)2-9-4/h4H,1-2H2,(H2,6,8)	InChI=1S/C5H7NO3/c6-5(8)1-4-3(7)2-9-4/h4H,1-2H2,(H2,6,8)/t4-/m1/s1
