18
gdb 32876	5.50915	0.80817	0.74414	1.0052	76.83	-0.2335	0.0023	0.2358	1568.9666	0.146749	-439.111341	-439.102098	-439.101154	-439.146475	32.091	
C	 0.1627286215	 1.3825155256	 0.0442139706	-0.222203
O	 0.1091910361	-0.0253667504	 0.0649499636	-0.233259
C	 0.4454274748	-0.5935620799	-1.1837728568	-0.172537
C	 0.4010395776	-2.078018941	-1.0759887181	 0.378352
N	-0.3890595522	-2.8982967879	-1.6931578026	-0.342144
C	-0.0089454954	-4.1651909575	-1.2521430283	 0.248718
C	-0.6854065462	-5.4043162996	-1.731856009	-0.492482
C	 1.0122529609	-4.0158360317	-0.3733040886	-0.116713
O	 1.2911033996	-2.6828721089	-0.2534040101	-0.164908
H	 1.1712933407	 1.7491108237	-0.2050603812	 0.105806
H	-0.5468126586	 1.8085581197	-0.6824783615	 0.107828
H	-0.1034472237	 1.7306540553	 1.0446396211	 0.132303
H	-0.2627697641	-0.2964594294	-1.9700902844	 0.122047
H	 1.4536582288	-0.2679648181	-1.4922064188	 0.104575
H	-0.5971959317	-5.5016097263	-2.8190275022	 0.138767
H	-0.24957446	-6.2941893429	-1.2704616951	 0.12353
H	-1.7542605235	-5.3816428883	-1.4951319479	 0.140641
H	 1.6113611156	-4.6883716725	 0.2162942393	 0.141679
44.3488	83.6203	105.2749	133.2875	224.4723	246.0169	269.014	342.231	365.9044	426.7794	640.1572	660.019	723.9718	762.6843	812.6085	951.4231	980.63	990.8837	1026.9236	1049.242	1067.9262	1139.2923	1150.3607	1182.3839	1220.949	1226.288	1254.2696	1296.401	1361.4763	1413.8297	1418.3195	1475.6459	1477.3712	1484.8993	1491.1551	1496.2071	1517.1586	1617.4483	1642.36	2959.496	2972.4039	3015.5244	3029.1382	3038.4702	3094.9369	3120.9201	3121.3824	3289.8804
COCC1=NC(C)=CO1	COCc1nc(C)co1	
InChI=1S/C6H9NO2/c1-5-3-9-6(7-5)4-8-2/h3H,4H2,1-2H3	InChI=1S/C6H9NO2/c1-5-3-9-6(7-5)4-8-2/h3H,4H2,1-2H3
