18
gdb 54689	3.41332	1.22704	0.93283	1.8951	74.9	-0.2184	-0.0152	0.2032	1234.9013	0.15052	-435.330639	-435.322118	-435.321174	-435.364049	31.963	
N	-0.0391784868	 1.2785660609	-0.0425538118	-0.526927
C	 0.0271715763	-0.0622554509	 0.0615604082	 0.381795
O	 1.0521651607	-0.7243375648	 0.1224081857	-0.389962
C	-1.3403461842	-0.7284422391	 0.0999117985	 0.289645
N	-2.3998321083	-0.0066761412	 0.0246691889	-0.344819
C	-3.671109874	-0.7255885982	 0.0581343276	-0.155803
C	-3.5761472825	-2.159841986	-0.4859299815	-0.217018
C	-2.4378263384	-2.91498128	 0.2105650649	-0.153624
N	-1.2548094793	-2.0763543191	 0.2132445825	-0.330846
H	 0.8047962137	 1.8227816905	-0.0770675894	 0.262729
H	-0.9550776206	 1.6997681169	-0.0858130239	 0.275483
H	-4.0440939513	-0.7432363106	 1.0934660307	 0.104901
H	-4.406284481	-0.1534591936	-0.5184273141	 0.103951
H	-4.5212086926	-2.6923575679	-0.3442711101	 0.101924
H	-3.3760794583	-2.1225353814	-1.5626848097	 0.113327
H	-2.7307568735	-3.1779043507	 1.2376867855	 0.109774
H	-2.2156177206	-3.8524484891	-0.3101362995	 0.112688
H	-0.3179463693	-2.4507695557	 0.2375041475	 0.262781
78.9738	86.2889	178.3067	222.3351	291.5747	307.3922	364.3441	478.4593	492.9937	525.0434	534.2816	595.4618	657.9978	684.4756	819.6152	831.0547	870.5603	887.0271	958.9772	982.0995	1085.9338	1105.0865	1124.7256	1137.1317	1212.3815	1218.2781	1254.7526	1297.494	1347.7823	1362.5729	1376.1912	1405.7608	1481.9254	1488.474	1510.2377	1551.1818	1582.4208	1716.1474	1793.0926	2989.041	2995.636	3040.4011	3056.5362	3065.0221	3094.8298	3578.1248	3615.6024	3736.569
NC(=O)C1=NCCCN1	NC(=O)C1=NCCCN1	
InChI=1S/C5H9N3O/c6-4(9)5-7-2-1-3-8-5/h1-3H2,(H2,6,9)(H,7,8)	InChI=1S/C5H9N3O/c6-4(9)5-7-2-1-3-8-5/h1-3H2,(H2,6,9)(H,7,8)
