14
gdb 13648	5.8453	0.91842	0.83704	1.7749	81.44	-0.2455	-0.0306	0.2149	1320.6182	0.104298	-345.329797	-345.321508	-345.320564	-345.362809	29.693	
C	-0.1416107465	 1.4871173092	-0.1545606511	-0.427719
C	-0.0202958032	 0.0012260489	 0.0454142486	 0.099
O	 1.2672594511	-0.5832915808	-0.1262963699	-0.235162
C	 0.6948316333	-0.608896062	 1.1944473108	-0.2316
C	 1.3312269424	 0.1776226191	 2.2107567636	 0.455189
C	 1.8547600143	 0.8100876393	 3.101163017	-0.219159
C	 2.4443937136	 1.5269049182	 4.0944217443	 0.296792
C	 2.967309945	 2.1630548541	 4.9777966722	-0.558362
H	 0.6691843388	 2.0168710176	 0.3496787985	 0.144374
H	-0.1059707544	 1.7266526382	-1.2221320802	 0.133786
H	-1.0974431978	 1.8464995334	 0.2406820606	 0.127846
H	-0.8312681914	-0.5980570735	-0.3740380447	 0.098551
H	 0.3777888722	-1.6007020641	 1.517484587	 0.12066
H	 3.4282902427	 2.7229234025	 5.7533718431	 0.195803
77.123	98.4545	176.4747	198.8653	254.5286	341.0982	396.362	471.1887	512.7538	530.5533	563.1365	599.946	608.5976	735.7982	784.3081	856.7711	953.253	1013.1506	1074.4488	1141.1012	1162.1199	1204.8146	1286.3763	1378.3732	1412.7407	1444.2182	1483.7544	1496.0652	2181.9041	2355.9858	3042.4121	3086.469	3106.8321	3108.691	3138.7146	3504.0302
CC1OC1C#CC#C	C[C@H]1O[C@H]1C#CC#C	
InChI=1S/C7H6O/c1-3-4-5-7-6(2)8-7/h1,6-7H,2H3	InChI=1S/C7H6O/c1-3-4-5-7-6(2)8-7/h1,6-7H,2H3/t6-,7+/m1/s1
