17
gdb 125064	3.06353	1.29047	0.98408	4.0485	76.55	-0.2408	-0.0301	0.2106	1204.6296	0.135556	-417.9867	-417.978429	-417.977485	-418.020345	30.165	
C	 0.1318812968	 1.5313148883	-0.2449346466	-0.495346
C	-0.0346066168	 0.0609209008	-0.1126772693	 0.300994
C	-1.1078595736	-0.7554978268	 0.100272424	 0.204144
N	-0.611577716	-2.0435151987	 0.1249129116	-0.19435
N	 0.6341745634	-2.0538346432	-0.0514451336	-0.017069
O	 1.0593095231	-0.7069727855	-0.2114462705	-0.210969
C	-2.5365617506	-0.4556451259	 0.281165694	-0.111261
C	-3.5890098496	-1.4035657129	-0.2592971202	-0.262483
C	-3.3783713946	-1.2940083651	 1.2228671944	-0.262485
H	 0.8065326895	 1.9194721721	 0.5250665868	 0.156294
H	 0.5587302614	 1.7906769178	-1.2192292293	 0.156292
H	-0.8318036262	 2.0344695912	-0.1451757584	 0.145161
H	-2.7729455892	 0.6021675929	 0.236578125	 0.084669
H	-4.4823422141	-0.9687421526	-0.6933366931	 0.115813
H	-3.2296862799	-2.2995824712	-0.752133637	 0.137391
H	-2.8782708375	-2.1167913572	 1.7206371789	 0.13739
H	-4.1251567662	-0.782952934	 1.8200590032	 0.115812
54.0497	106.0756	157.9858	170.0388	249.2765	271.1708	437.5618	458.7911	607.1499	663.7993	701.9819	709.9656	742.4669	796.6908	824.5855	916.7797	920.2152	995.2952	1030.6657	1064.8491	1065.8708	1074.9708	1090.4882	1124.5993	1150.5693	1203.6668	1221.5858	1253.2562	1376.4366	1403.4911	1431.58	1461.5489	1461.9157	1474.0866	1485.195	1497.8612	1662.8594	3043.0277	3100.3684	3135.382	3138.4633	3141.0535	3163.4267	3223.4348	3237.6922
CC1=C(N=NO1)C1CC1	Cc1c(nno1)C1CC1	
InChI=1S/C6H8N2O/c1-4-6(5-2-3-5)7-8-9-4/h5H,2-3H2,1H3	InChI=1S/C6H8N2O/c1-4-6(5-2-3-5)7-8-9-4/h5H,2-3H2,1H3
