14
gdb 29622	3.30581	1.41937	1.00003	3.5924	67.09	-0.2014	-0.0135	0.1879	1090.4393	0.101588	-473.835795	-473.828428	-473.827484	-473.868578	27.743	
O	-0.291543609	 1.0257835028	 0.9818783249	-0.45055
C	-0.1027304148	-0.1892321919	 0.4491301073	 0.172051
C	-0.1620093833	-0.4881460924	-0.8815198797	-0.091527
O	 0.1050446209	-1.8117031651	-1.1016640831	-0.139856
C	 0.3302072161	-2.3803204578	 0.097241807	-0.066251
C	 0.2200325338	-1.4506873355	 1.0863394914	 0.168766
O	 0.4605084593	-1.827862531	 2.4013649011	-0.228651
C	 0.1427116587	-1.1085787607	 3.4723234246	 0.13958
N	-0.3661388241	 0.0537747398	 3.4614767169	-0.482569
H	-0.390566049	 0.8913182525	 1.95683081	 0.317653
H	-0.3648083716	 0.1163556074	-1.7474332721	 0.138692
H	 0.5611812023	-3.4315552031	 0.1166323618	 0.143751
H	 0.3958883445	-1.6828751287	 4.3654865163	 0.130695
H	-0.5190653539	 0.4040575738	 4.4020000536	 0.248216
28.9625	208.0365	272.746	287.7442	315.2767	402.5624	470.0132	588.0945	606.5425	628.4161	717.0917	718.6466	750.3308	773.4986	795.2016	798.3666	869.0583	1029.8641	1075.2052	1095.1466	1180.2535	1217.3318	1240.486	1324.2157	1332.1682	1393.5101	1419.9132	1520.1612	1585.2208	1688.4382	1717.0566	3123.6003	3284.0304	3287.6367	3298.2883	3548.916
OC1=COC=C1OC=N	Oc1cocc1O[CH][NH]	
InChI=1S/C5H5NO3/c6-3-9-5-2-8-1-4(5)7/h1-3,6-7H	InChI=1S/C5H5NO3/c6-3-9-5-2-8-1-4(5)7/h1-3,6-7H
