18
gdb 86792	3.12752	1.00497	0.87104	4.6815	72.63	-0.2704	0.026	0.2964	1347.9698	0.146013	-439.081304	-439.071788	-439.070844	-439.117	33.728	
C	 0.2565315268	 1.5062221086	-0.1441239628	-0.414636
C	 0.0267873193	 0.0287749562	 0.0980495347	 0.115906
O	 0.8122482337	-0.8134085723	-0.7848126512	-0.304848
C	 1.3162581938	-1.599269584	 0.3100529891	 0.103827
C	 2.8432155479	-1.6969997356	 0.3288093407	-0.350963
C	 3.3626735841	-2.4851802961	-0.7857423684	 0.264434
N	 3.7701264067	-3.1177601396	-1.6623518923	-0.300919
C	 0.6551980884	-0.6502972932	 1.3492628032	 0.041104
O	 1.4964489413	 0.1115754333	 2.1756224435	-0.419186
H	 1.314365935	 1.7790873896	-0.0582901213	 0.107393
H	-0.0598172957	 1.764871906	-1.1586866803	 0.144703
H	-0.3212172492	 2.1090772731	 0.5632213594	 0.134277
H	-1.0416269207	-0.204085668	-0.0037813193	 0.086949
H	 0.8849789292	-2.6087666758	 0.3044915199	 0.096434
H	 3.2862435893	-0.6971736763	 0.2912198538	 0.13727
H	 3.1608509799	-2.1557355149	 1.2720560398	 0.163462
H	-0.0552474167	-1.1407120843	 2.016945285	 0.105023
H	 1.9654965869	 0.7604467234	 1.6410716964	 0.289769
33.3715	48.2465	119.2796	193.5568	217.5846	263.4461	273.4863	367.5454	381.7767	390.6282	487.7792	531.3917	573.0248	779.832	816.6959	843.7729	888.3077	918.0328	962.1362	1020.2791	1048.3412	1079.8677	1112.1044	1133.0794	1176.4186	1225.7519	1245.8971	1251.1564	1277.1656	1308.7294	1347.176	1368.9954	1401.048	1415.8868	1438.4225	1444.135	1478.2464	1501.2222	2365.7286	3013.2386	3022.1593	3033.6376	3053.3431	3097.3133	3099.9953	3103.8124	3121.6767	3817.7797
CC1OC(CC#N)C1O	C[C@H]1O[C@@H](CC#N)[C@H]1O	
InChI=1S/C6H9NO2/c1-4-6(8)5(9-4)2-3-7/h4-6,8H,2H2,1H3	InChI=1S/C6H9NO2/c1-4-6(8)5(9-4)2-3-7/h4-6,8H,2H2,1H3/t4-,5+,6+/m1/s1
