23
gdb 86077	2.26025	1.35626	1.13007	1.6593	87.96	-0.2346	0.0241	0.2587	1255.7471	0.204058	-388.31704	-388.306978	-388.306033	-388.351126	38.918	
C	-0.0264662	 1.506658393	 0.0775951074	-0.49443
C	 0.0505189295	 0.0137761647	 0.0167103746	 0.303005
C	 0.092023233	-0.7588471491	-1.0726006145	-0.204586
C	 0.0879938391	-2.244443344	-0.7524412592	 0.227604
C	-1.3429692587	-2.8100437431	-0.8866379416	-0.415688
C	 1.0389724117	-3.0595106069	-1.6393156895	-0.418677
C	 0.5154429246	-2.2233918006	 0.7560068545	 0.100197
O	 1.91783942	-2.3695130575	 0.936583105	-0.436871
C	 0.0373629195	-0.8446036121	 1.2682851519	-0.330765
H	 0.8067740063	 1.9259612979	 0.6560346442	 0.123091
H	-0.0098464532	 1.9544597515	-0.9199007348	 0.122613
H	-0.9453893433	 1.8340573698	 0.5812954577	 0.126327
H	 0.0768932651	-0.3891916341	-2.0941695639	 0.080331
H	-1.711505742	-2.6961236707	-1.9116452065	 0.111153
H	-1.3651900699	-3.8777410112	-0.6399386319	 0.111512
H	-2.0440799396	-2.2920001548	-0.2246914761	 0.111814
H	 2.0634267993	-2.6831185449	-1.5972065238	 0.105375
H	 1.0612692483	-4.109563183	-1.3301102267	 0.115147
H	 0.7072052036	-3.0234145845	-2.6830409006	 0.103781
H	 0.0755095551	-3.0584948017	 1.3087413035	 0.0747
H	 2.3401078403	-1.616425955	 0.5070145171	 0.276674
H	 0.6993788415	-0.481634413	 2.0630081702	 0.102235
H	-0.9729190004	-0.8891025305	 1.6988311629	 0.105455
96.3316	129.644	189.0958	193.7823	227.1773	249.9779	276.935	335.4515	349.0408	369.8771	381.7277	437.8602	460.3458	543.7052	567.0345	644.2015	818.6574	846.4191	876.4474	892.2644	907.247	940.2467	956.3461	991.731	1015.6483	1022.3216	1045.1822	1090.6273	1147.5345	1173.5017	1175.3417	1207.8041	1254.4775	1267.9314	1292.5226	1314.2226	1354.713	1394.309	1413.2763	1416.8104	1434.2709	1474.7642	1478.0892	1479.925	1485.1775	1488.8894	1499.8208	1503.2932	1712.5811	3008.8833	3015.6003	3024.0006	3033.5323	3058.2494	3060.1009	3072.2403	3090.9722	3097.3871	3100.67	3108.1466	3117.8108	3168.4629	3790.4328
CC1=CC(C)(C)C(O)C1	CC1=CC(C)(C)[C@@H](O)C1	
InChI=1S/C8H14O/c1-6-4-7(9)8(2,3)5-6/h5,7,9H,4H2,1-3H3	InChI=1S/C8H14O/c1-6-4-7(9)8(2,3)5-6/h5,7,9H,4H2,1-3H3/t7-/m0/s1
