20
gdb 23353	3.18003	1.15179	0.94218	0.6588	81.73	-0.2357	0.0178	0.2536	1286.5934	0.169816	-403.080419	-403.071295	-403.070351	-403.11476	34.24	
C	 0.2517733906	 1.4594359495	 0.0423448861	-0.470416
C	 0.016964153	-0.024768163	 0.153068357	 0.342395
N	-0.1849735161	-0.6308556993	 1.2600141663	-0.171988
O	-0.1601480336	 0.2631004915	 2.3474585202	-0.401641
C	-0.0054024743	-0.8435471787	-1.1069391462	-0.070157
C	 1.300952152	-0.9249924983	-1.9904824492	-0.254475
C	 1.1906128516	-2.4536654295	-1.9558874896	-0.046498
C	 1.2507581021	-2.937217019	-0.5361804676	-0.260805
C	-0.0427119173	-2.3734636297	-1.0491939759	-0.051793
H	 1.1301804022	 1.7536417384	 0.6256011268	 0.14577
H	 0.3977846799	 1.7622664793	-0.9966489046	 0.117822
H	-0.5961751374	 2.0120470137	 0.4599372206	 0.145884
H	-0.3214090777	-0.3253487619	 3.0921508965	 0.303825
H	-0.8178116849	-0.463174468	-1.7383455362	 0.087809
H	 1.1593009253	-0.4888768815	-2.9813407912	 0.102111
H	 2.2127803757	-0.5079956786	-1.5500955473	 0.097253
H	 1.372740321	-3.1087182498	-2.798981046	 0.083284
H	 1.2566055102	-4.0155373079	-0.4124826687	 0.106857
H	 1.8288457229	-2.3999926876	 0.2101225893	 0.111375
H	-0.949079525	-2.9653512996	-1.07222892	 0.083386
62.3634	82.0984	121.113	154.7316	262.1047	294.5097	366.5678	371.1198	416.5726	466.8691	547.2528	657.5131	689.7807	776.4319	792.3538	810.3727	912.0224	933.3079	953.6149	962.9073	1006.1002	1017.8129	1026.8112	1035.9477	1050.5775	1061.8124	1082.8142	1093.2394	1140.6002	1202.0542	1223.8769	1242.8233	1259.5118	1302.8441	1357.4167	1367.4723	1397.6841	1401.4195	1474.3629	1482.9519	1485.1018	1499.3624	1724.9577	3025.5782	3042.1987	3045.198	3100.7294	3108.3586	3119.4043	3130.5026	3179.578	3188.5037	3206.4777	3822.7543
CC(=NO)C1CC2CC12	CC(=NO)[C@H]1C[C@H]2C[C@@H]12	
InChI=1S/C7H11NO/c1-4(8-9)6-2-5-3-7(5)6/h5-7,9H,2-3H2,1H3	InChI=1S/C7H11NO/c1-4(8-9)6-2-5-3-7(5)6/h5-7,9H,2-3H2,1H3/t5-,6+,7+/m0/s1
