16
gdb 23095	2.32317	1.61049	0.96235	1.2654	85.65	-0.2163	-0.0404	0.1759	1174.0437	0.123104	-400.693574	-400.684894	-400.68395	-400.728976	32.03	
O	 0.0617872684	 1.2976193891	 0.0072629698	-0.386501
N	 0.0800977462	-0.0996935775	 0.0033508312	-0.260381
C	-1.084870736	-0.6213222455	 0.0111468002	 0.307154
C	-1.2292711764	-2.137175631	 0.0082507906	-0.287801
C	-2.7559801459	-2.3957710283	 0.0185503792	-0.268714
C	-3.3581218991	-1.0220549339	 0.0274033895	-0.158474
C	-2.44274916	-0.0278593692	 0.0233889865	 0.131327
C	-2.7744954022	 1.35159181	 0.0300999184	 0.232153
C	-3.1306455956	 2.5014235129	 0.0364268776	-0.421655
H	 1.0008186706	 1.5109032817	 0.0004092859	 0.306107
H	-0.7468292592	-2.5656942297	-0.8740479718	 0.130621
H	-0.7344145048	-2.5701080453	 0.8814875661	 0.130628
H	-3.0895890956	-2.9686128662	-0.855991311	 0.121862
H	-3.0768379912	-2.9744013917	 0.8940399014	 0.12184
H	-4.4280293261	-0.8493329263	 0.0361026244	 0.113373
H	-3.4126544432	 3.5248235108	 0.0420479521	 0.188461
6.1171	150.8351	151.0171	240.4365	254.2506	289.0029	394.217	432.7213	480.4367	515.3203	600.7961	606.4056	630.8467	706.2808	731.8267	773.8631	793.3188	885.5245	934.8248	1000.5301	1027.0179	1028.6691	1094.2423	1162.3307	1232.8877	1238.414	1289.8739	1323.4191	1335.2939	1403.7125	1469.672	1490.4825	1635.0648	1728.4716	2229.9108	3023.2875	3043.9423	3067.7394	3104.8488	3206.6926	3505.0629	3817.0044
ON=C1CCC=C1C#C	ON=C1CCC=C1C#C	
InChI=1S/C7H7NO/c1-2-6-4-3-5-7(6)8-9/h1,4,9H,3,5H2	InChI=1S/C7H7NO/c1-2-6-4-3-5-7(6)8-9/h1,4,9H,3,5H2
