15
gdb 29824	3.27151	1.40347	0.98814	4.9118	72.76	-0.2126	-0.0576	0.155	1121.6202	0.113066	-453.999722	-453.991555	-453.990611	-454.032633	29.784	
C	-0.0380938694	 1.4459878177	-0.0114821251	-0.329543
N	-0.04243627	-0.0129396437	 0.0138538685	-0.119349
C	-1.1940811537	-0.7180665003	-0.1170095423	-0.01185
C	-1.1669483021	-2.0824271289	-0.0894127881	 0.243728
O	-2.328753969	-2.7905571469	-0.2214921694	-0.446255
C	 0.1084558451	-2.6767022273	 0.0799401598	-0.064226
N	 1.2280004137	-2.0209149549	 0.2076839112	-0.324372
C	 1.2254283363	-0.6379619732	 0.1827944054	 0.446535
O	 2.214909874	 0.0592764598	 0.2935844856	-0.40183
H	 0.5970515074	 1.7994905783	-0.8268928241	 0.162119
H	-1.0587731334	 1.8071292225	-0.1446262234	 0.126879
H	 0.3799437403	 1.8305015572	 0.9216090468	 0.16214
H	-2.1143203057	-0.160323311	-0.2414783772	 0.143013
H	-2.1292384118	-3.731271894	-0.179956418	 0.303837
H	 0.1757146582	-3.7688942353	 0.1077188603	 0.109174
85.47	125.7762	183.9827	203.5698	306.9367	352.8879	365.6436	413.7225	494.5292	521.3145	538.6746	632.1128	700.1332	800.9423	839.6356	906.8965	972.6724	981.673	1061.7515	1088.8686	1153.5219	1166.2528	1222.492	1322.834	1335.4348	1438.7592	1448.1575	1463.929	1482.9847	1514.0296	1563.3632	1709.3559	1782.7765	3057.3732	3075.5851	3127.7606	3151.6873	3208.1087	3828.531
CN1C=C(O)C=NC1=O	Cn1cc(O)cnc1=O	
InChI=1S/C5H6N2O2/c1-7-3-4(8)2-6-5(7)9/h2-3,8H,1H3	InChI=1S/C5H6N2O2/c1-7-3-4(8)2-6-5(7)9/h2-3,8H,1H3
