13
gdb 129525	5.29815	1.01229	0.85244	4.6524	61.68	-0.2565	-0.0233	0.2332	1241.2678	0.090749	-486.097803	-486.090094	-486.089149	-486.130993	27.635	
N	-0.1921831801	 1.387048174	 0.0139785919	-0.572223
C	 0.1420877572	 0.042738339	 0.0320299192	 0.462797
O	 1.2705111491	-0.3728621742	 0.1247132331	-0.335111
N	-0.9882394198	-0.7801380554	-0.0197267118	-0.457012
C	-0.9938778519	-2.1554109517	-0.0024086368	 0.498118
N	 0.0501658332	-2.945120881	-0.0958733929	-0.184609
O	-0.5467185445	-4.2284464473	-0.0447852476	-0.153481
C	-1.8524466867	-4.0359802	 0.0709225817	 0.123435
N	-2.2153329825	-2.7940313151	 0.1038855437	-0.344333
H	 0.6102091293	 1.9840166738	-0.116955403	 0.270787
H	-1.0138011927	 1.6772788446	-0.4942186783	 0.254771
H	-1.9032743702	-0.3753933073	 0.1042347003	 0.267652
H	-2.4823962104	-4.9118216794	 0.1272332307	 0.169208
54.7994	83.2505	151.1553	335.9334	363.8823	372.5645	392.8955	507.0489	541.6689	612.9207	631.5283	759.1362	773.7595	816.4086	900.0882	909.1781	970.4887	992.3958	1053.8189	1108.4359	1172.2607	1265.4367	1314.0668	1368.72	1513.4825	1583.2351	1630.6276	1638.2885	1843.4053	3265.477	3578.4463	3635.8347	3693.6852
NC(=O)NC1=NOC=N1	NC(=O)Nc1nocn1	
InChI=1S/C3H4N4O2/c4-2(8)6-3-5-1-9-7-3/h1H,(H3,4,6,7,8)	InChI=1S/C3H4N4O2/c4-2(8)6-3-5-1-9-7-3/h1H,(H3,4,6,7,8)
