19
gdb 83312	2.40974	1.58581	1.30605	3.072	74.42	-0.2407	-0.0246	0.2161	1052.2656	0.158846	-423.018865	-423.010299	-423.009355	-423.052638	31.517	
C	-0.2819960115	 1.6176466429	 0.1482714373	-0.418642
C	 0.0197158864	 0.1460987186	-0.0237825883	-0.040032
C	 1.3888204545	-0.3464790435	-0.4142492744	 0.08423
O	 2.4412634915	 0.5695260643	-0.2672733556	-0.258563
C	 2.9179834082	 0.5491186477	 1.0818672011	-0.096682
C	 1.7921604507	-0.0496367695	 1.9533066196	-0.131708
C	 1.1226861939	 0.9382327339	 2.8948735412	 0.156212
O	 1.5303897401	 2.0421436235	 3.1486685174	-0.246227
C	 0.8452926579	-0.706020998	 0.9423071063	-0.13481
H	 0.6041067691	 2.1848162768	 0.4380467211	 0.147575
H	-0.6404187245	 2.0358870497	-0.7982468065	 0.119935
H	-1.060271654	 1.7864419162	 0.9000505376	 0.116873
H	-0.7948442313	-0.4224147623	-0.4680958385	 0.088407
H	 1.5336641797	-1.069013753	-1.2121520986	 0.095824
H	 3.8288733696	-0.06142351	 1.1445930097	 0.097927
H	 3.1559710117	 1.5724761437	 1.3825831877	 0.135503
H	 2.1849567412	-0.8384497212	 2.6102624513	 0.107502
H	 0.1976148156	 0.544356448	 3.3743143697	 0.082132
H	 0.4932442212	-1.7079444379	 1.1560765817	 0.094546
64.3254	82.0187	150.8062	194.102	224.7549	261.1333	304.1419	485.7848	575.5564	591.2398	695.0618	722.3315	748.7515	790.8097	844.895	895.3557	935.3131	963.5689	1010.0876	1020.8337	1048.4605	1069.6568	1084.8954	1115.529	1126.6078	1134.0941	1162.9731	1225.1655	1237.0585	1245.4827	1310.9867	1323.24	1354.8864	1386.525	1419.3153	1422.8278	1429.0008	1491.3155	1505.7195	1522.2507	1827.8261	2872.7921	3003.9527	3019.7072	3038.3717	3092.811	3103.4034	3122.68	3141.3539	3147.5026	3178.0021
CC1C2OCC(C=O)C12	C[C@H]1[C@H]2OC[C@@H](C=O)[C@@H]12	
InChI=1S/C7H10O2/c1-4-6-5(2-8)3-9-7(4)6/h2,4-7H,3H2,1H3	InChI=1S/C7H10O2/c1-4-6-5(2-8)3-9-7(4)6/h2,4-7H,3H2,1H3/t4-,5-,6-,7-/m1/s1
