14
gdb 46232	2.82623	1.37145	1.09078	5.7947	68.33	-0.2657	-0.064	0.2017	1090.3566	0.099109	-436.671717	-436.663698	-436.662754	-436.70494	28.766	
O	 0.0076910372	 0.0386848217	-0.1988286866	-0.277877
C	-0.0399926598	 1.2146057	-0.011861979	 0.346365
C	-1.1252131083	 2.2166766011	 0.4402512173	-0.344256
C	-0.0219898727	 3.3132588318	 0.5795559267	-0.342208
C	 0.9908799608	 2.3497188702	-0.0601123361	 0.350376
O	 2.3673484994	 2.2508909969	 0.2217175459	-0.245242
C	 2.0063622951	 2.6165570834	-1.1083804884	-0.218318
C	 2.2874868211	 1.6621640043	-2.1581936559	 0.331809
N	 2.5177741813	 0.9409138157	-3.0308455375	-0.317641
H	-1.8640471115	 2.4097575594	-0.3424100887	 0.148496
H	-1.6497322958	 1.9321840624	 1.3548113875	 0.148861
H	-0.1970176231	 4.2451971834	 0.0408828123	 0.128635
H	 0.2336076117	 3.5391408902	 1.6169093598	 0.141211
H	 2.2041335845	 3.6536862794	-1.3740043373	 0.149788
72.2778	93.6458	148.308	231.543	254.881	322.2368	464.4974	484.2037	541.1459	579.4849	646.2044	705.7255	753.2071	838.7812	903.2011	931.3701	990.2359	1025.1598	1032.2621	1054.491	1096.1464	1132.1212	1211.3718	1221.7675	1244.4963	1330.853	1432.1132	1450.1378	1481.5747	1904.6939	2365.2957	3073.572	3084.3713	3126.1586	3133.3069	3143.0672
O=C1CCC11OC1C#N	O=C1CC[C@]21O[C@H]2C#N	
InChI=1S/C6H5NO2/c7-3-5-6(9-5)2-1-4(6)8/h5H,1-2H2	InChI=1S/C6H5NO2/c7-3-5-6(9-5)2-1-4(6)8/h5H,1-2H2/t5-,6+/m0/s1
