16
gdb 93650	2.0608	1.69091	1.36729	4.0963	63.68	-0.2775	0.009	0.2865	1004.6302	0.124389	-475.023561	-475.014911	-475.013967	-475.057626	31.1	
O	-0.4251347014	 1.447068085	 0.5003614303	-0.424349
C	-0.0742954799	 0.1062937287	 0.2030410153	 0.03756
C	 0.4527770675	-0.5569130843	 1.4862220356	-0.092297
O	-0.325236869	-1.7433435771	 1.6992970591	-0.241602
C	-1.6059771011	-1.5225124581	 1.1573433103	-0.094619
C	-2.4835831849	-0.7532733196	 2.0677999268	 0.276151
N	-3.1666462513	-0.1351092321	 2.7656348178	-0.323373
C	-1.3413178849	-0.7343167741	-0.1613767534	 0.102134
O	-2.40710741	 0.0321004909	-0.6408645433	-0.427299
H	-0.6395982943	 1.8834332431	-0.3317444256	 0.293836
H	 0.6607263551	 0.0705505177	-0.6090174734	 0.087637
H	 1.4965432453	-0.8694114176	 1.4281764886	 0.123988
H	 0.3305371359	 0.1466406413	 2.3191842688	 0.135262
H	-2.0688485939	-2.4957994868	 0.9765235298	 0.13756
H	-1.1019435588	-1.4644460816	-0.9378717897	 0.111218
H	-2.5761261043	 0.7231386747	 0.0144518231	 0.298195
45.3288	98.3853	132.5948	170.8665	265.4139	292.7445	364.8993	415.966	497.3437	558.1678	576.6891	590.1007	681.5637	735.2161	835.7879	901.9356	935.7473	974.7068	1020.6779	1064.1182	1102.9004	1119.4675	1145.8474	1228.349	1238.1323	1265.0608	1288.3286	1305.6635	1332.6327	1360.0194	1377.8148	1432.2904	1444.4065	1507.1633	2350.5961	3034.0644	3036.7276	3086.2242	3097.5632	3121.8691	3758.4229	3808.5771
OC1COC(C#N)C1O	O[C@H]1CO[C@@H](C#N)[C@H]1O	
InChI=1S/C5H7NO3/c6-1-4-5(8)3(7)2-9-4/h3-5,7-8H,2H2	InChI=1S/C5H7NO3/c6-1-4-5(8)3(7)2-9-4/h3-5,7-8H,2H2/t3-,4-,5-/m0/s1
