23
gdb 118109	2.50928	0.87795	0.70923	2.9806	82.25	-0.2505	0.0741	0.3246	1647.6642	0.203799	-425.404002	-425.393182	-425.392238	-425.440426	39.527	
C	-0.2224769999	 1.4398476763	 0.1397507239	-0.399173
C	 0.0413918791	-0.0564850994	-0.0888857223	 0.013497
C	 0.7766007235	-0.3382697538	-1.4134423685	-0.202777
C	 0.0027871457	 0.0626284309	-2.6705477202	-0.066636
O	 0.6918365478	-0.276588986	-3.8653169518	-0.421675
C	 0.8261454267	-0.6395211943	 1.0751902128	-0.00295
C	 0.116609006	-1.072551112	 2.344458415	-0.346695
C	 0.728541687	-2.0967377872	 1.4196159136	 0.085302
O	-0.1016929874	-2.8813496786	 0.6085248469	-0.419438
H	 0.7156068448	 2.0080131682	 0.1395197337	 0.110981
H	-0.8680088767	 1.8643088144	-0.634759716	 0.114964
H	-0.7097494148	 1.6047234119	 1.1058744778	 0.112983
H	-0.9224338901	-0.5782743027	-0.1292533709	 0.079256
H	 1.750084342	 0.169984149	-1.4210362146	 0.094461
H	 0.9806875039	-1.4158538229	-1.4646150209	 0.100718
H	-1.0028159758	-0.3904175267	-2.6479189859	 0.083782
H	-0.1350376366	 1.1472916911	-2.7175066472	 0.109369
H	 0.8347865931	-1.2285409348	-3.8554790369	 0.278495
H	 1.8112268399	-0.1967896805	 1.2093871312	 0.082354
H	 0.5796230864	-0.8881350962	 3.3079178494	 0.108818
H	-0.9672438487	-1.0062690851	 2.3402881105	 0.111821
H	 1.6366205223	-2.5994676788	 1.7527186963	 0.08395
H	-0.5522135479	-3.5185377027	 1.1721047741	 0.288592
51.9145	77.1401	107.6064	125.0255	178.5735	237.7621	250.1993	289.1706	307.4175	331.329	362.6796	391.4411	421.312	536.6358	604.2941	766.7715	785.4292	828.7323	852.1475	906.2285	962.3584	981.159	1005.3614	1009.4459	1039.8414	1059.8552	1080.0834	1105.9625	1133.5056	1146.9825	1175.0645	1189.6572	1213.2145	1237.2139	1273.8957	1301.3235	1313.877	1335.5984	1365.3208	1391.7301	1404.6991	1413.6198	1427.8373	1429.9229	1482.2598	1489.1775	1499.8493	1503.8142	1516.3178	2961.7896	3013.5017	3027.4611	3034.7171	3053.7815	3082.7675	3094.2932	3094.623	3107.2672	3124.0219	3127.8663	3213.2346	3809.4839	3811.8357
CC(CCO)C1CC1O	C[C@@H](CCO)[C@H]1C[C@H]1O	
InChI=1S/C7H14O2/c1-5(2-3-8)6-4-7(6)9/h5-9H,2-4H2,1H3	InChI=1S/C7H14O2/c1-5(2-3-8)6-4-7(6)9/h5-9H,2-4H2,1H3/t5-,6+,7+/m0/s1
