17
gdb 29362	3.33447	1.21738	0.89755	3.7905	83.45	-0.1997	-0.0291	0.1706	1254.6841	0.136705	-418.06943	-418.060513	-418.059569	-418.102813	32.963	
C	 0.00121156	 1.5294640838	 0.0061409387	-0.51966
C	 0.0016099091	 0.031874323	 0.0118575421	 0.231389
C	-0.050737912	-0.8145430996	-1.0860654625	-0.141994
N	-0.0199146837	-2.0975674944	-0.6651891578	-0.307946
C	 0.0511451372	-2.1357634197	 0.7194495856	 0.187065
C	 0.0893300859	-3.3921133006	 1.4018189169	 0.061241
O	 0.0640220162	-4.4789849503	 0.8409393509	-0.341699
C	 0.0666661814	-0.8042946223	 1.159542473	 0.103323
N	 0.1995986791	-0.3481183754	 2.4652987046	-0.606239
H	 0.9031486048	 1.9399672766	 0.4765654883	 0.132942
H	-0.0428922714	 1.9178439787	-1.0150369952	 0.127145
H	-0.8602823583	 1.9460182017	 0.5456076379	 0.119319
H	-0.1076570525	-0.5662698002	-2.1352973861	 0.128157
H	-0.0420479009	-2.9385946651	-1.216790116	 0.276235
H	 0.1449256824	-3.3252818008	 2.5112720326	 0.047477
H	-0.0746556293	-1.0050790553	 3.1811040807	 0.252647
H	-0.2142259582	 0.5587984998	 2.6291730366	 0.250599
106.1188	128.2261	168.1886	225.5888	239.2192	246.3941	314.401	355.1829	374.4914	508.3546	520.98	607.5762	648.0931	660.3916	729.513	744.3379	798.4693	820.9824	968.0984	1003.5061	1013.9521	1065.7199	1115.1149	1205.8901	1235.348	1279.4177	1378.2405	1404.3816	1422.183	1456.6154	1483.9271	1498.0502	1511.1492	1558.8619	1623.1646	1662.3854	1736.5394	2870.9087	3010.0726	3056.0033	3108.0021	3249.4991	3560.4167	3656.821	3675.9623
CC1=CNC(C=O)=C1N	Cc1c[nH]c(C=O)c1N	
InChI=1S/C6H8N2O/c1-4-2-8-5(3-9)6(4)7/h2-3,8H,7H2,1H3	InChI=1S/C6H8N2O/c1-4-2-8-5(3-9)6(4)7/h2-3,8H,7H2,1H3
