18
gdb 59004	3.65628	1.2016	1.0491	2.9109	72.23	-0.2515	0.0114	0.2629	1180.3083	0.147477	-439.085295	-439.076944	-439.076	-439.118558	31.603	
C	 0.2171525191	 1.0512474404	-0.7387668261	-0.393345
C	-0.0522631735	 0.0227074258	 0.3672859765	 0.061901
O	 0.0723170704	 0.6158793145	 1.6396713516	-0.439877
C	-1.4137211713	-0.5962332173	 0.2247801988	 0.38237
N	-2.3444089413	-0.4961775903	 1.0919622321	-0.336807
C	-3.4882639466	-1.1896171272	 0.5483485278	-0.019871
C	-4.0437831077	-0.6286575712	-0.7461463763	-0.31954
C	-3.0212793297	-1.7249196346	-0.795046081	 0.054187
O	-1.6626239943	-1.316432018	-0.9009736973	-0.246395
H	 1.2100969693	 1.4826205901	-0.5909815907	 0.130792
H	 0.1745327255	 0.584004459	-1.7264192834	 0.125818
H	-0.5203246848	 1.8579907229	-0.6912362962	 0.122717
H	 0.6840766554	-0.7914921797	 0.2690787477	 0.098195
H	-0.7831023662	 0.5068290081	 2.0798726151	 0.295322
H	-4.1286143535	-1.7120724331	 1.2478856015	 0.109272
H	-5.0564581708	-0.9151304127	-1.0077500369	 0.126524
H	-3.7542606576	 0.3756754221	-1.0370841827	 0.130219
H	-3.2047969423	-2.6988631489	-1.2284518905	 0.118519
54.4296	118.5248	197.8648	240.7158	282.3254	326.4449	373.8162	382.8825	489.2417	505.0224	661.8241	736.2232	748.4196	760.968	818.4804	897.1382	930.845	951.3942	987.1082	1021.6565	1050.9053	1057.2352	1083.5656	1100.0677	1121.7144	1136.3057	1152.4041	1187.375	1239.1059	1299.954	1341.0652	1358.2085	1367.4394	1398.6542	1451.4333	1460.3557	1489.884	1500.2638	1698.1114	2976.007	3045.106	3123.9847	3131.9708	3132.4873	3189.6053	3205.4133	3227.2368	3723.5234
CC(O)C1=NC2CC2O1	C[C@@H](O)C1=N[C@H]2C[C@H]2O1	
InChI=1S/C6H9NO2/c1-3(8)6-7-4-2-5(4)9-6/h3-5,8H,2H2,1H3	InChI=1S/C6H9NO2/c1-3(8)6-7-4-2-5(4)9-6/h3-5,8H,2H2,1H3/t3-,4+,5-/m1/s1
