17
gdb 31052	2.30848	1.42286	0.90001	2.6567	73.36	-0.1624	0.0614	0.2238	1260.2204	0.137303	-451.35283	-451.343572	-451.342628	-451.386697	34.12	
C	-0.1529237933	 1.4337729162	 0.1758032976	-0.319385
N	 0.3362875389	 0.0919554318	-0.110657888	-0.383764
C	 0.7903715799	-0.6755144292	 0.9543656949	 0.338346
C	 0.6861249282	-2.034969243	 1.1013058916	 0.122737
N	 0.0575696816	-2.9800023654	 0.2820993768	-0.615458
N	 1.3986549172	-2.3103114403	 2.3011053538	-0.35801
C	 1.8282862495	-1.1212663083	 2.763035605	 0.442447
O	 2.523025948	-1.0503215652	 3.9135158642	-0.4294
N	 1.4992317336	-0.1096002865	 2.0012417353	-0.427092
H	 0.6276287016	 1.9938914441	 0.6939274718	 0.148701
H	-0.3749795059	 1.9400448942	-0.7676623528	 0.111298
H	-1.0569887125	 1.4545100052	 0.8061803538	 0.098226
H	-0.2897851587	-0.4507451981	-0.6913468505	 0.233371
H	 0.6891399724	-3.6246466808	-0.1826007237	 0.235867
H	-0.6744076506	-3.5122736902	 0.7406391805	 0.233918
H	 1.5398042352	-3.2053541566	 2.7358355962	 0.258482
H	 2.7293231048	-0.115424838	 4.0393325235	 0.309717
78.6327	145.3572	173.5938	198.7178	231.3782	277.3268	296.5956	331.4511	380.9972	412.4709	444.2206	567.6124	610.1898	644.7572	695.6976	714.8115	729.2112	746.9315	860.2982	1047.2095	1067.1701	1128.4415	1155.5623	1162.8609	1197.3669	1206.3205	1240.6946	1320.3147	1426.1359	1466.89	1477.2866	1496.2745	1521.6834	1573.4521	1617.9615	1650.4658	1709.8399	2968.5385	3082.3588	3135.263	3480.49	3542.7127	3572.9772	3679.0151	3801.7186
CNC1=C(N)NC(O)=N1	CNc1c(N)[nH]c(O)n1	
InChI=1S/C4H8N4O/c1-6-3-2(5)7-4(9)8-3/h6H,5H2,1H3,(H2,7,8,9)	InChI=1S/C4H8N4O/c1-6-3-2(5)7-4(9)8-3/h6H,5H2,1H3,(H2,7,8,9)
