16
gdb 26868	3.04427	1.47343	0.99978	4.7954	82.14	-0.1961	-0.0474	0.1486	1140.6554	0.12434	-434.098771	-434.090307	-434.089363	-434.131892	31.705	
C	 0.0356830014	 1.5431480574	-0.0164180987	-0.506461
C	 0.0083363576	 0.0390078051	-0.0096228794	 0.192639
C	-1.1581270937	-0.6668883333	-0.0436227547	 0.364967
N	-2.4232813755	-0.1452148193	-0.1320722254	-0.564531
O	-1.1768138574	-2.0181749555	-0.0429741378	-0.252996
C	 0.0168203378	-2.7503131411	-0.0257854002	 0.347891
N	 0.0041698886	-4.0186069366	-0.0387518114	-0.531779
C	 1.2157526329	-1.9303399852	 0.0136026531	-0.064384
N	 1.2057938696	-0.6386230476	 0.0221116987	-0.263988
H	 1.0753330991	 1.8719176821	 0.029298813	 0.150042
H	-0.4147256492	 1.9667765741	-0.9231198727	 0.127308
H	-0.4890301823	 1.979617595	 0.8450656201	 0.114544
H	-2.5305317371	 0.8076892416	 0.1784952923	 0.269607
H	-3.1642067258	-0.7660018298	 0.1588110003	 0.266144
H	-0.949112532	-4.3803781045	-0.0671403559	 0.220258
H	 2.1617175359	-2.4620429923	 0.0388987887	 0.13074
82.5762	95.3741	187.1983	276.7098	281.6973	330.8106	357.9736	438.1305	477.4673	503.9295	517.4876	579.9713	677.9048	718.5087	748.145	780.9767	833.5578	903.0731	906.8202	972.1856	1055.6717	1061.5762	1100.7846	1224.0056	1248.4219	1290.3424	1383.2979	1401.5977	1431.1693	1488.1687	1495.3429	1561.1188	1630.4877	1666.7028	1735.9199	3003.0543	3049.2628	3135.1042	3182.0411	3492.9031	3578.3188	3693.0585
CC1=C(N)OC(=N)C=N1	CC1=C(N)OC(=C[N]1)[NH]	
InChI=1S/C5H7N3O/c1-3-5(7)9-4(6)2-8-3/h2,6H,7H2,1H3	InChI=1S/C5H7N3O/c1-3-5(7)9-4(6)2-8-3/h2,6H,7H2,1H3
