15
gdb 43482	2.38661	1.93778	1.18446	0.9905	67.93	-0.2589	-0.0203	0.2386	992.2087	0.115134	-453.972578	-453.965512	-453.964568	-454.004488	26.747	
N	-0.1057146322	 1.2362904119	 0.2881228025	-0.52369
C	-0.0009927564	 0.0007229619	 0.0327222985	 0.389588
N	 1.1394337498	-0.785608022	-0.1515610447	-0.364141
C	 0.9109119452	-2.0996101029	-0.5474201776	 0.412325
O	 1.7685782413	-2.9118169885	-0.7866141359	-0.353775
C	-0.6002991819	-2.285315007	-0.5968117498	-0.219236
C	-1.2056206651	-2.8408907701	 0.7128248977	-0.079886
O	-1.596217891	-1.5152888685	 1.1343129775	-0.282266
C	-1.1845656543	-0.9389922549	-0.1281440771	 0.067942
H	 0.803751745	 1.690449826	 0.3942885376	 0.216301
H	 2.0823761528	-0.4378398419	-0.0504352254	 0.263308
H	-0.9202836623	-2.739414	-1.5327017222	 0.119618
H	-2.0755942036	-3.489945649	 0.5616334286	 0.117976
H	-0.5111341627	-3.3188759063	 1.4114779706	 0.127286
H	-2.0133948945	-0.4716131386	-0.6637166404	 0.108651
92.5276	131.0212	240.6182	256.9059	370.3772	483.7555	599.83	609.5674	626.8089	694.2025	726.9542	806.1459	860.1721	884.7692	887.749	942.6465	975.3663	1022.6233	1036.0962	1069.3712	1108.0367	1155.2742	1213.055	1223.0791	1254.4278	1286.5052	1319.5321	1348.5566	1362.8116	1382.8083	1525.1939	1769.7	1852.5267	3031.3168	3082.5606	3096.5017	3139.5081	3452.4098	3616.6191
N=C1NC(=O)C2COC12	[NH][C]1NC(=O)[C@H]2CO[C@@H]12	
InChI=1S/C5H6N2O2/c6-4-3-2(1-9-3)5(8)7-4/h2-3H,1H2,(H2,6,7,8)	InChI=1S/C5H6N2O2/c6-4-3-2(1-9-3)5(8)7-4/h2-3H,1H2,(H2,6,7,8)/t2-,3+/m0/s1
