16
gdb 48325	2.19671	1.93523	1.22331	3.1039	70.39	-0.255	-0.0716	0.1834	1007.0306	0.122595	-437.797907	-437.789934	-437.78899	-437.831008	29.126	
O	-0.210596419	 0.3238625014	-0.7513398357	-0.235375
C	 0.0152631988	 1.1505044854	 0.0943963168	 0.071255
C	 1.2945157411	 1.9794528542	 0.1133542525	 0.190357
C	 1.4090328232	 2.6506231324	-1.2493439081	 0.080688
O	 1.5274675473	 3.8383222116	-1.4051242846	-0.242635
C	 1.7255487228	 2.7109297878	 1.4055995613	-0.119523
C	 1.9710100511	 1.2897602173	 1.9647478902	-0.183408
N	 2.5745754281	 1.175232443	 0.5469017118	-0.170206
C	 3.1663632959	 2.5671110859	 0.8656663055	-0.179517
H	-0.7297941991	 1.3931532332	 0.8839607012	 0.101029
H	 1.342953157	 1.9419301792	-2.0989664046	 0.122961
H	 1.2503054292	 3.5720116535	 1.8830379316	 0.087444
H	 2.7214212762	 1.1794435577	 2.7506443095	 0.116209
H	 1.1227946376	 0.6246356093	 2.1437837321	 0.115297
H	 3.4633010083	 3.1479914927	-0.0054446288	 0.134153
H	 3.9720558616	 2.5115702654	 1.6010198494	 0.111271
70.1727	94.728	158.802	210.7478	285.2867	320.9034	416.6227	479.8308	614.3386	645.7518	723.2186	780.3618	788.172	830.6062	898.1017	921.3319	949.0578	1014.0046	1052.4311	1058.9982	1073.0178	1090.3935	1154.2523	1175.2372	1193.7513	1202.0448	1221.0378	1253.7644	1282.9515	1399.8674	1413.6123	1521.6905	1557.8946	1802.2964	1826.652	2882.327	2942.799	3059.8232	3071.7431	3083.5754	3126.2129	3164.3716
O=CC1(C=O)C2CN1C2	O=CC1(C=O)[C@H]2CN1C2	
InChI=1S/C6H7NO2/c8-3-6(4-9)5-1-7(6)2-5/h3-5H,1-2H2	InChI=1S/C6H7NO2/c8-3-6(4-9)5-1-7(6)2-5/h3-5H,1-2H2
