13
gdb 5496	3.60154	1.93526	1.26063	5.928	67.64	-0.202	-0.0024	0.1996	883.307	0.098184	-357.694958	-357.687845	-357.6869	-357.726115	26.668	
N	 0.0521998525	 1.3894430376	 0.1659603547	-0.615552
C	 0.0119390075	 0.0006305418	 0.0489632081	 0.167506
C	-1.0898293976	-0.8242157532	 0.0288349546	-0.145827
N	-0.635414294	-2.1322426401	-0.0175413151	-0.235055
C	 0.7158923175	-2.167426579	-0.0271297616	-0.164944
C	 1.1674231981	-0.8548197269	 0.0106643639	 0.125828
C	 2.5079515211	-0.412402669	-0.0022578377	 0.186243
N	 3.5926085484	-0.0012633111	-0.020586594	-0.368177
H	 0.922589171	 1.7900586656	-0.1583396446	 0.259997
H	-0.7333342377	 1.8623742307	-0.258302273	 0.247443
H	-2.1422820346	-0.5976663022	 0.0533979286	 0.122875
H	-1.2297666665	-2.941927119	-0.039597216	 0.273175
H	 1.2693899245	-3.0904708852	-0.066180198	 0.146489
132.9203	162.555	217.0415	302.0621	367.5739	465.4802	537.503	542.4729	602.9816	617.1103	637.0364	661.4715	724.4867	750.9298	770.048	904.7239	1082.8559	1083.9246	1149.8925	1226.0754	1280.8033	1353.2884	1416.4581	1496.7108	1554.3125	1627.4612	1659.2806	2331.696	3275.2212	3280.8072	3548.8248	3643.2723	3690.5629
NC1=CNC=C1C#N	Nc1c[nH]cc1C#N	
InChI=1S/C5H5N3/c6-1-4-2-8-3-5(4)7/h2-3,8H,7H2	InChI=1S/C5H5N3/c6-1-4-2-8-3-5(4)7/h2-3,8H,7H2
