21
gdb 79459	2.42363	1.8317	1.45013	1.4569	81.17	-0.2495	0.0706	0.3201	1009.9605	0.184315	-387.064863	-387.057108	-387.056164	-387.096466	32.117	
C	-0.017438047	 1.5196882544	-0.0189024117	-0.510875
C	 0.0399472238	 0.011592229	 0.0085134064	 0.288754
C	-1.2615229039	-0.7946924205	-0.1902421718	-0.264325
C	-0.7174197495	-2.1102583846	 0.4087998026	-0.053521
C	-0.4459785683	-1.6743909114	 1.8733120393	-0.237765
C	 0.6534872795	-0.8178946307	 1.2285626646	-0.06523
C	 0.8372253033	-1.9084309365	 0.1191217852	-0.101488
C	 1.0277889485	-0.7895783497	-0.9033086689	 0.139014
O	 0.7949976853	-0.958975119	-2.2798519122	-0.450887
H	 0.9683978766	 1.9604194772	 0.1657819558	 0.112563
H	-0.3607625671	 1.8756131622	-0.997271871	 0.123194
H	-0.7062874545	 1.9110102895	 0.7384887547	 0.112033
H	-2.1110037143	-0.4013834298	 0.3765697091	 0.092876
H	-1.5611515787	-0.8478776419	-1.2423638405	 0.078119
H	-1.2320923145	-3.0422691797	 0.1756029496	 0.060332
H	-1.2615016521	-1.1942158794	 2.4249299733	 0.087251
H	-0.0132566967	-2.4755547865	 2.4796863548	 0.096745
H	 1.4846312124	-0.3709506868	 1.7730265658	 0.064081
H	 1.4951607917	-2.7704914688	 0.2231427976	 0.064934
H	 2.0367786537	-0.3711784529	-0.8202230829	 0.081291
H	 0.0277425117	-1.5279652942	-2.3915653299	 0.282906
176.9396	190.637	227.5096	275.2069	292.9357	302.3832	477.149	501.4435	548.7233	598.5692	693.8277	722.6312	785.1245	824.0182	833.8894	845.3147	903.8005	922.9434	954.312	973.2883	989.08	1008.7212	1016.0878	1057.4205	1064.9608	1104.3234	1139.3343	1144.5865	1160.3536	1189.5765	1197.4797	1219.6549	1244.6099	1256.0689	1268.207	1281.8964	1286.1624	1312.8712	1362.7468	1409.9036	1439.2058	1491.7547	1492.2835	1497.058	1524.3968	3021.2748	3036.9089	3041.5936	3058.4122	3081.2172	3086.4862	3089.4457	3095.1462	3111.0405	3117.1388	3127.2302	3829.7203
CC12CC3CC1C3C2O	C[C@]12C[C@@H]3C[C@H]1[C@@H]3[C@H]2O	
InChI=1S/C8H12O/c1-8-3-4-2-5(8)6(4)7(8)9/h4-7,9H,2-3H2,1H3	InChI=1S/C8H12O/c1-8-3-4-2-5(8)6(4)7(8)9/h4-7,9H,2-3H2,1H3/t4-,5-,6+,7+,8-/m0/s1
