19
gdb 103576	2.24814	1.32695	1.22601	4.2532	72.19	-0.2302	-0.0218	0.2084	1158.0983	0.155774	-460.156076	-460.146323	-460.145379	-460.190422	35.927	
C	-0.0433185096	 1.289796167	 0.1440570254	-0.251374
O	-0.0619868949	-0.0992553478	-0.115825083	-0.302709
C	 0.6938479582	-0.5627043749	-1.2311047156	 0.347589
C	 0.2407826363	 0.0238355456	-2.5557986487	-0.476936
C	 2.2168011804	-0.5912218335	-0.8865608773	-0.399317
C	 1.9749569925	-1.9879144842	-0.2731904743	 0.348283
O	 2.5188057986	-2.6272862891	 0.576292635	-0.290337
C	 0.6462325987	-2.1261036276	-1.0598456758	 0.03109
O	-0.4828519328	-2.716447584	-0.5149451721	-0.423845
H	 0.9791175769	 1.6801026458	 0.2414486733	 0.113195
H	-0.5631397187	 1.8622370341	-0.6348092216	 0.118925
H	-0.5643607072	 1.4373027992	 1.0927169142	 0.136185
H	 0.4328491657	 1.0992709165	-2.6197562059	 0.123366
H	 0.7756498009	-0.4552436468	-3.381181494	 0.122376
H	-0.8313909558	-0.1455825896	-2.6963611556	 0.136622
H	 2.8579818178	-0.6314528649	-1.7727877387	 0.127697
H	 2.5964776002	 0.1723267608	-0.2057710771	 0.131809
H	 0.8586017602	-2.6119121676	-2.0207920144	 0.110685
H	-0.7592234076	-2.1430548389	 0.2120409563	 0.296698
75.8941	113.7448	176.5901	189.7594	198.0307	233.8085	279.991	312.5556	358.8847	397.0152	421.2121	443.1995	579.2712	603.7907	642.8291	731.7167	773.3732	852.7997	875.8177	938.1728	1011.8408	1070.9088	1105.5127	1132.8326	1138.0874	1167.3724	1182.6931	1192.1271	1223.5445	1251.0346	1285.523	1326.4286	1404.9995	1425.1807	1441.5031	1476.5012	1485.0712	1488.4783	1504.2877	1511.29	1901.4263	3001.766	3037.2734	3040.5022	3057.7516	3065.2565	3107.8963	3114.6622	3120.9278	3131.8982	3773.8286
COC1(C)CC(=O)C1O	CO[C@@]1(C)CC(=O)[C@H]1O	
InChI=1S/C6H10O3/c1-6(9-2)3-4(7)5(6)8/h5,8H,3H2,1-2H3	InChI=1S/C6H10O3/c1-6(9-2)3-4(7)5(6)8/h5,8H,3H2,1-2H3/t5-,6+/m1/s1
