16
gdb 70784	3.88508	1.33921	1.14094	4.2149	74.65	-0.2773	0.0206	0.2979	1046.7338	0.124563	-400.690007	-400.682586	-400.681641	-400.72164	29.202	
O	-0.0624983351	 1.3134951195	 0.0647104391	-0.467765
C	 0.0586623425	-0.0548295125	 0.0584068949	 0.385786
C	 0.7739789002	-0.9800245337	 1.0645508454	-0.372679
C	 0.0901179969	-1.9282899255	 0.0506687798	 0.242348
C	 0.092970166	-3.3609997578	 0.0316982065	 0.166958
N	 0.1006038127	-4.5180753147	 0.0210478016	-0.355983
C	-1.1767150654	-0.9965449718	-0.0919205861	-0.109895
C	-1.0921220852	-0.9945511311	-1.6313148742	-0.274027
C	 0.3812619922	-0.9874764527	-1.178478566	-0.146916
H	 0.813672383	 1.7066933895	-0.0143480661	 0.291596
H	 1.8682196342	-0.9809909899	 1.0591463163	 0.107356
H	 0.3813444525	-1.0001710619	 2.0848288415	 0.117006
H	-2.044127691	-1.0285664038	 0.5674707846	 0.095864
H	-1.4454488837	-1.8918928724	-2.1454247624	 0.116185
H	-1.4475023066	-0.0898836967	-2.1293450698	 0.115336
H	 1.2994934769	-1.0067269743	-1.7669336553	 0.088828
136.7398	143.9765	253.1304	305.6784	346.636	424.6204	435.021	519.3582	546.453	562.1281	657.5607	705.6068	782.2732	864.0585	910.6262	921.2368	938.1227	1002.7022	1028.3395	1048.8978	1070.2873	1101.1392	1109.5556	1132.9335	1138.1943	1162.3162	1181.342	1232.859	1260.8659	1277.6331	1314.6318	1402.0824	1502.3841	1512.1494	2347.9697	3049.4411	3063.9081	3111.7471	3115.944	3122.6658	3127.2162	3806.3383
OC12CC3(C#N)C1CC23	O[C@@]12C[C@@]3(C#N)[C@@H]1C[C@@H]23	
InChI=1S/C7H7NO/c8-3-6-2-7(9)4(6)1-5(6)7/h4-5,9H,1-2H2	InChI=1S/C7H7NO/c8-3-6-2-7(9)4(6)1-5(6)7/h4-5,9H,1-2H2/t4-,5+,6+,7-
