19
gdb 107578	2.66023	1.55476	1.13647	4.2192	75.01	-0.2597	0.0123	0.2719	1117.5198	0.160099	-423.069499	-423.061158	-423.060213	-423.102452	31.603	
C	 0.2781046039	 1.5059206365	-0.2367679814	-0.382098
C	-0.143920304	 0.0684387083	 0.0927611748	-0.281356
C	 0.5925456278	-0.5100966591	 1.28188376	 0.197733
C	 2.0279480053	-1.0017903268	 1.1603488206	-0.318694
C	 0.9354493296	-1.968776282	 1.4979253471	-0.135465
C	 0.7300313762	-2.2331485491	 2.977608174	-0.101565
O	 0.5150680386	-0.9504503326	 3.5898946394	-0.231133
C	 0.277663284	 0.0173182563	 2.6529147916	 0.411843
O	-0.1320375601	 1.1022193409	 2.9566776544	-0.347193
H	 1.343636578	 1.5541084382	-0.4850762456	 0.111548
H	-0.285292874	 1.8872721516	-1.0936447402	 0.109612
H	 0.0976244564	 2.1603223709	 0.6184842792	 0.155505
H	-1.2219775703	 0.0376266279	 0.2906055976	 0.111066
H	 0.0318005293	-0.5818387322	-0.7729959601	 0.09523
H	 2.4265749723	-1.0317104313	 0.1519281888	 0.124823
H	 2.7497117472	-0.73040312	 1.9246936452	 0.130718
H	 0.6422211002	-2.7301714624	 0.7853966522	 0.104572
H	-0.1526118911	-2.8566871473	 3.1598651742	 0.121222
H	 1.5938473105	-2.6963816578	 3.4647206483	 0.123632
90.2483	131.8952	186.7591	209.3284	244.393	288.5038	346.66	420.6215	486.9165	607.3289	682.9933	716.4822	778.134	785.4788	846.9865	865.9923	915.7317	949.1113	985.5818	1007.1138	1038.1205	1061.9783	1068.9388	1090.5108	1115.9008	1122.0408	1149.2222	1232.7676	1256.1743	1282.7076	1348.8193	1363.1798	1386.0119	1407.8261	1413.6274	1480.2258	1492.7475	1495.8776	1514.3924	1521.0367	1865.1722	3025.9859	3037.9637	3040.4458	3062.5394	3083.0635	3105.3515	3125.8852	3138.2045	3187.2426	3215.1033
CCC12CC1COC2=O	CC[C@]12C[C@H]1COC2=O	
InChI=1S/C7H10O2/c1-2-7-3-5(7)4-9-6(7)8/h5H,2-4H2,1H3	InChI=1S/C7H10O2/c1-2-7-3-5(7)4-9-6(7)8/h5H,2-4H2,1H3/t5-,7-/m0/s1
