17
gdb 67975	3.19792	1.6174	1.22988	2.1485	71.81	-0.2334	-0.0227	0.2107	1002.8845	0.135666	-421.789774	-421.782588	-421.781644	-421.821136	28.936	
C	 0.002940791	 1.512272922	-0.0126755152	-0.500096
C	 0.0500123017	 0.0045286787	-0.0492108121	 0.323549
C	 0.4754034339	-0.7166300146	-1.3260201817	-0.423005
C	 0.3592854159	-2.1759693059	-0.8562426236	 0.407154
O	 0.5831826685	-3.1783212816	-1.4821408532	-0.318669
C	-0.1008951557	-2.039883796	 0.572472602	-0.159518
C	 0.6040247089	-0.7875243512	 1.1880128908	 0.014475
O	-0.5876927142	-0.4550149842	 1.9779700244	-0.312252
C	-1.084658203	-0.8271507929	 0.6478088701	 0.014473
H	 0.9885693804	 1.9397420899	-0.2265129972	 0.121056
H	-0.6930601271	 1.9002687344	-0.7643163525	 0.121057
H	-0.3202991873	 1.8553275661	 0.9728460544	 0.143256
H	-0.1842077983	-0.5243415263	-2.179521902	 0.130328
H	 1.4989128604	-0.4848873727	-1.6410584837	 0.130335
H	-0.275707373	-2.920849898	 1.1836007544	 0.101669
H	 1.577418216	-0.7333737441	 1.6774702738	 0.103095
H	-2.1626855246	-0.8211333535	 0.4810236524	 0.103095
121.9295	236.4027	265.3231	274.9379	353.414	392.201	518.66	594.6822	603.9868	654.8899	692.2916	713.6968	767.8398	848.8424	875.3098	900.7469	924.4367	942.3926	970.0205	1024.113	1049.9531	1089.6977	1121.2342	1152.3665	1167.3038	1194.0574	1208.2039	1221.3329	1245.9958	1262.6149	1309.1742	1346.3659	1408.3501	1460.0095	1491.8214	1499.5585	1860.9718	3035.0775	3045.3037	3087.0519	3093.7385	3108.3601	3113.4008	3128.3056	3174.2601
CC12CC(=O)C3C1OC23	C[C@@]12CC(=O)[C@H]3[C@@H]1O[C@@H]23	
InChI=1S/C7H8O2/c1-7-2-3(8)4-5(7)9-6(4)7/h4-6H,2H2,1H3	InChI=1S/C7H8O2/c1-7-2-3(8)4-5(7)9-6(4)7/h4-6H,2H2,1H3/t4-,5-,6+,7+
