21
gdb 59079	2.07444	1.45017	1.08088	4.4058	84.39	-0.2276	0.033	0.2606	1232.7177	0.181295	-383.263134	-383.253054	-383.25211	-383.29782	36.81	
C	-0.7522359116	 1.3274694692	 0.5973682942	-0.413823
C	-0.2831477066	-0.0901660662	 0.3618214471	-0.051849
C	 1.0320615746	-0.360411288	-0.3715235953	-0.233343
C	 1.8584442773	 0.7357818223	-0.7884163871	 0.312082
N	 2.5299005936	 1.6037732079	-1.1564718999	-0.357912
C	 0.8753569769	-0.6916640086	 1.1110793856	 0.026093
N	 1.5846435551	 0.0909967236	 2.0718719445	-0.051514
C	 0.9294469738	 0.074043275	 3.3746117	-0.32013
C	 2.9920599472	-0.2805868726	 2.1698508031	-0.325288
H	 0.0698425294	 1.964144421	 0.9280419597	 0.155291
H	-1.1703851634	 1.7527944774	-0.3202817211	 0.128876
H	-1.5352931018	 1.3500100381	 1.362245494	 0.11908
H	-1.0693684091	-0.7917030684	 0.0969505433	 0.100838
H	 1.0533051133	-1.2012726901	-1.0567638133	 0.131179
H	 0.8085118797	-1.7683968075	 1.3122491104	 0.078166
H	 0.9261391812	-0.9290043712	 3.84071817	 0.095759
H	 1.4488538228	 0.7584359677	 4.0519137862	 0.12497
H	-0.1063297708	 0.4081395605	 3.2774204482	 0.12456
H	 3.4735266805	-0.1797564167	 1.1948287557	 0.140889
H	 3.4961069772	 0.394060604	 2.8679739597	 0.12436
H	 3.1372920807	-1.3161573872	 2.5299695651	 0.091718
90.0657	107.4045	141.0766	170.2443	198.5157	228.5909	248.3079	269.13	329.0113	366.9841	372.1502	434.3656	543.3663	631.9478	659.0313	761.5614	793.4422	821.0256	934.6918	962.8426	1010.0069	1048.2876	1065.3029	1109.2624	1109.8071	1124.1069	1149.7648	1161.1333	1196.6118	1230.2983	1247.3776	1328.1299	1362.4576	1378.3431	1418.5181	1427.712	1443.7624	1478.7693	1483.4199	1493.7234	1495.3617	1499.7856	1502.5203	1514.5709	2349.5007	2933.3166	2940.1993	3010.4517	3042.7207	3072.375	3078.2713	3101.2248	3121.6437	3129.3198	3137.2895	3152.7413	3167.5871
CC1C(C#N)C1N(C)C	C[C@H]1[C@@H](C#N)[C@H]1N(C)C	
InChI=1S/C7H12N2/c1-5-6(4-8)7(5)9(2)3/h5-7H,1-3H3	InChI=1S/C7H12N2/c1-5-6(4-8)7(5)9(2)3/h5-7H,1-3H3/t5-,6+,7-/m0/s1
