16
gdb 33604	5.08496	1.31843	1.31104	2.091	80.62	-0.2299	0.0208	0.2508	993.7616	0.125243	-363.487917	-363.481339	-363.480395	-363.518651	27.226	
C	 0.0784241217	-1.1765482071	 0.0306182317	-0.352112
C	 0.0328059117	 0.0265671599	 0.0160802542	-0.0188
C	-0.0211444021	 1.4367560034	-0.0014180195	 0.38535
C	-0.0436873633	 2.4972339254	 1.0771558814	-0.154477
C	 1.029826737	 2.5247242927	-0.0164565286	-0.154483
C	 0.2609740676	 3.2926837879	-1.0992644848	-0.00381
C	-0.5317238408	 4.4278606661	-0.4275695834	-0.254722
C	-1.159678874	 3.2564206273	 0.3480634955	-0.003814
N	-0.9242826218	 2.3285206087	-0.8654760252	-0.222557
H	 0.1149318061	-2.2375252497	 0.0398834652	 0.17998
H	 0.1801147054	 2.3963056217	 2.1304775958	 0.103939
H	 2.0893847055	 2.445209083	 0.1854715131	 0.103939
H	 0.6758484182	 3.3651772251	-2.1039140563	 0.085118
H	 0.0093322097	 5.2010728522	 0.1228830026	 0.103062
H	-1.248909957	 4.8757708425	-1.1203393532	 0.118274
H	-2.1578052838	 3.2928592308	 0.7829328513	 0.085114
140.578	149.7904	382.5337	435.8537	494.2971	524.9116	575.2593	597.3218	680.8427	761.526	776.7201	787.3451	844.5048	855.6149	880.5413	893.3983	910.3409	944.9148	957.3203	987.1616	1005.9506	1026.5584	1043.4145	1091.5255	1095.3477	1161.6488	1207.3354	1222.198	1227.5216	1232.9494	1298.4601	1305.0879	1416.2289	1473.3067	2229.8602	3063.1981	3122.4409	3122.9097	3127.6802	3204.521	3213.7187	3502.7862
C#CC12C3C1C1CC3N21	C#C[C@@]12[C@H]3[C@@H]1[C@@H]1C[C@H]3N21	
InChI=1S/C8H7N/c1-2-8-6-4-3-5(7(6)8)9(4)8/h1,4-7H,3H2	InChI=1S/C8H7N/c1-2-8-6-4-3-5(7(6)8)9(4)8/h1,4-7H,3H2/t4-,5+,6-,7+,8-
