14
gdb 49870	3.65379	1.2555	0.93994	3.7585	67.18	-0.2652	-0.0295	0.2357	1147.4294	0.102146	-470.08199	-470.074123	-470.073178	-470.115019	28.093	
N	-0.158023024	 1.2775449873	 0.0081879887	-0.528698
C	-0.0172691207	 0.0198168633	 0.0008222374	 0.398851
C	-1.1855926022	-0.9537067672	 0.0018455824	-0.251766
N	-0.5372739939	-2.2657216788	-0.0084854235	-0.17434
C	-1.2600925015	-3.4529571188	-0.010941682	 0.166608
O	-0.8048258048	-4.5623764633	-0.0190829248	-0.263551
C	 0.8691022148	-2.1508590852	-0.015318535	 0.510035
O	 1.693212675	-3.0192943112	-0.0241595089	-0.351232
N	 1.1180611162	-0.7750894011	-0.0093026693	-0.415491
H	 0.7368848132	 1.7682026348	 0.0060851153	 0.221835
H	-1.8020687419	-0.8058059021	 0.893580672	 0.161922
H	-1.8114347712	-0.7964522273	-0.8817264731	 0.16192
H	-2.34806629	-3.2367213559	-0.0039623841	 0.089309
H	 2.0661169912	-0.4334079946	-0.0124754051	 0.274598
65.9526	124.2243	203.4425	204.5793	214.7516	360.0634	459.5078	523.4428	545.11	545.9412	639.8898	757.3089	765.7115	825.477	864.8517	907.0795	1017.0755	1037.9272	1104.8889	1185.1998	1204.7231	1211.9667	1269.7028	1360.9252	1377.4125	1395.2	1455.6332	1500.2565	1780.1697	1816.4546	1906.2538	2925.6735	3055.4385	3097.4733	3475.3554	3651.768
N=C1CN(C=O)C(=O)N1	[NH][C]1CN(C=O)C(=O)N1	
InChI=1S/C4H5N3O2/c5-3-1-7(2-8)4(9)6-3/h2H,1H2,(H2,5,6,9)	InChI=1S/C4H5N3O2/c5-3-1-7(2-8)4(9)6-3/h2H,1H2,(H2,5,6,9)
