18
gdb 60828	3.69417	0.90003	0.86796	2.5469	69.14	-0.2502	-0.0456	0.2046	1371.9931	0.145894	-476.191356	-476.182013	-476.181069	-476.226229	33.741	
O	-0.2380809997	 1.293153883	-0.1852321983	-0.445061
C	 0.1534333689	-0.0156824056	 0.1492315064	 0.020589
C	 0.7557642691	-0.694160741	-1.0666854471	 0.145696
O	 0.7718415164	-0.1539163857	-2.1451005086	-0.258493
C	 1.1767504431	 0.044570264	 1.3033109597	 0.075243
O	 2.2713092508	 0.85152805	 0.9059308009	-0.437779
C	 0.5308759554	 0.5333044338	 2.5834539274	 0.011179
C	 0.1083072779	-0.447527746	 3.6160915391	-0.247505
N	 1.2643278191	 0.4322494395	 3.8487047826	-0.316944
H	-0.1239282137	 1.3580849502	-1.1482804011	 0.300885
H	-0.71178302	-0.6233616465	 0.4693598183	 0.10237
H	 1.1663077584	-1.7121841879	-0.9131872018	 0.104519
H	 1.5869658505	-0.9605871618	 1.4733012521	 0.079873
H	 1.8832812318	 1.6705177113	 0.5687552935	 0.289181
H	-0.0340325241	 1.4565484441	 2.4737271038	 0.110587
H	-0.7574580471	-0.2449490574	 4.2396971502	 0.123709
H	 0.2829044723	-1.5032306332	 3.4186696976	 0.106578
H	 2.1351229809	-0.074646141	 3.7036861753	 0.235374
60.4653	72.2203	111.255	177.6481	229.8162	263.7719	305.9884	327.3411	392.4515	436.896	509.7338	550.5453	711.0544	745.8612	813.1663	846.7619	874.9226	917.1132	947.9016	964.9297	1005.3141	1061.5247	1084.3746	1134.4756	1146.4938	1161.1707	1191.9924	1243.3658	1252.7606	1263.8659	1299.2196	1317.8655	1336.7782	1394.11	1425.9883	1428.608	1436.9676	1514.2721	1816.7503	2937.4638	2959.7489	3020.47	3102.8627	3136.6422	3189.4005	3490.1922	3666.0344	3761.6608
OC(C=O)C(O)C1CN1	O[C@@H](C=O)[C@@H](O)[C@H]1CN1	
InChI=1S/C5H9NO3/c7-2-4(8)5(9)3-1-6-3/h2-6,8-9H,1H2	InChI=1S/C5H9NO3/c7-2-4(8)5(9)3-1-6-3/h2-6,8-9H,1H2/t3-,4+,5+/m1/s1
