18
gdb 86863	2.75037	1.27626	1.02786	4.483	72.79	-0.2456	-0.0384	0.2071	1195.7012	0.14749	-439.146956	-439.138147	-439.137203	-439.181088	32.027	
C	 0.0571452423	 1.6530239188	-0.0289866449	-0.40349
C	 0.0999362135	 0.1277153814	-0.0045751782	-0.092769
C	 0.7638410932	-0.5536615854	-1.2139918032	-0.25497
C	 1.4048939119	-1.8403821769	-0.6194876275	-0.097393
N	 1.6456026482	-1.4721897772	 0.7540009193	-0.294746
C	 0.8762838345	-0.4223163309	 1.2021807017	 0.42294
O	 0.8219634416	-0.0195557517	 2.3407530387	-0.377468
C	 0.5018333876	-3.0585130437	-0.7737055673	 0.157197
O	 0.0417395247	-3.6854889086	 0.1427590574	-0.237239
H	 1.0551452991	 2.0704458482	-0.200582451	 0.120045
H	-0.6062665492	 2.0211378258	-0.8171630321	 0.11385
H	-0.3006857737	 2.025310765	 0.93422929	 0.147159
H	-0.9229240057	-0.2549562857	 0.1170696382	 0.113882
H	 0.0691692696	-0.7786014297	-2.0276580013	 0.11473
H	 1.5536037596	 0.0846889615	-1.6206951688	 0.121207
H	 2.3376896144	-2.0786651425	-1.1516197023	 0.107067
H	 2.0080111542	-2.1342654602	 1.4232919192	 0.258967
H	 0.3042177343	-3.3393378682	-1.8347379179	 0.081032
56.5957	89.0496	130.8143	209.3957	237.3056	276.9541	319.0143	379.1122	477.777	524.5112	587.0702	669.9934	698.0149	732.5913	787.2838	852.592	891.0324	925.8696	981.6841	1017.016	1067.1076	1105.9176	1133.1948	1147.5539	1203.5018	1243.9146	1260.5076	1310.0351	1319.4523	1365.5473	1379.6749	1407.4874	1416.5192	1425.487	1491.9189	1497.3294	1499.926	1833.7049	1841.5498	2862.8661	2998.8858	3017.7045	3038.4545	3059.7782	3102.9244	3107.1976	3126.8389	3632.0138
CC1CC(NC1=O)C=O	C[C@H]1C[C@@H](NC1=O)C=O	
InChI=1S/C6H9NO2/c1-4-2-5(3-8)7-6(4)9/h3-5H,2H2,1H3,(H,7,9)	InChI=1S/C6H9NO2/c1-4-2-5(3-8)7-6(4)9/h3-5H,2H2,1H3,(H,7,9)/t4-,5+/m0/s1
