21
gdb 88000	2.73286	1.31355	1.11416	1.7934	83.21	-0.2493	0.0708	0.3201	1205.8115	0.181493	-387.049035	-387.040158	-387.039214	-387.082612	34.15	
C	-0.0125365497	 1.4253077179	-0.2544027562	-0.406299
C	 0.1455601528	-0.069763288	-0.0846099074	-0.073383
C	 1.516648689	-0.6956341944	 0.0094615877	-0.340862
C	 0.6229936971	-0.6431064973	 1.2196926925	 0.288483
C	 0.9255419632	 0.052418824	 2.5600136121	-0.323904
C	 0.6624701799	-1.3059082808	 3.2893767076	-0.322989
C	 0.1320645561	-1.8670628891	 1.9643812129	 0.402907
C	-1.0286765095	-2.7231323167	 1.7125999905	-0.271713
O	 0.3139777492	-3.2003744032	 1.5219116437	-0.274492
H	 0.7606236731	 1.968942751	 0.2980252309	 0.116473
H	 0.068180177	 1.7139261064	-1.308113465	 0.118954
H	-0.9861192573	 1.7700687356	 0.1120419974	 0.115785
H	-0.6023082068	-0.6636876889	-0.6067707388	 0.081814
H	 1.6754810943	-1.6686918656	-0.4435606462	 0.124402
H	 2.3797574399	-0.0360854048	-0.0085727011	 0.106636
H	 1.930520901	 0.4644059385	 2.6748713179	 0.104487
H	 0.1978040861	 0.8254664902	 2.8227153087	 0.105085
H	 1.5824188371	-1.808149049	 3.599020074	 0.119742
H	-0.0334485773	-1.2875541204	 4.1310870147	 0.105155
H	-1.5670110045	-3.1675921974	 2.5495118099	 0.111841
H	-1.6124633008	-2.5990447479	 0.8011192541	 0.111875
65.5915	132.7946	157.3271	195.9398	243.2722	280.809	332.2478	402.2902	451.8365	504.9035	553.3919	608.2509	757.8778	795.1298	839.9687	875.0933	879.0646	899.2138	916.8671	931.0677	957.0197	1004.6632	1037.6612	1076.7318	1109.9964	1118.7451	1125.9812	1139.1215	1147.5127	1162.9486	1188.956	1194.3583	1228.9085	1250.5528	1260.7152	1331.6374	1403.8817	1417.3814	1441.9668	1471.7151	1485.2544	1491.8864	1497.5895	1507.2134	1539.1475	3027.2383	3056.4208	3066.4526	3075.7389	3087.8543	3096.9522	3103.8196	3118.4146	3123.4552	3124.9361	3161.2238	3209.0559
CC1CC11CCC11CO1	C[C@H]1C[C@]21CC[C@]12CO1	
InChI=1S/C8H12O/c1-6-4-7(6)2-3-8(7)5-9-8/h6H,2-5H2,1H3	InChI=1S/C8H12O/c1-6-4-7(6)2-3-8(7)5-9-8/h6H,2-5H2,1H3/t6-,7-,8+/m0/s1
