14
gdb 6363	5.69697	1.07411	0.91695	5.9599	56.52	-0.2653	-0.0172	0.2481	1179.607	0.1063	-453.054346	-453.045792	-453.044848	-453.088295	29.797	
N	-0.1576956214	 1.3266795757	-0.0399937867	-0.566312
C	 0.1365627383	-0.0218516373	 0.0663067347	 0.469788
O	 1.2430118935	-0.4616064227	 0.2335147896	-0.323971
N	-1.0393055905	-0.8093866023	 0.0241745152	-0.403698
C	-1.1085077992	-2.1883465454	-0.0553366546	 0.406201
O	-0.1720100982	-2.9287657431	-0.2448297962	-0.327016
C	-2.5227601199	-2.7598954523	 0.1047975117	-0.149887
O	-2.4993657948	-4.1421569086	-0.0630274017	-0.415786
H	 0.665916348	 1.9015439194	-0.1366600794	 0.272564
H	-0.9369307375	 1.6116452143	-0.6137492301	 0.255849
H	-1.9145727156	-0.3266017096	 0.1657833503	 0.257933
H	-2.8989597376	-2.4796843826	 1.1035701676	 0.115657
H	-3.1885875579	-2.2824058772	-0.6329796819	 0.109442
H	-1.5603212071	-4.3612341683	-0.1886073284	 0.299236
53.5077	73.7596	118.6314	153.5278	310.3417	362.3322	400.7911	420.4847	432.5247	524.8013	554.3363	589.0224	604.7148	744.1338	774.4013	931.1094	959.6575	1033.6128	1110.3712	1144.2171	1204.2876	1249.5221	1299.824	1330.6606	1457.1328	1505.8205	1526.8386	1628.6683	1803.2038	1874.2006	2963.2119	2983.773	3575.6887	3609.3116	3660.3577	3691.4444
NC(=O)NC(=O)CO	NC(=O)NC(=O)CO	
InChI=1S/C3H6N2O3/c4-3(8)5-2(7)1-6/h6H,1H2,(H3,4,5,7,8)	InChI=1S/C3H6N2O3/c4-3(8)5-2(7)1-6/h6H,1H2,(H3,4,5,7,8)
