20
gdb 83518	2.78068	1.74969	1.56775	1.4763	76.67	-0.2342	0.0812	0.3154	959.4154	0.17449	-403.124791	-403.117734	-403.11679	-403.155777	29.587	
C	-0.0694556874	 1.5490259663	 0.0324642354	-0.439657
C	 0.0231379832	 0.0266713591	 0.001237618	 0.023039
C	 0.9947379525	-0.5983390847	-1.0358028186	-0.083883
C	 2.3466038184	-0.1179800655	-0.4568740092	-0.077812
O	 2.1433598427	-0.1343081413	 0.9723529259	-0.284032
C	 0.7919405544	-0.6061244426	 1.1757754413	 0.084919
C	 0.8305826546	-2.0942401947	 0.8178701732	-0.045847
N	-0.2895095916	-2.5670729133	-0.0294762351	-0.354748
C	 0.9581431794	-2.0859208837	-0.6625364249	-0.030226
H	 0.8849014389	 2.0170439733	 0.2857739903	 0.131926
H	-0.3988159578	 1.9407489742	-0.9360124601	 0.110907
H	-0.801629493	 1.8693934227	 0.781226013	 0.114841
H	-0.9686267601	-0.4122896978	-0.1008223884	 0.107716
H	 0.8278934312	-0.3461149985	-2.0841615964	 0.065665
H	 3.1777412274	-0.7840767347	-0.7192927828	 0.094439
H	 2.6048558573	 0.8984859987	-0.7765683877	 0.097861
H	 0.4903135424	-0.3377960129	 2.1886598829	 0.069833
H	 1.3693014936	-2.7895107488	 1.4512609916	 0.09363
H	-0.2759263935	-3.5842393908	-0.0360163752	 0.231845
H	 1.5926954775	-2.7892303352	-1.1918734933	 0.089586
173.1022	240.0753	278.3243	294.1565	348.9344	387.1468	511.5574	582.666	623.3852	747.0795	757.2473	828.6139	862.9922	877.2106	898.3481	903.8154	916.855	953.2732	955.8962	964.9136	1013.2469	1054.2706	1063.8398	1078.3424	1094.767	1109.2789	1118.8637	1162.8369	1189.609	1217.7657	1230.8732	1265.7078	1296.8149	1302.572	1312.2696	1352.8983	1371.7442	1382.2612	1407.5446	1420.8329	1493.5013	1504.2676	1530.6045	3019.0811	3036.2078	3054.5935	3093.8687	3103.0872	3111.1164	3116.9565	3130.8377	3162.3896	3182.1711	3501.6004
CC1C2COC1C1NC21	C[C@H]1[C@H]2CO[C@@H]1[C@H]1N[C@@H]21	
InChI=1S/C7H11NO/c1-3-4-2-9-7(3)6-5(4)8-6/h3-8H,2H2,1H3	InChI=1S/C7H11NO/c1-3-4-2-9-7(3)6-5(4)8-6/h3-8H,2H2,1H3/t3-,4+,5-,6-,7-/m0/s1
