13
gdb 24818	3.10383	1.52568	1.02289	3.0789	76.78	-0.2356	-0.0505	0.1852	1064.4894	0.0901	-415.598696	-415.591353	-415.590409	-415.630728	27.564	
N	-0.0389000266	 1.304256732	-0.1892680999	-0.511139
C	-0.0074325584	 0.0436262301	-0.0129931427	 0.284473
N	 1.1991032727	-0.6703987836	 0.1991638338	-0.30219
C	 1.165975637	-1.9247064126	 0.3684108529	 0.125992
O	 0.0651148911	-2.7246113643	 0.3743169817	-0.182011
C	-1.1286254349	-2.1018586561	 0.1759663424	-0.018804
C	-1.2405411514	-0.7723764662	-0.0173215471	-0.016854
C	-2.5124845109	-0.1791785001	-0.2189938673	 0.261571
C	-3.5977893712	 0.3117428962	-0.388970958	-0.372011
H	 0.9162871364	 1.666856868	-0.1488645501	 0.224095
H	 2.0617618486	-2.5154326534	 0.5342495551	 0.152628
H	-1.9578928814	-2.7953993622	 0.1929512339	 0.155187
H	-4.547023031	 0.7625150421	-0.5405604245	 0.199064
86.3299	144.2569	193.3343	381.8496	389.7876	432.4615	458.8387	547.0461	558.7836	585.2053	606.7397	656.3992	733.2123	797.6311	898.1117	903.2418	923.0085	967.7086	979.4691	1071.8633	1181.8456	1216.7773	1334.3897	1395.7297	1419.6065	1629.9129	1701.2579	1717.0743	2234.4209	3195.0429	3240.7862	3461.609	3505.4425
N=C1N=COC=C1C#C	[NH]C1=C(COC=N1)C#C	
InChI=1S/C6H4N2O/c1-2-5-3-9-4-8-6(5)7/h1,3-4,7H	InChI=1S/C6H5N2O/c1-2-5-3-9-4-8-6(5)7/h1,4,7H,3H2
