20
gdb 54267	2.67615	1.28345	1.16514	2.721	74.18	-0.2449	0.0286	0.2735	1158.256	0.171199	-440.326274	-440.316737	-440.315793	-440.361646	34.855	
C	-0.0211855405	 1.5071149339	-0.0201593992	-0.44806
C	-0.0210322817	-0.0332579896	-0.0247479809	 0.190622
C	 0.8114781551	-0.5789644061	-1.2177657278	-0.291075
C	 2.0523800234	-1.2124865706	-0.5550155782	-0.079913
O	 2.1198540306	-0.6609509441	 0.7573646641	-0.242437
C	 0.780896137	-0.5783976634	 1.1959817912	-0.125887
C	-1.4512860988	-0.6008265687	-0.0260114591	 0.355767
N	-2.2176362874	-0.2213460875	 1.0396483978	-0.519935
O	-1.8789515792	-1.3600057692	-0.8746403459	-0.363203
H	 1.0108940281	 1.8668754159	 0.0314024519	 0.135212
H	-0.4767050466	 1.9036363712	-0.9328852513	 0.129217
H	-0.5624628692	 1.9292223085	 0.833158643	 0.099973
H	 0.226620991	-1.3013519908	-1.7873893688	 0.139552
H	 1.094735613	 0.2364863634	-1.8877333882	 0.100641
H	 1.9475328965	-2.3073000056	-0.4976045939	 0.095991
H	 2.9931092471	-0.9835903314	-1.0610498737	 0.108436
H	 0.7500357837	 0.0810482392	 2.0687436049	 0.09825
H	 0.4026337342	-1.5707481195	 1.492999318	 0.096952
H	-1.9100924766	 0.4441794948	 1.7254112894	 0.258234
H	-3.1658423599	-0.5568690102	 1.0820172665	 0.261662
32.046	50.1492	139.7888	196.8566	235.1511	266.7859	282.3565	362.3456	367.1635	422.3426	505.9276	573.9273	626.6526	671.9449	767.8447	772.2727	837.625	898.5187	940.6341	959.3081	978.2624	997.5159	1037.0018	1087.5199	1103.8579	1157.2092	1176.2152	1199.2419	1242.5354	1257.6995	1290.0896	1321.691	1352.0522	1359.7253	1397.5784	1418.7043	1491.1605	1496.7461	1503.9841	1505.9742	1524.9238	1617.978	1787.3126	2966.0646	2982.4997	3033.6771	3069.9893	3077.4334	3099.5822	3100.9574	3112.3626	3137.7394	3607.7503	3745.1536
CC1(CCOC1)C(N)=O	C[C@]1(CCOC1)C(=O)N	
InChI=1S/C6H11NO2/c1-6(5(7)8)2-3-9-4-6/h2-4H2,1H3,(H2,7,8)	InChI=1S/C6H11NO2/c1-6(5(7)8)2-3-9-4-6/h2-4H2,1H3,(H2,7,8)/t6-/m1/s1
