15
gdb 35412	3.18519	1.62804	1.35714	3.9317	68.08	-0.2531	-0.0135	0.2396	934.6835	0.113651	-416.724422	-416.717588	-416.716644	-416.755725	26.588	
N	-0.4020724001	-1.1433419497	-0.4454518165	-0.321214
C	-0.2168577347	-0.0275660061	-0.2077847255	 0.302258
C	-0.0025077432	 1.395246267	 0.0521486443	-0.046126
O	-0.1672857807	 1.7915024822	 1.4366725465	-0.297889
C	 1.0808276472	 2.5424345223	 1.4056658465	 0.093499
C	 2.319566014	 1.8070202262	 1.9326450987	-0.034638
C	 2.2586785932	 0.3691365666	 1.641830953	-0.250912
N	 2.6315237384	 1.2640680809	 0.5242336126	-0.156182
C	 1.4199551671	 2.0115837773	 0.0151926573	-0.039174
H	-0.6898627937	 1.9608539635	-0.5918725088	 0.133856
H	 0.9505112668	 3.5911501338	 1.6725001774	 0.101233
H	 3.0913850397	 2.2656380643	 2.5415679749	 0.107858
H	 3.1061260086	-0.2308760045	 1.9576001861	 0.137104
H	 1.309062643	-0.1516197725	 1.6580859066	 0.156886
H	 1.6781639544	 2.6204954186	-0.848100263	 0.113442
125.1758	141.8965	261.4565	318.6317	403.6473	505.6722	554.8098	596.8165	691.4163	703.0485	726.863	831.5586	887.2285	903.4722	931.4029	961.0189	991.6469	1006.3558	1031.6341	1051.6906	1076.8808	1112.2973	1139.8135	1198.246	1215.2852	1235.0488	1275.9564	1294.435	1318.5957	1353.118	1368.2663	1501.1563	2354.8661	3015.1725	3115.2507	3140.6532	3143.7391	3172.4274	3230.3139
N#CC1OC2C3CN3C12	N#C[C@H]1O[C@H]2[C@H]3CN3[C@@H]12	
InChI=1S/C6H6N2O/c7-1-4-5-6(9-4)3-2-8(3)5/h3-6H,2H2	InChI=1S/C6H6N2O/c7-1-4-5-6(9-4)3-2-8(3)5/h3-6H,2H2/t3-,4-,5+,6+,8?/m1/s1
