14
gdb 45630	3.97786	1.15308	0.95561	2.5403	64.42	-0.2786	-0.036	0.2426	1169.308	0.100965	-473.844872	-473.83753	-473.836586	-473.877402	26.615	
O	 0.0862240692	 0.0296029272	-0.0258499819	-0.301749
C	-0.0082177297	 1.2137218348	-0.0294791549	 0.405694
C	-1.2070269592	 2.1500383386	-0.1327318817	-0.31724
N	-0.6540676896	 3.4970386439	-0.0659585888	-0.305982
C	 0.6026423046	 3.3437000539	 0.049425262	 0.431356
O	 1.0993560935	 2.0585426167	 0.0784505122	-0.230482
C	 1.5907810551	 4.4328305783	 0.1698752947	-0.027215
C	 2.8710718146	 4.2320870288	 0.8736892758	-0.172517
O	 2.8147480136	 4.2646190159	-0.5465794925	-0.215413
H	-1.7453342239	 1.983334099	-1.0720382121	 0.16659
H	-1.9150722973	 1.9618554041	 0.6815605425	 0.164068
H	 1.1425026223	 5.4219077548	 0.123557942	 0.129465
H	 3.3402825078	 5.0917857694	 1.3487954356	 0.13099
H	 3.0919737489	 3.2604972046	 1.3089446073	 0.142437
81.1703	127.8667	159.1537	217.6298	371.2158	409.1489	508.419	542.8254	627.9562	716.5404	747.6341	848.454	873.4551	888.5889	930.6817	986.7804	996.8636	1039.894	1098.0323	1121.1587	1162.0739	1169.6554	1184.8909	1256.3053	1283.5215	1340.2625	1414.9283	1442.8521	1517.5063	1727.4591	1928.2002	3055.6721	3090.0093	3097.4917	3159.102	3195.327
O=C1CN=C(O1)C1CO1	O=C1CN=C(O1)[C@H]1CO1	
InChI=1S/C5H5NO3/c7-4-1-6-5(9-4)3-2-8-3/h3H,1-2H2	InChI=1S/C5H5NO3/c7-4-1-6-5(9-4)3-2-8-3/h3H,1-2H2/t3-/m1/s1
