20
gdb 63771	3.14717	1.20572	1.05298	3.4739	81.26	-0.2456	-0.0348	0.2108	1210.7492	0.169144	-403.111296	-403.102288	-403.101344	-403.144787	34.377	
C	-0.5057081204	 1.6235416529	 0.0922513862	-0.447791
C	-0.1570244596	 0.141273906	 0.0711854803	 0.338917
C	-1.4387112618	-0.6928832351	 0.0770765723	-0.410605
C	 0.8768816489	-0.4194003305	-0.955740697	-0.323745
C	 1.6364316142	-0.9687922777	 0.2528670155	-0.042665
C	 2.0923547963	 0.0897640201	 1.1937714513	-0.084445
C	 2.6415984615	 1.4067087806	 0.7630789966	 0.134058
O	 3.4264934888	 2.0264097088	 1.4408328508	-0.262967
N	 0.6708948692	-0.3775256597	 1.2420726403	-0.170926
H	 0.3630011017	 2.2796607511	 0.0245143329	 0.119203
H	-1.1677237046	 1.8647360623	-0.746521066	 0.121958
H	-1.0368477827	 1.8662024474	 1.018504018	 0.134067
H	-2.0226659362	-0.5013228243	-0.8292422552	 0.113635
H	-1.2098555587	-1.7612736884	 0.1235572584	 0.120246
H	-2.0527600557	-0.4430125742	 0.9475883347	 0.125989
H	 0.4597561327	-1.1989480845	-1.5957508222	 0.11448
H	 1.4087587427	 0.2945665564	-1.5887869513	 0.111991
H	 2.0031181805	-1.9861302092	 0.3510393142	 0.105741
H	 2.6062656948	-0.2614907031	 2.084988639	 0.11995
H	 2.3491233586	 1.7770167213	-0.2389404188	 0.082908
73.371	140.6384	162.549	234.8634	257.504	284.2964	333.3817	355.9967	389.1703	438.4052	472.7304	586.9038	622.873	751.7141	794.0077	827.0945	844.3059	920.3206	951.9227	966.2433	990.3534	999.8604	1034.0238	1048.6272	1077.4896	1108.593	1138.3658	1181.9639	1230.3192	1258.3935	1270.0004	1285.2522	1334.5457	1366.1688	1403.2982	1419.7924	1454.6131	1477.0306	1482.088	1497.9616	1500.8905	1509.1158	1800.1119	2927.5329	3034.7892	3042.3463	3069.6881	3101.2043	3111.1644	3114.2851	3120.7404	3137.9015	3149.3682	3159.4373
CC1(C)CC2C(C=O)N12	CC1(C)C[C@H]2[C@@H](C=O)N12	
InChI=1S/C7H11NO/c1-7(2)3-5-6(4-9)8(5)7/h4-6H,3H2,1-2H3	InChI=1S/C7H11NO/c1-7(2)3-5-6(4-9)8(5)7/h4-6H,3H2,1-2H3/t5-,6+,8?/m0/s1
