21
gdb 88544	3.22765	1.13396	1.10346	1.7706	83.03	-0.2351	0.0794	0.3145	1239.5893	0.182083	-387.043423	-387.034749	-387.033805	-387.077078	33.561	
C	-0.2272244584	 1.4997220585	 0.0195887869	-0.415844
C	-0.1046980783	-0.0040890911	 0.1325613571	 0.013838
C	 1.1616002373	-0.7182342797	-0.2645803607	-0.315567
C	 0.7448520327	-0.6845287957	 1.1902301279	-0.131654
C	 1.523082355	 0.0493295045	 2.2137526866	 0.452517
C	 2.5691968033	 1.1790847658	 2.07879653	-0.295325
C	 3.251441291	 0.6486015341	 3.3874154626	-0.247685
C	 2.1636176717	-0.4282741153	 3.4571543579	-0.04712
O	 0.9003744583	 0.2462549997	 3.5001267179	-0.299963
H	 0.7331000553	 2.0001937556	 0.1695609855	 0.122405
H	-0.5919785177	 1.7825695257	-0.974145516	 0.115257
H	-0.9290875289	 1.8986807783	 0.7597690653	 0.126219
H	-1.026412707	-0.5344153296	-0.0936069984	 0.086813
H	 1.1005317815	-1.6625883088	-0.7940902912	 0.111692
H	 2.0053537986	-0.1010277116	-0.5568454848	 0.111357
H	 0.3270231541	-1.6055021666	 1.5874509928	 0.087104
H	 3.2149474559	 1.079795118	 1.203619345	 0.106185
H	 2.1575747278	 2.1898625891	 2.1182650663	 0.109886
H	 4.2493916124	 0.2435734472	 3.2030341942	 0.104165
H	 3.2850668796	 1.3311518486	 4.2399331991	 0.109719
H	 2.2078675156	-1.4196438766	 3.8957837761	 0.096001
45.9819	124.3894	177.3364	211.2974	238.304	313.1321	362.1145	417.397	459.5773	524.5985	650.4651	731.065	773.4969	777.2962	849.3684	869.7107	879.5882	916.7223	926.8282	941.0858	956.8457	1000.3156	1025.2359	1055.2877	1064.4792	1073.5672	1111.7699	1148.3468	1150.798	1194.6967	1206.8695	1213.848	1219.4356	1233.5927	1266.3519	1305.4068	1348.8961	1401.4633	1423.5854	1462.5833	1465.4366	1486.5638	1494.8109	1498.9057	1511.0761	3033.3823	3063.0804	3071.109	3091.1522	3111.2528	3114.7564	3129.1804	3132.4193	3135.4467	3145.9796	3173.5439	3213.82
CC1CC1C12CCC1O2	C[C@H]1C[C@H]1[C@]12CC[C@H]1O2	
InChI=1S/C8H12O/c1-5-4-6(5)8-3-2-7(8)9-8/h5-7H,2-4H2,1H3	InChI=1S/C8H12O/c1-5-4-6(5)8-3-2-7(8)9-8/h5-7H,2-4H2,1H3/t5-,6+,7+,8+/m0/s1
