18
gdb 97234	3.5537	1.22696	0.95544	1.1183	79.99	-0.2238	0.0022	0.226	1230.2973	0.149557	-435.280272	-435.271693	-435.270749	-435.314124	31.123	
C	-0.1027146165	 1.4942701697	-0.5904333311	-0.320182
N	 0.023159607	 0.0917211513	-0.2442686646	-0.342432
C	-0.965993444	-0.5149602168	 0.2619390339	 0.474263
N	-0.7800830558	-1.8457952951	 0.6567943044	-0.366948
C	-1.658455371	-2.9003393158	 0.8801572199	 0.097433
N	-2.9133348316	-2.9542930678	 1.0502688931	-0.248325
C	-3.7422001619	-1.7673049463	 1.037552117	-0.156484
C	-3.0634152164	-0.4676546216	 1.4493533696	-0.110064
O	-2.1853801933	 0.0352072092	 0.4333340637	-0.250405
H	 0.8519947125	 1.9944651806	-0.398908587	 0.118518
H	-0.3123297951	 1.6042335959	-1.6625956883	 0.12266
H	-0.8949205943	 2.0166239343	-0.0405495485	 0.114647
H	 0.184178576	-2.1107796315	 0.5167165928	 0.264148
H	-1.1041193936	-3.8393697432	 0.9320138584	 0.116585
H	-4.1784139749	-1.6316734481	 0.0378863421	 0.123902
H	-4.586311357	-1.9412213856	 1.7176454783	 0.112204
H	-3.8083268856	 0.3210206642	 1.5829686317	 0.125104
H	-2.5163810047	-0.5902543836	 2.3916949248	 0.125375
62.2607	90.8455	123.1898	213.884	241.275	295.9985	368.0463	406.6173	478.5884	528.672	625.0211	662.2294	719.857	761.1539	859.1609	887.9476	941.8432	963.2161	1024.5741	1059.5085	1086.4583	1108.4076	1130.6394	1171.4202	1184.8902	1259.9541	1290.4447	1325.4778	1385.8831	1417.8458	1442.5724	1457.4142	1474.2205	1487.6076	1494.0852	1500.9395	1505.7225	1759.7773	1766.5868	3008.0678	3011.1744	3033.9165	3049.1019	3061.3476	3087.5515	3105.3403	3112.1856	3614.8504
CN=C1NC=NCCO1	CN=C1NC=NCCO1	
InChI=1S/C5H9N3O/c1-6-5-8-4-7-2-3-9-5/h4H,2-3H2,1H3,(H,6,7,8)	InChI=1S/C5H9N3O/c1-6-5-8-4-7-2-3-9-5/h4H,2-3H2,1H3,(H,6,7,8)
