20
gdb 103219	3.70251	1.28572	1.14352	2.0056	78.85	-0.2395	0.0759	0.3154	1145.4104	0.170809	-403.051663	-403.043572	-403.042628	-403.084106	32.234	
C	 0.0946972313	 1.6123501112	-0.1391416577	-0.381628
C	 0.045246457	 0.1144001748	 0.183762685	-0.245429
C	-1.3487478913	-0.4728682956	 0.0562764126	 0.46458
O	-2.1919571228	 0.1703181783	 0.9784831414	-0.500092
C	-1.9538235737	-0.7300918447	-1.3421581124	-0.080326
C	-1.1694575171	-2.0550473201	-1.5743184621	-0.079977
C	-2.4915842624	-2.7685312917	-1.8404683778	-0.187592
N	-2.9157709567	-1.8022944106	-0.7410130003	-0.199238
C	-1.5259571232	-2.0007966733	-0.0592984916	-0.089502
H	 1.1051215715	 2.0081536802	-0.0006813739	 0.108961
H	-0.1988967393	 1.8051579202	-1.176841281	 0.110795
H	-0.5857025673	 2.1674124984	 0.5106202696	 0.139973
H	 0.7301025244	-0.4364622258	-0.4703196595	 0.097115
H	 0.3861520519	-0.0527980411	 1.2125994773	 0.10724
H	-3.0688674194	-0.2202115508	 0.8640823344	 0.293456
H	-2.3246191834	-0.0320922925	-2.0960562081	 0.082312
H	-0.1861413348	-2.1880644939	-2.0343655853	 0.071451
H	-2.9950433585	-2.5884118954	-2.7960846848	 0.103383
H	-2.5807282773	-3.8214557202	-1.5532180435	 0.103379
H	-1.3931127889	-2.7858159074	 0.6887886275	 0.081139
83.074	171.6539	186.6589	246.7528	310.8158	353.3883	374.6224	499.8386	525.5073	566.3596	644.1382	736.2704	786.4168	793.5455	841.1205	846.1549	889.7901	924.019	949.9358	980.8527	1021.0303	1030.6991	1031.3695	1079.3549	1084.1164	1104.5811	1130.1983	1145.0089	1166.8612	1175.8377	1193.9274	1197.4085	1271.524	1276.2666	1293.1653	1328.8256	1359.9667	1407.348	1442.4755	1477.2196	1497.2899	1510.5771	1522.9575	3034.6588	3035.255	3039.3019	3060.9338	3073.4525	3089.5802	3094.2487	3097.2672	3103.3083	3130.985	3758.6301
CCC1(O)C2C3CN2C13	CC[C@@]1(O)[C@H]2[C@@H]3CN2[C@H]13	
InChI=1S/C7H11NO/c1-2-7(9)5-4-3-8(5)6(4)7/h4-6,9H,2-3H2,1H3	InChI=1S/C7H11NO/c1-2-7(9)5-4-3-8(5)6(4)7/h4-6,9H,2-3H2,1H3/t4-,5+,6-,7+
