14
gdb 131159	3.23236	1.20765	0.89096	3.7805	67.96	-0.2254	0.0089	0.2343	1199.5912	0.102179	-432.892303	-432.884054	-432.883109	-432.926661	29.164	
O	-0.7037361252	 1.3606433818	 0.2279426181	-0.449196
C	-0.2190643592	 0.090334842	 0.1397359571	 0.154913
C	 0.220847855	-0.4817761209	-1.0377822446	 0.308356
C	 0.2651553212	 0.087679098	-2.4257730297	-0.456051
C	 1.1415231617	-0.6784327934	-3.3115822969	 0.263786
N	 1.8242383803	-1.3218657818	-3.9858926013	-0.306489
N	 0.6063727612	-1.7445388065	-0.7024114047	-0.252317
N	 0.4587724557	-2.0207114773	 0.5985307105	-0.215445
C	-0.0524869752	-0.906491476	 1.1238985407	-0.112825
H	-0.8918833609	 1.5618818239	 1.1493195937	 0.305444
H	-0.7355342912	 0.1181985854	-2.8775852	 0.176685
H	 0.6130439347	 1.1262919915	-2.3865898008	 0.182042
H	 1.0197892947	-2.4308331866	-1.3135281136	 0.289045
H	-0.2790585028	-0.8568503502	 2.1792799614	 0.112052
18.8153	110.6296	198.5099	222.571	236.5035	328.7459	375.4725	416.0222	515.7066	541.3337	656.0243	675.3012	702.0512	779.664	840.6173	941.8227	947.0526	962.7245	1109.7838	1155.3145	1207.0966	1246.2318	1277.3035	1297.8453	1362.3485	1404.1693	1455.2531	1463.7402	1545.849	1665.7106	2365.4453	3023.1415	3067.4809	3238.2078	3653.7703	3842.9698
OC1=C(CC#N)NN=C1	Oc1c(CC#N)[nH]nc1	
InChI=1S/C5H5N3O/c6-2-1-4-5(9)3-7-8-4/h3,9H,1H2,(H,7,8)	InChI=1S/C5H5N3O/c6-2-1-4-5(9)3-7-8-4/h3,9H,1H2,(H,7,8)
