16
gdb 44433	3.63935	1.45722	1.4245	3.5686	69.54	-0.2538	-0.0122	0.2416	946.8049	0.125822	-437.783607	-437.776943	-437.775999	-437.814529	26.985	
O	-0.1356748861	 0.051189505	 0.4486670278	-0.29635
C	-0.0855235008	 1.168998174	 0.07400206	 0.361309
O	-1.178512132	 2.0197471272	-0.2581399862	-0.291118
C	-0.2045517919	 2.8624615136	-1.0376667553	 0.104738
C	 0.6852483622	 4.1799518296	-1.0249960886	-0.08153
C	 0.7459500878	 4.6449864563	 0.4207913307	-0.194532
C	 0.9262357361	 3.2460599647	 1.0715784555	-0.211021
C	 0.8921086487	 2.3558614235	-0.2066249793	 0.090811
N	 1.8843071028	 3.1953178323	-1.0751339861	-0.401442
H	-0.22880216	 2.4714211062	-2.0573145677	 0.105995
H	 0.6246808107	 4.9059275275	-1.8360815174	 0.092128
H	 1.5944633484	 5.3091815484	 0.5924701412	 0.119957
H	-0.1708666511	 5.1511124876	 0.7308062021	 0.115926
H	 1.8919750042	 3.1207322629	 1.564261918	 0.125684
H	 0.1341641194	 2.9989773711	 1.7792161289	 0.128044
H	 1.9144613316	 2.7884264303	-2.0121906134	 0.231402
138.1975	203.6438	294.9843	334.7898	441.8865	504.7812	578.8211	662.3375	673.9719	708.2444	760.5225	790.6194	807.9845	835.2744	890.3574	938.6055	950.3863	979.776	1000.1853	1014.3917	1060.4049	1091.7517	1120.1746	1146.8393	1191.3938	1229.653	1245.6021	1269.4164	1294.9222	1317.6752	1344.5633	1405.2851	1474.4858	1498.4754	1945.2193	3075.3361	3076.9275	3088.2913	3123.9592	3127.27	3143.5976	3448.6373
O=C1OC2C3CCC12N3	O=C1O[C@H]2[C@H]3CC[C@@]12N3	
InChI=1S/C6H7NO2/c8-5-6-2-1-3(7-6)4(6)9-5/h3-4,7H,1-2H2	InChI=1S/C6H7NO2/c8-5-6-2-1-3(7-6)4(6)9-5/h3-4,7H,1-2H2/t3-,4+,6+/m1/s1
