20
gdb 94112	3.87641	0.89804	0.8562	2.9212	77.74	-0.2602	0.0267	0.2869	1443.5859	0.171114	-440.301233	-440.291993	-440.291049	-440.336201	33.21	
C	-0.4041635896	 1.207104709	-0.1094581159	-0.41927
C	 0.1431290422	-0.2033455237	 0.0926929652	 0.009791
C	 0.9871238381	-0.7254942207	-1.0846507153	-0.079579
O	 1.9959128435	-1.5878617371	-0.5277272727	-0.26048
C	 1.8765474758	-1.6258045862	 0.8658908451	 0.204244
C	 1.1273722412	-0.3629129969	 1.2666891178	-0.256419
O	 1.0818369891	-2.7396204419	 1.2930760483	-0.202753
C	 1.606372893	-3.962073264	 1.0661664762	 0.125483
N	 0.9310385781	-4.9951291464	 1.3308095123	-0.443314
H	 0.4084274259	 1.9274558674	-0.2585339202	 0.116546
H	-1.0607399222	 1.2575681861	-0.9844665493	 0.120862
H	-0.9866649533	 1.5323635721	 0.7580960446	 0.123182
H	-0.688633147	-0.8963961265	 0.2570161267	 0.104614
H	 0.3970822596	-1.2885114668	-1.8146195868	 0.114606
H	 1.4948398468	 0.0942067877	-1.610376556	 0.100228
H	 2.8844412457	-1.7294451068	 1.2835559696	 0.089022
H	 1.8300146314	 0.4770844251	 1.300736905	 0.106141
H	 0.6442183593	-0.461019267	 2.2395583313	 0.124611
H	 2.6242676058	-3.9351026237	 0.6574669621	 0.09549
H	 1.4795168564	-5.8268642496	 1.1206887218	 0.226994
60.3348	86.6823	95.0919	122.9351	225.7881	238.5961	286.518	362.1977	433.5717	478.3049	600.0118	627.5901	786.2437	826.3936	850.1255	883.9092	935.3935	944.8112	958.8027	976.8245	1008.6983	1043.4818	1059.451	1103.3648	1127.9137	1153.9234	1167.7927	1199.0689	1256.3736	1287.1102	1310.4698	1331.1581	1356.7475	1366.8292	1384.8258	1407.5915	1417.1099	1432.1362	1481.7986	1496.9633	1500.1653	1527.1022	1747.544	3015.0273	3029.2306	3038.3722	3045.6471	3051.0979	3061.0855	3076.858	3097.4672	3103.7263	3132.1175	3512.0684
CC1COC(C1)OC=N	C[C@H]1CO[C@@H](C1)O[CH][NH]	
InChI=1S/C6H11NO2/c1-5-2-6(8-3-5)9-4-7/h4-7H,2-3H2,1H3	InChI=1S/C6H11NO2/c1-5-2-6(8-3-5)9-4-7/h4-7H,2-3H2,1H3/t5-,6-/m1/s1
