15
gdb 42203	3.11498	1.37979	1.06918	4.7732	72.15	-0.2689	-0.0892	0.1797	1092.9736	0.112471	-416.777973	-416.770024	-416.76908	-416.81103	28.863	
O	 0.2408674468	 0.4887447493	 1.1828595057	-0.279498
C	 0.0246588491	 1.3106439896	 0.3236705381	 0.228988
C	 1.1184759771	 1.7817353705	-0.555343479	 0.231709
N	 1.9761503769	 2.1272647783	-1.2491342514	-0.32206
C	-1.2988745567	 1.9058317285	 0.0730965558	 0.239969
C	-1.7223129405	 2.4846473792	-1.2348782647	-0.282539
N	-1.4749055081	 3.4249926402	-0.1532165326	-0.145162
C	-2.6802586564	 3.3437467412	 0.7587912478	-0.151377
C	-2.461595611	 1.8373307654	 1.054521101	-0.320969
H	-0.9815359359	 2.5375217031	-2.026323633	 0.156788
H	-2.7424345756	 2.2921406832	-1.5633887246	 0.128211
H	-2.5302236703	 3.9933093746	 1.6213679111	 0.131768
H	-3.6087048417	 3.6217073414	 0.2513480441	 0.120297
H	-3.2648083761	 1.14171687	 0.8015128471	 0.120334
H	-2.1294038075	 1.6417338655	 2.0740544046	 0.14354
59.8603	122.3486	153.935	240.3213	273.1796	331.0772	441.6261	456.0436	511.4781	646.8017	709.6536	750.623	783.5621	815.0653	836.0976	939.4846	956.4926	988.1367	1030.0264	1101.6006	1104.8528	1143.2726	1193.8494	1221.0124	1256.4231	1275.7674	1326.0489	1371.2287	1489.3924	1490.8092	1512.779	1768.8326	2341.5602	3063.1006	3078.9994	3101.2642	3128.7968	3147.0954	3206.5066
O=C(C#N)C12CN1CC2	O=C(C#N)[C@]12CN1CC2	
InChI=1S/C6H6N2O/c7-3-5(9)6-1-2-8(6)4-6/h1-2,4H2	InChI=1S/C6H6N2O/c7-3-5(9)6-1-2-8(6)4-6/h1-2,4H2/t6-,8?/m0/s1
