16
gdb 86776	2.70348	1.10961	1.03413	3.7629	71.34	-0.254	-0.0016	0.2524	1212.6394	0.123798	-434.056233	-434.047117	-434.046173	-434.091456	31.667	
O	 0.5212581863	 1.1107406571	 0.5120150587	-0.430266
C	 0.0286237985	-0.1352029635	 0.108117388	 0.06569
C	-1.5071958655	-0.2002705713	-0.1621966289	-0.207055
N	-1.1707932003	-0.727160912	-1.5015924681	-0.087549
C	-1.9863656728	-0.7663212824	-2.6871691586	-0.314207
C	-2.4287133112	 0.565446112	-3.1465992276	 0.261389
N	-2.7723009957	 1.6186375866	-3.4740726146	-0.294245
C	 0.1875387658	-0.4474016858	-1.3798866687	 0.3483
N	 1.1994425277	-0.3535779826	-2.1291906209	-0.561274
H	 1.275359115	 1.3102940234	-0.0563118169	 0.30475
H	 0.3765741564	-0.9436215445	 0.7638654925	 0.101276
H	-2.1026355864	-0.8828767995	 0.4497070789	 0.116809
H	-1.9546011699	 0.7986169946	-0.1814145152	 0.140092
H	-1.4179209595	-1.2472843718	-3.490660806	 0.16755
H	-2.8737352627	-1.3850379925	-2.512126567	 0.168711
H	 0.9937598544	-0.5025026078	-3.1175977155	 0.220029
40.3203	57.1095	103.837	184.3217	237.6747	247.7058	276.2507	366.6196	407.6922	488.4066	528.3178	678.0906	734.5652	809.5859	824.8594	859.9169	902.3271	939.681	957.892	1048.0325	1118.1879	1145.2129	1170.3261	1196.7454	1226.241	1268.9451	1312.4647	1361.061	1365.1502	1389.6929	1394.1725	1452.7607	1513.7253	1796.0993	2358.576	3025.8285	3044.8619	3048.58	3086.2713	3110.5123	3473.6911	3788.7167
OC1CN(CC#N)C1=N	O[C@H]1CN(CC#N)[C]1[NH]	
InChI=1S/C5H7N3O/c6-1-2-8-3-4(9)5(8)7/h4,7,9H,2-3H2	InChI=1S/C5H7N3O/c6-1-2-8-3-4(9)5(8)7/h4,7,9H,2-3H2/t4-/m0/s1
