21
gdb 113392	2.58369	1.05484	0.92492	3.1425	75.76	-0.2417	0.0588	0.3006	1367.7323	0.180499	-461.322957	-461.312621	-461.311677	-461.358304	37.51	
C	 0.229210961	 1.0556149949	-0.1824334825	-0.237797
O	-0.3545519398	-0.0969820541	 0.3936535624	-0.231996
C	 0.4755463969	-0.7178063459	 1.3236372323	 0.049404
C	 0.1473465795	-2.1245919006	 1.6937417849	-0.345176
C	 1.4144273055	-1.8371347302	 0.9034207598	 0.27649
C	 1.4326072902	-2.2636168035	-0.5426418855	-0.161744
O	 1.7216683564	-3.6696655675	-0.5811738211	-0.425116
C	 2.7425684459	-1.984247299	 1.6239926637	-0.123318
O	 3.0765034051	-3.3324121127	 1.8982460606	-0.427422
H	 1.1463011569	 0.8161428638	-0.7398410952	 0.106837
H	-0.5064330443	 1.4806575968	-0.8689206323	 0.129831
H	 0.4769755524	 1.8056513501	 0.5834970359	 0.111828
H	 0.8384636152	-0.0480094845	 2.1059846276	 0.084793
H	 0.24730462	-2.4335280848	 2.7278745451	 0.124571
H	-0.6739589444	-2.586366847	 1.1569428863	 0.125568
H	 0.4672173095	-2.0502438592	-1.0176383764	 0.10712
H	 2.2118053165	-1.7077694585	-1.0873584535	 0.088008
H	 1.900762616	-3.9192491984	-1.4927072662	 0.291302
H	 3.5311564464	-1.49176157	 1.0268270063	 0.07359
H	 2.7063527352	-1.4687958749	 2.5912080868	 0.093429
H	 2.8585736698	-3.8278374548	 1.097144111	 0.289798
87.0556	95.4349	121.1843	142.6511	171.6637	221.619	252.3742	278.1032	315.6882	369.5592	402.5142	438.7783	486.564	527.5812	632.6457	744.4604	827.8494	928.6616	933.8421	969.0541	984.532	1026.3931	1046.1558	1065.74	1074.7141	1093.1689	1135.7962	1175.8141	1183.5129	1226.179	1229.7756	1240.1425	1254.6442	1309.773	1352.8094	1373.3167	1414.3367	1456.4273	1470.3671	1473.7003	1486.3598	1494.1084	1504.8311	1508.546	1527.5899	2938.6998	2977.0667	2985.0398	3035.0539	3045.0365	3047.6783	3079.619	3121.2911	3139.8762	3228.3436	3747.7001	3828.6118
COC1CC1(CO)CO	CO[C@H]1CC1(CO)CO	
InChI=1S/C6H12O3/c1-9-5-2-6(5,3-7)4-8/h5,7-8H,2-4H2,1H3	InChI=1S/C6H12O3/c1-9-5-2-6(5,3-7)4-8/h5,7-8H,2-4H2,1H3/t5-/m0/s1
