17
gdb 32864	4.53148	0.89822	0.75672	2.3016	71.83	-0.1816	0.0582	0.2398	1471.8992	0.136079	-455.185177	-455.176183	-455.175239	-455.219447	32.682	
C	-0.0865371595	 1.4728134534	 0.0060536243	-0.391933
C	 0.0008991215	-0.0404737573	 0.0342608672	-0.038164
O	-1.3414692343	-0.5527492357	-0.0113683815	-0.279664
C	-1.4463486119	-1.8853008691	 0.0075339527	 0.497763
N	-0.4757558999	-2.770063493	 0.0624977104	-0.449587
C	-1.1223977396	-3.9858225855	 0.0574084493	 0.337356
O	-0.4185309548	-5.1397318896	 0.1062287019	-0.438186
C	-2.4771327038	-3.8441817108	-0.0003176725	-0.213084
N	-2.6707639027	-2.4540454333	-0.0324969665	-0.340555
H	 0.9191482783	 1.9020203585	 0.0399648559	 0.123497
H	-0.5787381752	 1.8181945017	-0.907436982	 0.129251
H	-0.6507697823	 1.8469394918	 0.8649459297	 0.129259
H	 0.5616135881	-0.4343230858	-0.8205503213	 0.121136
H	 0.4907066777	-0.4055632404	 0.9436365089	 0.121221
H	 0.5106335132	-4.8839983166	 0.1395790265	 0.298146
H	-3.2905976385	-4.5454183979	-0.0213374809	 0.127532
H	-3.5450427863	-1.9608659302	-0.0764600021	 0.266011
54.747	86.809	138.3932	231.6186	255.4578	305.5815	326.4027	343.3403	400.405	448.5001	516.4246	605.277	664.2588	687.9783	737.8527	780.8788	810.9888	918.5566	1014.9732	1046.7498	1074.4414	1102.3339	1133.9306	1183.7789	1184.9973	1292.3215	1294.2365	1324.7215	1392.4217	1414.8902	1422.9411	1483.5605	1497.9496	1519.5826	1524.8079	1616.2623	1681.5666	3040.4542	3046.3757	3077.9597	3121.3629	3124.9754	3302.8152	3685.4427	3812.6306
CCOC1=NC(O)=CN1	CCOc1nc(O)c[nH]1	
InChI=1S/C5H8N2O2/c1-2-9-5-6-3-4(8)7-5/h3,8H,2H2,1H3,(H,6,7)	InChI=1S/C5H8N2O2/c1-2-9-5-6-3-4(8)7-5/h3,8H,2H2,1H3,(H,6,7)
