16
gdb 42463	7.84957	0.59389	0.55773	3.2814	76.29	-0.2681	-0.0368	0.2313	1852.1348	0.120617	-400.748402	-400.738404	-400.73746	-400.785882	33.895	
O	 0.0523843584	-0.1607326779	-0.0043848176	-0.268555
C	 0.009307979	 1.04271807	 0.0024704538	 0.374592
C	 1.2731278954	 1.8963888129	-0.0022663964	-0.301549
C	 2.5415653401	 1.0292993657	-0.0166120972	-0.341933
C	 3.7563536367	 1.8395033054	-0.0210784456	 0.254621
N	 4.7069958271	 2.4963359255	-0.0244546572	-0.301463
C	-1.3065497365	 1.8374555773	 0.0165366943	-0.481544
C	-2.5057779149	 1.0190783569	 0.0211442336	 0.321803
C	-3.5008413591	 0.348120959	 0.025004507	-0.414451
H	 1.2501249849	 2.5645827785	-0.8717450198	 0.148356
H	 1.2632157843	 2.5548079212	 0.8748854125	 0.148367
H	 2.5512833514	 0.3661423989	 0.8535620141	 0.1707
H	 2.5382794079	 0.3760193245	-0.8942732976	 0.17069
H	-1.2847745325	 2.502276948	 0.8916174064	 0.15796
H	-1.2977841706	 2.5115059225	-0.8516834523	 0.157966
H	-4.3776833716	-0.2509486384	 0.028365812	 0.204439
14.2122	56.3749	68.2032	87.0132	152.101	252.5841	316.9745	323.1115	389.7616	405.4652	461.3539	537.7955	631.9238	655.0058	696.706	729.9186	853.0738	875.0802	942.7994	973.209	1038.5009	1042.5447	1083.7404	1160.3879	1235.7864	1288.7979	1309.0143	1336.8528	1383.6178	1434.8095	1453.9212	1464.1063	1825.6692	2252.6011	2364.8996	3012.13	3038.3411	3040.2055	3069.1078	3072.5615	3108.2054	3506.3603
O=C(CCC#N)CC#C	O=C(CCC#N)CC#C	
InChI=1S/C7H7NO/c1-2-4-7(9)5-3-6-8/h1H,3-5H2	InChI=1S/C7H7NO/c1-2-4-7(9)5-3-6-8/h1H,3-5H2
