21
gdb 89681	2.6141	1.27284	1.05207	3.4379	85.59	-0.2387	-0.016	0.2228	1242.8757	0.180783	-387.090874	-387.081435	-387.080491	-387.124774	35.518	
C	-0.138290381	 1.5693790909	 0.0488245767	-0.411007
C	 0.0761342136	 0.0608439681	 0.0035555048	-0.015833
C	 1.1748766093	-0.524715713	-0.9468040224	-0.323908
C	 1.8123454371	-1.2482027665	 0.2367461807	 0.239252
C	 2.1823529689	-0.2507400334	 1.3184547514	-0.38952
C	 0.7467787879	-0.6254604543	 1.2126134462	 0.293311
C	-0.0168178937	-1.2743848656	 2.3330732206	-0.494311
C	 2.3003670836	-2.6262230469	 0.235486868	 0.050023
O	 2.3491456987	-3.3386509461	-0.7422911837	-0.275835
H	 0.7947962196	 2.105886766	 0.2494819533	 0.115608
H	-0.5289381169	 1.9332313825	-0.907616156	 0.120539
H	-0.8569611885	 1.8459027098	 0.8280760537	 0.116469
H	-0.879106357	-0.4348005132	-0.198704953	 0.079302
H	 0.7827892429	-1.2122347637	-1.6972083483	 0.126224
H	 1.8179138857	 0.2100425856	-1.4425912765	 0.098138
H	 2.7068032043	-0.6684273843	 2.1737501941	 0.12019
H	 2.550264071	 0.7245597716	 1.0092458958	 0.117296
H	-0.4891196299	-0.5115238377	 2.9646440894	 0.127695
H	-0.8108143782	-1.9254880222	 1.9518533554	 0.126531
H	 0.6335677634	-1.8738341246	 2.9771048202	 0.123785
H	 2.6213655591	-3.0024751331	 1.2357305294	 0.056051
90.7185	133.4644	169.4803	189.1688	211.6056	218.4834	285.4914	311.8942	385.6581	426.6813	477.0837	533.0303	609.771	683.2499	755.2332	786.7325	842.9363	892.7848	940.7564	959.6749	977.703	1031.2544	1038.5892	1073.6404	1085.1634	1089.239	1116.9968	1171.5416	1177.862	1239.8763	1244.0665	1278.7548	1351.2473	1359.4018	1394.0008	1409.8711	1417.4997	1442.8695	1481.4986	1485.509	1494.1492	1495.7562	1496.6155	1505.0457	1791.8029	2845.6398	3022.6112	3029.558	3046.4462	3049.5133	3081.6371	3095.3925	3100.5227	3104.0013	3107.5579	3127.5899	3190.3779
CC1CC2(CC12C)C=O	C[C@H]1C[C@]2(C[C@@]12C)C=O	
InChI=1S/C8H12O/c1-6-3-8(5-9)4-7(6,8)2/h5-6H,3-4H2,1-2H3	InChI=1S/C8H12O/c1-6-3-8(5-9)4-7(6,8)2/h5-6H,3-4H2,1-2H3/t6-,7-,8-/m0/s1
