15
gdb 12034	3.81621	1.75386	1.54647	2.5511	64.71	-0.2779	0.0244	0.3024	847.9982	0.118242	-362.638281	-362.631029	-362.630085	-362.669531	27.275	
C	-0.0416709589	 1.5505919317	 0.0702323227	-0.45426
C	 0.0115189128	 0.0225515596	 0.0094191503	 0.128776
C	 1.1083729104	-0.6303889071	-0.938941619	-0.304137
C	 1.7403262875	-1.2693789836	 0.3007359581	 0.049406
O	 2.0731944643	-0.2041825354	 1.2039721325	-0.243759
C	 0.7356042866	-0.6854933795	 1.1973982086	 0.001074
C	-1.3061880059	-0.5570768734	-0.2249682073	 0.235808
N	-2.3511753941	-1.0223636161	-0.3950318622	-0.338108
H	 0.9515780784	 1.9291866415	 0.3199516265	 0.146051
H	-0.3490047307	 1.9662283177	-0.8933941256	 0.136332
H	-0.7524126928	 1.8885418839	 0.8297442535	 0.13666
H	 0.6781254256	-1.3508705369	-1.6357747682	 0.13785
H	 1.7409009497	 0.080573269	-1.4746019085	 0.124665
H	 2.3110211999	-2.1858488334	 0.3822786674	 0.119668
H	 0.3018803974	-1.024365028	 2.1305819812	 0.123973
136.4235	171.4468	220.2926	239.0058	297.073	396.4993	492.1557	530.1806	566.3465	637.2109	787.7438	836.5766	859.6588	874.1117	920.3652	935.7618	994.0851	1003.461	1047.926	1117.1071	1138.9984	1164.8149	1226.9308	1239.7571	1261.9333	1276.0368	1382.7265	1409.2731	1468.9032	1491.3719	1497.2403	2350.1535	3048.2555	3078.3245	3120.0115	3139.3482	3144.4825	3191.978	3208.1564
CC1(CC2OC12)C#N	C[C@]1(C[C@H]2O[C@@H]12)C#N	
InChI=1S/C6H7NO/c1-6(3-7)2-4-5(6)8-4/h4-5H,2H2,1H3	InChI=1S/C6H7NO/c1-6(3-7)2-4-5(6)8-4/h4-5H,2H2,1H3/t4-,5-,6+/m1/s1
