21
gdb 121121	3.068	0.98137	0.88385	1.5591	75.54	-0.2442	0.0695	0.3137	1416.5271	0.181873	-461.350903	-461.341236	-461.340292	-461.386134	34.853	
C	 0.6674320066	 1.2715613343	 0.8155103359	-0.223302
O	 0.792257597	-0.0859854333	 0.4695132952	-0.238127
C	-0.1991150902	-0.8977820938	 1.0629671417	-0.072604
C	 0.0670851285	-2.3415606054	 0.6448691088	 0.10493
C	 1.3535938202	-2.9362193634	 1.2521801073	-0.252869
C	 0.8405491796	-3.7390381467	 2.4505738302	 0.108025
O	 0.7352921308	-2.8455903893	 3.5537416641	-0.430818
C	-0.5244966314	-4.1996856147	 1.9307561123	-0.089903
O	-1.0212914247	-3.1434702082	 1.1251391857	-0.274242
H	 0.748911762	 1.4254344355	 1.9031407818	 0.105458
H	 1.4773168466	 1.8134144747	 0.3202915673	 0.123315
H	-0.2954964245	 1.6913131969	 0.4829916249	 0.102492
H	-0.1700641587	-0.8244956288	 2.1602115088	 0.105247
H	-1.2055796759	-0.601432154	 0.7256096389	 0.089062
H	 0.0906847177	-2.3866090618	-0.4513639504	 0.078982
H	 1.8476587456	-3.6044140802	 0.5416492464	 0.102222
H	 2.063849646	-2.1641756218	 1.5509414675	 0.131436
H	 1.4902447593	-4.5898506589	 2.6990290654	 0.065984
H	 0.2510465429	-3.28969749	 4.2571133184	 0.28247
H	-0.4120190886	-5.1264054953	 1.3438489153	 0.087708
H	-1.2447742287	-4.3937609758	 2.7347053244	 0.094536
53.5608	90.5044	112.7013	150.9128	188.5615	235.212	296.1133	330.4385	374.3948	394.5462	423.8668	473.5182	730.0773	795.0058	830.8549	867.8109	895.5979	946.6905	974.6868	1003.3757	1006.7279	1043.0653	1098.6883	1118.4149	1153.1321	1170.5712	1183.0613	1194.8939	1208.9444	1229.7662	1247.2442	1263.1816	1312.9274	1325.4235	1348.2501	1373.2365	1388.5965	1418.3353	1426.6019	1479.4026	1483.6211	1485.7811	1503.7503	1511.9191	1528.7854	2965.27	2966.1148	2977.2828	3006.8789	3011.8502	3014.1555	3033.0179	3050.8063	3073.7197	3109.5255	3135.499	3815.9553
COCC1CC(O)CO1	COC[C@H]1C[C@@H](O)CO1	
InChI=1S/C6H12O3/c1-8-4-6-2-5(7)3-9-6/h5-7H,2-4H2,1H3	InChI=1S/C6H12O3/c1-8-4-6-2-5(7)3-9-6/h5-7H,2-4H2,1H3/t5-,6-/m1/s1
