21
gdb 82535	2.27449	1.62335	1.34037	1.059	82.76	-0.2237	0.0686	0.2923	1096.7289	0.182198	-383.202827	-383.193847	-383.192902	-383.235924	34.723	
C	-0.0181995964	 1.6002559044	 0.083196112	-0.424309
C	 0.0605516172	 0.0922025458	 0.1664252409	-0.030308
N	 1.2188303209	-0.7264100517	-0.276066956	-0.194414
C	 2.4666966506	 0.0176523003	 0.1192492575	-0.257553
C	 2.062738105	-0.023120403	 1.5938246547	 0.287279
C	 2.9354458773	-0.3081659599	 2.7494615676	-0.312798
N	 2.2066868209	 0.9759926874	 2.6532717237	-0.371793
C	 0.7703064994	-0.7041614668	 1.1954791516	 0.284101
C	 0.1808390845	-1.8917862364	 1.8964442748	-0.502022
H	 0.8050319572	 2.105693228	 0.5891303691	 0.127282
H	-0.0392431586	 1.9277859692	-0.9624551762	 0.122104
H	-0.9450491759	 1.9407941259	 0.5558690011	 0.125583
H	-0.8515905672	-0.3898612115	-0.1841880515	 0.091051
H	 3.3450326125	-0.5876723647	-0.1184695619	 0.112935
H	 2.576253762	 1.0018413079	-0.3492042617	 0.102009
H	 2.5967083796	-0.9611382693	 3.5496054838	 0.121092
H	 4.0105882521	-0.3172674992	 2.5847263841	 0.112336
H	 2.8416333529	 1.712558483	 2.3523868689	 0.229231
H	-0.2894050623	-1.5886797284	 2.8393817368	 0.128547
H	-0.5835227587	-2.3675285148	 1.2756832178	 0.127746
H	 0.9476416571	-2.6394635261	 2.1252407131	 0.121901
118.0034	160.5248	163.7453	211.3507	223.6807	235.0582	320.3597	360.5298	400.6243	511.8207	521.566	588.5424	650.5863	715.0301	809.2746	838.0367	858.5481	904.4562	939.5025	959.2508	968.4354	979.8759	1022.7368	1078.1157	1088.203	1113.0904	1126.2915	1138.0225	1151.3596	1190.4752	1214.5122	1263.0361	1284.5995	1317.8042	1327.9855	1409.016	1413.4091	1426.0739	1456.5941	1481.3577	1486.5948	1493.3705	1503.7054	1508.6305	1516.1573	3028.6169	3037.3589	3041.8072	3090.6535	3096.0497	3096.5402	3100.1335	3108.0559	3113.8072	3142.9206	3183.9979	3485.7003
CC1N2CC3(CN3)C12C	C[C@H]1N2C[C@]3(CN3)[C@@]12C	
InChI=1S/C7H12N2/c1-5-6(2)7(3-8-7)4-9(5)6/h5,8H,3-4H2,1-2H3	InChI=1S/C7H12N2/c1-5-6(2)7(3-8-7)4-9(5)6/h5,8H,3-4H2,1-2H3/t5-,6-,7-,9?/m1/s1
