15
gdb 128339	2.81685	1.29047	0.8912	4.3269	72.77	-0.2266	-0.0546	0.1719	1233.624	0.113861	-450.131352	-450.122924	-450.12198	-450.164829	29.573	
C	 0.0503187773	 1.4657148553	-0.0336240195	-0.322195
N	-0.1066409687	 0.020527555	-0.0926065328	-0.385791
C	 0.5472683604	-0.6943556748	-1.0576080341	 0.337801
N	 1.1369172707	-0.1027090466	-2.1014982477	-0.301471
N	 1.594015762	-1.1492621109	-2.8073580028	-0.065158
N	 1.3752098836	-2.3430381766	-2.3315069705	-0.235337
C	 0.6946125467	-2.109384101	-1.1930348908	 0.145612
C	 0.218015559	-3.1681730114	-0.3101698713	 0.080765
O	 0.3815936802	-4.3553714545	-0.4695097153	-0.267091
H	 1.0888660717	 1.7763493198	 0.1451933276	 0.127621
H	-0.2732444485	 1.9072013698	-0.9792093193	 0.154688
H	-0.582400014	 1.8533841215	 0.7672114116	 0.127701
H	-0.2044439758	-0.4454773447	 0.7944966638	 0.251767
H	 2.0924555063	-1.0092930679	-3.6722005276	 0.299952
H	-0.3448722911	-2.7859175831	 0.5741180888	 0.051136
94.4669	142.9693	151.7034	159.0503	225.8869	242.1832	361.687	384.3805	450.0318	543.0489	571.923	710.6983	735.937	767.2692	841.5709	987.8091	1024.8936	1075.1907	1133.3279	1158.459	1191.937	1208.5462	1312.5713	1344.9691	1414.2666	1448.8632	1459.254	1481.5746	1482.5445	1515.3405	1562.1926	1610.7801	1798.3877	2841.6777	3011.5311	3095.841	3137.6182	3639.8887	3658.7793
CNC1=NNN=C1C=O	CNc1n[nH]nc1C=O	
InChI=1S/C4H6N4O/c1-5-4-3(2-9)6-8-7-4/h2H,1H3,(H2,5,6,7,8)	InChI=1S/C4H6N4O/c1-5-4-3(2-9)6-8-7-4/h2H,1H3,(H2,5,6,7,8)
