18
gdb 53423	2.63672	1.0651	0.89164	3.75	81.08	-0.2298	0.0263	0.2562	1380.712	0.148245	-401.974211	-401.96491	-401.963966	-402.010092	32.671	
C	-0.1661662613	 1.3340122226	 0.3933912491	-0.496287
C	-0.0214319329	-0.0994129062	 0.1840982586	 0.017133
C	 0.0972495736	-1.2823799359	-0.0078850192	 0.123512
C	 0.2303723056	-2.720214129	-0.2122281409	-0.28439
C	 0.8198538777	-3.4605030949	 1.0132179884	-0.219289
C	-0.4213414727	-3.8378982969	 1.8476753918	-0.162137
N	-1.4386449529	-3.9966432261	 0.8233453754	-0.295683
C	-1.180563063	-3.3616421024	-0.3597714318	 0.407447
O	-1.9085560775	-3.3053317263	-1.3219945327	-0.375214
H	 0.1867828645	 1.8984355528	-0.4767061257	 0.151041
H	-1.2138489208	 1.6068725007	 0.5613863445	 0.150637
H	 0.4085678861	 1.6719756932	 1.2628771962	 0.144998
H	 0.79669529	-2.9174616301	-1.1270057234	 0.12252
H	 1.3227282826	-4.3716050054	 0.6761802593	 0.113857
H	 1.5337537422	-2.8555363141	 1.5725655987	 0.118709
H	-0.2750794882	-4.7642693818	 2.4111917433	 0.114212
H	-0.6818059021	-3.0429990715	 2.5600257007	 0.116271
H	-2.3598007209	-4.3625914188	 1.0046989879	 0.252663
24.4579	66.6016	89.0119	151.0036	195.1339	257.4491	304.3035	408.4157	449.6646	483.1063	527.6084	633.7287	680.0794	701.0518	780.726	869.1253	905.1803	928.1319	1004.6873	1051.7815	1053.2374	1075.7676	1080.0419	1164.1797	1191.0305	1214.4333	1253.9819	1264.9956	1310.219	1345.9783	1362.5693	1415.1298	1445.7802	1477.9677	1478.827	1488.6759	1532.1435	1840.6179	2369.0791	3009.3761	3027.0815	3059.2385	3069.6729	3078.8599	3087.1675	3089.033	3133.5919	3642.0568
CC#CC1CCNC1=O	CC#C[C@H]1CCNC1=O	
InChI=1S/C7H9NO/c1-2-3-6-4-5-8-7(6)9/h6H,4-5H2,1H3,(H,8,9)	InChI=1S/C7H9NO/c1-2-3-6-4-5-8-7(6)9/h6H,4-5H2,1H3,(H,8,9)/t6-/m0/s1
