18
gdb 97438	5.14513	0.67843	0.62855	3.8875	79.98	-0.2443	0.0176	0.2619	1762.1543	0.143713	-439.032304	-439.021871	-439.020927	-439.068533	36.453	
C	 0.2139504972	 0.6873897452	-0.6450354847	-0.312678
N	-0.1537793067	 0.0222496515	 0.5867085216	-0.208119
C	 0.6692070079	-0.7931792739	 1.0697545255	 0.148157
O	 0.4048868079	-1.4189407147	 2.2410568254	-0.198149
C	 1.3010030015	-2.4332505424	 2.6524001525	-0.103279
C	 0.8949851127	-3.8018950836	 2.0700859366	-0.041972
O	 0.9612384085	-3.8001950051	 0.6487109822	-0.413753
C	 1.7078563867	-4.8635769016	 2.6633351704	 0.281539
C	 2.4293665235	-5.7030514573	 3.132160572	-0.44096
H	 1.2039034538	 0.3971223324	-1.0346750306	 0.092789
H	-0.5341237709	 0.4717801154	-1.4164019766	 0.128472
H	 0.2104374093	 1.7729497179	-0.493268962	 0.126032
H	 1.6439786116	-1.0492035744	 0.6297456893	 0.066293
H	 2.3331049779	-2.199972271	 2.3561338348	 0.107531
H	 1.2553305189	-2.4681391667	 3.743994647	 0.132278
H	-0.1630018334	-3.9592014286	 2.3098670123	 0.138108
H	 1.8757403434	-3.971284258	 0.3970224808	 0.28889
H	 3.0440572802	-6.462387855	 3.5498364834	 0.208821
50.1908	56.456	110.8137	145.9306	199.3766	216.1701	237.2068	280.6481	307.3413	334.2757	402.7131	475.9062	506.5998	569.0435	616.2174	648.0666	687.1614	874.7516	959.7093	970.7089	1035.7169	1059.2393	1086.2413	1101.4118	1141.77	1158.2472	1208.5367	1266.3716	1285.3529	1344.8735	1387.2875	1407.2024	1425.1513	1450.3376	1481.1919	1485.694	1504.9881	1782.5031	2233.642	2964.1893	3004.7524	3017.7616	3055.4441	3056.7916	3076.9371	3104.9445	3500.8834	3806.0912
CN=COCC(O)C#C	CN=COC[C@@H](O)C#C	
InChI=1S/C6H9NO2/c1-3-6(8)4-9-5-7-2/h1,5-6,8H,4H2,2H3	InChI=1S/C6H9NO2/c1-3-6(8)4-9-5-7-2/h1,5-6,8H,4H2,2H3/t6-/m0/s1
