19
gdb 126946	6.25145	0.8014	0.72457	1.8638	81.19	-0.1967	0.0227	0.2194	1599.4817	0.160889	-415.4182	-415.408888	-415.407944	-415.453164	32.877	
C	 0.1086405784	 1.461699915	 0.0792863241	-0.390833
C	-0.1849819777	-0.0031060556	-0.2283825487	-0.113608
N	 0.7992540348	-0.5373567637	-1.1616358625	-0.387457
C	 0.8728172407	-1.8916465634	-1.3821846776	 0.4545
N	 1.4012402724	-2.4012231891	-2.4937797653	-0.371787
N	 1.3313874751	-3.7441144811	-2.2494402567	 0.060381
C	 1.8157470864	-4.6917657424	-3.2233453829	-0.31647
C	 0.7715514981	-3.9559147906	-1.0495217027	 0.006442
N	 0.4616373601	-2.8132379056	-0.4611741463	-0.34391
H	 1.1074850711	 1.5757729191	 0.5101982554	 0.127713
H	 0.0590886547	 2.0770444512	-0.8269476042	 0.110949
H	-0.6251976172	 1.8581837786	 0.7869932987	 0.118141
H	-0.130517591	-0.6053399321	 0.681447055	 0.140279
H	-1.21309163	-0.1080791895	-0.6124432274	 0.091683
H	 0.9254787859	 0.001001209	-2.0071680688	 0.23935
H	 2.8821492759	-4.5348699137	-3.4083301827	 0.150622
H	 1.6606842765	-5.701886513	-2.8392071416	 0.139006
H	 1.2749238283	-4.5765550721	-4.1669641408	 0.149395
H	 0.6082792775	-4.9444134911	-0.645516185	 0.135605
53.7309	73.1778	121.2138	136.3704	184.1203	259.2892	311.5364	337.7051	351.4162	482.0653	584.0478	627.0362	710.3075	775.237	790.0793	821.2713	844.5836	931.5967	1019.0775	1037.8142	1082.3395	1085.0517	1144.4637	1154.2365	1183.3963	1235.5167	1287.8137	1326.1638	1341.1033	1385.6454	1414.8116	1447.6258	1454.7147	1470.3617	1479.0626	1494.7803	1499.6547	1520.6424	1527.2606	1544.6977	1627.3976	2966.0785	3032.5905	3045.9346	3089.6765	3110.9564	3111.0959	3120.4188	3141.0449	3248.2567	3597.4443
CCNC1=NN(C)C=N1	CCNc1nn(C)cn1	
InChI=1S/C5H10N4/c1-3-6-5-7-4-9(2)8-5/h4H,3H2,1-2H3,(H,6,8)	InChI=1S/C5H10N4/c1-3-6-5-7-4-9(2)8-5/h4H,3H2,1-2H3,(H,6,8)
