14
gdb 27464	2.4642	1.78098	1.11705	2.4315	75.39	-0.2469	-0.0773	0.1695	1026.9496	0.103089	-432.891698	-432.88453	-432.883586	-432.92352	27.291	
O	-0.0673671789	 1.2814729257	-0.457951693	-0.388762
C	 0.0631766573	-0.0263551126	-0.1620641754	 0.382877
N	 1.2350762645	-0.5527094244	-0.2529504811	-0.374888
C	 1.5093426772	-1.8797260015	 0.0576709621	 0.280004
N	 2.5500372438	-2.2923427571	 0.6654752381	-0.495081
C	 0.5828227102	-2.9145926478	-0.4942490462	 0.014524
N	-0.6876634046	-2.9497205141	-0.3672644984	-0.201318
C	-1.4362202759	-1.9572591452	 0.2292895995	 0.009364
C	-1.1803660307	-0.6307587423	 0.2720060541	-0.151179
H	 0.8184706672	 1.5991049134	-0.6874862829	 0.304729
H	 3.1091210955	-1.4927821582	 0.9755788627	 0.221468
H	 1.0595906471	-3.7277113614	-1.0433825412	 0.144146
H	-2.3963301289	-2.3093799827	 0.598257749	 0.129282
H	-1.9613595438	 0.0508402982	 0.5903886225	 0.124833
85.5273	172.4039	257.3704	318.9026	392.2084	431.5853	466.9267	521.0939	582.6906	615.5488	673.8046	737.5564	808.1139	851.4693	873.1243	921.1172	942.3667	976.3088	1003.5709	1037.101	1121.7808	1229.3613	1265.7729	1348.3337	1385.1249	1389.4394	1476.4206	1605.1965	1672.1566	1692.3022	1715.4538	3126.6127	3162.8959	3197.0686	3440.9361	3753.1777
OC1=NC(=N)C=NC=C1	OC1=N[C]([NH])C=NC=C1	
InChI=1S/C5H5N3O/c6-4-3-7-2-1-5(9)8-4/h1-3H,(H2,6,8,9)	InChI=1S/C5H5N3O/c6-4-3-7-2-1-5(9)8-4/h1-3H,(H2,6,8,9)
