20
gdb 122502	3.5292	0.6857	0.60787	2.0699	79.07	-0.2429	-0.0327	0.2102	1821.7867	0.168319	-440.240471	-440.230349	-440.229405	-440.277116	34.97	
C	 0.4565361495	 1.1982491094	 0.3014904507	-0.238159
O	 0.8071222863	 0.5935204684	-0.9241039098	-0.229291
C	-0.1075162474	-0.3809001322	-1.3759971882	-0.065544
C	 0.0859819818	-1.7397884531	-0.6883503558	-0.170329
N	-0.8435309771	-2.6955082485	-1.2904663542	-0.074675
C	-0.351183874	-3.5997129209	-2.2972907273	-0.251978
C	-0.7884267356	-4.1254898283	-0.954001068	-0.090273
C	 0.2505366289	-4.6932878926	-0.0561679106	 0.157194
O	 0.0602637155	-5.6490386563	 0.6554496423	-0.263285
H	-0.545897389	 1.6512331567	 0.2557664747	 0.10846
H	 0.4775374051	 0.4938301672	 1.1460024383	 0.107624
H	 1.1904685942	 1.9851700912	 0.4915591696	 0.130947
H	-1.1480864658	-0.0482025918	-1.244302671	 0.100252
H	 0.0704726797	-0.4948613707	-2.4510503955	 0.10984
H	 1.1444716152	-2.0252499293	-0.7820843967	 0.104553
H	-0.14662124	-1.6643340424	 0.379175833	 0.115109
H	-0.9887502352	-3.7772561983	-3.1589362846	 0.134635
H	 0.719518222	-3.6047580982	-2.5055539918	 0.122215
H	-1.7573500237	-4.6092511389	-0.8614174381	 0.115773
H	 1.2393668494	-4.1852032314	-0.085166727	 0.076932
48.1747	57.4976	97.3024	112.1796	143.6419	201.9548	258.8053	282.2554	352.6599	398.8408	442.0226	469.9623	550.0525	778.588	809.7525	868.1409	912.885	960.3742	1006.9526	1029.3451	1056.6861	1077.6831	1111.3858	1116.3324	1137.3271	1176.6523	1181.1855	1197.352	1228.2114	1282.1289	1307.3342	1328.069	1342.1355	1347.831	1418.7232	1444.0684	1476.9655	1487.8408	1493.1948	1499.9855	1508.818	1513.2423	1813.5662	2888.3244	2977.9425	2988.2561	3000.8496	3027.2372	3061.0601	3082.3899	3083.3835	3114.8323	3150.5139	3180.7612
COCCN1CC1C=O	COCCN1C[C@H]1C=O	
InChI=1S/C6H11NO2/c1-9-3-2-7-4-6(7)5-8/h5-6H,2-4H2,1H3	InChI=1S/C6H11NO2/c1-9-3-2-7-4-6(7)5-8/h5-6H,2-4H2,1H3/t6-,7?/m0/s1
