18
gdb 27988	2.4316	1.38606	0.89261	2.8695	84.25	-0.2154	-0.0314	0.184	1292.1669	0.147439	-402.020936	-402.012043	-402.011099	-402.05445	32.607	
C	-0.0379937536	 1.5390120872	 0.0168024649	-0.496286
C	-0.0076648772	 0.0424676026	 0.0041177911	 0.268267
C	-0.0013244938	-0.7671826052	-1.0906360286	-0.179922
N	 0.029787844	-2.0945432582	-0.6598117054	-0.109551
C	 0.044051316	-3.1897340897	-1.5093582975	 0.170292
O	 0.0311861049	-3.1131716214	-2.7123430139	-0.300305
C	 0.0433791719	-2.1196014938	 0.7422786426	 0.34155
C	 0.0766171113	-3.3824830897	 1.5395389575	-0.501274
C	 0.0206993748	-0.8218925045	 1.1596787851	-0.338677
H	 0.8396792176	 1.9540228339	 0.5260368215	 0.129172
H	-0.0567180938	 1.9426448038	-0.9989989481	 0.127554
H	-0.9210915209	 1.9181686563	 0.5442730796	 0.129153
H	-0.0154906041	-0.5559838778	-2.1464100803	 0.147669
H	 0.06864986	-4.1459422845	-0.9607331457	 0.098101
H	 0.9709428603	-3.9848767012	 1.340458839	 0.136606
H	 0.0816151644	-3.1291981884	 2.6021048722	 0.139601
H	-0.7961690754	-4.0207440038	 1.3573199775	 0.136607
H	 0.0237695535	-0.5022716758	 2.1921966184	 0.101442
119.178	140.8803	170.0042	194.5614	206.9835	218.5888	263.3496	364.2575	387.29	547.6149	592.3279	623.7585	643.5699	674.0174	775.7295	822.2731	882.0183	978.5039	1004.002	1018.4244	1029.8998	1063.9954	1064.8208	1154.3494	1164.0814	1232.1046	1343.4241	1363.398	1416.5739	1419.1417	1425.0789	1454.4477	1482.5935	1482.7292	1492.8949	1500.5703	1575.9324	1657.9842	1812.7512	3000.3261	3024.3999	3027.1135	3070.9449	3075.5965	3113.5246	3122.8748	3232.944	3286.3212
CC1=CN(C=O)C(C)=C1	Cc1cn(C=O)c(C)c1	
InChI=1S/C7H9NO/c1-6-3-7(2)8(4-6)5-9/h3-5H,1-2H3	InChI=1S/C7H9NO/c1-6-3-7(2)8(4-6)5-9/h3-5H,1-2H3
