23
gdb 122574	4.55045	0.71056	0.67269	0.9121	88.2	-0.2362	0.0318	0.268	1789.8275	0.205369	-388.301713	-388.291914	-388.29097	-388.337686	35.755	
C	-0.1368970368	 1.499955889	 0.0478695852	-0.382383
C	 0.121134409	-0.0077506551	-0.0038334766	-0.179845
C	 0.6880779693	-0.5475810745	 1.3029436503	-0.040967
O	 0.9075161993	-1.9348767528	 1.1598187235	-0.260748
C	 1.4808319875	-2.5638084006	 2.2962499406	 0.134986
C	 0.4221998255	-2.8595360298	 3.4002152164	-0.271962
C	 0.1353305179	-4.3316736046	 3.2384124334	-0.054971
C	 0.9851426203	-4.9203134019	 2.4000735227	-0.055191
C	 1.9966654473	-3.951543047	 1.8422079625	-0.274354
H	 0.785483324	 2.0569600849	 0.2467974009	 0.115321
H	-0.544196319	 1.8621652035	-0.9004676126	 0.116458
H	-0.8539403382	 1.7562752156	 0.8358026341	 0.115207
H	-0.8074037728	-0.5452858262	-0.2279251098	 0.10618
H	 0.8221610537	-0.2474072428	-0.8115189717	 0.105052
H	 1.6362812322	-0.0373267326	 1.5498203045	 0.080037
H	-0.0104903381	-0.3364162979	 2.1301506733	 0.082417
H	 2.2947783721	-1.9319473741	 2.6800364955	 0.058315
H	 0.8100841896	-2.63624403	 4.4035610594	 0.101043
H	-0.4680328831	-2.2345537047	 3.2656671977	 0.108433
H	-0.6686438969	-4.8298151879	 3.7691205796	 0.088258
H	 0.9847165137	-5.9738599884	 2.1434399996	 0.088618
H	 2.0669757788	-3.9742307827	 0.7496197963	 0.118307
H	 3.0031884347	-4.1549825692	 2.2311175653	 0.101787
47.8973	64.2384	72.1021	138.6275	169.3304	235.0673	301.9954	323.1944	375.305	458.09	479.6874	694.5107	744.0199	764.7419	789.3621	851.9441	886.6331	901.4378	909.1719	952.4501	956.0195	976.1345	983.8561	1042.3171	1059.0454	1065.7659	1126.4037	1132.1163	1148.9317	1175.9279	1193.2384	1230.602	1253.0514	1269.4298	1310.7673	1316.1595	1324.3335	1332.0874	1381.058	1383.1855	1410.7572	1442.2887	1466.0222	1475.5555	1491.8763	1500.6372	1507.4779	1528.1008	1691.3879	2943.3127	2973.0228	2988.9109	3015.8255	3024.2587	3030.8401	3038.9047	3059.1334	3071.145	3073.0069	3099.0875	3107.2171	3180.9111	3206.7154
CCCOC1CC=CC1	CCCO[C@H]1CC=CC1	
InChI=1S/C8H14O/c1-2-7-9-8-5-3-4-6-8/h3-4,8H,2,5-7H2,1H3	InChI=1S/C8H14O/c1-2-7-9-8-5-3-4-6-8/h3-4,8H,2,5-7H2,1H3
