23
gdb 119609	4.10092	0.8972	0.82613	1.6803	85.56	-0.2507	0.0886	0.3394	1521.1734	0.206353	-388.304617	-388.295391	-388.294447	-388.338898	35.173	
C	 0.2190194969	 1.5780903709	-0.1018467227	-0.382526
C	 0.2235200472	 0.0480893296	-0.0678912623	-0.161968
C	 0.4421676945	-0.5153483926	 1.3446713009	-0.286883
C	 0.4955376706	-2.0219798688	 1.3829806145	 0.438396
C	-0.7374219791	-2.8694996411	 1.0922338812	-0.279215
C	-0.3121019952	-4.3106436811	 1.4614286999	-0.213972
C	 0.7731804444	-4.1531880117	 2.554559464	-0.240857
C	 1.3919731678	-2.8046682623	 2.247755835	-0.013417
O	 1.700125181	-2.6206501083	 0.8561070755	-0.310448
H	 1.1673868981	 1.9851556937	 0.2663197718	 0.11517
H	 0.0685770295	 1.9534558992	-1.118809383	 0.111953
H	-0.580847322	 1.9874890767	 0.5257312604	 0.111436
H	-0.7243954174	-0.3288026419	-0.4716136511	 0.0966
H	 1.0131886704	-0.3383252164	-0.7228592995	 0.114688
H	 1.3817979336	-0.1206971632	 1.7489288363	 0.10004
H	-0.3610208508	-0.1687454277	 2.0096317806	 0.093085
H	-1.5599057282	-2.5195979793	 1.729411075	 0.097733
H	-1.0734972619	-2.7895366835	 0.0539124616	 0.105971
H	-1.1538281764	-4.924347647	 1.7910712647	 0.095074
H	 0.1247404386	-4.7946676084	 0.5856943186	 0.119108
H	 0.3338393818	-4.12060497	 3.5597876594	 0.099509
H	 1.5030314925	-4.968769857	 2.5428735308	 0.106919
H	 2.0866346941	-2.3363358998	 2.9421750383	 0.083607
68.4887	91.1007	119.3324	208.9852	246.423	264.2726	303.4066	329.6599	412.6296	455.8112	637.225	657.1938	713.0713	744.6174	815.607	849.2396	876.2916	892.1158	902.4346	906.0226	945.7319	961.8226	1029.8507	1038.6958	1048.8483	1075.0092	1111.6049	1137.8952	1168.5116	1204.4086	1229.2598	1254.2865	1273.0785	1282.7386	1319.7483	1325.3981	1328.9299	1340.7243	1358.9305	1394.0656	1414.0916	1456.7918	1472.8526	1478.7881	1487.4032	1493.585	1499.5635	1500.452	1509.9772	3012.6734	3027.4023	3029.0863	3029.8791	3031.377	3052.9298	3070.5678	3071.4787	3080.8737	3083.0566	3097.1698	3102.0434	3119.4874	3133.6385
CCCC12CCCC1O2	CCC[C@]12CCC[C@H]1O2	
InChI=1S/C8H14O/c1-2-5-8-6-3-4-7(8)9-8/h7H,2-6H2,1H3	InChI=1S/C8H14O/c1-2-5-8-6-3-4-7(8)9-8/h7H,2-6H2,1H3/t7-,8+/m1/s1
