16
gdb 67154	2.6495	1.76868	1.64972	4.0392	68.55	-0.2341	-0.0257	0.2084	905.9445	0.124482	-437.839206	-437.832085	-437.831141	-437.870546	27.792	
C	 0.0121152372	 1.5983003692	 0.0064109778	-0.524824
C	-0.0328703577	 0.104850931	-0.0463088405	 0.348662
C	 0.5407728443	-0.8895787016	-1.0900941404	 0.036598
C	 1.4762026183	-1.4196545873	 0.017244764	-0.204858
N	 0.6255517881	-0.7196393197	 1.0621820182	-0.228246
C	-0.6099452013	-1.4636785942	 1.2517088143	 0.423175
O	-0.8840772195	-2.3055789481	 2.0487121083	-0.309187
C	-1.2599744314	-0.8417357978	-0.0007054138	-0.110052
O	-0.7129679102	-1.6147448692	-1.1139200419	-0.297844
H	 1.045851265	 1.9584145027	 0.0015217879	 0.136385
H	-0.5089495916	 2.0346806088	-0.8515451682	 0.1348
H	-0.4644144791	 1.9623156276	 0.9223632188	 0.140309
H	 0.9119646957	-0.6874718614	-2.0964082217	 0.094043
H	 1.5522048546	-2.5018839777	 0.144613411	 0.139584
H	 2.474704295	-0.9727876106	-0.0117958891	 0.123294
H	-2.3241736671	-0.6306377517	-0.1130720948	 0.098162
136.6774	210.9812	229.6369	272.1966	295.4868	413.1267	492.2189	597.0741	656.2032	674.9881	782.7735	809.7288	842.8945	850.8389	871.2438	929.9691	960.5827	985.6533	1005.8826	1046.4066	1073.4419	1140.5876	1160.3725	1171.1499	1181.4626	1222.7023	1249.0352	1288.5807	1303.2352	1364.5892	1419.182	1483.2087	1485.0196	1487.1622	1906.7913	3036.2801	3053.1039	3099.9001	3107.0772	3109.8984	3110.7265	3123.129
CC12C3CN1C(=O)C2O3	C[C@@]12[C@H]3CN1C(=O)[C@@H]2O3	
InChI=1S/C6H7NO2/c1-6-3-2-7(6)5(8)4(6)9-3/h3-4H,2H2,1H3	InChI=1S/C6H7NO2/c1-6-3-2-7(6)5(8)4(6)9-3/h3-4H,2H2,1H3/t3-,4+,6+/m1/s1
