15
gdb 29098	3.15055	1.42742	0.98491	6.0652	74.5	-0.1895	-0.0227	0.1668	1120.9573	0.115607	-450.179955	-450.172025	-450.17108	-450.212216	30.581	
N	 0.1324053784	 1.4225437172	-0.1969926058	-0.590689
C	-0.0193186901	 0.0402841898	-0.0013816171	 0.357987
C	-1.1589025496	-0.6613835679	-0.1317436453	-0.139754
N	-1.1203166931	-2.0600889698	-0.0009061098	-0.367275
C	-0.0182268662	-2.7903900845	 0.3405779293	 0.374019
O	-0.0269826044	-4.0013659117	 0.4736666916	-0.380246
C	 1.257204909	-1.9908130455	 0.5185643542	 0.273854
N	 2.3747900799	-2.5250344487	 0.8119066982	-0.524941
N	 1.1550996477	-0.6265298784	 0.3025108252	-0.390748
H	 0.4700228669	 1.8991064917	 0.6342375737	 0.252397
H	-0.7296375492	 1.857533942	-0.4985553807	 0.253195
H	-2.1220756388	-0.2112567316	-0.3116973749	 0.118615
H	-1.9650202493	-2.5957400759	-0.1366753425	 0.260731
H	 2.2209596602	-3.5307796031	 0.9043420936	 0.241056
H	 2.0261308787	-0.1160042038	 0.2724044503	 0.261799
113.0288	132.5483	248.0465	312.6389	334.0331	363.2432	392.8538	473.4009	514.7418	543.6878	610.6451	615.5173	627.4805	683.2007	699.8146	787.2286	795.563	828.1209	898.5853	1017.3444	1087.7706	1166.5816	1174.6076	1273.6289	1292.4626	1392.5711	1434.2172	1456.1611	1509.2179	1641.3301	1719.0945	1740.3982	1787.0372	3255.2584	3475.9504	3499.5736	3610.7952	3616.8004	3620.5319
NC1=CNC(=O)C(=N)N1	NC1=CNC(=O)[C]([NH])N1	
InChI=1S/C4H6N4O/c5-2-1-7-4(9)3(6)8-2/h1H,(H,7,9)(H4,5,6,8)	InChI=1S/C4H6N4O/c5-2-1-7-4(9)3(6)8-2/h1H,(H,7,9)(H4,5,6,8)
