16
gdb 30507	2.57095	1.60657	0.99493	1.7966	79.33	-0.1991	-0.0229	0.1762	1139.8739	0.125871	-434.097052	-434.089014	-434.08807	-434.129504	30.355	
C	 0.1195350774	 1.3913044806	 0.143027002	-0.343784
N	 0.1569035899	-0.0556903607	 0.1362483194	-0.308282
C	 0.4857567746	-0.6424583909	-0.9504115622	 0.369056
N	 0.8199106968	-0.0051695842	-2.1590130452	-0.380167
C	 1.1677875832	-0.666306914	-3.3047961221	 0.090196
N	 1.2288745664	-1.9469312829	-3.407259472	-0.275718
C	 0.915653623	-2.6601426171	-2.2647350789	-0.13677
C	 0.5591334598	-2.0961796444	-1.0808092667	 0.268469
O	 0.2512518313	-2.783305436	 0.0410985478	-0.408188
H	 1.0993106057	 1.8482587496	-0.0831616116	 0.10375
H	-0.6084753325	 1.8063947581	-0.576428123	 0.103793
H	-0.1755009518	 1.7419137178	 1.1347785784	 0.13098
H	 0.7983132325	 1.0028656282	-2.1699594688	 0.263011
H	 1.3989384261	-0.0326339401	-4.1570528925	 0.126842
H	 0.9695813611	-3.74262821	-2.35929737	 0.096215
H	 0.3278215564	-3.7265347139	-0.1432078146	 0.300598
113.3954	175.0353	209.3453	213.1677	265.9869	334.5477	403.185	482.1091	515.6658	544.4367	565.2371	605.7759	646.8764	759.382	761.6788	883.5357	894.654	920.5079	1053.8524	1104.6073	1107.1009	1134.9083	1172.6868	1225.7797	1264.6309	1322.8512	1414.3381	1431.2445	1457.4093	1479.3333	1508.7426	1512.8282	1610.3973	1665.1726	1726.0674	2935.4184	2974.8195	3101.065	3145.9022	3168.711	3631.9567	3806.7355
CN=C1NC=NC=C1O	CN=c1[nH]cncc1O	
InChI=1S/C5H7N3O/c1-6-5-4(9)2-7-3-8-5/h2-3,9H,1H3,(H,6,7,8)	InChI=1S/C5H7N3O/c1-6-5-4(9)2-7-3-8-5/h2-3,9H,1H3,(H,6,7,8)
