15
gdb 15963	3.26102	1.88402	1.38452	2.8294	65.43	-0.2505	0.0143	0.2647	890.4946	0.118719	-362.636997	-362.629721	-362.628777	-362.66892	26.723	
N	-0.0954706553	-1.0572455574	-0.4364000689	-0.326613
C	-0.0820670796	 0.0757315065	-0.2069990504	 0.291243
C	-0.0459456737	 1.4992466951	 0.0758160202	-0.30578
C	 0.0145695477	 1.942645718	 1.5657015798	-0.082911
O	 1.2188992561	 2.6973189836	 1.3325181267	-0.295598
C	 1.3166621144	 2.2075345152	-0.0034718613	 0.466705
C	 2.596212022	 1.7246750453	-0.5934402434	-0.334978
C	 1.9245234224	 2.9934065412	-1.1102625167	-0.33549
H	-0.8294115991	 2.008110899	-0.4908399991	 0.136808
H	-0.8124864607	 2.5754643894	 1.8997644474	 0.123817
H	 0.1694473271	 1.1215424548	 2.2729645669	 0.129763
H	 3.4868858358	 1.8435704468	 0.013721336	 0.134856
H	 2.577021144	 0.8332024732	-1.2117602004	 0.138891
H	 1.4509674201	 2.9718642739	-2.0865614863	 0.124971
H	 2.3757931185	 3.9428961554	-0.8428900405	 0.134315
70.2322	126.782	195.4654	282.9189	311.2633	426.2957	508.5834	542.6054	600.5713	751.5221	755.7752	871.1601	880.486	909.4371	972.7056	992.2653	1019.7528	1053.6	1073.2995	1075.4032	1081.5487	1164.4525	1185.6513	1211.1444	1217.4817	1330.2722	1353.2629	1382.733	1447.5933	1494.3744	1526.9682	2358.4635	3043.477	3082.2203	3101.7647	3130.0045	3134.6193	3215.436	3229.8572
N#CC1COC11CC1	N#C[C@H]1COC21CC2	
InChI=1S/C6H7NO/c7-3-5-4-8-6(5)1-2-6/h5H,1-2,4H2	InChI=1S/C6H7NO/c7-3-5-4-8-6(5)1-2-6/h5H,1-2,4H2/t5-/m0/s1
