20
gdb 7399	3.26499	1.14138	1.04281	1.9513	68.21	-0.2511	0.0629	0.314	1246.0015	0.17425	-423.263402	-423.253288	-423.252344	-423.298434	35.816	
C	-0.3900702979	 1.2039122669	 0.647414576	-0.222707
O	-0.2069152917	-0.1879579104	 0.7381232855	-0.238208
C	 1.0984192025	-0.597646148	 0.386220936	-0.081525
C	 1.1901981463	-2.1177477941	 0.5476120499	 0.110691
O	 2.4251682557	-2.5863188676	 0.0343160144	-0.446352
C	 1.0159536076	-2.5553254034	 2.0099617052	 0.120614
C	 0.8469078413	-4.0655465909	 2.1458658258	-0.418577
O	 2.2094775459	-2.1027317586	 2.6665532784	-0.458327
H	-0.224332523	 1.5712440935	-0.3777744685	 0.10444
H	-1.4217858632	 1.4199317843	 0.9365098289	 0.123954
H	 0.2901266749	 1.7506155659	 1.3196191009	 0.104749
H	 1.326413268	-0.33786889	-0.6592226563	 0.092188
H	 1.8490543913	-0.1094781873	 1.0283345294	 0.095519
H	 0.3950967953	-2.5725553506	-0.0536249165	 0.088883
H	 3.0646502256	-2.4413071668	 0.744776445	 0.288364
H	 0.1414069259	-2.034254828	 2.4215210978	 0.089849
H	 0.8181345395	-4.3640454291	 3.2005414021	 0.101191
H	-0.0917792474	-4.3912415951	 1.6865641458	 0.123212
H	 1.6735620987	-4.5853310692	 1.6540826729	 0.134223
H	 2.2510684248	-2.5104842816	 3.5360584275	 0.287819
68.7986	85.7418	113.1803	180.118	223.4248	235.0605	239.4743	265.2123	300.921	325.3221	433.2242	434.3833	484.1149	553.6311	671.7359	779.1836	911.7365	992.0807	1009.5262	1015.0509	1071.0401	1090.7422	1127.6355	1156.0432	1166.9156	1186.7067	1202.0012	1229.3522	1244.3886	1314.0332	1339.823	1377.4318	1400.2525	1406.2278	1417.7602	1444.4312	1479.7557	1484.9331	1489.7997	1500.0605	1502.5911	1525.3397	2965.8302	2977.9262	3009.5187	3014.8557	3023.3485	3029.7297	3058.6567	3095.7061	3109.9273	3124.4523	3759.6604	3838.2279
COCC(O)C(C)O	COC[C@@H](O)[C@@H](C)O	
InChI=1S/C5H12O3/c1-4(6)5(7)3-8-2/h4-7H,3H2,1-2H3	InChI=1S/C5H12O3/c1-4(6)5(7)3-8-2/h4-7H,3H2,1-2H3/t4-,5-/m1/s1
