20
gdb 113104	6.35766	0.6401	0.61786	3.392	79.22	-0.2286	0.0054	0.234	1816.0596	0.169361	-440.281649	-440.272056	-440.271111	-440.317417	33.811	
C	-0.0662341921	 1.5042040263	 0.0000212075	-0.38161
C	-0.1421816654	-0.0204511411	-0.010079153	-0.119819
N	 0.5281145237	-0.5842963536	-1.1677716614	-0.07513
C	-0.092670951	-0.4140838414	-2.4998138897	-0.201945
C	 0.3829139066	-1.8395691541	-2.8455050619	 0.117694
C	 0.5260419405	-2.0526569362	-1.3252591816	-0.203005
O	-0.5672272039	-2.6654264156	-3.4985982045	-0.184341
C	-0.1932227568	-3.3260305738	-4.6127787765	 0.165563
O	-0.9328702241	-4.0397225503	-5.2185543014	-0.272
H	 0.9751993515	 1.838149983	-0.0109140724	 0.126121
H	-0.5684951563	 1.9314768863	-0.8744331375	 0.120193
H	-0.5542019326	 1.9078525713	 0.8920324196	 0.117099
H	 0.3489578813	-0.4229291814	 0.8844955677	 0.104698
H	-1.2015653613	-0.3429140657	 0.036556846	 0.077399
H	-1.1939473757	-0.3776729416	-2.4736862789	 0.104833
H	 0.2861529765	 0.4208968941	-3.0966839393	 0.109912
H	 1.3381235209	-1.8607726288	-3.3784753206	 0.100766
H	 1.4161144419	-2.5667068915	-0.9485957561	 0.108243
H	-0.3771210799	-2.5407374346	-0.9250325715	 0.105037
H	 0.8606814162	-3.1307805013	-4.8925701246	 0.080291
39.1709	61.689	99.9912	156.7145	207.545	222.218	274.8793	343.4271	361.5468	400.9172	472.8959	574.8366	692.5827	811.0849	835.7513	891.5951	953.8997	992.9101	1017.1878	1043.1265	1045.6475	1076.472	1114.8913	1119.0291	1141.9086	1180.3344	1202.5514	1220.2917	1237.9248	1263.662	1276.4935	1314.0349	1337.254	1388.53	1396.5176	1414.5835	1441.9466	1489.6223	1492.4374	1498.2239	1509.354	1527.9156	1869.5145	2905.4507	2945.9196	2974.2052	2984.6673	3038.5404	3043.8904	3058.0766	3071.0648	3079.8103	3106.5556	3119.7437
CCN1CC(C1)OC=O	CCN1CC(C1)OC=O	
InChI=1S/C6H11NO2/c1-2-7-3-6(4-7)9-5-8/h5-6H,2-4H2,1H3	InChI=1S/C6H11NO2/c1-2-7-3-6(4-7)9-5-8/h5-6H,2-4H2,1H3
