19
gdb 95932	2.16291	1.50697	1.21619	0.8484	76.82	-0.2495	0.0271	0.2766	1123.2195	0.158193	-423.001945	-422.992699	-422.991755	-423.036136	35.311	
O	 0.100037458	 1.3648373042	-0.1480432258	-0.439944
C	 0.0594549023	-0.0331189184	-0.0114727033	 0.104308
C	 0.7079744242	-0.5960947901	 1.2624697946	-0.24836
C	 0.1104035748	-2.0033369577	 1.3630213847	-0.211855
C	-1.3756337946	-1.7908542777	 1.0143950955	-0.252469
C	-1.4235480242	-0.5887750174	 0.0279840946	 0.200865
O	-2.2757790025	 0.4113603573	 0.6091418358	-0.470585
C	-1.9022908109	-0.9445294916	-1.3049288037	 0.286307
C	-2.2878055432	-1.2062886269	-2.41378261	-0.479865
H	-0.4729648017	 1.7110829651	 0.5483677308	 0.276056
H	 0.5628429502	-0.4400231356	-0.8936490856	 0.100975
H	 1.7993857914	-0.5738111261	 1.2161297099	 0.102638
H	 0.3972523598	 0.0120186201	 2.1222923318	 0.098946
H	 0.5852563536	-2.6647990708	 0.6286410906	 0.106057
H	 0.2441495287	-2.4636810811	 2.3451053398	 0.103116
H	-1.8566454385	-2.6795923321	 0.6035903732	 0.112739
H	-1.93956427	-1.4861362903	 1.9006120192	 0.123643
H	-2.5196643877	 1.0180688825	-0.0998246757	 0.287577
H	-2.6299858694	-1.4461130736	-3.3902884066	 0.199851
39.2772	137.9656	147.4056	181.435	228.4788	303.815	367.3728	403.1239	460.1328	517.8419	548.4551	563.9189	586.2006	611.1795	621.1285	668.2103	711.7358	831.6694	872.2891	929.0557	949.1414	999.5845	1016.1632	1052.7352	1056.0783	1107.5509	1130.1571	1182.863	1208.9107	1252.1704	1286.4343	1315.1548	1329.934	1340.0738	1355.588	1380.5532	1439.3298	1479.4335	1490.1783	1507.1735	2228.3971	3028.2469	3040.5235	3067.4891	3069.9851	3097.5002	3105.2372	3126.1089	3499.2755	3768.0769	3797.9349
OC1CCCC1(O)C#C	O[C@H]1CCC[C@]1(O)C#C	
InChI=1S/C7H10O2/c1-2-7(9)5-3-4-6(7)8/h1,6,8-9H,3-5H2	InChI=1S/C7H10O2/c1-2-7(9)5-3-4-6(7)8/h1,6,8-9H,3-5H2/t6-,7+/m0/s1
