20
gdb 115079	2.32293	1.50567	1.13392	2.9132	80.92	-0.2162	-0.0033	0.2129	1163.584	0.172536	-403.207109	-403.198321	-403.197376	-403.240689	33.311	
C	-0.0081539639	 1.6037103271	-0.065077039	-0.385567
C	-0.0098559901	 0.0742708852	 0.0024614803	-0.179554
C	-1.4227049496	-0.5623319151	 0.0307315941	-0.101431
C	-1.3643140066	-2.0984788237	-0.1118606638	-0.295457
C	-0.9593828742	-2.763823024	 1.1777319074	-0.109875
C	-1.2682953959	-2.1897445773	 2.340449095	 0.018539
N	-1.9272151507	-0.9560838374	 2.3972750973	-0.319596
C	-2.1388110371	-0.130861202	 1.311353307	 0.39711
O	-2.7911578849	 0.8898611626	 1.4122753997	-0.371941
H	 1.017054371	 1.9870273618	-0.0708338724	 0.106729
H	-0.5031663381	 1.9567139709	-0.9761101408	 0.116084
H	-0.5366387128	 2.0464571164	 0.7827055684	 0.140864
H	 0.5119809968	-0.3298765326	-0.8741888536	 0.094822
H	 0.5569423497	-0.266969411	 0.8770409859	 0.109089
H	-2.0041802561	-0.1362059094	-0.7922122782	 0.098389
H	-2.3480833136	-2.4791990111	-0.4258546503	 0.114182
H	-0.6716597046	-2.3575012752	-0.9205062994	 0.106195
H	-0.4496101787	-3.7189189676	 1.1654335933	 0.095726
H	-1.0379947755	-2.6262464039	 3.3051238701	 0.113178
H	-2.3196594452	-0.6303090137	 3.2676522893	 0.252513
74.4909	112.4176	147.1696	191.0888	242.5881	287.5267	371.518	445.2638	455.9102	530.1425	571.5095	589.5627	723.9937	737.0908	745.7796	819.4162	843.1865	905.1151	925.4658	943.6784	1003.0388	1027.355	1059.2121	1081.7429	1109.5136	1122.6427	1176.7959	1235.2091	1276.4909	1285.5958	1303.4266	1342.2467	1360.9653	1391.4584	1420.1507	1423.7812	1462.253	1478.5545	1488.1408	1496.608	1506.744	1724.9784	1790.3862	2990.8648	3022.8442	3038.6305	3054.9068	3056.4415	3074.1195	3102.3944	3125.9519	3195.5585	3217.2765	3625.4314
CCC1CC=CNC1=O	CC[C@H]1CC=CNC1=O	
InChI=1S/C7H11NO/c1-2-6-4-3-5-8-7(6)9/h3,5-6H,2,4H2,1H3,(H,8,9)	InChI=1S/C7H11NO/c1-2-6-4-3-5-8-7(6)9/h3,5-6H,2,4H2,1H3,(H,8,9)/t6-/m0/s1
