17
gdb 54996	4.12025	1.11831	0.99817	6.2304	68.54	-0.2482	0.0037	0.2519	1187.6689	0.137767	-455.147032	-455.138948	-455.138004	-455.179886	30.31	
O	-0.1415448671	 0.0530917106	-0.721804978	-0.349099
C	-0.3764831095	 0.9200033356	 0.0681768776	 0.510719
O	 0.5021105737	 1.295856302	 1.039145279	-0.237601
C	-1.6029984696	 1.7830514902	 0.1782818866	-0.304247
N	-2.2209275298	 1.6617450833	 1.5311073863	-0.363323
C	-1.3264756786	 2.7942152992	 1.2215065283	 0.342245
C	 0.0787370673	 2.4917174938	 1.721365595	-0.101604
N	-1.7571029271	 4.7765297808	 2.5570357612	-0.505883
H	-2.4307938321	 4.3186947932	 3.1637173767	 0.235463
H	-1.99982185	 5.7615187313	 2.5413689977	 0.236734
C	-1.8246432982	 4.2142133772	 1.2065041214	-0.277513
H	-2.222207401	 1.9379946701	-0.6958787775	 0.118223
H	-3.189662146	 1.9703333863	 1.4476844821	 0.234228
H	 0.11006306	 2.3041527727	 2.7960264661	 0.136005
H	 0.7750686597	 3.2991760895	 1.4729137528	 0.120439
H	-1.1724576843	 4.8167914187	 0.5626048212	 0.120724
H	-2.8285049775	 4.2312872257	 0.7449271435	 0.084487
85.2378	122.8407	185.3867	229.3528	259.0396	369.176	377.8368	412.1756	497.4482	618.9186	676.8353	722.1683	799.828	839.9679	847.6636	884.3764	928.7035	972.0726	988.578	1050.7801	1056.1733	1070.5815	1084.5157	1116.514	1179.4064	1194.2419	1236.9303	1276.0603	1302.3595	1361.5672	1395.4367	1413.7631	1460.4538	1496.4824	1503.5955	1658.9645	1886.1459	2935.4564	3047.9026	3057.9875	3121.6306	3205.0359	3464.099	3498.5282	3580.4151
[O-]C(=O)C1NC11C[NH2+]C1	O=C1OC[C@]2([C@@H]1N2)CN	
InChI=1S/C5H8N2O2/c8-4(9)3-5(7-3)1-6-2-5/h3,6-7H,1-2H2,(H,8,9)	InChI=1S/C5H8N2O2/c6-1-5-2-9-4(8)3(5)7-5/h3,7H,1-2,6H2/t3-,5+/m1/s1
