18
gdb 87197	2.55138	1.33137	1.03312	5.3181	68.69	-0.2369	0.016	0.2529	1179.4146	0.146067	-476.237875	-476.228471	-476.227526	-476.272067	35.505	
N	-2.3807887685	-0.4039671159	-2.6477608964	-0.506126
C	-2.6834791999	-1.2437557451	-1.6253576603	 0.43446
O	-3.5267049997	-2.1230815189	-1.7432922546	-0.378485
C	-1.9409580185	-1.0083519877	-0.3115914856	-0.380191
C	-1.1738477858	-2.252644374	 0.1039745172	 0.364337
O	-0.0934970446	-2.5682498899	-0.7368919461	-0.474912
C	-1.0775850204	-2.6340886922	 1.5675543666	-0.382552
C	-1.9495600011	-3.4303806788	 0.6214898831	 0.092856
O	-3.3248897097	-3.3285548484	 0.7717624906	-0.436248
H	-2.7972863606	-0.5861849736	-3.5472279979	 0.265859
H	-1.5924216028	 0.2168585139	-2.6034357931	 0.263636
H	-1.2650620948	-0.147246348	-0.3746762419	 0.085452
H	-2.700441478	-0.7823440779	 0.4415711434	 0.14788
H	 0.6664165193	-2.0479411246	-0.452682854	 0.279405
H	-0.151340654	-3.0884739659	 1.9024932348	 0.110756
H	-1.5847355034	-2.0096931546	 2.2947614433	 0.118693
H	-1.564901186	-4.4035561191	 0.3154166009	 0.092934
H	-3.6727970513	-3.0941827594	-0.1088087901	 0.302245
51.4318	115.4223	169.3912	222.2559	248.2022	287.2436	315.3919	376.3959	400.8015	418.3641	465.3919	513.2047	537.4335	603.6433	683.4311	690.8641	814.3067	839.1136	879.3851	911.5547	935.4569	946.7225	1011.5393	1028.9981	1092.4668	1112.3	1172.0272	1197.359	1243.8088	1274.9127	1333.5854	1342.6632	1394.4677	1403.997	1438.5539	1459.2187	1482.9454	1621.0077	1764.4466	3034.7085	3101.6806	3106.5699	3132.6489	3227.7693	3590.1664	3599.9455	3736.9053	3786.0995
NC(=O)CC1(O)CC1O	NC(=O)C[C@@]1(O)C[C@H]1O	
InChI=1S/C5H9NO3/c6-4(8)2-5(9)1-3(5)7/h3,7,9H,1-2H2,(H2,6,8)	InChI=1S/C5H9NO3/c6-4(8)2-5(9)1-3(5)7/h3,7,9H,1-2H2,(H2,6,8)/t3-,5+/m1/s1
