18
gdb 24151	5.0068	0.91256	0.80815	2.7061	78.79	-0.202	0.0482	0.2502	1397.2013	0.14913	-401.959691	-401.951584	-401.95064	-401.993389	30.433	
C	 0.0268491836	 1.4128743176	 0.4641895538	-0.354265
C	-0.055067896	-0.0650932562	 0.142407619	 0.11245
C	-1.2818430567	-0.6874142116	-0.3690685613	-0.185228
O	-0.1827718301	-0.4112687051	-1.2403075374	-0.233008
C	 1.3882702744	 1.9920547062	 0.2032478212	 0.281863
C	 2.199845984	 2.6282895705	 1.1164302869	-0.190537
N	 3.3536594043	 3.0024238271	 0.4742212961	-0.233884
C	 3.2970390593	 2.6136722667	-0.8404131651	-0.07276
C	 2.0921780503	 1.9846630406	-1.0400880864	-0.237685
H	-0.7368658554	 1.9291178883	-0.1316201742	 0.10695
H	-0.2413617305	 1.5572714066	 1.5184352317	 0.098111
H	 0.6496891174	-0.6963672765	 0.6862493042	 0.091597
H	-1.4780993567	-1.7425261413	-0.1826989632	 0.110386
H	-2.1682749349	-0.0733749229	-0.5263141276	 0.109511
H	 2.0468371003	 2.8464933607	 2.1617703439	 0.110898
H	 4.1205763468	 3.4902325002	 0.9013601533	 0.259488
H	 4.1139749231	 2.8152845003	-1.5145984283	 0.115618
H	 1.7406159068	 1.5522486487	-1.9638514465	 0.110495
48.6355	75.9927	121.4666	287.9862	303.3488	356.4882	446.6153	464.3754	640.2036	646.9837	686.1283	722.1069	769.4533	791.5729	844.5027	863.2776	905.6761	934.6521	950.9132	980.5746	1081.7982	1091.5267	1095.1476	1101.6784	1154.5296	1161.414	1167.6553	1226.6779	1282.7508	1291.2146	1294.6392	1337.146	1414.763	1440.5924	1464.4046	1465.6347	1523.3575	1527.8798	1611.6047	3017.2176	3056.7218	3078.581	3100.3375	3163.8908	3251.8274	3254.5468	3271.6315	3690.4728
C(C1CO1)C1=CNC=C1	C([C@H]1CO1)c1c[nH]cc1	
InChI=1S/C7H9NO/c1-2-8-4-6(1)3-7-5-9-7/h1-2,4,7-8H,3,5H2	InChI=1S/C7H9NO/c1-2-8-4-6(1)3-7-5-9-7/h1-2,4,7-8H,3,5H2/t7-/m0/s1
