19
gdb 61685	4.59489	0.75164	0.73687	2.9951	73.59	-0.2495	-0.0357	0.2138	1571.4116	0.157446	-460.149803	-460.140432	-460.139488	-460.18537	33.09	
O	-0.0490673296	 1.4838317905	 0.0379754719	-0.438418
C	 0.0155168476	 0.0864380027	-0.0664103559	 0.05104
C	 0.7937198364	-0.345429314	-1.3246440714	-0.234548
C	 0.0704605029	 0.0919265447	-2.5884574718	 0.161379
C	 0.5613605394	-0.481707966	-3.9363622999	-0.304737
C	-0.8567081259	-1.0782025659	-4.0358766265	-0.057458
O	-1.21036787	-0.5746551803	-2.7299954484	-0.296904
C	 0.6430480525	-0.5072312923	 1.1741205328	 0.133401
O	 1.0358601098	 0.1835402646	 2.0839109318	-0.262685
H	 0.3509450062	 1.6992520997	 0.8953271806	 0.293882
H	-0.9993350643	-0.3416981259	-0.1501921805	 0.117826
H	 1.793615387	 0.1052208756	-1.2986802441	 0.110633
H	 0.9071708877	-1.4369313423	-1.3360999669	 0.095865
H	-0.0587849808	 1.1805726541	-2.5779197029	 0.10082
H	 0.8280869883	 0.2521425579	-4.6977616395	 0.114848
H	 1.3648021613	-1.2163334986	-3.8481782425	 0.108326
H	-1.489913584	-0.6477215082	-4.8214747793	 0.105358
H	-0.9256552673	-2.1711924293	-4.0870125408	 0.103791
H	 0.7280437328	-1.6130350767	 1.2019132132	 0.097581
53.6295	73.8747	78.7211	116.0857	159.5233	290.326	325.3959	344.6538	417.3936	461.699	501.817	738.8475	750.6124	803.4818	840.3829	865.3825	887.5361	952.1023	980.4272	994.1354	1024.1153	1071.2186	1094.3825	1119.1356	1161.0496	1182.1102	1214.4948	1226.5104	1257.4112	1263.4774	1293.5517	1313.3532	1349.0767	1372.2808	1388.6094	1408.8849	1439.2829	1457.5851	1490.5886	1532.5194	1810.8953	2925.9557	2963.2204	3017.0695	3021.8475	3040.7176	3056.9967	3076.2487	3076.573	3133.9423	3691.521
OC(CC1CCO1)C=O	O[C@@H](C[C@H]1CCO1)C=O	
InChI=1S/C6H10O3/c7-4-5(8)3-6-1-2-9-6/h4-6,8H,1-3H2	InChI=1S/C6H10O3/c7-4-5(8)3-6-1-2-9-6/h4-6,8H,1-3H2/t5-,6+/m0/s1
