17
gdb 133701	3.44816	0.98382	0.94301	1.5858	61.98	-0.2241	0.0786	0.3027	1269.9111	0.132347	-549.495021	-549.486401	-549.485456	-549.529138	31.302	
C	 0.0436518931	 1.515603702	 0.0879535807	-0.320774
N	-0.0250601526	 0.0721392466	 0.1178012068	-0.067899
C	-1.2789833698	-0.5663613422	 0.5617366295	-0.19201
C	-0.4298336019	-1.6457419444	 1.2764065	-0.138804
C	 0.7490519763	-0.6508390539	 1.145000108	-0.19201
C	-0.8457660995	-2.0617392478	 2.662385891	 0.269521
F	-1.9958687362	-2.7560553562	 2.6369935932	-0.081544
F	 0.0853632095	-2.8427199261	 3.2355562528	-0.081545
F	-1.035794372	-1.0080568775	 3.4756841538	-0.081974
H	 1.0562657976	 1.8317693343	-0.1838463757	 0.12408
H	-0.6427960884	 1.9025446085	-0.6724993982	 0.12408
H	-0.2152289833	 1.98502582	 1.0560805063	 0.095104
H	-1.8522072357	 0.0403385615	 1.2802156677	 0.102594
H	-1.9438314669	-0.8931060671	-0.2433061036	 0.112714
H	-0.29546494	-2.5478783769	 0.6785380356	 0.113161
H	 1.7122530566	-1.0453999535	 0.8081851313	 0.112714
H	 0.8985198432	-0.0742427573	 2.0713255309	 0.102594
55.5397	79.0367	172.6616	228.6598	253.2879	322.4968	345.1373	348.9889	428.011	507.0263	577.0113	621.9321	684.5345	781.2914	901.1346	920.1461	997.7211	1007.8016	1029.427	1087.6251	1132.9092	1138.5909	1180.6718	1194.7125	1204.03	1234.8287	1239.8482	1256.9253	1287.35	1310.1112	1356.3945	1413.8255	1451.1031	1485.5354	1499.3319	1503.617	1531.5909	2928.6739	2981.9358	2991.1295	3058.4782	3072.7981	3073.1872	3100.4213	3115.9997
CN1CC(C1)C(F)(F)F	CN1CC(C1)C(F)(F)F	
InChI=1S/C5H8F3N/c1-9-2-4(3-9)5(6,7)8/h4H,2-3H2,1H3	InChI=1S/C5H8F3N/c1-9-2-4(3-9)5(6,7)8/h4H,2-3H2,1H3
