17
gdb 105734	2.25497	1.53912	1.20682	2.8209	75.92	-0.2478	-0.0004	0.2474	1093.5294	0.134152	-421.78147	-421.772683	-421.771738	-421.815055	32.859	
O	 0.0399197648	 1.3398875319	-0.2620235001	-0.417804
C	-0.0129981612	-0.0344882131	 0.0280081879	-0.065475
C	-1.472382215	-0.5244196343	 0.1789350989	 0.104183
O	-2.1539597187	-0.1483238701	-1.0397798881	-0.304862
C	-2.712903371	-1.2971016241	-1.6780328459	-0.131808
C	-2.2812640817	-2.4612953672	-0.8340330779	-0.093734
C	-1.5909370584	-2.0333868274	 0.2143217162	-0.127987
C	-2.1256038403	 0.1017392241	 1.335402186	 0.36851
C	-2.6494812109	 0.5806316915	 2.3048457648	-0.487322
H	-0.5717183027	 1.4791183769	-0.9958137018	 0.292978
H	 0.4545438862	-0.6434049984	-0.7621164583	 0.085307
H	 0.5357614827	-0.1947953181	 0.9612106964	 0.11191
H	-3.8084355626	-1.2032496052	-1.7302205746	 0.116985
H	-2.3396322054	-1.3588963349	-2.7106199309	 0.113781
H	-2.5285904191	-3.4880820246	-1.0720260227	 0.116168
H	-1.1650909883	-2.6245858196	 1.0135468408	 0.119786
H	-3.1131030184	 1.0190372525	 3.1539443291	 0.199384
78.3792	103.0377	160.7247	168.992	213.3135	327.4489	406.1801	445.8254	474.2777	515.8938	532.4187	621.2445	664.2944	674.1699	737.2672	775.2298	817.8193	892.1828	951.0449	958.2754	1021.6636	1045.5186	1081.5007	1093.5501	1115.4476	1133.3467	1163.7499	1201.0965	1246.7773	1342.8824	1375.7867	1379.3557	1429.6939	1494.4471	1519.0515	1691.8907	2233.6761	2977.6272	2986.9363	3011.6909	3084.99	3212.6133	3239.8009	3500.6217	3784.0223
OCC1(OCC=C1)C#C	OC[C@]1(OCC=C1)C#C	
InChI=1S/C7H8O2/c1-2-7(6-8)4-3-5-9-7/h1,3-4,8H,5-6H2	InChI=1S/C7H8O2/c1-2-7(6-8)4-3-5-9-7/h1,3-4,8H,5-6H2/t7-/m0/s1
