20
gdb 76413	2.92671	1.15277	1.03628	3.2932	75.65	-0.2269	0.0479	0.2748	1250.1073	0.169504	-440.234013	-440.224309	-440.223365	-440.268491	36.156	
C	-0.0565832062	 1.5193873498	-0.0164900747	-0.421714
C	 0.0341173937	 0.0104417882	 0.002195318	-0.119506
C	 1.36064549	-0.7103460895	-0.1726014315	-0.012653
O	 2.5622867502	 0.0175184593	-0.1741948083	-0.431186
C	 0.673353746	-0.7280214485	 1.1719487265	 0.375468
O	 1.2798561085	 0.0427632962	 2.1691819097	-0.480352
C	 0.0527227651	-1.9825758147	 1.7050595626	-0.03587
C	 0.6929643564	-2.7219592882	 2.8194623801	-0.243614
N	-0.5634916311	-1.9791425211	 3.0399329638	-0.332316
H	 0.7540405937	 1.9748617378	 0.5556601626	 0.123252
H	-0.0247022774	 1.911907523	-1.0396949809	 0.110002
H	-0.9975740024	 1.850447279	 0.4332881303	 0.131472
H	-0.8071603044	-0.5032374592	-0.4576460406	 0.091044
H	 1.3912945399	-1.6208808048	-0.7687548671	 0.095125
H	 2.5355716027	 0.6658099673	-0.8855302764	 0.299852
H	 2.1487205016	 0.2947704864	 1.8249475411	 0.298093
H	-0.5110485254	-2.5429777976	 0.9613466178	 0.082714
H	 0.6049084126	-3.8032693359	 2.8763506673	 0.11088
H	 1.6083632475	-2.3061724724	 3.2288088953	 0.115568
H	-0.333676081	-1.0955797451	 3.4912435646	 0.243742
69.2979	108.8364	146.6018	173.6978	221.0926	239.3098	271.6367	321.3951	364.6408	378.0386	450.7103	546.4105	591.9441	641.9054	729.8632	800.7816	843.2836	858.441	884.6194	960.9961	985.7993	1010.9813	1023.9834	1056.7866	1076.4939	1111.3984	1137.2064	1145.9273	1157.5709	1183.106	1227.6571	1272.8515	1282.0982	1306.8398	1312.2981	1359.7604	1376.7397	1401.5662	1418.094	1469.7062	1493.3947	1500.9992	1507.8247	3033.273	3093.6118	3111.4131	3113.6627	3120.715	3126.6286	3141.3143	3204.9684	3493.3873	3732.093	3809.8185
CC1C(O)C1(O)C1CN1	C[C@H]1[C@@H](O)[C@]1(O)[C@H]1CN1	
InChI=1S/C6H11NO2/c1-3-5(8)6(3,9)4-2-7-4/h3-5,7-9H,2H2,1H3	InChI=1S/C6H11NO2/c1-3-5(8)6(3,9)4-2-7-4/h3-5,7-9H,2H2,1H3/t3-,4+,5+,6+/m0/s1
