19
gdb 99939	3.27246	0.70935	0.67006	2.988	84.24	-0.2634	-0.0579	0.2055	1718.126	0.155015	-423.005087	-422.993975	-422.993031	-423.042532	38.049	
C	-0.0898031745	 1.5503662113	-0.0698081765	-0.404314
C	 0.0109649626	 0.0104792993	 0.0387776503	 0.039416
C	 0.762955274	-0.3838512072	 1.3320273756	-0.404295
C	-1.4046537782	-0.6141309546	 0.0384191742	-0.077538
O	-2.1076140791	-0.110365418	 1.1612767298	-0.425261
C	 0.7307675266	-0.5138104033	-1.1216836909	 0.138517
C	 1.3080740009	-0.9591950922	-2.0861566338	-0.016382
C	 2.0315989841	-1.4639498142	-3.2228081647	 0.01646
O	 1.5904693924	-2.2579056405	-4.0228522787	-0.232396
H	 0.9044860693	 2.0038175305	-0.050492706	 0.121843
H	-0.5832796381	 1.8450669002	-1.0003319425	 0.122736
H	-0.6738703044	 1.9334702613	 0.7694080015	 0.141238
H	 0.1955554487	-0.0379980751	 2.1984194791	 0.141301
H	 0.8775242662	-1.469301274	 1.4019038833	 0.12289
H	 1.7579203888	 0.0680523799	 1.3521690816	 0.121886
H	-1.9095330128	-0.354029822	-0.9034984257	 0.101222
H	-1.3118019055	-1.7093536872	 0.078695356	 0.101343
H	-2.9886328732	-0.4945894101	 1.1642986639	 0.294624
H	 3.0605194621	-1.0604254641	-3.3197082965	 0.096711
27.2776	70.7014	96.8035	137.4349	189.179	195.9712	219.7621	240.9234	258.9035	278.0513	340.0072	363.8416	401.514	523.2972	574.7585	624.8129	728.1819	843.9052	931.7623	962.5624	969.4783	1022.2266	1045.9099	1070.3143	1087.102	1181.3508	1197.893	1238.7768	1292.2737	1293.0369	1390.4069	1406.8829	1422.4933	1454.8198	1481.9491	1487.5787	1495.2512	1509.2359	1521.4074	1765.7576	2320.3728	2913.5343	2985.1513	3022.5197	3046.8418	3050.3055	3118.9581	3121.9273	3138.1833	3141.3752	3840.8885
CC(C)(CO)C#CC=O	CC(C)(CO)C#CC=O	
InChI=1S/C7H10O2/c1-7(2,6-9)4-3-5-8/h5,9H,6H2,1-2H3	InChI=1S/C7H10O2/c1-7(2,6-9)4-3-5-8/h5,9H,6H2,1-2H3
