15
gdb 27435	2.40742	1.66399	0.98986	5.8262	82.27	-0.2248	-0.079	0.1458	1119.814	0.114365	-416.841709	-416.833965	-416.833021	-416.874427	29.361	
N	 0.0143031288	 1.4054660405	-0.0373571444	-0.564777
C	-0.0179409878	 0.026742172	-0.0343652628	 0.327577
C	-1.2276248505	-0.6206249218	-0.0511448299	-0.267117
C	-1.5221475857	-2.0332470033	-0.1143333422	 0.312567
O	-2.6677730284	-2.4477140568	-0.2763408116	-0.375778
C	-0.4638008556	-3.0662375588	 0.1213420915	-0.03579
N	 0.8206168166	-3.0347824639	 0.1202428372	-0.247681
C	 1.5971099458	-1.9176789106	-0.0689355094	-0.001014
C	 1.2799771111	-0.6014439666	-0.1032071753	-0.118075
H	 0.8498885365	 1.8584867486	 0.2946521583	 0.261024
H	-0.8400126996	 1.8906427848	 0.1855204467	 0.264435
H	-2.1262915807	-0.0074068992	-0.040041465	 0.097023
H	-0.9231260018	-4.0407837089	 0.3068138826	 0.132433
H	 2.6540306175	-2.1598796026	-0.1604676029	 0.117632
H	 2.1198609939	 0.0823948368	-0.2058924829	 0.097539
43.7274	168.2168	261.0369	324.975	367.8412	371.1904	440.2697	444.4093	490.4982	505.4434	575.4305	634.7904	721.7817	805.8632	842.6068	863.593	900.6822	947.8565	984.096	1004.605	1073.5273	1115.8879	1269.1083	1312.705	1321.1949	1392.1857	1405.6269	1495.2119	1582.3488	1642.8583	1665.0881	1675.9253	1698.7161	3103.0098	3138.0811	3150.9872	3158.5023	3594.8819	3705.6709
NC1=CC(=O)C=NC=C1	Nc1cc(=O)cncc1	
InChI=1S/C6H6N2O/c7-5-1-2-8-4-6(9)3-5/h1-4H,7H2	InChI=1S/C6H6N2O/c7-5-1-2-8-4-6(9)3-5/h1-4H,7H2
