22
gdb 119195	1.89608	1.19259	0.83709	1.0052	90.17	-0.2352	0.0394	0.2746	1496.5531	0.191719	-367.166698	-367.156043	-367.155098	-367.202497	39.152	
C	-0.1930091876	 1.5889448315	-0.025529705	-0.383561
C	-0.2248016764	 0.0668236872	-0.1811370842	-0.162234
C	 0.9449367401	-0.467768498	-1.0172960382	-0.253726
C	 0.9086773842	-1.9807854484	-1.1828539489	 0.116817
N	-0.0830124119	-2.4952191028	-2.1665055778	-0.367544
C	 1.3457401093	-2.681378774	-2.4420381186	-0.03882
C	 1.9269383568	-1.9885854109	-3.65066006	-0.404041
C	 1.0704111485	-2.7327009543	 0.0395515174	 0.306746
C	 1.1944831585	-3.3535225182	 1.0633604295	-0.466097
H	 0.7255527325	 1.9191253173	 0.4728886247	 0.112188
H	-0.2377519209	 2.0898448148	-0.999261945	 0.112906
H	-1.0396255649	 1.9450101723	 0.5697264204	 0.111269
H	-0.2090385041	-0.4076602806	 0.8071238623	 0.106494
H	-1.1620705462	-0.240988513	-0.6595786543	 0.109047
H	 0.9206087307	-0.0028793761	-2.0069219437	 0.102265
H	 1.8981252132	-0.1860421817	-0.5520656038	 0.099299
H	-0.4979842839	-3.3561669301	-1.819807163	 0.23689
H	 1.7457992932	-3.6796544851	-2.2707910471	 0.090594
H	 1.4564741905	-1.0199284487	-3.8273686509	 0.131579
H	 3.0060182158	-1.8414886996	-3.5356453261	 0.121389
H	 1.7649119557	-2.6021442667	-4.5435876096	 0.123237
H	 1.3075088167	-3.9024068749	 1.9653096422	 0.195302
72.5685	83.4262	123.6456	142.6795	163.2852	183.9863	244.8313	270.0928	320.0424	368.8043	394.5142	487.309	550.2303	571.6923	594.4974	651.9681	708.5927	746.5363	796.1405	863.4297	878.8924	911.124	975.8444	1015.2759	1036.3005	1054.2034	1092.9909	1107.0248	1122.8798	1149.704	1244.1619	1246.9022	1290.7099	1307.5558	1337.45	1341.8903	1392.9508	1407.1147	1412.3005	1451.2193	1472.0625	1489.4886	1494.5706	1499.6877	1500.8655	1510.519	2226.0881	3026.4287	3028.4772	3036.7169	3039.1868	3063.2357	3088.1471	3097.611	3100.2041	3100.9246	3115.1292	3141.2028	3501.8796	3507.7299
CCCC1(NC1C)C#C	CCC[C@]1(N[C@H]1C)C#C	
InChI=1S/C8H13N/c1-4-6-8(5-2)7(3)9-8/h2,7,9H,4,6H2,1,3H3	InChI=1S/C8H13N/c1-4-6-8(5-2)7(3)9-8/h2,7,9H,4,6H2,1,3H3/t7-,8+/m0/s1
