18
gdb 88096	3.26236	1.34781	1.2512	4.0088	72.23	-0.231	0.0645	0.2955	1063.9685	0.148166	-439.032245	-439.024438	-439.023494	-439.064473	30.712	
O	-0.0504517557	 1.3566630549	-0.09633479	-0.436665
C	 0.0357118248	-0.0321044939	-0.0695514243	 0.070618
C	-0.2715680999	-0.7859972066	 1.2178847183	-0.397549
C	-1.2324035085	-0.8153165425	 0.0500727595	 0.450452
O	-2.3884431478	-0.000255273	 0.1207294768	-0.319265
C	-3.5589960782	-0.7995954262	-0.0747000557	-0.086521
C	-3.0874853246	-2.0549943999	-0.7784000892	-0.049452
N	-2.2823726443	-1.7594582673	-1.9791637471	-0.335433
C	-1.6077443917	-2.0548562142	-0.6930849568	-0.173595
H	-0.979888363	 1.5694192583	-0.2520045902	 0.300048
H	 0.824052593	-0.4232935622	-0.7086673623	 0.096262
H	 0.3029379786	-1.6765109921	 1.4553182447	 0.106071
H	-0.5703793863	-0.1791592797	 2.0656448137	 0.124319
H	-4.018450104	-1.0597497341	 0.8903225471	 0.100416
H	-4.268080251	-0.2070672698	-0.6607427863	 0.118408
H	-3.6797596962	-2.9618882882	-0.7225385427	 0.098434
H	-2.2487182749	-2.5894621287	-2.567157371	 0.233861
H	-1.0241819602	-2.9603739248	-0.5736080843	 0.099591
96.0392	152.2334	202.3035	271.8327	332.8349	369.8682	405.2418	470.0594	506.9703	629.7832	712.0725	782.9845	809.3139	832.09	867.4806	873.0517	902.5111	950.9065	973.2499	995.5016	1021.5624	1025.1605	1071.7706	1096.9846	1102.8975	1124.2854	1157.3734	1159.6436	1223.8236	1237.8104	1255.0382	1288.8953	1347.5562	1384.2624	1386.8854	1414.8178	1433.2354	1490.3112	1507.3972	2998.4229	3081.251	3121.4804	3130.6068	3171.4971	3184.4207	3222.2662	3496.5048	3764.8076
OC1CC11OCC2NC12	O[C@H]1C[C@]21OC[C@H]1N[C@@H]21	
InChI=1S/C6H9NO2/c8-4-1-6(4)5-3(7-5)2-9-6/h3-5,7-8H,1-2H2	InChI=1S/C6H9NO2/c8-4-1-6(4)5-3(7-5)2-9-6/h3-5,7-8H,1-2H2/t3-,4+,5-,6-/m1/s1
