18
gdb 37132	3.16276	1.70494	1.68567	3.0755	73.46	-0.2419	0.073	0.3149	898.0106	0.150807	-401.872961	-401.866392	-401.865448	-401.903578	27.4	
C	 0.0311747865	 1.4426152418	 0.0690071612	-0.285593
C	 1.3550981607	 0.7259395293	 0.0704964625	-0.128266
C	 0.0296144579	-0.0628061516	 0.0786301282	-0.128249
C	 0.3646942836	-0.6080403096	-1.3004658106	 0.179064
C	-0.27378171	-0.3849754761	-2.648551656	-0.124814
O	 0.7555818047	 0.1890480581	-3.4686923284	-0.264532
C	 1.7587867602	 0.8238108369	-2.6609979662	-0.12478
C	 1.662040456	 0.1636913214	-1.3083666809	 0.179021
N	 1.6531877344	-1.2983491424	-1.362755565	-0.371586
H	-0.244455908	 1.9153223771	 1.0078593665	 0.117527
H	-0.2996595747	 1.9896970432	-0.8094494804	 0.119936
H	 2.0691668977	 0.843399684	 0.8779199876	 0.092018
H	-0.4068984778	-0.6300183118	 0.8930996758	 0.092028
H	-0.605052914	-1.2972806683	-3.1531522203	 0.115482
H	-1.1339816983	 0.2943786651	-2.5472335216	 0.092693
H	 2.7139970124	 0.6765723153	-3.1734126359	 0.115481
H	 1.5734606011	 1.9045169181	-2.5638600514	 0.092672
H	 1.8969566977	-1.6986252103	-0.460485415	 0.231897
161.8177	237.317	264.1676	393.9212	444.5756	531.9465	549.4511	640.5542	664.9434	745.7333	778.3746	833.3883	867.0082	871.3176	906.0214	942.4779	978.6599	988.8841	1042.6587	1053.4897	1059.2305	1066.6103	1075.4066	1101.7853	1103.112	1126.9827	1182.5154	1211.9461	1218.5497	1266.3323	1269.4391	1301.461	1329.9632	1380.5216	1388.8493	1403.0945	1492.7073	1507.6591	1517.4415	2986.4143	2992.8007	3078.7819	3081.4065	3115.7935	3166.6832	3175.4365	3197.3622	3501.7048
C1C2C1C13COCC21N3	C1[C@H]2[C@@H]1[C@@]13COC[C@@]21N3	
InChI=1S/C7H9NO/c1-4-5(1)7-3-9-2-6(4,7)8-7/h4-5,8H,1-3H2	InChI=1S/C7H9NO/c1-4-5(1)7-3-9-2-6(4,7)8-7/h4-5,8H,1-3H2/t4-,5+,6+,7-
