21
gdb 100634	2.48337	1.08956	0.94807	3.9872	78.86	-0.2641	0.0334	0.2975	1338.0511	0.180657	-420.412999	-420.402001	-420.401057	-420.448741	40.005	
C	 0.0437018062	 1.5551621084	-0.0195087082	-0.43195
C	 0.0129831987	 0.0216396068	 0.0556839899	 0.045445
C	 0.8100609108	-0.4697262392	 1.2705915519	-0.099224
O	 2.1432660693	 0.0001556618	 1.1119369368	-0.423306
C	-1.4379888701	-0.5529264549	 0.0364383103	 0.071101
C	-1.4628219628	-2.0946094412	 0.0140424857	-0.415524
N	-2.1749845619	-0.0997041136	 1.2252700445	-0.518236
C	-2.0989075633	-0.0879960706	-1.2139518021	 0.262745
N	-2.6507443563	 0.2790083913	-2.1620433742	-0.352487
H	 1.0792756313	 1.8940072551	-0.069172436	 0.145685
H	-0.4883497315	 1.9257437383	-0.8997032509	 0.137275
H	-0.4023494206	 2.0086345354	 0.8733427219	 0.111239
H	 0.5128640224	-0.3711567742	-0.8384941115	 0.098499
H	 0.3503721694	-0.0845101241	 2.1908644519	 0.105723
H	 0.7968037933	-1.5668813983	 1.3252424516	 0.085682
H	 2.6367381657	-0.2299942421	 1.9040373961	 0.288985
H	-1.1318897592	-2.4862551347	 0.9772149307	 0.137921
H	-2.4791655703	-2.4548427597	-0.170538438	 0.130143
H	-0.8181760041	-2.4838109375	-0.7776512819	 0.1374
H	-2.3062408145	 0.9068548791	 1.1965687445	 0.243938
H	-3.1050503925	-0.5089993462	 1.2291719869	 0.238946
60.3453	88.1695	139.7368	188.2125	226.1156	230.6839	236.9375	260.1213	287.0018	305.1455	324.7399	362.9876	413.1283	431.9047	490.218	593.3895	619.5261	737.3097	839.2526	891.0484	914.0065	937.9638	978.1783	1029.1377	1049.1242	1072.8277	1095.8491	1155.5553	1169.5752	1228.2203	1253.6754	1273.3824	1310.9446	1351.7663	1371.7702	1404.8759	1407.248	1456.3113	1484.8455	1495.0101	1502.5781	1511.8927	1526.7312	1661.9957	2337.4906	2998.0908	3026.8858	3036.4647	3045.8494	3052.6427	3108.8824	3121.9774	3145.0658	3146.3533	3497.6419	3575.4434	3837.1378
CC(CO)C(C)(N)C#N	C[C@@H](CO)[C@@](C)(N)C#N	
InChI=1S/C6H12N2O/c1-5(3-9)6(2,8)4-7/h5,9H,3,8H2,1-2H3	InChI=1S/C6H12N2O/c1-5(3-9)6(2,8)4-7/h5,9H,3,8H2,1-2H3/t5-,6-/m0/s1
