16
gdb 51791	4.33216	1.05836	0.93808	4.9467	67.67	-0.2669	0.0198	0.2867	1232.3347	0.124101	-474.992791	-474.98485	-474.983905	-475.026476	28.338	
N	-0.1957358439	 1.2768241462	 0.1819483601	-0.435722
C	-0.1085570229	 0.025245149	 0.0710349038	 0.134929
O	-1.2359184059	-0.7271616544	 0.0662785017	-0.18492
C	-1.0469449153	-2.1156436261	-0.0250544623	 0.218856
O	-0.5374796471	-2.6112463607	 1.1981235164	-0.275745
C	-1.1717695479	-3.8381052399	 1.5589540365	-0.105364
C	-2.4420843824	-3.8975214763	 0.7393772321	 0.026196
O	-3.2352183931	-2.7181717341	 0.8788701265	-0.227694
C	-2.3684982711	-2.8202416813	-0.248906934	-0.02854
H	 0.7331071507	 1.6928295735	 0.1577574464	 0.231313
H	 0.8109596633	-0.5648273698	-0.0318442897	 0.099279
H	-0.3445765116	-2.3372443043	-0.8468359564	 0.077794
H	-0.5276389174	-4.6978532873	 1.3227181502	 0.106238
H	-1.3569132988	-3.8213664307	 2.6376545764	 0.132674
H	-2.9725927048	-4.831687142	 0.5807420118	 0.112486
H	-2.8301728719	-2.8363422117	-1.2309686797	 0.118218
62.5164	87.4471	97.6452	179.969	290.9624	375.7573	435.6211	467.7382	682.7057	711.5014	800.3858	824.3391	846.1809	883.5196	927.3097	954.1339	978.6723	1025.9663	1040.7468	1048.5192	1079.6043	1096.272	1122.9361	1161.5165	1227.0072	1257.455	1283.0247	1310.4167	1348.852	1379.5711	1404.9521	1431.1516	1448.4678	1507.3097	1754.0088	2957.8691	3002.8441	3040.8683	3080.7561	3162.6421	3177.4157	3517.3393
N=COC1OCC2OC12	[NH][CH]O[C@H]1OC[C@H]2O[C@@H]12	
InChI=1S/C5H7NO3/c6-2-8-5-4-3(9-4)1-7-5/h2-6H,1H2	InChI=1S/C5H7NO3/c6-2-8-5-4-3(9-4)1-7-5/h2-6H,1H2/t3-,4-,5-/m1/s1
