18
gdb 91552	2.74375	1.39772	1.19563	2.5047	72.11	-0.2381	0.0655	0.3036	1092.7573	0.147857	-439.010932	-439.002886	-439.001942	-439.043845	30.837	
O	-0.0096863191	 1.4495217587	-0.060792337	-0.441031
C	 0.0409821839	 0.0515055003	-0.0036334894	 0.080188
C	 0.3300552474	-0.6507098503	 1.381946245	-0.261539
C	-1.0417196837	-1.3148783952	 1.276897587	-0.115713
N	-2.0197417524	-0.1987063384	 1.1686159826	-0.401779
C	-1.3117808185	-0.6808830621	-0.0459582871	 0.362991
C	-2.0420657188	-1.1371747124	-1.247766852	-0.094146
C	-2.0036636434	-0.3557352619	-2.4934195154	-0.185627
O	-1.2330676037	-1.5527868169	-2.3516776518	-0.232352
H	-0.7229658757	 1.7056817525	 0.540178396	 0.28871
H	 0.7190969873	-0.2874817779	-0.7883840738	 0.109553
H	 1.1650245602	-1.3522333368	 1.3273010563	 0.109858
H	 0.4628382796	 0.023591864	 2.231410472	 0.107081
H	-1.3549717345	-2.2833412258	 1.6470545727	 0.101364
H	-2.9575647133	-0.6000423067	 1.1618173091	 0.231499
H	-2.9105400584	-1.7730791992	-1.0604518979	 0.086507
H	-2.8347745156	-0.4155286294	-3.1942628948	 0.117595
H	-1.4304723013	 0.5693506277	-2.5124853616	 0.136842
75.1223	124.7048	168.3362	183.1552	336.1472	390.9553	428.179	481.3581	528.593	590.3096	676.437	705.235	822.4555	856.6908	870.5769	880.8031	921.6417	939.9313	983.5336	993.6917	1031.2718	1074.007	1096.2588	1108.0159	1131.4679	1156.3605	1163.1806	1170.1355	1196.6278	1225.7529	1270.9742	1281.735	1308.2577	1353.5182	1379.9118	1446.3703	1464.8891	1487.0174	1527.1174	3067.6675	3079.7556	3089.3288	3108.0612	3130.1173	3182.3734	3192.553	3469.5804	3751.607
OC1CC2NC12C1CO1	O[C@H]1C[C@H]2N[C@@]12[C@H]1CO1	
InChI=1S/C6H9NO2/c8-4-1-3-6(4,7-3)5-2-9-5/h3-5,7-8H,1-2H2	InChI=1S/C6H9NO2/c8-4-1-3-6(4,7-3)5-2-9-5/h3-5,7-8H,1-2H2/t3-,4+,5-,6-/m1/s1
