18
gdb 76108	3.16169	1.29556	1.11002	4.21	76.47	-0.2708	0.0233	0.2941	1134.9286	0.146972	-401.938369	-401.929536	-401.928592	-401.971706	33.049	
C	 0.0026135068	 1.5489682039	 0.0301766952	-0.508415
C	 0.0434699841	 0.0483064596	-0.0048555228	 0.360667
C	-0.8807681977	-0.8339509881	 0.7890261419	-0.331797
C	 0.5991598296	-0.96074938	 1.011864712	-0.106255
C	 1.2345100858	-1.7980711857	-0.1062450346	-0.224548
C	 0.8297725333	-3.1878471271	-0.2530412453	 0.287752
N	 0.5011475247	-4.285541058	-0.4103234354	-0.337741
C	 0.6313078133	-0.7643364333	-1.157246964	 0.042668
O	-0.3270025357	-1.2190312094	-2.0697540517	-0.415504
H	 0.9720796747	 1.9843459939	-0.2377174111	 0.117327
H	-0.7439509619	 1.9373178392	-0.6718489969	 0.135802
H	-0.2624075719	 1.9113653762	 1.0283671101	 0.123198
H	-1.4179403139	-0.3257788455	 1.5833337553	 0.11739
H	-1.4382764399	-1.6310591121	 0.307439968	 0.143177
H	 1.0698253764	-0.7766327876	 1.9693703616	 0.100993
H	 2.3260901372	-1.7445062472	-0.0994223905	 0.119816
H	 1.4520470455	-0.233286062	-1.657742708	 0.079752
H	 0.0889538099	-1.8294263968	-2.6885110138	 0.295719
87.9133	120.4267	187.6089	189.0912	250.1542	278.0358	303.3616	363.5724	412.1039	500.0961	542.1816	612.2896	693.5299	745.5763	790.7717	825.9056	901.7101	948.4146	958.3779	983.5797	1022.6071	1069.7107	1080.9167	1101.3878	1108.6797	1118.7309	1174.6814	1221.6949	1256.004	1274.901	1323.819	1331.8332	1386.4576	1419.3087	1440.8794	1485.4862	1498.5652	1503.3509	2349.4093	3009.7355	3026.0892	3081.132	3086.5941	3101.6191	3129.2382	3192.1125	3215.0598	3808.4428
CC12CC1C(C#N)C2O	C[C@]12C[C@H]1[C@@H](C#N)[C@H]2O	
InChI=1S/C7H9NO/c1-7-2-5(7)4(3-8)6(7)9/h4-6,9H,2H2,1H3	InChI=1S/C7H9NO/c1-7-2-5(7)4(3-8)6(7)9/h4-6,9H,2H2,1H3/t4-,5+,6-,7+/m1/s1
