17
gdb 62768	3.64073	1.2576	1.21324	2.9977	69.31	-0.227	0.0536	0.2806	1070.1516	0.135875	-455.139703	-455.131447	-455.130503	-455.172146	32.036	
C	-0.3263682635	 1.5203803041	 0.0463620429	-0.47432
C	-0.0548083301	 0.0387948734	-0.0110500024	 0.305855
O	-1.0933636196	-0.7867288875	 0.4473766032	-0.451513
C	 0.6816537384	-0.6405575752	-1.1582954325	-0.075754
N	 1.5711752176	 0.1313969842	-1.9666429334	-0.329167
C	 2.5361131593	 0.7599857602	-1.1957410985	 0.442853
N	 3.3396964075	 1.6457920345	-1.6050131333	-0.588723
O	 2.4608689913	 0.265318494	 0.0887155974	-0.239535
C	 1.3232119196	-0.566791906	 0.2027593928	-0.00832
H	 0.487371942	 2.1103689499	-0.3797789882	 0.151034
H	-1.2468394168	 1.7499977143	-0.4993172807	 0.131426
H	-0.4575030912	 1.8443413685	 1.0856799216	 0.118223
H	-1.1781791545	-0.6608131195	 1.3999263733	 0.287131
H	 0.2796055901	-1.558356634	-1.5718796845	 0.121808
H	 1.2628434341	 0.618239876	-2.7927620697	 0.264126
H	 3.9469733827	 1.950582047	-0.8483103256	 0.225742
H	 1.4661262331	-1.415261784	 0.8601384375	 0.119134
110.4266	167.509	175.7699	266.0826	282.894	343.9199	386.5905	440.2213	474.6228	494.0878	515.7943	694.326	726.2498	741.5459	774.7593	788.0432	878.0165	887.1016	910.1154	976.3993	1032.4408	1048.2084	1074.4602	1096.1708	1121.2173	1158.4806	1203.1848	1250.7894	1296.7751	1321.7866	1383.1318	1388.69	1423.3258	1434.1619	1486.7401	1501.7384	1787.606	3033.6074	3095.9759	3135.094	3175.5121	3194.4983	3534.2477	3647.9221	3782.0519
CC1(O)C2NC(=N)OC12	C[C@@]1(O)[C@H]2N[C]([NH])O[C@@H]12	
InChI=1S/C5H8N2O2/c1-5(8)2-3(5)9-4(6)7-2/h2-3,8H,1H3,(H2,6,7)	InChI=1S/C5H8N2O2/c1-5(8)2-3(5)9-4(6)7-2/h2-3,8H,1H3,(H2,6,7)/t2-,3+,5+/m0/s1
