17
gdb 101079	2.32288	1.33824	0.9399	2.245	70.49	-0.2586	0.0077	0.2664	1228.9285	0.13327	-458.893272	-458.88403	-458.883085	-458.927286	34.554	
O	 0.1010488201	 1.4067228766	-0.2612165108	-0.422974
C	 0.1060001487	 0.0024050794	-0.1371297726	-0.070944
C	-1.3114856063	-0.5080805861	 0.1564876912	-0.012175
O	-2.202577427	-0.0030618482	-0.8278826961	-0.443502
C	-1.3895192277	-2.0373467468	 0.2038419278	 0.182891
C	-2.6557520236	-2.7104916204	-0.14396266	-0.215016
O	-1.5928837759	-2.6277259641	-1.1015158333	-0.283881
C	-0.4471068491	-2.7053719552	 1.0659627071	 0.267803
C	 0.3366285642	-3.2303905853	 1.8106450425	-0.379702
H	-0.6653716887	 1.6149403486	-0.8110473545	 0.286414
H	 0.4796258198	-0.4899023915	-1.0521160969	 0.088873
H	 0.784661845	-0.256476727	 0.6801157064	 0.12116
H	-1.6469269235	-0.0975453153	 1.1152227289	 0.112071
H	-2.0729420851	-0.5619218201	-1.6087523296	 0.295028
H	-2.8444806274	-3.7070303744	 0.2476642666	 0.132235
H	-3.526168961	-2.0977183465	-0.3630070927	 0.137063
H	 1.0309423175	-3.7022627539	 2.4618812361	 0.204657
78.4902	115.2253	133.5834	192.1374	240.2312	291.4505	333.5271	384.422	445.5817	467.6598	515.0931	549.3778	577.3418	581.4031	634.9648	676.7326	744.4989	869.5111	871.3973	937.1038	960.3523	1074.9166	1089.7199	1109.9567	1134.5144	1175.8476	1203.2921	1214.747	1287.0283	1311.4601	1358.7466	1385.0391	1433.0038	1439.3959	1505.3312	1507.9535	2239.8399	2956.1489	3062.5988	3096.7855	3106.5901	3206.5666	3499.2796	3729.8132	3770.2065
OCC(O)C1(CO1)C#C	OC[C@@H](O)[C@]1(CO1)C#C	
InChI=1S/C6H8O3/c1-2-6(4-9-6)5(8)3-7/h1,5,7-8H,3-4H2	InChI=1S/C6H8O3/c1-2-6(4-9-6)5(8)3-7/h1,5,7-8H,3-4H2/t5-,6-/m1/s1
