16
gdb 14719	10.4381	0.57602	0.5515	2.3039	83.54	-0.2407	-0.009	0.2316	1899.8053	0.127766	-346.54694	-346.537516	-346.536572	-346.581748	32.647	
O	-0.0285278854	 1.4443206719	 0.0102231855	-0.420778
C	 0.0366084455	 0.0284689907	 0.001811828	-0.073238
C	-1.3920943198	-0.4996373759	 0.0127325658	-0.15911
C	-1.4359246149	-2.0411138153	 0.0047969876	-0.394257
C	-2.7896819463	-2.5724689457	 0.0148949935	 0.337291
C	-3.9221092094	-2.9994082343	 0.0237791916	-0.193171
C	-5.1959486349	-3.4784823535	 0.0333650484	 0.28955
C	-6.3257846246	-3.90514043	 0.0413566319	-0.557399
H	 0.8691371227	 1.7890735928	 0.0029866071	 0.287627
H	 0.5646857994	-0.3435429824	-0.892310708	 0.086474
H	 0.5818474658	-0.3532787323	 0.8814166493	 0.08647
H	-1.9082512784	-0.1190211106	 0.8995964458	 0.12402
H	-1.9252430719	-0.1094852191	-0.8598181446	 0.124013
H	-0.9066068779	-2.4209185613	-0.8799589894	 0.136894
H	-0.8896879662	-2.4303897549	 0.8750261773	 0.136909
H	-7.3195752337	-4.2778920801	 0.0486876502	 0.188705
62.3971	65.5028	111.2861	160.303	186.1542	255.2379	274.117	355.8348	380.4674	489.8183	534.0216	537.1381	589.7351	593.8306	737.2259	754.3651	863.7493	1015.2732	1026.1738	1086.1319	1114.4389	1179.4082	1212.303	1230.8449	1296.0679	1303.2029	1311.236	1370.2696	1465.1542	1469.4506	1498.3346	1528.4116	2182.3165	2365.7198	2953.4242	2978.4077	3007.7245	3036.6679	3058.0555	3105.1887	3507.0547	3830.2188
OCCCC#CC#C	OCCCC#CC#C	
InChI=1S/C7H8O/c1-2-3-4-5-6-7-8/h1,8H,5-7H2	InChI=1S/C7H8O/c1-2-3-4-5-6-7-8/h1,8H,5-7H2
