20
gdb 117258	4.7571	0.77098	0.74078	1.9955	76.97	-0.2533	0.0204	0.2737	1607.9453	0.170603	-440.269669	-440.260141	-440.259197	-440.305486	33.555	
C	-0.148779554	 1.5476620667	-0.2573522162	-0.39024
C	-0.0381926655	 0.0549386066	-0.010957121	-0.032605
O	 0.6502300687	-0.5190137596	-1.1350495684	-0.2504
C	 0.8499084417	-1.8499389286	-1.1061452563	 0.399484
N	 0.4501272993	-2.5646700942	-0.1339137864	-0.533826
C	 1.5814346798	-2.3069967987	-2.3470061095	-0.146067
C	 2.7729186917	-3.2620056067	-2.0792503114	-0.082271
O	 2.0212803449	-4.4044108438	-2.5367503775	-0.271685
C	 0.9689982896	-3.5538072532	-3.0352817262	-0.082281
H	 0.8411602986	 2.0032274244	-0.3519308569	 0.126595
H	-0.7097257781	 1.7526804355	-1.1737433817	 0.126595
H	-0.6688429863	 2.0246061308	 0.5786796259	 0.121643
H	 0.5209219528	-0.1733139424	 0.9023949988	 0.120768
H	-1.0189527938	-0.4220909324	 0.0863625859	 0.120772
H	 0.6891977098	-3.5440192953	-0.2864027505	 0.232041
H	 1.7868756385	-1.4560228469	-2.9943826608	 0.098245
H	 3.6506749603	-3.0692427639	-2.709205306	 0.105566
H	 3.0859142863	-3.3637007926	-1.0349554245	 0.116052
H	-0.0186502774	-3.8658970154	-2.6802982948	 0.116048
H	 0.966783953	-3.5033893804	-4.1315980024	 0.105565
36.5205	76.6623	86.8556	135.7626	168.3216	245.0842	297.4908	304.5916	347.6389	416.018	635.7121	725.5577	807.5953	827.142	859.4148	862.2299	883.2103	893.7857	961.2235	1030.6171	1035.1231	1042.1804	1084.7783	1104.4723	1126.5127	1138.6106	1165.3703	1177.0244	1183.5681	1236.3401	1288.0826	1293.8744	1309.7571	1374.1815	1378.3393	1412.7017	1447.0306	1486.1161	1496.1914	1508.2379	1520.19	1532.8629	1714.5064	3012.0604	3021.9695	3045.0315	3048.7627	3076.2202	3076.3415	3084.4589	3119.7162	3123.0156	3126.7767	3494.1035
CCOC(=N)C1COC1	CCO[C]([NH])C1COC1	
InChI=1S/C6H11NO2/c1-2-9-6(7)5-3-8-4-5/h5,7H,2-4H2,1H3	InChI=1S/C6H11NO2/c1-2-9-6(7)5-3-8-4-5/h5,7H,2-4H2,1H3
