18
gdb 12888	2.5026	2.34431	1.69173	1.4155	67.07	-0.2296	0.0731	0.3027	859.2919	0.153631	-384.922111	-384.914298	-384.913354	-384.953881	29.858	
C	-0.0624221931	 1.5413595477	-0.0140906292	-0.416939
C	 0.0512950835	 0.0382550012	 0.0810246597	-0.060739
C	 1.3578895454	-0.7003156883	-0.1728358804	-0.01432
O	 2.5264133994	 0.0774712533	-0.1562060242	-0.25729
C	 2.9826831776	 0.16683664	 1.2008348205	-0.064407
C	 1.7268640114	 0.0730309383	 2.0915665595	-0.318723
C	 0.7408008523	-0.6971185879	 1.2034949512	 0.350574
O	 0.0445203569	-1.7825073288	 1.7369800181	-0.467002
H	 0.9026439964	 2.0257931532	 0.1527248019	 0.127507
H	-0.4030512784	 1.8339624482	-1.01254105	 0.120354
H	-0.7802785463	 1.9364244808	 0.7127054719	 0.11768
H	-0.8150243622	-0.5150557845	-0.2747058279	 0.094608
H	 1.3890928477	-1.5763958186	-0.8144003469	 0.093918
H	 3.6721334103	-0.6638879885	 1.4172058337	 0.091218
H	 3.5340644393	 1.1054147652	 1.3027856909	 0.109497
H	 1.9143093905	-0.4853788797	 3.0129585526	 0.102656
H	 1.3509498268	 1.0606962962	 2.375323178	 0.113855
H	 0.6831071826	-2.4685081879	 1.9637018607	 0.277553
129.432	151.2361	206.9093	223.2894	274.2408	340.6636	383.4589	468.9643	572.4508	592.2013	641.7881	747.025	799.3314	852.9525	903.3096	945.0534	951.3011	1000.6248	1013.8158	1041.8024	1081.7853	1120.7726	1127.2076	1143.3146	1194.6684	1231.167	1245.9914	1265.3325	1294.231	1326.3725	1348.295	1386.0252	1412.956	1455.7478	1486.3643	1501.1073	1504.0429	1519.6547	2982.4081	3037.0818	3053.9114	3087.6386	3095.555	3102.1407	3118.8028	3139.9446	3151.0601	3782.7679
CC1C2OCCC12O	C[C@H]1[C@H]2OCC[C@@]12O	
InChI=1S/C6H10O2/c1-4-5-6(4,7)2-3-8-5/h4-5,7H,2-3H2,1H3	InChI=1S/C6H10O2/c1-4-5-6(4,7)2-3-8-5/h4-5,7H,2-3H2,1H3/t4-,5+,6+/m0/s1
