18
gdb 85539	2.45057	1.7285	1.15131	4.8652	72.14	-0.2417	0.0482	0.2899	1075.3423	0.149157	-439.125686	-439.117762	-439.116817	-439.158127	30.726	
C	 0.0398410335	 1.5150069501	-0.0590574854	-0.392215
C	 0.0060830463	-0.0003934429	 0.0727607151	 0.112068
O	 0.5021885852	-0.5224315174	-1.1768938059	-0.25993
C	 0.7920467527	-1.8441438302	-1.328668678	 0.439682
O	 0.8614919557	-2.3321654711	-2.4277699771	-0.383596
N	 1.0140228831	-2.5450276925	-0.1656376843	-0.362101
C	 1.3166546408	-1.9182729964	 1.0920920016	 0.007139
C	 2.2846857366	-0.7533580478	 1.1567105263	-0.318365
C	 0.7906334885	-0.5311130039	 1.2548562332	-0.040789
H	 1.0703882785	 1.8662690071	-0.1609842499	 0.1306
H	-0.5255305232	 1.8315337522	-0.9389456041	 0.135413
H	-0.4016525516	 1.9806658939	 0.8271769113	 0.117711
H	-1.0359595169	-0.3357238344	 0.1793348154	 0.093936
H	 1.4182874526	-3.4519729971	-0.3444822897	 0.257647
H	 1.2697649894	-2.6106789071	 1.9247947793	 0.107963
H	 2.8775094772	-0.6238607793	 2.0552649058	 0.118387
H	 2.7826386398	-0.4708350943	 0.2355136971	 0.137716
H	 0.3810963316	-0.248980399	 2.2197182792	 0.098734
105.4714	122.6235	211.4836	237.7601	288.0947	391.1628	444.2055	491.3777	513.5549	584.3527	621.3937	724.5747	751.9471	771.9818	831.314	845.7323	899.3442	959.4549	992.598	1024.6154	1048.9615	1062.1301	1101.2405	1110.0301	1140.4939	1143.306	1175.7274	1224.0288	1297.7136	1351.6425	1382.0394	1402.806	1410.3547	1417.8005	1451.4282	1483.8903	1495.9078	1496.5639	1847.006	2998.0648	3046.7376	3121.2995	3130.7207	3136.5027	3157.9918	3174.4829	3227.6217	3622.8592
CC1OC(=O)NC2CC12	C[C@H]1OC(=O)N[C@H]2C[C@@H]12	
InChI=1S/C6H9NO2/c1-3-4-2-5(4)7-6(8)9-3/h3-5H,2H2,1H3,(H,7,8)	InChI=1S/C6H9NO2/c1-3-4-2-5(4)7-6(8)9-3/h3-5H,2H2,1H3,(H,7,8)/t3-,4+,5+/m1/s1
