19
gdb 16251	2.83466	2.14454	1.47872	1.551	70.43	-0.2355	0.0639	0.2994	904.9348	0.167494	-365.046519	-365.038946	-365.038002	-365.078876	29.575	
O	 0.1932494497	 1.3447878099	-0.269379908	-0.424611
C	 0.0467923671	-0.0507542501	-0.0346491047	 0.056269
C	 0.6695759176	-0.5348725554	 1.3013865474	-0.238846
C	-0.5216881778	-0.8326333578	 2.2318148785	-0.216272
C	-1.5702200763	-1.4106514652	 1.2678405076	-0.265281
C	-1.422539455	-0.5290706795	 0.0340129004	 0.327168
C	-2.5152844552	 0.3598297105	-0.4460292422	-0.293101
N	-2.1774455086	-0.8770834135	-1.1741543927	-0.375951
H	-0.2652127777	 1.8100188339	 0.4391962754	 0.275557
H	 0.5560370633	-0.5120996439	-0.8875516024	 0.088893
H	 1.2346985415	-1.4573827393	 1.1267634498	 0.104646
H	 1.372411958	 0.2068054329	 1.6896049858	 0.102382
H	-0.2665182952	-1.5077844841	 3.0525320031	 0.099497
H	-0.8985583256	 0.0948248287	 2.6819566877	 0.092404
H	-1.317623348	-2.4472116811	 1.0108896921	 0.105594
H	-2.5880681064	-1.4123601115	 1.6661271329	 0.100477
H	-3.4797121548	 0.3457959998	 0.0559590821	 0.112328
H	-2.2368136643	 1.31007769	-0.8912020495	 0.118561
H	-1.6310547722	-0.6374916844	-1.9995390331	 0.230287
30.812	192.8579	282.1338	290.5092	330.0625	385.7333	411.2757	502.9066	529.5077	592.6369	751.9349	802.283	844.1456	881.4375	916.1957	926.2901	936.4218	986.6284	997.257	1010.411	1054.0403	1072.8928	1089.6441	1137.3071	1148.2279	1185.0019	1230.2112	1270.339	1280.6391	1296.0101	1301.758	1328.8527	1341.0853	1342.1892	1396.3483	1436.1654	1481.0851	1490.2254	1505.0774	1505.407	3024.5771	3033.1106	3038.9822	3054.9591	3093.0166	3095.5858	3102.8664	3106.3352	3198.4398	3478.7809	3800.8021
OC1CCCC11CN1	O[C@H]1CCC[C@]21CN2	
InChI=1S/C6H11NO/c8-5-2-1-3-6(5)4-7-6/h5,7-8H,1-4H2	InChI=1S/C6H11NO/c8-5-2-1-3-6(5)4-7-6/h5,7-8H,1-4H2/t5-,6+/m0/s1
