15
gdb 10293	2.62058	1.85249	1.13088	6.3031	63.11	-0.253	0.0216	0.2746	1004.7084	0.118144	-399.794197	-399.785921	-399.784977	-399.827098	30.074	
N	 0.0843163206	 1.134558346	 0.1005323969	-0.526926
H	 0.3857919755	 0.1683157065	 0.1840605982	 0.249902
H	 0.9174963464	 1.7019739013	-0.0099307442	 0.254357
H	-1.2890612217	 1.3889597573	-0.954194052	 0.315868
C	-0.6841334206	 1.5495052722	 1.2873631271	-0.181798
C	-2.1311018325	 0.9919148459	 1.2157302062	-0.370671
C	-2.8248019015	 1.2260713025	 2.4737848306	 0.354712
C	-3.3385899835	 1.42974834	 3.5396492422	-0.428928
C	-2.9411553216	 1.5268694419	-0.0023799515	 0.437132
O	-2.2417270497	 1.6062699415	-1.1384280062	-0.383727
O	-4.1049110245	 1.807610119	 0.0628742925	-0.319028
H	-0.2305443555	 1.2246138606	 2.2309784757	 0.124925
H	-0.7229727624	 2.6425990337	 1.3030326163	 0.142301
H	-2.0519472552	-0.0950847848	 1.0544174949	 0.132013
H	-3.8248619238	 1.6095536264	 4.4664560233	 0.199869
68.784	140.6569	145.8205	226.0416	281.9736	324.8291	380.7763	430.6914	484.1217	510.1527	605.6254	642.43	658.5001	731.8994	797.5411	893.9005	956.5222	986.4234	1025.0081	1063.4085	1074.4714	1158.6971	1220.8046	1281.1266	1309.6773	1347.7662	1411.1188	1500.8759	1510.3287	1650.3594	1868.1155	2247.9645	2986.5274	3033.2369	3096.8088	3207.4757	3504.7264	3505.5931	3588.3974
[NH3+]CC(C#C)C([O-])=O	NC[C@@H](C#C)C(=O)O	
InChI=1S/C5H7NO2/c1-2-4(3-6)5(7)8/h1,4H,3,6H2,(H,7,8)	InChI=1S/C5H7NO2/c1-2-4(3-6)5(7)8/h1,4H,3,6H2,(H,7,8)/t4-/m1/s1
