13
gdb 5477	3.63795	1.90523	1.25159	1.9591	66.13	-0.2123	-0.0399	0.1724	886.0735	0.097888	-394.839986	-394.833076	-394.832132	-394.871036	25.606	
N	 0.0911401291	 1.3937262432	 0.136087753	-0.586912
C	 0.0033763644	 0.0264476185	 0.0425065706	 0.257192
C	-1.1347579836	-0.7870510624	 0.0145244735	 0.1741
N	-0.6211133914	-2.0827080019	-0.020100418	-0.293744
C	 0.7163058302	-1.9888913202	-0.0097441271	 0.040008
N	 1.1378894462	-0.7326504151	 0.0257536562	-0.316894
C	-2.5456496433	-0.5522060493	 0.0192035901	 0.052335
O	-3.384421732	-1.4405347173	-0.0115121842	-0.334103
H	 0.9978965644	 1.7565307205	-0.118966613	 0.263604
H	-0.6791247101	 1.9282238141	-0.2332408654	 0.258798
H	-1.2054703904	-2.9029929737	-0.0466148931	 0.284367
H	 1.3631204314	-2.8536048997	-0.0318160858	 0.145359
H	-2.843171975	 0.5185707833	 0.0546883632	 0.05589
149.1397	167.554	233.013	334.1166	357.0587	367.0626	539.039	558.8288	561.327	669.827	680.123	758.4981	835.8316	862.106	956.8911	1017.0928	1046.8596	1119.5134	1204.4992	1286.0655	1341.6286	1389.4677	1434.361	1501.7627	1532.6364	1602.5675	1655.3937	1739.4471	2883.9984	3253.1564	3580.2481	3658.5108	3690.2611
NC1=C(NC=N1)C=O	Nc1c([nH]cn1)C=O	
InChI=1S/C4H5N3O/c5-4-3(1-8)6-2-7-4/h1-2H,5H2,(H,6,7)	InChI=1S/C4H5N3O/c5-4-3(1-8)6-2-7-4/h1-2H,5H2,(H,6,7)
