17
gdb 47059	3.54443	1.42398	1.12546	3.9064	68.6	-0.2507	0.0082	0.259	1064.482	0.137368	-458.981965	-458.974659	-458.973715	-459.01404	28.116	
O	 0.0124124974	 0.1496919661	-0.7868648694	-0.318698
C	 0.0053224713	 1.1989369407	-0.205495657	 0.388834
C	-1.2857705934	 1.9465675226	 0.1164869088	-0.226181
O	-1.183594544	 2.8284081754	 1.2147876798	-0.25154
C	-0.174194731	 3.7906408058	 0.9846299946	 0.076404
C	 0.3702184475	 4.2926179015	 2.338546474	-0.25022
C	 1.4546411331	 3.1760471674	 2.2812907859	-0.251126
C	 1.1787936797	 3.0760465788	 0.7629134196	 0.129853
O	 1.1675954564	 1.7734271661	 0.179299149	-0.227995
H	-1.6089363921	 2.4749391935	-0.7964726839	 0.124247
H	-2.044292285	 1.2002691055	 0.3570128397	 0.152816
H	-0.4996664029	 4.5236546774	 0.2330480354	 0.071961
H	 0.7901242601	 5.2979057791	 2.2610065209	 0.113768
H	-0.3450741636	 4.2595814694	 3.1609105967	 0.125549
H	 2.4709754966	 3.4248477932	 2.5886199744	 0.111562
H	 1.1294882501	 2.2694912176	 2.7943302418	 0.129135
H	 1.8770321097	 3.6792906796	 0.1760401098	 0.101632
90.4897	113.7235	233.7844	330.5815	382.5956	406.7701	469.637	513.4245	594.7509	673.9974	741.3088	784.169	828.1912	875.3546	911.1437	935.0315	979.1131	1011.8096	1038.8389	1089.6794	1119.644	1143.4366	1164.6149	1200.8978	1226.2907	1247.2213	1261.1525	1271.7408	1297.7655	1311.8556	1356.937	1387.5073	1397.2236	1469.0229	1470.4442	1487.1157	1853.3315	2971.8649	3002.0339	3071.1615	3081.0245	3086.2935	3128.2951	3136.1678	3150.0214
O=C1COC2CCC2O1	O=C1CO[C@H]2CC[C@H]2O1	
InChI=1S/C6H8O3/c7-6-3-8-4-1-2-5(4)9-6/h4-5H,1-3H2	InChI=1S/C6H8O3/c7-6-3-8-4-1-2-5(4)9-6/h4-5H,1-3H2/t4-,5+/m0/s1
