20
gdb 108046	3.70088	1.37322	1.2487	0.7953	77.94	-0.2102	0.0612	0.2714	1087.9796	0.17165	-403.08228	-403.074519	-403.073575	-403.114492	30.802	
C	-0.1404500756	 1.5644323082	 0.1135003437	-0.383485
C	-0.0222663324	 0.0401090601	-0.0182505954	-0.289034
C	 0.7917469308	-0.5643278592	 1.0956933116	 0.45416
C	 2.3214347062	-0.3714443351	 1.2090019169	-0.218147
N	 2.5001460793	-1.7448179348	 1.8073019648	-0.163244
C	 2.0579844669	-1.720612077	 3.249948591	-0.186401
C	 0.5762961172	-1.6961306284	 2.8400947374	 0.096839
O	 0.1745899178	-0.3771604168	 2.4055027868	-0.3455
C	 1.0510172825	-2.060579516	 1.4159131117	-0.129481
H	 0.8412293913	 2.0465047175	 0.0550792978	 0.117881
H	-0.7640775362	 1.9789485672	-0.6835542829	 0.113668
H	-0.5893164814	 1.8308987106	 1.0741948068	 0.140459
H	-1.0207024977	-0.4128284665	-0.0083216459	 0.104549
H	 0.4416870461	-0.2261223609	-0.9761782258	 0.099612
H	 2.8150139656	-0.3378761171	 0.2313188431	 0.105115
H	 2.6766756006	 0.4581656611	 1.8268492577	 0.107497
H	 2.344462376	-2.6635594289	 3.7283890222	 0.10836
H	 2.4282293382	-0.8796656034	 3.8434706497	 0.108844
H	-0.1902375457	-2.186995327	 3.4441259567	 0.079416
H	 0.8174891004	-2.9367126437	 0.8137628921	 0.078893
82.9118	147.9613	200.3801	291.7075	304.1668	389.6899	405.1097	467.8842	617.8332	688.175	766.3838	778.2545	810.7576	838.1631	876.5722	888.8916	907.3366	948.505	975.2597	987.1665	997.6059	1002.3891	1036.112	1058.7363	1130.1955	1156.4797	1178.3227	1186.7034	1195.4016	1208.7064	1239.5635	1246.3349	1288.0553	1305.3898	1327.9115	1332.3732	1387.5627	1406.1883	1472.7136	1477.3176	1487.6575	1498.1902	1508.4777	3026.8206	3034.1649	3038.3048	3040.1633	3065.0767	3080.5734	3096.6615	3100.9745	3107.2669	3122.9846	3131.3152
CCC12CN3CC(O1)C23	CC[C@@]12CN3C[C@@H](O1)[C@@H]23	
InChI=1S/C7H11NO/c1-2-7-4-8-3-5(9-7)6(7)8/h5-6H,2-4H2,1H3	InChI=1S/C7H11NO/c1-2-7-4-8-3-5(9-7)6(7)8/h5-6H,2-4H2,1H3/t5-,6+,7+/m1/s1
