22
gdb 59492	2.52288	1.11431	0.84714	1.1858	88.98	-0.2265	0.0499	0.2764	1429.8163	0.19127	-367.153551	-367.143228	-367.142284	-367.188808	38.664	
C	-0.9581650165	-1.8005345999	-3.6290637895	-0.378106
C	-0.5060583409	-1.6290475584	-2.1763661776	 0.069909
C	 0.341681624	-0.3679875569	-1.9956569214	-0.394703
N	-1.700684155	-1.5303790448	-1.3341257258	-0.067166
C	-2.4001949427	-2.7549902967	-0.9708290398	-0.268598
C	-1.7058096646	-1.9419048351	 0.0678029911	 0.015141
C	-0.5064377352	-2.5311943632	 0.8082374928	-0.384668
C	 0.3176266786	-1.5295750522	 1.4785152457	 0.313379
C	 0.9766282033	-0.7004250985	 2.0472331152	-0.447931
H	-0.0925773303	-1.8712525234	-4.294853517	 0.109683
H	-1.5575155313	-2.7078910278	-3.7533971261	 0.110798
H	-1.5679013951	-0.9462281925	-3.9393424758	 0.123376
H	 0.107350699	-2.5088651962	-1.9110686735	 0.053555
H	-0.2404096413	 0.5170506975	-2.2714783344	 0.120316
H	 0.6661621487	-0.2535513488	-0.9582330679	 0.133971
H	 1.2316439372	-0.410211674	-2.6316030721	 0.106192
H	-3.4833659901	-2.7466408328	-1.0646078196	 0.112319
H	-1.9332950917	-3.7057277305	-1.2342103873	 0.101829
H	-2.3050667601	-1.2876078404	 0.6985462397	 0.100304
H	-0.890522857	-3.2336618641	 1.5601346317	 0.137918
H	 0.1111055789	-3.1301603155	 0.1305580942	 0.134441
H	 1.5664812721	 0.029030954	 2.5446880775	 0.198041
54.2728	86.6267	140.9766	177.7882	220.8489	236.1167	255.9943	335.3101	343.8792	359.444	368.0343	477.2724	507.5138	550.9233	621.1705	640.9323	710.86	801.4352	871.8954	912.4286	935.2697	952.4964	965.3374	978.94	1028.8223	1067.6226	1101.5823	1121.81	1145.2247	1159.6405	1186.8886	1197.5513	1237.905	1307.0556	1335.0238	1357.6872	1369.6618	1398.2783	1413.0849	1419.2866	1463.1614	1483.6331	1489.0238	1497.3819	1511.9919	1513.2953	2236.8693	2927.4782	3022.1908	3035.0368	3040.4886	3067.7291	3073.7446	3106.672	3107.9488	3115.0202	3119.7592	3124.7339	3163.063	3505.8743
CC(C)N1CC1CC#C	CC(C)N1C[C@H]1CC#C	
InChI=1S/C8H13N/c1-4-5-8-6-9(8)7(2)3/h1,7-8H,5-6H2,2-3H3	InChI=1S/C8H13N/c1-4-5-8-6-9(8)7(2)3/h1,7-8H,5-6H2,2-3H3/t8-,9?/m1/s1
