23
gdb 123176	7.51645	0.41884	0.41022	2.7643	83.8	-0.2625	0.0801	0.3426	2621.5551	0.203842	-425.402266	-425.391369	-425.390425	-425.44011	37.848	
O	-0.1139622349	 1.4484063802	 0.2563172253	-0.421355
C	 0.0050015378	 0.0454968164	 0.0712193545	-0.073521
C	-1.3947012114	-0.5538286937	 0.0958503308	-0.16604
C	-1.4008029416	-2.0712567177	-0.1096955686	-0.187654
C	-2.8080724217	-2.6758357849	-0.0749820292	-0.171735
C	-2.8200358956	-4.1948233307	-0.292535143	-0.223775
C	-4.2121428023	-4.7744840857	-0.240492293	 0.100234
C	-4.4996229813	-6.0961042391	 0.3289731206	-0.181444
O	-4.8013355845	-4.905195647	 1.0582063286	-0.236777
H	 0.769277641	 1.8282407857	 0.2527751385	 0.28438
H	 0.4931214135	-0.1894249746	-0.8894560759	 0.081284
H	 0.6186603166	-0.410569946	 0.865831931	 0.082561
H	-1.8641062838	-0.3006405017	 1.0543458889	 0.106529
H	-1.9940422383	-0.0650479241	-0.6822648224	 0.103952
H	-0.9249026722	-2.3140782727	-1.0703903893	 0.091232
H	-0.7832310867	-2.5497903882	 0.6632887765	 0.094636
H	-3.2821514582	-2.4540860095	 0.8890129979	 0.115409
H	-3.4302202142	-2.1937191487	-0.8415904165	 0.093859
H	-2.3722784899	-4.4357133461	-1.2666909804	 0.097088
H	-2.2050404129	-4.6857102461	 0.471588814	 0.100699
H	-4.9043808609	-4.3917805668	-0.9942176063	 0.088102
H	-5.3614576313	-6.6646415132	-0.0185177824	 0.112107
H	-3.6821906272	-6.694816346	 0.7297758904	 0.11023
41.8027	53.5806	80.0651	96.7229	129.236	151.3294	193.3917	261.8979	262.9973	340.5327	414.6209	483.6696	505.4931	735.8077	761.044	795.5261	844.6428	873.4345	944.724	962.4608	998.7883	1023.7062	1047.0138	1063.6719	1070.1161	1083.417	1111.3331	1158.0769	1164.7757	1185.6533	1206.9275	1221.7098	1267.6148	1273.2878	1295.5242	1310.3783	1319.927	1323.6939	1332.9819	1373.7315	1400.344	1449.0538	1461.9359	1470.9804	1485.3957	1493.8192	1508.642	1528.7006	1531.4603	2954.7051	2979.4333	3001.1739	3011.1737	3016.914	3028.2169	3031.5988	3050.5076	3067.2615	3077.1736	3079.1557	3087.7187	3164.4365	3830.9786
OCCCCCC1CO1	OCCCCC[C@H]1CO1	
InChI=1S/C7H14O2/c8-5-3-1-2-4-7-6-9-7/h7-8H,1-6H2	InChI=1S/C7H14O2/c8-5-3-1-2-4-7-6-9-7/h7-8H,1-6H2/t7-/m0/s1
