17
gdb 71195	2.74889	1.52504	1.24829	3.3951	71.76	-0.2356	-0.0275	0.2081	1037.5493	0.134177	-421.769699	-421.761793	-421.760848	-421.802543	30.015	
C	-0.0534865679	 1.4950045699	-0.0211503316	-0.508625
C	 0.11253202	 0.0118002271	 0.0617464956	 0.390535
O	-1.1447872735	-0.7363048855	 0.104431071	-0.321181
C	-0.4273208453	-1.7487469089	 0.8056873249	 0.097357
C	 0.9476556613	-1.9045578137	 0.1337974913	-0.147778
C	 0.6950526799	-0.8750266306	 1.2323619272	-0.203062
C	 0.9841054748	-0.8210859511	-0.9511918233	-0.117171
C	 0.4072493834	-1.1026753946	-2.314892454	 0.140304
O	 0.9935883478	-0.8923774103	-3.3490271414	-0.256239
H	 0.9218573547	 1.990087211	-0.0310592379	 0.132195
H	-0.5857357691	 1.7643322618	-0.9396353622	 0.142843
H	-0.6291970213	 1.8653657297	 0.8316570363	 0.137505
H	-0.9722901793	-2.5420006375	 1.2987855151	 0.116911
H	 1.534495305	-2.8120412165	 0.1880060748	 0.103274
H	 1.1812480637	-0.6642665527	 2.1742288871	 0.107944
H	 1.9829218555	-0.3887605594	-1.050521902	 0.09352
H	-0.6203108597	-1.5222944687	-2.305872041	 0.091668
51.4822	156.8182	195.8825	216.7119	302.9863	308.9378	427.8806	530.3644	583.3578	623.0837	770.0368	777.688	799.3656	805.9692	830.9539	872.2068	930.884	959.0604	1000.0968	1029.8216	1031.7815	1042.4784	1085.2174	1105.6829	1129.5824	1136.0907	1178.7577	1189.8393	1269.5008	1300.8855	1338.1134	1367.7317	1416.5926	1424.277	1476.4405	1486.2786	1817.036	2920.0334	3040.5484	3091.9039	3112.1836	3122.4769	3204.0265	3210.0535	3225.7608
CC12OC3C(C13)C2C=O	C[C@]12O[C@H]3[C@H]([C@@H]13)[C@H]2C=O	
InChI=1S/C7H8O2/c1-7-3(2-8)4-5(7)6(4)9-7/h2-6H,1H3	InChI=1S/C7H8O2/c1-7-3(2-8)4-5(7)6(4)9-7/h2-6H,1H3/t3-,4+,5-,6+,7-/m1/s1
