14
gdb 129837	4.24135	0.95967	0.82141	3.9386	69.22	-0.2311	-0.0054	0.2257	1316.8558	0.101631	-432.879702	-432.871624	-432.87068	-432.91317	29.338	
N	-0.1365999334	 1.316660639	-0.2246603494	-0.593496
C	-0.094167865	-0.0419892164	-0.0635527739	 0.503617
C	-0.9161785503	-1.06327586	-0.45901906	-0.43486
C	-0.3011063502	-2.2021100943	 0.1181362121	 0.417932
C	-0.7504437069	-3.6386777804	 0.0721874876	-0.444286
C	-1.0821038447	-4.0879736579	-1.2805654182	 0.265614
N	-1.3588517457	-4.4355943797	-2.3467083522	-0.307584
N	 0.7846989031	-1.9140935944	 0.7946878725	-0.218866
O	 0.9155831901	-0.5157419151	 0.6789906047	-0.211912
H	 0.7481321612	 1.785245692	-0.0925183922	 0.272619
H	-0.6444593565	 1.6398648661	-1.0334555075	 0.27201
H	-1.8020192826	-1.0138638237	-1.0682008311	 0.125989
H	 0.0423317724	-4.2695817266	 0.4849272351	 0.181627
H	-1.6362194917	-3.7764789187	 0.7043868426	 0.171596
44.7309	96.5832	203.6577	273.8022	294.6514	370.8173	382.8633	430.3737	472.5498	553.7026	629.0495	698.7275	716.9553	749.8532	798.2348	915.0473	942.1399	953.2382	1018.8253	1034.5543	1082.5747	1188.0462	1219.6686	1324.651	1370.8559	1451.8558	1486.4626	1548.8597	1624.3364	1674.2947	2368.2868	3042.5675	3099.6637	3283.6824	3578.8358	3685.8878
NC1=CC(CC#N)=NO1	Nc1cc(CC#N)no1	
InChI=1S/C5H5N3O/c6-2-1-4-3-5(7)9-8-4/h3H,1,7H2	InChI=1S/C5H5N3O/c6-2-1-4-3-5(7)9-8-4/h3H,1,7H2
