18
gdb 52134	4.43574	0.81408	0.744	3.7764	76.95	-0.2356	0.0042	0.2398	1508.4516	0.147968	-439.109118	-439.100159	-439.099215	-439.144786	31.185	
O	 0.3257887939	 0.1775732058	-0.9755631644	-0.318823
C	 0.1701518175	 1.2261223366	-0.3873131861	 0.158107
N	 1.087900166	 1.8133518724	 0.4285694488	-0.272133
C	 2.4035140911	 1.2370727821	 0.6901209082	-0.279751
C	 3.5190006607	 2.1601211311	 0.3062374261	 0.298165
C	 4.4728251555	 2.6650837126	 1.0843137178	-0.215641
C	 5.4043999663	 3.5178302688	 0.2728055627	-0.099776
O	 4.8581441505	 3.5175656435	-1.043541037	-0.263999
C	 3.7376004844	 2.6417838252	-1.107771428	-0.144195
H	-0.758147031	 1.8268145981	-0.4564908578	 0.078838
H	 0.854172598	 2.6940612487	 0.8594033206	 0.250544
H	 2.4925055714	 0.9617294312	 1.7474003042	 0.116714
H	 2.4344739236	 0.3141640776	 0.1015312343	 0.158524
H	 4.5971037294	 2.4916423183	 2.1465248526	 0.102554
H	 5.4682032071	 4.5522253064	 0.6448129132	 0.107022
H	 6.4317384453	 3.1171540984	 0.2611390837	 0.106342
H	 3.9405065892	 1.8029958034	-1.7943337915	 0.11071
H	 2.8689076108	 3.1823268097	-1.5113805875	 0.106798
27.967	54.3193	104.871	139.7167	233.1166	250.8843	298.8569	373.6723	496.998	541.4243	650.705	761.8286	787.6291	830.0431	892.977	925.546	951.2459	991.9054	1013.6476	1033.5845	1043.881	1070.5686	1112.0422	1173.9638	1198.6342	1213.7964	1222.3267	1246.0617	1315.7769	1371.2675	1375.983	1398.0687	1428.478	1483.897	1516.334	1523.0537	1528.9785	1729.4701	1805.8683	2940.2082	2963.2841	2969.9549	2989.6327	3003.8512	3034.4081	3089.7617	3207.8674	3632.2293
O=CNCC1=CCOC1	O=CNCC1=CCOC1	
InChI=1S/C6H9NO2/c8-5-7-3-6-1-2-9-4-6/h1,5H,2-4H2,(H,7,8)	InChI=1S/C6H9NO2/c8-5-7-3-6-1-2-9-4-6/h1,5H,2-4H2,(H,7,8)
