17
gdb 9294	5.46331	0.86529	0.78165	3.4243	62.7	-0.2543	0.0271	0.2814	1392.5381	0.141305	-438.15171	-438.14262	-438.141676	-438.186584	31.791	
O	 0.0588325842	 1.3549117624	 0.1986485873	-0.42022
C	 0.100385555	-0.0300155202	-0.0621110627	-0.063684
C	-1.2967625223	-0.6437407338	 0.0112492444	 0.077124
O	-2.180608165	 0.0720930727	-0.8674897716	-0.444269
C	-1.3225943409	-2.1390632726	-0.2935546731	-0.170841
N	-2.680284148	-2.644865937	-0.237656697	-0.277098
C	-3.0036899716	-3.8332554732	 0.3355647136	 0.155855
O	-2.2092190558	-4.6158484312	 0.8128846327	-0.323642
H	-0.7241430807	 1.686550082	-0.2590720335	 0.286213
H	 0.5363490911	-0.2429670327	-1.0564867572	 0.076196
H	 0.757145267	-0.488185801	 0.6851253338	 0.119462
H	-1.7101731271	-0.466193091	 1.0098265297	 0.112899
H	-1.8643676124	-0.0615912631	-1.7705514964	 0.285678
H	-0.8779173506	-2.3208478183	-1.2850373833	 0.10267
H	-0.730725208	-2.7027568395	 0.43236675	 0.15249
H	-3.410227509	-2.0384542431	-0.5787344311	 0.253935
H	-4.096684276	-4.0133410504	 0.3179199143	 0.077233
30.4418	89.0827	129.8987	156.1508	233.1919	263.79	327.362	376.6136	400.73	462.5937	497.8559	581.7281	585.7265	774.8731	865.0694	921.7142	994.5831	1031.9268	1060.7639	1091.5068	1099.7409	1124.744	1203.4912	1211.7783	1233.8526	1282.82	1317.3594	1381.7434	1398.1682	1423.6031	1427.5052	1443.4738	1498.8129	1510.0423	1520.5409	1804.3726	2928.4174	2940.4559	2980.3654	3066.0087	3076.0275	3106.8807	3628.7424	3766.539	3774.8027
OCC(O)CNC=O	OC[C@@H](O)CNC=O	
InChI=1S/C4H9NO3/c6-2-4(8)1-5-3-7/h3-4,6,8H,1-2H2,(H,5,7)	InChI=1S/C4H9NO3/c6-2-4(8)1-5-3-7/h3-4,6,8H,1-2H2,(H,5,7)/t4-/m0/s1
