17
gdb 23397	2.89881	1.36766	1.30658	1.5081	72.12	-0.2389	0.0111	0.25	1043.498	0.137882	-455.059656	-455.052137	-455.051193	-455.091639	29.25	
O	-0.1487607618	 1.3336965421	-0.0133646109	-0.399658
N	 0.015380464	-0.0691394695	-0.0428239253	-0.294506
C	-1.1027474697	-0.6525750375	-0.1072807658	 0.490451
C	-2.5781573594	-0.3219303468	 0.0336898897	-0.139644
C	-3.2801462846	-0.5482037421	-1.3081108523	-0.04801
O	-2.5994359207	-1.5377852882	-2.0709748113	-0.267539
C	-2.0392390605	-2.6079956843	-1.3202211366	-0.048307
C	-1.5019947574	-2.1054484769	 0.0244661864	-0.133651
N	-2.7236248719	-1.6300614559	 0.7944911062	-0.32997
H	 0.7624855067	 1.6401731215	 0.0435600277	 0.307498
H	-2.8957624522	 0.5874046318	 0.544260614	 0.099637
H	-4.3211558658	-0.8416120059	-1.1082536951	 0.104177
H	-3.2713736428	 0.3602237363	-1.9177986472	 0.118657
H	-2.7833091209	-3.3937501439	-1.1235285815	 0.104083
H	-1.2350050794	-3.0194424387	-1.9378497197	 0.116155
H	-0.8499541566	-2.8232912437	 0.5243435444	 0.092582
H	-2.4308642771	-1.4581211281	 1.7558347171	 0.228044
104.1571	178.1954	211.4498	287.346	328.8047	391.8985	431.9955	478.0985	560.27	592.1656	723.8701	759.137	837.737	846.4218	861.5442	925.4225	953.8098	960.3413	1007.7981	1024.8101	1071.5442	1116.5097	1131.1728	1157.1467	1175.9864	1224.4139	1228.1422	1268.808	1306.8379	1333.3882	1359.0898	1382.6099	1404.3872	1419.522	1488.0746	1498.6536	1801.5085	2998.069	3004.1352	3083.663	3087.3043	3110.3669	3121.6347	3464.3879	3820.5644
ON=C1C2COCC1N2	ON=C1[C@H]2COC[C@@H]1N2	
InChI=1S/C5H8N2O2/c8-7-5-3-1-9-2-4(5)6-3/h3-4,6,8H,1-2H2	InChI=1S/C5H8N2O2/c8-7-5-3-1-9-2-4(5)6-3/h3-4,6,8H,1-2H2/t3-,4+
