21
gdb 71896	2.29908	1.84084	1.59122	1.7568	81.85	-0.2319	0.0829	0.3148	1005.5509	0.182232	-387.061194	-387.052952	-387.052008	-387.093237	33.116	
C	 0.108137252	 1.530571582	 0.0984032791	-0.485225
C	-0.0440594569	 0.0400818502	-0.0368551502	 0.402637
C	 0.4557255289	-0.7018612672	-1.3032244311	-0.269778
C	-0.6635248541	-1.7603374705	-1.1181521754	-0.108378
C	-0.3671389301	-2.7407738872	 0.0466417354	-0.23969
C	-0.6954391568	-1.6152885627	 1.0521992737	 0.061217
O	 0.3850052539	-0.6639845451	 1.160279486	-0.347696
C	-1.3741687522	-0.7914063471	-0.0839190646	 0.277586
C	-2.7805027593	-0.2726041034	-0.1337948555	-0.540117
H	 1.1662778256	 1.790256137	 0.218566071	 0.128869
H	-0.2696160171	 2.046505868	-0.7899539923	 0.113896
H	-0.4306222313	 1.8997920044	 0.9762896869	 0.121898
H	 0.2800202215	-0.0983088194	-2.2003528128	 0.094175
H	 1.4957310774	-1.0409107896	-1.2935990391	 0.096618
H	-1.1436578136	-2.1562051963	-2.013610525	 0.064035
H	-1.124829223	-3.5305316256	 0.0941148555	 0.096493
H	 0.6284301635	-3.1889521173	 0.1111363771	 0.098209
H	-1.123153127	-1.862025009	 2.0273704385	 0.069905
H	-2.9933213335	 0.3845928258	 0.7172548274	 0.124504
H	-2.9632325273	 0.2998948491	-1.0507459605	 0.119796
H	-3.5078856105	-1.0924754561	-0.1098019741	 0.121043
178.3496	193.8486	198.5536	208.5694	246.205	306.7897	385.0633	426.6323	438.9217	559.3141	616.2251	685.3591	746.3355	824.589	839.9866	851.2317	879.917	901.4883	911.7877	946.2229	972.5942	1002.6858	1027.1098	1099.1285	1112.0901	1142.5116	1163.331	1164.1796	1171.5355	1182.6321	1212.1863	1226.2225	1269.5969	1305.0899	1314.5278	1336.8804	1359.7159	1406.8021	1414.082	1462.7145	1474.8379	1478.5371	1486.0605	1489.8907	1493.552	3018.646	3030.5413	3039.5668	3040.3638	3073.5523	3081.7586	3084.736	3095.4111	3097.7084	3099.2602	3103.4545	3111.8397
CC12CC3CC(O1)C23C	C[C@@]12C[C@H]3C[C@@H](O1)[C@@]23C	
InChI=1S/C8H12O/c1-7-4-5-3-6(9-7)8(5,7)2/h5-6H,3-4H2,1-2H3	InChI=1S/C8H12O/c1-7-4-5-3-6(9-7)8(5,7)2/h5-6H,3-4H2,1-2H3/t5-,6-,7+,8+/m1/s1
