19
gdb 93792	2.8683	1.32269	0.97837	4.0715	71.61	-0.2699	0.0069	0.2767	1218.3853	0.15965	-460.214959	-460.206215	-460.205271	-460.248548	32.88	
C	-0.5428939454	 1.3653879824	 0.1383195602	-0.403776
C	-0.0561579814	-0.0610597458	-0.0484116484	 0.129559
C	 0.8226815427	-0.2554831422	-1.2885203321	-0.224861
C	 1.4907655216	-1.6521784821	-1.3207526423	-0.236499
C	 1.1707527509	-2.4622643283	-0.0482109406	 0.004307
O	 1.9882860771	-3.5914060706	 0.0692123025	-0.444868
C	 1.3313566756	-1.5730677033	 1.1786960349	 0.399352
O	 2.003430363	-1.9025671473	 2.1249214043	-0.355614
O	 0.6979494962	-0.3917483679	 1.1488219353	-0.22923
H	 0.3048847651	 2.0526989667	 0.2130506416	 0.13413
H	-1.1615332061	 1.665248825	-0.7124728356	 0.124191
H	-1.1392669264	 1.4525409678	 1.0498943061	 0.135679
H	-0.9210125046	-0.7361747673	-0.0923606379	 0.097374
H	 0.2032082204	-0.0903084223	-2.1753612058	 0.113656
H	 1.5855814435	 0.5301167293	-1.2866475976	 0.117913
H	 1.1752291078	-2.2321461554	-2.1914840571	 0.118254
H	 2.5786612911	-1.561334735	-1.3803942214	 0.125035
H	 0.1109004489	-2.7687903401	-0.0837857971	 0.099745
H	 2.3803386002	-3.5313665135	 0.955221571	 0.295653
66.4288	116.0557	158.6746	227.7574	276.2416	317.7507	360.8745	413.0391	438.9794	450.4838	496.899	560.4065	670.4212	697.7492	758.6714	860.824	878.3161	957.1859	986.457	1018.8699	1055.5706	1093.4077	1130.2105	1149.9994	1159.4337	1205.9005	1247.8758	1277.2797	1288.6628	1314.3047	1331.4616	1379.1693	1388.6115	1396.6954	1415.3421	1458.399	1479.256	1487.6029	1499.2851	1508.9909	1826.6106	2951.9297	3018.2216	3045.2613	3049.3125	3067.1259	3086.182	3112.8646	3123.2479	3128.7527	3689.1492
CC1CCC(O)C(=O)O1	C[C@H]1CC[C@@H](O)C(=O)O1	
InChI=1S/C6H10O3/c1-4-2-3-5(7)6(8)9-4/h4-5,7H,2-3H2,1H3	InChI=1S/C6H10O3/c1-4-2-3-5(7)6(8)9-4/h4-5,7H,2-3H2,1H3/t4-,5+/m0/s1
