18
gdb 44860	3.27519	1.66676	1.49321	2.2057	73.68	-0.2096	-0.012	0.1976	929.8933	0.151278	-401.937845	-401.931435	-401.930491	-401.96839	27.286	
O	 0.0129900383	 0.0328258677	 0.0887489771	-0.32687
C	 0.0111243155	 1.2333446016	 0.0455728279	 0.423804
C	-1.2265473741	 2.1711450315	 0.0366444445	-0.28694
N	-0.6552773586	 3.5464273876	 0.0283593654	-0.105593
C	 0.5311376801	 3.3207683498	-0.8482717243	-0.215217
C	 1.205977805	 2.2015141278	-0.0240315485	-0.151258
C	 1.2055836527	 2.800156488	 1.3926465936	-0.049843
C	 1.2965537533	 4.3055323694	 1.5454328859	-0.339239
C	-0.0487086063	 3.6702336948	 1.3693557935	 0.019159
H	-1.8136441411	 1.9995651943	-0.8723688343	 0.129226
H	-1.8780674382	 2.0027204946	 0.897075529	 0.129984
H	 0.2030118091	 2.9889149345	-1.8363471072	 0.114972
H	 1.1229794628	 4.2251953486	-0.9755064399	 0.117766
H	 2.1340425589	 1.7639481207	-0.3862356045	 0.087467
H	 1.4595439232	 2.154784153	 2.2243791583	 0.106531
H	 1.5061270105	 4.6474704592	 2.5537918542	 0.121916
H	 1.7453908581	 4.9305796624	 0.7834729197	 0.123303
H	-0.7677644492	 3.6968756748	 2.1793877597	 0.10083
131.7245	283.4107	370.1278	449.1793	492.1583	506.9083	554.7866	592.5905	697.1745	757.0673	763.3895	798.5825	826.1498	876.7244	908.0657	928.2613	931.6553	987.1984	994.7773	1022.8225	1035.5692	1060.8784	1082.7048	1102.2323	1116.0843	1142.6366	1180.2062	1195.3326	1213.2049	1237.9273	1261.9071	1274.2454	1300.6544	1336.6151	1371.6774	1462.8291	1482.4982	1537.6084	1861.4654	3051.9643	3083.7113	3114.0661	3137.2875	3143.1967	3149.9283	3181.2354	3191.1883	3221.5513
O=C1CN2CC1C1CC21	O=C1CN2C[C@H]1[C@H]1C[C@@H]21	
InChI=1S/C7H9NO/c9-7-3-8-2-5(7)4-1-6(4)8/h4-6H,1-3H2	InChI=1S/C7H9NO/c9-7-3-8-2-5(7)4-1-6(4)8/h4-6H,1-3H2/t4-,5+,6-/m1/s1
