21
gdb 77560	2.33528	1.44188	1.31588	1.8844	78.43	-0.2461	0.0636	0.3097	1128.7133	0.180363	-424.207851	-424.198241	-424.197297	-424.24141	37.35	
C	-0.0704289608	 1.5600029524	 0.0708537258	-0.507275
C	 0.0177674043	 0.0630237947	-0.0116690099	 0.355942
C	-0.8648992767	-0.8640460716	 0.7708770641	-0.352638
C	 0.6221177631	-0.9531055664	 0.9808236323	-0.124973
C	 1.2785349462	-1.72938939	-0.1541063652	 0.369513
C	 2.7972363723	-1.7546257279	-0.1158142618	-0.476947
O	 0.7391189398	-3.0449872512	-0.2963712872	-0.474112
C	 0.6533758835	-0.7076738673	-1.1826508097	 0.00142
O	-0.1714771264	-1.2695366965	-2.1687372051	-0.447987
H	 0.8833061456	 2.0328581049	-0.1915509244	 0.11301
H	-0.8315696284	 1.9467422291	-0.617024573	 0.128771
H	-0.3402245455	 1.8890238655	 1.0800254825	 0.11559
H	-1.4107908881	-0.3946641911	 1.5836594134	 0.108572
H	-1.4030965014	-1.6748787579	 0.2907196412	 0.11423
H	 1.0820028299	-0.7731380301	 1.9463233234	 0.078318
H	 3.1528773277	-2.3795662669	 0.710166538	 0.125449
H	 3.205780809	-2.1512968797	-1.0539073116	 0.11358
H	 3.1986964569	-0.7461487254	 0.0190946517	 0.127898
H	 1.3123013166	-3.538905403	-0.8932547048	 0.282322
H	 1.4200016432	-0.1074017835	-1.6862951926	 0.067844
H	-0.422120941	-2.1392657181	-1.8264034971	 0.281471
86.9482	195.9362	201.2347	219.619	236.5979	257.2039	265.0496	299.1272	343.8246	363.0613	500.2939	508.5141	523.6446	580.1553	614.4583	719.9403	786.8593	816.9162	876.4725	932.9883	949.8236	966.7056	994.3513	1016.9165	1053.7283	1071.9967	1102.7997	1107.356	1125.9949	1170.9708	1189.9402	1230.0394	1248.3114	1277.6866	1315.8951	1384.5387	1404.6631	1406.5111	1425.2013	1436.2565	1485.8625	1487.8995	1493.5984	1498.491	1504.232	3020.0122	3021.0234	3039.8586	3079.7996	3089.0953	3092.2299	3112.4265	3125.1239	3170.5467	3205.0981	3733.6599	3802.8202
CC12CC1C(C)(O)C2O	C[C@]12C[C@H]1[C@@](C)(O)[C@H]2O	
InChI=1S/C7H12O2/c1-6-3-4(6)7(2,9)5(6)8/h4-5,8-9H,3H2,1-2H3	InChI=1S/C7H12O2/c1-6-3-4(6)7(2,9)5(6)8/h4-5,8-9H,3H2,1-2H3/t4-,5+,6+,7-/m1/s1
