16
gdb 54343	1.94587	1.75058	1.14175	1.7712	69.46	-0.2747	-0.0473	0.2274	1091.1975	0.122274	-437.888996	-437.879927	-437.878983	-437.923877	31.46	
C	-0.0966311955	 1.5464255221	-0.0287192805	-0.495407
C	 0.0482636142	 0.0459921758	 0.0629797742	 0.339809
O	 0.2138309659	-0.5417223654	 1.101458233	-0.28029
C	 0.0395129856	-0.7408430836	-1.2707986732	-0.01087
C	 1.4994057062	-0.9805387921	-1.8057974019	-0.09544
O	 1.4226549942	-2.377393847	-1.5233345975	-0.255476
C	 0.0487485284	-2.2853873777	-1.1033876886	-0.103777
C	-0.8944760128	-0.1992368697	-2.2400158355	 0.233532
N	-1.6424106243	 0.2369040495	-3.0068451221	-0.338512
H	 0.5856956927	 1.9600533122	-0.7793483078	 0.149672
H	-1.1104489573	 1.8002671011	-0.3566360585	 0.176187
H	 0.0987443247	 1.9925603648	 0.9463203473	 0.153703
H	 1.6185957846	-0.7645718557	-2.8733249128	 0.130431
H	 2.2869355207	-0.4766768557	-1.2333847979	 0.125721
H	-0.0909371134	-2.6041482218	-0.0678619045	 0.14577
H	-0.6293769238	-2.8185627369	-1.7768968635	 0.124946
39.2483	80.0438	140.0182	153.1748	189.1341	215.8582	296.5406	375.3785	489.7384	530.845	559.9397	587.5494	618.9419	804.6356	861.7302	941.2295	961.521	986.8125	1005.9204	1055.7017	1077.1218	1115.3855	1160.7916	1172.2999	1217.7125	1253.2761	1314.2506	1371.5151	1388.0913	1457.2205	1471.4562	1500.8291	1527.1071	1824.2588	2349.2517	3022.7271	3043.272	3049.9774	3076.6814	3104.5392	3118.4742	3161.7545
CC(=O)C1(COC1)C#N	CC(=O)C1(COC1)C#N	
InChI=1S/C6H7NO2/c1-5(8)6(2-7)3-9-4-6/h3-4H2,1H3	InChI=1S/C6H7NO2/c1-5(8)6(2-7)3-9-4-6/h3-4H2,1H3
