19
gdb 70700	2.27817	1.85284	1.22112	3.2137	75.51	-0.2149	-0.0164	0.1985	1058.1928	0.16134	-419.203052	-419.194854	-419.19391	-419.235584	31.852	
C	-0.0100049847	 1.5463810818	 0.0245689337	-0.477698
C	 0.1069133291	 0.0427634801	-0.0240144104	 0.198206
N	-0.7882282236	-0.7997197595	 0.8211994306	-0.360831
C	 0.6376293449	-0.734113332	 1.1476938621	-0.085041
C	 1.426266802	-2.0283269792	 0.9318998624	-0.172438
N	 1.7504513992	-2.344012397	-0.4606955781	-0.294652
C	 0.6452532311	-2.0532912412	-1.3846428091	-0.273997
C	 0.3254427078	-0.5619788853	-1.3870008164	 0.36727
O	 0.3226006389	 0.1173560392	-2.3909058539	-0.323145
H	 0.8810547781	 2.0202301001	-0.3969371094	 0.137306
H	-0.8654627482	 1.8865357194	-0.5662466992	 0.140452
H	-0.1317475689	 1.8931503507	 1.0557035427	 0.106772
H	-1.3258278893	-0.1910016215	 1.4345995791	 0.235381
H	 0.920348919	-0.1410331805	 2.0165501217	 0.090741
H	 2.3647369029	-1.9842463889	 1.4931114946	 0.106624
H	 0.8354335284	-2.8541100296	 1.3483391389	 0.121392
H	 2.5616946762	-1.8040379141	-0.746854108	 0.222273
H	 0.9152262937	-2.3527896245	-2.4000196999	 0.121337
H	-0.2340895267	-2.6234048879	-1.0657775214	 0.140047
87.3511	178.5405	211.4071	222.1414	293.4795	322.7663	387.4696	449.1361	479.431	501.7096	594.491	650.8697	756.9085	786.0863	801.2379	853.2534	876.4672	942.2085	949.4644	999.0509	1032.5635	1059.1056	1093.1448	1124.0778	1136.5585	1166.6589	1191.9364	1227.6406	1298.8706	1329.5149	1341.8518	1377.2259	1381.5558	1415.2874	1434.2557	1460.9624	1477.0682	1478.193	1496.4613	1497.9743	1799.501	3026.1764	3039.3584	3051.5589	3082.6647	3111.5635	3114.2653	3114.8998	3116.4231	3491.956	3507.3583
CC12NC1CNCC2=O	C[C@]12N[C@H]1CNCC2=O	
InChI=1S/C6H10N2O/c1-6-4(8-6)2-7-3-5(6)9/h4,7-8H,2-3H2,1H3	InChI=1S/C6H10N2O/c1-6-4(8-6)2-7-3-5(6)9/h4,7-8H,2-3H2,1H3/t4-,6-/m0/s1
