19
gdb 82077	2.47715	1.56095	1.14427	3.5256	75.11	-0.228	0.0353	0.2633	1109.5077	0.159552	-419.192521	-419.183653	-419.182709	-419.226561	33.664	
C	-0.3271901772	 1.4930792576	-0.1132204982	-0.416419
C	-0.0255179141	 0.0034173367	-0.0076864593	-0.012959
C	 0.6727281789	-0.6461329469	-1.2119800182	-0.055278
N	 2.0074855365	-0.0102134668	-1.3000022771	-0.326274
C	 1.7930759817	-1.1437893987	-0.3720530019	-0.039221
C	 1.1765426286	-0.5494964604	 0.8899991177	-0.141878
C	 2.1174303558	 0.3179864759	 1.7182234724	 0.402953
N	 1.517575855	 1.231445143	 2.5433909471	-0.526516
O	 3.318793229	 0.1392552171	 1.7121404466	-0.362086
H	 0.5781967454	 2.0603580783	-0.3388854073	 0.149338
H	-1.0488533645	 1.6687039903	-0.9192106532	 0.115926
H	-0.7788581541	 1.8940280347	 0.8020279244	 0.099724
H	-0.9352976915	-0.5484125912	 0.2472022342	 0.075955
H	 0.2015852803	-1.0853307079	-2.082900584	 0.091132
H	 2.4734700951	-0.3823338253	-2.1263768738	 0.230417
H	 2.3823594492	-2.0471896233	-0.45202024	 0.099593
H	 0.7915499479	-1.3315984222	 1.5531746051	 0.10555
H	 0.5651653434	 1.5164437524	 2.3964348154	 0.253529
H	 2.1257581046	 1.8681249568	 3.0342329299	 0.256514
31.7772	123.6868	177.662	231.6695	252.9088	290.081	311.1401	415.3084	462.9343	496.2945	572.3093	623.9523	656.3511	704.5646	796.9789	822.9082	843.2633	897.1701	911.8536	947.838	1009.9641	1022.0216	1061.4551	1082.6628	1097.3717	1112.0112	1112.2975	1139.2142	1180.2061	1253.3426	1266.6829	1297.1767	1326.2688	1370.9501	1378.7956	1388.938	1407.3951	1492.5583	1501.2194	1617.3737	1795.1246	3024.7604	3049.1111	3065.9486	3078.0018	3132.262	3185.4037	3210.0414	3482.9448	3593.8889	3729.1511
CC1C2NC2C1C(N)=O	C[C@H]1[C@H]2N[C@H]2[C@H]1C(=O)N	
InChI=1S/C6H10N2O/c1-2-3(6(7)9)5-4(2)8-5/h2-5,8H,1H3,(H2,7,9)	InChI=1S/C6H10N2O/c1-2-3(6(7)9)5-4(2)8-5/h2-5,8H,1H3,(H2,7,9)/t2-,3+,4-,5+/m1/s1
