19
gdb 121201	2.37558	1.0172	0.77221	5.8277	76.25	-0.2509	0.0143	0.2651	1466.6193	0.15952	-419.185103	-419.175634	-419.174689	-419.220226	33.701	
O	-0.1120010629	 1.4668119173	 0.312291315	-0.416703
C	-0.0048363447	 0.0780956991	 0.0515105729	-0.080605
C	-1.406415753	-0.5164062868	 0.13512998	-0.182332
C	-1.4129948493	-2.021148197	-0.1072654266	-0.026022
C	-0.9744640406	-2.8969294995	 1.1015667004	-0.177175
N	-2.4013257457	-3.1301809233	 1.4216276792	-0.297292
C	-2.8017214814	-2.7298472049	 0.0585100336	-0.143802
C	-4.0235220049	-1.9279975626	-0.0310341531	 0.305557
N	-4.9869590996	-1.2965922494	-0.1258054699	-0.330626
H	 0.7679161898	 1.8520994397	 0.2695087929	 0.287514
H	 0.4176734982	-0.1108414058	-0.9498590069	 0.084233
H	 0.6596215609	-0.4147405183	 0.7805371103	 0.086398
H	-1.8314018146	-0.2916802698	 1.1195531995	 0.130965
H	-2.0415233876	-0.0148766392	-0.6037687804	 0.125997
H	-0.9210110884	-2.2610986484	-1.0528672762	 0.084559
H	-0.4213783832	-3.7944287372	 0.7927133927	 0.097058
H	-0.4178356019	-2.3959819868	 1.900246675	 0.114013
H	-2.6610444637	-4.0718342054	 1.6928521976	 0.229042
H	-2.8973470975	-3.5641681317	-0.651606976	 0.109221
74.3767	95.5922	106.6874	119.7483	186.28	249.3289	263.393	326.9651	364.8409	457.1729	546.3813	561.02	672.3171	789.3363	817.7702	871.1711	919.755	966.1412	999.185	1026.38	1031.3326	1059.3059	1086.9811	1113.4985	1144.0328	1164.2428	1202.8087	1229.7158	1252.709	1268.1824	1311.9794	1321.0982	1330.8764	1361.1163	1389.9458	1394.0646	1466.3921	1490.6732	1521.8516	1527.9851	2355.4294	2954.0398	2978.9705	2992.2779	3005.5631	3045.0833	3067.0453	3076.2476	3095.1093	3536.6643	3832.0355
OCCC1CNC1C#N	OCC[C@H]1CN[C@H]1C#N	
InChI=1S/C6H10N2O/c7-3-6-5(1-2-9)4-8-6/h5-6,8-9H,1-2,4H2	InChI=1S/C6H10N2O/c7-3-6-5(1-2-9)4-8-6/h5-6,8-9H,1-2,4H2/t5-,6-/m0/s1
