15
gdb 31938	3.05733	1.23226	0.88319	3.4003	76.37	-0.2181	-0.0454	0.1727	1242.4568	0.111954	-457.798299	-457.790083	-457.789139	-457.831775	29.067	
C	 0.064240867	 1.4411723484	-0.1309030937	-0.253554
O	 0.0290395693	 0.0095919449	-0.0491633358	-0.262158
C	 0.5921307295	-0.6715546616	-1.0339082181	 0.457834
C	 0.6975224465	-2.0327680864	-1.2021020647	-0.30059
C	 1.3914929621	-2.1940054909	-2.4247263172	-0.218274
C	 1.6638602402	-0.9423170789	-2.9209600115	 0.243431
O	 1.1587707689	 0.0031282035	-2.0423075608	-0.200123
C	 2.3378167069	-0.5036141587	-4.1154807586	 0.060454
O	 2.5214774445	 0.6482119097	-4.4536975693	-0.303139
H	 1.0956142096	 1.8037550622	-0.1483963865	 0.151131
H	-0.4558196702	 1.7917365888	-1.0265394791	 0.151093
H	-0.4454621157	 1.7945252424	 0.7647427538	 0.146468
H	 0.3229311927	-2.7869196818	-0.5313912142	 0.126621
H	 1.6665225546	-3.1247585087	-2.8980423838	 0.132057
H	 2.6927921441	-1.361458353	-4.7299280806	 0.068749
80.3683	134.0152	134.0368	158.4469	242.6567	265.1049	374.7608	482.6261	530.6686	632.3377	652.988	702.1984	772.1932	792.1596	869.2123	962.6398	989.4913	1013.1673	1040.6022	1061.3279	1176.4225	1203.8582	1222.4324	1295.1185	1333.0262	1392.8823	1432.0014	1474.4116	1486.0094	1498.2665	1580.6082	1635.558	1774.5427	2876.2564	3047.848	3122.6816	3164.8085	3252.3185	3282.1506
COC1=CC=C(O1)C=O	COc1ccc(o1)C=O	
InChI=1S/C6H6O3/c1-8-6-3-2-5(4-7)9-6/h2-4H,1H3	InChI=1S/C6H6O3/c1-8-6-3-2-5(4-7)9-6/h2-4H,1H3
