21
gdb 119283	2.11256	1.17593	0.87986	1.5291	84.44	-0.2514	0.0409	0.2923	1416.1283	0.180402	-387.038957	-387.028958	-387.028013	-387.074272	36.507	
C	 0.1117062726	 1.5980483396	 0.0141305654	-0.380235
C	 0.1014568039	 0.0680819677	-0.0481460656	-0.178539
C	 0.6300763018	-0.5762787518	 1.2370163669	-0.242459
C	 0.65186479	-2.1163382036	 1.2183979366	 0.080538
C	 1.8122670043	-2.7133290811	 0.360919193	-0.106052
O	 2.5862183812	-3.0107023684	 1.5356969252	-0.269341
C	 1.474075203	-2.7187509645	 2.3991535792	-0.116711
C	-0.6655655744	-2.6898558673	 1.0085631877	 0.284852
C	-1.7549684621	-3.1735297756	 0.8462982337	-0.458625
H	 1.1252695329	 1.9843410441	 0.1694807684	 0.114763
H	-0.2725916134	 2.0352033856	-0.9124674357	 0.114029
H	-0.5107335098	 1.9640855166	 0.8381338276	 0.116095
H	-0.9172083164	-0.2898479501	-0.2352099547	 0.114395
H	 0.7051056847	-0.2665540981	-0.9018863163	 0.096407
H	 1.6542691535	-0.2328902699	 1.4321109616	 0.105425
H	 0.0206680885	-0.2487989888	 2.0890330333	 0.10378
H	 1.5373061651	-3.6174187172	-0.1952029582	 0.107486
H	 2.3260758188	-2.0124620001	-0.3068593195	 0.106394
H	 1.739757469	-2.0176665734	 3.1989008522	 0.105552
H	 1.0351409564	-3.625425412	 2.8323341518	 0.106528
H	-2.7156860297	-3.6020262016	 0.7004548775	 0.195716
71.8701	92.1825	106.9692	137.3711	180.4241	206.9138	248.8747	316.32	364.6825	385.7052	525.9378	535.092	626.066	632.1385	658.0169	750.5496	836.6514	869.418	888.9409	939.7577	974.8494	983.7967	1002.0898	1043.6256	1053.6655	1075.8891	1140.2164	1160.247	1164.3817	1197.7906	1248.6204	1293.3996	1305.5638	1317.9372	1340.3814	1373.5414	1395.3805	1412.3326	1479.6717	1493.2833	1499.8037	1508.6036	1510.1268	1533.3622	2230.4133	3013.2167	3014.3498	3024.3009	3025.644	3030.483	3051.9298	3068.5592	3069.4319	3073.2448	3098.7583	3104.1267	3500.4334
CCCC1(COC1)C#C	CCCC1(COC1)C#C	
InChI=1S/C8H12O/c1-3-5-8(4-2)6-9-7-8/h2H,3,5-7H2,1H3	InChI=1S/C8H12O/c1-3-5-8(4-2)6-9-7-8/h2H,3,5-7H2,1H3
