23
gdb 95300	2.51682	1.62963	1.3693	1.5614	83.73	-0.2378	0.077	0.3148	1081.4864	0.20969	-388.322107	-388.314317	-388.313373	-388.353818	32.363	
C	-0.0217537395	 1.5724806097	-0.0280953165	-0.410139
C	 0.0141698032	 0.0412499473	-0.0082418943	 0.034873
C	 0.6118549497	-0.5255196876	-1.3150681861	-0.191013
C	 0.9000130135	-2.0376558141	-1.2516056888	-0.22353
C	 1.5538524832	-2.4017669012	 0.0907834261	 0.122725
C	 0.6105231271	-2.0560480013	 1.2476927583	-0.241066
C	 0.7663018554	-0.5254184675	 1.2230857026	-0.020783
C	 2.2962711933	-0.4276789538	 1.0890463699	-0.083202
O	 2.7033482169	-1.5719936092	 0.3243329694	-0.28131
H	 0.9868297099	 1.9976873045	-0.0819931878	 0.114893
H	-0.5773296155	 1.9404735706	-0.8973679781	 0.111661
H	-0.5044794089	 1.9713393985	 0.8706853797	 0.108448
H	-1.0238162803	-0.3124679657	 0.0746897176	 0.066888
H	-0.0519751503	-0.2972708853	-2.156397219	 0.087941
H	 1.5553005286	-0.0063691452	-1.5217326079	 0.108349
H	-0.0233042489	-2.6211005775	-1.362506964	 0.088537
H	 1.5585687708	-2.3232505091	-2.0786660157	 0.09835
H	 1.8950546208	-3.4412551589	 0.0959637192	 0.068478
H	-0.417009046	-2.3923174801	 1.0867808082	 0.093631
H	 0.9747923932	-2.4824607179	 2.1879607433	 0.095912
H	 0.4122044486	-0.0410387415	 2.1381485322	 0.060658
H	 2.6321366242	 0.4832584798	 0.579697632	 0.09789
H	 2.7821082611	-0.4597930844	 2.0743083096	 0.091808
152.3957	211.3582	227.4743	270.2494	330.0076	357.6789	401.6948	440.8219	506.5635	561.5736	719.7442	753.0502	790.236	826.8005	880.6902	893.7279	895.8646	935.2256	952.0129	972.1599	1002.6626	1005.4561	1030.835	1049.8095	1084.482	1102.336	1106.8139	1137.4075	1179.4071	1195.3995	1221.0215	1247.1655	1254.7368	1312.6166	1313.2998	1334.708	1342.4835	1354.3081	1370.4581	1378.4132	1390.7773	1400.0908	1412.0931	1478.5539	1493.2446	1497.8858	1498.2489	1501.1649	1531.6129	2992.7951	3001.2426	3022.9175	3025.5401	3033.7134	3045.7643	3048.0326	3061.1151	3064.7048	3071.1269	3077.6423	3093.7581	3095.2932	3102.8274
CC1CCC2CC1CO2	C[C@H]1CC[C@@H]2C[C@H]1CO2	
InChI=1S/C8H14O/c1-6-2-3-8-4-7(6)5-9-8/h6-8H,2-5H2,1H3	InChI=1S/C8H14O/c1-6-2-3-8-4-7(6)5-9-8/h6-8H,2-5H2,1H3/t6-,7-,8+/m0/s1
