17
gdb 111451	3.01568	1.51052	1.21033	2.7424	65.9	-0.2609	0.0519	0.3128	1028.4762	0.136218	-458.91219	-458.904585	-458.903641	-458.944581	29.17	
O	 0.1099078949	 1.3536733277	-0.1037231521	-0.426192
C	 0.0164680068	-0.0568935981	 0.0310452446	-0.078154
C	-1.4404112749	-0.5413938442	 0.0828614649	-0.071429
C	-2.2529062404	-0.1480144963	-1.1552803999	 0.001762
O	-1.7356749523	-0.6450635362	-2.3971071886	-0.241816
C	-2.8172347313	-1.3519555908	-1.7880445611	 0.011584
C	-2.3865838165	-2.5561228598	-0.9652436981	 0.006991
O	-0.9762225389	-2.7709565162	-0.9445462767	-0.23307
C	-1.5644211101	-2.0667885605	 0.1558238211	 0.005472
H	-0.022242832	 1.5658697231	-1.0326888071	 0.292706
H	 0.5303621845	-0.5791507577	-0.7839423349	 0.127128
H	 0.5235498745	-0.3117910042	 0.9676585242	 0.10887
H	-1.929730806	-0.1045583209	 0.9624960438	 0.086719
H	-2.72176481	 0.8315536984	-1.20956226	 0.104059
H	-3.7511810747	-1.370321533	-2.3421304932	 0.101507
H	-3.010299367	-3.4443475705	-0.9227785985	 0.101852
H	-1.4957775864	-2.5746633811	 1.1155146314	 0.102011
74.5093	149.8651	175.2531	312.9771	320.1805	320.9395	456.494	551.4523	584.0576	710.3741	723.8548	818.3984	832.5713	860.7675	881.8136	901.5049	934.1231	974.5668	1002.2381	1045.8618	1064.0601	1069.4636	1089.6898	1095.5513	1125.2764	1205.9132	1242.9496	1264.0074	1274.6994	1301.3479	1333.4433	1348.1885	1396.397	1405.8551	1421.6296	1431.2826	1503.9553	3035.7842	3040.8579	3087.4237	3133.7114	3140.3661	3153.8272	3167.6174	3827.6197
OCC1C2OC2C2OC12	OC[C@H]1[C@H]2O[C@H]2[C@H]2O[C@@H]12	
InChI=1S/C6H8O3/c7-1-2-3-5(8-3)6-4(2)9-6/h2-7H,1H2	InChI=1S/C6H8O3/c7-1-2-3-5(8-3)6-4(2)9-6/h2-7H,1H2/t2-,3+,4-,5+,6-
