17
gdb 106854	2.65073	1.30185	1.04554	5.4755	75.53	-0.2366	-0.0052	0.2314	1183.5108	0.135391	-417.959621	-417.950949	-417.950005	-417.99323	31.814	
C	 0.1289111982	 1.3714472521	 0.324784728	-0.332318
N	-0.0376565963	 0.0127853147	-0.1915569772	-0.361581
C	-1.3428774486	-0.5053665596	-0.1577322992	 0.215695
C	-1.945144498	-1.0007202187	 1.1354840326	-0.352706
C	-1.8146919062	-1.9625114643	-0.0157820335	 0.286478
O	-2.8860036472	-1.776131873	-0.9398758927	-0.313609
C	-2.455058684	-0.4143516912	-1.2160433887	-0.135717
C	-1.1070612392	-3.1986521333	 0.0062681687	 0.22923
N	-0.5168386471	-4.1941434775	 0.0223037632	-0.351084
H	 1.1898313256	 1.6334233421	 0.2994959089	 0.130753
H	-0.4303195566	 2.1407644521	-0.2308677831	 0.108119
H	-0.2005779112	 1.4026269754	 1.367595871	 0.135249
H	 0.3827719678	-0.0897101797	-1.1077861459	 0.232344
H	-1.2177514511	-1.1333692198	 1.9289689612	 0.148376
H	-2.9467699294	-0.7144728194	 1.4428747726	 0.129817
H	-3.2575582219	 0.3143982998	-1.0592763723	 0.115622
H	-2.0697256847	-0.3369552796	-2.2397706137	 0.115333
84.5975	95.4616	161.3888	187.5523	218.1179	316.7178	353.9618	396.7486	440.1561	548.9366	565.9257	629.7872	671.1606	768.094	786.3898	848.805	923.1987	968.5487	986.7805	1023.6017	1074.8495	1078.6611	1106.7775	1148.2991	1149.7059	1169.9616	1223.1174	1285.7959	1331.7576	1401.6613	1455.3995	1481.83	1484.9983	1496.9447	1515.3358	1523.236	2346.1355	2978.3057	3025.9249	3077.0657	3082.8088	3120.0051	3124.9055	3228.1445	3542.1067
CNC12CC1(OC2)C#N	CN[C@]12C[C@]1(OC2)C#N	
InChI=1S/C6H8N2O/c1-8-5-2-6(5,3-7)9-4-5/h8H,2,4H2,1H3	InChI=1S/C6H8N2O/c1-8-5-2-6(5,3-7)9-4-5/h8H,2,4H2,1H3/t5-,6-/m0/s1
