18
gdb 72192	3.06112	2.02828	1.60408	0.2129	73.57	-0.212	0.0707	0.2827	871.5454	0.150204	-401.885932	-401.879544	-401.8786	-401.916131	27.74	
O	-0.106954482	 1.4071770437	 0.0216480275	-0.485474
C	 0.057673923	 0.0254072391	-0.0180946498	 0.398593
C	 1.1559000155	-0.7116432482	 0.7487630519	-0.247815
N	 1.1570592649	-1.7753470943	-0.3200961933	-0.1277
C	 0.1769265946	-2.813888971	 0.0503049738	-0.191967
C	-1.1810042945	-2.1852016444	-0.2183622949	-0.065884
C	-1.0577438947	-1.2835926436	-1.4100094631	-0.081738
C	-1.3191122637	-0.6826089767	-0.0297213097	-0.107675
C	 0.4097744857	-0.8288224524	-1.2747617219	-0.101575
H	 0.7545809213	 1.8159998993	-0.1169354378	 0.279568
H	 2.1140581067	-0.1756385231	 0.7494066878	 0.089276
H	 0.9465667346	-1.0683085083	 1.7629541314	 0.099911
H	 0.3087514655	-3.700998127	-0.5819826913	 0.09971
H	 0.3399991399	-3.1186238132	 1.0889132693	 0.103441
H	-2.0910342671	-2.7647459761	-0.0986159574	 0.087514
H	-1.6702511185	-1.3135756967	-2.3010601301	 0.087951
H	-2.2215200301	-0.2337971523	 0.3668254952	 0.092359
H	 0.9881485291	-0.4890432946	-2.1323568275	 0.071505
238.0989	280.7305	351.0367	373.4779	463.5181	475.5867	559.3052	666.5435	696.5015	744.1963	759.682	802.1511	817.5008	850.6695	912.113	922.8239	934.2429	952.535	982.8744	1000.7257	1023.9291	1046.022	1073.5916	1096.5413	1104.1025	1117.5947	1149.9395	1185.0443	1224.5722	1229.4258	1242.1795	1260.0865	1278.9797	1321.0933	1331.6975	1389.5783	1401.0956	1495.3778	1512.1796	3010.3885	3023.4136	3068.7989	3078.7144	3125.4686	3164.7696	3188.9898	3203.7507	3800.292
OC12CN3CC4C(C14)C23	O[C@@]12CN3C[C@@H]4[C@@H]([C@H]14)[C@@H]23	
InChI=1S/C7H9NO/c9-7-2-8-1-3-4(5(3)7)6(7)8/h3-6,9H,1-2H2	InChI=1S/C7H9NO/c9-7-2-8-1-3-4(5(3)7)6(7)8/h3-6,9H,1-2H2/t3-,4+,5-,6+,7+/m1/s1
