15
gdb 6081	4.77734	0.87453	0.76108	5.3366	68.12	-0.2611	-0.0394	0.2217	1435.0806	0.117516	-399.793927	-399.784876	-399.783932	-399.829119	31.187	
C	 0.0385484659	 1.6626190491	 0.1330650866	-0.383647
C	 0.0772781919	 0.1281488417	-0.0311877074	-0.145317
N	 0.9296730803	-0.5823193943	 0.9356914938	-0.503536
H	 0.6176042881	-0.3661875019	 1.879302465	 0.231578
H	-3.0049791062	-2.8574473541	 1.0054187273	 0.311891
H	 1.877826783	-0.2232092998	 0.8606943411	 0.232837
C	-1.2769691861	-0.4265198029	 0.0118448455	 0.165631
C	-2.4052467655	-0.8506811502	 0.0497731298	-0.106859
C	-3.7590559475	-1.3653904089	 0.0882184061	 0.340232
O	-3.8774295457	-2.5634368126	 0.7125687383	-0.358048
O	-4.7152416285	-0.8106817061	-0.3774368181	-0.295329
H	 1.0527887555	 2.066804561	 0.0550948657	 0.116199
H	-0.5823109484	 2.1297875508	-0.6368288729	 0.13786
H	-0.3691750035	 1.9323805526	 1.1121580969	 0.12728
H	 0.4817738465	-0.0979070745	-1.0277060777	 0.129228
24.2328	75.3023	106.8403	192.5672	242.1782	257.914	294.4643	361.0751	453.7073	517.837	528.777	588.4889	612.8487	726.9496	767.0807	848.9123	915.5799	990.2992	1030.2636	1076.4683	1155.7403	1201.5944	1220.5234	1317.191	1326.3129	1403.348	1404.8544	1487.5112	1497.2463	1655.3003	1848.5356	2343.8959	3015.7794	3036.1898	3113.5835	3119.3423	3477.8043	3560.3209	3786.8699
CC([NH3+])C#CC([O-])=O	C[C@@H](N)C#CC(=O)O	
InChI=1S/C5H7NO2/c1-4(6)2-3-5(7)8/h4H,6H2,1H3,(H,7,8)	InChI=1S/C5H7NO2/c1-4(6)2-3-5(7)8/h4H,6H2,1H3,(H,7,8)/t4-/m1/s1
