23
gdb 60018	3.64792	0.62907	0.6277	3.3404	83.56	-0.2425	-0.0199	0.2226	1907.1856	0.201828	-425.443567	-425.432165	-425.431221	-425.481531	40.311	
C	-0.168306002	 1.5985245661	 0.0240381271	-0.388791
C	-0.0725292898	 0.0667221615	-0.008057602	 0.044287
C	-1.4716932828	-0.5634827164	-0.011449001	-0.392183
C	 0.7458155139	-0.4412675122	-1.2095699638	-0.196685
C	 2.2360725506	-0.0808090059	-1.1795492084	 0.096363
O	 2.869802573	-0.5263653974	 0.0184226539	-0.425371
C	 2.9755177951	-0.6171750842	-2.4211909134	-0.293176
C	 4.4245035366	-0.1796733704	-2.4724341516	 0.153829
O	 4.9711649015	 0.2423806578	-3.4600698674	-0.243806
H	 0.8142481182	 2.0716898966	 0.1086859302	 0.120901
H	-0.6497398336	 1.981302653	-0.8843655184	 0.110348
H	-0.7649823786	 1.9315429493	 0.8793596776	 0.113697
H	 0.4488435974	-0.2572985285	 0.9013512156	 0.082532
H	-2.0316964906	-0.2754984023	-0.9094440426	 0.112221
H	-1.4202115915	-1.6574655688	 0.0102061421	 0.106692
H	-2.0523707247	-0.2384158175	 0.8579511796	 0.112659
H	 0.6645741303	-1.5380070111	-1.2643303806	 0.080414
H	 0.3077416587	-0.0605710735	-2.1421937314	 0.099128
H	 2.3473689104	 1.0093952592	-1.1520313339	 0.103836
H	 2.7136455571	-1.4747472352	 0.0979890474	 0.279067
H	 2.9572970916	-1.7178451339	-2.3851784319	 0.109743
H	 2.4848260527	-0.3094076121	-3.349362403	 0.12176
H	 4.9659912762	-0.275121704	-1.5071901542	 0.092533
31.6586	50.1625	81.663	122.3455	128.2894	221.4007	241.6695	243.5639	282.8897	318.2865	353.0493	410.2326	423.3689	436.0244	500.9284	566.5419	794.3908	833.8843	849.2768	899.6606	928.2579	954.9152	968.0617	1003.4158	1040.0166	1066.6185	1104.3946	1125.085	1163.9008	1192.8305	1201.4635	1237.1278	1272.9293	1310.0778	1344.8752	1356.8289	1379.6234	1391.5065	1401.8918	1414.6318	1421.2419	1424.0058	1449.7007	1476.2066	1487.985	1495.4866	1505.1936	1510.9505	1829.4799	2911.3753	2988.7308	2997.6216	3022.3053	3024.3147	3029.32	3041.6771	3055.1912	3087.165	3093.8345	3096.4964	3099.1386	3108.4672	3788.5739
CC(C)CC(O)CC=O	CC(C)C[C@@H](O)CC=O	
InChI=1S/C7H14O2/c1-6(2)5-7(9)3-4-8/h4,6-7,9H,3,5H2,1-2H3	InChI=1S/C7H14O2/c1-6(2)5-7(9)3-4-8/h4,6-7,9H,3,5H2,1-2H3/t7-/m0/s1
