19
gdb 57923	3.29465	0.96361	0.80422	4.3241	73.69	-0.2593	0.0085	0.2678	1456.1025	0.157208	-456.406994	-456.396532	-456.395588	-456.443389	36.969	
C	 0.2317152145	 1.2806752367	 0.9739094832	-0.380132
C	-0.0936559792	-0.106851138	 0.4170499527	-0.041371
C	 0.4354445677	-1.2278664259	 1.3341842424	-0.388433
C	-1.5792370061	-0.2776113456	 0.1885726033	 0.412823
N	-2.4648799181	 0.4859043646	 0.6442198389	-0.502201
O	-1.762684823	-1.432596193	-0.6013503928	-0.290702
C	-2.9989991625	-1.9004695296	-0.9575036697	 0.502382
N	-2.839308514	-3.0402959776	-1.6808028249	-0.550545
O	-4.0646837304	-1.4079098355	-0.6699954666	-0.384587
H	 1.3137371321	 1.3893051567	 1.0977854542	 0.103345
H	-0.1247255368	 2.0698301275	 0.3076014827	 0.123625
H	-0.2481949376	 1.4310080587	 1.9441482595	 0.13545
H	 0.3870400533	-0.2257092286	-0.5631755198	 0.089417
H	 0.2069752726	-2.2170194895	 0.9296702372	 0.119089
H	 1.5207543457	-1.1447191786	 1.4444363416	 0.11665
H	-0.0131503736	-1.1519911131	 2.3301541719	 0.128076
H	-3.3999942208	 0.1744519543	 0.3840152132	 0.260656
H	-1.927191469	-3.3073708821	-2.0064131829	 0.270937
H	-3.6551527448	-3.4198474016	-2.1281009741	 0.27552
42.5008	51.7662	95.0408	165.7596	205.7586	230.1581	233.7249	269.1952	314.7923	332.0426	410.9554	443.8681	533.7182	577.2971	660.6641	706.4174	776.5895	830.0903	862.5416	935.283	954.1999	971.1654	973.4325	1045.5986	1108.2341	1125.8727	1136.3512	1197.0541	1271.8855	1329.9496	1347.5351	1389.5624	1402.6435	1421.4201	1483.2715	1487.2336	1499.5551	1512.562	1605.7018	1750.863	1844.0014	3020.5067	3039.6333	3046.6018	3109.4489	3117.9999	3122.397	3129.8186	3501.6817	3623.3803	3758.4964
CC(C)C(=N)OC(N)=O	CC(C)[C]([NH])OC(=O)N	
InChI=1S/C5H10N2O2/c1-3(2)4(6)9-5(7)8/h3,6H,1-2H3,(H2,7,8)	InChI=1S/C5H10N2O2/c1-3(2)4(6)9-5(7)8/h3,6H,1-2H3,(H2,7,8)
