20
gdb 77704	3.05381	1.29975	1.09051	1.3635	79.9	-0.24	0.0687	0.3087	1174.1994	0.171119	-403.091496	-403.083001	-403.082057	-403.124452	33.466	
O	 0.5363137632	 0.7279273389	 0.650197505	-0.423289
C	 0.1440362463	-0.5023675733	 0.0947428426	-0.012146
C	-1.3549245351	-0.8232334759	-0.0780962505	 0.33164
C	-2.3335824382	-1.2682065708	 0.9605566526	-0.337045
C	-2.4553134335	 0.1084059725	 0.3457194519	-0.323729
C	-1.1123116332	-1.3602194073	-1.4990767299	-0.389841
C	 0.285084185	-0.7287826344	-1.4220718365	 0.326006
C	 0.9256256494	 0.2237697279	-2.355247511	-0.308522
N	 1.459152835	-1.1428315118	-2.1739182393	-0.376024
H	 0.0666952041	 1.4200852734	 0.1706027095	 0.279571
H	 0.6691475774	-1.268636739	 0.6776026516	 0.092157
H	-3.0670061466	-2.0186961476	 0.6830264618	 0.113982
H	-1.9914343915	-1.3347033712	 1.988800856	 0.116999
H	-2.1876410785	 0.9583411453	 0.966566292	 0.11369
H	-3.2679816686	 0.2937418742	-0.3493525429	 0.113241
H	-1.0735861977	-2.4528084081	-1.5513005736	 0.11186
H	-1.7738795951	-0.9906372315	-2.2873019868	 0.105046
H	 0.4821350656	 0.4160679923	-3.3288055053	 0.118134
H	 1.4789115495	 1.0566487559	-1.9273119091	 0.114877
H	 2.2833480325	-1.1137197995	-1.5764981882	 0.233392
61.8185	212.069	220.2965	226.4123	249.0303	317.7529	356.3742	363.0738	449.151	501.8798	566.6547	705.1879	786.2588	791.3729	826.5711	870.7093	891.476	910.1026	937.6472	951.2502	982.4773	992.9699	1041.5157	1053.1195	1069.0263	1084.0092	1110.5704	1126.7576	1138.2312	1192.1906	1204.4324	1230.3805	1252.8175	1260.8288	1288.934	1299.5963	1371.877	1416.2485	1430.4717	1460.4316	1488.3844	1500.0245	1511.8812	3040.4864	3050.1249	3099.4173	3099.6157	3120.1289	3123.2069	3187.1247	3199.0607	3213.5382	3480.9247	3796.5667
OC1C2(CC2)CC11CN1	O[C@H]1C2(CC2)C[C@]21CN2	
InChI=1S/C7H11NO/c9-5-6(1-2-6)3-7(5)4-8-7/h5,8-9H,1-4H2	InChI=1S/C7H11NO/c9-5-6(1-2-6)3-7(5)4-8-7/h5,8-9H,1-4H2/t5-,7+/m0/s1
