14
gdb 69044	3.12611	1.36264	1.14128	2.7702	65.45	-0.2536	-0.0503	0.2033	1040.4456	0.09893	-473.813742	-473.805531	-473.804587	-473.846636	29.943	
O	-0.3299864934	 1.3375391969	-0.0188462329	-0.423858
C	-0.1160381381	-0.0002499436	 0.0337071516	 0.232636
C	-0.2232130232	-0.9542881907	-1.126073383	-0.39492
C	-1.1380139068	-1.2104447349	 0.0491241367	 0.166528
N	-0.4170841586	-1.7573307799	 1.1931820144	-0.394106
C	 0.5437374757	-0.7229276479	 1.2158865666	 0.376746
O	 1.5002386492	-0.5323495385	 1.90376213	-0.318535
C	-2.5928271157	-1.0378554643	 0.0154657575	 0.092725
O	-3.1910939288	-0.6042362411	-0.9434818454	-0.278372
H	-0.2668866927	 1.6457116811	-0.9287666958	 0.310744
H	-0.7313072	-0.5405515175	-1.9947929954	 0.1537
H	 0.5693211138	-1.6642854476	-1.3455601537	 0.135007
H	-0.1458713377	-2.732494144	 1.2574387335	 0.251059
H	-3.1029861038	-1.3067626982	 0.963911636	 0.090647
92.4304	130.9596	170.7987	224.6467	251.7415	309.6309	369.6359	427.6386	491.0736	561.3689	614.3923	695.4424	715.7407	726.346	790.5999	830.7097	936.9714	964.9959	1035.6964	1059.3274	1087.9147	1146.0381	1208.0998	1299.4966	1321.7041	1351.4731	1411.3089	1427.0583	1477.6414	1788.9611	1911.372	2918.3222	3107.9553	3200.9837	3544.4652	3822.4144
OC12CC1(NC2=O)C=O	O[C@]12C[C@]1(NC2=O)C=O	
InChI=1S/C5H5NO3/c7-2-4-1-5(4,9)3(8)6-4/h2,9H,1H2,(H,6,8)	InChI=1S/C5H5NO3/c7-2-4-1-5(4,9)3(8)6-4/h2,9H,1H2,(H,6,8)/t4-,5-/m0/s1
