15
gdb 11388	2.74137	1.46037	0.95759	2.6851	70.94	-0.2482	-0.0743	0.1739	1175.5207	0.115664	-399.838282	-399.828792	-399.827848	-399.873682	31.982	
N	 0.4634628767	-0.0152558011	-0.5323974872	-0.720524
H	 1.1567426468	-0.6796139277	-0.1985592961	 0.236851
H	 0.5100210675	-0.0505567302	-1.5473096173	 0.236856
H	-0.443511655	-0.4000352811	-0.2769434003	 0.261102
C	-1.276218585	 2.1963841433	 1.33358573	-0.428194
C	-2.3464972689	 1.414787839	 1.4821016301	 0.399084
O	-2.4152237446	 0.152391387	 0.9255577673	-0.244495
C	-3.6457179288	-0.4211530264	 1.2492529587	 0.408391
O	-3.9443979259	-1.5192770757	 0.8801283509	-0.333132
C	-4.3725853754	 0.5726656922	 2.062563316	-0.24556
C	-3.5920387471	 1.6563706955	 2.1933705722	-0.154183
H	-1.2710790553	 3.178400289	 1.7897049959	 0.124614
H	-0.415582745	 1.8600453354	 0.7637074161	 0.179609
H	-5.3618019648	 0.3879926642	 2.451905259	 0.141344
H	-3.8026897155	 2.5747801766	 2.7233793447	 0.138237
45.7894	66.9015	119.3431	119.9867	160.4212	185.4518	290.7852	294.2684	344.2863	521.3685	617.5819	647.9688	737.6187	738.6014	772.1555	848.9325	889.4654	925.3748	955.9333	961.6583	997.8731	1084.5916	1114.2155	1120.7594	1307.1768	1350.0275	1445.1113	1614.867	1676.374	1693.0784	1716.0165	1876.633	3147.0065	3236.9336	3257.8231	3268.1326	3460.9022	3577.5366	3581.7194
[NH3+]C[C-]1OC(=O)C=C1	N.C=C1OC(=O)C=C1	
InChI=1S/C5H6NO2/c6-3-4-1-2-5(7)8-4/h1-2H,3,6H2/q-1/p+1	InChI=1S/C5H4O2.H3N/c1-4-2-3-5(6)7-4;/h2-3H,1H2;1H3
