19
gdb 80274	2.49804	1.4791	1.28218	3.5745	75.09	-0.2346	-0.0061	0.2285	1081.8105	0.158361	-423.048311	-423.039706	-423.038762	-423.081243	33.327	
C	-0.094958464	 1.4902029867	 0.0471734397	-0.481744
C	-0.0229641337	-0.0167994403	-0.0157886824	 0.290932
C	-1.2471983572	-0.7868478671	-0.4825382944	-0.379217
C	-1.1880037322	-2.1592443843	 0.2023876432	 0.406258
O	-1.872216286	-3.1091518618	-0.0687926328	-0.313122
C	-0.127995117	-2.1152836081	 1.3168635908	-0.338134
C	 0.6646983115	-0.848655426	 1.0783400966	-0.150761
C	 1.2912016994	-0.6906416147	-0.2908316953	 0.053354
O	 1.2831857705	-1.7585235425	-1.1957075023	-0.416826
H	 0.8297577245	 1.9166212678	 0.4492713673	 0.115048
H	-0.2551578749	 1.9232524042	-0.9470222965	 0.124252
H	-0.9193791031	 1.8195314717	 0.690363743	 0.117603
H	-2.1664687759	-0.2803692155	-0.1598824258	 0.120909
H	-1.3114741904	-0.9199993756	-1.5655798461	 0.139731
H	-0.647137277	-2.079842294	 2.2826293866	 0.128968
H	 0.4562280016	-3.0406478646	 1.3044946486	 0.119835
H	 1.1409870329	-0.3555894237	 1.9192976704	 0.084762
H	 2.1648402354	-0.0421446401	-0.3606978661	 0.084882
H	 1.9408256857	-2.4036852621	-0.9143936545	 0.29327
75.7988	191.5728	200.4923	221.153	252.3736	291.5063	333.3093	450.1982	464.5584	492.2423	538.8512	551.6943	654.1335	729.3219	779.2297	803.6856	851.7726	865.3739	961.708	987.5483	1022.1267	1051.6408	1071.9058	1096.5691	1121.9628	1157.1178	1181.4781	1207.9862	1225.4559	1265.9609	1283.7249	1294.8192	1329.4967	1361.8709	1419.2112	1437.358	1448.2955	1473.5837	1490.3663	1502.1641	1852.0047	3022.0226	3031.9876	3040.3757	3083.2339	3084.1153	3093.5377	3099.5213	3100.6078	3162.264	3802.9581
CC12CC(=O)CC1C2O	C[C@]12CC(=O)C[C@H]1[C@H]2O	
InChI=1S/C7H10O2/c1-7-3-4(8)2-5(7)6(7)9/h5-6,9H,2-3H2,1H3	InChI=1S/C7H10O2/c1-7-3-4(8)2-5(7)6(7)9/h5-6,9H,2-3H2,1H3/t5-,6+,7-/m0/s1
