19
gdb 31157	1.99383	1.76749	0.9921	1.1056	79.94	-0.174	0.0568	0.2308	1211.3243	0.158928	-419.226558	-419.21658	-419.215636	-419.261275	35.888	
C	 0.1608588125	 1.4232023807	 0.110379249	-0.248819
O	-0.1223818495	 0.0431901762	-0.0791589619	-0.286757
C	 0.5667021011	-0.546419006	-1.1124194881	 0.165256
C	-0.0280360854	-0.9610342005	-2.2844923916	 0.214043
N	-1.3432915412	-0.817067294	-2.7655815619	-0.611796
N	 0.9430332004	-1.5759459931	-3.0323881017	-0.292291
C	 2.1427936135	-1.5531094275	-2.3510595885	-0.184447
C	 1.9504836457	-0.9180560842	-1.1469299565	 0.187121
C	 2.965707015	-0.6999741706	-0.0673758908	-0.508198
H	 1.2058985413	 1.5890489363	 0.4011854444	 0.116694
H	-0.0425832825	 2.0021713659	-0.8006274227	 0.108168
H	-0.4904553486	 1.7727912889	 0.9157955393	 0.120983
H	-1.848258247	-0.1942806707	-2.1438844115	 0.248928
H	-1.8451249727	-1.7022946263	-2.7633339817	 0.241099
H	 0.8061547156	-1.8948190588	-3.9749691721	 0.257132
H	 3.0283333229	-2.0028798201	-2.7703117031	 0.110011
H	 3.2914519626	 0.3462168944	-0.0025778111	 0.118676
H	 2.5641063381	-0.9696926971	 0.9157766228	 0.127621
H	 3.8591261883	-1.3069584836	-0.2416017024	 0.116575
78.8299	123.3841	148.3366	161.8401	182.0492	196.9572	247.5114	268.7363	298.1338	413.5612	431.0717	531.1199	565.9425	633.0582	672.8783	691.3212	736.0025	770.4758	874.3775	997.4668	1037.4938	1050.5877	1063.7355	1102.7546	1163.354	1178.634	1211.8996	1251.1317	1276.5546	1361.9588	1411.5451	1416.6314	1469.8973	1480.6352	1486.7686	1497.2239	1508.5958	1525.4886	1579.4439	1641.491	1670.4248	3000.1777	3016.479	3060.2312	3066.8403	3102.3911	3112.766	3260.6619	3470.5525	3573.8749	3687.8889
COC1=C(N)NC=C1C	COc1c(N)[nH]cc1C	
InChI=1S/C6H10N2O/c1-4-3-8-6(7)5(4)9-2/h3,8H,7H2,1-2H3	InChI=1S/C6H10N2O/c1-4-3-8-6(7)5(4)9-2/h3,8H,7H2,1-2H3
