14
gdb 27203	3.53234	1.65374	1.12806	2.2032	72.31	-0.1659	0.0065	0.1724	989.3401	0.103992	-432.891759	-432.884594	-432.88365	-432.923041	27.74	
N	 0.0830151438	 1.368418286	 0.1803161037	-0.595633
C	-0.05169066	-0.0051860181	 0.0622427238	 0.270846
C	-1.1184904279	-0.8636566256	 0.0367683498	 0.162709
N	-2.5104789636	-0.8987459364	 0.0226344085	-0.360973
C	-2.7842655459	-2.1696710032	-0.0128574192	 0.00344
N	-1.6749227317	-3.0114139827	-0.0264204716	-0.442284
C	-0.5658256432	-2.1851809142	 0.0061614771	 0.295677
C	 0.7878010052	-2.0894808956	 0.0070115358	-0.186903
O	 1.0912004332	-0.7278136626	 0.0484598195	-0.185823
H	 0.8606282895	 1.7381804843	-0.352916471	 0.255203
H	-0.7752060688	 1.8505962669	-0.0510967157	 0.26514
H	-3.7824158584	-2.5864113709	-0.0329518234	 0.129035
H	-1.6981014674	-4.015011952	-0.0447990029	 0.263301
H	 1.6302410852	-2.753650926	-0.0238957543	 0.126266
174.2561	196.4156	242.0952	284.5445	327.2078	382.7797	517.0854	561.3307	606.2197	621.6169	633.1237	702.1316	726.8823	759.1833	826.5542	856.7725	937.2357	1004.1168	1065.5776	1101.8301	1123.6383	1227.3664	1304.2515	1319.4831	1328.254	1391.8401	1448.3148	1558.3376	1620.5215	1662.288	1723.8663	3233.4778	3311.7121	3535.5652	3640.1837	3691.0496
NC1=C2N=CNC2=CO1	Nc1c2nc[nH]c2co1	
InChI=1S/C5H5N3O/c6-5-4-3(1-9-5)7-2-8-4/h1-2H,6H2,(H,7,8)	InChI=1S/C5H5N3O/c6-5-4-3(1-9-5)7-2-8-4/h1-2H,6H2,(H,7,8)
