18
gdb 56675	2.49715	1.29066	1.12774	3.7964	71.47	-0.2688	0.0296	0.2984	1156.3265	0.145869	-439.074678	-439.065309	-439.064365	-439.108896	33.952	
C	 0.040785647	 1.5078985805	-0.1085516379	-0.407565
C	-0.0442734272	-0.0237032986	 0.0296392586	-0.162957
C	 0.6983468738	-0.4849640005	 1.209522837	 0.282927
N	 1.2929996687	-0.8561356721	 2.1280807256	-0.327613
C	-1.4962216789	-0.534415967	 0.0872728658	 0.343716
O	-2.1227267087	 0.1208362982	 1.1529235058	-0.468764
C	-2.1932389113	-0.5511287717	-1.3007582071	-0.138689
O	-1.978240161	-1.9695472266	-1.4164783633	-0.268446
C	-1.6200754767	-2.0757651676	-0.0240971663	-0.138383
H	 1.0824978251	 1.8294988644	-0.1733587785	 0.137467
H	-0.4757467554	 1.8305630193	-1.0168593648	 0.124871
H	-0.4270101927	 1.9928217166	 0.7490775458	 0.159723
H	 0.422484741	-0.4945497574	-0.8442504362	 0.138527
H	-3.0094152729	-0.2377305636	 1.2639868685	 0.289493
H	-3.2607029061	-0.2927180914	-1.237663722	 0.096476
H	-1.7362165744	 0.0088975557	-2.123852502	 0.112595
H	-0.7207510819	-2.678680669	 0.1369312635	 0.129316
H	-2.4403541085	-2.4814158492	 0.5868944875	 0.097304
76.0817	106.5101	134.4804	210.0544	228.5653	238.1583	274.9897	325.8194	360.6919	399.688	469.3326	528.5903	578.6397	742.6941	778.3026	861.4138	914.557	946.9569	1002.6598	1018.1047	1027.0167	1052.0207	1101.9982	1122.3628	1137.5403	1144.6153	1167.1156	1222.9479	1294.8814	1322.1477	1339.5078	1369.2461	1397.9727	1413.1536	1492.0576	1499.331	1503.9483	1529.0514	2359.6389	2988.5383	3000.1335	3044.1905	3057.0655	3067.5393	3079.416	3128.4405	3154.6178	3816.2207
CC(C#N)C1(O)COC1	C[C@@H](C#N)C1(O)COC1	
InChI=1S/C6H9NO2/c1-5(2-7)6(8)3-9-4-6/h5,8H,3-4H2,1H3	InChI=1S/C6H9NO2/c1-5(2-7)6(8)3-9-4-6/h5,8H,3-4H2,1H3/t5-/m0/s1
