19
gdb 120121	2.92497	1.03442	0.90009	3.291	77.12	-0.2399	-0.0108	0.2291	1363.3452	0.15795	-422.999598	-422.990672	-422.989728	-423.034342	32.429	
C	-0.1822050995	 1.3177699886	 0.098138992	-0.226888
O	-0.1434369493	-0.0858409448	 0.2013190621	-0.230615
C	 0.8660271458	-0.5420520547	 1.0746306363	-0.086693
C	 0.8070909336	-2.051182463	 1.0939410194	-0.024868
C	 1.4019443673	-2.9366312924	 2.1300763705	-0.088247
C	 1.3146404267	-2.3156695059	 3.533325759	-0.364589
C	-0.2278971088	-2.2924621938	 3.3462606602	 0.411551
O	-1.1331971788	-2.0815139026	 4.1022295304	-0.314016
C	-0.1473304058	-2.8659778275	 1.9625679288	-0.179667
H	 0.7658588333	 1.7261291649	-0.2873791296	 0.102696
H	-0.9851500864	 1.571771025	-0.5977238951	 0.13006
H	-0.3900588802	 1.7931823399	 1.0696971077	 0.108926
H	 1.8586379542	-0.2122902614	 0.7190880441	 0.087867
H	 0.7259793332	-0.1149363753	 2.0796367856	 0.097224
H	 0.8588773533	-2.4651391556	 0.0890168484	 0.109485
H	 2.0329389144	-3.7780576931	 1.8751100495	 0.104585
H	 1.5672805169	-3.0207586557	 4.331036945	 0.132772
H	 1.8376059354	-1.3737128558	 3.7169857896	 0.120457
H	-0.8473372653	-3.5613160168	 1.5164777759	 0.109959
43.1836	83.1966	120.6447	152.0836	230.2935	266.8078	346.5588	445.1741	448.8512	500.8382	600.1517	642.1368	757.7584	796.6265	849.4876	905.9957	950.7904	968.9562	990.1374	1009.5128	1025.4152	1037.3156	1092.1002	1113.3846	1142.7987	1158.3634	1180.7271	1202.4095	1216.3914	1232.0896	1269.4733	1293.9476	1322.6799	1387.285	1456.4618	1466.919	1482.0519	1486.0844	1502.453	1524.4971	1880.8202	2944.3973	2969.8535	2993.2039	3014.0945	3061.1061	3111.6784	3117.2944	3137.7328	3195.4686	3204.4651
COCC1C2CC(=O)C12	COC[C@H]1[C@H]2CC(=O)[C@@H]12	
InChI=1S/C7H10O2/c1-9-3-5-4-2-6(8)7(4)5/h4-5,7H,2-3H2,1H3	InChI=1S/C7H10O2/c1-9-3-5-4-2-6(8)7(4)5/h4-5,7H,2-3H2,1H3/t4-,5+,7-/m1/s1
