18
gdb 119864	3.38342	0.99694	0.78132	2.899	76.21	-0.2433	-0.0179	0.2254	1441.7562	0.147337	-439.123338	-439.114129	-439.113184	-439.15834	32.264	
C	-0.0612749942	 1.4127609852	 0.0107078707	-0.224277
O	 0.0173327452	 0.0069273513	 0.0029296029	-0.239114
C	-1.2483842942	-0.6087430853	 0.0108510542	-0.149725
C	-1.0868962628	-2.0886444491	 0.0023234757	 0.173466
C	 0.0239991668	-2.8277388773	-0.0096347652	-0.190632
C	-0.3225680466	-4.29432909	-0.0143171076	-0.206546
N	-1.7672987143	-4.2656553023	-0.0029355499	-0.338365
C	-2.2817409321	-2.9899444605	 0.0066153907	 0.361743
O	-3.4551350248	-2.6736416343	 0.0164011629	-0.390234
H	 0.9615331282	 1.7966889536	 0.0036865262	 0.127609
H	-0.5924362879	 1.7967458199	-0.8743641038	 0.108061
H	-0.5768267678	 1.7877551187	 0.9087718434	 0.10805
H	-1.8342764202	-0.3074358828	 0.8970994805	 0.113548
H	-1.8495224608	-0.299004102	-0.8621638438	 0.113593
H	 1.0412004093	-2.4627818756	-0.0154060998	 0.126802
H	 0.076553787	-4.8024541467	-0.9044935543	 0.125944
H	 0.0902921411	-4.8113661127	 0.8643820827	 0.125945
H	-2.358451912	-5.07875859	-0.0039199256	 0.254131
62.4442	78.6361	106.2725	121.7247	224.0989	244.221	299.0984	351.0249	410.3855	416.1465	567.3824	648.1459	752.3799	787.2097	842.5653	846.0909	949.3119	995.6594	1012.6468	1043.6375	1071.1386	1139.6431	1170.458	1184.0155	1186.1929	1219.931	1234.7563	1244.6995	1293.249	1351.744	1423.1448	1430.4614	1480.9645	1485.3598	1495.7389	1500.03	1517.0449	1715.5275	1812.149	2950.8956	2966.6211	2974.2494	2996.4515	3017.1865	3018.3219	3116.5235	3241.738	3676.0963
COCC1=CCNC1=O	COCC1=CCNC1=O	
InChI=1S/C6H9NO2/c1-9-4-5-2-3-7-6(5)8/h2H,3-4H2,1H3,(H,7,8)	InChI=1S/C6H9NO2/c1-9-4-5-2-3-7-6(5)8/h2H,3-4H2,1H3,(H,7,8)
