20
gdb 38354	2.25234	2.05745	1.36076	2.1878	78.93	-0.233	0.0104	0.2434	1001.0693	0.174037	-403.134442	-403.126992	-403.126048	-403.166046	30.097	
C	 0.1370976584	 1.6997016768	 0.2885897575	-0.251081
C	 1.6444517656	 1.3564189525	 0.0864796628	 0.012665
C	 1.276789614	-0.1520494995	 0.1852425165	-0.242201
C	-0.233150112	 0.2043336574	 0.0111451174	 0.041048
N	-0.8611729849	-0.1149618398	-1.2540487554	-0.232622
C	-0.3123893856	-0.0838288075	-2.3875247889	 0.094573
O	 0.9351399485	 0.3225526856	-2.78094064	-0.236035
C	 1.3633327755	 1.6607614208	-2.4757823542	-0.070244
C	 2.25861774	 1.7865564591	-1.2477424923	-0.219165
H	-0.0875471469	 1.9776183745	 1.3214313387	 0.101239
H	-0.3187735352	 2.4420443767	-0.3696229772	 0.10152
H	 2.2971264988	 1.7076349795	 0.8905057109	 0.068666
H	 1.7108045844	-0.8208710346	-0.5595541334	 0.112248
H	 1.4697500832	-0.5604186266	 1.1806485556	 0.096048
H	-0.8783939546	-0.2234902439	 0.7821111149	 0.081138
H	-0.8633510344	-0.4779679583	-3.244488872	 0.112222
H	 1.9189118161	 1.988456289	-3.36028274	 0.112834
H	 0.4804535631	 2.3033979386	-2.3852546203	 0.11111
H	 2.5537480161	 2.8439438777	-1.1937584951	 0.098316
H	 3.1800885499	 1.214561292	-1.4168067258	 0.107721
122.3254	196.1841	248.8155	302.7013	311.5236	366.099	423.4263	529.3956	562.7205	715.9445	762.178	780.7835	798.441	818.6298	829.1703	911.4185	935.7277	949.2888	972.6867	997.9256	1034.7746	1068.6604	1089.6131	1110.8362	1123.7817	1163.1667	1188.8929	1212.6858	1244.6988	1273.0137	1273.5813	1302.0764	1313.5282	1363.0661	1384.1678	1400.0074	1422.1505	1428.715	1465.5402	1472.1855	1488.989	1504.1964	1741.0734	3009.8401	3035.551	3052.574	3053.9716	3060.8103	3063.0806	3075.4482	3084.7946	3106.978	3118.1769	3127.3185
C1C2CC1N=COCC2	C1[C@H]2C[C@@H]1N=COCC2	
InChI=1S/C7H11NO/c1-2-9-5-8-7-3-6(1)4-7/h5-7H,1-4H2/b8-5-	InChI=1S/C7H11NO/c1-2-9-5-8-7-3-6(1)4-7/h5-7H,1-4H2/b8-5-/t6-,7+
