22
gdb 117167	2.78155	0.85398	0.71055	4.0979	80.68	-0.2531	0.0232	0.2763	1685.9845	0.192391	-441.530482	-441.519439	-441.518495	-441.568393	39.025	
C	-0.4966368025	 1.2029426249	-0.2444466929	-0.372507
C	 0.4811609306	 0.0924946703	 0.1436846101	-0.149844
N	 1.0796827586	-0.5644160399	-1.0108214239	-0.31197
C	 0.7965800613	-1.8370343326	-1.375928947	 0.393292
O	 0.0414036806	-2.5727701953	-0.7528327442	-0.400366
C	 1.4754941753	-2.3575218664	-2.6549934149	 0.033659
O	 1.29011355	-3.747656711	-2.7129756482	-0.436917
C	 0.9030101489	-1.6698985689	-3.9108939991	-0.175568
C	 1.5336206047	-2.2071573751	-5.1968054845	-0.381941
H	-0.0023521764	 1.9826521362	-0.8343131856	 0.113051
H	-1.3243963053	 0.8014883414	-0.8358453327	 0.134791
H	-0.9103684594	 1.674711152	 0.6522533839	 0.123975
H	 1.2799471387	 0.494284056	 0.7785628903	 0.110553
H	-0.0280209718	-0.6920602795	 0.7065591548	 0.154088
H	 1.7139320551	-0.0345340375	-1.5873662489	 0.248842
H	 2.5551177486	-2.1409672471	-2.5946540233	 0.07652
H	 0.6423037288	-3.9326259053	-2.0103217735	 0.291902
H	-0.1807333643	-1.838745183	-3.9238166447	 0.107734
H	 1.0548196916	-0.5849561921	-3.8384742588	 0.078194
H	 2.6096196899	-2.000712976	-5.2265213967	 0.109164
H	 1.3974333989	-3.2892744704	-5.2587461364	 0.144151
H	 1.0794948681	-1.7477633208	-6.0798838337	 0.109197
22.9904	58.4567	65.5832	99.9539	181.769	208.7934	235.9422	267.9098	318.6867	345.3723	382.5973	444.7651	487.5468	497.1536	527.6452	677.3116	748.0429	777.2449	817.9246	890.768	903.8795	950.9018	1002.0648	1065.3954	1075.9888	1114.1884	1124.6461	1167.0024	1174.4065	1240.5957	1285.6889	1287.1191	1321.1077	1345.2347	1381.1235	1393.7784	1407.141	1412.1315	1454.6031	1474.7876	1485.1652	1492.6815	1495.5946	1502.4959	1510.1935	1561.8492	1759.7849	2965.1841	3019.2524	3035.2854	3035.802	3035.957	3062.1272	3099.2205	3100.9504	3118.8416	3130.7596	3130.8972	3632.2182	3637.4469
CCNC(=O)C(O)CC	CCNC(=O)[C@@H](O)CC	
InChI=1S/C6H13NO2/c1-3-5(8)6(9)7-4-2/h5,8H,3-4H2,1-2H3,(H,7,9)	InChI=1S/C6H13NO2/c1-3-5(8)6(9)7-4-2/h5,8H,3-4H2,1-2H3,(H,7,9)/t5-/m0/s1
