16
gdb 53304	3.26643	0.77787	0.66885	5.5249	79.7	-0.2643	0.0078	0.272	1647.8048	0.121859	-400.716657	-400.706989	-400.706044	-400.753263	32.67	
C	 0.1036217688	 1.5086066277	 0.1446670274	-0.502007
C	 0.0370238521	 0.0562467263	 0.0970443406	 0.112943
C	-0.0159973062	-1.1471380247	 0.0673870294	 0.078115
C	-0.0429068275	-2.5828575796	 0.0161030275	-0.167063
O	-0.683769499	-3.2858881692	 1.1019764926	-0.230352
C	-1.2924109348	-3.3516801553	-0.1757730036	 0.075384
C	-2.628081996	-2.6469780495	-0.3379901583	-0.377916
C	-3.7416636415	-3.4475572046	 0.1691622129	 0.265541
N	-4.6187173949	-4.0898958906	 0.5597598351	-0.29929
H	 1.1390854348	 1.8579057193	 0.0732262272	 0.158814
H	-0.4604542422	 1.9607208025	-0.6781865163	 0.155392
H	-0.3127881109	 1.8882452647	 1.083820472	 0.161346
H	 0.8805853278	-3.0546331919	-0.3182585435	 0.122878
H	-1.2220764786	-4.3233439912	-0.6658532236	 0.116828
H	-2.5973268593	-1.6869913253	 0.1849659162	 0.170704
H	-2.8027721625	-2.4375249587	-1.4002425557	 0.158683
36.5574	47.5834	69.5464	124.6547	155.1536	238.2072	320.8246	372.4595	385.4517	387.3422	501.7367	552.2899	578.6422	746.3289	810.6999	892.8666	923.834	959.1472	1028.2525	1050.5196	1053.2029	1110.1358	1128.347	1188.5373	1233.6318	1284.428	1317.3819	1386.4172	1413.1946	1447.1348	1457.6682	1474.5055	1475.5876	2366.2726	2368.6267	3032.1231	3047.5452	3095.1385	3097.537	3099.4942	3111.2446	3119.7734
CC#CC1OC1CC#N	CC#C[C@H]1O[C@H]1CC#N	
InChI=1S/C7H7NO/c1-2-3-6-7(9-6)4-5-8/h6-7H,4H2,1H3	InChI=1S/C7H7NO/c1-2-3-6-7(9-6)4-5-8/h6-7H,4H2,1H3/t6-,7+/m1/s1
