18
gdb 14350	3.26768	2.02581	1.94837	0.9358	66.48	-0.2483	0.0821	0.3305	810.3928	0.155168	-384.93211	-384.925115	-384.92417	-384.963156	27.225	
C	 0.6365284752	 1.3003341731	 0.2623806701	-0.401198
C	-0.0460331355	-0.0173888015	-0.1068271829	 0.124644
C	 0.5858536629	-0.7276145654	-1.3243720531	-0.25962
C	 1.5505973566	-1.7235962808	-0.6981553911	 0.100848
O	 2.7900667455	-1.1364751601	-0.2271744822	-0.298191
C	 2.4742460818	-1.4626054544	 1.1478504009	-0.105004
C	 1.051066432	-1.9085932066	 0.7525841865	 0.071028
O	 0.018317122	-0.9747334187	 0.9692083402	-0.278757
H	 1.7215796954	 1.1826379819	 0.3184364366	 0.138518
H	 0.4179660686	 2.059386536	-0.4969477694	 0.110456
H	 0.263691505	 1.6627931716	 1.2244719546	 0.119873
H	-1.1133386358	 0.1693766868	-0.267995442	 0.082576
H	-0.1738843564	-1.2725458048	-1.894384516	 0.105461
H	 1.0955741791	-0.0377184719	-2.0012177889	 0.118222
H	 1.7358200788	-2.6139720133	-1.3072995654	 0.076318
H	 3.1155528788	-2.2691323466	 1.5262252538	 0.099999
H	 2.5330951634	-0.5960860498	 1.8139124582	 0.109828
H	 0.7198386826	-2.8873738054	 1.1053936902	 0.084999
124.2768	142.454	258.4202	329.416	367.1109	379.7028	439.4737	638.4426	737.145	789.9396	790.7538	851.8805	877.2065	902.2281	932.4167	957.4491	1010.36	1020.7174	1045.0331	1058.9973	1103.4323	1117.6179	1145.4956	1177.6969	1212.9561	1234.0685	1260.9432	1294.1781	1329.1835	1349.1175	1351.9589	1376.5831	1389.9272	1402.7792	1471.1817	1488.9499	1500.5492	1513.3088	3016.648	3037.3827	3040.6855	3050.8093	3064.3961	3082.3334	3093.153	3106.7844	3114.027	3131.5193
CC1CC2OCC2O1	C[C@H]1C[C@H]2OC[C@H]2O1	
InChI=1S/C6H10O2/c1-4-2-5-6(8-4)3-7-5/h4-6H,2-3H2,1H3	InChI=1S/C6H10O2/c1-4-2-5-6(8-4)3-7-5/h4-6H,2-3H2,1H3/t4-,5+,6+/m0/s1
