19
gdb 72733	2.62423	1.99036	1.56741	3.0634	74.8	-0.2334	0.0604	0.2938	920.7309	0.159804	-422.905909	-422.898553	-422.897609	-422.937123	30.751	
O	-0.0648572727	 1.3826615191	 0.0489580609	-0.453095
C	 0.066017627	-0.0396321727	-0.0413775215	 0.295729
C	-0.0340973447	-0.3519605895	-1.5838436918	-0.185774
O	-1.5095714717	-0.4273413858	-1.4279205989	-0.368828
C	-1.2564883711	-0.7373893117	-0.0258132276	 0.409589
C	-1.444578829	-0.2596682252	 1.4554702957	-0.321243
C	 0.1416408	-0.6143655937	 1.437988744	-0.118897
C	 0.1278786338	-2.1356026007	 1.3013190154	-0.215263
C	-0.9611361428	-2.2454253757	 0.1955618725	-0.262738
H	 0.7941223194	 1.7127001504	 0.3282848942	 0.282551
H	 0.2485755238	 0.4876961046	-2.2193872089	 0.120254
H	 0.377163264	-1.2932532403	-1.9569857624	 0.107482
H	-1.6241181766	 0.8018945429	 1.5789725983	 0.139033
H	-2.072752715	-0.8645211371	 2.1149895137	 0.092401
H	 0.8095458992	-0.159369449	 2.1722419769	 0.067016
H	 1.0937382655	-2.5413711672	 0.9872192817	 0.10034
H	-0.1548984718	-2.625822658	 2.2370769712	 0.102695
H	-1.862681638	-2.7657592169	 0.5292775125	 0.104361
H	-0.6086284892	-2.7440157735	-0.7078692658	 0.104389
135.784	212.0763	282.5782	324.0167	385.2984	444.035	471.6649	491.1149	528.3064	600.3613	639.9053	746.0463	821.8972	836.8449	861.9566	878.2117	898.6936	927.5625	955.5746	957.9202	988.8671	1014.815	1046.9429	1065.9853	1097.7908	1127.5831	1140.9604	1163.8143	1187.8873	1193.276	1234.1666	1243.8904	1253.9864	1275.1985	1293.2259	1315.8541	1370.8935	1479.1026	1482.7293	1497.888	1523.609	3052.7539	3061.0053	3070.2385	3072.4328	3093.0913	3095.4456	3123.5452	3141.396	3210.7803	3826.8782
OC12COC11CC2CC1	O[C@]12CO[C@@]31C[C@H]2CC3	
InChI=1S/C7H10O2/c8-7-4-9-6(7)2-1-5(7)3-6/h5,8H,1-4H2	InChI=1S/C7H10O2/c8-7-4-9-6(7)2-1-5(7)3-6/h5,8H,1-4H2/t5-,6-,7+/m1/s1
