19
gdb 53714	8.86505	0.4204	0.4088	3.1552	83.98	-0.2503	-0.0265	0.2238	2584.7068	0.154652	-422.995926	-422.984687	-422.983743	-423.035845	36.184	
C	-0.0741790906	 1.476648118	-0.0350601174	-0.49894
C	-0.0495284968	 0.0218358082	-0.0510679626	 0.139056
C	-0.0364821232	-1.181117671	-0.0613183891	 0.000256
C	 0.0081673628	-2.6354037474	-0.0777841099	-0.210688
O	-1.2958318846	-3.1666467594	 0.1015200249	-0.242851
C	-1.3083768377	-4.575980454	 0.0875835589	-0.04665
C	-2.7473592644	-5.0360959223	 0.3177792696	-0.281546
C	-2.9148248706	-6.5193607273	 0.0797472401	 0.152953
O	-3.3745128826	-7.2981511862	 0.8735523816	-0.231789
H	 0.7406648545	 1.8810661257	 0.5752663992	 0.150506
H	 0.0262895281	 1.8910118258	-1.0440734491	 0.149615
H	-1.0161903822	 1.8466647703	 0.3840854022	 0.154723
H	 0.4327459201	-2.9897096105	-1.0333032736	 0.114389
H	 0.6788339622	-3.0022850778	 0.7183058442	 0.11662
H	-0.9337236343	-4.9571639304	-0.879286777	 0.090523
H	-0.6464179096	-4.9805055559	 0.8715156236	 0.10239
H	-3.0868576107	-4.7883686862	 1.3258399313	 0.133265
H	-3.3834281129	-4.5056267688	-0.4045015693	 0.135154
H	-2.5762848573	-6.863356091	-0.9265616778	 0.073015
17.325	38.1982	49.731	70.5714	103.4088	122.8456	177.0072	210.5142	277.6785	348.387	377.32	383.2628	518.6823	542.8075	782.7293	800.1449	874.299	993.3425	1021.3596	1027.3661	1051.5638	1057.067	1113.4259	1132.0512	1143.8551	1182.1818	1226.4969	1257.9219	1276.5664	1306.0473	1386.1593	1414.2248	1431.5883	1448.3238	1467.369	1476.0298	1478.6267	1499.2983	1529.599	1839.0982	2381.2286	2848.658	2941.5644	2951.8509	2966.1897	2979.2879	3029.2901	3029.3721	3090.651	3092.36	3119.6607
CC#CCOCCC=O	CC#CCOCCC=O	
InChI=1S/C7H10O2/c1-2-3-6-9-7-4-5-8/h5H,4,6-7H2,1H3	InChI=1S/C7H10O2/c1-2-3-6-9-7-4-5-8/h5H,4,6-7H2,1H3
