21
gdb 115907	3.12666	1.27239	1.13254	0.3222	77.04	-0.2351	0.0778	0.3128	1161.2776	0.184819	-424.213998	-424.205852	-424.204907	-424.246611	32.137	
O	-0.0771458132	 1.4757925082	 0.1614959227	-0.424313
C	 0.0198043984	 0.0564711764	 0.1746253616	-0.088179
C	-1.3795145297	-0.5159687468	-0.0505886691	 0.026961
C	-1.9693237422	-0.1320649812	-1.4381301417	-0.23385
C	-1.7548726142	-1.2339554188	-2.5096428712	-0.204541
C	-1.6646223283	-2.6018963113	-1.8365662746	 0.103657
C	-2.5723012478	-2.707832207	-0.5913390628	-0.263691
C	-1.3560266226	-2.0421676844	 0.0833960273	 0.075179
O	-0.4947099835	-2.5824427018	-0.9637217304	-0.299678
H	 0.8140741581	 1.8357889398	 0.1573143528	 0.285964
H	 0.6956306283	-0.3100889704	-0.6095911864	 0.10401
H	 0.4113512092	-0.3006578203	 1.1416910185	 0.079223
H	-2.025304077	-0.1027655758	 0.7353552808	 0.076273
H	-3.0439926048	 0.0393789189	-1.3226812276	 0.098297
H	-1.5469411675	 0.82271235	-1.7594155082	 0.115721
H	-2.568778477	-1.2126294542	-3.2441260481	 0.091821
H	-0.821355596	-1.0786282704	-3.0615220661	 0.107495
H	-1.6338453784	-3.4356621208	-2.5435250991	 0.071931
H	-3.5323572886	-2.1877135864	-0.5871510245	 0.09964
H	-2.6987095107	-3.7419569503	-0.267801744	 0.108222
H	-1.0485947327	-2.3810576333	 1.0777776301	 0.06986
100.952	138.1606	182.7459	255.1976	292.5836	350.5283	386.0597	432.0122	459.473	566.5431	670.2656	769.587	811.0603	835.3409	881.4126	895.7177	908.6606	942.0774	965.8054	970.2258	1004.7058	1050.9164	1066.9885	1079.1951	1097.9849	1121.1457	1142.9349	1186.5798	1201.9226	1221.3561	1256.5702	1262.6259	1268.6622	1310.2534	1319.9276	1338.9067	1347.8477	1355.5839	1376.0631	1391.5433	1452.3879	1478.7591	1485.7691	1510.2628	1526.0363	2962.6396	3016.6664	3031.2588	3036.154	3053.0161	3058.525	3068.3858	3074.3106	3080.3305	3104.9322	3135.7975	3834.7782
OCC1CCC2CC1O2	OC[C@H]1CC[C@@H]2C[C@H]1O2	
InChI=1S/C7H12O2/c8-4-5-1-2-6-3-7(5)9-6/h5-8H,1-4H2	InChI=1S/C7H12O2/c8-4-5-1-2-6-3-7(5)9-6/h5-8H,1-4H2/t5-,6-,7-/m1/s1
