13
gdb 19895	4.17849	2.088	1.72704	5.9239	61.2	-0.2584	0.0146	0.2731	743.5055	0.095677	-361.383936	-361.37783	-361.376885	-361.414078	23.647	
N	-0.1547715323	-1.213330263	-0.1200888761	-0.355544
C	 0.0237081175	-0.0787954695	 0.0154048086	 0.310034
C	 0.098911366	 1.3603666595	 0.0859285098	-0.162648
C	 0.4896827719	 2.2138090657	 1.2752276852	-0.121266
C	 1.7212100854	 1.6530027444	 2.0536839463	 0.022006
O	 2.1470290957	 0.4334104093	 1.4432177867	-0.214692
C	 2.532868724	 1.6701028145	 0.8406333055	 0.022017
C	 1.3361466508	 2.2315782087	 0.0101156943	-0.121265
H	-0.7257169063	 1.8151674024	-0.4594186358	 0.144391
H	-0.1722906199	 2.9781654327	 1.6594375611	 0.113894
H	 1.9587701582	 1.8132578758	 3.0972983584	 0.12459
H	 3.5859820453	 1.847537337	 0.6653728651	 0.12459
H	 1.4286987039	 3.0117718426	-0.7333885591	 0.113894
149.868	170.2427	344.8931	388.8706	479.5574	620.0041	670.6039	726.5824	735.1766	778.5299	837.3888	863.4001	894.3109	934.9398	944.8977	977.5852	1013.4788	1024.4729	1042.4885	1071.3306	1169.6859	1227.9681	1238.6512	1270.8612	1301.1368	1372.9257	1422.8958	2355.113	3138.7435	3196.7066	3206.5013	3209.2161	3218.2312
N#CC1C2C3OC3C12	N#C[C@H]1[C@H]2[C@H]3O[C@H]3[C@@H]12	
InChI=1S/C6H5NO/c7-1-2-3-4(2)6-5(3)8-6/h2-6H	InChI=1S/C6H5NO/c7-1-2-3-4(2)6-5(3)8-6/h2-6H/t2-,3+,4-,5+,6-
