18
gdb 74392	3.31045	1.54009	1.2011	2.3278	77.05	-0.2172	0.0045	0.2217	1052.3176	0.148113	-401.876634	-401.869205	-401.86826	-401.908041	30.443	
C	-0.0872787944	 1.5263232981	 0.036739118	-0.503444
C	-0.0151315623	 0.0394598075	-0.0344091847	 0.327204
C	-0.0284471089	-0.7929948931	-1.0815131585	-0.288886
C	 0.0746641859	-2.1734235771	-0.4710758761	 0.45671
O	 0.0853720501	-3.2624989393	-1.3136201873	-0.502415
C	-0.7775270713	-2.1678570381	 0.8573182003	-0.086086
N	 0.2262133445	-3.1266572838	 1.4567727635	-0.380292
C	 1.0579955816	-2.0740601923	 0.7594036476	-0.086087
C	 0.0970216838	-0.9039788177	 1.1641182663	-0.148359
H	 0.7989792236	 1.9472797965	 0.5289738072	 0.127772
H	-0.163561638	 1.9699730777	-0.9598110101	 0.128433
H	-0.9539186156	 1.8577151585	 0.6233035023	 0.127761
H	-0.0957575299	-0.5799290941	-2.1389008119	 0.107005
H	 0.1557197392	-4.0365917487	-0.7361669794	 0.29038
H	-1.8570355824	-2.2971304398	 0.9773526509	 0.078054
H	 0.2737529111	-2.9983172233	 2.4709005019	 0.209489
H	 2.1516633285	-2.0922853391	 0.7635163521	 0.078053
H	 0.1314261844	-0.5142139018	 2.182467058	 0.064707
165.1605	178.3558	252.0416	303.7791	325.8003	439.11	496.2979	526.2763	532.7447	565.9864	674.2211	732.2546	769.7944	806.487	842.0114	867.5438	892.3484	905.7826	940.4521	1016.9516	1039.8463	1041.2753	1068.2066	1099.999	1117.8871	1122.961	1140.5889	1149.637	1211.8108	1226.3538	1277.0259	1283.3775	1318.6693	1351.7174	1414.4087	1426.8071	1477.9807	1487.1872	1696.7763	3014.3117	3058.0936	3074.5255	3080.0412	3109.008	3114.4421	3235.2548	3404.1296	3738.3802
CC1=CC2(O)C3NC2C13	CC1=C[C@]2(O)[C@H]3N[C@@H]2[C@@H]13	
InChI=1S/C7H9NO/c1-3-2-7(9)5-4(3)6(7)8-5/h2,4-6,8-9H,1H3	InChI=1S/C7H9NO/c1-3-2-7(9)5-4(3)6(7)8-5/h2,4-6,8-9H,1H3/t4-,5-,6+,7-
