14
gdb 20948	7.76567	1.12309	0.99581	4.2144	60.62	-0.2478	-0.0559	0.1919	1124.8235	0.107005	-411.986367	-411.978842	-411.977898	-412.019038	26.196	
C	-0.0419570715	 1.5340014009	-0.0696158536	-0.405379
C	-0.0058823269	 0.0220223356	 0.116278874	-0.114591
N	-1.3455271099	-0.5414058305	-0.0162720512	-0.378354
C	-1.5376786365	-1.8809271212	-0.0069756106	 0.527417
N	-0.6127667592	-2.8020538284	-0.1220450658	-0.208366
O	-1.335626675	-3.9736762212	-0.1110434563	-0.147324
N	-2.667014343	-3.6853757929	 0.0266011527	 0.051327
N	-2.8084095237	-2.4357560896	 0.0916517931	-0.239528
H	 0.9653500174	 1.9482596835	 0.0200903006	 0.134445
H	-0.4392347933	 1.7989503796	-1.0535845167	 0.136467
H	-0.6661140418	 2.0126686828	 0.6935635692	 0.122942
H	 0.6262745741	-0.4442382005	-0.6460049751	 0.142057
H	 0.4331576739	-0.2371452962	 1.090903373	 0.117323
H	-2.1155380046	-0.0049129619	 0.3536073767	 0.261564
52.3545	107.852	137.307	253.2331	339.9797	354.3878	418.9517	477.6852	644.5308	774.1574	794.4739	805.9582	819.122	920.9122	941.732	1057.0406	1069.9583	1119.506	1155.2459	1170.9185	1269.9965	1304.967	1391.0633	1417.5639	1454.2798	1492.6288	1499.2097	1525.8725	1556.5151	1665.6618	3000.683	3038.3067	3074.8035	3109.4788	3128.4569	3624.7563
CCNC1=NON=N1	CCNc1nonn1	
InChI=1S/C3H6N4O/c1-2-4-3-5-7-8-6-3/h2H2,1H3,(H,4,6)	InChI=1S/C3H6N4O/c1-2-4-3-5-7-8-6-3/h2H2,1H3,(H,4,6)
