18
gdb 40527	4.06784	1.16108	1.12058	3.1185	78.19	-0.2206	0.0019	0.2225	1146.6594	0.149384	-401.867078	-401.859834	-401.85889	-401.899262	28.63	
C	 0.1765293459	 1.5141533423	 0.0513596939	-0.242318
N	 1.2805457745	 0.5617501668	-0.0748988161	-0.308399
C	-0.1020250159	 0.0440332458	 0.0572691183	-0.190179
C	-0.4212597723	-0.6890359624	 1.2842926531	 0.462781
C	-1.3161443351	-1.6459010934	 1.556530252	-0.245347
C	-1.0551931939	-1.8907194863	 3.0535238781	 0.028471
C	-0.9932190989	-0.4356210302	 3.6092119854	-0.221275
C	 0.2470742803	-0.5088409788	 2.6686725136	-0.043645
O	 0.4125950811	-1.899455295	 3.0982022726	-0.28332
H	 0.1561210022	 2.0697534662	 0.9851204399	 0.121305
H	-0.1426427731	 2.0820702568	-0.8189850395	 0.116683
H	 1.5834987098	 0.4938672133	-1.0425852649	 0.237485
H	-0.5765838173	-0.3446602072	-0.8414218187	 0.0869
H	-2.0401021279	-2.1380122495	 0.9237598878	 0.10479
H	-1.5328906017	-2.7242642212	 3.5665171354	 0.079412
H	-1.8033658642	 0.2557569299	 3.3663153136	 0.094114
H	-0.7171484553	-0.3967022733	 4.6656488018	 0.10644
H	 1.1381616518	 0.1088532561	 2.7578263335	 0.096104
72.1497	128.8856	158.4352	351.8325	430.3796	490.1423	551.1459	624.3112	669.5665	774.4702	790.0433	823.2297	840.2031	857.7035	885.3503	890.9854	911.9774	923.8545	935.9135	969.5739	1020.0699	1046.3019	1084.7122	1090.3218	1117.645	1148.8361	1162.4723	1201.9804	1227.0946	1232.9668	1244.7895	1253.2533	1284.7194	1300.5142	1327.3336	1416.9864	1485.8674	1510.2906	1683.1731	3060.6468	3104.4284	3127.3057	3132.1933	3135.4576	3152.8906	3190.2769	3239.5516	3509.8219
C1NC1C1=CC2CC1O2	C1N[C@H]1C1=C[C@@H]2C[C@H]1O2	
InChI=1S/C7H9NO/c1-4-2-7(9-4)5(1)6-3-8-6/h1,4,6-8H,2-3H2	InChI=1S/C7H9NO/c1-4-2-7(9-4)5(1)6-3-8-6/h1,4,6-8H,2-3H2/t4-,6-,7-/m1/s1
