17
gdb 78478	3.47068	1.44846	1.42313	0.9731	65.65	-0.2535	0.0722	0.3257	960.8398	0.138062	-458.929933	-458.923272	-458.922328	-458.960675	27.625	
O	-0.1336967169	 1.4549889276	 0.0044943231	-0.437622
C	 0.0326786829	 0.06800292	-0.0295931952	 0.072082
C	-1.2581070037	-0.6979568413	 0.065657259	-0.080758
C	-0.4725148589	-0.6776482347	-1.2408708949	-0.108777
C	-0.1148505188	-2.1689864297	-1.360918906	 0.160167
O	 0.8757889986	-2.524487914	-0.384509831	-0.280297
C	 0.1298389292	-2.6782925557	 0.8404301909	-0.104204
C	-1.262224749	-2.2029391968	 0.4013839034	 0.021033
O	-1.2903506288	-2.8173291862	-0.911656369	-0.247536
H	 0.5882246432	 1.8515561944	-0.4945543725	 0.288887
H	 0.9287585851	-0.3037198225	 0.4602150108	 0.110511
H	-2.16967471	-0.1249124388	 0.1810794035	 0.106076
H	-0.8181384935	-0.1315359754	-2.1108910446	 0.0963
H	 0.1884922111	-2.5320392231	-2.3415356803	 0.095065
H	 0.1174447706	-3.7318808823	 1.1396347651	 0.110148
H	 0.5795199905	-2.0743743713	 1.6340585393	 0.108344
H	-2.1019156415	-2.5510047102	 0.9990519086	 0.090582
214.1021	248.9199	293.6307	307.2532	395.0665	416.919	534.345	605.2987	677.6525	771.0943	787.5991	846.807	870.6925	888.0538	908.6807	924.5326	968.0051	972.3853	992.0121	1009.8849	1037.6507	1062.2828	1096.1915	1112.7096	1151.8956	1170.7102	1194.8677	1240.2323	1266.624	1283.2133	1293.4585	1304.5916	1319.3616	1339.4582	1371.3829	1460.4435	1519.5166	3039.3316	3089.6217	3135.039	3143.096	3151.2108	3181.614	3195.4067	3809.2539
OC1C2C1C1OCC2O1	O[C@H]1[C@H]2[C@@H]1[C@H]1OC[C@@H]2O1	
InChI=1S/C6H8O3/c7-5-3-2-1-8-6(9-2)4(3)5/h2-7H,1H2	InChI=1S/C6H8O3/c7-5-3-2-1-8-6(9-2)4(3)5/h2-7H,1H2/t2-,3+,4-,5-,6-/m0/s1
