18
gdb 81980	2.40868	1.46347	1.32202	4.8858	76.18	-0.2439	0.0227	0.2667	1065.2286	0.147877	-398.087131	-398.078414	-398.07747	-398.120035	33.303	
C	-0.2019220843	 1.6127347273	 0.1121519528	-0.445804
C	-0.0022375148	 0.1015195402	 0.0346581659	 0.113928
C	-1.2926749616	-0.5526667952	-0.1792511106	 0.277965
N	-2.3067070486	-1.0618627942	-0.4010716935	-0.345387
C	 1.1087758226	-0.4963411211	-0.9631095841	-0.040814
N	 1.9234727755	 0.305588185	-1.831764992	-0.510033
C	 1.7715749397	-1.0615769602	 0.2836673382	-0.006223
C	 2.0437991039	-0.0242591222	 1.2949755618	-0.254468
N	 0.6747452631	-0.5661557398	 1.2173115147	-0.14415
H	 0.7480337223	 2.1511346849	 0.1108548348	 0.114123
H	-0.7828027338	 1.960252066	-0.7466056147	 0.141291
H	-0.7476098929	 1.8729860215	 1.0234963055	 0.152543
H	 0.6507644467	-1.2881817169	-1.558554366	 0.118626
H	 1.4030025564	 0.6561772516	-2.6280981873	 0.240406
H	 2.3476371488	 1.0933485095	-1.3566082551	 0.231809
H	 2.1721426482	-2.0658491544	 0.3642879472	 0.10944
H	 2.5521876443	-0.3406892209	 2.2002201575	 0.136616
H	 2.2482736745	 1.0045707588	 1.0153858048	 0.110133
130.267	152.0299	159.4517	200.3121	225.7726	308.5848	332.1137	390.1624	457.5519	508.9829	556.0217	572.8884	638.7349	727.1951	758.7382	805.1722	814.9721	870.9977	927.5093	964.6721	1002.3967	1064.169	1090.7927	1113.8883	1124.243	1138.4354	1167.9263	1193.6212	1217.706	1249.8633	1300.156	1370.9276	1407.2687	1438.8353	1484.1018	1485.5955	1509.1639	1659.2837	2351.364	3050.3489	3098.086	3121.7148	3124.4603	3131.7735	3178.1502	3207.8656	3519.7891	3606.3158
CC1(C#N)C(N)C2CN12	C[C@@]1(C#N)[C@@H](N)[C@H]2CN12	
InChI=1S/C6H9N3/c1-6(3-7)5(8)4-2-9(4)6/h4-5H,2,8H2,1H3	InChI=1S/C6H9N3/c1-6(3-7)5(8)4-2-9(4)6/h4-5H,2,8H2,1H3/t4-,5+,6-,9?/m1/s1
