18
gdb 114509	2.72818	1.30822	1.02667	1.331	71.69	-0.2333	-0.0328	0.2005	1174.2056	0.147052	-439.042435	-439.03397	-439.033026	-439.07626	31.236	
O	-0.0793046473	 1.4023121339	-0.2733488288	-0.421787
C	 0.0478649509	-0.0040830208	-0.1278299473	-0.103884
C	-1.3506946764	-0.5534820602	 0.0785360837	 0.018454
C	-2.3294198292	-0.5675337504	-1.1259632404	-0.186576
N	-2.6305728422	-2.0283703273	-0.9311298597	-0.128121
C	-1.839683	-2.9063983681	-1.8467465474	-0.304398
C	-0.6941785468	-2.9521530716	-0.815185953	 0.393624
O	 0.3891141493	-3.4532991858	-0.760810464	-0.290834
C	-1.5483382476	-2.0909122872	 0.1351384102	-0.150072
H	 0.7948404902	 1.7701496693	-0.4326694718	 0.291025
H	 0.507456705	-0.4578126656	-1.0196888092	 0.092669
H	 0.6820095802	-0.2690891448	 0.7333640167	 0.099136
H	-1.7894439638	-0.0682418816	 0.9538432449	 0.098337
H	-3.2190764376	 0.0572268729	-1.0214465247	 0.117319
H	-1.8584072955	-0.3397861817	-2.0898824827	 0.103359
H	-2.3154917472	-3.8817789973	-2.0020123357	 0.138556
H	-1.5958672848	-2.4785846758	-2.8256747746	 0.129848
H	-1.7845266972	-2.5443331678	 1.1020989638	 0.103346
68.4514	90.4999	97.6652	224.4465	271.3257	368.5613	383.9586	404.6637	441.8735	544.472	638.2782	728.3926	749.9937	862.5379	892.1574	916.8356	935.9722	961.5042	986.9305	1042.1343	1065.7812	1081.6348	1105.3051	1152.9307	1159.9944	1181.972	1194.6731	1202.5511	1248.7082	1255.8287	1279.0035	1303.2478	1308.8049	1363.9012	1449.826	1463.772	1506.1737	1520.7215	1894.301	2970.5488	2999.4739	3029.5502	3034.4019	3068.0232	3081.2556	3082.2757	3102.331	3830.6154
OCC1CN2CC(=O)C12	OC[C@H]1CN2CC(=O)[C@@H]12	
InChI=1S/C6H9NO2/c8-3-4-1-7-2-5(9)6(4)7/h4,6,8H,1-3H2	InChI=1S/C6H9NO2/c8-3-4-1-7-2-5(9)6(4)7/h4,6,8H,1-3H2/t4-,6-/m1/s1
