18
gdb 102742	3.24439	0.91596	0.75115	4.7446	72.56	-0.2781	0.0274	0.3055	1480.1774	0.14625	-439.06728	-439.057681	-439.056736	-439.102982	33.571	
O	 0.043252562	 1.4290128867	 0.1730286996	-0.415745
C	 0.0243070707	 0.0411654335	-0.04969138	-0.068809
C	-1.4069546444	-0.5551981317	-0.0160166892	-0.163347
C	-1.4009704595	-2.0688928105	-0.3186499411	-0.238864
C	-2.7798415799	-2.6504568053	-0.5196437502	 0.089908
C	-3.0989907694	-4.0351571861	-0.152357977	-0.181258
O	-3.5347325754	-2.940717043	 0.6552280983	-0.214772
C	-2.0019607506	-0.2375300431	 1.2859170334	 0.282405
N	-2.3920962891	 0.0799940381	 2.3269841815	-0.327942
H	-0.2563397992	 1.5930616784	 1.0751752563	 0.300468
H	 0.4375413065	-0.1187609822	-1.0504314126	 0.119919
H	 0.6562603519	-0.5045300325	 0.6674978866	 0.107263
H	-1.9954801769	-0.0325286151	-0.7806478678	 0.135023
H	-0.8159886048	-2.2226237555	-1.2343939783	 0.11576
H	-0.8948769325	-2.6065363975	 0.4895866954	 0.124476
H	-3.3648798043	-2.189573688	-1.3186515037	 0.096698
H	-3.8853655475	-4.5683095142	-0.6840765003	 0.12107
H	-2.3276686478	-4.6644721623	 0.289986599	 0.117748
42.803	70.9926	103.225	142.4354	174.1396	228.7097	288.954	336.2404	393.2064	442.9877	448.6492	558.9127	626.6388	782.0226	805.0946	867.9253	913.6215	953.5111	1020.3035	1039.0737	1072.5444	1088.2157	1107.7988	1130.3134	1160.8934	1169.535	1204.5896	1237.5568	1277.8623	1296.336	1348.5953	1368.0709	1392.7598	1424.2916	1449.7162	1467.9596	1503.5824	1529.6478	2351.8803	2991.1572	3031.8331	3040.1539	3079.004	3084.4573	3085.9295	3097.4605	3172.3277	3792.418
OCC(CC1CO1)C#N	OC[C@@H](C[C@H]1CO1)C#N	
InChI=1S/C6H9NO2/c7-2-5(3-8)1-6-4-9-6/h5-6,8H,1,3-4H2	InChI=1S/C6H9NO2/c7-2-5(3-8)1-6-4-9-6/h5-6,8H,1,3-4H2/t5-,6-/m0/s1
