15
gdb 45516	4.42812	1.3456	1.08725	2.9394	67.32	-0.2645	-0.0071	0.2574	1049.9258	0.116193	-454.008481	-454.00188	-454.000936	-454.039579	25.853	
O	-0.0218024633	 0.0153244408	 0.2039131537	-0.360735
C	-0.0251408042	 1.1828322896	-0.0382893864	 0.475833
N	-1.1516789914	 2.0302633692	-0.0934835124	-0.45814
C	-0.718884342	 3.3327552313	-0.1591193577	 0.406486
N	-1.1674712676	 4.448804141	 0.2395241665	-0.306235
C	-0.0152273134	 5.3820849779	 0.110401858	-0.169665
C	 1.271485323	 4.4882058864	 0.0552502881	-0.268619
C	 0.6989684627	 3.2610122544	-0.6491412372	 0.044386
O	 1.0982195129	 1.9240351248	-0.2960234654	-0.253723
H	-2.0132574247	 1.726907577	 0.3334787882	 0.283067
H	-0.1175180586	 5.9898148447	-0.7980709228	 0.11747
H	-0.010699342	 6.0689857915	 0.9601060363	 0.123637
H	 2.1090006652	 4.9554412213	-0.4653086686	 0.116049
H	 1.58551711	 4.2218880056	 1.0691303654	 0.130396
H	 0.7658431634	 3.3497740345	-1.7413145057	 0.119792
127.1876	182.345	290.2108	351.2358	431.7194	524.4621	567.7597	606.686	675.7283	716.2888	767.2247	771.4013	849.887	868.2038	916.4282	935.9217	978.5899	997.394	1079.5367	1107.8897	1156.3768	1183.8969	1207.7914	1281.4837	1298.2292	1327.0597	1344.438	1373.026	1391.6795	1487.4569	1505.6534	1781.3195	1916.8603	3026.3362	3028.5439	3068.2146	3098.5452	3132.0417	3647.73
O=C1NC2=NCCC2O1	O=C1N[C]2[N]CC[C@H]2O1	
InChI=1S/C5H6N2O2/c8-5-7-4-3(9-5)1-2-6-4/h3H,1-2H2,(H,6,7,8)	InChI=1S/C5H6N2O2/c8-5-7-4-3(9-5)1-2-6-4/h3H,1-2H2,(H,6,7,8)/t3-/m1/s1
