21
gdb 38960	2.89399	1.68774	1.4077	1.4018	80.16	-0.2316	0.0781	0.3097	1011.1355	0.186028	-387.096374	-387.08921	-387.088266	-387.127882	29.779	
C	 0.1392956511	 1.6702159754	 0.1915560588	-0.314979
C	 1.3354690032	 0.7846382323	-0.0224744796	 0.101501
O	 2.0696359292	 0.4553206747	 1.1278043973	-0.283496
C	 1.4713633671	-0.6791539488	 1.77799701	 0.128353
C	 1.4622406439	-0.4667538057	 3.2914188674	-0.218014
C	 0.2029727021	 0.379026686	 3.5433068903	-0.209046
C	-0.8349261436	-0.2032084364	 2.5588068635	-0.22446
C	-0.0224548549	-0.7015229145	 1.3290377723	-0.037292
C	-0.0270505963	 0.1643581202	 0.0682856848	-0.080718
H	 0.032455799	 2.1409227899	 1.1620572434	 0.119726
H	-0.2084175588	 2.2702290988	-0.6434610316	 0.10832
H	 1.9224020973	 0.8306823147	-0.9348816882	 0.090137
H	 2.0171550131	-1.5850402485	 1.4808305822	 0.062437
H	 1.369163181	-1.4419164221	 3.7853613474	 0.092883
H	 2.3877357026	-0.0021346867	 3.6404062252	 0.108357
H	-0.1347403727	 0.3447425154	 4.5828344558	 0.091939
H	 0.4147499128	 1.4268057035	 3.3061457147	 0.110628
H	-1.3487034508	-1.0506133123	 3.0261129165	 0.094125
H	-1.6046627195	 0.5202203117	 2.2771389758	 0.100993
H	-0.3313944161	-1.7145518052	 1.0582871263	 0.071377
H	-0.5294210297	-0.2163976222	-0.8131636623	 0.087229
92.2116	183.9204	229.8252	359.583	379.3957	471.7188	549.6235	612.6142	679.5197	725.9201	797.681	806.9612	826.0734	841.3369	854.3177	902.1793	925.5915	934.598	977.9864	993.1449	1010.1708	1025.8609	1051.4547	1053.1838	1097.9633	1101.5279	1119.7022	1142.8045	1160.7099	1195.1422	1207.3825	1231.7214	1275.7063	1294.5999	1313.7862	1320.9472	1336.577	1352.806	1358.2538	1371.5492	1389.81	1468.4842	1475.7007	1487.004	1502.2989	3001.3494	3037.7504	3038.3787	3051.6555	3069.3389	3088.7577	3098.8487	3106.9966	3130.4232	3149.049	3174.0527	3221.0736
C1C2OC3CCCC3C12	C1[C@H]2O[C@H]3CCC[C@H]3[C@@H]12	
InChI=1S/C8H12O/c1-2-5-6-4-8(6)9-7(5)3-1/h5-8H,1-4H2	InChI=1S/C8H12O/c1-2-5-6-4-8(6)9-7(5)3-1/h5-8H,1-4H2/t5-,6+,7-,8+/m0/s1
