17
gdb 67409	2.72642	1.53474	1.27851	3.8568	78.81	-0.2389	0.0196	0.2586	1033.7379	0.137362	-380.829083	-380.821401	-380.820457	-380.861141	29.648	
C	-0.1518077829	 1.5177574657	-0.0539613705	-0.529184
C	-0.0140368445	 0.0349414512	 0.0032274051	 0.293268
C	 0.0715556926	-1.0413848337	-1.0176087676	-0.112196
N	 1.2856027345	-1.6066488936	-0.461245057	-0.297919
C	 0.9036989345	-0.9608689147	 0.8290000621	-0.08746
C	-0.3782851159	-1.6880310534	 1.3238719991	-0.301901
C	-1.0579831647	-1.0907323223	 0.0930858685	 0.159987
C	-2.4367220643	-1.0300433444	-0.233152729	 0.159806
N	-3.5613089247	-0.9734359717	-0.5089300912	-0.359223
H	 0.7845389503	 1.9852585222	-0.3762901379	 0.138695
H	-0.9351626685	 1.801157656	-0.7640363603	 0.145428
H	-0.4213015835	 1.9331353405	 0.9228271659	 0.133327
H	-0.1826901374	-1.0375530535	-2.0700433404	 0.119054
H	 1.3039218341	-2.6269790161	-0.4175652694	 0.217861
H	 1.7099094328	-0.6999329537	 1.5111771654	 0.09295
H	-0.3315192759	-2.7781941502	 1.4242512583	 0.103658
H	-0.7692738065	-1.2445930982	 2.2424745289	 0.123848
115.0178	155.6178	203.6737	224.5461	282.2552	439.715	453.5078	531.5273	546.4127	577.1048	667.7914	683.6653	771.7681	819.1254	913.1193	921.9635	944.0387	959.8986	996.7242	1046.1014	1081.686	1101.2236	1106.4233	1126.4653	1166.0065	1184.8038	1224.4716	1237.7186	1276.2272	1322.0772	1358.9501	1412.2582	1463.9149	1482.8397	1492.6898	1500.5473	2332.0606	3032.5477	3040.8793	3097.7507	3107.0164	3114.1669	3143.4053	3204.2344	3430.9354
CC12C3NC1CC23C#N	C[C@@]12[C@H]3N[C@@H]1C[C@@]23C#N	
InChI=1S/C7H8N2/c1-6-4-2-7(6,3-8)5(6)9-4/h4-5,9H,2H2,1H3	InChI=1S/C7H8N2/c1-6-4-2-7(6,3-8)5(6)9-4/h4-5,9H,2H2,1H3/t4-,5-,6+,7+/m1/s1
