20
gdb 81586	3.18875	1.28662	1.09703	1.639	79.79	-0.2264	0.0856	0.312	1178.5891	0.171558	-403.036284	-403.02816	-403.027216	-403.069235	31.384	
C	-0.039238149	 1.6254961713	 0.2193854294	-0.445442
C	 0.0300565479	 0.1193904894	 0.0469089458	 0.088066
C	 0.711075176	-0.5788924319	-1.1624025275	-0.11514
C	 2.0414485835	-0.1710400293	-0.4956363467	-0.176247
N	 1.2151331277	-0.6516720327	 0.7154203877	-0.185941
C	 0.8241500452	-1.810743593	-0.2241509076	 0.034152
C	-0.2839027203	-2.7605526118	 0.1526115268	 0.030155
C	-0.5529551421	-3.1207100244	 1.5522226363	-0.177392
O	-1.4830370629	-2.3330671221	 0.8007804815	-0.224035
H	 0.828390969	 2.1733346699	-0.1538547519	 0.116696
H	-0.9215397153	 2.0062507724	-0.3066016615	 0.121584
H	-0.1603053151	 1.867959017	 1.2805428354	 0.131753
H	-0.917927392	-0.3150352203	 0.3546247168	 0.115536
H	 0.4343434772	-0.5504644005	-2.2230427082	 0.060734
H	 2.9233705801	-0.7879580213	-0.690266859	 0.097044
H	 2.3127386458	 0.8823663889	-0.4555665238	 0.103822
H	 1.6931003205	-2.449048695	-0.4340644725	 0.075579
H	-0.4542739679	-3.5283348218	-0.6057126627	 0.095801
H	-0.8899498418	-4.1256144509	 1.8002783809	 0.114875
H	-0.0245078765	-2.5840056539	 2.3369188409	 0.138399
65.5299	149.1962	173.0031	201.5699	279.3322	319.3508	430.5502	448.8386	563.5125	658.2867	732.4678	775.0535	778.6323	825.3271	850.1427	896.2429	907.8163	920.4402	989.1827	1023.2542	1040.8138	1065.1449	1093.8195	1106.2907	1117.683	1147.3367	1157.1442	1167.4053	1173.0259	1179.0595	1201.1637	1231.481	1248.886	1279.306	1301.4427	1406.9078	1423.7062	1430.095	1448.1332	1494.4307	1496.2844	1522.0092	1546.5849	3013.7245	3029.8675	3039.563	3066.4859	3083.7245	3094.5081	3098.3376	3117.4209	3149.6735	3156.3167	3189.563
CC1C2CN1C2C1CO1	C[C@H]1[C@H]2CN1[C@H]2[C@H]1CO1	
InChI=1S/C7H11NO/c1-4-5-2-8(4)7(5)6-3-9-6/h4-7H,2-3H2,1H3	InChI=1S/C7H11NO/c1-4-5-2-8(4)7(5)6-3-9-6/h4-7H,2-3H2,1H3/t4-,5+,6+,7+/m0/s1
