19
gdb 115452	4.18405	0.88745	0.8381	2.4704	73.37	-0.2552	-0.0258	0.2294	1412.3842	0.158325	-460.174016	-460.16479	-460.163846	-460.209328	32.339	
C	 0.0556227788	 1.1255777854	 0.6235451801	-0.244473
O	-0.1714722617	-0.2547275137	 0.3980179198	-0.249634
C	-1.3179382544	-0.518136195	-0.3657886091	 0.220695
C	-1.4269418353	-2.0316158386	-0.5327432961	-0.27434
C	-2.1049965066	-2.4558761914	 0.7903195936	-0.09005
C	-2.9130467327	-1.1837243164	 1.1731208001	-0.109697
O	-2.5087165571	-0.1381168926	 0.2866703968	-0.254082
C	-3.0037680943	-3.6557525327	 0.6105480373	 0.147848
O	-2.9145252582	-4.6916468273	 1.2146203913	-0.245416
H	 0.9678330002	 1.2061605733	 1.2181057442	 0.128883
H	 0.1978667927	 1.665723446	-0.3247277442	 0.107527
H	-0.777374174	 1.5867696378	 1.1665892948	 0.126423
H	-1.2889919369	 0.0502141473	-1.3062673725	 0.077771
H	-2.0719744091	-2.2521765066	-1.3900067573	 0.111805
H	-0.4573387233	-2.5054014289	-0.6860283787	 0.131978
H	-1.3594072694	-2.6901749015	 1.5509101177	 0.110678
H	-3.9943484071	-1.3199972297	 1.0484924943	 0.110726
H	-2.7225640245	-0.9046792274	 2.2146226278	 0.120289
H	-3.797928847	-3.5030613681	-0.1610742098	 0.07307
42.577	76.9331	95.4084	135.7905	193.5647	266.5384	312.6533	330.4012	384.5127	470.0245	553.9703	696.6167	783.3636	863.8497	881.4105	939.2245	950.5388	967.759	1008.7221	1024.4478	1078.5405	1095.7518	1124.9334	1149.4947	1181.4152	1191.6722	1224.448	1244.3586	1280.1735	1311.9819	1335.103	1342.3156	1390.4451	1399.5543	1426.1962	1477.1222	1478.45	1484.7031	1513.3463	1518.5462	1837.1069	2834.2819	2991.51	3012.8826	3026.7669	3057.2203	3064.8884	3067.1603	3110.3027	3127.532	3140.03
COC1CC(CO1)C=O	CO[C@H]1C[C@@H](CO1)C=O	
InChI=1S/C6H10O3/c1-8-6-2-5(3-7)4-9-6/h3,5-6H,2,4H2,1H3	InChI=1S/C6H10O3/c1-8-6-2-5(3-7)4-9-6/h3,5-6H,2,4H2,1H3/t5-,6-/m1/s1
