17
gdb 52206	3.85544	0.77368	0.70898	3.2268	77.72	-0.247	0.025	0.2719	1565.8042	0.135191	-417.967174	-417.957862	-417.956917	-418.002962	33.078	
O	-0.3663449599	 0.8623071632	-0.8543861452	-0.324202
C	-0.0458974428	 1.454701835	 0.1548338744	 0.153333
N	 1.1957987057	 1.454969714	 0.7069382516	-0.268512
C	 2.3318284128	 0.762879205	 0.121861327	-0.182183
C	 3.385133912	 1.7418264344	-0.3453766965	-0.011227
N	 4.1179504095	 2.4338320481	 0.7218266827	-0.333813
C	 4.8487587584	 1.4866273036	-0.157520479	-0.245976
C	 5.3638160532	 0.2828334485	 0.4358925916	 0.378653
C	 5.8144794535	-0.7304345827	 0.9001468861	-0.440585
H	-0.7556646245	 2.0661168203	 0.7470903611	 0.073542
H	 1.3660204338	 2.0191634461	 1.5248179486	 0.256207
H	 2.7702840695	 0.0768481833	 0.8528554983	 0.127274
H	 1.9475265438	 0.1786455576	-0.716929077	 0.151091
H	 3.1137419426	 2.3211414865	-1.2260463989	 0.104443
H	 4.3423747723	 3.386425008	 0.4462615305	 0.240813
H	 5.4982418996	 1.9221938439	-0.9139269615	 0.117633
H	 6.2091301306	-1.6233212548	 1.3184088162	 0.203509
33.3799	46.6001	102.4274	166.4528	227.2333	248.2693	304.7514	371.528	466.3227	553.8577	566.486	599.5982	624.7747	663.5878	744.5507	805.9884	841.2474	904.4851	951.5633	987.295	1006.1241	1034.7867	1048.5298	1130.059	1184.9401	1208.7614	1231.7753	1247.9523	1301.2128	1360.3079	1409.0118	1430.0729	1458.8589	1478.8735	1529.9561	1804.3643	2240.9492	2934.908	3062.5594	3120.7912	3128.5387	3136.5179	3502.507	3505.5472	3633.8106
O=CNCC1NC1C#C	O=CNC[C@H]1N[C@H]1C#C	
InChI=1S/C6H8N2O/c1-2-5-6(8-5)3-7-4-9/h1,4-6,8H,3H2,(H,7,9)	InChI=1S/C6H8N2O/c1-2-5-6(8-5)3-7-4-9/h1,4-6,8H,3H2,(H,7,9)/t5-,6+/m0/s1
