21
gdb 95619	2.04502	1.74472	1.16838	4.1095	78.25	-0.2314	-0.0058	0.2256	1138.962	0.182874	-424.26978	-424.260695	-424.259751	-424.303264	34.861	
C	-0.0583023081	 1.5535448741	-0.0003360425	-0.401446
C	 0.0992360886	 0.0342170368	 0.0138555983	-0.084442
C	 0.7938083729	-0.5136565332	-1.249958796	 0.110521
O	 2.0745906318	 0.110923933	-1.3078574784	-0.425878
C	 0.9238914355	-2.0430056045	-1.2057222631	-0.233273
C	 1.7150736037	-2.4960774594	 0.0263770202	-0.193528
C	 1.0714396623	-1.9695938491	 1.3221868735	-0.295081
C	 0.8217262772	-0.4669595007	 1.2707889038	 0.398803
O	 1.1402128547	 0.2719748838	 2.172074719	-0.30927
H	 0.9189179439	 2.0367342656	-0.048222201	 0.14485
H	-0.6454330332	 1.8698612263	-0.8686444139	 0.099261
H	-0.5604874715	 1.897762132	 0.9060101344	 0.124435
H	-0.8947750678	-0.4386514503	 0.0351108861	 0.088331
H	 0.1936002243	-0.2208576778	-2.1259729437	 0.064097
H	 2.5106866544	-0.1694914309	-2.118685551	 0.28488
H	-0.0811340122	-2.4856649102	-1.2014097965	 0.096825
H	 1.4120137323	-2.3938168941	-2.1241439415	 0.086903
H	 1.7842865793	-3.5879991538	 0.0596811056	 0.097885
H	 2.737013087	-2.1101608228	-0.0470770807	 0.116946
H	 0.0962958708	-2.4586098381	 1.4637459878	 0.111288
H	 1.6804029241	-2.1868751264	 2.2028324794	 0.117892
84.944	123.652	182.5603	222.8957	263.539	279.1605	291.1356	363.7163	393.9352	440.1298	507.0538	575.4416	594.7711	686.003	755.4354	829.422	859.9787	870.8977	927.6023	972.7134	994.93	999.8112	1063.3302	1081.7373	1096.2804	1139.9115	1154.2041	1168.7249	1220.7888	1229.3335	1270.8333	1312.9117	1334.5103	1346.3053	1357.0006	1370.9621	1396.5671	1407.0207	1432.4848	1466.0061	1483.4039	1486.7152	1493.8704	1498.4309	1816.189	2969.1831	2995.741	3009.7891	3017.9539	3044.1555	3049.1456	3055.1809	3089.7375	3106.2107	3121.588	3146.6521	3819.8593
CC1C(O)CCCC1=O	C[C@H]1[C@@H](O)CCCC1=O	
InChI=1S/C7H12O2/c1-5-6(8)3-2-4-7(5)9/h5-6,8H,2-4H2,1H3	InChI=1S/C7H12O2/c1-5-6(8)3-2-4-7(5)9/h5-6,8H,2-4H2,1H3/t5-,6-/m0/s1
