12
gdb 21274	7.34064	1.387	1.1753	2.9353	52.53	-0.2524	0.0052	0.2576	941.1285	0.084091	-451.793239	-451.786242	-451.785298	-451.824707	24.572	
C	 0.0321556801	 1.3616991872	-0.0029522689	-0.252239
O	-0.0160949119	-0.0743301036	-0.07075799	-0.247849
C	 0.5787430542	-0.6480449598	-1.0911099506	 0.548302
N	 0.6333622122	-1.930384139	-1.3096455213	-0.451507
C	 1.3525641018	-1.9562914451	-2.475525979	 0.459775
O	 1.6588275792	-3.098372144	-3.0867464645	-0.397816
N	 1.7308603433	-0.803194984	-2.970377993	-0.221834
O	 1.1905350183	 0.1042713384	-2.0042732818	-0.222451
H	 1.0665147945	 1.7087064714	 0.0593398361	 0.155271
H	-0.4500528418	 1.8039314091	-0.8782237161	 0.15527
H	-0.5115732253	 1.6240592827	 0.9032070407	 0.154544
H	 1.2850834054	-3.8116456133	-2.5546486714	 0.320534
95.6475	144.4485	222.3228	244.6371	378.0671	391.232	414.6753	574.1744	661.2693	718.4598	775.9788	787.6693	911.2441	1002.7402	1037.2758	1136.4724	1178.0122	1203.6885	1226.9822	1369.1877	1448.6145	1486.9657	1495.0728	1496.8821	1655.1725	1683.7695	3054.0758	3132.5538	3172.6479	3811.7916
COC1=NC(O)=NO1	COc1nc(O)no1	
InChI=1S/C3H4N2O3/c1-7-3-4-2(6)5-8-3/h1H3,(H,5,6)	InChI=1S/C3H4N2O3/c1-7-3-4-2(6)5-8-3/h1H3,(H,5,6)
