16
gdb 113134	2.13377	1.3146	1.09478	3.9934	76.29	-0.2723	-0.0002	0.2721	1174.8805	0.12241	-400.706461	-400.697273	-400.696329	-400.74056	33.615	
O	 0.2994886365	 0.5863189371	 0.7822780176	-0.415716
C	-0.1689046795	 0.1821668744	-0.4869493766	-0.086724
C	-1.5287284235	-0.4824745599	-0.41907932	-0.058546
C	-1.9094074768	-1.5567629427	-1.3778227392	-0.320089
C	-1.6111814807	-1.9434687536	 0.0808135891	 0.007541
C	-0.3919337526	-2.6396957011	 0.3967601869	 0.239766
C	 0.6379428342	-3.1942665819	 0.6754930098	-0.424797
C	-2.7481335855	-2.2797583099	 0.905583048	 0.237018
N	-3.668510225	-2.536024422	 1.5569721124	-0.33737
H	 0.4965861194	-0.2140978225	 1.2823428892	 0.292548
H	-0.2506839525	 1.0923751313	-1.0906479516	 0.123205
H	 0.5444609271	-0.484224074	-0.9924530327	 0.101847
H	-2.3257519107	 0.1486510004	-0.0392191897	 0.132597
H	-2.9411232349	-1.6421651465	-1.6966692831	 0.151909
H	-1.1723544639	-1.8850677754	-2.1020104558	 0.14496
H	 1.5367810985	-3.7083167937	 0.9139443357	 0.211849
75.1791	103.2004	135.1103	170.4088	212.2515	264.6123	363.5051	397.2586	438.892	493.7297	517.7715	589.0859	595.2374	615.7942	631.3765	680.3827	786.554	869.5774	938.6194	958.1513	1020.6649	1068.8341	1082.0279	1093.7399	1153.2778	1216.0519	1253.6984	1294.9947	1362.6448	1411.6241	1430.2448	1478.6906	1495.9625	2237.5752	2356.4286	3005.8566	3075.3486	3147.1711	3172.1558	3241.968	3497.3397	3798.7257
OCC1CC1(C#C)C#N	OC[C@H]1C[C@]1(C#C)C#N	
InChI=1S/C7H7NO/c1-2-7(5-8)3-6(7)4-9/h1,6,9H,3-4H2	InChI=1S/C7H7NO/c1-2-7(5-8)3-6(7)4-9/h1,6,9H,3-4H2/t6-,7-/m1/s1
