18
gdb 37689	3.25572	2.19147	1.75997	1.3422	78.92	-0.227	0.0102	0.2371	826.4445	0.152588	-364.782701	-364.777118	-364.776174	-364.812154	25.337	
C	-0.0282740893	 1.5862316225	 0.0830435452	-0.223292
C	 1.5161203274	 1.3561406127	-0.0084929635	-0.076939
C	 1.7208938333	 0.594640961	 1.296139463	-0.042525
C	 1.9682781472	-0.8871778133	 1.2302344001	-0.072915
C	 2.4771272088	-1.500419603	 0.0002427254	-0.059197
C	 2.0835598789	-0.9548926323	-1.1556149185	-0.12746
C	 1.1696019666	 0.1932985588	-1.0246312002	-0.051604
C	-0.0350582625	 0.0375095636	-0.0070446653	-0.003722
N	 0.5632135332	-0.3259618694	 1.3025834053	-0.1297
H	-0.4220517543	 2.0254705049	 1.0030364211	 0.103654
H	-0.4486027462	 2.0777275335	-0.7971181171	 0.098569
H	 2.2233888742	 2.1458893744	-0.2598673165	 0.06745
H	 1.9497117442	 1.1407084914	 2.2071327994	 0.094492
H	 2.2345797796	-1.3673729523	 2.1668750356	 0.089885
H	 3.1250736719	-2.3666936369	 0.0715469228	 0.095141
H	 2.3769171893	-1.3345824027	-2.1277936291	 0.092408
H	 0.8265199407	 0.6076503309	-1.9725349067	 0.0723
H	-0.915720503	-0.5545668037	-0.2504356411	 0.073455
322.5346	386.9314	434.6545	548.4698	573.4157	599.3571	695.6314	730.3135	753.9513	760.4835	776.0851	837.9974	848.7979	895.6244	910.4551	954.3651	968.5855	974.9745	982.3114	1011.3934	1050.4966	1063.3553	1092.332	1095.5485	1111.2049	1121.4929	1158.1013	1163.3224	1218.7471	1220.5795	1228.4484	1261.8943	1284.2352	1326.7529	1372.821	1381.8045	1439.5728	1495.7014	1683.5195	3062.9945	3108.6734	3121.3605	3128.1259	3133.3744	3145.4535	3157.6729	3181.2764	3203.0792
C1C2C3C4C=CC2C1N34	C1[C@H]2[C@@H]3[C@@H]4C=C[C@H]2[C@H]1N34	
InChI=1S/C8H9N/c1-2-6-8-5-3-7(4(1)5)9(6)8/h1-2,4-8H,3H2	InChI=1S/C8H9N/c1-2-6-8-5-3-7(4(1)5)9(6)8/h1-2,4-8H,3H2/t4-,5-,6+,7+,8-,9?/m1/s1
