14
gdb 29466	3.3596	1.70119	1.13075	2.0875	69.03	-0.1869	0.0275	0.2144	989.0926	0.104421	-432.888327	-432.881349	-432.880405	-432.91941	27.438	
N	 0.0333561253	 1.4039094734	 0.1643444949	-0.610288
C	 0.0329012862	 0.0146819036	 0.0469486949	 0.10892
C	-1.0367214585	-0.8400803609	 0.004353246	-0.125091
O	-0.6368572089	-2.1962953286	-0.0314421464	-0.227676
C	 0.6932830651	-2.111700192	-0.0151305428	 0.432301
C	 1.1934990417	-0.8423495998	 0.0311338435	 0.170761
N	 2.5744150267	-0.8679429917	 0.0294313987	-0.355306
C	 2.8674642098	-2.1475914964	-0.0159943626	-0.013875
N	 1.7473557187	-2.9761857109	-0.0472727148	-0.409836
H	 0.8604438261	 1.8263647573	-0.2349513004	 0.258486
H	-0.7995537905	 1.8490792707	-0.1957102827	 0.245154
H	-2.1017043917	-0.6896660014	 0.0085986399	 0.120554
H	 3.8620299033	-2.5670799722	-0.0284446088	 0.130619
H	 1.7387605469	-3.9809327812	-0.0777410893	 0.275278
173.3502	235.7171	244.874	282.0151	396.7055	433.5029	544.1	560.9964	617.0619	625.8269	653.9083	697.768	708.1525	752.6992	787.2165	789.9132	950.9205	1030.3554	1063.0296	1089.0233	1148.2249	1254.5529	1266.0782	1322.6724	1355.299	1466.6986	1492.065	1562.1869	1595.3453	1643.4758	1666.4325	3256.1538	3294.4774	3550.1628	3644.9494	3679.598
NC1=COC2=C1N=CN2	Nc1coc2c1nc[nH]2	
InChI=1S/C5H5N3O/c6-3-1-9-5-4(3)7-2-8-5/h1-2H,6H2,(H,7,8)	InChI=1S/C5H5N3O/c6-3-1-9-5-4(3)7-2-8-5/h1-2H,6H2,(H,7,8)
