16
gdb 43971	3.06865	1.69675	1.44893	3.7604	73.61	-0.2311	-0.0193	0.2118	927.5273	0.125641	-400.713955	-400.707129	-400.706185	-400.745105	27.551	
O	-0.0348319235	 0.035646657	-0.2035888814	-0.31026
C	-0.0246940085	 1.2036542469	 0.0587724738	 0.386991
C	-1.1717838265	 2.2491364092	 0.2628311022	-0.390789
C	-0.1079752167	 3.3034905836	-0.0927591321	 0.205826
N	 0.8818295536	 3.2521298825	 0.9871645692	-0.375523
C	 1.0258122813	 2.2769324119	-0.1237399543	 0.100403
C	 1.9311466895	 2.572125067	-1.304871553	-0.368785
C	 1.2707425058	 3.8150658957	-1.9026827997	-0.067055
C	 0.1438933596	 4.1764442483	-1.269435854	-0.175592
H	-1.9507291263	 2.0971864741	-0.4881450782	 0.134551
H	-1.6119537792	 2.342518025	 1.2564314846	 0.133406
H	 1.5728489763	 3.9849663416	 0.8297234327	 0.239741
H	 2.9778240346	 2.7501137489	-1.0294961458	 0.125083
H	 1.9350035017	 1.7355229917	-2.0132178804	 0.14255
H	 1.7168758493	 4.3604850811	-2.7284379475	 0.10803
H	-0.484345241	 5.0160123655	-1.5428305262	 0.111424
90.4999	239.6547	266.8767	388.8999	453.438	483.0381	535.1308	595.0892	610.78	693.3526	710.117	759.933	794.9921	828.2379	875.9582	914.3971	936.7574	956.2216	985.0695	1037.2983	1059.2024	1070.0336	1111.4912	1136.4223	1166.314	1197.9083	1269.5944	1293.6638	1332.7028	1355.6652	1385.5545	1444.0182	1473.8799	1632.2298	1871.6168	3035.3125	3067.596	3077.9835	3141.9767	3179.9762	3208.7573	3482.5761
O=C1CC23NC12CC=C3	O=C1C[C@@]23N[C@@]12CC=C3	
InChI=1S/C7H7NO/c9-5-4-6-2-1-3-7(5,6)8-6/h1-2,8H,3-4H2	InChI=1S/C7H7NO/c9-5-4-6-2-1-3-7(5,6)8-6/h1-2,8H,3-4H2/t6-,7+/m1/s1
