20
gdb 14469	2.74579	2.29017	1.89943	0.4822	78.83	-0.2313	0.0893	0.3207	857.0734	0.177222	-311.83396	-311.826299	-311.825355	-311.865201	30.479	
C	-0.0747544846	 1.5631467301	-0.0926701505	-0.529131
C	-0.0028309389	 0.0745998418	-0.0055676567	 0.315396
C	 0.3131555807	-1.0028570044	-1.0156527065	-0.112076
C	 1.3709459554	-1.6309189361	-0.1160361743	-0.267703
C	 0.6402143206	-0.9297438842	 1.0668187512	 0.280426
C	 1.3743010536	-0.556124684	 2.3274672086	-0.504359
C	-0.7337422859	-1.6607463242	 1.118310379	-0.267716
C	-1.015975669	-1.0214993964	-0.2360710418	-0.112058
H	 0.9223370953	 2.0181994733	-0.1310547625	 0.117587
H	-0.6106848964	 1.8704657829	-0.9978942012	 0.121051
H	-0.6031835862	 1.9968812718	 0.7648686349	 0.117589
H	 0.3184146679	-0.9102261479	-2.0949617378	 0.076493
H	 1.459530217	-2.7239659781	-0.0755837187	 0.081504
H	 2.3581789932	-1.1922151148	-0.2932500066	 0.090001
H	 2.2656140098	 0.0437744551	 2.1116129399	 0.113599
H	 0.7381864781	 0.0214035471	 3.0077088491	 0.113594
H	 1.7032683085	-1.4537316121	 2.8657819513	 0.117797
H	-0.7186531336	-2.7548484053	 1.2017288705	 0.081522
H	-1.3792841489	-1.2452420622	 1.8987715704	 0.089992
H	-1.9623841768	-0.9421756823	-0.7571617083	 0.076493
177.6017	188.3301	193.6069	211.2552	311.7323	335.5594	438.5625	472.5968	588.851	627.27	713.516	740.9885	803.4591	865.92	883.4823	897.1789	948.475	973.6676	986.7884	1006.9907	1014.5502	1033.7741	1091.9843	1113.5981	1132.7827	1146.7108	1167.6886	1208.2695	1224.6335	1246.3796	1248.7139	1298.0874	1340.443	1406.4848	1412.0755	1453.3594	1481.8688	1487.8178	1492.0498	1492.9371	1498.3131	1510.8284	3014.0632	3014.5223	3016.5301	3023.6001	3071.0051	3077.6346	3079.0442	3081.7248	3084.5077	3087.6242	3180.8738	3191.2765
CC12C3CC1(C)CC23	C[C@@]12[C@H]3C[C@]1(C)C[C@@H]23	
InChI=1S/C8H12/c1-7-3-5-6(4-7)8(5,7)2/h5-6H,3-4H2,1-2H3	InChI=1S/C8H12/c1-7-3-5-6(4-7)8(5,7)2/h5-6H,3-4H2,1-2H3/t5-,6+,7+,8-
