17
gdb 32017	3.90538	1.15266	0.89981	3.4306	78.96	-0.2303	-0.052	0.1783	1271.7115	0.138469	-414.246597	-414.238335	-414.237391	-414.280568	30.08	
C	-0.0739061326	 1.5288987223	 0.1241132011	-0.370282
C	 0.0271668546	 0.0140496644	-0.0427748037	-0.303146
C	 0.7414955989	-0.4236036081	-1.2966247658	 0.432982
N	 1.2215002804	 0.4442392101	-2.1454077047	-0.330965
C	 1.8450941066	-0.1122801187	-3.2385213535	 0.062944
N	 2.0124258243	-1.364326147	-3.5258082096	-0.29044
C	 1.5054232731	-2.3013950744	-2.6295369587	 0.410388
N	 1.5614922914	-3.5697035194	-2.7217613536	-0.56442
N	 0.861252801	-1.7525368908	-1.4996304821	-0.331145
H	 0.917183975	 1.9859828624	 0.1581860668	 0.139943
H	-0.6129142114	 1.9797287888	-0.7116964391	 0.139909
H	-0.6019986163	 1.766979386	 1.0513000106	 0.114877
H	 0.5480703687	-0.4350122966	 0.8137469434	 0.133654
H	-0.9724220888	-0.4413302616	-0.0501668673	 0.133593
H	 2.2451488962	 0.6130920177	-3.9456796915	 0.123963
H	 2.0510118222	-3.8130607837	-3.5812330827	 0.227583
H	 0.4877007166	-2.4211089012	-0.8392918897	 0.270561
29.7878	115.0202	158.2804	196.0893	225.4011	359.2994	420.3407	480.9118	570.159	588.366	614.3819	708.6088	776.0967	795.5167	812.4393	860.3583	902.2417	995.5383	1018.9661	1021.771	1061.1258	1104.1564	1109.9297	1199.307	1263.3258	1291.6266	1311.5371	1376.1478	1418.3595	1423.9687	1463.7175	1489.1619	1489.7948	1500.0659	1583.3541	1649.8584	1741.2868	3020.0468	3048.0425	3058.093	3130.7254	3140.25	3147.562	3514.0907	3595.6254
CCC1=NC=NC(=N)N1	CC[C@H]1N=CN=C([NH])N1	
InChI=1S/C5H8N4/c1-2-4-7-3-8-5(6)9-4/h3H,2H2,1H3,(H2,6,7,8,9)	InChI=1S/C5H9N4/c1-2-4-7-3-8-5(6)9-4/h3-4,6H,2H2,1H3,(H,7,8,9)/t4-/m0/s1
