16
gdb 16544	2.95338	2.26687	1.61945	1.9811	64.14	-0.2414	-0.0317	0.2097	822.0333	0.13028	-383.724265	-383.716895	-383.715951	-383.756131	27.321	
O	-0.0628176064	 1.509236476	-0.0535668209	-0.434843
C	-0.0190265171	 0.1106811633	-0.0111757308	 0.050708
C	-1.3363448523	-0.7149387005	 0.0641524491	-0.064698
C	-2.4607970699	-0.2282901443	-0.8877605066	-0.230874
C	-2.0358781779	-1.2800035792	-1.9555845883	-0.218948
C	-0.8039933348	-1.6662268926	-1.0816901586	-0.161655
C	 0.3287746015	-0.6534380001	-1.2936492292	 0.348845
O	 1.0790556821	-0.4013996444	-2.1958125716	-0.315843
H	 0.4622276796	 1.7861728973	-0.8143485583	 0.299442
H	 0.6501446288	-0.2434248508	 0.7932844771	 0.100471
H	-1.6265732915	-1.0720649858	 1.0505268476	 0.075627
H	-3.4715186268	-0.3644149528	-0.5000354995	 0.108203
H	-2.3442766265	 0.8166515245	-1.1848099985	 0.118246
H	-2.7449463402	-2.1066885292	-2.0361821029	 0.111732
H	-1.8084362764	-0.9195298958	-2.9615588645	 0.118449
H	-0.5425456523	-2.7186489555	-0.9723080941	 0.095138
72.5877	154.8233	200.3829	222.6843	241.7213	486.3202	505.0949	600.2283	632.5092	707.4453	804.3941	821.3652	832.6093	874.5541	939.6704	956.6046	1020.6698	1033.8557	1057.8427	1070.8227	1121.2232	1156.4144	1188.8289	1215.0821	1218.5271	1240.9801	1267.9098	1288.4062	1318.1001	1353.9715	1366.9959	1481.5993	1496.512	1873.6854	2950.5827	3065.9551	3074.1931	3108.9498	3116.3007	3124.8047	3135.2882	3785.701
OC1C2CCC2C1=O	O[C@H]1[C@H]2CC[C@H]2C1=O	
InChI=1S/C6H8O2/c7-5-3-1-2-4(3)6(5)8/h3-5,7H,1-2H2	InChI=1S/C6H8O2/c7-5-3-1-2-4(3)6(5)8/h3-5,7H,1-2H2/t3-,4+,5-/m0/s1
