20
gdb 93956	3.86617	1.07187	0.99948	2.9102	74.73	-0.2401	0.0821	0.3222	1271.3992	0.171749	-440.260415	-440.251668	-440.250723	-440.294894	32.153	
C	-0.4233856181	 1.06850912	-0.3813763663	-0.410284
C	 0.1844017328	-0.3047999535	-0.1656158718	 0.120983
C	 1.4651566025	-0.600246604	-0.9480677537	-0.096554
O	 2.1303796992	-1.5563138901	-0.1323026787	-0.277938
C	 1.7287618931	-1.326887661	 1.2092057034	 0.184798
O	 0.638965471	-0.4192822361	 1.1845480378	-0.277255
C	 1.3678179433	-2.6392744788	 1.8760252176	-0.009184
C	 0.7539794473	-3.7451658814	 1.1060595147	-0.234839
N	 2.1490949954	-3.8471007236	 1.5755039118	-0.328769
H	 0.3123647652	 1.8509632343	-0.1735281081	 0.126706
H	-0.7709988474	 1.1752756432	-1.4139440323	 0.119905
H	-1.2790096723	 1.2155200082	 0.2827198352	 0.134774
H	-0.5625316872	-1.0863602712	-0.3734257465	 0.079015
H	 1.2932453726	-1.0436476584	-1.9319456534	 0.11609
H	 2.0742441863	 0.3091276778	-1.061847444	 0.098919
H	 2.5429494407	-0.8357036398	 1.7656721001	 0.084214
H	 1.1120238317	-2.5215760762	 2.9267237339	 0.097259
H	 0.0538588048	-4.4156766325	 1.595646457	 0.116307
H	 0.5858129275	-3.5923265284	 0.044981165	 0.113948
H	 2.7619740716	-3.6411960386	 0.7881989083	 0.241905
34.899	79.5699	143.3576	215.4534	222.8511	268.2428	303.4642	410.4471	497.1178	585.7958	614.783	762.7772	807.3352	859.5443	868.2479	904.4117	930.0413	957.0918	970.3033	992.8502	1033.1326	1052.4156	1102.6257	1114.9061	1139.5161	1152.1713	1161.1518	1178.6203	1206.6831	1241.5786	1276.3009	1305.927	1325.4327	1357.5962	1369.9711	1400.2774	1408.1326	1418.2641	1423.8243	1485.4006	1499.1296	1500.7852	1514.7656	2976.0712	2982.1874	2998.4053	3043.1747	3100.2197	3116.1323	3118.8383	3124.939	3136.1977	3207.7531	3488.1808
CC1COC(O1)C1CN1	C[C@H]1CO[C@@H](O1)[C@H]1CN1	
InChI=1S/C6H11NO2/c1-4-3-8-6(9-4)5-2-7-5/h4-7H,2-3H2,1H3	InChI=1S/C6H11NO2/c1-4-3-8-6(9-4)5-2-7-5/h4-7H,2-3H2,1H3/t4-,5+,6-/m0/s1
