21
gdb 52926	5.78174	0.74484	0.74484	0.0092	95.88	-0.2376	0.0556	0.2932	1655.7843	0.181526	-349.897382	-349.88788	-349.886936	-349.933111	35.293	
C	-0.0250836504	 1.4244897284	 0.0097323786	-0.518547
C	-0.000197782	-0.0304183653	 0.0018706183	 0.408352
C	 0.0204116464	-1.2357574094	-0.0046448641	-0.445257
C	 0.0449199442	-2.6701073996	-0.0124950431	 0.275643
C	 0.7860118286	-3.6170743614	 0.9882384716	-0.283226
C	 0.077374303	-4.5703244481	-0.0229522181	 0.305355
C	 0.1030475125	-6.0741833791	-0.0312322353	-0.511387
C	-1.1722388884	-3.6456716542	 0.1069802765	-0.283232
C	 0.569837636	-3.6090085454	-1.1484860208	-0.283245
H	 0.5459790036	 1.8287448856	 0.8532189623	 0.146936
H	 0.4075984967	 1.8358861272	-0.9092594757	 0.146936
H	-1.0493340102	 1.8055414397	 0.0916859943	 0.146937
H	 1.8791137041	-3.5892942549	 0.9584761506	 0.089952
H	 0.4114877898	-3.6201763741	 2.0159855854	 0.089949
H	-0.3097122003	-6.4810955422	 0.8985831014	 0.118339
H	-0.4875351673	-6.4744210218	-0.8628108699	 0.11834
H	 1.1265863591	-6.4508717621	-0.1359961893	 0.11834
H	-1.693034717	-3.6509298786	 1.0688948225	 0.089952
H	-1.8752006576	-3.64412151	-0.7310997304	 0.089949
H	-0.0029218917	-3.6047151334	-2.0803955787	 0.089959
H	 1.646780441	-3.5806317915	-1.3380106761	 0.089954
16.2476	86.6039	86.9654	207.7239	252.0399	252.0851	341.482	341.7137	429.3578	507.2436	507.4116	560.127	560.3146	626.6921	778.4886	778.6077	911.4098	952.9248	953.0863	960.9958	961.4678	988.4922	1054.7382	1054.7515	1075.7721	1075.844	1129.5819	1129.7248	1156.9638	1159.5161	1159.5522	1206.1421	1206.2876	1306.1113	1366.0335	1413.6741	1415.4033	1478.0342	1478.0445	1490.1279	1490.1491	1496.1208	1496.3136	1557.7267	2363.755	3023.1018	3024.4281	3040.4656	3040.5285	3050.822	3083.0405	3083.0693	3091.7379	3091.7766	3105.6216	3112.1305	3112.1465
CC#CC12CC(C)(C1)C2	CC#C[C@@]12C[C@@](C)(C1)C2	
InChI=1S/C9H12/c1-3-4-9-5-8(2,6-9)7-9/h5-7H2,1-2H3	InChI=1S/C9H12/c1-3-4-9-5-8(2,6-9)7-9/h5-7H2,1-2H3/t8-,9+
