15
gdb 12040	3.91824	1.74626	1.55806	4.2654	65.12	-0.2468	0.022	0.2688	842.3476	0.120264	-358.799296	-358.792173	-358.791229	-358.830349	27.427	
N	 0.0669371853	 1.4612904174	-0.0159394983	-0.556343
C	 0.0236225202	 0.0121396802	 0.0000752269	 0.161787
C	 0.2428882225	-0.6418870409	 1.4301310896	-0.255668
C	-1.1366071783	-1.2882358349	 1.3123046805	-0.029272
N	-2.0925156246	-0.1689453776	 1.118730874	-0.349725
C	-1.3577732563	-0.7191116364	-0.0398943338	-0.092627
C	 0.937881207	-0.5336653578	-1.0020347063	 0.257083
N	 1.6318011161	-0.9840614042	-1.8090954868	-0.336205
H	-0.0937605803	 1.8122917795	-0.9560065709	 0.236589
H	-0.6988742057	 1.7902849355	 0.5683396651	 0.250907
H	 1.0685017808	-1.3539281954	 1.4361923669	 0.135341
H	 0.3649433189	 0.0867908008	 2.2338251864	 0.123349
H	-1.4614206175	-2.2347043632	 1.7231050379	 0.106567
H	-3.0336798399	-0.558416132	 1.0933734778	 0.239081
H	-1.8692454782	-1.1124025409	-0.9096763191	 0.109136
135.3948	168.7507	224.3382	303.135	362.9708	415.2831	489.5878	534.6499	562.6846	662.0608	758.2418	822.4792	844.3833	847.8477	920.3379	935.3353	965.9299	995.6348	1015.4338	1048.3204	1096.8323	1104.8262	1144.5972	1215.7772	1238.0268	1289.442	1310.9555	1355.9186	1376.191	1470.0393	1651.7838	2358.6185	3081.6332	3148.8872	3192.725	3212.1445	3476.2282	3488.935	3563.4583
NC1(CC2NC12)C#N	N[C@]1(C[C@H]2N[C@@H]12)C#N	
InChI=1S/C5H7N3/c6-2-5(7)1-3-4(5)8-3/h3-4,8H,1,7H2	InChI=1S/C5H7N3/c6-2-5(7)1-3-4(5)8-3/h3-4,8H,1,7H2/t3-,4-,5-/m1/s1
