19
gdb 70041	4.06391	1.0721	0.94663	0.9819	92.35	-0.2147	-0.0162	0.1985	1283.8806	0.158691	-348.733493	-348.725041	-348.724096	-348.766083	33.513	
C	-0.0555880244	 1.5050726974	 0.0158986256	-0.484568
C	 0.0568994989	-0.0006637431	-0.0021687504	 0.344417
C	-0.8175674879	-0.8249579011	 0.9050476245	-0.319892
C	 0.6868802275	-0.7889539076	 1.1429075814	-0.108254
C	 1.4478570721	-1.8920371426	 0.5082528106	-0.177939
C	 1.3304462137	-1.8789842397	-0.8328569702	 0.166457
C	 0.5131095446	-0.6775114854	-1.2991836426	-0.390476
C	 1.8661888522	-2.8211750338	-1.7407197963	 0.215661
C	 2.3064654339	-3.5940225814	-2.5549360584	-0.426448
H	 0.8845416516	 1.9772686014	-0.2916466461	 0.118297
H	-0.8402211136	 1.8527303657	-0.6667616303	 0.119419
H	-0.303651557	 1.8735145464	 1.0164191094	 0.114836
H	-1.4413533607	-0.2821046001	 1.6086608467	 0.108603
H	-1.2461871201	-1.752989508	 0.5396755318	 0.113049
H	 1.0607477664	-0.3094871222	 2.041318342	 0.086596
H	 2.0002452396	-2.6372683024	 1.0680514426	 0.101519
H	-0.3273845365	-0.9817932391	-1.9339645067	 0.117961
H	 1.1327639767	-0.00363694	-1.9057534171	 0.112139
H	 2.702014203	-4.2833497843	-3.2586591465	 0.188622
104.5988	142.9365	208.4925	229.2503	300.476	344.0867	385.1271	462.5189	511.459	532.9267	546.3524	577.2946	624.8598	636.5693	737.5845	816.8183	863.4232	885.4724	889.0166	930.987	952.1338	996.5182	1021.6165	1053.8396	1067.526	1089.6646	1103.9432	1177.3212	1189.1995	1247.8389	1265.2238	1316.1167	1324.2048	1395.1214	1419.8969	1474.1598	1486.5037	1493.1395	1502.3732	1652.6258	2217.5738	3017.8642	3022.6611	3057.9147	3080.48	3097.8934	3119.0339	3165.272	3206.3609	3208.4962	3504.5718
CC12CC1C=C(C2)C#C	C[C@]12C[C@H]1C=C(C2)C#C	
InChI=1S/C9H10/c1-3-7-4-8-6-9(8,2)5-7/h1,4,8H,5-6H2,2H3	InChI=1S/C9H10/c1-3-7-4-8-6-9(8,2)5-7/h1,4,8H,5-6H2,2H3/t8-,9+/m1/s1
