17
gdb 51034	2.27052	1.45508	1.16562	5.3366	73.17	-0.2662	0.0028	0.269	1117.2115	0.135939	-418.031369	-418.022566	-418.021622	-418.06543	31.774	
O	-0.1589545026	 0.0360212026	-0.5236899678	-0.310159
C	-0.1151714299	 1.0603847299	 0.1180642971	 0.153632
N	 1.0264389299	 1.770093126	 0.367846249	-0.345541
C	 2.3404452695	 1.2782274165	-0.003502385	 0.183272
C	 2.5663269085	 0.8914675513	-1.5017585027	-0.227357
C	 3.9237879232	 1.6396643625	-1.4609586184	-0.224451
C	 3.4440699199	 2.372128148	-0.18005075	-0.272804
C	 2.7887784785	 0.2149737042	 0.9100938716	 0.280314
N	 3.1637037966	-0.59869338	 1.6405249401	-0.339561
H	-1.0083543819	 1.5524099225	 0.550280485	 0.090788
H	 0.9840373775	 2.5177836435	 1.0446847296	 0.254762
H	 2.5547877543	-0.1716064973	-1.7345543992	 0.140498
H	 1.8267092131	 1.4022479	-2.1200504323	 0.12739
H	 4.7594337731	 0.966956379	-1.2559754339	 0.130503
H	 4.1770272152	 2.2626184548	-2.3194796697	 0.114461
H	 2.9685910946	 3.3288952953	-0.4108412324	 0.116522
H	 4.1473371305	 2.5009043412	 0.6436353189	 0.127732
51.4282	115.2752	145.6102	174.4464	195.5929	271.0946	328.5738	414.7553	496.061	524.4469	577.7859	608.8616	690.4245	775.4773	834.1761	867.5427	914.1179	940.6427	967.0973	1030.1157	1062.055	1071.2945	1113.9595	1180.8615	1206.272	1224.3289	1257.5364	1273.1087	1281.5946	1300.0238	1425.803	1469.5056	1483.8843	1494.8968	1503.332	1809.3505	2350.4521	2946.1254	3069.9471	3080.0123	3097.4121	3127.6335	3140.7127	3165.3139	3611.3736
O=CNC1(CCC1)C#N	O=CNC1(CCC1)C#N	
InChI=1S/C6H8N2O/c7-4-6(8-5-9)2-1-3-6/h5H,1-3H2,(H,8,9)	InChI=1S/C6H8N2O/c7-4-6(8-5-9)2-1-3-6/h5H,1-3H2,(H,8,9)
