17
gdb 14957	4.2313	1.54387	1.23728	2.804	66.53	-0.2378	0.026	0.2638	965.5938	0.144612	-401.027229	-401.020086	-401.019141	-401.058923	26.736	
O	-0.0808855341	-0.034238548	-0.1004479595	-0.341148
C	-0.0081302728	 1.1762661976	-0.06466282	 0.149454
N	 1.1464112315	 1.8986399842	-0.0484313814	-0.04996
C	 2.4483053905	 1.243826058	-0.0655722481	-0.178439
C	 3.3051829557	 1.7937479139	 1.0754905528	-0.079596
O	 3.375261715	 3.2115237433	 1.0296567335	-0.243841
C	 2.0928737573	 3.8000670865	 1.1473047045	-0.068226
C	 1.1773118176	 3.3497585184	 0.0043459911	-0.181224
H	-0.899769898	 1.8342729464	-0.0373650666	 0.070994
H	 2.2811211888	 0.1697722087	 0.0325566871	 0.149125
H	 2.94708951	 1.4387885116	-1.0251099056	 0.11362
H	 2.8878362691	 1.4665418263	 2.0415948192	 0.100673
H	 4.3325899764	 1.4285148358	 0.9971687776	 0.115817
H	 1.6341435658	 3.5294127062	 2.1129139786	 0.095643
H	 2.2394014781	 4.8834824168	 1.1203042428	 0.114482
H	 1.5615345049	 3.7540399255	-0.9432359767	 0.115187
H	 0.1604945142	 3.7275974188	 0.1503772307	 0.117439
64.8065	202.487	256.5003	303.2707	324.0522	408.1132	415.9807	486.2657	590.8818	665.1489	819.3528	859.7396	871.7368	933.8405	1012.881	1028.3357	1037.9648	1097.1137	1133.2987	1140.1694	1206.5775	1234.7881	1250.538	1297.6964	1327.4749	1360.5599	1390.4452	1397.3834	1420.0837	1432.2903	1457.7309	1479.125	1485.0588	1487.0161	1498.1439	1793.2846	2930.6427	2970.6752	2980.1429	3004.1395	3015.0391	3086.7928	3092.8016	3097.8648	3128.9372
O=CN1CCOCC1	O=CN1CCOCC1	
InChI=1S/C5H9NO2/c7-5-6-1-3-8-4-2-6/h5H,1-4H2	InChI=1S/C5H9NO2/c7-5-6-1-3-8-4-2-6/h5H,1-4H2
