22
gdb 71994	1.87687	1.78168	1.64902	1.8849	86.54	-0.2118	0.0772	0.2889	1068.8742	0.193152	-367.157145	-367.147815	-367.146871	-367.190457	35.76	
C	-0.0385524118	 1.4646377741	-0.0036865773	-0.509909
C	 0.0607573853	-0.0323254683	 0.0048107828	 0.224922
C	 0.9106217958	-0.9176766071	-0.8907244822	-0.226595
N	 0.0595607104	-2.1061945134	-0.4992285873	-0.202411
C	 0.4189589952	-2.2458258587	 0.964153036	-0.226603
C	-0.2677670942	-0.9199638752	 1.2445423351	 0.224895
C	-0.7200161699	-0.3764159863	 2.5677421225	-0.509908
C	-1.0231820951	-1.0825970838	-0.0532439953	 0.285945
C	-2.4562757483	-1.1143642113	-0.4557452627	-0.529746
H	 0.8700850294	 1.9277981542	 0.3996343907	 0.121117
H	-0.1760213497	 1.8419973605	-1.0237133815	 0.119903
H	-0.8818370634	 1.8251974529	 0.5938950739	 0.118328
H	 0.766094269	-0.6970975821	-1.953486692	 0.098475
H	 1.9824325733	-1.0384357517	-0.6887660835	 0.087905
H	-0.1215880163	-3.0948976564	 1.3953093315	 0.09848
H	 1.4922135507	-2.362725917	 1.1606230266	 0.087899
H	 0.13191659	-0.0654773542	 3.1844551003	 0.121115
H	-1.3754273878	 0.4929106726	 2.4539500943	 0.11833
H	-1.2766972767	-1.1335180649	 3.1322342314	 0.1199
H	-3.0011514816	-0.279632787	-0.0018534114	 0.121835
H	-2.5673108628	-1.0366797848	-1.5432040851	 0.128056
H	-2.9399087616	-2.0446000121	-0.1368593566	 0.128069
145.6005	162.2245	166.5712	175.4018	182.4351	237.252	249.8781	342.7289	354.4294	489.509	510.5082	593.5246	614.9644	664.6173	705.8462	790.712	845.113	867.9293	892.7425	948.2814	949.5199	1010.7295	1018.8694	1089.9182	1114.0239	1127.187	1136.8341	1160.6662	1182.8677	1188.8901	1225.2997	1240.442	1257.9074	1309.0947	1365.9903	1405.0704	1414.0877	1421.2367	1470.7552	1473.7433	1482.3263	1491.4832	1492.0623	1493.4952	1500.8643	1511.8041	1531.5363	3014.1624	3019.3288	3020.4016	3022.2311	3027.0345	3073.4499	3076.2583	3076.7402	3077.8366	3084.5513	3090.5769	3095.0404	3099.2737
CC12CN3CC1(C)C23C	C[C@@]12CN3C[C@]1(C)[C@@]23C	
InChI=1S/C8H13N/c1-6-4-9-5-7(6,2)8(6,9)3/h4-5H2,1-3H3	InChI=1S/C8H13N/c1-6-4-9-5-7(6,2)8(6,9)3/h4-5H2,1-3H3/t6-,7+,8-
