21
gdb 96313	2.08077	1.48863	0.93018	1.929	81.2	-0.2349	0.0113	0.2461	1293.3117	0.182635	-424.224851	-424.215763	-424.214819	-424.258486	34.917	
C	 0.0242188088	 1.5260676716	 0.1635198355	-0.482286
C	 0.0267254932	 0.0288756174	 0.0102141381	 0.314324
C	-1.0881772367	-0.6979332049	 0.0991708785	-0.194071
C	-1.1841645751	-2.2056329212	-0.0149268932	 0.077877
O	-2.5404070501	-2.638875449	 0.0313946845	-0.439172
C	-0.5941285057	-2.7633324439	-1.3135347653	-0.187167
C	 0.9310410607	-2.6739132775	-1.3864222487	-0.086174
O	 1.4474102415	-1.3589132945	-1.4694522835	-0.233682
C	 1.3816749854	-0.6072223026	-0.2701341099	-0.178633
H	 0.6942920443	 1.8432252588	 0.9737525794	 0.123369
H	 0.3896025736	 2.0145281333	-0.7491073851	 0.131648
H	-0.9751337437	 1.9109866367	 0.3824175326	 0.120169
H	-2.0400181982	-0.1931785417	 0.2595289433	 0.078779
H	-0.6239234538	-2.6612659042	 0.8238033785	 0.069687
H	-2.9276663888	-2.3116597981	 0.849577458	 0.279591
H	-0.8803117144	-3.8196607907	-1.3811209735	 0.104193
H	-1.0384796468	-2.2428887669	-2.1679238809	 0.111488
H	 1.3760174812	-3.1959692529	-0.5209366692	 0.082833
H	 1.2818283285	-3.1827183041	-2.2897782864	 0.107802
H	 2.1369254679	 0.1779107617	-0.3765056792	 0.105327
H	 1.6878867582	-1.2364502675	 0.5846501363	 0.094099
68.1704	161.8622	196.9155	219.4771	272.2943	296.7171	311.6444	333.0862	396.8381	422.9453	490.793	502.1775	548.1837	629.6898	812.2545	840.8147	870.3776	891.7468	946.5585	984.6927	1015.5355	1049.8894	1070.8015	1075.5639	1101.7321	1112.0032	1143.401	1193.3473	1209.8762	1267.8492	1289.1505	1331.3054	1335.0324	1362.0097	1371.9073	1402.122	1409.7484	1417.5604	1431.1592	1475.2921	1477.1537	1483.6525	1491.0304	1496.4812	1736.9336	2909.4524	2944.9088	2954.4664	3012.2152	3039.3082	3058.0807	3070.9751	3076.2712	3093.184	3112.5861	3132.5104	3815.5554
CC1=CC(O)CCOC1	CC1=C[C@@H](O)CCOC1	
InChI=1S/C7H12O2/c1-6-4-7(8)2-3-9-5-6/h4,7-8H,2-3,5H2,1H3	InChI=1S/C7H12O2/c1-6-4-7(8)2-3-9-5-6/h4,7-8H,2-3,5H2,1H3/t7-/m0/s1
