21
gdb 123216	11.68932	0.4063	0.39752	2.2769	83.08	-0.257	0.0548	0.3118	2644.163	0.178997	-424.177026	-424.165741	-424.164797	-424.215101	38.499	
O	-0.1757874682	 1.4536096653	 0.0113225371	-0.41908
C	-0.0144349539	 0.0439671259	 0.0021630893	-0.071888
C	-1.4037147636	-0.5799992157	 0.0120235321	-0.183589
C	-1.3619854359	-2.1013949019	 0.0034500402	-0.056171
O	-2.6889726774	-2.5852797411	 0.0135052581	-0.24386
C	-2.7710218253	-3.9906877279	 0.0067776372	-0.048581
C	-4.2567078773	-4.3671265374	 0.0191908586	-0.35023
C	-4.4610227223	-5.8091355185	 0.01364089	 0.287583
C	-4.6001637638	-7.0028494972	 0.0082438799	-0.449886
H	 0.6973660321	 1.8562277274	 0.0048118443	 0.285976
H	 0.5393763839	-0.2879422781	-0.8917983946	 0.08536
H	 0.5562656852	-0.2975239101	 0.881782009	 0.085359
H	-1.9454899849	-0.2368179738	 0.89964549	 0.116909
H	-1.9622443485	-0.2273429923	-0.8613850912	 0.116904
H	-0.8291447755	-2.4708080772	-0.8901879505	 0.086125
H	-0.8122391873	-2.4803329477	 0.8827444972	 0.086128
H	-2.2833431593	-4.4111081289	-0.8875895961	 0.098214
H	-2.2661328169	-4.4205841865	 0.8869779652	 0.098213
H	-4.7233688629	-3.919373055	 0.9045667872	 0.140371
H	-4.7403552733	-3.9100914846	-0.8522273289	 0.140388
H	-4.7375501648	-8.0554586646	 0.0028766857	 0.195755
36.1196	63.8398	66.2331	100.315	134.1541	150.7475	153.4747	254.8787	269.1813	306.071	355.5069	443.3809	490.7246	553.0806	621.1406	646.7896	779.9939	796.6203	891.4311	959.9104	1007.9371	1038.4083	1053.1221	1072.7948	1089.6369	1110.5667	1165.941	1177.781	1221.9521	1240.2396	1245.2488	1297.9245	1302.9452	1304.8832	1307.3761	1321.3315	1398.4705	1452.1084	1467.8293	1476.6609	1499.3004	1515.1464	1529.7414	1540.2775	2241.9141	2943.4591	2957.8903	2969.2676	2969.3424	2981.9293	2997.5219	3035.2837	3052.2799	3072.5991	3098.593	3509.0305	3830.3752
OCCCOCCC#C	OCCCOCCC#C	
InChI=1S/C7H12O2/c1-2-3-6-9-7-4-5-8/h1,8H,3-7H2	InChI=1S/C7H12O2/c1-2-3-6-9-7-4-5-8/h1,8H,3-7H2
