21
gdb 61640	3.65449	0.77506	0.718	2.2345	80.61	-0.2596	-0.0366	0.223	1632.4054	0.18016	-424.223526	-424.213502	-424.212558	-424.259299	36.46	
C	 0.0734084925	 1.5841917091	-0.200859774	-0.405298
C	 0.0094784264	 0.0842467698	-0.00691869	-0.015258
C	 1.254680154	-0.7663210656	-0.0490170873	-0.270531
C	 0.4964413241	-0.6140624459	 1.2472512289	 0.009957
C	 1.0939900194	 0.1271535384	 2.4243239949	-0.237737
C	 2.064206507	-0.7527746805	 3.2405652484	 0.058319
O	 3.202111028	-1.1010856277	 2.5007553721	-0.428844
C	 2.467031922	-0.0499345331	 4.5201187048	 0.134439
O	 3.6241097476	 0.1504119946	 4.8023306573	-0.261858
H	 0.9982647192	 2.0119424258	 0.1967380308	 0.116884
H	 0.0352181654	 1.8349427528	-1.2666987303	 0.118572
H	-0.7662549061	 2.0914294055	 0.2882436113	 0.113413
H	-0.875762476	-0.3680483412	-0.4479003195	 0.081403
H	 1.2279715596	-1.7227270107	-0.5593725874	 0.10773
H	 2.2101511396	-0.2571797729	-0.1165939609	 0.118362
H	-0.0947831803	-1.4769185766	 1.5482013017	 0.077629
H	 1.6469723502	 1.0116472322	 2.0919927719	 0.109432
H	 0.2922204403	 0.4773596522	 3.0898489627	 0.094555
H	 1.5145008271	-1.6619175886	 3.5534271629	 0.090128
H	 3.9575004109	-0.8120722297	 3.0370544818	 0.292608
H	 1.6402886789	 0.272863452	 5.1862714401	 0.096097
48.5248	69.2798	100.3511	156.1433	199.1263	241.0056	281.0813	312.8087	353.2086	402.8923	433.1278	466.2159	526.597	747.8573	764.5124	822.3072	838.0838	855.0983	872.5777	920.5671	968.0302	989.8123	1022.7664	1056.3825	1083.3738	1110.8939	1148.8299	1154.0214	1173.4435	1197.2951	1241.6209	1259.9528	1267.3767	1327.9434	1353.6546	1392.2428	1402.1574	1419.6893	1430.7328	1442.8421	1469.1901	1494.894	1495.5281	1507.9712	1811.9818	2914.965	2931.6143	3010.2601	3028.7569	3077.4415	3085.552	3103.6354	3118.1965	3133.1067	3136.4877	3218.2531	3688.9705
CC1CC1CC(O)C=O	C[C@H]1C[C@H]1C[C@@H](O)C=O	
InChI=1S/C7H12O2/c1-5-2-6(5)3-7(9)4-8/h4-7,9H,2-3H2,1H3	InChI=1S/C7H12O2/c1-5-2-6(5)3-7(9)4-8/h4-7,9H,2-3H2,1H3/t5-,6-,7+/m0/s1
