21
gdb 68358	2.74772	1.68867	1.27943	1.7391	82.62	-0.2313	0.0083	0.2395	1064.4785	0.184088	-387.090473	-387.082539	-387.081595	-387.122271	32.449	
C	 0.0432800612	 1.6018122908	 0.0581765054	-0.450242
C	 0.000066632	 0.0943421473	-0.1147097482	 0.40762
C	 0.8807590312	-0.5259724461	-1.2280474014	-0.323244
C	 1.3468699261	-1.4836454283	-0.1072690683	 0.067232
O	 0.8140624416	-0.5738596406	 0.8970807644	-0.323991
C	 0.6483100304	-2.8171586185	-0.0732202079	-0.05532
C	-0.6677144649	-2.9660228179	-0.2345954012	-0.045399
C	-1.6748190645	-1.8859429808	-0.561030022	-0.281508
C	-1.4335309602	-0.4534487109	-0.0342122918	-0.221011
H	 1.0788254028	 1.946549076	 0.1212087306	 0.118101
H	-0.4437868153	 2.1037204158	-0.7850154214	 0.113526
H	-0.4729301962	 1.9013730603	 0.9767225037	 0.122062
H	 0.390244453	-0.9624850047	-2.0988434158	 0.10362
H	 1.6713596722	 0.153402694	-1.5535366303	 0.100386
H	 2.4280335301	-1.6013602242	 0.0114920978	 0.06962
H	 1.2611791855	-3.694144724	 0.1182359068	 0.083484
H	-1.0803297429	-3.9717093149	-0.1805909845	 0.090128
H	-1.7760688242	-1.850675142	-1.65663955	 0.116328
H	-2.6601451799	-2.2095994903	-0.2059515572	 0.104944
H	-1.7098731164	-0.4051343653	 1.0254323826	 0.113892
H	-2.1149316515	 0.2200167742	-0.568779781	 0.089771
152.6472	188.1496	228.9012	260.029	334.1326	375.7549	379.5938	398.0907	509.6787	561.2377	628.1929	708.988	738.9226	806.749	839.7227	862.6192	889.0329	902.3285	926.4797	961.0981	981.8649	995.4298	1023.4641	1035.0975	1082.1438	1100.7568	1124.1781	1183.1765	1231.4011	1240.1922	1248.7943	1260.6525	1293.2389	1307.058	1364.8074	1373.8766	1395.7418	1406.3031	1420.5087	1464.4413	1474.2702	1481.9272	1493.1935	1499.9946	1714.7517	2990.8592	3023.8252	3033.1176	3050.0657	3057.3362	3071.2374	3075.8867	3100.4996	3117.0228	3133.2436	3137.0342	3165.511
CC12CC(O1)C=CCC2	C[C@@]12C[C@@H](O1)C=CCC2	
InChI=1S/C8H12O/c1-8-5-3-2-4-7(6-8)9-8/h2,4,7H,3,5-6H2,1H3	InChI=1S/C8H12O/c1-8-5-3-2-4-7(6-8)9-8/h2,4,7H,3,5-6H2,1H3/t7-,8+/m0/s1
