17
gdb 46422	3.20149	1.00746	0.8975	3.674	75.	-0.2338	0.0259	0.2597	1319.2086	0.135619	-417.973314	-417.964265	-417.963321	-418.007908	32.686	
O	 0.6848070435	 0.2006068703	-0.4730562534	-0.366544
C	 0.4570254991	 1.3637395807	-0.2661289008	 0.465507
N	-0.5721814762	 2.1974938328	-0.6170462781	-0.327486
C	-0.103887898	 3.3538015422	 0.1542525558	-0.181314
C	 1.1564530549	 2.5141245126	 0.5150830789	-0.127745
N	 1.3160885586	 2.2232923858	 1.9292147776	-0.300548
C	 2.3847231706	 1.2454802835	 2.1953417017	-0.314822
C	 3.7388524154	 1.7282022488	 1.8975439147	 0.306678
C	 4.8277669588	 2.1773311484	 1.6533470843	-0.470192
H	-1.4505518766	 2.0090937225	-1.0775866999	 0.252041
H	 0.0753640626	 4.2517860384	-0.4441854832	 0.113613
H	-0.7256605578	 3.5921204719	 1.0226558218	 0.118664
H	 2.0714190198	 2.8655787275	 0.014932641	 0.098792
H	 1.5330277684	 3.083955968	 2.4244297431	 0.225795
H	 2.3233090366	 0.9556602295	 3.2503719073	 0.132699
H	 2.1693167841	 0.3491561491	 1.6048697531	 0.176227
H	 5.7977611162	 2.5516665181	 1.4371410962	 0.198634
51.7803	78.9118	128.2906	157.855	244.2953	262.69	339.1189	371.6898	463.3291	503.8397	593.8113	619.9291	662.9993	707.1765	760.0441	805.6996	838.859	906.7703	935.5313	989.9499	1003.5032	1065.4915	1110.4478	1158.4247	1180.2016	1187.117	1215.1208	1279.6972	1314.3825	1355.4722	1363.1074	1401.2255	1473.8348	1488.8651	1517.8043	1887.4663	2225.7946	2992.9613	3043.2013	3045.4895	3090.6483	3097.7888	3498.6842	3504.3223	3606.1703
O=C1NCC1NCC#C	O=C1NC[C@H]1NCC#C	
InChI=1S/C6H8N2O/c1-2-3-7-5-4-8-6(5)9/h1,5,7H,3-4H2,(H,8,9)	InChI=1S/C6H8N2O/c1-2-3-7-5-4-8-6(5)9/h1,5,7H,3-4H2,(H,8,9)/t5-/m1/s1
