17
gdb 33662	3.12711	1.46009	1.37158	1.213	79.53	-0.2271	0.0345	0.2616	1004.6296	0.13691	-384.627342	-384.62017	-384.619226	-384.658726	29.032	
C	-0.0308723307	-1.1977060015	 0.034713825	-0.364241
C	-0.0206264341	 0.0064831042	 0.0101064093	 0.050023
C	 0.0070003292	 1.4210999364	-0.0089758423	 0.233817
C	-0.736093378	 2.4994848399	 0.8262402529	-0.160395
C	 0.5732507468	 3.2454961127	 1.0706608406	-0.234672
C	 1.2420836707	 2.3833157919	-0.0468378164	-0.141386
C	 1.0851410313	 3.0674314753	-1.4006801857	-0.082398
O	-0.3313402399	 3.2710182873	-1.5351064662	-0.269916
C	-0.9609080723	 2.3673278734	-0.6609874941	 0.057258
H	-0.0438127417	-2.258858565	 0.0533743197	 0.177251
H	-1.5351022607	 2.3389080514	 1.5410903179	 0.099087
H	 0.5678450576	 4.3296536752	 0.9165030854	 0.103992
H	 0.9865919781	 3.0191588054	 2.0557982824	 0.110648
H	 2.2263519527	 1.966012558	 0.1561387874	 0.089836
H	 1.5759436692	 4.0445406439	-1.4520573241	 0.11125
H	 1.4558177124	 2.4360878939	-2.2217865248	 0.10259
H	-1.9203128907	 2.0111072774	-1.0154068672	 0.117255
129.5961	154.0587	242.0978	358.9174	422.5164	491.3992	527.8389	535.7898	565.154	638.3759	652.1275	733.2525	785.8582	833.4608	884.872	886.9828	900.0395	951.2055	999.0903	1014.1849	1034.6157	1042.9158	1079.5981	1101.5238	1138.1459	1161.7098	1168.0015	1232.4828	1242.9931	1285.5397	1289.904	1322.8746	1368.8685	1431.2517	1493.5893	1511.3866	2229.7286	2996.6874	3046.7078	3078.0601	3109.8874	3139.8459	3178.2519	3200.8022	3504.165
C#CC12C3CC1COC23	C#C[C@@]12[C@H]3C[C@@H]1CO[C@@H]23	
InChI=1S/C8H8O/c1-2-8-5-3-6(8)7(8)9-4-5/h1,5-7H,3-4H2	InChI=1S/C8H8O/c1-2-8-5-3-6(8)7(8)9-4-5/h1,5-7H,3-4H2/t5-,6+,7-,8+/m1/s1
