16
gdb 17564	3.34074	2.17963	1.66292	1.2659	64.9	-0.2315	0.0796	0.3111	809.0066	0.12993	-383.681779	-383.674792	-383.673848	-383.712602	27.594	
O	-0.1263407064	 1.364639589	-0.0901178032	-0.45342
C	 0.0066155343	 0.0018939821	 0.0085750359	 0.362551
C	-0.8247415826	-0.8077366041	 0.9415773134	-0.326074
C	 0.6823692631	-0.9385662196	 1.0380774289	-0.143653
C	 1.1951863844	-1.834360956	-0.1044199618	-0.320472
C	 0.5754972857	-0.8415557364	-1.1056276102	 0.354606
C	 0.2296719307	-0.8917946553	-2.5247184283	-0.27215
O	 1.3957753391	-0.1764116708	-2.0631333318	-0.289266
H	 0.6066739895	 1.668206705	-0.6427841858	 0.295072
H	-1.2747221562	-0.2176986859	 1.7344544643	 0.125265
H	-1.441819005	-1.6345423883	 0.5932154918	 0.105377
H	 1.2185603174	-0.7103437387	 1.9498247441	 0.097095
H	 2.2832650323	-1.8508890623	-0.2012284625	 0.122582
H	 0.8113784414	-2.859730591	-0.1244985813	 0.102079
H	 0.4444705772	-1.7860477085	-3.1076063249	 0.11943
H	-0.575757535	-0.2667842493	-2.9073608185	 0.120976
129.5206	203.346	246.5479	361.3266	406.2337	413.2248	447.9615	516.7105	593.5576	662.7698	786.4476	820.6642	846.1735	873.3837	892.9042	951.1125	965.8735	996.727	1020.9703	1069.114	1103.4818	1118.5591	1134.3065	1161.7794	1164.1463	1216.0963	1249.5629	1265.0603	1353.3067	1428.8596	1446.4503	1478.3878	1507.9661	1533.338	3046.1761	3085.5755	3094.4558	3111.7781	3173.8915	3192.493	3203.056	3759.3947
OC12CC1CC21CO1	O[C@]12C[C@H]1C[C@]12CO1	
InChI=1S/C6H8O2/c7-6-2-4(6)1-5(6)3-8-5/h4,7H,1-3H2	InChI=1S/C6H8O2/c7-6-2-4(6)1-5(6)3-8-5/h4,7H,1-3H2/t4-,5-,6-/m1/s1
