16
gdb 52064	2.67219	1.1329	0.90544	2.3784	72.33	-0.2554	0.0125	0.2679	1277.8658	0.12191	-437.847359	-437.838119	-437.837175	-437.882623	32.754	
O	-0.0373999803	 0.7883242088	 1.0092087066	-0.319457
C	 0.1396572636	 1.3357105415	-0.0572522032	 0.16214
N	 1.3394926	 1.4503561443	-0.6913554646	-0.269099
C	 2.5820816653	 0.9805263739	-0.11457244	-0.231754
C	 3.5908322915	 2.108571878	 0.0327891674	 0.16187
C	 5.0116909402	 1.8555021114	-0.278982661	-0.207942
O	 4.1798279729	 2.5240764152	-1.2212618034	-0.269453
C	 3.2338091859	 3.1744205784	 0.9370491318	 0.327054
C	 2.9085717769	 4.0386826497	 1.7055750101	-0.425367
H	-0.6772174888	 1.7993267983	-0.6439640592	 0.079082
H	 1.3819772129	 1.9516867759	-1.5649732987	 0.259932
H	 2.334507977	 0.5499529666	 0.8584073934	 0.160111
H	 3.0278657976	 0.2001940412	-0.7422934593	 0.115122
H	 5.7721742449	 2.4707798772	 0.1966753538	 0.131023
H	 5.3214868468	 0.847489109	-0.5526169806	 0.12069
H	 2.6234316635	 4.8048258507	 2.3839908169	 0.206049
38.735	52.2685	133.8997	178.7759	229.8789	234.1956	307.91	378.4405	429.9699	546.4274	553.3685	578.4173	634.2537	669.9313	700.8204	777.2574	827.9482	907.9908	958.1053	997.2759	1034.1003	1053.3787	1131.9241	1169.1912	1208.0746	1229.2073	1289.4865	1345.1784	1402.9709	1429.4703	1474.5271	1517.6512	1531.0252	1808.4613	2242.947	2944.9191	3038.0101	3087.0229	3122.8823	3182.8091	3500.7919	3632.585
O=CNCC1(CO1)C#C	O=CNC[C@]1(CO1)C#C	
InChI=1S/C6H7NO2/c1-2-6(4-9-6)3-7-5-8/h1,5H,3-4H2,(H,7,8)	InChI=1S/C6H7NO2/c1-2-6(4-9-6)3-7-5-8/h1,5H,3-4H2,(H,7,8)/t6-/m0/s1
