16
gdb 31585	3.31859	1.19182	0.88666	1.4587	69.36	-0.194	0.0333	0.2273	1275.7278	0.123373	-475.059247	-475.050232	-475.049288	-475.093078	31.857	
C	-0.0451874245	 1.3322981811	 0.0219189789	-0.235742
O	 0.0482753027	-0.0950334734	 0.0736641177	-0.247622
C	 0.6681620153	-0.5748186641	 1.1400769047	 0.499976
N	 1.1978196739	 0.0684648973	 2.135974299	-0.470564
C	 1.6913049883	-0.9575452439	 2.9330370834	 0.246199
O	 2.3295100041	-0.6904200296	 4.0922102817	-0.434732
C	 1.4395665893	-2.1689204433	 2.3865889221	 0.222662
C	 1.7085656729	-3.5769431904	 2.7532827495	-0.501533
O	 0.7552250784	-1.9045475574	 1.1882229782	-0.224906
H	 0.9515477445	 1.7821767028	 0.0141164384	 0.14364
H	-0.5744716221	 1.5589392609	-0.9032652964	 0.140837
H	-0.599833438	 1.7121439085	 0.8844831198	 0.143644
H	 2.3393348892	 0.2690060934	 4.1861670995	 0.30377
H	 0.7857300006	-4.1570640795	 2.8751747134	 0.133345
H	 2.3249018708	-4.0893068688	 2.0045761907	 0.133388
H	 2.2470517345	-3.5939437035	 3.7040792893	 0.14764
95.0261	143.5429	149.0751	198.8573	200.8754	242.8295	253.8676	305.281	387.1482	397.4279	558.3144	651.3494	670.7241	684.2051	753.4978	816.1469	978.266	1011.1621	1069.963	1097.9326	1126.6575	1183.3923	1198.8337	1225.211	1320.3539	1393.3789	1416.6694	1432.5464	1471.9692	1474.8321	1480.0505	1497.7638	1503.3168	1649.9174	1761.55	3019.286	3045.9971	3064.7919	3119.0073	3124.9835	3161.3495	3816.9218
COC1=NC(O)=C(C)O1	COc1nc(O)c(C)o1	
InChI=1S/C5H7NO3/c1-3-4(7)6-5(8-2)9-3/h7H,1-2H3	InChI=1S/C5H7NO3/c1-3-4(7)6-5(8-2)9-3/h7H,1-2H3
