20
gdb 111327	2.4656	1.40805	1.06045	1.558	78.99	-0.2342	0.0692	0.3034	1206.7361	0.170402	-403.078087	-403.069492	-403.068547	-403.111447	32.898	
C	 0.0866480479	 1.6230152808	 0.0457304519	-0.382685
C	-0.057741646	 0.0978364754	 0.0181650237	-0.197158
C	 0.6373865225	-0.542522219	-1.1768142719	-0.076947
C	 2.1830157605	-0.5807754272	-1.2072435853	-0.057278
N	 2.6083349453	-1.438242958	-0.0753867011	-0.338064
C	 2.1944542681	-2.0623431448	-1.3636645463	-0.177514
C	 0.6798494838	-2.0892290345	-1.3124201047	 0.474242
C	-0.2376721579	-3.1386666697	-0.8803704467	-0.26256
O	-0.1039033372	-2.7754415877	-2.2687985474	-0.287591
H	 1.1397900243	 1.9195206916	 0.1004715528	 0.11709
H	-0.3409309408	 2.0813488245	-0.8533320322	 0.112115
H	-0.4226443406	 2.0536271831	 0.9132733063	 0.113096
H	 0.3576322642	-0.3344355748	 0.9344222216	 0.117916
H	-1.1222146771	-0.169158191	-0.0050386254	 0.09465
H	 0.2565204145	-0.1367361961	-2.1215235186	 0.088045
H	 2.8523639381	 0.1575125236	-1.6302604094	 0.096389
H	 3.6282186374	-1.4377889434	-0.0624862423	 0.231376
H	 2.8546559889	-2.711702069	-1.924630903	 0.10394
H	 0.1485025564	-4.1217217759	-0.6150070532	 0.115193
H	-1.1907069223	-2.8744465679	-0.4247821687	 0.115745
81.6325	122.0173	154.7677	207.3258	267.3296	274.7833	310.042	439.2599	489.6664	556.0389	612.8158	744.6635	787.1088	822.8246	837.1557	866.0583	894.8897	904.0926	927.7613	956.7141	984.1434	1023.3241	1060.3647	1085.4561	1105.885	1118.9381	1122.5036	1147.6939	1154.3318	1175.9865	1205.4354	1274.0459	1291.3261	1308.8419	1347.0876	1359.0397	1387.9091	1411.5187	1450.9883	1486.02	1500.6462	1505.2643	1539.1299	3025.2262	3029.3773	3045.8589	3074.3605	3084.2957	3099.3521	3103.0644	3171.0382	3189.7379	3202.9747	3469.8955
CCC1C2NC2C11CO1	CC[C@H]1[C@H]2N[C@H]2[C@]21CO2	
InChI=1S/C7H11NO/c1-2-4-5-6(8-5)7(4)3-9-7/h4-6,8H,2-3H2,1H3	InChI=1S/C7H11NO/c1-2-4-5-6(8-5)7(4)3-9-7/h4-6,8H,2-3H2,1H3/t4-,5+,6+,7+/m0/s1
