14
gdb 61331	7.28306	0.56766	0.53929	5.23	77.96	-0.2845	-0.0652	0.2193	1874.9027	0.098475	-436.675874	-436.666658	-436.665714	-436.711134	31.499	
O	 0.071411649	 1.5127623599	-0.0163095132	-0.41947
C	 0.0204314701	 0.1213659926	 0.0078061448	 0.055273
C	 0.654640863	-0.4848081678	-1.2747747036	-0.395838
C	-0.0701876895	-0.1120189154	-2.4750135821	 0.076188
C	-0.6837787179	 0.1924720718	-3.4693560151	 0.08384
C	-1.3761982218	 0.5324386589	-4.5957296102	 0.210539
N	-1.9657773137	 0.8175219586	-5.5551757342	-0.334798
C	 0.7308466248	-0.423211138	 1.2366140582	 0.13066
O	 1.23788215	 0.3136637514	 2.044398328	-0.243715
H	 0.5508032702	 1.7766528574	 0.7855579389	 0.301609
H	-1.0239515123	-0.2335791557	 0.0623315147	 0.116633
H	 1.6914963475	-0.1347280582	-1.3473929608	 0.16294
H	 0.6812215208	-1.5795776656	-1.1924044801	 0.147875
H	 0.7517815397	-1.5260310899	 1.3517640147	 0.108265
45.5675	61.1294	117.339	156.934	207.9964	285.4043	331.7939	362.9471	371.7845	439.4112	504.839	577.0607	580.0519	718.6809	749.1173	838.4109	879.5907	977.7336	1059.4346	1155.9492	1178.8584	1238.2257	1257.3533	1320.4807	1353.6904	1402.2412	1435.1459	1449.3189	1820.376	2269.8592	2405.295	2932.2012	2961.6947	3022.4104	3068.3873	3688.6533
OC(CC#CC#N)C=O	O[C@@H](CC#CC#N)C=O	
InChI=1S/C6H5NO2/c7-4-2-1-3-6(9)5-8/h5-6,9H,3H2	InChI=1S/C6H5NO2/c7-4-2-1-3-6(9)5-8/h5-6,9H,3H2/t6-/m0/s1
