15
gdb 127960	2.66008	1.60199	1.0062	1.3589	76.47	-0.2371	-0.0372	0.1998	1115.3505	0.11346	-446.250608	-446.24236	-446.241416	-446.283894	29.887	
C	-0.2583133414	 1.4138965691	 0.1674360488	-0.349328
N	-0.2522003749	-0.0366698663	 0.1540647622	-0.253574
C	 0.5824362847	-0.6489205537	 0.8877332631	 0.405801
N	 1.5202159039	-0.046749232	 1.7278030566	-0.334268
N	 2.4398528355	-0.6375613045	 2.5495236522	-0.078746
N	 2.4958202762	-1.8866955805	 2.5825759073	-0.072635
N	 1.6356332412	-2.6012533018	 1.7965792396	-0.31788
C	 0.647476162	-2.1385079825	 0.9263318242	 0.350325
N	-0.1270836384	-2.8650243913	 0.2295448161	-0.487027
H	 0.7026050638	 1.8407515379	-0.1620222622	 0.119094
H	-1.0298796266	 1.7758681668	-0.5149440323	 0.140674
H	-0.4804017219	 1.8235204284	 1.1660167589	 0.119043
H	 1.5604626233	 0.9578259542	 1.7825179408	 0.276146
H	 1.764150787	-3.5965070582	 1.9014697631	 0.269505
H	 0.0535624154	-3.8602430054	 0.3777668716	 0.212871
81.0209	93.7183	167.7378	204.9395	213.5492	355.0638	479.6993	514.6654	527.1518	539.9722	563.8771	583.5817	657.8498	744.5462	767.0034	855.8447	954.4829	1043.3747	1059.5882	1098.5103	1099.2949	1124.9086	1186.5885	1235.3625	1382.4602	1425.6199	1439.1529	1469.6973	1506.9063	1509.9459	1617.767	1729.1828	1746.0216	2964.2929	3011.9117	3112.4937	3453.7315	3624.2536	3657.3129
CN=C1NN=NNC1=N	C[N]c1[nH]nn[nH]c1[NH]	
InChI=1S/C3H6N6/c1-5-3-2(4)6-8-9-7-3/h1H3,(H2,4,6,9)(H,5,7,8)	InChI=1S/C3H6N6/c1-5-3-2(4)6-8-9-7-3/h1H3,(H2,4,6,9)(H,5,7,8)
