20
gdb 117449	5.58441	0.57282	0.52622	3.0645	78.18	-0.2504	-0.0295	0.2209	2076.2613	0.168335	-440.340297	-440.329566	-440.328622	-440.379062	36.216	
C	-0.0692885339	 1.584777503	 0.0100660869	-0.388037
C	 0.0089911463	 0.0564554359	 0.0025049431	-0.164157
C	-1.37184878	-0.6006757417	 0.0129289961	-0.283155
C	-1.3352668746	-2.1164335511	 0.0054618742	 0.352445
O	-0.3026384627	-2.7504212561	-0.0092878624	-0.30662
C	-2.68442455	-2.8271449304	 0.0168313494	-0.224358
N	-2.4865224861	-4.2525634804	 0.0070304293	-0.281185
C	-3.519660076	-5.127650353	 0.0053988801	 0.153927
O	-4.6910861679	-4.8076224166	 0.0143787527	-0.330001
H	 0.9302749991	 2.0291526744	 0.0023395406	 0.11985
H	-0.6074698165	 1.9618478125	-0.8668254996	 0.115984
H	-0.5903184846	 1.9539936615	 0.9005526342	 0.115973
H	 0.5615514817	-0.290043479	-0.8771890195	 0.115313
H	 0.5784407875	-0.2977778959	 0.8682500839	 0.115233
H	-1.9525962274	-0.2825579333	 0.8908358365	 0.128042
H	-1.9693753765	-0.274625036	-0.8507170447	 0.128159
H	-3.2558286647	-2.5068536303	 0.8992551319	 0.145334
H	-3.2757626419	-2.4980883477	-0.8490315204	 0.145576
H	-1.5244380996	-4.5614789024	-0.0040887112	 0.263025
H	-3.1746338223	-6.1801711833	-0.0050891712	 0.078652
15.7966	35.0983	71.889	96.0949	111.6111	193.5503	242.8023	267.8074	302.6815	339.1425	396.7022	462.5357	587.6282	665.1137	718.9502	795.7566	823.5367	893.9547	918.6725	954.6656	1016.7311	1036.4474	1052.1524	1105.1422	1123.5163	1145.016	1226.0104	1227.7259	1264.6217	1316.7218	1325.9796	1360.9104	1399.9628	1416.956	1423.3942	1448.5649	1481.6301	1487.8998	1500.8116	1508.1758	1516.1549	1791.6752	1809.1516	2943.5662	3008.2159	3019.1361	3029.4448	3030.424	3041.7962	3051.1155	3077.6417	3102.364	3107.4523	3600.101
CCCC(=O)CNC=O	CCCC(=O)CNC=O	
InChI=1S/C6H11NO2/c1-2-3-6(9)4-7-5-8/h5H,2-4H2,1H3,(H,7,8)	InChI=1S/C6H11NO2/c1-2-3-6(9)4-7-5-8/h5H,2-4H2,1H3,(H,7,8)
