17
gdb 108457	2.38178	1.73428	1.22712	3.286	69.33	-0.2364	0.0143	0.2507	1032.8296	0.136791	-455.100391	-455.092369	-455.091425	-455.133103	30.409	
O	-0.0645768585	 1.3914218145	 0.0623753995	-0.418245
C	-0.0070808229	-0.0196008623	 0.1180879196	-0.179164
C	-1.4000630419	-0.595907735	 0.0240961973	 0.18649
N	-2.3577145037	-0.4075231283	 1.1514659986	-0.345849
C	-2.6877404351	-1.8603674083	 1.1641877263	-0.190833
C	-1.8887701203	-2.0633725036	-0.1331350602	 0.018325
O	-2.6229309337	-1.6798364967	-1.3440467128	-0.278063
C	-2.1271930685	-0.3914041554	-1.2906000584	 0.470169
N	-2.2112357327	 0.5758705982	-2.0843622283	-0.576631
H	-0.565700573	 1.6215885043	-0.7340809744	 0.307499
H	 0.6148475749	-0.4429064383	-0.6876137658	 0.097968
H	 0.4626172301	-0.283527435	 1.072885263	 0.103762
H	-1.9118136961	-0.0647992827	 1.9942351403	 0.232172
H	-2.246130701	-2.4194500989	 1.9985076725	 0.109633
H	-3.7577106663	-2.081682414	 1.1086644984	 0.123052
H	-1.2894618586	-2.956223843	-0.3013162779	 0.105506
H	-2.7788833028	 0.3685989546	-2.9070646278	 0.234209
89.1303	132.6169	161.7578	233.1847	292.8623	333.154	420.3048	468.2772	521.5235	619.2107	665.4077	717.6675	761.2055	825.3076	858.5938	868.9267	936.1382	978.8754	998.7275	1006.2583	1036.271	1064.6002	1082.3932	1130.7326	1150.7031	1179.467	1219.9466	1258.7882	1270.6933	1317.3263	1342.7326	1377.9644	1414.836	1453.4112	1496.0045	1503.5974	1821.4858	2972.4678	3024.7803	3056.9847	3087.0171	3135.1981	3482.1063	3550.1921	3725.4614
OCC12NCC1OC2=N	OC[C@]12NC[C@H]1O[C]2[NH]	
InChI=1S/C5H8N2O2/c6-4-5(2-8)3(9-4)1-7-5/h3,6-8H,1-2H2	InChI=1S/C5H8N2O2/c6-4-5(2-8)3(9-4)1-7-5/h3,6-8H,1-2H2/t3-,5+/m1/s1
