15
gdb 12184	3.7335	1.46031	1.2129	5.3216	66.95	-0.2651	-0.0445	0.2206	1000.1482	0.117904	-362.688466	-362.680523	-362.679579	-362.721275	28.175	
C	 0.1640832096	 1.6241954584	-0.0730073362	-0.410122
C	 0.1003768389	 0.1046659238	-0.0059682083	-0.092237
C	 0.6507250012	-0.761530804	-1.1832026804	-0.26018
C	 1.3636630115	-1.717537216	-0.1676702493	-0.270747
C	 2.7271879109	-2.1328673833	-0.4184602107	 0.28548
N	 3.8246120638	-2.4344791252	-0.6225690009	-0.31678
C	 1.1022095329	-0.61041522	 0.9114494151	 0.394527
O	 1.5943607409	-0.3675956179	 1.9673571097	-0.269431
H	 1.168630165	 1.963276658	-0.3442251114	 0.132504
H	-0.539598857	 2.012567899	-0.8152740919	 0.128807
H	-0.086734124	 2.0606225334	 0.8977962815	 0.143825
H	-0.9112728571	-0.2252899622	 0.2648775313	 0.116244
H	-0.0830351876	-1.2334536414	-1.8356696005	 0.126995
H	 1.3759059488	-0.2135783182	-1.7877442537	 0.138725
H	 0.7431768923	-2.5907341542	 0.0623053957	 0.152391
56.3709	129.1217	184.2519	203.1053	221.6164	330.315	401.9759	509.332	513.7527	589.5536	666.5985	771.1257	824.0831	913.9239	918.8861	948.8739	1029.172	1066.9965	1075.3127	1135.9895	1147.0494	1205.9193	1239.4831	1257.6715	1308.3832	1346.8012	1408.9741	1489.0777	1494.144	1495.4928	1907.409	2355.5596	3029.6079	3042.	3060.9081	3089.2785	3113.1278	3120.2105	3152.3512
CC1CC(C#N)C1=O	C[C@H]1C[C@@H](C#N)C1=O	
InChI=1S/C6H7NO/c1-4-2-5(3-7)6(4)8/h4-5H,2H2,1H3	InChI=1S/C6H7NO/c1-4-2-5(3-7)6(4)8/h4-5H,2H2,1H3/t4-,5-/m0/s1
