21
gdb 6714	4.4899	0.8364	0.75857	3.695	76.87	-0.2491	0.0345	0.2836	1540.303	0.1876	-366.301438	-366.291457	-366.290513	-366.337516	35.037	
C	-0.3836172555	 1.4521991862	 0.016286581	-0.383074
C	 0.0598019025	-0.0177075915	-0.0152812281	 0.044538
C	 1.0650612129	-0.2550978825	-1.1503906117	-0.38956
C	 0.6503407747	-0.4804964341	 1.3286753567	-0.173211
C	-0.3490752831	-0.4694044144	 2.4915905874	-0.170437
N	 0.2205258607	-1.0012148073	 3.7204423114	-0.273563
C	 0.3962392451	-0.2587954609	 4.845896073	 0.153723
O	 0.0775589531	 0.9039073644	 4.9801331677	-0.322807
H	 0.4643065671	 2.1100566345	 0.2415622497	 0.117073
H	-0.790073732	 1.7562984751	-0.9538252433	 0.11142
H	-1.1560186635	 1.6373190219	 0.7682838538	 0.12091
H	-0.8279674039	-0.6350219314	-0.2190377744	 0.070747
H	 1.976120955	 0.3352474417	-0.9958775233	 0.114573
H	 1.3580578987	-1.308567989	-1.2127628529	 0.107972
H	 0.6437813236	 0.0343437634	-2.1185993711	 0.111588
H	 1.040570542	-1.5010257402	 1.2094908002	 0.081391
H	 1.5100626727	 0.149441085	 1.5925673624	 0.106599
H	-0.6702385549	 0.5456198106	 2.7313959792	 0.152688
H	-1.2434968028	-1.0469744429	 2.2211728211	 0.104983
H	 0.5523174705	-1.9529245834	 3.7282786845	 0.243541
H	 0.8726350772	-0.8502460154	 5.6536073368	 0.070905
29.6307	56.0815	105.3482	144.6928	225.2972	240.5618	257.042	271.2995	336.3156	395.1813	438.9494	467.3902	538.1153	740.675	804.6308	835.702	928.2897	944.3003	967.2046	972.3087	1015.1642	1031.4276	1052.1517	1147.6076	1177.4939	1194.5575	1213.6591	1252.7143	1304.4462	1330.9972	1365.973	1373.7604	1401.5569	1405.6833	1425.1506	1431.6735	1479.2338	1488.7349	1495.1105	1500.2614	1506.7824	1510.6907	1536.6316	1806.8633	2929.7637	2991.1385	3005.4767	3013.6328	3025.2054	3031.0877	3051.7425	3090.5201	3095.8054	3099.9298	3106.6018	3129.1676	3629.318
CC(C)CCNC=O	CC(C)CCNC=O	
InChI=1S/C6H13NO/c1-6(2)3-4-7-5-8/h5-6H,3-4H2,1-2H3,(H,7,8)	InChI=1S/C6H13NO/c1-6(2)3-4-7-5-8/h5-6H,3-4H2,1-2H3,(H,7,8)
