18
gdb 73066	2.52033	1.47786	1.22233	3.4119	72.25	-0.2449	0.0203	0.2653	1077.8037	0.147615	-439.075482	-439.066965	-439.066021	-439.108877	32.119	
O	-0.195276789	 1.2841061579	 0.4838258343	-0.466563
C	-0.1672836574	-0.0629975129	 0.1998059783	 0.419882
C	 0.8362256624	-0.7214089081	-0.7501662928	-0.29295
C	-0.2888092171	-1.6894389346	-1.2369341398	-0.224542
C	-1.2840953556	-1.0005255971	-0.2971394017	-0.178223
C	-0.7930770265	-1.0522825222	 1.1300303994	-0.044612
N	-0.0506335549	-2.1404316342	 1.6963280826	-0.285054
C	 1.0150560661	-1.897210153	 2.5074036351	 0.15248
O	 1.4681265693	-0.7939949898	 2.7387001868	-0.331305
H	 0.3135856702	 1.4004752856	 1.2974714018	 0.296709
H	 1.1426321668	-0.0265704023	-1.5345099168	 0.114649
H	 1.7260475951	-1.1617547996	-0.2920633042	 0.10574
H	-0.5389623576	-1.5492968221	-2.2900178997	 0.110915
H	-0.1193717967	-2.7550877747	-1.0570033563	 0.089538
H	-2.3294928565	-0.8076440378	-0.5071992093	 0.095891
H	-1.4731943275	-0.5609368075	 1.8245601271	 0.106894
H	-0.4134686683	-3.0801418092	 1.6454893373	 0.250386
H	 1.4417824372	-2.8266569785	 2.9328894078	 0.080167
65.1412	94.6789	186.1309	224.5105	287.6574	314.2268	381.0242	398.0962	464.4858	520.3754	569.8778	628.6665	731.341	794.5606	808.8936	865.0817	895.9669	948.7997	968.4754	1004.4618	1031.7835	1039.9659	1070.6724	1114.9176	1134.9677	1186.454	1210.088	1224.8301	1239.3567	1257.062	1304.6443	1332.7835	1348.727	1425.4508	1463.6754	1478.5608	1498.1019	1513.2062	1791.0556	2942.7077	3055.8795	3065.7403	3108.5578	3118.1721	3127.3747	3183.2946	3615.8764	3759.0776
OC12CCC1C2NC=O	O[C@]12CC[C@H]1[C@H]2NC=O	
InChI=1S/C6H9NO2/c8-3-7-5-4-1-2-6(4,5)9/h3-5,9H,1-2H2,(H,7,8)	InChI=1S/C6H9NO2/c8-3-7-5-4-1-2-6(4,5)9/h3-5,9H,1-2H2,(H,7,8)/t4-,5+,6+/m0/s1
