21
gdb 40430	3.39326	1.19699	1.09294	1.4048	81.59	-0.2211	0.089	0.3101	1204.3245	0.184046	-387.06204	-387.053958	-387.053014	-387.095032	32.03	
C	 0.0618067848	 1.4260642756	-0.3326738661	-0.27992
C	 1.3895438994	 0.8016485585	 0.0230925426	-0.269986
C	 0.13247089	-0.035283167	 0.0404176638	-0.079518
C	-0.4448180854	-0.5913377966	 1.3059444139	 0.338099
C	-0.4641023097	-2.1061515875	 1.5006320327	-0.385857
C	-1.752489069	-1.337813476	 1.3407527814	 0.08426
O	-2.4920666499	-1.0098877259	 2.4863613715	-0.257916
C	-1.5976856243	-0.405391599	 3.4198040286	-0.093631
C	-0.4451674409	 0.218711224	 2.5993985135	-0.324454
H	-0.3740294855	 2.125969191	 0.3712396858	 0.114065
H	-0.1317930402	 1.6732694952	-1.3707085045	 0.110953
H	 2.1138954584	 0.6325896893	-0.766154969	 0.109893
H	 1.8302474537	 1.0726677134	 0.9765878991	 0.111632
H	 0.030824241	-0.7197818776	-0.7983326233	 0.077524
H	-0.1405831835	-2.7084524304	 0.6576688701	 0.109901
H	-0.2140589623	-2.5288744086	 2.4681663667	 0.111935
H	-2.3873747735	-1.4820057644	 0.4740631883	 0.098909
H	-2.1630744943	 0.3281730407	 4.0011357617	 0.10984
H	-1.2128650561	-1.1611653351	 4.118539364	 0.098986
H	 0.5019307172	 0.1774774262	 3.1461859048	 0.105331
H	-0.6581423401	 1.2693088942	 2.3775355345	 0.109955
48.8959	148.9294	188.4518	233.5802	297.4809	356.1008	435.364	470.9286	563.1227	686.7804	697.4833	781.907	814.9178	822.377	855.0922	889.3907	896.9456	930.2551	946.5932	972.0772	1006.5375	1022.4114	1029.2453	1058.7676	1066.6847	1073.9242	1078.4021	1112.1342	1138.1839	1165.899	1196.7529	1210.9761	1224.2773	1239.1961	1257.2688	1291.2788	1332.2978	1357.0059	1403.7551	1433.9666	1468.7524	1478.9735	1495.9606	1510.56	1527.0114	3002.0464	3046.5006	3079.9785	3093.8502	3124.6877	3128.839	3132.0603	3138.3545	3179.9106	3208.8996	3211.0842	3223.8891
C1CC1C12CC1OCC2	C1CC1[C@]12C[C@H]1OCC2	
InChI=1S/C8H12O/c1-2-6(1)8-3-4-9-7(8)5-8/h6-7H,1-5H2	InChI=1S/C8H12O/c1-2-6(1)8-3-4-9-7(8)5-8/h6-7H,1-5H2/t7-,8+/m1/s1
