21
gdb 63815	3.07125	1.51012	1.34036	1.6362	81.03	-0.2489	0.0715	0.3204	1057.1811	0.181959	-387.03408	-387.025954	-387.02501	-387.066009	33.216	
C	-0.193534214	 1.6031654871	 0.0022699069	-0.45655
C	 0.001001309	 0.0894229947	 0.0102310846	 0.342803
C	-1.3310849944	-0.6264370104	-0.2330065272	-0.436956
C	 1.1350815373	-0.4853885765	-0.919865377	-0.292203
C	 1.7634850747	-1.2322128629	 0.29207347	-0.055313
C	 2.8948331507	-0.4967540657	 1.054403532	 0.009653
O	 2.6647345267	 0.9098225959	 0.936300137	-0.233929
C	 1.9169718766	 0.1862388863	 1.9240276131	-0.000442
C	 0.7324006786	-0.5472729823	 1.244063091	-0.090112
H	 0.7524382783	 2.1269180245	 0.1473634725	 0.139453
H	-0.6240977008	 1.929859081	-0.951982598	 0.105985
H	-0.8856585369	 1.9118880759	 0.7951703539	 0.103029
H	-1.7431104931	-0.3563570497	-1.2121431608	 0.110938
H	-1.2143921476	-1.7157275773	-0.2099380007	 0.107694
H	-2.0697226326	-0.3533533738	 0.5297233484	 0.108711
H	 0.7692960633	-1.1409738736	-1.7143843742	 0.090411
H	 1.7858439775	 0.2753748124	-1.3539942698	 0.108705
H	 1.8558788955	-2.3168644129	 0.2485257199	 0.071982
H	 3.9182457883	-0.8092543397	 1.2317212804	 0.101359
H	 1.9942746572	 0.5472629331	 2.9439045038	 0.101282
H	 0.1304332257	-1.1344090859	 1.9405435043	 0.063501
144.271	195.7604	231.7755	265.7999	292.9571	327.1411	353.2559	374.2885	490.5792	588.5087	623.9353	736.783	778.6297	809.325	824.1186	849.9013	886.9601	892.9728	933.9531	948.8801	960.314	969.719	987.8051	1021.1371	1039.7595	1050.2577	1099.4758	1125.9957	1185.0411	1203.5775	1218.8684	1235.827	1242.9814	1266.2282	1280.4535	1290.2459	1314.9566	1379.5317	1397.3589	1415.1099	1471.8413	1485.2372	1489.1477	1500.3112	1515.2152	3016.5278	3023.8484	3063.2532	3076.883	3086.3821	3087.1029	3090.7477	3116.1244	3126.7805	3138.0028	3166.8726	3182.0594
CC1(C)CC2C3OC3C12	CC1(C)C[C@H]2[C@H]3O[C@H]3[C@@H]12	
InChI=1S/C8H12O/c1-8(2)3-4-5(8)7-6(4)9-7/h4-7H,3H2,1-2H3	InChI=1S/C8H12O/c1-8(2)3-4-5(8)7-6(4)9-7/h4-7H,3H2,1-2H3/t4-,5+,6-,7+/m1/s1
