15
gdb 49892	3.0766	1.26731	0.92905	3.2868	68.23	-0.2555	-0.0374	0.2181	1172.1214	0.113254	-454.002271	-453.994428	-453.993484	-454.03547	28.426	
O	-0.7742453648	 0.9375167599	 0.6911491233	-0.239757
C	 0.1510388117	 0.9026945183	-0.0753293809	 0.156135
C	 1.3508211144	 1.8438056035	-0.0159745279	-0.07677
C	 1.4073589451	 2.63040092	 1.3003312703	-0.337758
C	 2.7347249856	 3.3381150806	 1.4869794957	 0.402794
O	 2.9067612259	 4.3470878606	 2.128235996	-0.338721
N	 3.7966459723	 2.6671117096	 0.8863719938	-0.332191
C	 3.6433375971	 1.5156977069	 0.1237997322	 0.098448
N	 2.5456469635	 1.0596515545	-0.3218285146	-0.257907
H	 0.2125654922	 0.1677924402	-0.9055594252	 0.103114
H	 1.2051068816	 2.5448755258	-0.858447238	 0.120302
H	 0.60199977	 3.3612282005	 1.3765708872	 0.152663
H	 1.2828675231	 1.9389113123	 2.1436164727	 0.151307
H	 4.720443308	 3.0191920304	 1.0936844663	 0.264213
H	 4.5754665443	 0.9975172269	-0.0972963009	 0.134127
61.8083	114.3741	147.4942	190.6762	349.6446	399.7934	454.9045	522.5151	553.5814	583.3399	628.3725	669.0296	771.4715	857.8416	877.3877	922.915	956.0445	1050.3081	1062.6432	1099.1551	1121.7267	1193.0843	1263.6062	1268.9753	1310.4286	1346.5859	1401.4715	1417.4263	1448.5598	1456.9304	1736.5819	1829.8444	1839.3176	2918.7041	2946.3545	3045.1408	3136.6593	3145.3049	3612.6638
O=CC1CC(=O)NC=N1	O=C[C@H]1CC(=O)NC=N1	
InChI=1S/C5H6N2O2/c8-2-4-1-5(9)7-3-6-4/h2-4H,1H2,(H,6,7,9)	InChI=1S/C5H6N2O2/c8-2-4-1-5(9)7-3-6-4/h2-4H,1H2,(H,6,7,9)/t4-/m1/s1
