17
gdb 103055	2.62036	1.53966	1.1706	4.1503	73.45	-0.2344	0.0137	0.2481	1074.2473	0.135814	-417.949075	-417.940633	-417.939689	-417.982126	31.208	
C	 0.1347556076	 1.103800779	 0.437976788	-0.260838
O	-0.0782557346	-0.1037096349	-0.2902178189	-0.279382
C	-1.3319149746	-0.6551625639	-0.1015712006	 0.314838
C	-2.409423604	 0.0143166078	-0.8081852044	 0.244935
N	-3.2577941521	 0.5703304805	-1.3643058238	-0.345758
C	-1.469861642	-2.1598826753	-0.013908484	-0.166527
C	-0.2786466245	-2.714187771	 0.776659716	-0.192041
N	-0.5413479029	-1.7494322604	 1.902475693	-0.333336
C	-1.7563056707	-1.2984995432	 1.2115092896	-0.096153
H	 1.1491122536	 1.4292722657	 0.2010187125	 0.134009
H	-0.5736715533	 1.8835179059	 0.1297233514	 0.126869
H	 0.0483570809	 0.924196328	 1.5149531423	 0.135289
H	-2.1112231548	-2.7112354281	-0.6886065644	 0.120917
H	-0.444360342	-3.7546954048	 1.0675901343	 0.115301
H	 0.7097881619	-2.6037212484	 0.3251605157	 0.130943
H	-0.7795743893	-2.2496756766	 2.7519259088	 0.232624
H	-2.6729305092	-1.0322701804	 1.7242525546	 0.11831
106.0214	148.9445	152.5618	181.1144	204.0874	286.1698	335.2551	456.3489	483.3855	547.0078	590.5904	680.0936	761.3985	815.8829	845.8581	904.8593	955.6155	989.6173	1003.6109	1025.5542	1037.5007	1072.9787	1096.5167	1127.4797	1178.15	1179.9471	1221.8632	1253.9108	1265.2331	1293.4426	1348.3762	1412.1985	1475.9577	1491.03	1494.679	1501.6778	2345.0416	3014.9399	3061.5459	3088.5336	3118.1708	3137.8322	3186.5525	3202.8785	3535.0394
COC1(C#N)C2CNC12	CO[C@@]1(C#N)[C@H]2CN[C@@H]12	
InChI=1S/C6H8N2O/c1-9-6(3-7)4-2-8-5(4)6/h4-5,8H,2H2,1H3	InChI=1S/C6H8N2O/c1-9-6(3-7)4-2-8-5(4)6/h4-5,8H,2H2,1H3/t4-,5+,6-/m0/s1
