22
gdb 122087	3.17325	0.73802	0.63303	4.363	84.29	-0.2664	0.0373	0.3038	1854.1863	0.191914	-404.367195	-404.356062	-404.355118	-404.404673	38.329	
C	-0.0953841054	 1.5205868849	 0.0322675066	-0.386295
C	-0.0304508948	 0.0041298668	 0.0783636385	-0.03325
O	-1.3478373039	-0.504667674	-0.0314047204	-0.242464
C	-1.4152047408	-1.905256274	 0.0096487955	-0.061293
C	-2.8943191103	-2.3185671714	 0.0034737994	-0.152409
C	-3.0636537561	-3.8495689636	-0.1210131791	-0.186198
C	-4.5221031974	-4.2983695006	-0.2299085576	-0.397458
C	-3.5686915184	-1.8105470792	 1.2035237197	 0.293328
N	-4.1072117568	-1.4476357812	 2.159598965	-0.336008
H	 0.9083934641	 1.9464845468	 0.1202724292	 0.116943
H	-0.5348428704	 1.8579095874	-0.9106280357	 0.127626
H	-0.7094378912	 1.90123842	 0.8529075564	 0.136701
H	 0.5941786812	-0.3846725285	-0.7435899022	 0.086886
H	 0.4263619116	-0.3375972237	 1.0217158548	 0.093644
H	-0.9183467443	-2.3533367285	-0.8673733286	 0.092476
H	-0.9183749999	-2.3018165809	 0.9102975667	 0.101925
H	-3.3630574276	-1.833993848	-0.8625210445	 0.132804
H	-2.5065191757	-4.1704596708	-1.0087203856	 0.107003
H	-2.5873682112	-4.3299401152	 0.7415112561	 0.117714
H	-5.0067689648	-3.8597744371	-1.1088225212	 0.119998
H	-4.5845264924	-5.3863351857	-0.3218971515	 0.120855
H	-5.0947537154	-4.0003124437	 0.6531310585	 0.14747
48.0124	66.4852	81.3063	113.7233	135.4631	169.5569	227.4689	244.6088	250.0318	278.7967	319.413	411.3479	479.4281	560.2393	615.9896	759.3354	822.7803	835.7511	894.5843	931.5344	1008.1652	1023.9491	1051.7603	1099.3282	1124.496	1135.6891	1168.7375	1173.2262	1189.124	1252.9839	1272.3154	1297.3012	1299.8311	1367.6654	1376.4432	1385.6483	1407.4079	1418.8281	1449.1633	1483.4849	1486.7984	1499.27	1500.0037	1507.453	1513.162	1535.8091	2357.2918	2953.2001	2964.3922	2987.1216	2992.2301	3033.6197	3039.3392	3041.3548	3047.2483	3074.3029	3109.1111	3120.0046	3121.6375	3125.9044
CCOCC(CC)C#N	CCOC[C@@H](CC)C#N	
InChI=1S/C7H13NO/c1-3-7(5-8)6-9-4-2/h7H,3-4,6H2,1-2H3	InChI=1S/C7H13NO/c1-3-7(5-8)6-9-4-2/h7H,3-4,6H2,1-2H3/t7-/m0/s1
