13
gdb 47998	3.1884	0.81811	0.68296	5.2689	76.23	-0.276	-0.0779	0.198	1536.225	0.087848	-415.556589	-415.547849	-415.546905	-415.591837	29.286	
O	-0.1291112792	 0.0184222111	 0.4514433512	-0.222914
C	 0.0226749532	 1.059409956	-0.1439146658	 0.023708
C	 1.2383197416	 1.8367529089	-0.1160961916	 0.067267
C	 2.2376669379	 2.5138518915	-0.1179749889	 0.183818
C	 3.4320752872	 3.3018553844	-0.0758002971	-0.264795
N	 3.7275005636	 4.1550387163	-1.2412878043	-0.292039
C	 3.3822105853	 4.8105312559	 0.0220591993	-0.1834
C	 2.1266305731	 5.5198928796	 0.0708013206	 0.343103
N	 1.1299736626	 6.0995011346	 0.1447241056	-0.315904
H	-0.7799601359	 1.5003785259	-0.7670031885	 0.114873
H	 4.2720221234	 2.8459443409	 0.4437197187	 0.139606
H	 4.7321809403	 4.2031995051	-1.3934093927	 0.25874
H	 4.1717315369	 5.2709848298	 0.6103027036	 0.147937
41.6487	61.7175	107.1111	155.3869	216.9239	239.935	294.4201	447.6461	502.091	560.2363	601.8713	661.1217	762.4893	829.6317	881.7439	913.4346	959.6657	1020.2208	1065.8823	1137.7025	1187.3548	1196.6603	1252.5745	1397.7953	1419.5039	1439.5402	1768.5662	2335.9197	2368.1066	2937.7906	3135.3436	3150.9223	3509.8263
O=CC#CC1NC1C#N	O=CC#C[C@H]1N[C@H]1C#N	
InChI=1S/C6H4N2O/c7-4-6-5(8-6)2-1-3-9/h3,5-6,8H	InChI=1S/C6H4N2O/c7-4-6-5(8-6)2-1-3-9/h3,5-6,8H/t5-,6+/m1/s1
