19
gdb 89578	3.78391	1.21087	1.08236	1.2698	78.1	-0.2249	0.0207	0.2456	1159.5422	0.159287	-423.015557	-423.007496	-423.006552	-423.048153	31.609	
O	-0.7193036215	 1.170162637	 0.9849253424	-0.434621
C	-0.0580420686	 0.2493546562	 0.1277933456	 0.113036
C	 0.5695659528	-0.9509441949	 0.8858630088	-0.313936
C	-0.7644435502	-1.7355227717	 0.6700463637	 0.417042
C	-1.108391335	-0.7153664635	-0.4618813469	-0.280188
O	-0.6259536597	-3.0903458582	 0.2661140353	-0.317044
C	-1.4082298362	-3.947181747	 1.0952850019	-0.138396
C	-2.0761925268	-3.0286284108	 2.0791686935	-0.113673
C	-1.7088505663	-1.7767031628	 1.8337612758	-0.13456
H	-0.0485234463	 1.6084281512	 1.5187354973	 0.282041
H	 0.5888730258	 0.7749447554	-0.5848998146	 0.065927
H	 1.3699420531	-1.4239287302	 0.3105364826	 0.110907
H	 0.9069043379	-0.7777397642	 1.9120421544	 0.09061
H	-2.1307598021	-0.3372933645	-0.5262264796	 0.107584
H	-0.7951555887	-1.1176939886	-1.427909832	 0.111271
H	-2.1309495264	-4.5052270825	 0.4795237179	 0.10553
H	-0.758517311	-4.6906929922	 1.5833298273	 0.104419
H	-2.7494776984	-3.3743453607	 2.8531501378	 0.104292
H	-2.0117261025	-0.877435918	 2.3522002889	 0.119759
96.7364	104.1455	203.7295	298.6657	315.7474	354.9683	396.9343	411.5529	509.0331	514.2242	743.5456	782.3288	799.5311	826.5775	852.3659	857.6857	929.5141	941.4371	958.724	971.6499	988.1776	1027.3644	1034.1738	1047.2621	1062.4748	1115.3097	1168.6322	1184.8259	1191.9953	1199.9713	1233.426	1260.7773	1282.8562	1324.1585	1366.8793	1380.7289	1411.9852	1451.4817	1478.6272	1519.8317	1688.2579	2975.844	2992.4047	3021.2818	3052.1298	3072.1428	3115.6843	3134.8163	3212.2994	3242.7316	3811.3493
OC1CC2(C1)OCC=C2	O[C@H]1C[C@@]2(C1)OCC=C2	
InChI=1S/C7H10O2/c8-6-4-7(5-6)2-1-3-9-7/h1-2,6,8H,3-5H2	InChI=1S/C7H10O2/c8-6-4-7(5-6)2-1-3-9-7/h1-2,6,8H,3-5H2/t6-,7-
