18
gdb 30730	2.99428	1.18751	0.90715	2.5187	75.9	-0.1824	0.0456	0.228	1290.5873	0.146832	-439.114419	-439.104749	-439.103805	-439.149135	35.358	
C	-0.3185835755	 1.5908375998	-0.0867958899	-0.364341
C	 0.1347197542	 0.1264303588	 0.0555486461	-0.3016
C	 0.8157051485	-0.4196592538	-1.1568272569	 0.241604
C	 2.1243833546	-0.8187891087	-1.3414823214	 0.055943
O	 3.1687891229	-0.7775290509	-0.4349518177	-0.459899
C	 2.2873412026	-1.2294595109	-2.6933700778	 0.264396
O	 3.4495368109	-1.6797240189	-3.2426843695	-0.456586
C	 1.072416567	-1.0863722726	-3.3167756503	-0.190299
N	 0.1917038387	-0.5973567287	-2.3673551919	-0.318093
H	 0.5349067846	 2.2414095829	-0.2979902426	 0.130026
H	-1.0363168775	 1.7105129307	-0.9053725042	 0.10732
H	-0.8009656512	 1.9410044259	 0.8313566168	 0.111911
H	 0.8404950899	 0.0460625647	 0.8887514921	 0.112062
H	-0.7313685473	-0.4951992147	 0.323980839	 0.101344
H	 3.1241371432	-1.5573168561	 0.1288651608	 0.29744
H	 4.1299363129	-1.5530204871	-2.5699317343	 0.293762
H	 0.7669841201	-1.2868187129	-4.3290374191	 0.117925
H	-0.7782302786	-0.4055312175	-2.5406538693	 0.257084
40.6797	117.4332	176.1152	191.1185	237.2295	246.3235	274.538	288.5889	358.2655	414.5804	431.634	549.2857	568.6772	632.3266	673.9151	709.591	736.5082	754.7337	794.0356	952.4218	1020.3661	1071.5764	1090.2015	1118.7643	1177.5525	1213.5083	1259.249	1287.3127	1320.2062	1354.5468	1376.1516	1408.6206	1465.947	1479.3603	1497.2311	1500.6755	1513.4882	1598.2806	1672.5921	3003.2797	3034.2417	3072.1242	3101.8182	3116.0504	3281.0095	3694.7864	3786.0107	3788.6279
CCC1=C(O)C(O)=CN1	CCc1c(O)c(O)c[nH]1	
InChI=1S/C6H9NO2/c1-2-4-6(9)5(8)3-7-4/h3,7-9H,2H2,1H3	InChI=1S/C6H9NO2/c1-2-4-6(9)5(8)3-7-4/h3,7-9H,2H2,1H3
