18
gdb 32753	3.10397	1.1154	0.85727	0.6236	76.37	-0.1822	0.0329	0.2151	1360.1333	0.147361	-439.099217	-439.090042	-439.089098	-439.133914	33.307	
C	-0.0255961364	 1.4666841498	-0.0768948998	-0.386713
C	 0.4348742165	 0.0229530552	-0.03075283	-0.059078
O	 0.144735471	-0.5749128372	-1.3116773813	-0.286287
C	 0.5365671017	-1.8499623932	-1.4560918053	 0.343815
C	 1.4688461019	-2.409147759	-2.2771700395	 0.112794
N	 2.3728071711	-1.7389806479	-3.1226442811	-0.616839
C	 1.3914740098	-3.8247700169	-2.0366600888	-0.236395
C	 0.4331730494	-4.0027317849	-1.0915999431	-0.012133
O	-0.1039936847	-2.8100756036	-0.7178423079	-0.18297
H	 0.5024519354	 2.017635258	-0.8604274804	 0.126031
H	-1.0985207217	 1.5212912758	-0.2809971145	 0.132719
H	 0.170791995	 1.9544500562	 0.882432275	 0.120949
H	 1.5134000178	-0.0520413497	 0.1607090882	 0.106281
H	-0.0898945672	-0.5366914688	 0.7522549533	 0.117649
H	 2.1011633429	-0.7694337654	-3.2395288015	 0.243136
H	 2.4248296199	-2.1684590459	-4.0392490186	 0.241962
H	 1.9854593015	-4.5943402324	-2.5052082146	 0.104279
H	 0.033585406	-4.87240022	-0.5976592802	 0.130799
54.9762	67.3197	122.5612	216.7536	233.9531	273.5846	283.9525	335.1902	390.1025	506.0169	616.9108	650.2124	669.7993	716.8706	774.3104	805.0417	816.7623	829.8923	888.0808	918.6288	1039.367	1066.2967	1072.381	1128.4603	1168.3502	1181.3892	1206.4351	1289.7912	1302.7174	1321.668	1395.8883	1418.9166	1471.8447	1483.0107	1500.2368	1523.8063	1554.0713	1648.4743	1716.188	3016.7472	3046.4153	3063.0902	3121.2139	3124.9139	3249.9247	3285.285	3514.6424	3601.4442
CCOC1=C(N)C=CO1	CCOc1c(N)cco1	
InChI=1S/C6H9NO2/c1-2-8-6-5(7)3-4-9-6/h3-4H,2,7H2,1H3	InChI=1S/C6H9NO2/c1-2-8-6-5(7)3-4-9-6/h3-4H,2,7H2,1H3
