15
gdb 24667	4.5291	1.17547	0.99469	1.6741	74.86	-0.2496	-0.0527	0.1969	1145.5231	0.11486	-416.827652	-416.820678	-416.819734	-416.859671	25.979	
C	 0.909972342	 0.8459981794	-0.2602354327	-0.17447
O	-0.2454894715	 0.2657246319	-0.858381564	-0.224647
C	-0.3522428747	 0.7127576418	 0.4935118123	-0.001455
C	-0.5343218714	-0.3309153758	 1.5390007813	 0.293648
C	-0.3143661932	-1.6887222943	 1.2797266754	-0.054759
N	-0.455990539	-2.6213256434	 2.2204880316	-0.23673
C	-0.8283841514	-2.1898170617	 3.4280835635	-0.009231
C	-1.0672837843	-0.8425037467	 3.6849106288	-0.020987
N	-0.9258524236	 0.0926684945	 2.7449653464	-0.307144
H	 1.7270367595	 0.1569673697	-0.0522582871	 0.123205
H	 1.2000485914	 1.8219098083	-0.6461381826	 0.128703
H	-0.9537258237	 1.6070634855	 0.6482650367	 0.113982
H	-0.0326826631	-2.0160643529	 0.283821962	 0.133052
H	-0.9476295629	-2.9377941262	 4.2073161193	 0.118759
H	-1.386452184	-0.5087111601	 4.6689726491	 0.118073
70.6962	143.2637	193.9006	313.2151	417.6163	429.1916	563.8159	588.8025	648.2314	794.3014	801.7575	867.8235	879.6097	915.1994	981.3281	993.9057	1005.4133	1031.6522	1079.0326	1092.7714	1151.7021	1168.3225	1198.2018	1236.9146	1260.1411	1274.151	1320.3542	1415.456	1436.3417	1507.9432	1523.9681	1581.2074	1616.9196	3086.5287	3131.7939	3156.5763	3175.3614	3179.6311	3184.8623
C1OC1C1=CN=CC=N1	C1O[C@H]1c1cnccn1	
InChI=1S/C6H6N2O/c1-2-8-5(3-7-1)6-4-9-6/h1-3,6H,4H2	InChI=1S/C6H6N2O/c1-2-8-5(3-7-1)6-4-9-6/h1-3,6H,4H2/t6-/m1/s1
