14
gdb 10812	4.95753	1.59861	1.26929	4.7743	60.03	-0.2414	0.0054	0.2469	903.3883	0.108766	-415.901652	-415.89459	-415.893646	-415.933128	26.222	
N	 0.0235972878	 1.3750955872	 0.3149188068	-0.548608
C	-0.0650486373	 0.0269039932	 0.0488055197	 0.347335
N	-1.1806138004	-0.5865162976	 0.0803052466	-0.277914
C	-1.1555025965	-1.9643744847	-0.3864865046	-0.308364
C	 0.1156917901	-2.7451131385	-0.0836320302	 0.404744
O	 0.1550054162	-3.9266720951	 0.1124843616	-0.320282
O	 1.2627748659	-2.0149628567	-0.0156909019	-0.216342
C	 1.2214626255	-0.6391234963	-0.3855853362	-0.155725
H	 0.865708546	 1.7050725325	 0.7611440991	 0.255826
H	-0.8267231671	 1.7747369517	 0.6878822998	 0.262374
H	-1.9809709929	-2.5228338659	 0.059813735	 0.148196
H	-1.3163503872	-2.0027174522	-1.4759341608	 0.136402
H	 1.3318423513	-0.5391792355	-1.4747236976	 0.142759
H	 2.1001911285	-0.1785864421	 0.0748424327	 0.129601
72.5158	165.1481	249.6422	362.3259	398.7075	438.279	449.4916	519.1379	564.9682	593.4787	654.7676	784.0735	792.1563	897.0041	981.1556	1011.8174	1023.2114	1113.7797	1181.8353	1205.4484	1246.9815	1260.7068	1332.2759	1360.7547	1445.0633	1469.2107	1492.3314	1631.1918	1752.2948	1860.3684	2986.4788	3013.39	3087.3544	3106.0688	3562.4312	3677.1005
NC1=NCC(=O)OC1	NC1=NCC(=O)OC1	
InChI=1S/C4H6N2O2/c5-3-2-8-4(7)1-6-3/h1-2H2,(H2,5,6)	InChI=1S/C4H6N2O2/c5-3-2-8-4(7)1-6-3/h1-2H2,(H2,5,6)
