19
gdb 113689	3.22571	0.92136	0.84068	4.0574	74.23	-0.2618	-0.022	0.2398	1445.7092	0.156455	-460.148411	-460.138572	-460.137628	-460.18411	34.816	
C	 0.0655155848	 1.3130175668	 0.1062718414	-0.23311
O	-0.502681559	 0.1980977844	-0.5564480943	-0.226507
C	 0.4065347033	-0.4965992275	-1.3326473526	 0.140842
C	 1.3650852245	-1.4624085339	-0.7153041904	-0.325869
C	 0.1765081679	-1.9902674225	-1.5056138336	-0.185263
C	-0.9337092976	-2.6354100186	-0.7529004817	 0.375983
O	-1.0495253061	-2.5897648382	 0.4552713601	-0.339553
C	-1.9789187939	-3.3850386129	-1.5685102206	-0.136049
O	-2.9651491304	-3.9331978787	-0.7493585949	-0.422029
H	 0.8745372425	 1.0096767065	 0.7844091436	 0.116641
H	 0.4644943106	 2.0475884989	-0.6092103515	 0.107554
H	-0.7346600217	 1.7782165095	 0.6850931897	 0.136296
H	 0.7341423484	 0.0353619582	-2.2284034734	 0.095073
H	 2.3560670219	-1.5758774499	-1.1391753301	 0.121296
H	 1.2783977256	-1.613539897	 0.3552858326	 0.150425
H	 0.3398070804	-2.3755067323	-2.5069133059	 0.101369
H	-2.4049704001	-2.6812688367	-2.3040270866	 0.118217
H	-1.4627224989	-4.1659679913	-2.153099317	 0.111046
H	-2.7167669321	-3.6624178847	 0.1499943852	 0.293639
46.2608	74.4179	109.2923	144.4912	178.7606	209.2146	267.6085	323.0307	380.6268	408.1628	460.5965	497.1088	597.5367	693.9168	784.9124	829.5222	847.8762	950.232	968.7009	1023.6695	1056.2179	1074.1506	1094.2992	1115.3874	1132.5828	1154.8986	1170.9509	1182.7361	1213.4336	1243.4519	1265.2237	1307.0256	1390.5255	1404.8132	1453.0191	1462.4911	1485.9292	1488.6432	1492.1088	1507.4055	1786.1564	2963.1416	2978.8407	2988.5385	3045.6006	3079.4791	3129.7948	3139.3874	3164.4426	3237.5586	3671.512
COC1CC1C(=O)CO	CO[C@H]1C[C@H]1C(=O)CO	
InChI=1S/C6H10O3/c1-9-6-2-4(6)5(8)3-7/h4,6-7H,2-3H2,1H3	InChI=1S/C6H10O3/c1-9-6-2-4(6)5(8)3-7/h4,6-7H,2-3H2,1H3/t4-,6-/m0/s1
