23
gdb 101209	3.66942	0.80528	0.69775	3.0003	86.79	-0.2387	-0.0156	0.2231	1665.2658	0.203518	-388.311918	-388.301713	-388.300769	-388.347545	37.868	
C	 0.1570965512	 1.5625691852	-0.0769190307	-0.391871
C	 0.1103527507	 0.0344544622	 0.0262821143	-0.169496
C	 0.6843302044	-0.5434051002	 1.3345068502	 0.021515
C	-0.1208761803	-0.1051556358	 2.566517041	-0.39917
C	 0.766503047	-2.0700353564	 1.2595486458	 0.03928
C	 1.7430243209	-2.6984337278	 0.2112895901	-0.370031
C	 2.2686010271	-3.6131315446	 1.327534982	 0.400521
O	 2.9318656227	-4.6089566808	 1.3406392965	-0.292224
C	 1.5220038265	-2.8168229109	 2.4078210272	-0.37296
H	 1.1803721123	 1.9359660407	 0.0443540199	 0.11376
H	-0.2033510495	 1.8979384995	-1.0543373002	 0.114187
H	-0.4643328199	 2.0446064195	 0.683587492	 0.11945
H	-0.9272443434	-0.3097487474	-0.0869137331	 0.093046
H	 0.6634653017	-0.3919743689	-0.8196364097	 0.098273
H	 1.7131179508	-0.1643647276	 1.445931982	 0.063681
H	-0.1244727645	 0.9819227422	 2.6839311652	 0.11754
H	-1.1636468361	-0.4357777838	 2.4870232783	 0.11288
H	 0.2932061227	-0.5324495895	 3.4851110707	 0.116515
H	-0.2405809099	-2.4842562316	 1.1369989794	 0.076547
H	 1.325572512	-3.1977616548	-0.6664205197	 0.127219
H	 2.5156162586	-1.9957778402	-0.1235749261	 0.127007
H	 2.2056015993	-2.1634137954	 2.96347146	 0.127196
H	 0.9432075057	-3.4020794136	 3.1265829348	 0.127134
52.0284	89.559	97.3574	143.0524	218.0649	226.4733	282.7429	298.3405	375.0893	388.3526	418.1283	467.3199	501.3754	669.6543	672.7594	746.5293	785.031	844.8774	914.1548	926.9207	962.1398	980.2681	992.4005	1010.7374	1034.1054	1058.6426	1103.7716	1142.7599	1154.8272	1185.5499	1191.3563	1219.0199	1237.995	1268.0995	1285.229	1308.9236	1351.5656	1375.4716	1393.1157	1410.3784	1416.3186	1426.0329	1447.3005	1483.1785	1496.9282	1500.0671	1507.2018	1513.4319	1892.7906	2974.8108	3011.9797	3030.2636	3034.0916	3039.9505	3042.671	3046.5975	3051.4146	3095.8544	3098.485	3106.3439	3109.8396	3110.3314	3114.1745
CCC(C)C1CC(=O)C1	CC[C@@H](C)C1CC(=O)C1	
InChI=1S/C8H14O/c1-3-6(2)7-4-8(9)5-7/h6-7H,3-5H2,1-2H3	InChI=1S/C8H14O/c1-3-6(2)7-4-8(9)5-7/h6-7H,3-5H2,1-2H3/t6-/m1/s1
