18
gdb 61973	3.90513	0.68436	0.61962	4.5126	73.58	-0.2574	-0.0214	0.2361	1760.3294	0.144156	-439.117071	-439.106573	-439.105629	-439.154479	35.833	
C	-0.0641106125	 1.5269523021	 0.0748713248	-0.474548
C	 0.0708793156	 0.0204317045	-0.0454148267	 0.376298
O	 1.1399976293	-0.5183848254	-0.216813962	-0.288354
C	-1.2247880212	-0.7780352186	 0.0542893044	-0.315589
C	-0.9995216252	-2.2872215903	 0.1213999137	-0.199421
C	-2.3142434429	-3.0660725989	-0.0519590187	-0.031292
O	-2.9608770373	-2.7938790814	-1.2841958574	-0.40767
C	-2.0859514487	-4.5166605117	 0.1150959024	 0.259972
N	-1.8906063387	-5.6507929725	 0.2186131301	-0.312026
H	 0.8923538602	 2.0040675032	-0.1410481878	 0.147148
H	-0.8353135705	 1.906168192	-0.6041571164	 0.138513
H	-0.3787901552	 1.7911205783	 1.0913750899	 0.144058
H	-1.7976508331	-0.4194042639	 0.9199397772	 0.119769
H	-1.8399731336	-0.5301293181	-0.8210013541	 0.143354
H	-0.2913545926	-2.5897801421	-0.6569753935	 0.132185
H	-0.5383044979	-2.5668343903	 1.0741965057	 0.131215
H	-3.0304529272	-2.7545937623	 0.717613984	 0.138997
H	-2.4048541584	-3.1324672045	-1.9961430555	 0.297393
26.381	60.0978	88.9928	106.7409	129.1793	194.9485	239.3285	276.152	339.1742	374.1242	444.3747	483.8059	549.4415	591.1593	614.8481	743.0925	813.3414	877.4061	931.4841	948.5632	993.6768	1069.5835	1092.1131	1106.1261	1168.5068	1178.5404	1268.8984	1277.6853	1331.0213	1343.9507	1383.0647	1390.6145	1420.5705	1454.5919	1464.9255	1477.1862	1481.1427	1812.7012	2356.2545	3023.9093	3037.9431	3049.1002	3054.9439	3059.548	3097.7339	3100.7702	3154.2642	3795.2408
CC(=O)CCC(O)C#N	CC(=O)CC[C@@H](O)C#N	
InChI=1S/C6H9NO2/c1-5(8)2-3-6(9)4-7/h6,9H,2-3H2,1H3	InChI=1S/C6H9NO2/c1-5(8)2-3-6(9)4-7/h6,9H,2-3H2,1H3/t6-/m1/s1
