16
gdb 7524	5.11848	1.20286	1.14254	2.1095	66.26	-0.2399	0.0396	0.2795	1056.562	0.127319	-383.681333	-383.672671	-383.671726	-383.71429	32.39	
O	 0.1659085042	 1.3124663194	 0.1160631426	-0.435182
C	 0.0449053312	-0.0716658986	 0.0909971097	 0.099914
C	-0.6051261977	-0.815986532	 1.2462919128	-0.374888
C	-1.3159753985	-0.6775572237	-0.0859999678	 0.347769
O	-2.3187796296	 0.2992365492	-0.176813184	-0.473401
C	-1.5511606991	-1.8878540285	-0.9783176014	-0.404561
C	-2.771247823	-2.5975010429	-0.600219985	 0.284172
C	-3.7938562229	-3.1281465673	-0.255785227	-0.444199
H	-0.732210145	 1.6640236746	 0.0483588631	 0.296693
H	 0.8898101599	-0.543288709	-0.4035072111	 0.10157
H	-0.2161234275	-1.7868326918	 1.5356147185	 0.114463
H	-0.9795550943	-0.2041235988	 2.0599912397	 0.116843
H	-3.1124330717	-0.0464549896	 0.2484067888	 0.296236
H	-1.626096466	-1.5539778852	-2.0208374721	 0.141656
H	-0.6888955361	-2.5623213318	-0.9193956996	 0.132385
H	-4.6871982338	-3.624501724	 0.0329988828	 0.200531
63.593	105.8604	216.1435	253.8366	309.2458	339.0449	343.6187	366.1276	416.2996	422.0248	491.7012	624.9669	653.486	659.1073	722.8222	838.2712	887.9749	911.8865	955.5208	970.9835	1017.3468	1034.0134	1097.6212	1148.7667	1196.6787	1246.8114	1283.4297	1318.6275	1335.1289	1395.3871	1430.3964	1458.4588	1491.2695	2233.919	3027.6327	3067.4166	3128.39	3146.6726	3223.3309	3504.9827	3756.6098	3791.0724
OC1CC1(O)CC#C	O[C@H]1C[C@]1(O)CC#C	
InChI=1S/C6H8O2/c1-2-3-6(8)4-5(6)7/h1,5,7-8H,3-4H2	InChI=1S/C6H8O2/c1-2-3-6(8)4-5(6)7/h1,5,7-8H,3-4H2/t5-,6+/m0/s1
