20
gdb 99848	2.0807	1.41042	1.03797	2.7946	75.	-0.2893	0.0209	0.3102	1236.9125	0.168477	-440.299284	-440.288825	-440.287881	-440.334282	38.477	
C	 0.1116281388	 1.5772819803	 0.0176573082	-0.415538
C	 0.037251315	 0.0428332666	 0.0360209696	 0.008655
C	 0.7661009726	-0.522557942	 1.2642661658	-0.40785
C	-1.428987285	-0.4562826333	-0.0101900331	 0.213504
O	-2.0990673629	-0.021191582	 1.1550686997	-0.451834
C	-2.2207429376	 0.0281054739	-1.249324595	-0.12114
O	-3.5772105683	-0.3721139598	-1.141269641	-0.428439
C	-1.4561526318	-1.9479209257	-0.0690709574	 0.25064
N	-1.5416201156	-3.0972873526	-0.1642596236	-0.352159
H	 1.14908065	 1.896600505	 0.1519180404	 0.118711
H	-0.2398716303	 2.0055475178	-0.9253021143	 0.116187
H	-0.483423944	 1.999879082	 0.8314402214	 0.141192
H	 0.5241327509	-0.3476909428	-0.867183288	 0.08889
H	 0.2973670754	-0.1679863617	 2.1861282507	 0.140637
H	 0.7523025133	-1.6161220081	 1.2743392133	 0.136859
H	 1.8106016412	-0.1980673587	 1.26277005	 0.114785
H	-3.0446321533	-0.100656496	 0.96047496	 0.29542
H	-2.2301045743	 1.1192689076	-1.2532453585	 0.131495
H	-1.752130123	-0.3303641661	-2.1747959709	 0.115287
H	-3.6229925313	-1.3242864645	-1.2933657571	 0.304698
71.2163	117.5147	151.3109	169.6338	210.6504	221.1259	237.3507	290.4728	332.7912	349.7585	412.9495	419.2776	459.1074	494.0499	558.7883	583.0878	651.7745	733.4959	874.1204	912.9349	935.678	969.1824	1006.508	1044.3291	1060.0855	1088.7731	1152.6168	1192.2647	1200.6209	1240.4165	1336.3295	1346.8319	1376.4622	1396.6776	1401.8568	1419.3046	1424.0903	1488.5783	1492.54	1494.5873	1507.2082	1517.0194	2339.6788	3022.4548	3029.9909	3044.2496	3047.765	3108.8707	3115.8101	3124.6249	3128.0721	3130.5039	3732.2055	3785.1442
CC(C)C(O)(CO)C#N	CC(C)[C@@](O)(CO)C#N	
InChI=1S/C6H11NO2/c1-5(2)6(9,3-7)4-8/h5,8-9H,4H2,1-2H3	InChI=1S/C6H11NO2/c1-5(2)6(9,3-7)4-8/h5,8-9H,4H2,1-2H3/t6-/m0/s1
