17
gdb 67130	2.4803	1.8925	1.64652	1.8532	74.1	-0.2342	-0.0263	0.2079	906.8972	0.13668	-421.735726	-421.728647	-421.727703	-421.766667	29.12	
O	 0.0480658144	 1.478285215	 0.4249857057	-0.465923
C	 0.0835022777	 0.1337585173	 0.118246242	 0.281656
C	-0.9671011264	-0.9769811395	 0.0535198544	-0.176751
C	-0.6332025269	-1.2677820984	-1.4358704592	-0.28062
C	 0.6719524817	-0.5404934396	-1.1368417682	 0.057291
C	 1.8731942165	-1.121109186	-1.0579447683	-0.136144
C	 2.4485386575	-1.102882755	 0.3361011657	-0.124232
O	 1.4111795272	-1.6839702608	 1.1774426107	-0.268989
C	 0.2229925091	-0.9395804544	 1.1011464882	 0.074805
H	-0.3393304533	 1.9507521747	-0.3210624665	 0.286495
H	-1.9720748938	-0.993573501	 0.464123427	 0.093932
H	-0.5484223734	-2.3078241774	-1.7636445397	 0.107079
H	-1.340939017	-0.7329586027	-2.0793560639	 0.105196
H	 2.1720049465	-1.9080367573	-1.7457940778	 0.100946
H	 3.3203565352	-1.7476607509	 0.4511659669	 0.114981
H	 2.6907134798	-0.0968642817	 0.6979826552	 0.123329
H	-0.1785707747	-0.7509045222	 2.0949742977	 0.106948
188.5157	238.2787	274.2998	315.4861	359.4377	428.2863	479.4248	519.7326	547.8483	626.1644	689.6228	750.1881	817.3912	839.8259	874.3535	914.5403	934.7415	940.3883	971.8686	1018.7321	1031.2372	1055.0641	1069.1035	1109.4392	1132.8557	1156.6573	1210.8658	1243.9663	1255.9833	1295.1089	1321.5715	1353.7396	1361.5052	1474.1245	1492.2856	1494.9485	1672.8347	3032.5034	3037.9095	3092.5605	3129.2001	3133.6109	3160.2279	3162.1496	3787.0122
OC12C3CC1=CCOC23	O[C@@]12[C@H]3C[C]1[CH]CO[C@@H]23	
InChI=1S/C7H8O2/c8-7-4-1-2-9-6(7)5(7)3-4/h1,5-6,8H,2-3H2	InChI=1S/C7H8O2/c8-7-4-1-2-9-6(7)5(7)3-4/h1,5-6,8H,2-3H2/t5-,6+,7+/m0/s1
