24
gdb 88977	3.28539	0.84392	0.75285	1.0813	90.55	-0.2191	0.0859	0.305	1640.7014	0.216369	-368.371179	-368.360977	-368.360033	-368.406952	37.987	
C	-0.3078435036	 1.3024825877	-0.2576581637	-0.40426
C	 0.0570809191	-0.1558420639	-0.073583249	-0.004218
C	 1.4978421201	-0.6082928284	-0.0642483815	-0.28968
C	 0.6679502027	-0.7060430049	 1.1957279539	 0.019305
C	 0.9675556015	 0.1541154384	 2.4047777142	-0.169906
N	 1.8586272411	-0.5648939698	 3.3121058743	-0.07945
C	 3.2957584303	-0.3557209876	 3.1762099119	-0.248383
C	 2.5666859409	 0.1514395273	 4.3748412252	 0.030136
C	 2.4086251481	 1.6348663879	 4.633523913	-0.411494
H	 0.4334422253	 1.9715636427	 0.1886182947	 0.113673
H	-0.3718914587	 1.5526923082	-1.3225852529	 0.115014
H	-1.2788164728	 1.5345663925	 0.1948245942	 0.115006
H	-0.6359701234	-0.8356716014	-0.5635772251	 0.081066
H	 1.7727310964	-1.5184182373	-0.5861670836	 0.107183
H	 2.2575753419	 0.1676334834	-0.1003105136	 0.102028
H	 0.3488744401	-1.7066557504	 1.4736707465	 0.089021
H	 1.3742270738	 1.1254848356	 2.0827692875	 0.077475
H	 0.0392826187	 0.3616988969	 2.953260421	 0.09962
H	 3.9207158169	-1.2439836686	 3.225736001	 0.109361
H	 3.6341500214	 0.3926303181	 2.4589700102	 0.100002
H	 2.6382020677	-0.4390034869	 5.2882539543	 0.086333
H	 2.4363298026	 2.2273704139	 3.7159408089	 0.119569
H	 1.465514879	 1.8500466429	 5.148579905	 0.121585
H	 3.2218663908	 1.9868842536	 5.2772458338	 0.121014
47.3792	75.0527	99.0272	172.5153	194.9303	227.5153	251.1446	289.4937	351.6508	411.4078	432.1916	492.3695	510.8745	753.1595	761.4377	799.809	841.0523	882.7473	897.2048	904.9079	931.8821	954.9897	996.7878	1032.6387	1051.2558	1065.3019	1089.7808	1112.9947	1115.191	1146.8736	1147.691	1152.6543	1185.9822	1193.3604	1200.696	1245.5174	1291.254	1336.917	1353.0508	1396.4998	1402.9402	1416.2873	1420.6726	1434.7973	1483.8391	1492.2551	1493.1197	1495.0637	1501.4278	1506.2329	1516.0407	2971.8877	3027.8642	3032.9958	3033.81	3080.4336	3083.944	3091.0097	3095.6207	3101.4077	3121.4433	3122.4403	3130.9862	3148.6535	3166.6311	3206.1087
CC1CC1CN1CC1C	C[C@H]1C[C@H]1CN1C[C@H]1C	
InChI=1S/C8H15N/c1-6-3-8(6)5-9-4-7(9)2/h6-8H,3-5H2,1-2H3	InChI=1S/C8H15N/c1-6-3-8(6)5-9-4-7(9)2/h6-8H,3-5H2,1-2H3/t6-,7+,8-,9?/m0/s1
