17
gdb 6349	4.11945	1.28725	0.99298	3.7121	68.85	-0.2378	0.0059	0.2437	1170.2223	0.142152	-397.242301	-397.233048	-397.232103	-397.277064	31.761	
C	-0.4943004305	 1.3592932118	-0.4738860763	-0.331058
N	-1.0309352402	 0.0184642921	-0.3839190688	-0.333783
C	-0.9132739396	-0.7121814582	 0.7442772048	 0.477008
O	-0.3721198103	-0.3670413089	 1.7808861617	-0.418237
N	-1.4879283142	-2.0092393309	 0.6859411976	-0.37864
C	-2.1532620376	-2.6676889622	-0.3259970931	 0.40351
C	-2.5977735914	-4.0608636647	 0.0654078956	-0.482309
N	-2.3510761546	-2.1146024546	-1.4650896027	-0.535494
H	 0.2580810746	 1.4327573653	-1.267651926	 0.12247
H	-1.2851015296	 2.0900358355	-0.6793584414	 0.122467
H	-0.0268837295	 1.6022315859	 0.4808932837	 0.164464
H	-1.5154616745	-0.4221787231	-1.1636468621	 0.277077
H	-1.3602667421	-2.4910204412	 1.5617922389	 0.256827
H	-3.2716144715	-4.0236042485	 0.9280503797	 0.149141
H	-3.118645517	-4.5455363244	-0.7615925923	 0.136835
H	-1.7366356562	-4.6773896268	 0.3445260849	 0.149137
H	-2.8538747357	-2.7368667673	-2.0904993341	 0.220583
67.4469	75.074	97.3852	117.1377	176.6945	193.8313	309.2019	369.7943	440.436	542.5791	585.8626	592.2614	706.4465	722.6142	770.2327	820.9077	882.4338	968.7062	1026.9941	1062.9934	1139.4183	1156.4721	1163.9993	1192.8596	1277.202	1334.887	1403.9693	1442.369	1476.6462	1477.6872	1500.6634	1504.7436	1523.9692	1616.1384	1709.2747	1808.0674	3023.8437	3040.2549	3071.9212	3102.3281	3141.8922	3152.233	3429.8102	3531.5851	3646.1539
CNC(=O)NC(C)=N	CNC(=O)NC(=N)C	
InChI=1S/C4H9N3O/c1-3(5)7-4(8)6-2/h1-2H3,(H3,5,6,7,8)	InChI=1S/C4H9N3O/c1-3(5)7-4(8)6-2/h1-2H3,(H3,5,6,7,8)
