21
gdb 116184	2.39784	1.38157	1.12115	1.9397	73.72	-0.2517	0.0741	0.3258	1189.3329	0.18147	-461.366265	-461.356697	-461.355753	-461.400369	35.892	
C	-0.4441591947	 1.5914211712	-0.0277822195	-0.439924
C	-0.0534178175	 0.1214480493	 0.0731976785	 0.329793
C	-1.2002925013	-0.7868855965	-0.3923661633	-0.430677
O	 1.1096975709	-0.0726128671	-0.755010818	-0.277077
C	 1.7573312469	-1.2210868983	-0.2829241164	 0.010646
O	 1.4301540611	-1.3692089474	 1.0943752553	-0.295145
C	 0.4914513933	-0.3384424957	 1.4448147212	 0.075859
C	 1.2307601904	 0.7097258928	 2.278273976	-0.080927
O	 1.8709807482	 0.095557201	 3.3780889313	-0.427471
H	 0.3969026956	 2.2441003719	 0.2131415302	 0.132349
H	-0.7677705724	 1.8181913392	-1.0474489773	 0.127564
H	-1.273487191	 1.8177782185	 0.6488963085	 0.121894
H	-1.4254034281	-0.5946905614	-1.4451557502	 0.124131
H	-0.9436956581	-1.8438807659	-0.2780688921	 0.129047
H	-2.1034235579	-0.5964625155	 0.1956369005	 0.119207
H	 1.4290638551	-2.1278374019	-0.8164344818	 0.094977
H	 2.8384476105	-1.0892823908	-0.4141511655	 0.111284
H	-0.2854097551	-0.8047004861	 2.0605834644	 0.088517
H	 1.9511978892	 1.2448225532	 1.6394973248	 0.092568
H	 0.5283384933	 1.4443089766	 2.6859139262	 0.105528
H	 2.3327872213	-0.6695814171	 3.0124236772	 0.287859
76.966	135.7194	167.8515	190.4885	212.1021	255.1021	286.303	326.2965	348.3088	373.135	478.3876	503.4145	514.3423	621.7261	745.1745	822.7673	843.663	925.855	934.6019	966.333	993.5099	1016.7385	1051.5784	1083.8742	1097.3656	1135.8435	1159.7005	1188.0573	1205.2976	1219.3623	1230.6214	1279.3563	1317.3771	1347.838	1395.9121	1399.9053	1417.5616	1426.9787	1445.6788	1477.6334	1485.9966	1499.504	1504.6098	1513.0159	1555.5943	2967.7856	2980.1213	3040.8854	3041.648	3049.9592	3053.5536	3077.2104	3112.7944	3117.7351	3122.4429	3137.6	3776.9296
CC1(C)OCOC1CO	CC1(C)OCO[C@H]1CO	
InChI=1S/C6H12O3/c1-6(2)5(3-7)8-4-9-6/h5,7H,3-4H2,1-2H3	InChI=1S/C6H12O3/c1-6(2)5(3-7)8-4-9-6/h5,7H,3-4H2,1-2H3/t5-/m0/s1
