21
gdb 64728	2.88988	1.17616	1.0664	0.5936	88.55	-0.2374	0.0263	0.2636	1241.2193	0.181474	-349.940384	-349.931226	-349.930281	-349.97395	35.773	
C	-0.2347445777	 1.7298952844	 0.1009404864	-0.449089
C	 0.1142884844	 0.2420148388	 0.0138632908	 0.30863
C	-1.1822652092	-0.6089350075	-0.1291846524	-0.39062
C	-1.9663240818	-0.3274994736	-1.3258768841	 0.309323
C	-2.605043512	-0.0880817439	-2.3166017955	-0.451725
C	 1.0826204623	-0.087696895	-1.1647364195	-0.291203
C	 1.9947824902	-1.1486312021	-0.6006895507	-0.061157
C	 1.8823891497	-1.2499432487	 0.7225205792	-0.064371
C	 0.8759805861	-0.2717449804	 1.2762742215	-0.296339
H	 0.6714895669	 2.3355644485	 0.2039696625	 0.110152
H	-0.7680085258	 2.0630799663	-0.794488794	 0.128768
H	-0.8749807702	 1.936598395	 0.966541102	 0.108524
H	-0.9035766136	-1.6703579753	-0.1213299612	 0.132164
H	-1.809468926	-0.4467827639	 0.7571195646	 0.123882
H	-3.1767476981	 0.1169444474	-3.1875527845	 0.192455
H	 0.538665571	-0.4088477518	-2.0598363098	 0.11444
H	 1.6590065404	 0.7997804284	-1.4624763541	 0.10023
H	 2.6744971521	-1.7253535103	-1.2186552464	 0.090316
H	 2.4560402361	-1.9200491128	 1.3535508604	 0.089859
H	 1.3814074741	 0.5546483474	 1.7957897368	 0.099926
H	 0.1968745712	-0.720838381	 2.0121974879	 0.095836
78.0477	111.9299	144.9029	249.6473	286.7315	315.4186	362.5388	367.9456	385.1391	409.8137	503.832	612.0931	620.948	637.7684	702.8154	769.5038	791.5141	887.3599	896.6833	916.9645	955.7203	975.7636	979.2243	984.0676	986.5938	1012.203	1119.5253	1126.676	1143.2684	1165.7401	1186.0106	1267.2228	1286.2719	1297.9206	1326.5141	1351.6787	1369.1193	1411.1076	1466.4367	1485.4689	1492.1517	1496.5145	1502.8703	1687.9803	2231.9045	3004.3378	3007.1507	3016.1787	3027.9612	3038.3784	3052.7112	3062.8244	3091.8024	3108.4775	3178.9607	3204.5348	3505.1021
CC1(CC#C)CC=CC1	C[C@@]1(CC#C)CC=CC1	
InChI=1S/C9H12/c1-3-6-9(2)7-4-5-8-9/h1,4-5H,6-8H2,2H3	InChI=1S/C9H12/c1-3-6-9(2)7-4-5-8-9/h1,4-5H,6-8H2,2H3
