16
gdb 34983	2.77542	1.74919	1.5033	1.34	73.85	-0.2258	0.026	0.2518	924.2962	0.124295	-400.658963	-400.651761	-400.650817	-400.690412	28.61	
C	-0.301710183	-1.2919221205	-0.1358854049	-0.461278
C	-0.1267330547	-0.1172334167	 0.0546777555	 0.371759
C	-0.0155458489	 1.3127776742	 0.1099643016	-0.205147
C	 0.5426220977	 2.1270772219	 1.2413157042	-0.06552
C	 1.3982776579	 1.5042543726	 2.3136216797	 0.016481
O	 1.6534642401	 0.1068892125	 2.1678584269	-0.232678
C	 2.6337962296	 1.022408471	 1.6718033188	 0.0378
C	 2.5211965546	 1.3062282292	 0.1791734006	-0.203105
N	 1.2602997232	 2.0559565493	-0.0486065156	-0.129718
H	-0.4358279994	-2.3392033494	-0.2466533386	 0.196432
H	-0.810612839	 1.8022021823	-0.4527726792	 0.120404
H	 0.0657458242	 3.073249392	 1.4864896497	 0.096243
H	 1.3437221469	 1.8768066414	 3.332407332	 0.104977
H	 3.6032909502	 0.9880341698	 2.1641866929	 0.102279
H	 3.3489690812	 1.9450880905	-0.14599581	 0.116754
H	 2.5407778793	 0.38679996	-0.4146928538	 0.134316
118.0531	154.1838	239.4857	309.3541	375.997	441.2584	578.9377	611.125	624.8061	661.1081	696.4549	713.636	766.2947	777.6858	856.4497	877.1013	889.6927	936.3223	966.9276	1024.3873	1048.5987	1062.7718	1097.9135	1122.0519	1123.4629	1227.0267	1253.7535	1280.3662	1320.2803	1327.0131	1370.3527	1383.0005	1432.6758	1479.2737	2231.8288	3047.7469	3092.5854	3099.203	3133.7308	3137.6969	3162.968	3505.4678
C#CC1C2C3OC3CN12	C#C[C@H]1[C@H]2[C@H]3O[C@H]3CN12	
InChI=1S/C7H7NO/c1-2-4-6-7-5(9-7)3-8(4)6/h1,4-7H,3H2	InChI=1S/C7H7NO/c1-2-4-6-7-5(9-7)3-8(4)6/h1,4-7H,3H2/t4-,5-,6-,7-,8?/m0/s1
