13
gdb 43655	2.89673	1.3095	1.06366	3.8827	65.13	-0.2791	-0.0901	0.189	1089.5968	0.089192	-452.774391	-452.766708	-452.765764	-452.807744	27.443	
N	 0.0683125247	 1.1914742818	-0.222724617	-0.484514
C	 0.0511961993	-0.037859854	 0.0424377895	 0.321911
O	 1.0833394366	-0.7594086948	 0.579808358	-0.232732
C	 0.7823805544	-2.1725949091	 0.6271530845	-0.054396
C	-0.7370232088	-2.3159166124	 0.407514915	-0.367427
C	-1.144366296	-0.9535476998	-0.1475039032	 0.343067
O	-2.1985687198	-0.6480348426	-0.6236605179	-0.256921
C	 1.5737061381	-2.8730487983	-0.3952515294	 0.283164
N	 2.1859135248	-3.4413827087	-1.1926577324	-0.296476
H	 0.9773907333	 1.6089716148	-0.0121427794	 0.244639
H	 1.1000226815	-2.5283902046	 1.6101236426	 0.156378
H	-1.0096802916	-3.1227988582	-0.2727747084	 0.17719
H	-1.2538967965	-2.4792570642	 1.357930628	 0.166117
40.1495	86.8055	196.0254	258.799	330.0797	377.6919	467.3764	496.0533	597.1185	615.0983	644.3936	735.2406	758.1473	830.1977	907.0839	956.3867	1002.3739	1023.1975	1042.3891	1140.7867	1171.7996	1259.3294	1273.2851	1334.0133	1371.9471	1448.4171	1767.7386	1872.5172	2365.2567	3073.8981	3089.8456	3144.4887	3472.8595
N=C1OC(CC1=O)C#N	[NH][C]1O[C@@H](CC1=O)C#N	
InChI=1S/C5H4N2O2/c6-2-3-1-4(8)5(7)9-3/h3,7H,1H2	InChI=1S/C5H4N2O2/c6-2-3-1-4(8)5(7)9-3/h3,7H,1H2/t3-/m0/s1
