23
gdb 121970	5.53032	0.54341	0.51862	1.0804	89.67	-0.2532	0.0525	0.3056	2156.2702	0.202158	-388.25264	-388.241208	-388.240264	-388.290117	40.33	
C	-0.1549237258	 1.357388545	 0.09053905	-0.227107
O	-0.1057511747	-0.0441879821	-0.0110222006	-0.229817
C	 0.6954900526	-0.4901223584	-1.0846421109	-0.068044
C	 0.691598079	-2.0143970936	-1.0777034532	-0.195828
C	 1.4078100275	-2.6563376564	-2.2771877034	 0.022782
C	 2.9051035498	-2.3256285116	-2.3251291539	-0.393294
C	 1.179039806	-4.1893445538	-2.2468869786	-0.363488
C	 1.677755288	-4.8836355084	-3.4278404448	 0.299639
C	 2.0862159214	-5.4378610568	-4.4136812719	-0.44137
H	 0.8436221176	 1.79231273	 0.2588305053	 0.101786
H	-0.5787420756	 1.8200294622	-0.8154807627	 0.101791
H	-0.7937121367	 1.6029954173	 0.9425961903	 0.12597
H	 0.2978089225	-0.1108388934	-2.0432983287	 0.082963
H	 1.7185858411	-0.0925341963	-0.9823453183	 0.087282
H	 1.1452696578	-2.3639310434	-0.1410485518	 0.10242
H	-0.3555602007	-2.339687292	-1.0569932259	 0.103945
H	 0.9421245903	-2.2806148976	-3.1983767461	 0.084724
H	 3.0796152031	-1.254247047	-2.4577099886	 0.115462
H	 3.4014536853	-2.6328180274	-1.3963188526	 0.111785
H	 3.3895362413	-2.8486958854	-3.1540731226	 0.131271
H	 1.6572785908	-4.6052218561	-1.3491773094	 0.127043
H	 0.1055736232	-4.3906247262	-2.1394340421	 0.127484
H	 2.444151906	-5.9380924884	-5.2790069094	 0.192602
48.2454	68.1367	90.8369	99.8985	131.2267	176.5172	233.9965	244.2038	276.2939	305.2935	351.5548	380.6543	416.6871	486.9701	568.2619	613.3172	636.3491	793.4226	844.1369	892.1335	928.0349	974.6048	980.7502	993.7814	1064.7237	1116.4997	1127.0168	1162.7433	1169.7126	1186.282	1222.2481	1234.2047	1262.9219	1284.1947	1312.9632	1337.021	1369.2209	1378.6595	1415.2501	1427.9441	1468.0877	1481.8532	1485.7343	1488.6441	1498.4424	1504.3088	1508.3494	1533.385	2235.5518	2941.3071	2966.4941	2979.6257	3007.8662	3008.5318	3014.8818	3024.1701	3031.7691	3047.6034	3067.5706	3099.3334	3111.6921	3118.1118	3506.8757
COCCC(C)CC#C	COCC[C@@H](C)CC#C	
InChI=1S/C8H14O/c1-4-5-8(2)6-7-9-3/h1,8H,5-7H2,2-3H3	InChI=1S/C8H14O/c1-4-5-8(2)6-7-9-3/h1,8H,5-7H2,2-3H3/t8-/m0/s1
