16
gdb 88405	2.25672	1.3354	0.96521	3.6132	69.78	-0.2821	-0.0575	0.2246	1220.2141	0.121148	-437.878811	-437.869445	-437.868501	-437.91413	32.191	
C	-0.193428695	 1.4723687349	-0.1993804135	-0.441763
C	-0.1499994772	 0.0237489281	 0.2128744121	 0.064875
O	 1.0725919164	-0.7056960874	 0.0130352954	-0.236932
C	 0.6132937208	-0.5221654791	 1.34493937	 0.055446
C	 1.4880172844	 0.3003457752	 2.2943314455	-0.298756
C	 2.1531344491	-0.5955385443	 3.3709331859	 0.160128
O	 1.6898341969	-1.6430617756	 3.721244473	-0.222681
C	 2.5118833955	 1.1149253642	 1.6448724113	 0.290409
N	 3.3603193314	 1.7566240256	 1.1944802524	-0.31798
H	 0.7024422746	 2.017952449	 0.0999364885	 0.153705
H	-0.284120224	 1.5453950963	-1.2876834746	 0.141698
H	-1.0708407606	 1.9594980181	 0.2400791587	 0.125952
H	-1.0342536196	-0.5499093592	-0.0724758245	 0.102714
H	 0.2470836129	-1.4222384074	 1.8364770622	 0.128992
H	 0.8420685102	 0.9802894554	 2.8734393806	 0.168094
H	 3.0745310542	-0.1713554736	 3.8176170369	 0.126099
40.5067	73.2117	136.2063	160.8843	181.722	205.5471	236.1147	348.3813	403.9419	474.0634	535.0226	620.7202	640.6107	735.7494	789.7766	890.8329	941.3849	988.5184	1010.5678	1039.3831	1084.5376	1117.3261	1173.7383	1185.0142	1227.9176	1265.0771	1323.3589	1388.1479	1415.215	1419.9934	1465.0214	1491.4869	1509.8776	1843.9323	2363.706	2939.8566	2993.4581	3043.4508	3088.655	3104.1348	3131.8739	3149.0947
CC1OC1C(C=O)C#N	C[C@H]1O[C@H]1[C@@H](C=O)C#N	
InChI=1S/C6H7NO2/c1-4-6(9-4)5(2-7)3-8/h3-6H,1H3	InChI=1S/C6H7NO2/c1-4-6(9-4)5(2-7)3-8/h3-6H,1H3/t4-,5-,6-/m1/s1
