19
gdb 84135	2.51015	1.21746	0.87441	2.4119	84.65	-0.2409	0.0121	0.253	1341.0579	0.157673	-385.873233	-385.863895	-385.862951	-385.907412	35.233	
C	-0.0177303699	 1.4935984696	 0.0407225152	-0.489957
C	 0.0069851907	-0.0002226374	-0.0288376722	 0.322003
C	-0.116120389	-0.7658652744	-1.1152919651	-0.238327
C	-0.0803268659	-2.2420280903	-0.8131250082	 0.108318
O	 0.7380625362	-3.0039521186	-1.6845037747	-0.432312
C	 0.3951357986	-2.2754793899	 0.6835013667	-0.185817
C	 0.1267702031	-0.8413663976	 1.2242469875	-0.316797
C	-0.1909785228	-3.3417790466	 1.4785592141	 0.307887
C	-0.6975297364	-4.2149156776	 2.1320122873	-0.459537
H	 0.8998707927	 1.8809698219	 0.5015139303	 0.127657
H	-0.1217183028	 1.9440385604	-0.9497752759	 0.12704
H	-0.84913881	 1.8450886023	 0.6648243153	 0.131321
H	-0.2620935505	-0.4031360204	-2.1275970277	 0.094965
H	-1.0724863257	-2.6990597925	-0.9052015737	 0.106168
H	 1.5876580753	-2.5529646417	-1.7495175724	 0.273201
H	 1.4818805447	-2.4255631476	 0.6415247436	 0.099649
H	 0.9174566848	-0.4944123349	 1.8995023724	 0.108668
H	-0.8068941364	-0.8126645006	 1.8001447387	 0.123074
H	-1.1366375166	-4.992432644	 2.7062095187	 0.192794
57.2316	134.6535	138.4921	186.9956	232.4436	279.2731	340.2538	380.2825	419.5064	475.5866	495.4023	528.8851	590.7534	624.92	627.5685	645.9519	840.5886	862.8252	883.2397	961.1042	994.7804	1031.9052	1046.4913	1057.6732	1065.2294	1086.5369	1169.4876	1197.3357	1228.867	1266.9611	1278.713	1305.1655	1336.7314	1359.9156	1413.1178	1427.0543	1478.6832	1486.1265	1489.8993	1720.7649	2235.2969	3015.0985	3017.9708	3027.5006	3044.3318	3060.8884	3065.3122	3113.9188	3185.3609	3505.6677	3791.6015
CC1=CC(O)C(C1)C#C	CC1=C[C@@H](O)[C@@H](C1)C#C	
InChI=1S/C8H10O/c1-3-7-4-6(2)5-8(7)9/h1,5,7-9H,4H2,2H3	InChI=1S/C8H10O/c1-3-7-4-6(2)5-8(7)9/h1,5,7-9H,4H2,2H3/t7-,8-/m1/s1
