15
gdb 55568	5.3573	0.75368	0.6662	7.9977	68.79	-0.2646	-0.0402	0.2244	1587.2168	0.109923	-454.012623	-454.00281	-454.001866	-454.049585	32.575	
C	-0.0046370132	 1.5424346214	-0.2125438967	-0.504176
C	-0.0162715538	 0.0728973549	 0.1745540464	 0.417175
O	-0.0480713839	-0.3268862533	 1.3057285118	-0.279341
N	 0.0147144358	-0.7805720147	-0.9513954993	-0.399176
C	 0.0139632442	-2.1758371568	-0.95385674	 0.45526
O	-0.0131739579	-2.8731582311	 0.0195262266	-0.272142
C	 0.0532343051	-2.7314659518	-2.3970856443	-0.497528
C	 0.0541381946	-4.187305681	-2.4406840757	 0.29927
N	 0.0560054674	-5.3387853996	-2.5167443126	-0.287469
H	 0.8974283521	 1.7893852156	-0.7828571057	 0.14622
H	-0.8722070197	 1.790158841	-0.8337596018	 0.146142
H	-0.0305144646	 2.1403231458	 0.6972747193	 0.166119
H	 0.0398111906	-0.324574302	-1.8514257271	 0.256781
H	-0.81170586	-2.354215944	-2.9565858435	 0.17645
H	 0.9475019233	-2.3545656545	-2.9086628772	 0.176416
23.8058	52.682	92.0159	106.2257	108.3363	206.6067	304.6528	371.2662	381.8489	420.2947	539.7966	564.1502	564.1956	635.3663	742.6388	862.825	912.5337	951.1382	1000.3637	1028.4702	1051.9801	1152.0948	1209.8185	1222.7441	1328.6214	1387.4277	1447.6924	1465.9716	1482.1672	1507.9227	1826.1596	1880.1881	2380.917	3036.1013	3040.9404	3074.9299	3103.452	3169.5983	3612.6638
CC(=O)NC(=O)CC#N	CC(=O)NC(=O)CC#N	
InChI=1S/C5H6N2O2/c1-4(8)7-5(9)2-3-6/h2H2,1H3,(H,7,8,9)	InChI=1S/C5H6N2O2/c1-4(8)7-5(9)2-3-6/h2H2,1H3,(H,7,8,9)
