17
gdb 72758	3.13691	1.50876	1.22124	5.1356	75.83	-0.262	-0.0432	0.2188	1039.4284	0.136397	-421.852874	-421.845372	-421.844428	-421.884573	29.593	
C	-0.1043104351	 1.6460387059	-0.1851567436	-0.437912
C	-0.0426715662	 0.1463524645	 0.0639850386	 0.35819
C	 0.7393438625	-0.6441162609	-1.0615876008	-0.276104
C	 2.0159728024	-0.6142772751	-0.1320875042	-0.313751
C	 1.005479958	-0.4175261929	 0.9702658592	 0.215244
C	 0.429340716	-1.0829007793	 1.9719318781	-0.371207
C	-1.0463076441	-0.9527678379	 1.8000011993	 0.408681
O	-1.9410145339	-1.379120015	 2.4700321492	-0.33964
O	-1.2832229382	-0.2949471157	 0.5930828536	-0.279839
H	 0.8570385123	 2.028392565	-0.5397481124	 0.120683
H	-0.8602241104	 1.8602875044	-0.946456682	 0.138853
H	-0.3772379778	 2.1744219623	 0.7319255425	 0.137303
H	 0.354471059	-1.6577076051	-1.176071505	 0.134711
H	 0.8178404269	-0.1472727943	-2.0310445416	 0.115418
H	 2.6366129426	-1.5088064962	-0.0804893968	 0.13091
H	 2.6442593921	 0.2567123808	-0.3341709892	 0.130081
H	 0.852279594	-1.7646837705	 2.6952394749	 0.12838
126.466	208.3842	229.7239	251.8647	318.2786	374.4126	415.4289	538.2851	595.0329	614.1686	725.8586	740.8612	792.8688	810.4628	854.8223	867.9217	883.5483	911.0962	951.7567	980.9423	1030.9631	1082.2703	1117.5557	1134.8411	1170.6315	1210.2574	1232.141	1243.4728	1247.4432	1327.817	1408.63	1467.1031	1482.5099	1486.3978	1494.5835	1694.3267	1872.2316	3044.2485	3072.931	3077.2393	3118.1051	3126.1727	3137.8088	3154.2281	3245.3698
CC12CCC1=CC(=O)O2	C[C@@]12CC[C]1[CH]C(=O)O2	
InChI=1S/C7H8O2/c1-7-3-2-5(7)4-6(8)9-7/h4H,2-3H2,1H3	InChI=1S/C7H8O2/c1-7-3-2-5(7)4-6(8)9-7/h4H,2-3H2,1H3/t7-/m1/s1
