14
gdb 128049	7.12978	0.76738	0.69593	1.9071	69.62	-0.2725	-0.0549	0.2176	1534.5719	0.099589	-469.948194	-469.940003	-469.939059	-469.983175	27.972	
C	-0.0219090032	 1.4029253425	 0.0725417408	-0.322179
N	 0.151334547	-0.0363623546	 0.1010268765	-0.187157
C	 0.5531371494	-0.592644925	-0.9432930971	 0.103845
O	 0.7095540764	-1.9656966297	-0.9247450089	-0.234551
C	 1.1887326457	-2.5722375176	-2.0197421521	 0.432854
N	 1.5949268504	-1.9899388257	-3.1153202074	-0.175238
O	 1.9908428587	-3.0215720091	-3.9336185859	-0.15912
N	 1.8263445072	-4.2333085982	-3.3286711484	-0.044319
C	 1.3340684047	-3.9831462412	-2.1505336035	-0.1196
H	 0.6037021619	 1.8535372653	 0.8499991363	 0.141471
H	 0.2273832545	 1.8665458069	-0.8936364557	 0.111877
H	-1.0614255214	 1.6428948552	 0.3191143521	 0.141176
H	 0.8012362167	-0.1291113168	-1.9012299168	 0.145443
H	 1.100350542	-4.764200762	-1.4453847098	 0.165498
16.5929	70.8554	124.6071	207.4222	290.3751	316.5818	362.895	396.7259	544.1748	625.6827	721.192	803.1719	885.2359	908.7836	923.41	968.8578	1024.6702	1043.5136	1094.5973	1120.9546	1141.133	1176.1491	1221.2265	1385.8538	1442.1419	1450.0767	1480.4038	1502.2293	1505.0279	1624.0709	1786.8268	2990.3512	3076.7548	3095.1048	3105.0553	3282.0152
CN=COC1=NON=C1	CN=COc1nonc1	
InChI=1S/C4H5N3O2/c1-5-3-8-4-2-6-9-7-4/h2-3H,1H3	InChI=1S/C4H5N3O2/c1-5-3-8-4-2-6-9-7-4/h2-3H,1H3
