18
gdb 36183	3.86306	1.1553	1.13599	1.9154	80.4	-0.238	0.0536	0.2917	1147.0842	0.1476	-364.709443	-364.701678	-364.700733	-364.742029	30.544	
C	-0.0965161952	-1.1623633352	-0.2596043825	-0.45608
C	-0.0501336489	 0.0252300464	-0.0829553426	 0.311319
C	 0.0316836326	 1.4651543497	 0.1504989099	-0.46837
C	 1.449002366	 1.9748129201	 0.1300035945	 0.367445
C	 2.602122392	 1.6022952688	 1.0621209507	-0.285731
C	 3.3678164569	 2.7795607008	 0.398898765	-0.088192
C	 3.4954467394	 2.2977047088	-1.0550191602	-0.145296
N	 2.0058176813	 2.3970811473	-1.2071248016	-0.175319
C	 1.9685492036	 3.350900108	-0.0573142113	-0.116768
H	-0.1474568684	-2.2096202964	-0.4262321554	 0.19543
H	-0.5430475486	 2.000739201	-0.6139104757	 0.144535
H	-0.4277754366	 1.7030174749	 1.1192077165	 0.130072
H	 2.3384650468	 1.8175587303	 2.1013207272	 0.104026
H	 3.0414335626	 0.6020166986	 0.9880801041	 0.102983
H	 4.164032723	 3.3023839879	 0.9252921559	 0.07485
H	 3.9561835041	 3.0305272196	-1.7223936757	 0.108582
H	 3.9220119535	 1.3045032929	-1.2387083348	 0.09974
H	 1.5069305559	 4.3295480465	-0.0887115242	 0.096774
59.4499	99.7466	262.9237	290.1742	341.9748	420.3939	444.5032	471.1319	616.2405	639.795	679.2606	707.4389	764.3962	807.1704	854.8237	889.1532	906.1531	948.9793	961.9419	970.3956	990.6147	998.5874	1026.5185	1083.0399	1116.4822	1144.7423	1157.9155	1170.5817	1211.9712	1231.7788	1254.5533	1288.6061	1319.9245	1328.1741	1415.0883	1456.3623	1494.4448	1514.8234	2240.719	3019.4699	3033.4741	3046.472	3064.7846	3101.3636	3104.3968	3133.6402	3197.6599	3506.5872
C#CCC12CC3CN1C23	C#CC[C@@]12C[C@H]3CN1[C@@H]23	
InChI=1S/C8H9N/c1-2-3-8-4-6-5-9(8)7(6)8/h1,6-7H,3-5H2	InChI=1S/C8H9N/c1-2-3-8-4-6-5-9(8)7(6)8/h1,6-7H,3-5H2/t6-,7+,8-,9?/m0/s1
