17
gdb 55012	2.47161	1.32926	1.07234	3.7272	68.77	-0.2391	0.0046	0.2438	1154.2252	0.13622	-455.199263	-455.190136	-455.189192	-455.234305	33.551	
N	 0.6331345709	 0.0191828564	-1.3395929449	-0.512658
C	-0.4654477394	-0.4864494945	-1.9705205489	 0.344984
O	-0.6626457969	-0.3965480394	-3.1668953217	-0.364376
C	-1.4913528093	-1.0994851155	-1.0302305853	-0.096878
C	-2.0724999569	-2.447237417	-1.347584613	-0.306922
C	-1.1937449465	-2.2768828564	-0.1290986474	-0.134174
C	 0.2015733146	-2.841460151	-0.0058010468	 0.387583
N	 0.3764535996	-4.0923880218	-0.5010563636	-0.505172
O	 1.1041187794	-2.2176653523	 0.5339859912	-0.378156
H	 1.3695173853	 0.3601621878	-1.9395732951	 0.25303
H	 0.9033715371	-0.3741601751	-0.4452294156	 0.279113
H	-2.1636389366	-0.3530954854	-0.6164408597	 0.122087
H	-3.1342213693	-2.6126577335	-1.2036454513	 0.120498
H	-1.6545109383	-2.9449907954	-2.2169343809	 0.131486
H	-1.6872897864	-2.2536522186	 0.8391597784	 0.122783
H	-0.384132601	-4.6136374861	-0.8993758798	 0.269935
H	 1.2800474336	-4.5278751421	-0.4094978055	 0.266836
29.1104	52.7178	176.2689	192.5591	260.4592	278.3736	294.1626	465.9096	487.6419	512.9989	536.7524	582.8055	629.7472	640.2649	726.7374	730.6358	796.9898	797.6568	845.4488	982.695	995.1394	1057.4069	1076.0663	1095.1686	1118.3833	1131.8985	1154.2509	1211.2036	1302.8687	1336.8561	1398.4644	1421.505	1491.7669	1611.359	1642.6637	1761.6588	1797.4221	3133.3133	3140.9136	3152.3974	3219.3736	3512.7504	3603.277	3663.9089	3743.7731
NC(=O)C1CC1C(N)=O	NC(=O)[C@H]1C[C@H]1C(=O)N	
InChI=1S/C5H8N2O2/c6-4(8)2-1-3(2)5(7)9/h2-3H,1H2,(H2,6,8)(H2,7,9)	InChI=1S/C5H8N2O2/c6-4(8)2-1-3(2)5(7)9/h2-3H,1H2,(H2,6,8)(H2,7,9)/t2-,3+
