20
gdb 7952	3.15229	1.66212	1.29199	2.963	74.26	-0.2333	-0.0113	0.222	1017.0419	0.176757	-349.050609	-349.042276	-349.041332	-349.083194	31.899	
C	 0.282943358	 1.6873012202	-0.1161213171	-0.395775
C	 0.0884419786	 0.1698261534	 0.0074762593	-0.003943
C	 0.6775633275	-0.5756223618	-1.205104643	-0.327247
C	 2.1333184233	-0.8758815661	-0.8288378739	 0.403075
O	 3.0022619048	-1.2208961338	-1.5870841086	-0.314591
C	 2.2853366627	-0.6635947797	 0.6810229641	-0.328288
C	 0.8511170119	-0.4759907172	 1.2068141975	 0.03059
C	 0.7481519119	 0.2628056409	 2.5394118937	-0.413586
H	 1.3402256756	 1.9602044824	-0.2123484995	 0.117871
H	-0.2312685674	 2.064416858	-1.0059518602	 0.117802
H	-0.1202385956	 2.2194757102	 0.7499940872	 0.11913
H	-0.9840092537	-0.0293133654	 0.1069763456	 0.071338
H	 0.1801732696	-1.5439472239	-1.3520903834	 0.125502
H	 0.6177931846	-0.0387714868	-2.1554267242	 0.121524
H	 2.8368233277	-1.4894503443	 1.138061136	 0.124709
H	 2.8904645964	 0.2401800833	 0.8344548133	 0.127527
H	 0.417904405	-1.4768850053	 1.3416118059	 0.075939
H	 1.2184958739	 1.2502153975	 2.4898494118	 0.118814
H	-0.2970473302	 0.4031344299	 2.8365282063	 0.113535
H	 1.2464612156	-0.2989497013	 3.3362357591	 0.116072
70.9632	134.2714	222.8345	242.3814	284.1047	299.5317	355.3994	465.6772	477.6843	486.3014	545.0505	645.1861	749.7216	765.714	821.91	891.8825	918.1893	949.9713	1004.0475	1013.4001	1026.9019	1083.6059	1113.2748	1155.4103	1156.5245	1201.1886	1224.1992	1259.5753	1265.7395	1316.1263	1332.7391	1378.3621	1381.1918	1412.118	1414.9207	1447.9704	1455.3584	1493.5847	1495.534	1501.4138	1510.6838	1845.9505	3001.8972	3026.0459	3028.4576	3029.6737	3035.1252	3045.9335	3095.1407	3096.056	3097.5009	3100.6346	3102.2787	3112.0315
CC1CC(=O)CC1C	C[C@H]1CC(=O)C[C@H]1C	
InChI=1S/C7H12O/c1-5-3-7(8)4-6(5)2/h5-6H,3-4H2,1-2H3	InChI=1S/C7H12O/c1-5-3-7(8)4-6(5)2/h5-6H,3-4H2,1-2H3/t5-,6+
