16
gdb 19125	3.35312	1.79032	1.35038	1.6254	70.68	-0.2599	0.0253	0.2851	931.8485	0.128728	-346.529839	-346.522062	-346.521118	-346.561918	29.405	
C	-0.1632177296	-1.275446458	 0.5710995572	-0.413177
C	-0.1040794808	-0.105949426	 0.3005065074	 0.297067
C	-0.0836414541	 1.3012048582	-0.0319845862	 0.185275
C	 0.7093625741	 2.2208368242	 0.8122334388	-0.209001
O	 1.1895459653	 1.8137090917	-0.4672735438	-0.263354
C	-1.279757347	 1.7976162828	-0.7984781162	-0.083816
C	-1.1849505578	 3.0544459278	-1.6208614414	-0.27927
C	-1.2828036675	 1.7128917213	-2.3037293432	-0.25374
H	-0.2028432386	-2.3094864765	 0.810331595	 0.197785
H	 0.3932408532	 3.2602104267	 0.8846103638	 0.119347
H	 1.2600721567	 1.8260454546	 1.6634956456	 0.124215
H	-2.2213359628	 1.5977052321	-0.2961599952	 0.096337
H	-2.044963466	 3.7141602746	-1.639333595	 0.109754
H	-0.2226084225	 3.551366762	-1.6575520696	 0.129861
H	-0.3848190837	 1.3363965063	-2.7805163256	 0.12891
H	-2.2081402088	 1.4421254381	-2.7989972016	 0.113808
80.0857	140.3534	193.1676	242.3319	254.9501	423.5838	456.5129	533.8488	578.8328	621.2953	652.0618	662.8299	788.0117	827.0577	851.9351	860.6239	929.5588	947.4414	986.5564	1065.3727	1091.3036	1104.7233	1131.4539	1135.5897	1169.7195	1198.4903	1203.9255	1231.8603	1352.4838	1406.7083	1459.4154	1498.4272	1515.1502	2239.2786	3088.6012	3139.1885	3141.6485	3156.7701	3184.2551	3222.2182	3236.0889	3501.3471
C#CC1(CO1)C1CC1	C#C[C@]1(CO1)C1CC1	
InChI=1S/C7H8O/c1-2-7(5-8-7)6-3-4-6/h1,6H,3-5H2	InChI=1S/C7H8O/c1-2-7(5-8-7)6-3-4-6/h1,6H,3-5H2/t7-/m0/s1
