16
gdb 67398	2.82967	1.58235	1.41257	1.6625	68.66	-0.2328	-0.0167	0.2161	955.511	0.125304	-437.861146	-437.854031	-437.853086	-437.892496	28.552	
O	-0.1136062064	 1.3943272797	-0.009068833	-0.455089
C	 0.0193185097	 0.0308948071	-0.0005710952	 0.360692
C	-1.0168261542	-1.0188385261	-0.024813126	-0.068821
N	-0.4404718206	-1.6917219396	-1.1738690332	-0.305376
C	 0.8141458903	-0.883340097	-1.0031038852	-0.081791
C	 1.8518618972	-1.6267464723	-0.1656550948	-0.347828
C	 1.1775170745	-1.773044813	 1.2156862074	 0.40995
O	 1.5822009599	-2.4484317345	 2.1304749969	-0.331334
C	-0.0245608979	-0.8939377409	 1.2037371111	-0.272426
H	 0.6166508951	 1.7818492973	 0.4868658686	 0.293589
H	-2.0821300784	-0.9808611536	 0.1687553191	 0.119735
H	-0.2999672443	-2.6948246389	-1.0570100012	 0.217502
H	 1.1746756615	-0.4315508363	-1.9276289386	 0.09406
H	 2.1468435799	-2.5998118051	-0.5694986732	 0.129035
H	 2.7667110162	-1.0319890066	-0.045026777	 0.12874
H	-0.4894399225	-0.5772339502	 2.1290558943	 0.109361
113.2462	220.3019	275.7543	327.3364	399.4667	414.6213	464.9264	569.0091	577.1874	641.1372	688.0657	697.2888	801.1134	846.909	888.237	905.7712	942.8479	954.3321	988.2767	1025.0278	1061.6994	1121.3515	1131.0231	1141.216	1175.3352	1205.8117	1207.8336	1263.7975	1284.8161	1310.9765	1331.7973	1368.9693	1446.1451	1500.0402	1826.1455	3035.3034	3095.2357	3110.6264	3190.7071	3207.2735	3453.7909	3791.212
OC12C3NC1CC(=O)C23	O[C@@]12[C@H]3N[C@@H]1CC(=O)[C@@H]23	
InChI=1S/C6H7NO2/c8-2-1-3-6(9)4(2)5(6)7-3/h3-5,7,9H,1H2	InChI=1S/C6H7NO2/c8-2-1-3-6(9)4(2)5(6)7-3/h3-5,7,9H,1H2/t3-,4-,5+,6+/m1/s1
