14
gdb 20416	6.17915	1.56344	1.31442	3.7398	65.4	-0.2233	0.0023	0.2256	893.2213	0.108601	-378.68213	-378.675636	-378.674691	-378.713461	23.86	
C	-0.1353637226	 1.2712276581	-0.3389595124	-0.226207
C	 1.2597941765	 1.0493908212	 0.1388620633	-0.221347
N	 0.293438312	-0.0466845624	 0.1204004262	-0.151744
C	-0.1957428902	-0.5593051334	 1.3040459512	 0.483942
C	-1.4619331523	-0.7886565134	 1.7664892931	-0.35817
C	-1.2324234277	-1.4348790043	 3.0063634506	 0.047186
N	 0.0403113984	-1.5826495366	 3.280418128	-0.151376
O	 0.7109308501	-1.0168734011	 2.1820015857	-0.212781
H	-0.8030747086	 1.8324470909	 0.3097173163	 0.133774
H	-0.3469534251	 1.3421826601	-1.401012482	 0.133912
H	 2.0733146847	 0.9535893809	-0.5725822927	 0.135973
H	 1.533666102	 1.4583065045	 1.1070627595	 0.143155
H	-2.3956633921	-0.5472367023	 1.2891976058	 0.114705
H	-1.9605454551	-1.7997299422	 3.7180725875	 0.128977
53.1843	164.2174	201.2474	358.93	499.686	561.1909	636.4557	726.2114	773.977	817.4806	884.7819	905.3421	919.2987	930.1157	947.8778	1019.2568	1043.2586	1056.7199	1122.8022	1138.242	1170.6076	1175.1531	1209.7282	1243.655	1356.1763	1379.3628	1494.0196	1519.8742	1535.9137	1635.9809	3116.0619	3125.0816	3204.5786	3219.7489	3236.7958	3287.2547
C1CN1C1=CC=NO1	C1CN1c1ccno1	
InChI=1S/C5H6N2O/c1-2-6-8-5(1)7-3-4-7/h1-2H,3-4H2	InChI=1S/C5H6N2O/c1-2-6-8-5(1)7-3-4-7/h1-2H,3-4H2
