17
gdb 68665	2.38171	1.87222	1.49639	2.1053	73.34	-0.2354	-0.0197	0.2157	958.576	0.135653	-421.832801	-421.825099	-421.824154	-421.864665	29.982	
C	 0.0554321987	 1.5416663774	-0.0738174133	-0.495176
C	-0.0211854445	 0.0401896252	 0.0015550912	 0.245537
O	 0.2719053635	-0.648065638	-1.2650419235	-0.329215
C	-0.6110169229	-1.7459778499	-0.895808151	-0.036158
C	 0.1616280884	-2.7455214606	-0.0204093889	-0.272416
C	 0.8978551664	-1.9664934311	 1.0493897992	-0.080792
C	 0.7988294633	-0.6362429354	 1.0900694881	-0.077205
C	-1.3668947568	-0.7178672711	-0.0299528295	 0.39405
O	-2.4916047838	-0.518088896	 0.310066496	-0.313634
H	 1.0902328003	 1.8702645771	-0.2132722421	 0.133986
H	-0.5483477515	 1.9167444144	-0.9030250987	 0.136897
H	-0.3211616648	 1.9767010495	 0.8572067189	 0.137242
H	-1.1159107266	-2.1932901133	-1.7552500236	 0.101474
H	-0.5396226686	-3.4589854689	 0.4326265344	 0.125991
H	 0.8582724475	-3.3357561898	-0.6301324481	 0.122678
H	 1.4977961492	-2.5155281386	 1.7690583628	 0.10505
H	 1.2693076521	-0.0314933208	 1.8585094581	 0.101691
133.303	169.0329	208.8019	231.3988	300.2751	369.8936	463.5823	479.3603	537.3814	605.5714	666.1894	701.7491	785.5882	816.7327	866.6104	883.7882	921.1853	927.6613	969.5644	981.6621	1005.6522	1052.6181	1123.6395	1137.2264	1168.4666	1195.1405	1261.4804	1281.389	1294.482	1358.735	1397.667	1407.068	1468.2517	1476.5263	1491.348	1687.374	1913.0873	3016.8513	3043.1366	3048.041	3093.3436	3112.7703	3132.6796	3167.3685	3190.9998
CC12OC(CC=C1)C2=O	C[C@@]12O[C@@H](CC=C1)C2=O	
InChI=1S/C7H8O2/c1-7-4-2-3-5(9-7)6(7)8/h2,4-5H,3H2,1H3	InChI=1S/C7H8O2/c1-7-4-2-3-5(9-7)6(7)8/h2,4-5H,3H2,1H3/t5-,7+/m0/s1
