18
gdb 51226	3.65185	1.28194	1.17247	3.5558	76.63	-0.2368	0.0267	0.2635	1094.192	0.149012	-401.919874	-401.912334	-401.91139	-401.952509	29.357	
O	 0.0709278421	 0.6333736037	-1.5218025354	-0.311326
C	 0.0926344477	 1.421327271	-0.6047851669	 0.131602
N	 1.1705853739	 1.6927193849	 0.1937882928	-0.418082
C	 2.4153046857	 1.0198180008	 0.1230603403	 0.418217
C	 2.9380976483	-0.0935137051	 1.0305537795	-0.279239
C	 4.324297922	 0.2086450641	 0.3942650194	-0.067603
C	 4.1553511614	-0.2239348351	-1.0905516032	-0.224259
C	 3.1826729436	 0.9445928116	-1.2053081005	-0.066057
C	 3.7890429102	 1.6443682622	-0.0121655807	-0.156809
H	-0.7822304878	 2.0392403322	-0.3148089811	 0.070785
H	 1.0163653303	 2.3261764023	 0.9644391354	 0.243898
H	 2.9019050116	 0.2058435556	 2.0828585082	 0.090168
H	 2.5343741204	-1.1057186448	 0.9161408737	 0.099844
H	 5.2403756488	 0.0034539925	 0.9426396868	 0.07452
H	 5.0621726634	-0.0405477038	-1.673188403	 0.100721
H	 3.788549482	-1.2381476145	-1.2829289335	 0.097628
H	 2.7494448516	 1.3834047009	-2.0929590069	 0.104084
H	 4.1389302748	 2.6538322319	 0.1482570352	 0.091907
44.4261	129.243	201.1805	297.387	402.5781	434.3554	449.3116	548.0027	571.9808	718.4515	748.5873	801.432	818.5991	831.1721	886.4656	923.9715	956.5699	967.703	1001.1567	1004.8906	1016.651	1033.4356	1075.9761	1098.3125	1129.0974	1139.959	1153.7309	1178.6768	1207.0969	1229.8582	1272.9067	1282.5227	1304.7117	1404.7938	1439.0628	1491.3455	1507.8494	1515.4676	1816.9328	2920.3588	3033.2512	3041.0128	3090.282	3100.2264	3145.0879	3215.5137	3227.193	3599.897
O=CNC12CC3CC1C23	O=CN[C@@]12C[C@H]3C[C@@H]1[C@@H]23	
InChI=1S/C7H9NO/c9-3-8-7-2-4-1-5(7)6(4)7/h3-6H,1-2H2,(H,8,9)	InChI=1S/C7H9NO/c9-3-8-7-2-4-1-5(7)6(4)7/h3-6H,1-2H2,(H,8,9)/t4-,5-,6+,7+/m1/s1
