25
gdb 115380	3.07333	1.02972	0.91299	1.1542	89.02	-0.2414	0.0811	0.3225	1450.2498	0.229957	-389.518543	-389.508827	-389.507883	-389.552828	37.524	
C	-0.0155917149	 1.5956527756	-0.0040227998	-0.385766
C	-0.0452254666	 0.0657613017	 0.0357832299	-0.187704
C	 0.6973511535	-0.5240203512	 1.2312734924	 0.158009
C	 0.5867446787	-2.050735201	 1.3201498242	-0.206419
C	 1.4648402575	-2.5982690215	 2.4563436048	-0.226252
C	 2.9080707567	-2.0589833873	 2.3730701985	 0.02174
C	 3.7175812241	-2.6857315964	 1.2291980264	-0.387823
C	 2.8422287332	-0.5302997079	 2.2366663865	-0.073958
O	 2.063993442	-0.1303358471	 1.1215090812	-0.26286
H	 1.015097057	 1.9577225428	-0.0226164215	 0.134066
H	-0.5321117822	 1.977613925	-0.8898501636	 0.106786
H	-0.50589369	 2.0231505399	 0.8780014409	 0.107669
H	-1.0814969925	-0.292947208	 0.0662803137	 0.091421
H	 0.4026610282	-0.3412421593	-0.8793516448	 0.100593
H	 0.2837917459	-0.0887388641	 2.1617105917	 0.053018
H	-0.4603137188	-2.3340101288	 1.4792575635	 0.09062
H	 0.8903425097	-2.4816798559	 0.3584534069	 0.100987
H	 1.0302585982	-2.2934148629	 3.4179835793	 0.089992
H	 1.4643751821	-3.694147262	 2.4477224932	 0.090776
H	 3.4165183533	-2.2845324305	 3.3198844471	 0.065146
H	 3.3190696662	-2.3921733754	 0.2542851386	 0.127933
H	 4.7622041792	-2.3586414453	 1.2679543319	 0.109258
H	 3.7071434415	-3.779079517	 1.2883532938	 0.106716
H	 2.4267966947	-0.0907461429	 3.1603277619	 0.078505
H	 3.8387367635	-0.1038098404	 2.0807041533	 0.097548
80.4332	106.2075	179.9198	195.0744	214.9061	227.1711	276.5057	358.9859	373.8408	394.0107	474.6071	488.3923	506.2709	682.4545	757.5895	777.1087	841.4491	873.2013	899.2747	937.9841	972.8461	974.4037	988.0227	1018.9109	1052.8695	1053.4298	1096.6963	1116.1984	1140.5901	1160.7053	1189.759	1226.8548	1236.7537	1282.3791	1305.9148	1315.1344	1341.0651	1360.5447	1366.9749	1380.2995	1389.7089	1400.2726	1405.284	1409.5274	1426.048	1472.0796	1481.1289	1488.9783	1491.7513	1496.5961	1504.7005	1509.274	1510.131	2914.2977	2953.0638	3008.6969	3022.4512	3024.002	3031.4195	3035.417	3035.8241	3058.1369	3062.3039	3068.1212	3074.6068	3096.1166	3099.5595	3117.295	3127.113
CCC1CCC(C)CO1	CC[C@H]1CC[C@@H](C)CO1	
InChI=1S/C8H16O/c1-3-8-5-4-7(2)6-9-8/h7-8H,3-6H2,1-2H3	InChI=1S/C8H16O/c1-3-8-5-4-7(2)6-9-8/h7-8H,3-6H2,1-2H3/t7-,8+/m1/s1
