24
gdb 104736	2.1589	1.32756	0.96546	2.9069	86.54	-0.2319	0.0624	0.2943	1354.0282	0.214893	-405.526494	-405.515236	-405.514292	-405.562786	41.398	
C	-1.7949228047	 0.1783405128	-0.8482809106	-0.370647
C	-1.3026497614	-0.9455460172	-1.7688349353	-0.246014
C	 0.180504204	-0.8334029276	-2.1474550503	 0.30352
C	 0.3991502658	-0.0611359904	-3.4345122898	-0.162235
O	-0.1245074794	 1.2537497779	-3.2667430796	-0.413376
N	 1.1174575524	-0.5917296271	-1.02410702	-0.39693
C	 1.1882157064	-1.878649321	-1.7380632376	 0.261836
C	 0.75039338	-3.0728917311	-0.9054539065	-0.43379
C	 2.4109218499	-2.2042693092	-2.582802347	-0.468837
H	-1.2082821636	 0.1955738062	 0.0738518027	 0.128764
H	-1.6910912964	 1.1499818103	-1.3346156852	 0.132781
H	-2.8478096859	 0.027964048	-0.5876572133	 0.094455
H	-1.4982308301	-1.9096930145	-1.2922139796	 0.092975
H	-1.8901332846	-0.9455485103	-2.6949453151	 0.089196
H	 1.4643010792	-0.0104716954	-3.6922574371	 0.076145
H	-0.1154638167	-0.5830516285	-4.2577625254	 0.089155
H	-0.0805685307	 1.7024625404	-4.1161658984	 0.287361
H	 1.8624884252	 0.0333926845	-1.325550127	 0.222034
H	 1.6136406482	-3.4891769981	-0.374270537	 0.112289
H	 0.0105744673	-2.7919991637	-0.1559139935	 0.133612
H	 0.3328196035	-3.8665235039	-1.5358355704	 0.110346
H	 3.2177555322	-2.5638017578	-1.9336141321	 0.121596
H	 2.1925469178	-3.0033548151	-3.3006229104	 0.121254
H	 2.7978034414	-1.3490311291	-3.1394985916	 0.114508
46.1148	81.1675	134.1854	154.4568	177.8503	218.7349	230.3348	248.5401	288.88	326.0434	349.9708	386.0571	399.8521	435.9646	512.8442	560.947	688.4404	751.4068	784.5707	868.4815	914.6984	953.3216	972.2403	999.36	1012.9962	1052.8803	1060.1208	1067.6891	1079.9007	1105.7249	1153.2682	1181.9481	1236.8816	1251.673	1287.272	1300.0915	1329.8217	1370.8272	1401.2031	1408.3947	1418.8201	1420.2135	1459.6421	1478.2313	1482.238	1494.0164	1496.6593	1506.2915	1511.8148	1516.2513	1523.5837	2968.4191	3024.9611	3030.6445	3035.6232	3037.7478	3044.6772	3082.8126	3085.3189	3089.5966	3114.1467	3123.9359	3141.9664	3145.262	3480.3972	3828.8032
CCC1(CO)NC1(C)C	CC[C@@]1(CO)NC1(C)C	
InChI=1S/C7H15NO/c1-4-7(5-9)6(2,3)8-7/h8-9H,4-5H2,1-3H3	InChI=1S/C7H15NO/c1-4-7(5-9)6(2,3)8-7/h8-9H,4-5H2,1-3H3/t7-/m0/s1
