16
gdb 32177	2.85185	1.28345	0.89002	2.0363	74.74	-0.2415	-0.0024	0.239	1236.8128	0.125558	-437.943364	-437.935264	-437.93432	-437.976488	30.221	
O	-0.0101462856	 1.4391303957	 0.0429551926	-0.420652
C	-0.0184347042	 0.0236909934	-0.0090591577	-0.150129
C	-1.4402283925	-0.486325403	 0.0141736519	 0.312529
N	-1.563967246	-1.8182520085	-0.0311317136	-0.339702
C	-2.8048486163	-2.310848712	-0.0126262952	-0.000407
C	-3.9570430491	-1.5384150711	 0.0497833678	-0.210789
C	-3.807807673	-0.1531163501	 0.0963048854	 0.421127
O	-4.9241365454	 0.6122244353	 0.1573953114	-0.430766
C	-2.5212450558	 0.3859815435	 0.0781459718	-0.324395
H	 0.9039242031	 1.7341364104	 0.026931196	 0.29364
H	 0.4667162743	-0.3547822485	-0.9218910484	 0.113137
H	 0.5189416361	-0.4199696408	 0.8431489722	 0.113141
H	-2.8877949633	-3.3947899441	-0.0500100949	 0.106132
H	-4.9438516692	-1.9843868431	 0.0625249654	 0.105268
H	-4.6679615021	 1.5409426129	 0.1839913714	 0.301523
H	-2.3504550712	 1.45581764	 0.1124400838	 0.110343
55.0215	178.6639	194.2383	213.5426	239.0605	399.4697	431.2466	459.2178	468.7732	532.7827	591.8471	605.2463	753.4932	774.5266	859.1108	870.4233	975.2003	987.2016	1008.4574	1039.9776	1080.1489	1118.368	1169.3238	1198.3042	1231.9503	1242.7588	1313.6917	1325.6288	1370.0523	1447.1512	1468.7807	1503.1745	1519.9805	1636.1486	1639.7921	2981.0413	3007.204	3152.6509	3199.6059	3211.6189	3809.8483	3848.7979
OCC1=NC=CC(O)=C1	OCc1nccc(O)c1	
InChI=1S/C6H7NO2/c8-4-5-3-6(9)1-2-7-5/h1-3,8H,4H2,(H,7,9)	InChI=1S/C6H7NO2/c8-4-5-3-6(9)1-2-7-5/h1-3,8H,4H2,(H,7,9)
