16
gdb 45985	3.32218	1.27763	0.95917	2.6005	75.71	-0.2439	-0.06	0.1839	1157.1747	0.126533	-437.955251	-437.94759	-437.946646	-437.987803	28.916	
O	 0.0050263599	-0.0476651277	-0.2610922161	-0.335926
C	-0.0560190282	 1.1457590606	-0.0622384973	 0.392327
C	-1.3523215824	 1.9004069049	 0.1314852616	-0.323966
C	-1.4053259531	 2.7771802525	 1.3944873825	-0.325839
C	-0.7415451133	 4.1396128161	 1.2364786604	 0.355611
O	-1.29170701	 5.146052459	 1.6450692555	-0.332442
C	 0.5879722103	 4.2182023719	 0.6194190145	-0.182856
C	 1.3673126555	 3.2344154423	 0.1269367708	 0.025002
N	 1.1271833153	 1.8856815357	-0.0411652649	-0.328034
H	-1.5288709095	 2.5197946966	-0.758220713	 0.137106
H	-2.1326141836	 1.1386684235	 0.1580034469	 0.144402
H	-2.4421396367	 2.9661199913	 1.6795340481	 0.136225
H	-0.9315831808	 2.2525549064	 2.2352519432	 0.131154
H	 1.0063350644	 5.2184869588	 0.6107850391	 0.111906
H	 2.3675701441	 3.502046988	-0.2024075893	 0.132523
H	 1.9242539781	 1.3101054802	-0.2765476122	 0.262808
72.554	139.681	181.0808	302.6283	339.776	381.488	441.6051	508.6269	558.4746	610.6396	687.4862	696.5881	737.0616	778.2683	838.7456	863.3901	925.7272	988.4092	995.8126	1048.4875	1092.877	1162.0148	1210.658	1233.2318	1293.2078	1330.2262	1355.2155	1370.955	1445.7942	1467.2675	1470.8074	1499.0318	1687.8995	1755.794	1803.3987	3024.9118	3034.7999	3114.301	3127.1104	3167.1376	3200.0389	3598.4927
O=C1CCC(=O)C=CN1	O=C1CCC(=O)C=CN1	
InChI=1S/C6H7NO2/c8-5-1-2-6(9)7-4-3-5/h3-4H,1-2H2,(H,7,9)	InChI=1S/C6H7NO2/c8-5-1-2-6(9)7-4-3-5/h3-4H,1-2H2,(H,7,9)
