18
gdb 117309	4.47453	0.74692	0.64784	5.0626	72.07	-0.2534	-0.0073	0.2461	1727.3985	0.144877	-476.301443	-476.290956	-476.290012	-476.339041	35.078	
C	 0.0721811341	 1.5405002023	 0.3225444045	-0.393474
C	 0.0217381837	 0.0517192621	 0.0402045105	-0.038336
O	 0.6492289478	-0.6228152929	 1.148728194	-0.283745
C	 0.6899815577	-1.9738624107	 1.0465267375	 0.541342
O	 0.2549484036	-2.6143998899	 0.1317088209	-0.358019
N	 1.3225741489	-2.4579522638	 2.1897339332	-0.427516
C	 1.5815249478	-3.7962206676	 2.5112582327	 0.412254
C	 2.2923403346	-3.9405878899	 3.848915059	-0.502029
O	 1.2772664933	-4.7256780686	 1.8107264891	-0.295932
H	 1.1051485195	 1.8862199929	 0.4206364795	 0.129315
H	-0.3969833316	 2.0875908588	-0.500435168	 0.127302
H	-0.4621848094	 1.7829771651	 1.2454896829	 0.129312
H	-1.00550253	-0.3124241135	-0.0598326066	 0.127153
H	 0.5533778168	-0.2099037828	-0.8799302937	 0.127353
H	 1.616377586	-1.7485544201	 2.8435860467	 0.260481
H	 3.2510463242	-3.41106517	 3.8403076339	 0.14292
H	 1.6863789656	-3.5215313717	 4.6593679054	 0.143072
H	 2.4653148676	-4.9992621795	 4.0368883585	 0.158548
29.4662	63.8129	74.358	92.2031	116.3734	158.5426	232.9382	261.086	326.8515	372.5595	430.3073	566.1992	576.2398	630.3417	766.0378	781.2819	808.5693	869.4687	938.2282	984.3786	1041.8427	1052.1113	1102.4166	1136.8604	1184.8634	1189.1819	1260.6671	1292.208	1385.1092	1394.8169	1420.5915	1468.0579	1482.6615	1486.2019	1496.6798	1508.6101	1527.4155	1817.5414	1882.8709	3041.5824	3046.3964	3053.3915	3091.4421	3104.5382	3121.6701	3125.9777	3168.3865	3630.3804
CCOC(=O)NC(C)=O	CCOC(=O)NC(=O)C	
InChI=1S/C5H9NO3/c1-3-9-5(8)6-4(2)7/h3H2,1-2H3,(H,6,7,8)	InChI=1S/C5H9NO3/c1-3-9-5(8)6-4(2)7/h3H2,1-2H3,(H,6,7,8)
