21
gdb 59062	2.0928	1.25973	1.04002	2.2815	75.21	-0.2323	0.0641	0.2964	1283.6112	0.17845	-461.339305	-461.32837	-461.327426	-461.374886	40.328	
C	-0.0483402054	 1.5271265393	-0.1047619777	-0.401905
C	 0.0284630009	 0.0147736917	 0.1111757799	 0.119473
O	 0.7278501612	-0.3065100359	 1.3156307966	-0.434854
C	-1.3486862519	-0.620541622	 0.0877774727	-0.102099
C	-1.9275847653	-1.2374968017	-1.1685550481	-0.007955
O	-1.1242746962	-1.1798950521	-2.3142605007	-0.410444
C	-1.5440995883	-2.1126696627	 0.0122143368	 0.320265
C	-0.3768464404	-3.0673158838	-0.0729370668	-0.45355
O	-2.6052537163	-2.549975999	 0.827871042	-0.462008
H	 0.952273127	 1.9658666036	-0.0646688297	 0.119284
H	-0.4962679922	 1.7562883755	-1.0767228718	 0.127619
H	-0.6625695422	 2.0015268508	 0.6709504391	 0.101478
H	 0.638914102	-0.4187359933	-0.6843383684	 0.101863
H	 0.1934829243	 0.0051776461	 2.0544934156	 0.275532
H	-2.0837343318	-0.1205243966	 0.7160213204	 0.089107
H	-2.9946579429	-1.092559765	-1.3392757338	 0.08806
H	-1.2793015458	-1.9766057901	-2.8323055706	 0.289954
H	 0.3523371507	-2.7399177025	-0.8165230843	 0.130259
H	 0.1273118866	-3.1482545777	 0.8929267198	 0.141717
H	-0.726971338	-4.0657493746	-0.3664850137	 0.092656
H	-2.9511900258	-3.3669613499	 0.450245263	 0.275547
52.8964	112.9356	152.901	181.5715	226.3033	230.3084	249.4145	272.4084	295.2835	297.211	315.0122	403.2263	411.8344	463.7087	511.6977	527.1206	591.3884	735.7108	837.6677	872.5575	905.472	968.5662	989.3044	1021.9643	1050.4098	1083.542	1099.5931	1117.0443	1145.526	1178.7145	1219.8232	1271.7089	1281.033	1293.2622	1330.2533	1358.8536	1390.654	1399.5906	1415.7604	1420.5533	1457.2883	1490.8504	1493.8038	1494.9372	1501.9695	3021.9014	3024.8759	3083.0697	3096.1306	3101.9549	3104.1469	3120.6036	3128.4672	3139.9157	3783.4169	3798.557	3805.972
CC(O)C1C(O)C1(C)O	C[C@@H](O)[C@H]1[C@@H](O)[C@]1(C)O	
InChI=1S/C6H12O3/c1-3(7)4-5(8)6(4,2)9/h3-5,7-9H,1-2H3	InChI=1S/C6H12O3/c1-3(7)4-5(8)6(4,2)9/h3-5,7-9H,1-2H3/t3-,4+,5-,6-/m1/s1
