13
gdb 28139	5.41988	1.35141	1.08272	2.5338	67.57	-0.1894	0.0092	0.1985	1017.6322	0.092097	-452.773248	-452.766653	-452.765709	-452.80407	25.76	
N	 0.0293070121	 1.313826702	 0.1517391553	-0.58533
C	-0.0536991362	-0.0470972374	 0.0508163201	 0.431922
N	-1.1392654387	-0.7757366185	 0.0217748844	-0.428063
C	-0.6010394702	-2.0385837043	 0.0101241209	 0.333894
C	 0.7523759305	-2.0367617803	 0.020938596	 0.238109
O	 1.1481896682	-0.7151348038	 0.049128846	-0.23747
C	 1.1980002931	-3.3839018386	-0.0211645963	-0.352114
C	 0.0281037683	-4.0997397875	-0.0490087105	-0.014122
O	-1.0936352672	-3.2888206681	-0.0321545992	-0.196835
H	 0.861642203	 1.7224159017	-0.2469725016	 0.269385
H	-0.825337364	 1.7862965116	-0.1019932956	 0.276461
H	 2.1940806807	-3.7945138068	-0.0257514596	 0.125718
H	-0.1753020896	-5.15615454	-0.0753246998	 0.138446
137.9998	262.7109	301.9604	339.8167	355.5015	546.4544	570.0813	593.4821	603.831	661.7784	729.8165	756.2466	768.1559	802.7987	838.2542	924.0605	946.9907	1022.2701	1114.92	1136.5222	1177.8957	1270.9968	1375.3571	1443.3235	1497.1253	1512.6916	1593.9802	1627.0344	1677.3219	3269.1923	3298.7591	3578.5616	3689.9126
NC1=NC2=C(O1)C=CO2	Nc1nc2c(o1)cco2	
InChI=1S/C5H4N2O2/c6-5-7-4-3(9-5)1-2-8-4/h1-2H,(H2,6,7)	InChI=1S/C5H4N2O2/c6-5-7-4-3(9-5)1-2-8-4/h1-2H,(H2,6,7)
