21
gdb 93633	1.88881	1.61009	1.32742	4.7168	80.8	-0.2459	0.0218	0.2677	1129.3495	0.184277	-383.290225	-383.281008	-383.280064	-383.324243	34.775	
C	 0.5768040168	 1.6657555645	 0.0108237927	-0.410687
C	 0.258905993	 0.1665600827	-0.028072185	-0.000046
C	 1.0471164327	-0.5611210946	-1.1666674537	-0.190049
N	 1.7901971158	-1.6944863749	-0.5797050035	-0.281404
C	 1.9545198717	-1.3637314347	 0.8396117144	-0.183561
C	 3.1478855555	-0.517464317	 1.0278873092	 0.327492
N	 4.0691333448	 0.160223255	 1.1956357117	-0.342929
C	 0.6414768699	-0.6339779041	 1.2561911613	 0.021918
C	 0.6894549557	 0.1339786371	 2.575721134	-0.4244
H	 1.6419828227	 1.8485394864	 0.1849591928	 0.142968
H	 0.3156350493	 2.1284479583	-0.9469392388	 0.115427
H	 0.0110143884	 2.1833309856	 0.7909441012	 0.115632
H	-0.8176823367	 0.0539824422	-0.1936380832	 0.07438
H	 0.4025708524	-0.9232904662	-1.9712608748	 0.106457
H	 1.7649367904	 0.1341050851	-1.6171304261	 0.122958
H	 1.2297444286	-2.5380134043	-0.6351813676	 0.226216
H	 2.113603852	-2.2764895384	 1.4223115208	 0.119748
H	-0.0902830265	-1.4445645786	 1.3631090945	 0.076603
H	 1.4446557239	 0.9237979932	 2.5626226101	 0.146377
H	-0.2792956875	 0.5938414387	 2.7939457457	 0.119972
H	 0.9278182571	-0.5390060962	 3.4061922043	 0.116928
55.8649	105.0905	149.2932	245.0497	264.8527	274.497	282.4849	334.8448	369.2889	476.3871	496.0521	578.3599	677.4513	679.7059	765.5069	772.7381	852.4729	904.0584	920.7568	948.5358	980.577	1016.8174	1047.6958	1081.9086	1107.1936	1119.0662	1162.3498	1174.6732	1232.7215	1245.3699	1304.2153	1321.1024	1347.533	1357.4388	1372.2397	1379.3691	1413.5375	1422.3007	1470.6244	1493.3325	1495.5042	1505.3532	1508.0135	1512.9814	2353.0261	3015.2691	3034.7904	3038.3891	3040.3143	3043.4055	3069.135	3098.2108	3099.4624	3102.0491	3114.6389	3124.8973	3529.4899
CC1CNC(C#N)C1C	C[C@H]1CN[C@@H](C#N)[C@H]1C	
InChI=1S/C7H12N2/c1-5-4-9-7(3-8)6(5)2/h5-7,9H,4H2,1-2H3	InChI=1S/C7H12N2/c1-5-4-9-7(3-8)6(5)2/h5-7,9H,4H2,1-2H3/t5-,6-,7-/m0/s1
