19
gdb 107593	2.62461	1.60494	1.15346	2.7507	75.74	-0.2282	-0.014	0.2142	1103.7154	0.15912	-423.035588	-423.027107	-423.026163	-423.068559	32.216	
C	-0.402007161	 1.3518495778	-0.1940206678	-0.263075
O	 0.0704473984	 0.0315246268	 0.0594940059	-0.288383
C	 0.779576721	-0.5235737092	-0.9836478393	 0.344009
C	 0.0346831807	-1.1037997526	-2.1866619611	-0.351726
C	 0.7536713679	-2.0171841642	-1.2376075094	-0.107936
C	 2.1524390823	-2.4767292329	-1.6452914413	-0.228417
C	 2.9180729836	-1.1841146421	-2.0073164439	-0.341449
C	 2.1806715887	-0.0584586385	-1.268691663	 0.355915
O	 2.6584429976	 0.9919625068	-0.9152161781	-0.335754
H	 0.4294668006	 2.0449593983	-0.3501853651	 0.146201
H	-1.0648494119	 1.3728221515	-1.0706881492	 0.10297
H	-0.9701266341	 1.6509760094	 0.689314275	 0.125598
H	-1.0447895403	-1.0619923983	-2.0926897684	 0.129917
H	 0.4117152992	-0.9487745266	-3.1924567578	 0.117636
H	 0.1554824592	-2.6455549492	-0.5883184133	 0.106319
H	 2.6346149865	-2.9706750139	-0.7955006846	 0.116363
H	 2.1254853958	-3.1974957832	-2.4685861324	 0.107255
H	 3.9686920857	-1.1939386626	-1.7118305661	 0.133842
H	 2.8938140799	-0.9748674172	-3.0835431703	 0.130714
110.1994	123.4654	174.9399	182.4073	250.9357	294.1128	366.2256	423.0936	492.6077	527.3844	618.4171	655.141	671.4721	805.5695	835.643	872.569	909.8688	952.0131	980.4866	1008.7713	1037.8544	1047.968	1071.2259	1104.1634	1114.3183	1177.2354	1182.7156	1218.3897	1230.1197	1264.7644	1281.0652	1320.2163	1337.8806	1391.9438	1457.2848	1472.2689	1483.4609	1488.9396	1503.3386	1515.4826	1827.8465	3003.8436	3044.1972	3047.642	3085.1404	3091.2497	3119.567	3130.0012	3133.2017	3185.0063	3221.9158
COC12CC1CCC2=O	CO[C@]12C[C@H]1CCC2=O	
InChI=1S/C7H10O2/c1-9-7-4-5(7)2-3-6(7)8/h5H,2-4H2,1H3	InChI=1S/C7H10O2/c1-9-7-4-5(7)2-3-6(7)8/h5H,2-4H2,1H3/t5-,7-/m1/s1
