20
gdb 98539	3.64673	1.07336	0.91667	2.5494	80.52	-0.238	-0.0158	0.2222	1340.1392	0.170368	-403.135179	-403.126091	-403.125147	-403.169679	33.553	
C	-0.5561182095	 1.6840490887	 0.5124981622	-0.378514
C	-0.7614456141	 0.192413041	 0.7629128065	-0.283758
C	-0.9119895429	-0.6111399285	-0.5181218993	 0.285744
O	-0.7740247699	-0.1189425336	-1.6198493436	-0.324732
C	-1.2499286964	-2.0555727367	-0.3936616595	 0.259018
C	-1.368212846	-3.0363821685	-1.5692765863	-0.299583
C	-2.585145703	-3.7151999221	-0.8597319768	-0.239529
C	-2.4369477234	-2.7206985503	 0.2990400062	-0.076849
N	-1.1161102089	-2.7503928682	 0.8877624425	-0.354615
H	-0.4284319843	 2.2194702627	 1.4575112142	 0.106756
H	 0.3267907846	 1.8571780339	-0.1076962112	 0.130997
H	-1.410563293	 2.11568712	-0.0160225828	 0.125097
H	 0.0755438374	-0.2431210065	 1.3235197295	 0.134565
H	-1.6365325335	 0.0045059382	 1.3978555848	 0.121574
H	-1.6444307471	-2.5298136721	-2.4940936901	 0.136038
H	-0.4838560092	-3.6544455386	-1.7532153529	 0.099702
H	-3.5153807717	-3.5900255151	-1.4175652818	 0.117603
H	-2.4829972567	-4.7693271768	-0.5816087517	 0.103322
H	-3.2358628196	-2.2594021421	 0.8691982964	 0.10558
H	-0.6533602028	-3.6524506355	 0.7854707637	 0.231586
55.8312	67.8539	157.4865	159.2965	206.51	282.4046	307.9434	356.9077	485.5904	493.5337	569.1142	708.3326	754.7519	771.7593	784.0501	830.4414	870.1571	931.2889	948.6639	978.6632	1014.6703	1036.8703	1053.9618	1093.0125	1094.6191	1105.9432	1141.9474	1163.7966	1210.5621	1227.7381	1253.773	1270.4143	1298.532	1303.7833	1366.3404	1413.9611	1434.6478	1440.4757	1480.1673	1493.6973	1497.9287	1498.7363	1778.2165	3035.9607	3049.1352	3049.7534	3059.1743	3059.5537	3112.0749	3119.1587	3126.5022	3141.0611	3175.7535	3460.4967
CCC(=O)C12CCC1N2	CCC(=O)[C@]12CC[C@H]1N2	
InChI=1S/C7H11NO/c1-2-6(9)7-4-3-5(7)8-7/h5,8H,2-4H2,1H3	InChI=1S/C7H11NO/c1-2-6(9)7-4-3-5(7)8-7/h5,8H,2-4H2,1H3/t5-,7+/m1/s1
