22
gdb 71898	2.32216	1.79945	1.59196	1.4856	85.21	-0.2005	0.0809	0.2814	1021.0878	0.194691	-367.167997	-367.159671	-367.158727	-367.200067	33.666	
C	 0.044479247	 1.5729301589	-0.0460782133	-0.500716
C	-0.0215071686	 0.0635255237	-0.0068239214	 0.295027
C	 0.4082398865	-0.7332321725	-1.2716549999	-0.280505
C	-0.7079142364	-1.7799263654	-1.0220103811	-0.097235
C	-0.3852365108	-2.7158509091	 0.1555678525	-0.174775
N	-0.7310629349	-1.6665240533	 1.1737156921	-0.182487
C	 0.3938420717	-0.677604623	 1.2831451618	-0.220412
C	-1.3305312872	-0.8155726645	 0.0468089785	 0.343734
C	-2.7489495724	-0.3435085911	 0.143468049	-0.520835
H	 1.0863071772	 1.9169733533	-0.068092762	 0.117783
H	-0.4510511365	 1.9752539466	-0.9370122846	 0.112095
H	-0.430589401	 2.0198035912	 0.8345638257	 0.115099
H	 0.1989549316	-0.1520596627	-2.1759476206	 0.096113
H	 1.442384626	-1.0921111122	-1.3207489336	 0.087655
H	-1.2355087952	-2.1830931957	-1.8882564961	 0.062338
H	-1.0874459536	-3.5520295174	 0.2398247871	 0.101724
H	 0.6345272198	-3.1113345286	 0.2318597424	 0.09233
H	 1.3954097966	-1.1228156108	 1.3184462881	 0.091284
H	 0.2572170311	-0.0641051627	 2.1812354394	 0.097316
H	-2.89569565	 0.2773282411	 1.0342126386	 0.12366
H	-3.0271268785	 0.2494908049	-0.7352396452	 0.116003
H	-3.4383329424	-1.1922939507	 0.2122886027	 0.124803
181.4033	190.8882	198.7685	209.5616	240.8903	314.8867	383.7676	408.8704	439.8326	550.442	614.3512	626.0728	736.6848	821.4826	834.1075	841.1129	871.6194	899.1056	927.9218	938.3544	969.9025	986.2842	1030.731	1046.1166	1104.1046	1134.4153	1138.4736	1160.9727	1175.143	1207.3819	1209.1574	1240.4008	1252.5716	1263.9479	1297.3347	1314.7211	1326.6118	1351.984	1407.2736	1412.7415	1478.3514	1479.5704	1484.5789	1490.2081	1493.5453	1494.6329	1509.4929	3014.2382	3017.6564	3023.1607	3025.5314	3031.673	3064.2171	3071.7945	3077.2534	3079.8383	3087.6188	3089.5871	3092.8596	3093.4319
CC12CC3CN(C1)C23C	C[C@@]12C[C@H]3CN(C1)[C@@]23C	
InChI=1S/C8H13N/c1-7-3-6-4-9(5-7)8(6,7)2/h6H,3-5H2,1-2H3	InChI=1S/C8H13N/c1-7-3-6-4-9(5-7)8(6,7)2/h6H,3-5H2,1-2H3/t6-,7+,8+/m0/s1
