12
gdb 25336	3.17563	1.35968	0.95205	6.0632	64.75	-0.2636	-0.1069	0.1567	1109.8567	0.077291	-472.664154	-472.656911	-472.655966	-472.696633	25.628	
O	-0.166784173	 0.0381276304	-0.0028222401	-0.202218
C	-0.0208377284	 1.2263831239	 0.0063332839	 0.114937
C	 1.3368761921	 1.8949963497	-0.0025832606	 0.307161
N	 2.4327116474	 1.2545022612	-0.020051477	-0.308554
C	 3.6664006818	 1.9725697423	-0.0275458561	 0.38331
O	 4.7239151715	 1.3903126296	-0.0442586348	-0.32258
C	 3.5279393648	 3.4346809232	-0.0134106036	-0.245396
C	 2.3123699117	 3.9939202807	 0.0045062657	 0.063636
O	 1.1754307131	 3.2511363913	 0.0105098574	-0.205443
H	-0.8638785185	 1.9466209474	 0.0215804151	 0.11104
H	 4.4198767901	 4.0473011418	-0.0178238824	 0.143567
H	 2.0960414272	 5.0547455084	 0.0158917023	 0.16054
80.9577	127.8468	188.0728	189.2329	409.6119	439.377	486.6285	534.3873	595.7716	670.7675	756.774	776.4325	866.1176	912.9442	977.3805	978.8763	1026.0661	1037.3991	1142.4279	1224.6871	1294.435	1410.2953	1416.5629	1633.1688	1703.9684	1808.3634	1848.1476	2936.1163	3217.3201	3236.6831
O=CC1=NC(=O)C=CO1	O=Cc1nc(=O)cco1	
InChI=1S/C5H3NO3/c7-3-5-6-4(8)1-2-9-5/h1-3H	InChI=1S/C5H3NO3/c7-3-5-6-4(8)1-2-9-5/h1-3H
