21
gdb 57705	3.01633	0.76382	0.71904	2.5193	86.23	-0.2505	-0.0229	0.2276	1649.2591	0.177964	-387.072662	-387.061722	-387.060778	-387.109267	39.374	
C	 0.0716608805	 1.5751418605	 0.102507915	-0.404705
C	 0.0551174914	 0.0310270265	 0.0271214535	 0.051229
C	 0.9064970443	-0.5593092351	 1.174544403	-0.406439
C	-1.4036647853	-0.5165974583	 0.0646219857	-0.202062
C	-2.2158950373	-0.1717682047	 1.3258711274	-0.29986
C	-3.5551019195	-0.8753887105	 1.3127066296	 0.160831
O	-4.6240626236	-0.3291248582	 1.3962947287	-0.236235
C	 0.6392683227	-0.3870827047	-1.2533241042	 0.340114
C	 1.1094327074	-0.7344648114	-2.3040442066	-0.484532
H	 1.092583982	 1.9505627735	-0.0064259202	 0.126317
H	-0.5364692802	 2.0124986547	-0.6944232587	 0.125651
H	-0.3161975631	 1.9212674219	 1.0649679916	 0.117676
H	 0.5403053223	-0.2230912256	 2.1492385835	 0.115734
H	 0.8894676551	-1.6528728839	 1.1537196176	 0.122634
H	 1.9465891087	-0.236707059	 1.0787155869	 0.12838
H	-1.9329455715	-0.1365511617	-0.81613155	 0.120776
H	-1.3585626726	-1.6064596193	-0.0494720644	 0.110318
H	-1.6816504462	-0.5180887663	 2.2213780117	 0.120775
H	-2.3955462588	 0.9012471034	 1.425814544	 0.126491
H	-3.4858225422	-1.9848464538	 1.2120375018	 0.071589
H	 1.5282668858	-1.0381432182	-3.2314960957	 0.19532
53.0993	59.8558	99.2602	134.1228	177.6591	218.0097	252.2708	266.0954	291.8188	350.2649	365.0202	408.3671	518.7339	550.8662	564.9552	631.8073	635.5545	720.4566	768.1575	849.8326	887.483	941.4292	967.2906	1000.8597	1018.9487	1059.2853	1081.3327	1170.3017	1215.7392	1221.2885	1242.7897	1287.9734	1334.0693	1376.9331	1393.9872	1416.9775	1429.8692	1465.5819	1481.9247	1487.5908	1490.4332	1502.9544	1509.5697	1837.5794	2231.0602	2849.857	3022.3621	3033.317	3039.2879	3044.078	3073.7882	3110.212	3114.0261	3118.3534	3118.844	3121.6373	3501.9434
CC(C)(CCC=O)C#C	CC(C)(CCC=O)C#C	
InChI=1S/C8H12O/c1-4-8(2,3)6-5-7-9/h1,7H,5-6H2,2-3H3	InChI=1S/C8H12O/c1-4-8(2,3)6-5-7-9/h1,7H,5-6H2,2-3H3
