23
gdb 120200	3.47819	0.89292	0.80411	0.8374	88.13	-0.2492	0.0902	0.3394	1555.6919	0.205577	-388.224773	-388.215347	-388.214402	-388.259568	35.289	
C	 0.9504779186	 1.4546643461	-0.0412011416	-0.221493
O	 1.0383754477	 0.0587463943	-0.1792934477	-0.233271
C	 0.0665747166	-0.4699902576	-1.0629337279	-0.119989
C	 0.229695251	-1.9778826296	-1.0680073042	 0.05115
C	-0.4971502488	-2.8808199514	-2.1147958905	-0.086136
C	 0.5379148278	-2.4006746251	-3.1751007858	-0.235806
C	 1.3608301174	-2.6842598038	-1.8847080741	-0.059094
C	 0.5335464847	-4.0104845865	-1.7677871096	 0.067419
C	 0.4625976039	-4.828033307	-0.4863988565	-0.447002
H	 1.1051058479	 1.974130302	-1.0010112066	 0.10044
H	-0.0280192487	 1.7667963465	 0.3591149861	 0.100226
H	 1.7317640485	 1.7664464116	 0.6567374809	 0.124482
H	-0.9476108084	-0.2112047274	-0.7082833072	 0.08016
H	 0.1790971273	-0.0172033429	-2.0591305991	 0.085215
H	 0.1444246781	-2.3130569118	-0.0323563458	 0.06947
H	-1.5753326025	-2.9948124251	-2.2497127289	 0.061946
H	 0.7135804848	-3.0765259505	-4.016798237	 0.086923
H	 0.4709693165	-1.3685414353	-3.5184899138	 0.090898
H	 2.436951978	-2.5657346731	-1.748733827	 0.069732
H	 0.7071928132	-4.6857735247	-2.6140138473	 0.059606
H	 0.2905110422	-4.2316677274	 0.4123779715	 0.12246
H	-0.3443407664	-5.5665279903	-0.5525152819	 0.115298
H	 1.3972866605	-5.380796621	-0.339737256	 0.117364
60.2485	84.9933	116.6637	166.5078	230.2193	258.3334	287.9574	324.0398	375.8481	447.5604	553.9015	625.8272	752.1373	772.4685	799.9492	846.101	890.9324	898.8213	989.2702	1011.5611	1018.1716	1026.7629	1042.7034	1053.1047	1082.9793	1119.8108	1136.5792	1148.4428	1156.0209	1177.3262	1186.7086	1192.9891	1200.7485	1227.2181	1242.8008	1248.3945	1265.4598	1274.8186	1384.7157	1409.4502	1426.1264	1446.7373	1480.8637	1485.6552	1495.0248	1500.5621	1503.0003	1521.5209	1536.2714	2940.4296	2963.9113	2999.4195	3004.6529	3027.7631	3035.002	3060.7573	3081.0589	3087.8731	3088.0549	3102.2821	3109.3855	3119.72	3133.3485
COCC1C2CC1C2C	COC[C@H]1[C@H]2C[C@@H]1[C@H]2C	
InChI=1S/C8H14O/c1-5-6-3-7(5)8(6)4-9-2/h5-8H,3-4H2,1-2H3	InChI=1S/C8H14O/c1-5-6-3-7(5)8(6)4-9-2/h5-8H,3-4H2,1-2H3/t5-,6-,7+,8-
