16
gdb 61094	3.77205	0.77173	0.66151	3.8136	75.59	-0.2737	-0.0301	0.2436	1619.0965	0.120421	-437.870033	-437.860196	-437.859252	-437.905804	33.839	
C	 0.2921196534	 1.4678641269	 0.1087041615	-0.374036
C	 0.2119941679	-0.0348636309	-0.2196007674	-0.087867
N	 1.3130341709	-0.7216061752	 0.4624163103	-0.255135
C	 1.0777746787	-1.6751654242	 1.2459186061	 0.14985
O	 2.0607062331	-2.3487249012	 1.9197780182	-0.199216
C	 3.3030073482	-1.772707987	 2.0563269304	 0.181489
O	 4.209569186	-2.3881626652	 2.5198545219	-0.249412
C	-1.1310592888	-0.5638177652	 0.0461538844	 0.312697
C	-2.2280669379	-0.9976637994	 0.279293192	-0.477293
H	 1.2932030974	 1.8379176985	-0.1246412843	 0.131267
H	-0.4445571491	 2.0239769461	-0.4759589319	 0.130825
H	 0.0929791043	 1.6348453182	 1.170494331	 0.130704
H	 0.4142515182	-0.1500282914	-1.2930112561	 0.129975
H	 0.1040633731	-2.1079509149	 1.4790880661	 0.138554
H	 3.3218059852	-0.7297181088	 1.7162347	 0.129618
H	-3.2033678008	-1.3740221463	 0.4692006279	 0.207979
47.979	87.2314	105.8601	131.3732	176.9943	212.007	247.2822	313.8255	328.7672	407.5442	500.9932	551.8394	614.1656	637.2598	669.9325	757.7818	822.5706	950.363	998.9657	1025.9309	1045.6844	1069.5469	1098.6563	1143.5839	1204.8047	1312.561	1340.7471	1389.7436	1399.3378	1402.0843	1486.8029	1495.1019	1743.0188	1875.219	2227.4801	3016.1152	3050.7453	3075.3066	3126.3905	3131.4984	3136.5741	3499.0994
CC(N=COC=O)C#C	C[C@@H](N=COC=O)C#C	
InChI=1S/C6H7NO2/c1-3-6(2)7-4-9-5-8/h1,4-6H,2H3	InChI=1S/C6H7NO2/c1-3-6(2)7-4-9-5-8/h1,4-6H,2H3/t6-/m1/s1
