18
gdb 30955	2.44321	1.3662	0.91851	4.4089	78.44	-0.1781	0.0437	0.2218	1278.4791	0.147769	-435.287759	-435.278419	-435.277475	-435.321957	34.06	
C	 0.0867005442	 1.290991553	-0.4558501929	-0.331975
N	-0.1553444271	 0.2315100431	 0.5323004612	-0.395188
C	-1.2124276268	-0.637556986	 0.2670128547	 0.207045
C	-1.2713825731	-1.9518151764	-0.0017269439	 0.276047
C	-0.2563033305	-3.0086809107	-0.2129833581	-0.499133
O	-2.6190313867	-2.3328287972	-0.0844126626	-0.255896
C	-3.4016016254	-1.2216449486	 0.1305074347	 0.456193
N	-4.666754229	-1.1692793599	 0.1845749145	-0.606574
N	-2.5312066476	-0.1559606071	 0.2787643168	-0.364072
H	 0.8924363391	 1.9343647946	-0.0940253328	 0.128308
H	 0.3528989037	 0.9078478484	-1.4520478899	 0.116811
H	-0.812634192	 1.9029024069	-0.5606090939	 0.139962
H	 0.6898757655	-0.2861109042	 0.7333422203	 0.23825
H	-0.3025529549	-3.7852144688	 0.5606983065	 0.138495
H	-0.3921191365	-3.5051992409	-1.1812761327	 0.140763
H	 0.747980639	-2.5756257643	-0.196465724	 0.119741
H	-5.064739536	-2.0955103933	 0.0523211096	 0.220868
H	-2.8182899859	 0.6707510912	 0.7752719625	 0.270354
76.9714	127.5373	161.7469	167.5949	187.9177	240.5284	260.8712	345.1454	415.2508	423.5618	535.153	616.4724	629.9397	666.2818	717.8738	721.3054	760.3654	838.74	939.4601	989.1599	1033.949	1065.3005	1072.8547	1117.953	1150.9883	1167.9026	1261.6147	1292.0905	1350.1846	1417.1345	1437.5218	1462.5307	1465.6808	1483.2462	1489.1543	1499.0317	1517.6204	1764.9905	1799.3126	2995.1215	3018.3797	3065.2871	3090.7233	3109.3116	3129.3365	3536.1521	3578.6671	3669.3713
CNC1=C(C)OC(=N)N1	CNC1=C(C)O[C@@H]([NH])N1	
InChI=1S/C5H9N3O/c1-3-4(7-2)8-5(6)9-3/h7H,1-2H3,(H2,6,8)	InChI=1S/C5H10N3O/c1-3-4(7-2)8-5(6)9-3/h5-8H,1-2H3/t5-/m0/s1
