20
gdb 122253	2.82015	0.85726	0.72539	3.555	80.86	-0.2604	0.0334	0.2938	1611.4056	0.169544	-403.142003	-403.132013	-403.131069	-403.177833	35.294	
C	 0.0949540743	 1.3362973591	 0.2055107157	-0.231076
O	-0.0915201354	-0.0390388013	-0.0327149605	-0.230499
C	 0.7255784696	-0.5322461696	-1.0689724799	-0.055127
C	 0.4036492865	-2.0126086615	-1.2518153737	-0.293138
C	 1.2474612003	-2.6799900049	-2.3297340303	 0.180634
C	 2.6408240701	-3.1877964332	-1.9768896568	-0.285007
C	 1.538023586	-4.1706807119	-2.2276015315	-0.303025
C	 1.0731995667	-2.1523171788	-3.6616039819	 0.245152
N	 0.9257313875	-1.7195316338	-4.7248089254	-0.353253
H	 1.129351903	 1.5617460833	 0.5102456695	 0.10406
H	-0.1387735396	 1.9401455828	-0.6851813758	 0.109782
H	-0.5814485195	 1.6223931508	 1.0144354394	 0.128694
H	 0.5421661258	 0.0178570857	-2.0067940843	 0.110124
H	 1.7931059492	-0.4002421355	-0.8204668702	 0.086975
H	 0.5724593508	-2.5308125887	-0.3019971357	 0.112373
H	-0.6603752981	-2.1176893565	-1.489264458	 0.12692
H	 3.4195774968	-3.0875765394	-2.7230392341	 0.141626
H	 2.9655197722	-3.0216814619	-0.955643874	 0.13089
H	 1.0981388763	-4.6875634158	-1.3821517834	 0.131653
H	 1.5594202375	-4.7413392188	-3.1481089192	 0.142241
57.18	80.065	108.2379	123.3276	179.3627	224.5119	231.7669	295.1965	311.7543	381.5815	464.7125	572.5535	593.7483	702.8598	790.5454	801.1403	882.5973	929.773	954.4087	970.7599	1002.7179	1061.7669	1078.306	1090.3258	1103.3552	1164.5034	1180.7372	1195.0033	1223.8936	1232.3129	1281.762	1297.4332	1329.1845	1347.4047	1429.7269	1466.7131	1481.8565	1485.2989	1485.6768	1499.2928	1505.7007	1533.3316	2346.7006	2950.5551	2972.8417	2987.1137	3016.9734	3046.5512	3092.2489	3116.0606	3142.8426	3146.292	3228.4237	3242.0716
COCCC1(CC1)C#N	COCCC1(CC1)C#N	
InChI=1S/C7H11NO/c1-9-5-4-7(6-8)2-3-7/h2-5H2,1H3	InChI=1S/C7H11NO/c1-9-5-4-7(6-8)2-3-7/h2-5H2,1H3
