15
gdb 65759	2.6308	1.24562	1.10811	4.2604	62.29	-0.2832	-0.0224	0.2608	1128.5099	0.110304	-494.939984	-494.931306	-494.930362	-494.973832	30.289	
C	-0.0195290984	 1.6651269044	-0.0153443404	-0.447783
C	-0.0368180219	 0.1460763198	-0.0166024438	 0.181922
C	 0.7548153595	-0.5694084225	-1.1279460758	-0.114854
O	 1.703416777	-1.0854895386	-0.1346451025	-0.233693
C	 1.0057070168	-0.5416186907	 0.9044405284	 0.430766
O	 1.2171757573	-0.6318504561	 2.0703732801	-0.319314
O	-1.3657589749	-0.365950235	 0.0783913993	-0.236643
C	-1.9727404874	-0.360594781	 1.2972929755	 0.150558
O	-3.1082147983	-0.7000822306	 1.4247652302	-0.260465
H	 0.9942393248	 2.0431672586	-0.1750482077	 0.142401
H	-0.6690049014	 2.0418974685	-0.8106913149	 0.148973
H	-0.3793344805	 2.052657985	 0.9418901049	 0.148356
H	 0.2143346213	-1.3826484234	-1.6124775292	 0.150871
H	 1.2623587544	 0.0676919383	-1.8532322411	 0.135049
H	-1.3090069284	-0.0384353067	 2.1157148169	 0.123854
85.0897	118.2543	137.9453	165.5413	224.4188	235.8465	316.0399	346.2072	407.8076	514.1128	601.682	728.3556	775.0547	789.9878	913.92	945.1506	964.5366	986.1761	1043.2833	1113.0712	1139.5034	1154.6452	1195.1548	1211.0969	1250.0089	1359.6045	1412.045	1432.8851	1483.7527	1489.6452	1510.2977	1866.5709	1933.8877	3020.7659	3045.3344	3089.4343	3124.0528	3126.383	3160.465
CC1(COC1=O)OC=O	C[C@]1(COC1=O)OC=O	
InChI=1S/C5H6O4/c1-5(9-3-6)2-8-4(5)7/h3H,2H2,1H3	InChI=1S/C5H6O4/c1-5(9-3-6)2-8-4(5)7/h3H,2H2,1H3/t5-/m1/s1
