17
gdb 10637	2.58793	1.89745	1.37048	1.1934	71.75	-0.2364	0.034	0.2704	960.551	0.13965	-363.785431	-363.776585	-363.775641	-363.818521	32.529	
C	-0.2001788555	 1.4656780954	 0.0494307672	-0.316105
N	 0.0383598541	 0.0283768795	 0.0868651957	-0.097355
C	 1.3715817361	-0.4665891809	-0.1896169693	-0.278398
C	 0.8088248494	-0.5491790352	 1.2015732168	 0.072985
C	 1.4073452926	 0.3202246106	 2.3026781237	-0.125975
O	 0.4409820038	 0.7085999742	 3.2604157774	-0.418782
C	 0.2910022644	-1.7999089941	 1.7108100602	 0.285418
C	-0.1184275909	-2.8164581898	 2.2075259858	-0.426862
H	 0.6933476586	 2.082647564	 0.2275008013	 0.102794
H	-0.5900621824	 1.7202852891	-0.9409200187	 0.126552
H	-0.9516301464	 1.7239428189	 0.7996534526	 0.143691
H	 1.4401973609	-1.3613623797	-0.8018726475	 0.124303
H	 2.1719481559	 0.2590405437	-0.3419526051	 0.10891
H	 2.2398384938	-0.2310590054	 2.7660438686	 0.101792
H	 1.8160470889	 1.2433488524	 1.8861482146	 0.109173
H	 0.0298685789	-0.0988374972	 3.5922468258	 0.289816
H	-0.487817372	-3.7260409456	 2.6128416607	 0.198043
86.856	132.7222	146.0151	172.704	243.5681	307.3764	365.1872	382.9006	402.4473	483.2065	544.2301	566.6344	617.5565	660.1341	708.705	807.1183	876.464	910.3228	1013.2364	1054.8388	1075.7964	1122.6841	1133.0461	1147.0961	1197.9054	1208.266	1266.9657	1364.0118	1373.2835	1426.5334	1448.8118	1483.1931	1490.9038	1503.9026	1518.2048	2229.86	2987.1305	2991.5137	3075.3107	3078.7803	3105.9669	3123.3507	3178.8345	3500.574	3785.0405
CN1CC1(CO)C#C	CN1C[C@]1(CO)C#C	
InChI=1S/C6H9NO/c1-3-6(5-8)4-7(6)2/h1,8H,4-5H2,2H3	InChI=1S/C6H9NO/c1-3-6(5-8)4-7(6)2/h1,8H,4-5H2,2H3/t6-,7?/m0/s1
