16
gdb 34238	3.35916	1.58786	1.36759	4.4752	72.73	-0.2668	0.0135	0.2803	947.5176	0.126873	-400.721089	-400.714627	-400.713682	-400.751889	26.296	
N	 0.027598767	-1.1703507391	 0.0582584061	-0.340421
C	-0.0157110524	-0.0144480231	 0.0390925724	 0.166498
C	-0.0818010045	 1.4205833007	 0.0296377571	 0.194513
C	-1.1405165156	 2.2570109596	 0.7751752132	-0.29755
C	-0.6554299063	 3.408938679	-0.14098969	-0.106902
C	 0.7763282736	 3.641992643	 0.3874914742	-0.213769
C	 1.27448817	 2.2612729785	-0.0707801553	 0.028042
O	 1.117283562	 2.3662174192	-1.5151315856	-0.2823
C	-0.2767925919	 2.3032379294	-1.2402545993	 0.076759
H	-2.1436208778	 1.9016428714	 0.527192673	 0.12425
H	-1.0446810552	 2.384908569	 1.8558405656	 0.115677
H	-1.2845442627	 4.2657519934	-0.3669566587	 0.08709
H	 1.3304446656	 4.42837711	-0.1277061895	 0.121609
H	 0.8069905671	 3.8082936581	 1.4669305375	 0.109181
H	 2.2364486056	 1.8642139715	 0.2447385827	 0.106559
H	-0.9289039344	 2.0851395592	-2.0829727234	 0.110763
148.596	155.5275	375.8323	446.2908	463.2317	529.4632	544.6401	586.0004	687.4036	723.5124	793.1275	852.0505	879.8478	917.8523	922.895	928.1152	968.5899	997.8177	1007.3657	1044.3916	1064.3781	1113.293	1126.5461	1156.3431	1179.9491	1207.1078	1227.0248	1241.6684	1245.6579	1295.8196	1320.063	1334.2079	1479.7458	1505.7027	2349.7928	3066.8367	3074.6337	3125.393	3133.427	3152.0397	3157.5538	3161.0542
N#CC12CC3CC1OC23	N#C[C@@]12C[C@H]3C[C@@H]1O[C@@H]23	
InChI=1S/C7H7NO/c8-3-7-2-4-1-5(7)9-6(4)7/h4-6H,1-2H2	InChI=1S/C7H7NO/c8-3-7-2-4-1-5(7)9-6(4)7/h4-6H,1-2H2/t4-,5+,6-,7+/m1/s1
