17
gdb 91314	2.84241	1.54471	1.18937	4.0204	72.19	-0.233	0.0272	0.2603	1039.9417	0.136852	-417.960902	-417.952863	-417.951919	-417.993812	30.058	
O	 0.1237845023	 1.2322647836	-0.5216936239	-0.412168
C	 0.0889412429	-0.0993753438	-0.0737368579	 0.089963
C	 0.1817998883	-0.3140277524	 1.4670457043	-0.209208
N	-1.2627369622	-0.6965985523	 1.5474336632	-0.130768
C	-2.1664977556	 0.4987492776	 1.6312248071	-0.19494
C	-2.5571320721	 0.3334620594	 0.1310845327	-0.143897
C	-2.6970217813	 1.5002993878	-0.7223896539	 0.2921
N	-2.8831471846	 2.4267238256	-1.3880810843	-0.342668
C	-1.3591521148	-0.6456631153	 0.0338664284	-0.015509
H	 1.0357345373	 1.5400225534	-0.5190800098	 0.29315
H	 0.7540644354	-0.7410851633	-0.6669034215	 0.079827
H	 0.8251426967	-1.1467838466	 1.7677896177	 0.110891
H	 0.4493488247	 0.5761634564	 2.0454840652	 0.109785
H	-2.9837741449	 0.3804126675	 2.3462498078	 0.120511
H	-1.6390157857	 1.4356659053	 1.8331133675	 0.126074
H	-3.4797797238	-0.2482899207	 0.0478806904	 0.137191
H	-1.5463071325	-1.5820024623	-0.4966638732	 0.089666
62.2109	130.4006	185.2328	227.0304	258.779	354.3175	426.8947	441.5973	522.2395	580.3607	668.9589	745.3389	780.239	839.5624	868.1664	948.4465	954.3382	994.5429	1022.818	1036.6958	1061.1586	1122.1996	1152.2253	1170.6995	1186.8093	1210.245	1221.4321	1245.3352	1288.5014	1300.0077	1310.7277	1345.1702	1356.824	1427.8082	1480.3942	1506.2012	2357.96	3007.1864	3040.2166	3053.3817	3067.5539	3083.3806	3096.5724	3111.1409	3819.7831
OC1CN2CC(C#N)C12	O[C@H]1CN2C[C@@H](C#N)[C@@H]12	
InChI=1S/C6H8N2O/c7-1-4-2-8-3-5(9)6(4)8/h4-6,9H,2-3H2	InChI=1S/C6H8N2O/c7-1-4-2-8-3-5(9)6(4)8/h4-6,9H,2-3H2/t4-,5+,6+/m1/s1
