20
gdb 113418	4.58355	0.82345	0.77343	2.6727	80.84	-0.2406	-0.0244	0.2162	1525.816	0.1691	-403.135514	-403.126287	-403.125343	-403.170265	34.422	
C	-0.0589220168	 1.5379550646	-0.5813502246	-0.375231
C	-0.0181491714	 0.2388259035	 0.2308516437	-0.182553
C	-1.3682974322	-0.4365817849	 0.2996111415	-0.0765
N	-1.7682666717	-1.2276709092	-0.8877451011	-0.379696
C	-1.541381647	-1.9031710519	 0.3868623431	 0.330406
C	-0.476486691	-2.9978873325	 0.5869555078	-0.408993
C	-1.4842127957	-3.7140789525	 1.5052455503	 0.406195
O	-1.4315659549	-4.6875455632	 2.1969746386	-0.286774
C	-2.5866143186	-2.6712020997	 1.2194225901	-0.436053
H	 0.9293822203	 2.0041761255	-0.6338262228	 0.113467
H	-0.3967927116	 1.3385313293	-1.6028002371	 0.131445
H	-0.746724102	 2.2647319562	-0.1346060116	 0.110858
H	 0.6990702721	-0.455902527	-0.2199553076	 0.106316
H	 0.3327180291	 0.443161943	 1.2509836376	 0.096233
H	-2.1505400416	 0.1589238414	 0.7729597017	 0.081079
H	-2.7656155973	-1.1309838961	-1.064208927	 0.229392
H	-0.2373394727	-3.5629379527	-0.3199261488	 0.140854
H	 0.4585375767	-2.7047321168	 1.0737243351	 0.133479
H	-2.9957211856	-2.1715823656	 2.1028838216	 0.133366
H	-3.4168129181	-3.0900747913	 0.6383107896	 0.132712
39.6099	81.8823	127.3895	183.0651	254.4451	279.7099	330.1165	408.1835	429.8353	463.4978	503.0987	569.1538	663.796	719.098	767.3822	817.0083	865.8187	914.0669	932.6048	963.361	984.6539	1014.2548	1058.7571	1069.9616	1098.6946	1102.3012	1121.1452	1183.8006	1184.6435	1211.2449	1232.8863	1277.0911	1304.3941	1335.2682	1369.5143	1408.1092	1420.4006	1437.3399	1476.7865	1488.21	1499.373	1509.6118	1899.9179	3023.5556	3033.9141	3039.6955	3054.1836	3067.0846	3094.6623	3096.4385	3103.6939	3106.1127	3114.6753	3490.7604
CCC1NC11CC(=O)C1	CC[C@H]1NC21CC(=O)C2	
InChI=1S/C7H11NO/c1-2-6-7(8-6)3-5(9)4-7/h6,8H,2-4H2,1H3	InChI=1S/C7H11NO/c1-2-6-7(8-6)3-5(9)4-7/h6,8H,2-4H2,1H3/t6-/m1/s1
