19
gdb 91846	3.5281	1.17796	1.09434	2.0536	82.31	-0.2334	0.0536	0.2869	1169.865	0.159461	-385.859098	-385.850756	-385.849812	-385.891511	33.406	
O	-0.7099414797	 1.140899839	 0.9630412582	-0.425601
C	-0.0152741503	 0.1880553763	 0.1569178057	 0.085335
C	 0.8954115509	-0.7477362348	 0.9903169857	-0.247622
C	 0.0294492474	-1.9345089555	 1.3777592236	-0.077434
C	-1.3426454913	-1.665130746	 1.9278872056	-0.327744
C	-1.1815373799	-1.9562802486	 0.4416621086	 0.194193
C	-1.067787769	-0.7381671166	-0.4808174178	-0.273649
C	-1.7054093161	-3.1737273928	-0.0998212562	 0.164729
C	-2.151299272	-4.1850814485	-0.5766725488	-0.401139
H	-0.0524253518	 1.6705354498	 1.4255282397	 0.281158
H	 0.5624298798	 0.7163610134	-0.6136438192	 0.069298
H	 1.7362597004	-1.0903385652	 0.375629952	 0.104594
H	 1.3202907021	-0.218964689	 1.8526116231	 0.091966
H	 0.5143508995	-2.8662567491	 1.6450615848	 0.095338
H	-1.7976575267	-2.4518401483	 2.5184583326	 0.118075
H	-1.6054040955	-0.6532114891	 2.2112833128	 0.137436
H	-2.0134752888	-0.2055576746	-0.6122286626	 0.120767
H	-0.7284281576	-1.0701627214	-1.4668007356	 0.109196
H	-2.5460291415	-5.0794664789	-0.9899699922	 0.181103
121.1455	142.3221	186.8183	276.4994	317.7036	381.2672	396.1285	418.1484	494.8086	532.7531	555.2017	575.9308	643.0933	673.3259	757.2234	815.9018	829.5285	885.8218	915.5613	938.957	963.4785	986.1773	1029.7102	1069.2579	1078.6796	1091.1404	1113.6118	1185.4912	1202.1735	1246.0792	1251.3022	1271.6743	1312.8422	1333.3103	1359.9079	1404.1529	1421.8464	1474.5491	1477.0222	1492.3495	2232.6183	3000.4385	3027.1841	3058.5087	3065.3551	3106.0478	3143.4453	3178.5988	3239.5042	3505.1442	3815.4243
OC1CC2CC2(C1)C#C	O[C@H]1C[C@H]2C[C@]2(C1)C#C	
InChI=1S/C8H10O/c1-2-8-4-6(8)3-7(9)5-8/h1,6-7,9H,3-5H2	InChI=1S/C8H10O/c1-2-8-4-6(8)3-7(9)5-8/h1,6-7,9H,3-5H2/t6-,7-,8-/m0/s1
