19
gdb 95193	2.54189	1.66266	1.14697	3.031	74.52	-0.2485	-0.0313	0.2172	1083.0062	0.160476	-423.04026	-423.032301	-423.031357	-423.07312	31.259	
O	 0.3979418474	 0.7037941664	 0.9878055391	-0.440013
C	-0.0209376136	-0.2868512683	 0.0834071992	 0.061006
C	-1.5678961641	-0.3785803071	 0.036789412	-0.214479
C	-2.1370112757	 0.1991477106	-1.269896765	-0.248429
C	-1.5765339092	-0.5648490222	-2.4636276077	-0.009033
C	-0.7571625091	 0.1550263063	-3.5060311723	-0.296887
C	-0.0693068146	-0.6896684945	-2.4608524585	-0.119677
C	 0.5992639412	-0.0169854937	-1.2960497964	 0.333178
O	 1.5592310059	 0.7185224226	-1.3838846407	-0.335422
H	 1.1768523156	 1.1101248672	 0.5754257858	 0.289913
H	 0.3796076726	-1.2750408984	 0.3836554632	 0.087974
H	-1.8781242468	-1.4246630844	 0.1325801649	 0.097494
H	-1.9504914629	 0.1549883364	 0.9109736705	 0.121528
H	-3.2306155518	 0.1657644877	-1.268091576	 0.104683
H	-1.8594196565	 1.2589183329	-1.3392677658	 0.113277
H	-2.1482027009	-1.4298096674	-2.7860866937	 0.089998
H	-0.7609903925	-0.224606984	-4.5215469108	 0.120198
H	-0.6644993654	 1.2337079643	-3.4327509732	 0.128831
H	 0.3981951101	-1.6158870146	-2.7820274745	 0.115859
48.2059	123.8759	218.133	314.2889	359.5484	396.0896	433.6879	479.6008	493.4625	561.4802	578.1027	657.5568	780.3565	814.9183	835.7177	872.2385	927.8501	934.2148	952.5858	996.8346	1059.4472	1074.5809	1083.2835	1085.829	1114.3485	1118.8162	1167.9343	1200.0414	1206.9493	1245.891	1284.7898	1328.0423	1356.2464	1364.8552	1374.3553	1401.1132	1424.7396	1479.1058	1486.3687	1495.8223	1793.1206	2906.2459	3025.67	3047.4689	3082.0081	3102.4563	3134.7177	3149.2155	3157.5382	3221.5836	3689.3747
OC1CCC2CC2C1=O	O[C@H]1CC[C@H]2C[C@H]2C1=O	
InChI=1S/C7H10O2/c8-6-2-1-4-3-5(4)7(6)9/h4-6,8H,1-3H2	InChI=1S/C7H10O2/c8-6-2-1-4-3-5(4)7(6)9/h4-6,8H,1-3H2/t4-,5+,6-/m0/s1
