21
gdb 97975	6.50456	0.49139	0.48456	0.8774	90.32	-0.2407	0.0435	0.2842	2359.9087	0.180006	-387.037958	-387.027411	-387.026467	-387.076438	36.72	
C	-0.5361411535	 1.3181557447	-0.3500975046	-0.364714
C	 0.2900922346	 0.0958155877	 0.0893523496	-0.316183
C	 1.036021745	-0.5191125077	-1.0030853947	 0.149299
C	 1.6372742975	-1.0148030883	-1.9207573451	-0.015669
C	 2.3891483569	-1.6044849252	-3.0187512406	-0.210217
O	 1.625834805	-2.6353199879	-3.6358715696	-0.248486
C	 2.3068111541	-3.2380149895	-4.6913207032	 0.163569
C	 3.2911188669	-4.3439425551	-4.398284043	-0.289023
C	 1.9319882882	-4.6490308294	-4.9994470415	-0.288289
H	 0.1107392155	 2.0950530556	-0.7666353366	 0.126932
H	-1.2636064286	 1.0388033561	-1.1168695248	 0.130832
H	-1.07693125	 1.7399840074	 0.5023997795	 0.113482
H	 0.9881102903	 0.3895537777	 0.8839993591	 0.128828
H	-0.3736393102	-0.6548442971	 0.5373211047	 0.132481
H	 2.6425213407	-0.8283977792	-3.7608375017	 0.112795
H	 3.3446407178	-2.0116863085	-2.6508843797	 0.116984
H	 2.5304695278	-2.5673166009	-5.5229337675	 0.081608
H	 4.174419945	-4.438881373	-5.0202782636	 0.112045
H	 3.4345131009	-4.6080373119	-3.3563928874	 0.121231
H	 1.1953624277	-5.1027039443	-4.3465696394	 0.128609
H	 1.8722498485	-4.9536855112	-6.0380504398	 0.113886
11.4803	40.1919	78.1384	106.1279	140.0206	195.5921	239.5912	295.1846	326.7352	388.1317	445.9843	496.2186	531.3736	742.5286	770.8914	783.4861	818.6184	844.0008	952.1358	969.9472	990.2359	1030.2429	1045.7793	1071.4836	1074.4444	1081.6689	1103.4521	1127.3376	1172.6183	1193.7161	1202.9317	1239.5663	1252.6794	1286.5642	1351.1273	1369.308	1408.7932	1430.3337	1453.0673	1472.1092	1494.7484	1496.6233	1503.6993	1505.4547	2372.8929	2957.8024	2983.5398	3019.7868	3043.777	3047.0897	3082.4182	3116.8375	3123.8841	3134.355	3142.39	3219.4768	3234.9451
CCC#CCOC1CC1	CCC#CCOC1CC1	
InChI=1S/C8H12O/c1-2-3-4-7-9-8-5-6-8/h8H,2,5-7H2,1H3	InChI=1S/C8H12O/c1-2-3-4-7-9-8-5-6-8/h8H,2,5-7H2,1H3
