14
gdb 10670	2.8228	2.14951	1.34779	0.7408	63.25	-0.2702	0.005	0.2752	877.6767	0.107332	-378.764338	-378.756479	-378.755535	-378.796616	28.597	
N	-0.0002830744	 1.255293807	 0.3783274272	-0.564519
C	-0.0035404263	 0.0038235387	-0.1397990194	 0.399353
O	 0.9636120583	-0.5156801098	-0.664125587	-0.372798
C	-1.317941735	-0.7515647224	-0.0334192441	 0.064938
C	-1.6073679124	-1.7241567665	-1.1819990634	-0.27645
C	-1.1875283391	-2.2695174355	 0.1333192126	-0.276443
C	-2.4241273733	-0.0876575668	 0.5950013492	 0.223899
N	-3.283053825	 0.493643146	 1.1103031546	-0.359119
H	 0.8528184871	 1.7867653964	 0.3263590134	 0.269956
H	-0.8129076932	 1.6646321983	 0.8075690597	 0.284184
H	-2.6426064039	-1.8208402597	-1.4850780217	 0.143628
H	-0.8704054743	-1.7003504225	-1.9752857471	 0.159875
H	-0.1660060404	-2.6155848226	 0.231828866	 0.159868
H	-1.9255037181	-2.7523690306	 0.76195084	 0.143628
65.9158	154.4114	215.845	263.8227	266.3531	270.8058	426.8141	501.7519	543.4938	570.5054	607.9092	666.4713	761.1857	793.9635	873.4726	892.85	990.1556	992.9646	1081.4094	1102.6812	1111.8236	1210.1603	1231.4602	1309.3252	1377.5806	1446.8034	1477.9674	1621.4626	1793.7048	2339.9299	3153.8631	3154.41	3247.7612	3260.4745	3600.4577	3733.5357
NC(=O)C1(CC1)C#N	NC(=O)C1(CC1)C#N	
InChI=1S/C5H6N2O/c6-3-5(1-2-5)4(7)8/h1-2H2,(H2,7,8)	InChI=1S/C5H6N2O/c6-3-5(1-2-5)4(7)8/h1-2H2,(H2,7,8)
