19
gdb 105925	3.27955	1.63418	1.42371	1.	77.87	-0.2271	0.0921	0.3191	980.3116	0.159889	-385.800088	-385.792845	-385.791901	-385.831718	29.287	
C	 0.0068965438	 1.2917763029	 0.2314513013	-0.26015
O	-0.1151468653	-0.0454249633	-0.2269499711	-0.290601
C	-1.3840613459	-0.5539912076	-0.1249022544	 0.466508
C	-2.022998117	-1.0235289552	 1.1940356635	-0.154422
C	-1.7577144212	-1.9954227736	 0.0490723528	-0.191714
C	-3.1680863428	-1.5986765657	-0.4809672846	-0.044946
C	-3.5192524097	-0.8348195259	 0.8548191415	-0.050476
C	-3.6471748704	 0.4929356395	 0.0646006424	-0.250931
C	-2.6583769746	-0.1709464482	-0.9263697117	-0.138672
H	 1.059040832	 1.5673106193	 0.1319904567	 0.126983
H	-0.5994163238	 1.9831560381	-0.3697779222	 0.115591
H	-0.2961220262	 1.3839837973	 1.283593894	 0.11043
H	-1.5079940982	-0.9465050561	 2.1426466716	 0.085315
H	-1.1672682577	-2.9004902858	 0.0081778821	 0.091986
H	-3.8582727455	-2.2089332	-1.0576477282	 0.069826
H	-4.2712481999	-1.168471456	 1.5696560385	 0.063679
H	-4.6444590401	 0.6032173714	-0.3736847903	 0.096156
H	-3.3538238426	 1.4267645431	 0.5557814147	 0.087735
H	-2.5485895448	 0.1345099355	-1.9663529968	 0.067705
97.0765	165.0885	174.2923	348.6918	387.7043	428.1553	536.7706	631.4568	728.9598	741.2522	774.1837	804.8439	829.3281	852.2644	868.2783	895.0911	926.8172	961.1767	972.7856	991.8506	1000.2953	1041.0312	1059.6525	1068.9114	1088.2058	1129.7261	1160.8088	1167.1975	1178.8314	1187.304	1202.5356	1221.8584	1244.1263	1261.2321	1280.0846	1301.7042	1412.3599	1483.8941	1487.3942	1493.637	1506.5345	2994.8958	3036.9674	3049.6374	3093.0495	3112.6332	3122.597	3122.658	3148.4064	3198.6935	3210.4268
COC12C3C1C1C3CC21	CO[C@]12[C@@H]3[C@H]1[C@H]1[C@@H]3C[C@@H]21	
InChI=1S/C8H10O/c1-9-8-4-2-3-5(4)7(8)6(3)8/h3-7H,2H2,1H3	InChI=1S/C8H10O/c1-9-8-4-2-3-5(4)7(8)6(3)8/h3-7H,2H2,1H3/t3-,4+,5-,6-,7+,8+/m0/s1
