18
gdb 49651	4.27366	1.34385	1.27605	3.8694	76.86	-0.2367	0.0174	0.2541	1022.2125	0.150497	-401.930099	-401.923411	-401.922467	-401.961306	27.14	
O	 0.1021766644	 0.0103011532	-0.4422951477	-0.325862
C	 0.0710186095	 1.1915868704	-0.170253282	 0.132784
N	 1.1191229461	 1.9043462629	 0.3324467085	-0.035757
C	 2.5697738359	 1.6151900129	 0.2064884551	-0.030278
C	 2.824696757	 1.9800888675	-1.2768449993	-0.214778
C	 2.4440808489	 3.467990512	-1.1001149611	-0.069769
C	 3.5520854047	 3.9465229441	-0.1260308754	-0.24065
C	 2.8412657555	 3.030984333	 0.881102301	-0.045484
C	 1.4816535715	 3.3103545156	 0.1849368839	-0.018311
H	-0.8479993625	 1.8103028588	-0.2432437445	 0.069126
H	 2.9333816294	 0.6745216492	 0.6109874782	 0.099375
H	 3.8635823289	 1.8556393017	-1.5931730581	 0.102146
H	 2.1760028855	 1.4059504721	-1.9407852198	 0.124136
H	 2.1549408598	 4.0435139802	-1.9774615698	 0.073038
H	 4.5910717884	 3.7465811799	-0.4020931437	 0.100102
H	 3.4427984762	 4.9954683753	 0.1640010078	 0.104191
H	 2.9735830586	 3.0592610714	 1.9606733314	 0.083107
H	 0.7737186021	 4.0942899497	 0.4463149155	 0.092883
94.3126	169.8916	286.4388	397.261	461.6079	503.2642	566.3539	701.8465	739.347	773.5948	777.0753	826.2423	843.6487	912.0397	924.5647	954.028	969.8184	978.7429	1004.433	1033.6415	1042.0889	1072.0291	1089.3522	1127.3662	1153.0947	1164.516	1192.8913	1214.3927	1226.5093	1242.5455	1252.673	1279.8453	1301.7042	1318.3927	1385.948	1428.4794	1491.5738	1513.7974	1788.8252	2914.1303	3054.0341	3070.9763	3107.757	3125.952	3134.4382	3138.2726	3147.5909	3163.1106
O=CN1C2CC3CC2C13	O=CN1[C@H]2C[C@@H]3C[C@H]2[C@H]13	
InChI=1S/C7H9NO/c9-3-8-6-2-4-1-5(6)7(4)8/h3-7H,1-2H2	InChI=1S/C7H9NO/c9-3-8-6-2-4-1-5(6)7(4)8/h3-7H,1-2H2/t4-,5+,6-,7+/m0/s1
