20
gdb 87405	2.32594	1.50773	1.07473	1.4681	76.28	-0.2	0.0674	0.2674	1170.8036	0.168981	-440.225263	-440.215766	-440.214822	-440.259282	35.842	
C	-0.1805241121	 1.5328266414	-0.1424881076	-0.315292
N	-0.0814769344	 0.1025364208	 0.0668208684	-0.124757
C	-1.2984471386	-0.6515564234	 0.4303593244	-0.209439
C	-0.4373549591	-1.5588092685	 1.3508956908	 0.058263
O	-0.12004895	-2.8412882119	 0.8658654404	-0.432029
C	 0.6517258794	-0.4889877631	 1.1841440522	 0.318205
C	 2.1374594363	-0.6957837174	 1.2928550989	-0.39949
C	 1.4045222549	 0.1690980324	 2.3042451248	 0.007836
O	 1.5724621043	 1.5571572762	 2.2585239016	-0.421149
H	 0.8127329774	 1.9599761258	-0.2960581603	 0.122859
H	-0.777085479	 1.7141523078	-1.0436698333	 0.109553
H	-0.6489559158	 2.0677147727	 0.7002031566	 0.105206
H	-2.0352261499	-0.0571887612	 0.9937098252	 0.089238
H	-1.801469204	-1.1475934184	-0.4075662419	 0.096559
H	-0.8155783115	-1.7036357125	 2.3643340552	 0.093637
H	 0.2847604621	-2.7296805308	-0.0019649433	 0.288698
H	 2.503725237	-1.674410123	 1.5877458094	 0.120239
H	 2.7552188361	-0.1615319767	 0.5767687391	 0.115119
H	 1.2565700162	-0.238495349	 3.3064833446	 0.087513
H	 2.4667224106	 1.7560520689	 2.5561777548	 0.289232
63.6485	136.8502	174.3348	221.2789	249.507	269.445	291.3522	320.275	337.7172	373.8489	451.656	462.9302	579.352	650.9159	690.8567	833.3035	853.4794	876.4913	930.4771	967.5015	1001.59	1016.109	1037.0643	1094.1379	1113.2842	1128.3619	1162.3937	1170.946	1191.8641	1204.7766	1231.1692	1259.7846	1293.8093	1300.8459	1320.513	1350.4126	1414.8972	1440.4245	1454.3507	1478.8746	1480.4127	1499.1213	1516.634	2967.0258	2976.2784	3054.2235	3059.6517	3072.115	3101.0039	3117.5509	3121.1119	3210.6152	3797.1081	3800.5745
CN1CC(O)C11CC1O	CN1C[C@@H](O)[C@]21C[C@H]2O	
InChI=1S/C6H11NO2/c1-7-3-5(9)6(7)2-4(6)8/h4-5,8-9H,2-3H2,1H3	InChI=1S/C6H11NO2/c1-7-3-5(9)6(7)2-4(6)8/h4-5,8-9H,2-3H2,1H3/t4-,5-,6+/m1/s1
