17
gdb 71068	2.41448	1.75775	1.5675	2.135	75.58	-0.2109	-0.0406	0.1703	945.4123	0.134902	-421.708973	-421.701218	-421.700274	-421.740517	31.173	
O	-0.220941471	 1.2592784041	-0.172088529	-0.452613
C	-0.052013327	-0.1107103662	-0.1132232984	 0.277059
C	 0.6284728303	-0.9454547612	-1.26949804	-0.328744
C	-0.1077944465	-2.0982265802	-0.5739477604	-0.027862
C	 0.5667503195	-2.7875749181	 0.3691709888	-0.089482
C	 0.2888854899	-2.1914955003	 1.7478525979	-0.271383
C	-0.3523050069	-0.8635224114	 1.3036362983	-0.155127
C	-1.1293394883	-1.1253698249	 0.0777810906	 0.318667
O	-2.5012588084	-1.1131258692	-0.0379643014	-0.460137
H	 0.5853142631	 1.6811289913	 0.1449390468	 0.288691
H	 0.2303424951	-0.5897939861	-2.2272290314	 0.105848
H	 1.7189318531	-1.0209751213	-1.3190105173	 0.097191
H	 1.5143032057	-3.2824164133	 0.1712944553	 0.098141
H	-0.3760313283	-2.747451512	 2.4248531467	 0.115981
H	 1.2482971475	-2.0816116447	 2.2693665949	 0.106914
H	-0.7381192829	-0.1480658103	 2.0271919891	 0.088597
H	-2.7297000749	-0.9906717863	-0.9665172207	 0.288261
170.7949	223.459	268.8207	270.3623	301.2148	317.3513	377.6184	452.8586	519.1642	544.1599	618.5643	655.5611	714.7722	794.4567	824.8458	858.2798	910.678	931.4118	963.9244	984.6365	1019.7032	1034.4216	1055.0932	1089.2388	1118.8135	1170.48	1187.5044	1232.5392	1250.4697	1273.4561	1292.1971	1312.2144	1370.0888	1472.5213	1492.8242	1512.3681	1592.0547	2997.1115	3025.0778	3041.9673	3090.2808	3141.3515	3156.1412	3791.5761	3792.5973
OC12CC3=CCC1C23O	O[C@@]12C[C]3[CH]C[C@@H]1[C@@]23O	
InChI=1S/C7H8O2/c8-6-3-4-1-2-5(6)7(4,6)9/h1,5,8-9H,2-3H2	InChI=1S/C7H8O2/c8-6-3-4-1-2-5(6)7(4,6)9/h1,5,8-9H,2-3H2/t5-,6-,7+/m0/s1
