23
gdb 116213	2.15089	1.53306	1.02349	1.0842	86.05	-0.2429	0.0799	0.3228	1266.9207	0.206371	-388.283807	-388.27462	-388.273676	-388.319206	35.102	
C	 0.1374589749	 1.3880449967	 0.1189651101	-0.234448
O	-0.1518470008	 0.024627841	-0.0794752999	-0.241078
C	 0.5584200059	-0.5586208872	-1.1603445571	 0.064732
C	 2.0638963248	-0.7801999225	-0.865654998	-0.234592
C	 2.4067535174	-2.1113767555	-1.5532604196	-0.213129
C	 1.1511398372	-2.9624030381	-1.3009716787	-0.286558
C	 0.0065047381	-1.9641835875	-1.4627179395	 0.360479
C	-1.412738208	-2.3177598235	-1.1192924299	-0.30792
C	-1.01816751	-2.1351585498	-2.5616543817	-0.316661
H	 1.1818805218	 1.556387967	 0.4213611773	 0.105024
H	-0.054333868	 1.9812165088	-0.7900773639	 0.100036
H	-0.5175596083	 1.7460585015	 0.917473507	 0.12399
H	 0.4391600925	 0.0919445578	-2.0428389575	 0.058754
H	 2.6952111739	 0.0510301849	-1.1909351388	 0.091672
H	 2.1756528786	-0.881785336	 0.2208204965	 0.10728
H	 2.5443244369	-1.9564447255	-2.6304005106	 0.099433
H	 3.3243594737	-2.5654469611	-1.1687378402	 0.09436
H	 1.0644419589	-3.8199926654	-1.9747474728	 0.091495
H	 1.1724640678	-3.3541116801	-0.2754032058	 0.099198
H	-1.6082407415	-3.32469595	-0.7638606035	 0.10401
H	-2.0107387807	-1.5472862047	-0.6478144469	 0.124403
H	-1.3666322246	-1.2444137485	-3.0760253659	 0.106058
H	-0.9459854006	-3.0149630624	-3.1936328905	 0.103463
11.3807	103.936	185.387	198.8638	237.0296	288.1979	297.9529	365.2395	446.9357	497.5319	510.2194	564.2657	737.0127	782.7133	849.6729	862.1304	890.1524	923.6666	933.1851	937.3635	978.6249	1000.0751	1015.025	1042.6233	1057.6357	1078.0553	1102.6828	1145.965	1166.43	1184.154	1189.8124	1194.1423	1225.9936	1243.2371	1278.3772	1305.4342	1316.6369	1325.5125	1345.0874	1383.2667	1389.7487	1466.1368	1477.5994	1483.0852	1490.7866	1491.0977	1502.6211	1506.8432	1511.2527	2950.1779	2969.5587	3017.6684	3017.8831	3032.1341	3036.7453	3078.7912	3087.8517	3096.26	3107.9514	3115.8053	3131.688	3197.6646	3225.539	11.3882	103.9354	185.3872	198.8632	237.0297	288.198	297.953	365.2396	446.9357	497.5318	510.2195	564.2657	737.0128	782.7132	849.673	862.1306	890.1523	923.6666	933.1851	937.3633	978.6249	1000.075	1015.0251	1042.6232	1057.6356	1078.0549	1102.6827	1145.9649	1166.4299	1184.1541	1189.8123	1194.1416	1225.9937	1243.2372	1278.377	1305.4337	1316.637	1325.5126	1345.0873	1383.2662	1389.7479	1466.1359	1477.5995	1483.0855	1490.7868	1491.0982	1502.6205	1506.8434	1511.253	2950.1779	2969.5587	3017.6684	3017.8832	3032.1341	3036.7454	3078.7912	3087.8517	3096.26	3107.9514	3115.8054	3131.6881	3197.6647	3225.539
COC1CCCC11CC1	CO[C@H]1CCCC21CC2	
InChI=1S/C8H14O/c1-9-7-3-2-4-8(7)5-6-8/h7H,2-6H2,1H3	InChI=1S/C8H14O/c1-9-7-3-2-4-8(7)5-6-8/h7H,2-6H2,1H3/t7-/m0/s1
