17
gdb 17020	3.9469	1.62023	1.33857	4.1341	73.37	-0.304	0.0261	0.33	947.5693	0.143586	-326.693383	-326.686285	-326.685341	-326.724548	27.448	
C	-0.1198792515	 1.6156333923	 0.0094322376	-0.448365
C	 0.03258357	 0.1034715895	 0.0196597692	 0.050198
C	 1.1822387843	-0.6176465688	-0.7626502707	-0.055759
C	 2.1713620144	-0.1585677298	 0.3477475068	-0.246252
C	 0.8945195121	-0.6340758666	 1.0998570527	-0.055764
C	 0.9182265048	-1.8728157616	 0.1390424438	-0.132601
C	-0.2926673707	-2.6550108889	-0.0549167446	 0.263802
N	-1.239227324	-3.3021297802	-0.2068523064	-0.34026
H	 0.8168254653	 2.157633518	 0.1591939694	 0.120292
H	-0.5434677404	 1.9446731074	-0.945527168	 0.126154
H	-0.8131757351	 1.9292599675	 0.7972250596	 0.126154
H	-0.9467911808	-0.3593682719	-0.1357191762	 0.097691
H	 1.3483323438	-0.6368018152	-1.8402099282	 0.087793
H	 3.0702547033	-0.7661174151	 0.4812505894	 0.099204
H	 2.4115082863	 0.9020983573	 0.3941995259	 0.106484
H	 0.7277872695	-0.6722398488	 2.1768120344	 0.087794
H	 1.7745862487	-2.5400152652	 0.2654467854	 0.113434
145.9799	165.8076	190.5525	286.5052	332.1783	458.4285	508.3304	540.2509	619.5303	773.868	774.4733	793.473	878.4242	888.5246	903.5637	1007.3963	1018.5064	1025.8531	1037.8953	1091.305	1099.761	1106.9955	1132.5061	1155.5899	1189.1706	1214.8854	1232.8882	1240.8097	1268.1127	1370.5425	1412.6613	1433.266	1496.2871	1498.5253	1536.363	2349.6201	3038.5701	3060.6449	3070.4508	3082.993	3096.421	3110.5481	3114.8352	3118.9586	3154.5197
CC1C2CC1C2C#N	C[C@H]1[C@H]2C[C@@H]1[C@H]2C#N	
InChI=1S/C7H9N/c1-4-5-2-6(4)7(5)3-8/h4-7H,2H2,1H3	InChI=1S/C7H9N/c1-4-5-2-6(4)7(5)3-8/h4-7H,2H2,1H3/t4-,5+,6-,7-
