21
gdb 58424	2.02516	1.33961	1.2555	2.9304	74.33	-0.2323	0.0426	0.2749	1186.0051	0.17969	-461.337386	-461.326943	-461.325999	-461.372111	39.391	
C	-0.2031719557	 1.5271854928	-0.0221408252	-0.39894
C	 0.0229801355	 0.0201349102	-0.0167778357	 0.089859
O	 0.7787199337	-0.2982760147	-1.1851591158	-0.452696
C	 0.7415458043	-0.4843492189	 1.2360738548	 0.240159
C	 1.9815821504	 0.2788243416	 1.6607699813	-0.474029
C	-0.0758180667	-1.1690838094	 2.3271230015	 0.04561
O	-1.4569399624	-1.3293152405	 2.2076595462	-0.433233
C	 0.8076631108	-1.986544543	 1.4132882831	-0.037451
O	 0.1327825429	-2.7515281002	 0.4340028651	-0.435075
H	 0.746009356	 2.0693381254	-0.0400055122	 0.121951
H	-0.767640053	 1.8089294483	-0.9147906889	 0.119792
H	-0.7698995165	 1.8325701829	 0.8622038581	 0.121011
H	-0.9591916511	-0.463835636	-0.0675021655	 0.064717
H	 0.8017730502	-1.2606255775	-1.2368368621	 0.288216
H	 1.7344443732	 1.2874213033	 2.0065826737	 0.123542
H	 2.5000414626	-0.2294815978	 2.4804714803	 0.106116
H	 2.6795777057	 0.3640711147	 0.8213396519	 0.133784
H	 0.2227332038	-1.013286285	 3.3607240818	 0.097908
H	-1.5962172236	-1.9738814148	 1.5006810457	 0.285817
H	 1.7316748133	-2.4326280224	 1.7753664907	 0.091922
H	 0.0696339767	-3.6590406889	 0.7504094412	 0.301021
64.8328	138.864	178.2663	208.8451	227.5798	242.0396	249.2502	280.0513	298.4144	322.1313	388.2433	445.9527	460.6182	479.1632	550.8728	592.1402	669.9158	712.6138	824.7876	836.6245	912.1804	959.5032	1015.2448	1041.3245	1058.9042	1075.3534	1116.3425	1123.8791	1144.6286	1169.3282	1225.4293	1248.3226	1295.5198	1315.2162	1335.1695	1388.7782	1392.8936	1405.3725	1414.8336	1434.9287	1468.367	1482.5223	1491.8195	1499.1836	1511.8333	3030.909	3033.3724	3047.0579	3096.4317	3103.7403	3120.312	3122.9694	3124.6327	3140.7144	3747.2071	3800.1761	3809.2553
CC(O)C1(C)C(O)C1O	C[C@@H](O)[C@@]1(C)[C@@H](O)[C@H]1O	
InChI=1S/C6H12O3/c1-3(7)6(2)4(8)5(6)9/h3-5,7-9H,1-2H3	InChI=1S/C6H12O3/c1-3(7)6(2)4(8)5(6)9/h3-5,7-9H,1-2H3/t3-,4-,5+,6-/m1/s1
