18
gdb 87512	3.57825	1.38442	1.29982	0.7852	76.12	-0.2217	0.0017	0.2233	1046.2593	0.148213	-401.87568	-401.868193	-401.867249	-401.9074	29.887	
C	 0.0216079761	 1.5229825775	-0.1202839019	-0.414213
C	-0.0057196183	 0.0293728742	 0.0602892046	-0.061338
O	 1.2764712988	-0.6653560423	-0.0327460343	-0.305294
C	 0.6104099665	-0.6520483578	 1.1870639608	 0.542047
C	 1.1318516515	-0.1698225805	 2.5754266407	-0.169611
N	-0.1384923522	-0.7996741429	 3.0829318755	-0.306497
C	 0.1795183592	-1.864642697	 2.0658295002	-0.170406
C	 1.5664656011	-2.3757770462	 2.4961573345	-0.085998
C	 2.201228982	-1.2473112653	 2.8346512272	-0.084198
H	 0.8520750157	 1.9684004885	 0.4328865311	 0.125737
H	 0.132769349	 1.7831828197	-1.1779968992	 0.129046
H	-0.9144493094	 1.9629905396	 0.2398221663	 0.130422
H	-0.8078340588	-0.4924788966	-0.4636919641	 0.096413
H	 1.3303220369	 0.8709263993	 2.8278422849	 0.074371
H	-0.0042486594	-1.1595639471	 4.0297040319	 0.20525
H	-0.6042864288	-2.5685642635	 1.7890048892	 0.074323
H	 1.9246367674	-3.3940279546	 2.4520137062	 0.110221
H	 3.2230395227	-1.0849026351	 3.1453756063	 0.109726
141.5855	153.6483	187.3879	243.6862	364.8273	440.9179	488.3181	572.495	581.2336	616.11	718.4086	799.5346	801.6409	837.3849	867.2873	883.3776	900.34	915.7854	967.2709	985.699	1006.8603	1027.1881	1082.4131	1093.869	1124.3526	1134.3646	1147.6564	1198.4154	1223.3117	1235.9139	1271.0652	1298.8315	1324.3364	1348.6994	1409.2667	1475.7075	1490.9353	1544.7824	1607.6025	3038.6843	3097.9019	3103.1401	3127.2285	3130.2613	3131.8733	3227.5332	3254.1295	3434.9267
CC1OC11C2NC1C=C2	C[C@H]1O[C@]21[C@H]1N[C@@H]2C=C1	
InChI=1S/C7H9NO/c1-4-7(9-4)5-2-3-6(7)8-5/h2-6,8H,1H3	InChI=1S/C7H9NO/c1-4-7(9-4)5-2-3-6(7)8-5/h2-6,8H,1H3/t4-,5-,6+,7+/m1/s1
