23
gdb 112862	2.08521	1.2349	0.83833	2.0636	88.48	-0.235	0.0201	0.2551	1455.1874	0.205121	-388.315253	-388.305213	-388.304269	-388.350225	37.758	
C	-1.5509574297	-0.3862925897	 0.1888378888	-0.382543
C	-0.0796201917	 0.0240294577	 0.0761540489	-0.186406
C	 0.7535266178	-0.3443640491	 1.3149633524	-0.063583
C	 0.859818847	-1.8667304059	 1.5849314502	-0.254978
C	 2.2922272931	-2.1158361417	 2.1231040769	 0.111287
O	 2.8837985553	-3.3282005965	 1.6664953725	-0.435874
C	 3.0257652561	-0.8660784638	 1.7075653957	-0.242888
C	 2.2125124596	 0.0940441754	 1.2612781457	 0.326792
C	 2.6137898888	 1.4691047965	 0.8232774874	-0.495881
H	-2.0265312033	 0.089658064	 1.0539696675	 0.113502
H	-2.1129410194	-0.0927879354	-0.7031753914	 0.111265
H	-1.6587702101	-1.4692052514	 0.3075840179	 0.121364
H	 0.370436099	-0.4480593884	-0.8079450959	 0.091212
H	-0.022613169	 1.1066427039	-0.0904346536	 0.094491
H	 0.2828967624	 0.1491236165	 2.1812597988	 0.07497
H	 0.0843896314	-2.2464326811	 2.2543343214	 0.100728
H	 0.7617652075	-2.413929788	 0.6383782296	 0.091553
H	 2.2918048432	-2.2242929889	 3.2157216626	 0.089267
H	 3.0074587648	-3.2403593937	 0.7145651069	 0.269501
H	 4.1025875779	-0.7779204329	 1.8133751093	 0.087841
H	 3.6909013004	 1.6229475245	 0.9291934758	 0.123428
H	 2.3465650824	 1.6541281527	-0.2239552537	 0.129768
H	 2.1005864164	 2.2384209952	 1.4148595563	 0.125183
68.2461	100.4599	141.9423	175.0528	184.71	233.9693	270.8355	326.5769	358.013	370.7344	455.5555	474.0891	535.9737	597.165	635.8831	774.5217	813.7539	861.5309	886.2768	946.5817	955.149	966.1469	1010.2635	1043.783	1055.9239	1058.7725	1073.9447	1126.695	1139.8263	1174.824	1220.0227	1254.666	1270.0784	1282.8983	1298.3496	1325.2739	1343.3757	1347.773	1376.7726	1410.7451	1413.0475	1428.0824	1477.8299	1484.4044	1486.8805	1492.3576	1500.121	1507.7286	1715.1136	2964.6517	3013.458	3018.417	3019.2922	3029.6789	3031.4789	3051.7753	3067.6932	3097.7186	3099.6257	3105.2338	3111.3339	3181.4429	3793.146
CCC1CC(O)C=C1C	CC[C@H]1C[C@@H](O)C=C1C	
InChI=1S/C8H14O/c1-3-7-5-8(9)4-6(7)2/h4,7-9H,3,5H2,1-2H3	InChI=1S/C8H14O/c1-3-7-5-8(9)4-6(7)2/h4,7-9H,3,5H2,1-2H3/t7-,8-/m0/s1
