13
gdb 6638	6.72129	0.72735	0.68206	3.817	66.14	-0.2592	-0.042	0.2172	1537.5562	0.092535	-398.60833	-398.599143	-398.598199	-398.644761	29.586	
N	 0.0257414747	 1.3168592934	 0.1082921478	-0.520461
C	 0.0468976351	 0.0146364103	-0.2969416186	 0.26975
O	 1.0312571534	-0.5327214703	-0.7535286779	-0.331177
C	-1.2299608318	-0.6716161811	-0.1426232702	 0.063305
C	-2.2618120988	-1.286963322	-0.0447215712	 0.020136
C	-3.4655426024	-2.0899172766	 0.0844541143	-0.423487
C	-3.1631966554	-3.5414819524	 0.4814127278	 0.170343
O	-3.8633768496	-4.1771666946	 1.2189986692	-0.223826
H	 0.8835196536	 1.8425696681	 0.0677243018	 0.268707
H	-0.7884833427	 1.7252356536	 0.5323450292	 0.267736
H	-4.1728475556	-1.6741550523	 0.8089922356	 0.160755
H	-3.9856365451	-2.1319323821	-0.8849565563	 0.167871
H	-2.2493596854	-3.9645814438	 0.0141777486	 0.110347
17.7832	53.737	87.1433	120.2274	141.066	195.1408	352.8948	394.2888	458.4552	518.0993	565.1884	606.8337	699.4882	765.1128	771.6492	1024.0946	1040.4676	1085.0939	1090.2248	1208.6926	1281.7889	1353.2303	1413.5549	1436.4349	1608.7491	1776.2977	1843.1479	2349.3365	2920.1636	3006.9879	3085.2417	3602.8295	3744.7793
NC(=O)C#CCC=O	NC(=O)C#CCC=O	
InChI=1S/C5H5NO2/c6-5(8)3-1-2-4-7/h4H,2H2,(H2,6,8)	InChI=1S/C5H5NO2/c6-5(8)3-1-2-4-7/h4H,2H2,(H2,6,8)
