19
gdb 79836	2.62865	1.67889	1.4202	1.0966	73.96	-0.225	0.0722	0.2972	1001.6981	0.159809	-422.991453	-422.983525	-422.982581	-423.023431	31.402	
C	-0.2639615804	 1.5593494857	-0.0451803493	-0.417411
C	 0.0340689943	 0.0678353561	-0.1205059461	 0.014603
C	 0.7543488644	-0.5643405262	-1.3217175379	-0.150558
C	 2.2838618927	-0.422498679	-1.2047780306	-0.15745
C	 2.8731650923	 0.5987203188	-0.2466747485	-0.108313
O	 2.2331364935	 0.3477176856	 1.0143749432	-0.26595
C	 1.1552506454	-0.5535869755	 0.7849519724	-0.015268
C	 1.5580309986	-1.4628472265	-0.4116864546	 0.383342
O	 1.7068966745	-2.83149087	-0.4507586416	-0.466881
H	-0.962558392	 1.8528707283	-0.8366086703	 0.111338
H	-0.725558982	 1.8120475036	 0.9156210353	 0.116716
H	 0.6353269826	 2.1696475113	-0.1472848975	 0.124114
H	-0.8896514443	-0.4989252868	 0.0500677341	 0.077673
H	 0.3135734666	-0.8053687844	-2.2826048489	 0.08885
H	 2.8457920827	-0.7343816164	-2.0776271994	 0.094081
H	 3.9560537492	 0.4582913253	-0.1275978012	 0.099428
H	 2.7035161304	 1.6381802729	-0.5560328121	 0.100851
H	 0.861670399	-0.996845449	 1.7359666112	 0.081907
H	 2.5756193924	-3.0544421636	-0.0971848482	 0.288926
145.1926	179.3372	223.6707	245.9882	267.6333	291.8196	364.7086	499.8233	547.429	621.1477	629.4451	702.6676	778.936	798.2901	846.4344	901.6258	917.2713	945.1779	983.6967	998.4608	1021.1546	1056.2373	1067.2008	1081.2734	1116.2952	1144.0076	1161.2121	1176.4176	1215.6366	1220.8112	1286.3936	1302.7652	1310.1264	1327.9895	1373.7444	1385.1532	1409.8095	1486.6286	1491.1283	1493.0882	1528.6445	3004.7159	3026.7527	3032.0014	3036.7949	3093.2276	3125.7988	3131.6577	3175.1304	3190.3832	3786.9771
CC1C2C3COC1C23O	C[C@H]1[C@H]2[C@H]3CO[C@@H]1[C@@]23O	
InChI=1S/C7H10O2/c1-3-5-4-2-9-6(3)7(4,5)8/h3-6,8H,2H2,1H3	InChI=1S/C7H10O2/c1-3-5-4-2-9-6(3)7(4,5)8/h3-6,8H,2H2,1H3/t3-,4+,5-,6-,7-/m0/s1
