19
gdb 77243	2.77828	0.93486	0.85583	5.0509	73.21	-0.2362	-0.0141	0.2221	1411.9815	0.155054	-460.147326	-460.136973	-460.136029	-460.183236	37.053	
C	 0.0241966134	 1.6021170383	-0.1731399414	-0.459211
C	-0.0235390805	 0.1049091145	 0.0165016341	 0.319859
O	-1.2323445777	-0.4970402998	-0.3753743573	-0.456941
C	 1.2268506048	-0.7412763908	-0.144533985	-0.001496
O	 2.4805810109	-0.136699218	-0.2978274351	-0.412114
C	 0.5838885263	-0.5829759446	 1.2177001564	-0.090166
C	 1.2879036292	 0.1612002998	 2.337236083	-0.30709
C	 2.3023569257	-0.7270638815	 3.0316925658	 0.164287
O	 2.3484775669	-0.9180570619	 4.2195903239	-0.243101
H	 1.0057461514	 2.0114393785	 0.0728923841	 0.132549
H	-0.183965211	 1.8556646275	-1.2208504584	 0.104175
H	-0.7318108932	 2.0968177663	 0.4441992014	 0.133737
H	-1.3418721026	-0.3566037351	-1.3231151588	 0.278222
H	 1.1046961735	-1.7040668218	-0.6405548628	 0.093457
H	 2.5760184234	 0.1410466652	-1.2148961616	 0.292118
H	 0.0105717044	-1.4469187888	 1.5415687508	 0.112557
H	 1.8449506448	 1.0122032743	 1.9290017259	 0.130005
H	 0.5796936072	 0.5345897912	 3.0825551511	 0.120798
H	 3.0309284532	-1.2055091033	 2.3392244739	 0.088355
46.5542	62.8419	137.063	178.076	189.4947	249.9393	261.5997	279.7177	305.388	326.7878	400.4252	458.817	501.3613	512.979	592.699	715.0669	821.955	840.476	875.9846	964.1685	982.9319	1038.5246	1054.8642	1080.9315	1114.3304	1148.6522	1154.1479	1214.4689	1250.7958	1277.9479	1288.5698	1293.4658	1354.7947	1368.0878	1413.8852	1423.6829	1449.3533	1463.1426	1492.868	1506.5112	1834.2587	2886.1301	3023.3645	3046.1401	3089.3849	3102.773	3103.0468	3135.5268	3155.9988	3784.4807	3806.3675
CC1(O)C(O)C1CC=O	C[C@@]1(O)[C@@H](O)[C@H]1CC=O	
InChI=1S/C6H10O3/c1-6(9)4(2-3-7)5(6)8/h3-5,8-9H,2H2,1H3	InChI=1S/C6H10O3/c1-6(9)4(2-3-7)5(6)8/h3-5,8-9H,2H2,1H3/t4-,5+,6+/m1/s1
