21
gdb 109093	3.28428	1.14244	0.93108	0.2337	95.53	-0.2084	-0.0244	0.184	1336.5498	0.183913	-349.982444	-349.973777	-349.972833	-350.015791	33.631	
C	-0.0735530237	 1.6060109826	-0.0674127987	-0.367531
C	 0.025919702	 0.0760058539	 0.068463175	-0.27955
C	 0.6923749706	-0.5899963059	-1.121723887	 0.25204
C	 2.0173433213	-0.9063810962	-1.0590820812	-0.177817
C	 2.8514031314	-1.3778984586	-2.1400584652	-0.047344
C	 2.4479092809	-2.1389859937	-3.1735466262	-0.089352
C	 1.061656934	-2.730344391	-3.2260464231	-0.311869
C	 0.0704441241	-1.5991471166	-3.3211535817	-0.081705
C	-0.101108015	-0.7035279566	-2.3322093546	-0.09632
H	 0.9221749583	 2.0520838619	-0.1525952096	 0.120282
H	-0.6433001581	 1.8952051725	-0.9562252987	 0.120065
H	-0.5715058193	 2.0431166155	 0.8040242501	 0.112074
H	 0.5881878693	-0.1666240611	 0.9765166838	 0.101644
H	-0.9811101355	-0.3376412584	 0.2043867885	 0.102004
H	 2.5350409842	-0.6637279525	-0.1318251402	 0.078087
H	 3.8945132431	-1.069047377	-2.1014784922	 0.086015
H	 3.1340017479	-2.349913719	-3.989103169	 0.090568
H	 0.9573126529	-3.4133558426	-4.0722039222	 0.098753
H	 0.8742268054	-3.3069040993	-2.3087735709	 0.115502
H	-0.5328032358	-1.5178631259	-4.2217007215	 0.090849
H	-0.9095690379	 0.0183755578	-2.4363082655	 0.083606
65.8432	117.282	203.1092	210.9213	278.1933	319.3419	340.9683	400.3508	427.5336	538.6393	612.9172	654.8589	715.9128	757.8826	782.3659	798.6513	893.7871	910.0893	931.4636	954.7031	972.0844	980.1438	990.3238	1036.3397	1057.1189	1074.5066	1115.1935	1181.3382	1220.2289	1231.8976	1270.2926	1279.7965	1325.9926	1345.299	1371.2657	1405.0225	1424.1288	1450.1424	1474.5814	1486.7047	1496.3276	1506.937	1590.4214	1673.1349	1679.6039	2996.1484	3026.3105	3035.6837	3068.0014	3094.6418	3105.3935	3111.2303	3125.3382	3133.3176	3141.8859	3165.1163	3171.8481
CCC1=CC=CCC=C1	CCC1=CC=CCC=C1	
InChI=1S/C9H12/c1-2-9-7-5-3-4-6-8-9/h3,5-8H,2,4H2,1H3	InChI=1S/C9H12/c1-2-9-7-5-3-4-6-8-9/h3,5-8H,2,4H2,1H3
