19
gdb 73375	2.53865	2.21919	1.62818	2.2476	73.53	-0.239	0.0946	0.3336	900.5293	0.161365	-423.023035	-423.016196	-423.015252	-423.053766	28.78	
C	-0.0237179962	 1.4462651882	-0.0394691262	-0.474629
C	 0.033378165	-0.0539272261	 0.065528609	 0.516514
O	 0.6326695439	-0.5980631352	-1.0922499513	-0.288308
C	 0.6908804401	-2.0164491834	-0.8658997325	-0.112655
C	 0.4298287936	-2.1535356236	 0.6326363803	-0.075092
C	-1.0085722089	-1.7278208203	 1.0820527777	 0.085191
C	-0.3704701876	-1.018027871	 2.2952603975	-0.248348
C	 0.745654934	-0.7562651306	 1.2567564581	-0.128176
O	-1.2902094247	-0.6262905448	 0.1975166087	-0.315896
H	 0.9759532311	 1.8499331384	-0.2176632131	 0.127385
H	-0.6706301303	 1.7318813503	-0.872765169	 0.139457
H	-0.4282972965	 1.8758226485	 0.8797849852	 0.124202
H	-0.0671469103	-2.5277306218	-1.4722511899	 0.106887
H	 1.6809908639	-2.3802108773	-1.161770959	 0.104028
H	 0.842938489	-3.0272487695	 1.1342438948	 0.0817
H	-1.8637335318	-2.4005145857	 1.1329247077	 0.079539
H	-0.9176986885	-0.1680650982	 2.709625386	 0.102098
H	-0.0500128759	-1.699784097	 3.0868104607	 0.100688
H	 1.7506541701	-0.4153211811	 1.4999478351	 0.075415
193.8661	236.5117	259.5899	309.6714	422.5465	456.2747	542.1554	610.3047	620.9221	729.8129	759.2372	807.6107	819.6289	868.8298	885.3453	901.2197	938.9018	942.535	991.0958	1009.9322	1020.9335	1045.5173	1057.8651	1100.5947	1107.0098	1145.1338	1173.2509	1181.1044	1206.8531	1224.3619	1251.02	1266.9536	1311.2015	1323.4379	1338.4439	1379.0476	1421.3867	1479.1473	1487.3486	1491.5191	1515.6274	3023.0461	3055.947	3062.2667	3065.022	3124.0258	3127.7229	3130.4356	3133.052	3136.9886	3138.8631
CC12OCC3C(CC13)O2	C[C@@]12OC[C@@H]3[C@@H](C[C@H]13)O2	
InChI=1S/C7H10O2/c1-7-5-2-6(9-7)4(5)3-8-7/h4-6H,2-3H2,1H3	InChI=1S/C7H10O2/c1-7-5-2-6(9-7)4(5)3-8-7/h4-6H,2-3H2,1H3/t4-,5-,6+,7-/m0/s1
