19
gdb 83301	2.35833	1.85254	1.48824	2.5036	73.66	-0.2398	-0.0217	0.2181	968.9094	0.162111	-423.065265	-423.057905	-423.056961	-423.096846	29.877	
O	 0.1519788535	 1.3553454411	 0.3101888454	-0.447789
C	-0.0089462289	-0.0183582726	 0.0690878931	 0.070416
C	-1.4592357794	-0.5117228896	-0.1140565561	-0.051313
C	-2.1041146402	 0.2668767609	-1.2834922858	-0.215957
C	-1.4152347697	-0.3406767087	-2.547216754	-0.218465
C	-0.3841489921	-1.3521263926	-1.9487276207	-0.123836
C	-1.1821660531	-1.8989006229	-0.7431013467	-0.244193
C	 0.6238226389	-0.4426204809	-1.269126696	 0.385427
O	 1.6551727546	 0.015870481	-1.6974873195	-0.352991
H	 0.9677685616	 1.6107118214	-0.1434764205	 0.292057
H	 0.4618054903	-0.615494715	 0.8712839884	 0.088616
H	-2.0402362113	-0.5104165387	 0.8086310556	 0.074085
H	-3.185651008	 0.1128805472	-1.3075709651	 0.098728
H	-1.9195575903	 1.338018902	-1.1817705017	 0.124168
H	-2.1283996162	-0.8896420597	-3.1686461807	 0.107187
H	-0.9340666669	 0.409008692	-3.1792193053	 0.119961
H	 0.0363549085	-2.0511969497	-2.6701302473	 0.084506
H	-0.6007935142	-2.5633050997	-0.0962675764	 0.103592
H	-2.0954378873	-2.4171941755	-1.0473277867	 0.105802
103.5454	216.0051	246.0367	270.9822	403.2702	426.65	468.2536	521.9554	534.3403	655.0077	694.9456	770.6198	825.1031	856.6249	877.833	880.2464	916.5222	939.5472	949.1448	973.6153	1038.4656	1056.8365	1078.2975	1121.6719	1148.2549	1176.6318	1183.7261	1202.0315	1226.1317	1258.4948	1283.3474	1300.978	1320.9043	1326.582	1352.2449	1365.7399	1406.5602	1490.5189	1496.7044	1515.4632	1840.1663	2937.683	3055.1408	3057.9819	3071.7749	3104.4503	3105.3576	3110.4659	3124.8812	3131.3734	3739.3863
OC1C2CCC(C2)C1=O	O[C@H]1[C@H]2CC[C@H](C2)C1=O	
InChI=1S/C7H10O2/c8-6-4-1-2-5(3-4)7(6)9/h4-6,8H,1-3H2	InChI=1S/C7H10O2/c8-6-4-1-2-5(3-4)7(6)9/h4-6,8H,1-3H2/t4-,5+,6-/m0/s1
