12
gdb 130933	6.8097	0.83576	0.75513	2.471	57.21	-0.2847	-0.0555	0.2291	1359.0346	0.075505	-509.7811	-509.773371	-509.772427	-509.815077	26.216	
O	 0.0108099421	-0.1051886722	 0.2362556837	-0.222348
C	 0.0141214747	 1.0602952716	-0.0465969887	 0.175783
C	 1.3048895527	 1.8601134911	-0.2232292145	-0.414919
C	 1.2370986453	 2.8438331213	-1.3342714546	 0.441672
N	 0.3446908992	 2.8843490995	-2.2532255399	-0.164935
O	 0.7183768865	 3.9863751934	-3.0608490418	-0.226437
C	 1.8476286474	 4.5477238753	-2.5567314623	 0.518103
O	 2.440940327	 5.4812548765	-2.9751118259	-0.346677
O	 2.1843547876	 3.8060667266	-1.4305149166	-0.227448
H	-0.9198462469	 1.6454433877	-0.1636282209	 0.117789
H	 1.4958585143	 2.4095835296	 0.709479009	 0.173084
H	 2.1409349701	 1.1678625896	-0.3634685475	 0.176334
38.6891	59.9333	159.627	184.9121	308.6283	341.673	451.6288	554.1621	639.1951	689.6191	762.7844	774.6234	812.149	887.7866	952.0193	995.5621	1045.3229	1050.948	1149.1979	1207.7069	1247.475	1393.5468	1424.8958	1446.3548	1690.2673	1846.2902	1960.9133	2940.1504	3030.9868	3095.9133
O=CCC1=NOC(=O)O1	O=CCc1noc(=O)o1	
InChI=1S/C4H3NO4/c6-2-1-3-5-9-4(7)8-3/h2H,1H2	InChI=1S/C4H3NO4/c6-2-1-3-5-9-4(7)8-3/h2H,1H2
