20
gdb 6974	2.57997	2.13857	1.67042	1.4241	75.4	-0.2451	0.0191	0.2642	904.7663	0.176613	-349.020407	-349.012025	-349.011081	-349.052426	32.907	
C	-0.0562367335	 1.5898447309	 0.0439752776	-0.418612
C	 0.0328583246	 0.0583600695	 0.0170377502	 0.221067
C	-1.3887597275	-0.5373752386	-0.0757627963	-0.415863
C	 0.8877182964	-0.4728805815	-1.1237748257	-0.090677
C	 1.6605642391	-1.4923048962	-0.7493538709	-0.095722
C	 1.4753303838	-1.8149456575	 0.7167122989	-0.28738
C	 0.7833129961	-0.5392573013	 1.2585445183	 0.10512
O	 1.738916956	 0.3548466511	 1.8121849422	-0.435613
H	 0.9304778464	 2.0562250434	 0.0808729246	 0.107109
H	-0.5723384679	 1.9547191555	-0.8510552384	 0.104288
H	-0.6160945058	 1.9351900388	 0.9191079618	 0.116623
H	-1.8706989038	-0.2501783435	-1.0162914975	 0.111979
H	-1.3692553318	-1.6309600864	-0.0349496628	 0.114414
H	-2.0162617708	-0.1748419301	 0.7463358379	 0.112869
H	 0.817391078	-0.0721063268	-2.1303076162	 0.088239
H	 2.3177883659	-2.056951732	-1.4017788958	 0.092132
H	 0.8529227131	-2.7106063959	 0.8477830539	 0.109043
H	 2.4084096291	-2.000531559	 1.2595057624	 0.106265
H	 0.0901468265	-0.7491709949	 2.0780710069	 0.076507
H	 2.416329436	 0.5006346447	 1.141553829	 0.278212
99.6817	211.6171	234.1502	241.4336	256.9197	336.5945	353.04	374.7712	435.407	446.2993	539.1632	613.3373	744.815	767.3058	820.6989	862.6153	908.9718	937.1433	948.5668	970.09	977.5127	999.9965	1023.9183	1077.9816	1116.3813	1165.0777	1177.1167	1209.1441	1247.0204	1267.3152	1295.3134	1311.0687	1376.129	1398.6003	1421.2181	1434.3276	1478.3127	1478.8422	1488.2547	1501.599	1504.87	1674.6528	3016.2774	3025.3053	3035.4692	3067.7349	3074.9226	3092.1405	3099.0899	3102.2845	3122.353	3171.1778	3199.3625	3790.656
CC1(C)C=CCC1O	CC1(C)C=CC[C@H]1O	
InChI=1S/C7H12O/c1-7(2)5-3-4-6(7)8/h3,5-6,8H,4H2,1-2H3	InChI=1S/C7H12O/c1-7(2)5-3-4-6(7)8/h3,5-6,8H,4H2,1-2H3/t6-/m1/s1
