21
gdb 94217	3.14876	1.07318	0.9742	1.0096	84.54	-0.2517	0.0415	0.2933	1316.9181	0.179939	-387.054148	-387.044252	-387.043308	-387.088661	37.71	
C	-0.0361015022	 1.5589978834	-0.0562174157	-0.409388
C	 0.0649166587	 0.0430952033	-0.0114288716	 0.013969
C	 1.0878907466	-0.6894996412	-0.9252991581	-0.238511
C	 1.3797277457	-1.6730727641	 0.2394212232	-0.26033
C	 0.7452139316	-0.6377589993	 1.2159197462	 0.394119
O	 1.7094539752	 0.2518099963	 1.7469216228	-0.480891
C	-0.1746838408	-1.1613824708	 2.334843167	-0.409989
C	 0.58852905	-1.8299224358	 3.3830309861	 0.26836
C	 1.2836808702	-2.3505271386	 4.2159011457	-0.433853
H	 0.9373196776	 2.0173302579	 0.1328060848	 0.134821
H	-0.3916189064	 1.890418663	-1.0381265806	 0.108259
H	-0.7366012004	 1.9389878058	 0.6956673672	 0.110174
H	-0.9265867095	-0.40579446	-0.146944433	 0.065594
H	 0.713079507	-1.1111256315	-1.8606157371	 0.092856
H	 1.9505298395	-0.0548113912	-1.1436202099	 0.1099
H	 0.7894652839	-2.5914331238	 0.1685047632	 0.095633
H	 2.421786431	-1.9343071773	 0.4359144495	 0.097794
H	 2.1781488978	-0.2226754162	 2.4452302691	 0.281577
H	-0.7236237582	-0.3128150584	 2.7627305055	 0.135753
H	-0.9182248003	-1.847827203	 1.9132654448	 0.12505
H	 1.865701753	-2.8271731787	 4.9654792109	 0.199101
67.0981	106.3713	115.0866	202.2412	234.6486	256.6204	331.2307	355.0288	366.6504	397.7459	428.0941	449.5359	556.1717	621.8576	642.5449	655.3163	735.9531	787.8557	888.8687	890.8677	915.3883	940.6498	952.8665	977.6542	1006.8897	1052.3713	1123.2309	1130.6497	1165.0627	1193.0667	1219.9085	1249.9628	1263.7994	1282.4393	1296.198	1315.0742	1358.7292	1402.3395	1408.1156	1458.9312	1470.0999	1490.5	1492.0789	1501.1766	2228.3687	3024.266	3029.1036	3035.0309	3056.0466	3064.0433	3066.2164	3090.7116	3108.2182	3122.9951	3128.2185	3504.6245	3769.066
CC1CCC1(O)CC#C	C[C@H]1CC[C@]1(O)CC#C	
InChI=1S/C8H12O/c1-3-5-8(9)6-4-7(8)2/h1,7,9H,4-6H2,2H3	InChI=1S/C8H12O/c1-3-5-8(9)6-4-7(8)2/h1,7,9H,4-6H2,2H3/t7-,8+/m0/s1
