22
gdb 115883	2.41871	1.47108	1.0758	1.8019	82.43	-0.2269	0.0756	0.3025	1219.7957	0.194718	-404.333309	-404.324173	-404.323229	-404.366926	34.941	
C	-0.0151168641	 1.3604010832	-0.1518841487	-0.233062
O	-0.0505507005	 0.0067907206	 0.2333994168	-0.252013
C	-1.3233727738	-0.5925426993	 0.110850793	 0.13252
C	-1.7946866691	-0.8534753064	-1.3407520731	-0.26019
C	-2.7314777058	-2.0797559917	-1.2391519043	-0.219384
C	-2.1818741927	-2.853525741	-0.0519189501	-0.082078
N	-0.7083656307	-2.992274873	-0.1092037289	-0.367457
C	-1.3213918009	-1.9652548064	 0.7681262056	 0.31302
C	-1.1615243949	-2.0532634286	 2.2618165276	-0.500048
H	 0.9907716105	 1.7320849429	 0.0594393569	 0.124387
H	-0.2202087007	 1.4961188405	-1.2240063051	 0.107259
H	-0.7421139628	 1.9646332209	 0.4154716938	 0.097858
H	-2.0682682597	 0.0323706707	 0.6383561163	 0.05296
H	-2.2851890083	 0.0113222867	-1.7936199597	 0.08919
H	-0.912639342	-1.1023334172	-1.9349650529	 0.130536
H	-3.7627355819	-1.7734290307	-1.0257795053	 0.096101
H	-2.746616744	-2.6694620694	-2.1613107277	 0.104037
H	-2.7665237643	-3.6483099121	 0.4021619657	 0.078323
H	-0.4262511812	-3.778998922	 0.4716044851	 0.223336
H	-0.1778059462	-1.6783140771	 2.5628670355	 0.13877
H	-1.9183631918	-1.4504181754	 2.7765996823	 0.117955
H	-1.2587696851	-3.0863486352	 2.6120556673	 0.107981
89.6992	124.3973	183.1204	207.4517	221.6038	248.5946	290.5163	332.7533	428.59	459.0815	525.4179	552.5262	644.8453	719.1464	829.5171	845.3849	879.7089	912.322	957.9324	971.6988	997.988	1039.1459	1050.0373	1058.6507	1106.9486	1121.0749	1135.8912	1157.218	1182.193	1195.4342	1229.3031	1240.7858	1294.5671	1300.6862	1319.0554	1348.1772	1366.6404	1400.0059	1413.2666	1452.2809	1477.7708	1480.1051	1483.0807	1490.1134	1496.9281	1504.3668	1510.5012	2926.5913	2968.3968	3020.6628	3026.5295	3034.4633	3070.5433	3079.1544	3091.1552	3101.4085	3109.5457	3122.9971	3152.8711	3490.5911
COC1CCC2NC12C	CO[C@H]1CC[C@H]2N[C@@]12C	
InChI=1S/C7H13NO/c1-7-5(8-7)3-4-6(7)9-2/h5-6,8H,3-4H2,1-2H3	InChI=1S/C7H13NO/c1-7-5(8-7)3-4-6(7)9-2/h5-6,8H,3-4H2,1-2H3/t5-,6+,7-/m1/s1
