18
gdb 93338	2.17771	1.65306	1.06726	4.1811	72.01	-0.2441	-0.0267	0.2174	1129.2251	0.147791	-439.143649	-439.134955	-439.134011	-439.17719	31.993	
C	-0.1382045494	 1.5088443619	 0.0391086166	-0.40432
C	 0.006672794	-0.0182966263	 0.0842288793	-0.014479
C	 0.8188846806	-0.5363671412	-1.1336212103	-0.1788
N	 2.1873421025	-0.5310969038	-0.638443433	-0.310553
C	 2.2992466445	-0.5873419558	 0.7192209083	 0.410937
O	 3.3197372706	-0.6749140588	 1.3672191475	-0.382157
C	 0.8601574824	-0.5332226882	 1.2661082027	-0.227874
C	 0.7763702926	 0.1498911722	 2.6153868493	 0.150787
O	-0.1755285304	 0.7719072284	 3.0144625749	-0.25778
H	 0.8418604207	 1.9978927848	 0.0050115146	 0.122587
H	-0.6907613805	 1.8051589333	-0.8581091508	 0.111978
H	-0.6724702874	 1.8769258967	 0.9149719977	 0.155753
H	-0.9870944552	-0.4719354229	 0.0931546599	 0.091725
H	 0.5029601133	-1.5465482818	-1.4312068314	 0.107118
H	 0.7117109971	 0.1206559455	-2.0019286339	 0.11727
H	 2.9965242567	-0.6679421292	-1.2232738877	 0.256168
H	 0.6034603703	-1.5851633804	 1.4781276295	 0.135287
H	 1.6815505577	-0.0032077043	 3.2383592268	 0.116352
80.9026	117.8272	165.3893	189.5286	228.1457	267.3142	344.0452	369.5785	466.3962	527.8299	585.8265	638.2277	704.2388	737.2168	760.4561	863.536	946.1332	951.5903	973.4984	1046.0375	1053.0372	1093.0099	1104.9766	1169.6964	1209.1241	1236.2722	1262.4818	1283.0534	1305.6817	1366.5289	1368.0304	1406.593	1413.5407	1447.7945	1495.2601	1511.4305	1530.9383	1820.9545	1829.7493	2931.6084	2980.2195	2997.59	3038.7225	3074.6998	3079.4628	3102.9376	3153.9245	3641.5714
CC1CNC(=O)C1C=O	C[C@H]1CNC(=O)[C@H]1C=O	
InChI=1S/C6H9NO2/c1-4-2-7-6(9)5(4)3-8/h3-5H,2H2,1H3,(H,7,9)	InChI=1S/C6H9NO2/c1-4-2-7-6(9)5(4)3-8/h3-5H,2H2,1H3,(H,7,9)/t4-,5-/m0/s1
