13
gdb 24884	3.48379	1.34332	0.96949	1.7722	80.99	-0.2384	-0.079	0.1595	1121.7555	0.089476	-415.603943	-415.596576	-415.595632	-415.635983	27.642	
N	 0.0475933645	 1.3096165393	 0.0093193488	-0.538087
C	-0.0148447643	 0.0465596718	 0.0032228364	 0.371842
O	 1.1637204643	-0.7268484879	-0.0073745214	-0.250989
C	 1.1003862289	-2.0816480088	-0.0139447593	 0.255501
N	 0.0270256776	-2.7870479184	-0.0114410125	-0.321339
C	-1.1658703316	-2.0812050813	-0.0011579669	-0.026805
C	-1.231629208	-0.7349679271	 0.0060546946	-0.121939
C	 2.3916540174	-2.683215117	-0.0240956665	 0.245158
C	 3.4847673101	-3.1827852616	-0.0326473392	-0.321685
H	 1.0148448974	 1.6330233537	 0.0055356926	 0.229794
H	-2.0605941586	-2.6944864328	 0.0007449867	 0.127519
H	-2.1668869691	-0.1918495421	 0.0140692314	 0.136255
H	 4.4476792915	-3.6324422876	-0.0402708748	 0.214775
115.9058	143.0587	147.387	311.3946	401.4299	432.5447	505.7827	525.0119	561.4095	665.1876	677.3107	691.7266	744.4361	764.4592	839.4874	872.6174	884.0284	962.4003	1007.2502	1031.3272	1123.918	1189.1409	1260.067	1319.4609	1428.1286	1594.1682	1649.9031	1758.5637	2243.373	3192.0761	3235.7083	3498.2185	3498.5309
N=C1OC(=NC=C1)C#C	[NH]C1=CCN=C(O1)C#C	
InChI=1S/C6H4N2O/c1-2-6-8-4-3-5(7)9-6/h1,3-4,7H	InChI=1S/C6H5N2O/c1-2-6-8-4-3-5(7)9-6/h1,3,7H,4H2
