20
gdb 108095	2.63638	1.51069	1.26601	1.83	79.49	-0.2138	0.088	0.3018	1105.2449	0.170275	-403.063063	-403.054359	-403.053414	-403.09634	32.873	
C	 0.0712369432	 1.2104166912	-0.295712599	-0.257135
O	-0.1216261363	-0.0710539321	 0.2845221462	-0.289054
C	-1.4082406504	-0.5367319138	 0.1855081268	 0.371534
C	-2.6268982639	-0.2261437877	 1.0382831106	-0.24643
N	-3.2500122417	-1.5045257807	 0.506320555	-0.202921
C	-3.4680704191	-1.1592137739	-0.958543817	-0.179501
C	-1.9667977029	-1.1374971987	-1.1413868011	-0.203853
C	-1.8169335708	-1.9695623492	 0.1124302551	 0.2938
C	-1.1893326542	-3.2714286469	 0.4620238622	-0.529132
H	 1.1265176707	 1.4613043517	-0.1696729982	 0.129217
H	-0.1773043431	 1.2056708662	-1.3655944383	 0.113051
H	-0.5395224176	 1.9756626832	 0.2025210669	 0.11489
H	-2.4269859699	-0.334791879	 2.1077331141	 0.110531
H	-3.2213245118	 0.677191029	 0.8603614909	 0.093712
H	-3.9587435495	-1.9983888094	-1.4601739479	 0.107365
H	-4.0507741331	-0.245467697	-1.1247883227	 0.093333
H	-1.3528066164	-1.1623570065	-2.0342422822	 0.088765
H	-0.1536083871	-3.2916771253	 0.1082202478	 0.133928
H	-1.1795992661	-3.4252124901	 1.5465073151	 0.130876
H	-1.7242802601	-4.1110541709	 0.0055153755	 0.127024
88.2313	135.0577	162.7908	185.7513	206.191	258.3984	367.3955	388.2811	469.2012	541.81	585.3105	678.8439	716.8958	787.5073	847.0855	850.2376	919.2394	923.2907	943.0787	1002.8669	1052.4446	1069.9896	1085.2545	1122.7974	1135.1871	1148.6169	1160.8769	1179.4608	1186.0236	1210.4168	1241.0412	1250.4008	1299.6436	1337.8424	1406.6949	1467.3202	1476.1839	1485.8939	1490.7976	1497.7114	1504.5634	1510.0521	1530.4082	2997.6299	3027.0144	3029.5372	3037.4102	3053.3484	3086.3855	3092.7174	3098.7708	3106.3471	3125.2168	3180.6145
COC12CN3CC1C23C	CO[C@@]12CN3C[C@@H]1[C@@]23C	
InChI=1S/C7H11NO/c1-6-5-3-8(6)4-7(5,6)9-2/h5H,3-4H2,1-2H3	InChI=1S/C7H11NO/c1-6-5-3-8(6)4-7(5,6)9-2/h5H,3-4H2,1-2H3/t5-,6+,7+/m1/s1
