15
gdb 23920	4.16555	1.22902	1.1911	2.0686	53.89	-0.2927	0.0895	0.3822	1023.2247	0.115399	-494.167503	-494.159866	-494.158921	-494.200318	27.778	
F	 0.3774311921	 0.1902350893	-0.0327293676	-0.087735
C	-0.0267030323	 1.467349108	 0.0776068884	 0.288177
F	 1.0762415068	 2.2329887782	 0.103615134	-0.079852
F	-0.6974717256	 1.7727130971	-1.0458839271	-0.08119
C	-0.8923999618	 1.675157397	 1.3057411448	-0.357123
C	-0.202883598	 1.2593768482	 2.5856042791	 0.025647
C	 0.7820122518	 2.1865604641	 3.2514100894	-0.248967
C	-0.5605249582	 1.9303441713	 3.8874934643	-0.284404
H	-1.1633258191	 2.7355779808	 1.3331886994	 0.125262
H	-1.8150506496	 1.1062942217	 1.1484422496	 0.12985
H	 0.0263381103	 0.1997004753	 2.6383398626	 0.100364
H	 1.6633764535	 1.7525536136	 3.7093369046	 0.118513
H	 0.9529648988	 3.1534725989	 2.7915260713	 0.120008
H	-1.2958746702	 2.7279612369	 3.8622839738	 0.113825
H	-0.6021106385	 1.3188588496	 4.7816681534	 0.117624
61.598	95.5144	154.1561	295.6915	326.9042	367.9347	424.7099	536.6436	546.3587	655.6459	773.9911	810.4591	838.4281	855.3249	902.8094	952.411	995.544	1060.3611	1081.5215	1089.331	1140.737	1179.9574	1197.697	1211.7108	1236.107	1274.3354	1309.8184	1366.2356	1425.5615	1468.5763	1476.8209	1512.2377	3052.0869	3097.711	3134.0207	3142.3528	3159.4127	3213.6281	3229.8138
FC(F)(F)CC1CC1	FC(F)(F)CC1CC1	
InChI=1S/C5H7F3/c6-5(7,8)3-4-1-2-4/h4H,1-3H2	InChI=1S/C5H7F3/c6-5(7,8)3-4-1-2-4/h4H,1-3H2
