17
gdb 7081	3.05644	1.1619	0.89108	3.4488	68.11	-0.252	-0.0283	0.2237	1265.5039	0.139114	-401.007398	-400.998071	-400.997127	-401.042935	31.445	
C	-0.1036226843	 1.5622965253	 0.0061340125	-0.392036
C	-0.0116639573	 0.0392951568	-0.0229078839	 0.09843
C	 0.7469702671	-0.5239891663	 1.1845344425	-0.281645
C	 0.9366015744	-2.0266132145	 1.1196193191	 0.145516
O	 2.0024875584	-2.5752927538	 1.2378249684	-0.23714
O	-1.3263291931	-0.5402381805	 0.0177123211	-0.194801
C	-1.9812004023	-0.6738343984	-1.1538928439	 0.126774
N	-3.186468864	-1.0450352992	-1.1638448884	-0.438115
H	 0.8951997407	 2.0081823674	-0.0168812026	 0.127892
H	-0.6635566743	 1.9330964295	-0.8575867814	 0.126163
H	-0.6157302531	 1.8939594683	 0.9141440897	 0.138437
H	 0.4873543004	-0.2827106276	-0.9487832921	 0.095675
H	 1.7292087505	-0.0530682629	 1.2733145136	 0.124958
H	 0.1642875751	-0.2904012945	 2.0860237207	 0.137058
H	 0.0035749653	-2.6053334517	 0.9530788678	 0.102736
H	-1.3587078451	-0.4493812367	-2.031819432	 0.088348
H	-3.5185419286	-1.1237716513	-2.1227444112	 0.231751
41.5039	67.0428	90.9303	115.6658	200.9432	226.3214	246.9077	347.5928	424.9302	462.4946	527.5843	598.3825	804.5332	821.5232	873.992	944.5774	967.3214	1007.6934	1044.2136	1098.3496	1122.7054	1137.1205	1161.2231	1240.5706	1294.0648	1298.8791	1373.4838	1376.4696	1410.0065	1424.1338	1428.0915	1450.0448	1487.8475	1494.3836	1746.2565	1831.2592	2916.1376	2996.7528	3017.1176	3031.0801	3042.0441	3111.6791	3116.7663	3123.9421	3519.4949
CC(CC=O)OC=N	C[C@@H](CC=O)O[CH][NH]	
InChI=1S/C5H9NO2/c1-5(2-3-7)8-4-6/h3-6H,2H2,1H3	InChI=1S/C5H9NO2/c1-5(2-3-7)8-4-6/h3-6H,2H2,1H3/t5-/m0/s1
