19
gdb 110743	2.51743	1.27615	1.07398	4.1361	75.98	-0.2691	0.0043	0.2734	1230.6289	0.157679	-423.035512	-423.026328	-423.025384	-423.069762	33.501	
C	 0.222638608	 1.4386506466	 0.2143316915	-0.375591
C	-0.1903682685	-0.0045351259	-0.0982922209	-0.220742
C	 0.5745562773	-0.5740009808	-1.2760302904	-0.068461
C	 1.9097768287	-1.2254077423	-1.1843876092	 0.042624
O	 2.0240366643	-1.9463007841	 0.0749981991	-0.267091
C	 1.0023480168	-2.8033101717	-0.323591612	 0.427016
O	 0.6219679187	-3.779535618	 0.2361694533	-0.327621
C	 0.7310633808	-2.0732109737	-1.6179539832	 0.063472
C	 0.31426609	-2.7100071002	-2.9108976081	-0.49767
H	 1.2832716168	 1.4936964961	 0.479688589	 0.126356
H	 0.0583642469	 2.0974928481	-0.6456011811	 0.113448
H	-0.3550382962	 1.8366251786	 1.0536407688	 0.119719
H	-0.0293040122	-0.6307895793	 0.7838314881	 0.129119
H	-1.2631008302	-0.0457679004	-0.3217719892	 0.10587
H	 0.4601135902	-0.0003208868	-2.1971541467	 0.098896
H	 2.8341598382	-0.9717938203	-1.6848992455	 0.124965
H	-0.7374415966	-3.0122195746	-2.873555295	 0.142315
H	 0.4311286161	-2.01230811	-3.7454404064	 0.125674
H	 0.9104304611	-3.6023013113	-3.1258553321	 0.137702
65.9305	112.2568	146.8908	167.315	212.8825	241.3559	271.3738	294.3659	419.0514	506.8312	583.554	661.4056	738.553	740.6786	789.2362	828.5076	881.5951	909.456	925.8481	946.9829	1004.2262	1046.8825	1065.0579	1076.6395	1108.7254	1121.3366	1162.95	1248.7226	1271.6956	1295.8961	1339.9867	1376.1753	1412.0282	1418.9215	1467.4018	1481.5422	1485.0921	1497.5127	1499.066	1505.4601	1935.6648	3033.8343	3037.006	3039.3059	3082.9436	3101.5773	3102.4008	3109.7373	3111.7045	3112.8729	3216.5314
CCC1C2OC(=O)C12C	CC[C@H]1[C@H]2OC(=O)[C@@]12C	
InChI=1S/C7H10O2/c1-3-4-5-7(4,2)6(8)9-5/h4-5H,3H2,1-2H3	InChI=1S/C7H10O2/c1-3-4-5-7(4,2)6(8)9-5/h4-5H,3H2,1-2H3/t4-,5+,7-/m0/s1
