16
gdb 25728	2.61059	1.58751	0.99326	3.2042	74.77	-0.2309	-0.0241	0.2068	1136.9387	0.124113	-437.961753	-437.952757	-437.951812	-437.996933	31.689	
C	-0.0005495195	 1.5558001797	 0.1351122452	-0.517897
C	 0.0200833643	 0.0630041606	 0.032154029	 0.164129
C	 0.01153043	-0.6998940314	-1.1054815681	 0.207067
O	 0.0378859968	-2.0362471825	-0.7815576055	-0.201936
C	 0.0624715273	-2.1134721346	 0.5686940377	-0.020877
C	 0.0534457749	-0.871952206	 1.1194963365	-0.252343
C	-0.0192285505	-0.3444052999	-2.5354839024	 0.313595
N	-0.0154829635	-1.4078009193	-3.3900613732	-0.536255
O	-0.0453821047	 0.8152218384	-2.9200603034	-0.375781
H	 0.8879774481	 1.9207401377	 0.6629476589	 0.128211
H	-0.0313032909	 2.0029154788	-0.8577712225	 0.174587
H	-0.872991016	 1.8934253779	 0.7060856128	 0.127942
H	 0.0845846627	-3.1088039658	 0.9821940484	 0.141172
H	 0.0684136963	-0.6374457827	 2.1728668109	 0.117679
H	 0.0012558824	-2.3549455908	-3.0563086439	 0.268518
H	-0.0401801977	-1.2204000002	-4.3775250805	 0.26219
22.9576	84.5677	106.9055	172.1315	201.7519	275.6054	308.5431	424.8175	492.8661	550.3662	624.4401	653.1329	660.0216	681.3987	765.1093	793.8083	839.4851	906.7091	993.9229	1066.1613	1069.0296	1081.4333	1127.2986	1165.0288	1206.0425	1283.6101	1361.5751	1408.6291	1440.8165	1484.2472	1500.6989	1529.3616	1603.7029	1651.034	1764.7725	3032.9746	3081.0467	3162.3773	3249.8926	3279.7211	3615.2577	3755.9264
CC1=C(OC=C1)C(N)=O	Cc1c(occ1)C(=O)N	
InChI=1S/C6H7NO2/c1-4-2-3-9-5(4)6(7)8/h2-3H,1H3,(H2,7,8)	InChI=1S/C6H7NO2/c1-4-2-3-9-5(4)6(7)8/h2-3H,1H3,(H2,7,8)
