19
gdb 97688	2.76551	0.81812	0.70954	1.7066	82.54	-0.2404	0.0279	0.2684	1645.5772	0.15636	-422.961286	-422.950982	-422.950038	-422.997839	36.289	
C	-0.2754056501	 1.4072063231	-0.5022234812	-0.252294
O	-0.1278388588	 0.1417464669	 0.1200716623	-0.264339
C	-1.3087626281	-0.6073156596	 0.1662207361	 0.256626
C	-1.6644735863	-1.4081194769	-1.0799967773	-0.315979
C	-1.0858129036	-2.098072639	 0.1274692438	-0.311322
C	-2.3702043341	-0.0680435965	 0.9778769307	 0.087356
C	-3.234281282	 0.4150559366	 1.6678731263	-0.013933
C	-4.3179309358	 0.9862336987	 2.4637919803	-0.196366
O	-5.1140498678	 1.9310406589	 1.7600776072	-0.401812
H	 0.7070334052	 1.8833430128	-0.4788875577	 0.127617
H	-0.6036058308	 1.3066651714	-1.5466998325	 0.105192
H	-0.9963524419	 2.0376352896	 0.033869137	 0.124816
H	-2.7119581035	-1.5548395753	-1.3149938271	 0.122005
H	-1.0113611411	-1.2629252047	-1.9330154145	 0.125909
H	-0.0477390798	-2.4057784781	 0.081586643	 0.132866
H	-1.7314959878	-2.7205322355	 0.7346718787	 0.126456
H	-4.9337355389	 0.16819587	 2.87164246	 0.118628
H	-3.9070416267	 1.5271097804	 3.323578061	 0.142798
H	-5.3865709181	 1.5177124571	 0.9342853138	 0.285776
31.9193	76.0894	97.5193	128.3892	199.259	214.454	247.2485	274.4362	322.2639	357.9505	423.2768	514.5195	555.0642	583.7467	650.3032	772.5652	842.3568	900.0519	946.8747	953.7702	983.4205	1026.0609	1051.6451	1078.5105	1081.3487	1104.877	1184.9851	1194.0538	1215.5769	1220.5502	1266.1081	1333.0266	1355.9487	1417.6224	1448.0826	1473.8006	1482.964	1486.3048	1487.5915	1510.4823	2342.9152	2973.7061	2996.4246	3057.2568	3062.6804	3125.7657	3140.6428	3147.3848	3229.9527	3245.3553	3816.9299
COC1(CC1)C#CCO	COC1(CC1)C#CCO	
InChI=1S/C7H10O2/c1-9-7(4-5-7)3-2-6-8/h8H,4-6H2,1H3	InChI=1S/C7H10O2/c1-9-7(4-5-7)3-2-6-8/h8H,4-6H2,1H3
