15
gdb 131791	5.25793	0.89879	0.77688	3.1922	68.5	-0.2562	-0.0951	0.1611	1376.8551	0.112328	-450.094197	-450.085936	-450.084992	-450.128534	28.685	
O	 0.0112074671	 1.4747152825	 0.2286800119	-0.413674
C	-0.149293867	 0.1030395537	 0.5459408764	-0.068862
C	-1.0033492923	-0.6120041279	-0.5066302325	-0.308677
C	-1.1881209015	-2.0863890559	-0.2944294834	 0.409491
N	-2.0636907801	-2.7314492924	-1.0731484935	-0.25325
C	-2.1403749362	-4.0275843249	-0.8186125854	 0.111614
N	-1.4435091064	-4.6855808328	 0.1171307471	-0.168156
N	-0.6048791783	-3.9846941113	 0.8552026627	-0.048428
N	-0.4618113052	-2.6853103232	 0.6632081621	-0.220167
H	-0.8370241524	 1.913183605	 0.3490077605	 0.284169
H	 0.8546454393	-0.3266288706	 0.5702359004	 0.137803
H	-0.5788562793	-0.0408871967	 1.547170845	 0.107493
H	-2.0017768762	-0.1600191601	-0.5706062364	 0.128322
H	-0.5551725501	-0.4632744284	-1.4975803857	 0.151563
H	-2.8270911813	-4.6272678069	-1.4108601791	 0.150759
31.1131	87.5284	142.9199	170.0211	295.9015	302.7127	347.3232	410.7975	481.1377	653.1779	709.3645	750.3038	848.1534	877.1756	961.6448	1001.6169	1028.0632	1032.8338	1063.3842	1082.6126	1159.9285	1163.5156	1245.7107	1290.0541	1304.6184	1350.4357	1397.9022	1419.6537	1427.9212	1458.2517	1503.9903	1529.1238	1569.4077	3012.355	3030.9457	3061.1739	3111.6883	3174.8494	3816.9842
OCCC1=NC=NN=N1	OCCc1ncnnn1	
InChI=1S/C4H6N4O/c9-2-1-4-5-3-6-8-7-4/h3,9H,1-2H2	InChI=1S/C4H6N4O/c9-2-1-4-5-3-6-8-7-4/h3,9H,1-2H2
