20
gdb 26115	2.461	1.31168	1.05093	1.5205	82.75	-0.1858	0.0308	0.2167	1247.1521	0.170837	-403.181632	-403.172109	-403.171165	-403.216201	35.509	
C	-0.035050121	 1.5469507228	 0.0169947784	-0.378364
C	-0.0047935164	 0.0058806939	 0.0678578023	-0.093689
C	 0.7146160234	-0.4904836741	 1.3371312207	-0.378
C	-1.3738982158	-0.5800352324	-0.0577739797	 0.334378
C	-2.0068136365	-1.3129594671	-1.0230049854	 0.095516
N	-1.5211543412	-1.7050819998	-2.2837077835	-0.611136
C	-3.3429694932	-1.5477292234	-0.5463527423	-0.22634
C	-3.4216161915	-0.942033403	 0.6649558047	-0.020903
O	-2.2491494744	-0.3456269056	 0.9805496711	-0.199334
H	 0.9772823954	 1.9594936455	 0.0832584743	 0.105589
H	-0.4923669051	 1.9007923034	-0.911424766	 0.118691
H	-0.6195899487	 1.9444380886	 0.8525547046	 0.126554
H	 0.5651692644	-0.3456746964	-0.8031257395	 0.069771
H	 1.7250088915	-0.0732754656	 1.3994354319	 0.106254
H	 0.1650336306	-0.1849742338	 2.2324879291	 0.128938
H	 0.7907302711	-1.5818352861	 1.3471523709	 0.111955
H	-0.5107484373	-1.6751619443	-2.3380860456	 0.239144
H	-1.8307534296	-2.6348682379	-2.5388256001	 0.242068
H	-4.1274858151	-2.0885073799	-1.0531649878	 0.101804
H	-4.2095213209	-0.850536175	 1.394588822	 0.127105
39.4464	124.4845	171.7259	189.2161	223.7943	249.8691	282.1001	288.1034	384.972	415.3208	519.2415	610.3643	628.7397	691.7224	712.3575	739.1363	781.293	807.4645	877.0176	909.9422	926.2611	957.92	1023.9406	1056.4978	1079.0597	1120.5255	1169.1204	1194.3506	1212.7292	1262.9158	1314.3331	1323.1169	1365.6106	1393.4137	1414.6406	1467.131	1485.4493	1491.9942	1500.1145	1511.9108	1549.7354	1648.0245	1685.5475	3010.3599	3032.2751	3036.9336	3102.5039	3107.3036	3112.8094	3116.2455	3247.7984	3279.154	3527.4382	3615.0938
CC(C)C1=C(N)C=CO1	CC(C)c1c(N)cco1	
InChI=1S/C7H11NO/c1-5(2)7-6(8)3-4-9-7/h3-5H,8H2,1-2H3	InChI=1S/C7H11NO/c1-5(2)7-6(8)3-4-9-7/h3-5H,8H2,1-2H3
