18
gdb 108602	2.8549	1.29171	0.90515	4.7334	78.88	-0.2344	-0.0164	0.218	1253.9957	0.146954	-439.110657	-439.101282	-439.100338	-439.145969	33.198	
C	 0.1742281713	 1.5825102107	-0.007329081	-0.497749
C	 0.0126094854	 0.0971873467	 0.0147973018	 0.126344
C	-1.0685506867	-0.696105448	-0.0153719138	 0.169892
C	-2.5330731142	-0.4081243535	-0.090035203	-0.178318
O	-2.8029736329	 0.9709125059	 0.0595889919	-0.403239
C	-0.6174189304	-2.134521578	 0.0279300067	-0.173962
O	 0.8050506957	-2.0851968888	 0.0811571452	-0.250078
C	 1.206050658	-0.7715230066	 0.0784728154	 0.362121
N	 2.4101938303	-0.3814819922	 0.1206964958	-0.547936
H	 0.8380477805	 1.8681664403	-0.8300083355	 0.139423
H	-0.7820569902	 2.0896904285	-0.108686568	 0.14684
H	 0.6703853471	 1.9175589079	 0.9100749338	 0.139346
H	-2.913821998	-0.7882634482	-1.0554664091	 0.107469
H	-3.0442874063	-1.000566318	 0.6903333154	 0.103015
H	-3.7476603392	 1.1052296689	-0.0576684364	 0.294315
H	-0.9937096501	-2.6683628749	 0.912277195	 0.121672
H	-0.9248984988	-2.7058674626	-0.8596816876	 0.120783
H	 3.0465068085	-1.1787993182	 0.1585435933	 0.22006
24.9421	96.2812	127.0132	201.2016	210.9329	233.961	270.6837	289.9896	382.8508	465.9577	500.145	612.3105	670.4485	732.1633	765.1897	867.7149	905.7241	961.04	1010.722	1057.6244	1067.485	1071.5558	1103.7058	1112.1027	1160.7141	1202.194	1223.4322	1252.5166	1270.4445	1353.9689	1393.19	1413.7665	1471.1213	1483.4306	1484.9033	1504.4595	1510.169	1737.6748	1755.5795	2934.8024	2946.0727	2998.1695	3024.0714	3045.8931	3091.6248	3184.6575	3483.366	3837.1698
CC1=C(CO)COC1=N	CC1=C(OC[C]1CO)[NH]	
InChI=1S/C6H9NO2/c1-4-5(2-8)3-9-6(4)7/h7-8H,2-3H2,1H3	InChI=1S/C6H9NO2/c1-4-5(2-8)3-9-6(4)7/h7-8H,2-3H2,1H3
