14
gdb 12298	3.15275	2.3614	1.40602	5.0203	60.13	-0.2445	-0.0464	0.1981	831.1031	0.10994	-415.898887	-415.89214	-415.891196	-415.93004	25.092	
N	-0.0992605516	 1.2075722358	-0.449831927	-0.506028
C	-0.0497159845	-0.009996479	-0.0819798084	 0.231426
N	-1.1864127265	-0.7440773004	 0.1691670895	-0.326385
C	-1.0959637133	-1.9653525661	 0.9434924645	-0.185844
C	 0.0462935703	-2.7827338987	 0.3730832442	-0.065487
O	 1.2814814695	-2.048260308	 0.4007402514	-0.229655
C	 1.287528483	-0.7355956342	 0.0852424081	 0.384293
O	 2.3283840459	-0.1501441125	-0.0309483568	-0.317668
H	 0.8538566504	 1.5363422609	-0.6091049903	 0.244498
H	-2.0259344329	-0.1865712908	 0.2407567296	 0.255615
H	-0.9266714556	-1.782112219	 2.0164714135	 0.120724
H	-2.0282178065	-2.5290902062	 0.8431023845	 0.128718
H	 0.2297127105	-3.6836180594	 0.9615155205	 0.134245
H	-0.1713820088	-3.0687759523	-0.6622460232	 0.131547
97.7889	134.0941	301.2896	359.2389	431.6054	454.4437	495.5609	549.6018	599.299	699.4901	720.7846	800.525	904.0073	918.6426	991.1741	1020.0233	1112.7232	1124.2446	1179.0598	1207.4233	1257.3863	1285.8622	1383.7862	1417.4888	1435.5928	1471.2213	1503.932	1508.8198	1725.7387	1841.3826	2981.0569	3047.8024	3086.4007	3122.7448	3487.6295	3600.0598
N=C1NCCOC1=O	[NH][C]1NCCOC1=O	
InChI=1S/C4H6N2O2/c5-3-4(7)8-2-1-6-3/h1-2H2,(H2,5,6)	InChI=1S/C4H6N2O2/c5-3-4(7)8-2-1-6-3/h1-2H2,(H2,5,6)
