23
gdb 111850	2.34329	1.36964	1.1096	1.2715	85.56	-0.2275	0.0803	0.3077	1257.2152	0.205811	-388.291537	-388.282122	-388.281178	-388.325551	35.897	
C	 0.111819465	 1.4224149286	 0.2145215458	-0.374466
C	-0.2461627657	-0.0241513549	-0.1473184985	-0.200883
C	 0.5819397742	-0.5668183328	-1.2917170307	-0.062325
C	 2.0030970186	-1.1086400935	-1.1305277088	-0.132516
C	 2.4822897251	-1.525345086	 0.2593899443	-0.256534
C	 1.7612584674	-2.8728977799	 0.4752567594	-0.072605
O	 0.6012413385	-2.849793921	-0.3597326283	-0.297905
C	 0.8694488837	-2.0362413226	-1.4870114454	 0.40124
C	 0.6932178632	-2.7419549606	-2.804339914	-0.462788
H	 1.1576740635	 1.5065943209	 0.5287304825	 0.116017
H	-0.0260372703	 2.0907675067	-0.6427711878	 0.111258
H	-0.5162775153	 1.794267502	 1.0303923928	 0.109229
H	-0.1420069664	-0.6706573606	 0.7288726358	 0.105003
H	-1.3062460561	-0.0782894764	-0.4271379671	 0.096738
H	 0.4425221186	-0.0190253473	-2.2232407926	 0.074908
H	 2.7443289698	-0.8249816297	-1.8694243887	 0.08332
H	 3.5691876079	-1.6414025299	 0.2861173711	 0.102697
H	 2.2140995879	-0.7982286275	 1.0325239433	 0.108371
H	 2.4141672193	-3.7118072461	 0.1883298354	 0.091517
H	 1.4282640201	-3.0365977772	 1.5045627862	 0.103659
H	-0.3394676212	-3.0864698093	-2.9251654525	 0.125714
H	 0.9261165907	-2.0705051726	-3.6361442319	 0.113177
H	 1.3500440417	-3.6160184105	-2.8718781204	 0.117176
87.2077	119.5818	151.3309	196.4314	208.7448	229.7503	275.1169	300.8914	342.6056	522.4242	541.3449	636.5015	646.289	727.5627	778.5469	809.7829	842.2147	875.8698	921.9085	936.4164	964.9226	969.3329	1026.5031	1053.7894	1060.6766	1095.0466	1111.6128	1130.8032	1133.1365	1168.9811	1220.683	1227.6503	1240.0292	1262.2193	1288.5826	1315.0761	1329.1113	1369.0694	1387.9856	1410.8395	1414.0167	1461.476	1478.9281	1484.1453	1497.3026	1500.1855	1504.4682	1509.3313	1521.4337	2981.1296	3026.774	3029.9306	3030.5581	3050.2897	3075.6704	3078.5845	3094.044	3096.0305	3099.256	3101.8181	3108.2802	3114.1843	3165.9811
CCC1C2CCOC12C	CC[C@H]1[C@H]2CCO[C@@]12C	
InChI=1S/C8H14O/c1-3-6-7-4-5-9-8(6,7)2/h6-7H,3-5H2,1-2H3	InChI=1S/C8H14O/c1-3-6-7-4-5-9-8(6,7)2/h6-7H,3-5H2,1-2H3/t6-,7+,8-/m0/s1
