21
gdb 123241	11.2069	0.38402	0.37869	3.7088	78.42	-0.2539	-0.0255	0.2284	2750.189	0.178744	-461.353175	-461.341835	-461.340891	-461.39215	37.349	
O	-0.1706781548	 1.453906274	 0.097196027	-0.418588
C	-0.0232166376	 0.0586197123	-0.1119655547	-0.07205
C	-1.3863416191	-0.5859175997	 0.1035815109	-0.183241
C	-1.3582963429	-2.095085342	-0.089885321	-0.058829
O	-2.6621781959	-2.5964548731	 0.1276608456	-0.243445
C	-2.7553865182	-3.9922845457	-0.0272351197	-0.059732
C	-4.2113368201	-4.3992270548	 0.2016327369	-0.280059
C	-4.3753766762	-5.8985547681	 0.2937650741	 0.153576
O	-5.1262750387	-6.5541935769	-0.380430005	-0.232531
H	 0.685051315	 1.8707940582	-0.0386545049	 0.286588
H	 0.3360840974	-0.1559468677	-1.1321629233	 0.086121
H	 0.7114447855	-0.3738502164	 0.5875751158	 0.08537
H	-1.7360360338	-0.3560270278	 1.1155076579	 0.117427
H	-2.1065962732	-0.1448303027	-0.5932781684	 0.118807
H	-1.0176938975	-2.351062569	-1.1081807238	 0.088075
H	-0.6484314015	-2.5650108239	 0.6131284623	 0.08594
H	-2.4273554432	-4.2959717933	-1.0354487297	 0.100778
H	-2.0965337367	-4.5072582661	 0.6945922416	 0.088952
H	-4.5279129107	-3.9668782037	 1.1611662862	 0.133027
H	-4.8609578014	-4.0092187481	-0.5849971138	 0.13158
H	-3.7311970263	-6.3832836455	 1.0657124462	 0.072233
32.8648	49.5718	66.4703	85.0926	101.4938	136.1453	149.3644	207.0413	265.2437	265.8241	346.7338	459.4276	498.0992	546.6813	779.1977	790.0215	869.8175	891.5429	983.075	1016.8708	1039.475	1061.7575	1087.364	1125.0686	1138.9812	1164.5279	1178.2298	1222.5906	1238.4926	1244.7436	1276.8057	1303.2315	1305.7098	1308.3781	1319.7931	1401.3414	1432.0148	1455.1495	1467.0373	1467.2369	1498.7714	1514.8115	1529.3567	1539.8927	1838.3939	2848.9266	2940.217	2950.5809	2958.459	2970.4388	2979.1158	2981.6343	3027.3619	3052.9259	3099.5096	3119.1124	3831.5343
OCCCOCCC=O	OCCCOCCC=O	
InChI=1S/C6H12O3/c7-3-1-5-9-6-2-4-8/h3,8H,1-2,4-6H2	InChI=1S/C6H12O3/c7-3-1-5-9-6-2-4-8/h3,8H,1-2,4-6H2
