16
gdb 18614	2.87564	2.44456	1.9119	2.502	63.87	-0.2388	-0.0052	0.2336	761.3436	0.131686	-383.722246	-383.715409	-383.714465	-383.752829	27.334	
O	-0.067744368	 1.4516594132	-0.0200902088	-0.430739
C	-0.0776914219	 0.0452412931	-0.0026270239	 0.104658
C	-0.4361198132	-0.7532601787	 1.2359656167	-0.139892
C	-1.1397304971	 0.0292802042	 2.3013468294	-0.110395
C	-2.3053862979	 0.5147649607	 1.8674421427	-0.123793
C	-2.6173379511	 0.0819922672	 0.4368809345	 0.097609
O	-2.9196921135	 1.1591408762	-0.4359274099	-0.444183
C	-1.3722882884	-0.7235640592	 0.0314259686	-0.135418
H	-0.2617085665	 1.7553979626	 0.8765564734	 0.288186
H	 0.716865731	-0.3526165921	-0.6260310833	 0.110781
H	 0.1643023706	-1.6168868541	 1.4980260922	 0.093665
H	-0.7069457884	 0.1992124372	 3.2814165306	 0.105528
H	-2.9761095434	 1.1649004208	 2.4174933781	 0.107244
H	-3.5100730498	-0.5553509744	 0.4241896089	 0.093508
H	-2.0835792245	 1.6236552704	-0.5820021941	 0.290988
H	-1.4919288778	-1.5765065071	-0.625339655	 0.092255
161.881	197.8377	269.8273	313.1522	348.9177	490.9292	565.3312	599.6604	610.4478	735.1463	756.8125	769.606	789.4958	838.2262	894.0967	947.7948	974.0308	999.0449	1036.96	1047.5191	1059.984	1080.7533	1105.1362	1133.0309	1187.3382	1264.0861	1291.9935	1304.1542	1326.5135	1356.7258	1369.019	1425.611	1456.7183	1662.1475	3030.2084	3158.9329	3172.8011	3183.2425	3187.5874	3211.8822	3733.7273	3755.0158
OC1C2C=CC(O)C12	O[C@H]1[C@H]2C=C[C@@H](O)[C@@H]12	
InChI=1S/C6H8O2/c7-4-2-1-3-5(4)6(3)8/h1-8H	InChI=1S/C6H8O2/c7-4-2-1-3-5(4)6(3)8/h1-8H/t3-,4+,5-,6-/m0/s1
