19
gdb 69262	2.64424	1.53	1.15479	4.4285	76.19	-0.2431	0.0146	0.2578	1106.1232	0.16175	-419.23579	-419.227634	-419.22669	-419.26824	31.844	
C	-0.0349670549	 1.5065150401	 0.0161001829	-0.451003
C	 0.0004163785	-0.0057897864	 0.0165506756	 0.309686
C	-1.2094610544	-0.6862954013	-0.6042261919	-0.263698
C	-1.1165439121	-2.2150910091	-0.5731939676	-0.201105
N	-0.7402312039	-2.6874010393	 0.747680346	-0.322481
C	 0.1079566531	-2.0494477193	 1.6151346504	 0.407351
O	 0.3860514917	-2.511286573	 2.7069405294	-0.379193
C	 0.6546524225	-0.7289702072	 1.1511535779	-0.152883
N	 1.3318750802	-0.5916589915	-0.1630330611	-0.371887
H	 0.8696041115	 1.9094467839	 0.4768448517	 0.135231
H	-0.0934551455	 1.8918611984	-1.0081370204	 0.119955
H	-0.9053968629	 1.8772706193	 0.5680045794	 0.119751
H	-2.1042410534	-0.3647721205	-0.0573082331	 0.118268
H	-1.334506841	-0.3588866968	-1.6433007404	 0.1106
H	-2.0879964269	-2.6454259965	-0.8339023094	 0.120534
H	-0.4102016063	-2.5656922836	-1.3421563492	 0.108379
H	-1.0458943555	-3.5981327304	 1.0549920252	 0.249508
H	 1.1288224217	-0.1781569413	 1.9569625151	 0.108843
H	 1.2988131576	-1.4696644557	-0.6755623305	 0.234144
104.1021	153.7693	209.8995	259.2722	288.7361	369.6377	380.0856	449.0053	481.3981	504.0638	549.4837	657.2581	682.0587	760.7035	816.2853	825.8312	906.2195	936.0286	986.7345	1024.9136	1031.3715	1045.5732	1109.4836	1119.771	1148.8066	1174.0167	1244.5724	1259.3494	1276.5761	1314.9038	1353.3782	1368.121	1404.5448	1412.8971	1433.8943	1472.4987	1483.7329	1489.3454	1498.6015	1528.6053	1786.14	2970.3082	3028.3489	3034.1477	3068.3064	3076.351	3095.1502	3128.2451	3169.7557	3502.4276	3625.3668
CC12CCNC(=O)C1N2	C[C@]12CCNC(=O)[C@H]1N2	
InChI=1S/C6H10N2O/c1-6-2-3-7-5(9)4(6)8-6/h4,8H,2-3H2,1H3,(H,7,9)	InChI=1S/C6H10N2O/c1-6-2-3-7-5(9)4(6)8-6/h4,8H,2-3H2,1H3,(H,7,9)/t4-,6+/m1/s1
