19
gdb 28429	2.99839	1.36407	0.94946	2.5761	89.	-0.201	-0.0067	0.1943	1251.0439	0.160025	-382.148737	-382.139724	-382.138779	-382.182405	34.096	
C	-0.070110509	 1.5053847994	 0.0386212774	-0.46701
C	-0.0243242946	-0.0001834886	-0.0213312653	 0.298279
C	-0.0400708989	-0.6959606384	-1.2283982721	-0.162631
C	 0.0013271705	-2.084144988	-1.2156170272	-0.145659
C	 0.0640242926	-2.7594199074	 0.0021307783	 0.22807
N	 0.1739084666	-4.1521858903	 0.064281052	-0.593259
C	 0.0794876021	-1.9781632551	 1.1785692794	 0.277825
C	 0.1568268832	-2.6391659172	 2.5304232252	-0.500308
N	 0.0334241597	-0.6474475095	 1.1513872173	-0.365623
H	 0.8145276156	 1.899755649	 0.5497154694	 0.132296
H	-0.1161686832	 1.9460668641	-0.9608151037	 0.111052
H	-0.9429351388	 1.844478785	 0.6065795745	 0.131326
H	-0.0883582964	-0.1592568708	-2.1699531408	 0.088887
H	-0.0122710734	-2.6455851109	-2.1460916182	 0.085767
H	-0.1415742755	-4.6300261316	-0.7682216989	 0.24392
H	-0.2209745495	-4.5720674332	 0.893355807	 0.247637
H	 1.0346994805	-3.2922810753	 2.6077685072	 0.131495
H	 0.2141530796	-1.8721447437	 3.3032935925	 0.141532
H	-0.7260780509	-3.2621246574	 2.7328269059	 0.116405
56.5914	127.6112	177.7793	209.9186	280.6027	304.3903	317.8642	352.3963	459.4911	471.2291	490.6518	578.5259	588.3299	643.8676	719.0598	767.9195	785.1066	851.361	944.875	953.2369	982.0155	1042.5954	1052.0511	1061.5684	1087.5561	1169.9024	1222.4023	1280.2447	1299.0562	1341.7435	1397.83	1409.6614	1438.8828	1476.5613	1484.6389	1487.4728	1498.9774	1505.0304	1620.9231	1633.9055	1659.7435	3006.3242	3034.7997	3059.6677	3092.1095	3116.8183	3145.0751	3157.7439	3185.7638	3556.9045	3654.2536
CC1=CC=C(N)C(C)=N1	Cc1ccc(N)c(C)n1	
InChI=1S/C7H10N2/c1-5-3-4-7(8)6(2)9-5/h3-4H,8H2,1-2H3	InChI=1S/C7H10N2/c1-5-3-4-7(8)6(2)9-5/h3-4H,8H2,1-2H3
