15
gdb 94535	2.91965	1.24398	1.03733	0.4433	62.47	-0.253	-0.1145	0.1385	1141.2091	0.110497	-494.879399	-494.870841	-494.869896	-494.91397	29.926	
O	 0.5913495205	 1.3419325213	 0.2718457397	-0.427642
C	 0.221492522	 0.0078378508	 0.1626456393	 0.093412
C	-0.3385612747	-0.7649933422	 1.3830249981	-0.121561
O	-1.4084199981	-1.319315239	 0.5700329378	-0.290108
C	-1.121767842	-0.396188077	-0.5149100349	-0.036569
C	-2.2220108076	 0.6504318596	-0.4647206634	 0.313325
O	-2.1805918135	 1.6572823949	 0.2128457282	-0.307232
C	-3.5040319434	 0.3687722276	-1.2587892563	 0.10362
O	-3.6028716161	-0.5324548026	-2.0469040678	-0.206307
H	-0.1944090007	 1.8345057118	 0.5484660238	 0.300424
H	 1.0585706757	-0.5203900994	-0.2996607212	 0.11416
H	 0.2784825307	-1.5537216808	 1.8233037787	 0.120739
H	-0.7227123023	-0.1078762557	 2.1734506293	 0.113918
H	-1.0986067976	-0.9007252629	-1.4837497244	 0.113717
H	-4.312147443	 1.1002744736	-1.0498917069	 0.116105
29.4361	108.3383	129.0598	165.0444	230.0158	247.5116	382.6539	441.2167	543.0566	562.9444	596.0918	650.7126	706.065	819.5082	878.3342	971.0187	988.7933	1002.8312	1028.2073	1056.2455	1152.6048	1154.9284	1178.3785	1250.1509	1265.9005	1315.9098	1353.3235	1362.7733	1378.7803	1466.2697	1512.8877	1781.6763	1825.7904	2932.6516	3024.6878	3081.5786	3089.6712	3100.8788	3736.7512
OC1COC1C(=O)C=O	O[C@H]1CO[C@H]1C(=O)C=O	
InChI=1S/C5H6O4/c6-1-3(7)5-4(8)2-9-5/h1,4-5,8H,2H2	InChI=1S/C5H6O4/c6-1-3(7)5-4(8)2-9-5/h1,4-5,8H,2H2/t4-,5-/m0/s1
