22
gdb 101621	3.37699	0.69662	0.66668	3.805	83.15	-0.2757	0.0376	0.3133	1753.5253	0.192147	-404.369	-404.357903	-404.356959	-404.405849	39.339	
C	 0.0868407818	 1.5443993757	-0.0026251515	-0.398441
C	 0.0454105351	 0.0115557058	 0.0536404375	 0.021262
C	 0.7391784635	-0.5025002797	 1.318713705	-0.082844
O	 2.1001970031	-0.101957802	 1.2712410083	-0.422905
C	-1.3826155546	-0.5565533095	-0.0060062906	-0.193705
C	-2.1717516548	-0.2145190067	-1.2948301052	-0.154347
C	-1.5416328845	-0.7927330022	-2.5771330338	-0.39158
C	-3.5534291721	-0.6893712477	-1.156487139	 0.267832
N	-4.6374229473	-1.0744194237	-1.0424049024	-0.325396
H	 1.1079749872	 1.8947691773	 0.1604037825	 0.140928
H	-0.251422088	 1.9313745509	-0.9686188411	 0.111317
H	-0.5513369543	 1.9811686953	 0.7755030449	 0.111707
H	 0.626800419	-0.3842760419	-0.7888593458	 0.090297
H	 0.2335689783	-0.0935107777	 2.2095172176	 0.087001
H	 0.6528560008	-1.5998360062	 1.3667218786	 0.086577
H	 2.5190004502	-0.3521451181	 2.0995436979	 0.289445
H	-1.3496898237	-1.6486564323	 0.0919932986	 0.111166
H	-1.9532297007	-0.1854443932	 0.8542954695	 0.114991
H	-2.2282053923	 0.876071264	-1.3945449165	 0.130398
H	-2.1585623595	-0.5648246466	-3.4496773338	 0.137895
H	-0.5492486431	-0.3663211715	-2.7401770556	 0.132702
H	-1.4434014841	-1.8797627803	-2.5035355752	 0.135699
43.6394	73.9214	108.5509	129.7354	189.1992	222.7452	228.7509	244.324	270.3422	288.0064	338.0452	379.4128	421.2334	493.7325	558.6406	595.0345	801.4818	846.2695	880.3011	914.9974	931.6671	959.5607	1026.4195	1050.6313	1078.7195	1111.929	1127.8673	1168.4912	1178.5684	1233.6778	1258.4975	1273.7292	1304.6548	1338.4505	1340.6664	1383.069	1389.4211	1407.0776	1415.9885	1457.8208	1482.5836	1491.8808	1497.7139	1501.7493	1510.1983	1521.9272	2355.1125	2957.7382	2988.2518	3023.6354	3027.0183	3033.8996	3042.7553	3051.3338	3069.9658	3095.7343	3125.4802	3132.0331	3132.2496	3836.2108
CC(CO)CC(C)C#N	C[C@@H](CO)C[C@@H](C)C#N	
InChI=1S/C7H13NO/c1-6(4-8)3-7(2)5-9/h6-7,9H,3,5H2,1-2H3	InChI=1S/C7H13NO/c1-6(4-8)3-7(2)5-9/h6-7,9H,3,5H2,1-2H3/t6-,7-/m1/s1
