16
gdb 54901	3.92748	1.0523	0.93258	6.0449	72.22	-0.2395	-0.0498	0.1897	1231.621	0.124552	-437.955313	-437.946879	-437.945934	-437.9894	30.784	
N	-0.0739538819	 1.3725959229	-0.26987813	-0.521468
C	 0.0729215571	 0.0643116228	 0.090159307	 0.400941
O	 1.1425290769	-0.4123519024	 0.4072669125	-0.344822
C	-1.2440467406	-0.7354933836	 0.1227241738	-0.166792
C	-1.0314924387	-2.2560256235	 0.0624492326	-0.353939
C	-1.7586423847	-2.8263591876	 1.2885839302	 0.379019
O	-1.9141824641	-3.9958207378	 1.5452928224	-0.324929
C	-2.2325968725	-1.6649250237	 2.0841326418	-0.169814
C	-1.9617806584	-0.5232459825	 1.4464635881	-0.051797
H	 0.7564032755	 1.9386821169	-0.3401973153	 0.266019
H	-0.9264252247	 1.7248960719	-0.668730125	 0.260034
H	-1.8836882975	-0.3792097965	-0.6960462638	 0.093208
H	-1.408136832	-2.7169858336	-0.8532790008	 0.126656
H	 0.0348015427	-2.4857228958	 0.1457735597	 0.168324
H	-2.7385769685	-1.7770595152	 3.034255817	 0.120081
H	-2.2042013586	 0.4728462477	 1.8013133797	 0.119279
42.9293	62.4052	170.3987	231.5719	248.7789	341.0409	364.9705	478.1427	524.9638	569.2548	610.0167	685.9415	701.4677	770.8509	798.8893	829.7316	842.4755	968.8469	982.5395	1001.9312	1049.6561	1091.3102	1115.636	1176.3627	1188.1316	1228.5568	1273.3714	1284.6192	1358.0784	1373.9013	1445.1922	1620.0767	1649.6205	1806.394	1822.2124	3012.8134	3072.7962	3122.8799	3189.9117	3230.3329	3599.185	3733.6081
NC(=O)C1CC(=O)C=C1	NC(=O)[C@H]1CC(=O)C=C1	
InChI=1S/C6H7NO2/c7-6(9)4-1-2-5(8)3-4/h1-2,4H,3H2,(H2,7,9)	InChI=1S/C6H7NO2/c7-6(9)4-1-2-5(8)3-4/h1-2,4H,3H2,(H2,7,9)/t4-/m1/s1
