20
gdb 87457	2.80725	1.36502	1.24069	1.9916	80.05	-0.2336	0.07	0.3036	1126.6051	0.170682	-403.072454	-403.063928	-403.062984	-403.10513	33.612	
C	-0.0500915482	 1.5186599449	-0.1180705692	-0.391898
C	-0.0275791734	 0.0197258825	 0.0565070171	-0.13838
N	 1.3096589429	-0.6436587533	-0.0997440082	-0.440784
C	 0.6327423927	-0.6564192662	 1.1780578271	 0.439906
C	 1.1722420183	-0.2662234151	 2.5681693434	-0.142352
C	-0.1935480125	-0.7614490485	 3.1363962147	-0.284245
C	 0.2435075301	-1.8290629137	 2.0786574222	 0.296155
O	-0.4372546446	-2.9361148131	 1.6133386195	-0.477059
C	 1.688757739	-1.7344837504	 2.680265986	-0.291752
H	 0.8316314731	 1.9723114987	 0.3421072479	 0.123585
H	-0.0530667648	 1.787615988	-1.1798604239	 0.119681
H	-0.9444435395	 1.9528557522	 0.3425173727	 0.113495
H	-0.8723668068	-0.5092265875	-0.3841661368	 0.092022
H	 1.1988280128	-1.5422891227	-0.5662005889	 0.233005
H	 1.7086595467	 0.6353141228	 2.8491699251	 0.088682
H	-0.1837413822	-1.083429524	 4.1814844465	 0.085162
H	-1.0770026802	-0.165576905	 2.8969123097	 0.097943
H	-0.5260545532	-3.5727631198	 2.3303836332	 0.286516
H	 2.5139283057	-2.0130224055	 2.0222515929	 0.107056
H	 1.8191534244	-2.1204208143	 3.6956588089	 0.083261
130.914	154.2589	178.3708	219.615	238.4937	271.8321	390.214	445.1914	469.3384	490.6259	617.1333	642.0742	672.6725	791.1361	803.8282	826.6497	896.1831	925.7573	942.5482	954.6611	999.8335	1026.3101	1041.6964	1053.5872	1067.4554	1088.0376	1111.2296	1130.4585	1132.6992	1179.1663	1199.7698	1204.0758	1229.1963	1257.0648	1294.7349	1336.8066	1384.1446	1411.576	1482.211	1486.6919	1493.02	1512.683	1560.9886	3032.2589	3051.3043	3055.7708	3094.0251	3104.6558	3123.9104	3125.6658	3130.7657	3163.3382	3479.687	3814.496
CC1NC11C2CC1(O)C2	C[C@H]1N[C@]21[C@H]1C[C@]2(O)C1	
InChI=1S/C7H11NO/c1-4-7(8-4)5-2-6(7,9)3-5/h4-5,8-9H,2-3H2,1H3	InChI=1S/C7H11NO/c1-4-7(8-4)5-2-6(7,9)3-5/h4-5,8-9H,2-3H2,1H3/t4-,5-,6-,7-/m1/s1
