21
gdb 96087	2.44414	1.49167	1.08237	1.9132	77.91	-0.2482	0.0723	0.3205	1166.9955	0.183359	-424.22359	-424.214921	-424.213977	-424.256357	34.723	
O	-0.089619681	 1.4250828344	-0.0149377119	-0.438298
C	-0.0149531541	 0.0013789224	 0.0197359186	 0.107394
C	 0.8196767519	-0.5033117088	 1.204859014	-0.240192
C	 0.7064127992	-2.0256822774	 1.3357324593	-0.202201
C	-0.7297895453	-2.4522986222	 1.6844127247	-0.280968
C	-1.7966177374	-1.7404388313	 0.846094418	 0.388038
O	-2.7163861517	-2.5916578186	 0.2057248555	-0.47279
C	-2.3036241033	-0.3843404021	 1.270002036	-0.338792
C	-1.4323728195	-0.5244691298	 0.0365893442	-0.038875
H	 0.8093873505	 1.7629778062	-0.0855152919	 0.276016
H	 0.462100755	-0.3671476559	-0.9048055917	 0.063986
H	 1.8653549859	-0.2052222131	 1.0581295682	 0.083437
H	 0.4791566385	-0.0090512537	 2.1235938525	 0.103023
H	 1.0016785722	-2.4870304287	 0.3842359541	 0.102003
H	 1.4011845855	-2.4011700992	 2.094280301	 0.09389
H	-0.8453694241	-3.5268219597	 1.5133743892	 0.104101
H	-0.9136251606	-2.2771337961	 2.7522379653	 0.095901
H	-3.305963149	-2.9450804972	 0.8811346237	 0.277642
H	-3.3530378857	-0.1701865484	 1.1010161223	 0.108361
H	-1.8805063578	 0.0771563824	 2.1562038274	 0.110947
H	-1.9600026291	-0.4322526934	-0.9068561986	 0.097377
99.3558	158.1983	249.4455	277.712	293.3876	301.1753	370.8948	381.8564	417.6435	431.7912	477.2365	574.6043	588.7754	715.143	774.9432	864.9148	890.1659	905.6893	911.237	931.687	969.6047	994.2295	1040.6868	1053.8833	1065.9742	1094.1677	1111.5489	1124.8446	1172.4446	1213.5656	1225.387	1257.6225	1272.3026	1294.1041	1332.0151	1347.4824	1366.9713	1378.2829	1388.3162	1415.7971	1438.0662	1476.9224	1490.8644	1494.4062	1505.8711	2945.7923	3018.6493	3021.3401	3023.3992	3060.6142	3071.7336	3083.6873	3131.5613	3166.4956	3220.8323	3792.469	3807.6023
OC1CCCC2(O)CC12	O[C@H]1CCC[C@@]2(O)C[C@@H]12	
InChI=1S/C7H12O2/c8-6-2-1-3-7(9)4-5(6)7/h5-6,8-9H,1-4H2	InChI=1S/C7H12O2/c8-6-2-1-3-7(9)4-5(6)7/h5-6,8-9H,1-4H2/t5-,6-,7+/m0/s1
