18
gdb 43945	3.38288	1.47942	1.4371	2.7897	77.57	-0.2589	0.0147	0.2735	982.8618	0.149722	-401.851507	-401.84476	-401.843815	-401.882392	28.291	
N	 0.1882031318	 1.3129924986	-0.5836265509	-0.54576
C	 0.0710625636	 0.1479925951	-0.1494527024	 0.334317
O	 1.0817422978	-0.7877899506	 0.2295919959	-0.333708
C	 0.0208333589	-1.5173549944	 0.9637857781	 0.386114
C	-0.8578227262	-2.8131177327	 1.0010179301	-0.321566
C	-1.997410963	-1.6694774147	 1.1052176344	-0.087936
C	-1.7253733067	-1.0758776902	 2.4907385857	-0.204219
C	-0.177454075	-0.9464591133	 2.3855308042	-0.251482
C	-1.029497707	-0.8956318252	 0.1110041314	-0.082687
H	 1.1700780917	 1.584570832	-0.6635399062	 0.235956
H	-0.9010321263	-3.3620421233	 0.0612862986	 0.122637
H	-0.75718814	-3.4906365552	 1.8538751762	 0.104024
H	-3.0250863924	-1.8961877105	 0.8233888324	 0.085734
H	-2.2187492658	-0.1121728696	 2.6362181761	 0.115429
H	-2.0503112866	-1.7479244984	 3.289924027	 0.103945
H	 0.3626949416	-1.5278478341	 3.13697741	 0.104779
H	 0.1613917473	 0.089828861	 2.4474605134	 0.117316
H	-1.0759206934	-1.4380728545	-0.8393876839	 0.117106
129.5572	220.7026	333.5524	403.9615	422.2478	506.9458	545.2205	565.8862	629.5446	715.8421	777.2657	790.9631	823.5776	850.6164	879.1989	897.8708	919.0009	954.3038	962.1249	979.7757	1020.1856	1040.2606	1072.7638	1098.5959	1129.6243	1142.1831	1185.1781	1202.27	1219.5393	1235.0416	1244.2634	1269.0746	1318.3061	1320.9611	1392.1478	1489.6562	1492.1766	1516.3747	1814.3557	3042.6738	3059.2787	3062.496	3070.3291	3101.9119	3121.1761	3125.3549	3154.034	3472.0641
N=C1OC23CC(CC2)C13	[NH][C]1O[C@@]23C[C@@H](CC2)[C@@H]13	
InChI=1S/C7H9NO/c8-6-5-4-1-2-7(5,3-4)9-6/h4-5,8H,1-3H2	InChI=1S/C7H9NO/c8-6-5-4-1-2-7(5,3-4)9-6/h4-5,8H,1-3H2/t4-,5+,7-/m1/s1
