21
gdb 58711	2.10612	1.46941	1.25227	3.3992	82.9	-0.2321	0.0309	0.2629	1165.8828	0.182077	-383.262233	-383.25261	-383.251666	-383.29625	35.906	
C	 0.0498984728	 1.4048223429	-0.1664461622	-0.342077
N	-0.0078073985	-0.0343381896	 0.0699309023	-0.09707
C	 0.6392830316	-0.4053659592	 1.3245261859	-0.342082
C	-1.3458020847	-0.5808432854	-0.0646793952	 0.189941
C	-1.9825911932	-0.515300187	-1.4924832884	-0.265195
C	-2.4704236693	-1.975746152	-1.3138958061	-0.228995
C	-1.4538287153	-2.1392215536	-0.1551979112	-0.265189
C	-2.278322102	-0.0448032046	 0.9550211763	 0.257754
N	-2.9594267955	 0.4078319039	 1.7737689916	-0.360753
H	 1.0969831769	 1.7207790094	-0.1840990085	 0.123645
H	-0.3915208529	 1.6415572061	-1.1385360097	 0.125551
H	-0.4750697676	 1.9939295689	 0.6049573024	 0.120749
H	 0.159757213	 0.0439526462	 2.2110196393	 0.120754
H	 0.6289803852	-1.4924545	 1.4427745282	 0.125551
H	 1.6825356561	-0.0776344994	 1.2972858921	 0.123645
H	-2.72746609	 0.2598281513	-1.6762523533	 0.119251
H	-1.1789033802	-0.439190427	-2.2284449223	 0.120073
H	-3.5032186991	-2.0216684911	-0.9612761871	 0.125082
H	-2.36202156	-2.644458974	-2.1688001248	 0.110052
H	-0.4966751402	-2.5344614937	-0.5030281991	 0.120068
H	-1.7720044071	-2.674513102	 0.7401570998	 0.119245
100.5196	121.0241	148.5907	194.9851	214.7021	239.7879	243.0853	299.2516	359.2884	430.741	438.3237	513.9854	588.6185	634.0836	685.2758	799.9985	815.1612	889.2455	940.7651	944.2036	992.2652	1041.0861	1062.141	1072.3763	1125.3298	1142.6331	1176.2746	1193.079	1206.4245	1254.9204	1261.7413	1267.0886	1283.3401	1288.8739	1314.4963	1443.8296	1467.7559	1471.4969	1481.025	1484.6685	1497.304	1500.9236	1504.6333	1517.9755	2330.5267	2961.924	2968.0313	3071.7348	3073.4301	3073.7781	3075.603	3078.3399	3113.7489	3116.2279	3123.4681	3137.7947	3144.6739
CN(C)C1(CCC1)C#N	CN(C)C1(CCC1)C#N	
InChI=1S/C7H12N2/c1-9(2)7(6-8)4-3-5-7/h3-5H2,1-2H3	InChI=1S/C7H12N2/c1-9(2)7(6-8)4-3-5-7/h3-5H2,1-2H3
