16
gdb 37156	4.07237	1.89971	1.66206	0.7506	70.62	-0.2356	0.0549	0.2905	819.3883	0.1264	-400.604644	-400.599095	-400.598151	-400.634172	24.32	
C	-0.0986079792	 1.553016167	 0.0146210113	-0.350939
C	 1.424119312	 1.253453458	 0.0081193778	-0.040767
C	 1.321436178	 0.1499018165	 1.0878467027	-0.058099
C	 1.838859495	-0.9620594243	 0.1747106969	-0.066511
C	 0.7974041855	-2.0999860973	 0.2539772361	 0.043919
O	-0.0365942612	-2.0677552462	 1.4270055822	-0.245109
C	-0.4902830909	-1.3787734005	 0.2536611204	-0.126483
C	 0.0493822621	 0.0356557298	 0.1901613977	 0.337821
N	 1.2047989204	-0.0039671611	-0.8603491497	-0.177455
H	-0.4912516324	 2.1084360734	 0.8689899621	 0.11052
H	-0.5254989047	 1.8965523835	-0.9309256041	 0.115821
H	 2.2435693524	 1.9443751892	-0.190196628	 0.086212
H	 1.3514664921	 0.2440588026	 2.1756287554	 0.079468
H	 2.8890874236	-1.2284772522	 0.0462263166	 0.070042
H	 0.9494075269	-3.0743580694	-0.1975752737	 0.110539
H	-1.4029022796	-1.7292880391	-0.2135435437	 0.111018
300.7333	334.6599	418.8071	482.1809	550.4174	692.3502	728.8472	747.2792	802.8972	819.0435	841.9344	866.2178	876.6289	880.9526	924.9129	938.1262	954.1707	978.9204	1013.7158	1032.1807	1068.2514	1095.9641	1118.9349	1128.9219	1162.9005	1181.5968	1203.1541	1205.752	1236.457	1261.	1284.9218	1288.6437	1325.1677	1381.5258	1489.0307	3063.6524	3080.0341	3104.5176	3115.7092	3133.4793	3176.6855	3191.8017
C1C2C3C4C5OC5C13N24	C1[C@H]2[C@@H]3[C@H]4[C@H]5O[C@H]5[C@@]13N24	
InChI=1S/C7H7NO/c1-2-3-4-5-6(9-5)7(1,3)8(2)4/h2-6H,1H2	InChI=1S/C7H7NO/c1-2-3-4-5-6(9-5)7(1,3)8(2)4/h2-6H,1H2/t2-,3+,4-,5+,6+,7+/m0/s1
