17
gdb 24152	5.17581	0.94108	0.82386	1.855	74.26	-0.2171	0.0329	0.25	1352.2897	0.13789	-418.021749	-418.013891	-418.012947	-418.055453	28.961	
C	 0.1552221879	 1.2558549049	 0.6940723919	-0.338151
C	-0.0748690726	-0.0666385915	-0.0004969659	 0.098641
C	-1.4048914659	-0.5049826454	-0.4374476402	-0.182721
O	-0.4553668546	-0.0035763733	-1.3816219801	-0.239535
C	 1.4434687933	 1.9092936868	 0.285364062	 0.269011
C	 1.9783384268	 2.025163319	-0.9741337768	-0.173732
N	 3.1596893955	 2.7133756055	-0.8077941379	-0.227948
C	 3.2884923441	 2.9811759576	 0.5212595655	 0.006505
N	 2.2737808821	 2.5105876812	 1.2091078889	-0.306392
H	-0.697849878	 1.9140485765	 0.4850854419	 0.11117
H	 0.1808293056	 1.1010725083	 1.7780987627	 0.120862
H	 0.6712749791	-0.8348058179	 0.2082985791	 0.095128
H	-1.6287844097	-1.5676739001	-0.5197363154	 0.112624
H	-2.2667928361	 0.1363943198	-0.2565296381	 0.113019
H	 1.6343051235	 1.6877103693	-1.9368946772	 0.147571
H	 3.8081726873	 2.963293912	-1.5351782492	 0.266226
H	 4.136595632	 3.5146687474	 0.9237560288	 0.127721
38.1265	76.6099	132.1992	292.5615	307.7426	361.0118	459.3833	528.8666	658.8395	691.2054	737.7611	763.6096	790.98	817.3528	866.647	936.7847	949.9102	956.3295	990.3248	1092.0861	1094.8584	1103.2554	1136.7474	1159.7653	1167.919	1218.5546	1250.1321	1269.3347	1295.8348	1342.8776	1364.1331	1444.5569	1455.395	1466.9705	1524.915	1531.395	1588.6588	3024.3234	3078.4519	3082.216	3104.1088	3167.7566	3251.7835	3286.713	3667.5559
C(C1CO1)C1=CNC=N1	C([C@H]1CO1)c1c[nH]cn1	
InChI=1S/C6H8N2O/c1(6-3-9-6)5-2-7-4-8-5/h2,4,6H,1,3H2,(H,7,8)	InChI=1S/C6H8N2O/c1(6-3-9-6)5-2-7-4-8-5/h2,4,6H,1,3H2,(H,7,8)/t6-/m0/s1
