15
gdb 132187	1.86666	1.80555	0.92308	6.2155	72.04	-0.2197	-0.0149	0.2048	1176.3716	0.112475	-461.977471	-461.96953	-461.968586	-462.010001	29.825	
C	-0.0194007283	 1.5111090622	 0.0831320539	-0.493083
C	-0.0007943453	 0.01600121	-0.0344279658	 0.41463
C	-0.0213118452	-0.6788050906	-1.1948726824	-0.34152
C	-0.0009241917	-2.1475376428	-1.2498373081	 0.41889
O	-0.0193716686	-2.7749686918	-2.3024536006	-0.400524
C	 0.0437336793	-2.7918842552	 0.0671787311	-0.456529
C	 0.0620745516	-2.0379629319	 1.1804125492	 0.425259
F	 0.102137349	-2.5330011751	 2.4118266168	-0.062215
N	 0.0413078285	-0.6746248183	 1.1638083836	-0.448374
H	 0.875707848	 1.8795715468	 0.5984250322	 0.141671
H	-0.0558927826	 1.9689563017	-0.905712621	 0.155012
H	-0.8923828183	 1.853461504	 0.6516280769	 0.141466
H	-0.0543034205	-0.1496387945	-2.1392842878	 0.110082
H	 0.06163857	-3.8707787873	 0.1359298803	 0.126375
H	 0.057442974	-0.1870456271	 2.0453857518	 0.268859
126.8103	169.8458	175.4567	230.5524	283.6238	357.6898	416.1951	494.8246	509.7775	549.0382	554.0214	600.4443	656.4177	727.4813	857.5368	884.9547	921.5074	983.1599	1015.0603	1065.1569	1065.8808	1167.1194	1214.1689	1251.3093	1332.7964	1392.3946	1418.5548	1480.2468	1482.935	1535.0488	1659.9042	1708.2081	1734.5261	3028.5917	3080.0731	3147.5598	3211.1715	3233.3276	3647.5378
CC1=CC(=O)C=C(F)N1	Cc1cc(=O)cc(F)[nH]1	
InChI=1S/C6H6FNO/c1-4-2-5(9)3-6(7)8-4/h2-3H,1H3,(H,8,9)	InChI=1S/C6H6FNO/c1-4-2-5(9)3-6(7)8-4/h2-3H,1H3,(H,8,9)
