21
gdb 126793	2.89626	1.25093	0.95665	2.5158	86.77	-0.2167	0.0277	0.2444	1314.585	0.182483	-383.312644	-383.302627	-383.301683	-383.348358	35.553	
C	-0.1279450044	 1.5913528037	-0.1040659639	-0.375726
C	 0.0490360441	 0.0733756293	-0.0230089567	-0.141121
N	 0.7636457286	-0.4705478554	-1.1646829381	-0.010612
N	 0.0870424151	-0.6842612114	-2.3131269587	-0.2833
C	 1.0113103492	-1.1047539159	-3.1705612286	-0.073764
C	 2.2960171141	-1.1629962486	-2.590413896	 0.108385
C	 3.5751761212	-1.605572228	-3.2349270716	-0.510102
C	 2.0962850388	-0.7377626676	-1.2843870948	 0.284038
C	 3.0684595396	-0.5807096582	-0.160163367	-0.509277
H	 0.8390933921	 2.103619436	-0.1093867579	 0.121719
H	-0.6619130036	 1.856300787	-1.0200140559	 0.146592
H	-0.7034694935	 1.9528259092	 0.7538068784	 0.117007
H	 0.5923506291	-0.2083227331	 0.8832852196	 0.115278
H	-0.9255498589	-0.4204774812	 0.0053674595	 0.13289
H	 0.7282013589	-1.3593581663	-4.1826854016	 0.101234
H	 4.4112397378	-0.9402612672	-2.9921663434	 0.120968
H	 3.8694541677	-2.617761196	-2.9306585815	 0.12494
H	 3.4738811844	-1.6140281548	-4.3241216786	 0.125765
H	 3.0693912467	 0.4343674507	 0.2533906758	 0.133203
H	 2.8615128977	-1.270624757	 0.6671493351	 0.135498
H	 4.0796249853	-0.792536785	-0.5150142842	 0.136387
48.2322	69.2104	97.2505	124.6238	212.2224	221.0519	253.3887	282.7298	303.2357	398.5894	475.3246	582.2474	665.8226	678.4802	702.5967	746.4876	795.4654	873.7523	950.048	974.1981	1001.8133	1050.974	1066.1052	1072.6706	1099.3423	1147.1656	1200.2537	1227.2483	1284.1259	1351.4603	1384.9754	1395.0114	1407.487	1416.1553	1425.3961	1435.8485	1477.9628	1482.3127	1488.7776	1490.8653	1491.5099	1497.1636	1506.6826	1526.0545	1613.3617	3021.3556	3024.066	3041.6565	3064.8962	3070.8232	3072.1682	3103.3505	3103.5253	3116.901	3121.8082	3133.7332	3230.6023
CCN1N=CC(C)=C1C	CCn1ncc(C)c1C	
InChI=1S/C7H12N2/c1-4-9-7(3)6(2)5-8-9/h5H,4H2,1-3H3	InChI=1S/C7H12N2/c1-4-9-7(3)6(2)5-8-9/h5H,4H2,1-3H3
