20
gdb 90665	4.05133	1.07348	1.06793	2.2346	79.24	-0.2361	0.0713	0.3074	1233.9283	0.170964	-403.079685	-403.071423	-403.070478	-403.112558	31.663	
C	-0.0765576401	 1.4840073457	 0.0654767842	-0.405189
C	-0.0029837168	-0.0294344408	 0.0292098521	 0.089281
C	 1.0328987446	-0.6357478335	-0.9599984259	-0.276809
C	 1.7190030557	-1.2365681148	 0.2601692306	-0.112015
N	 0.7459609748	-0.5659268998	 1.2344370813	-0.197482
C	 0.7826548034	-2.0169203403	 1.0781624057	 0.311585
C	-0.3273961293	-3.0007772641	 0.7097780213	-0.149758
O	 0.0897887126	-3.8853329609	 1.7716010883	-0.278711
C	 1.1022694315	-2.9602341316	 2.2309817318	-0.161174
H	 0.9238531082	 1.9162286799	 0.1698032387	 0.122157
H	-0.5267196556	 1.8701437025	-0.8554113385	 0.113714
H	-0.6792352918	 1.8204501783	 0.9145938611	 0.125819
H	-1.0116818654	-0.4529784832	-0.0438885784	 0.074538
H	 0.6747838085	-1.3398781225	-1.717604626	 0.103621
H	 1.6294384487	 0.1355419265	-1.4523382206	 0.112417
H	 2.7894163678	-1.2497018203	 0.4456673427	 0.095723
H	-1.3506225311	-2.6313187761	 0.8621941162	 0.106124
H	-0.2583876536	-3.476769434	-0.2764436985	 0.107105
H	 2.1012795375	-3.4128243041	 2.2354042236	 0.105223
H	 0.8769560705	-2.5533409867	 3.2242646302	 0.113828
91.7239	133.9641	175.0628	213.3474	251.4286	300.6058	378.7838	436.4723	468.016	582.2455	718.4364	803.6127	828.2286	859.3084	870.0839	895.4803	934.5139	968.0094	985.1195	1001.9439	1011.4639	1028.0125	1079.7719	1087.4855	1120.7723	1141.6898	1148.8911	1169.5733	1179.2262	1222.4857	1260.2651	1266.0376	1290.3717	1307.763	1360.6747	1371.4167	1409.3767	1470.7281	1484.2723	1491.0825	1497.6755	1502.3459	1527.728	2999.8785	3018.408	3030.3739	3033.3503	3046.5413	3050.6278	3063.8517	3105.5597	3107.4278	3113.1811	3149.7243
CC1CC2N1C21COC1	C[C@H]1C[C@H]2N1C12COC1	
InChI=1S/C7H11NO/c1-5-2-6-7(8(5)6)3-9-4-7/h5-6H,2-4H2,1H3	InChI=1S/C7H11NO/c1-5-2-6-7(8(5)6)3-9-4-7/h5-6H,2-4H2,1H3/t5-,6+,8?/m0/s1
