19
gdb 104141	2.63497	1.20579	1.0578	3.5291	70.92	-0.2338	-0.0144	0.2194	1201.8775	0.158001	-460.192529	-460.183461	-460.182516	-460.226439	34.459	
O	 0.0567919637	 1.2257007802	 0.2986744201	-0.43358
C	-0.1326742642	-0.1859147946	 0.3326724563	-0.123737
C	-1.5638092123	-0.4419344255	-0.1516730952	 0.40021
O	-1.7047709671	 0.113494671	-1.4481140731	-0.489846
C	-1.8788640391	-1.952098367	-0.2249315828	-0.273159
C	-2.3540080175	-2.3518807552	 1.1792756014	-0.328295
C	-2.906430093	-1.0607290955	 1.8027760653	 0.404727
O	-3.4795708017	-0.9866144838	 2.8583776351	-0.315574
C	-2.5991378341	 0.1002595383	 0.8586237575	-0.378898
H	 0.9859509934	 1.4195219592	 0.4494618098	 0.297553
H	 0.5657975578	-0.6934926068	-0.3472626612	 0.099693
H	 0.0183317477	-0.5828012934	 1.3480343208	 0.09391
H	-1.2763551986	 0.9786393893	-1.4146733472	 0.286086
H	-2.6832940428	-2.0738046743	-0.9568462704	 0.122722
H	-1.0247920775	-2.5335339725	-0.5829183191	 0.102399
H	-3.1124339271	-3.1387264525	 1.1946152219	 0.132822
H	-1.5309208243	-2.7017884622	 1.8146624313	 0.130539
H	-2.282717943	 0.9951388622	 1.3979711453	 0.135912
H	-3.5189148103	 0.3461312031	 0.3133732144	 0.136517
59.3399	120.1648	142.5475	235.7961	249.9945	319.4823	343.4837	385.1228	456.7207	470.4882	492.6162	512.8337	569.5424	634.6639	732.2718	778.845	807.9285	881.7663	956.6957	975.1176	993.7316	1007.4801	1066.9363	1093.5824	1146.2966	1153.6151	1170.5066	1206.9892	1227.6683	1241.2485	1269.418	1294.	1310.0536	1341.7427	1406.3772	1446.0116	1449.8364	1453.5771	1497.9639	1508.1379	1846.9434	2983.6438	3028.5283	3041.6914	3045.0688	3057.7961	3096.2261	3107.76	3121.3084	3772.313	3842.5799
OCC1(O)CCC(=O)C1	OC[C@@]1(O)CCC(=O)C1	
InChI=1S/C6H10O3/c7-4-6(9)2-1-5(8)3-6/h7,9H,1-4H2	InChI=1S/C6H10O3/c7-4-6(9)2-1-5(8)3-6/h7,9H,1-4H2/t6-/m1/s1
