14
gdb 130298	3.47733	1.65056	1.12144	4.9245	70.65	-0.2123	0.0003	0.2126	997.5538	0.104412	-432.86656	-432.859677	-432.858733	-432.897555	27.182	
N	-0.0431303028	 1.4079356227	 0.1504438893	-0.600554
C	 0.0597858074	 0.0253778604	 0.0330564429	 0.277555
N	-1.0212662688	-0.7345257457	 0.0076680577	-0.233591
O	-0.5916592843	-2.0877462663	-0.0164108349	-0.25635
C	 0.7521084119	-2.0739528979	-0.0279142085	 0.425294
C	 1.2255983849	-0.7817725097	 0.0045510709	 0.167429
N	 2.6004966231	-0.8382646547	 0.0055205579	-0.422874
C	 2.9624765136	-2.1691206698	-0.0165027261	-0.047805
C	 1.8407361918	-2.979024994	-0.0425021326	-0.330774
H	 0.5493630839	 1.9093498398	-0.4993221323	 0.248382
H	-1.0050988186	 1.7106259336	 0.051034899	 0.260457
H	 3.2393003152	-0.0684612114	 0.0881982087	 0.267424
H	 4.0048877795	-2.4474263224	-0.0155321932	 0.128839
H	 1.832174523	-4.0557962047	-0.0700520287	 0.116566
173.8503	257.9722	261.9199	305.7594	337.0832	430.2407	540.2834	615.1476	621.9777	636.2805	679.8165	717.6749	747.7683	792.3198	812.211	819.7396	919.4165	938.2926	1072.5423	1090.965	1148.0771	1157.9884	1269.4896	1334.8025	1417.4476	1452.8852	1473.9203	1542.6231	1602.9924	1623.133	1652.1435	3256.2024	3278.2508	3530.0177	3623.0976	3697.1976
NC1=NOC2=C1NC=C2	Nc1noc2c1[nH]cc2	
InChI=1S/C5H5N3O/c6-5-4-3(9-8-5)1-2-7-4/h1-2,7H,(H2,6,8)	InChI=1S/C5H5N3O/c6-5-4-3(9-8-5)1-2-7-4/h1-2,7H,(H2,6,8)
