20
gdb 39121	3.77639	1.08986	1.0194	1.8762	78.85	-0.2276	0.0713	0.2989	1238.4331	0.172233	-403.075991	-403.06785	-403.066906	-403.109812	30.723	
C	-0.1243453477	 1.503018188	 0.1346732311	-0.205814
C	 1.4352561809	 1.6218933988	 0.0040901237	-0.277319
C	 1.5004271974	 0.0915849665	-0.1661585184	 0.371693
N	 0.906385308	-0.4529484942	 1.0862503531	-0.379613
C	 0.0175661341	-0.012935432	-0.0185175622	-0.114449
C	 2.4701231643	-0.7072872627	-0.9691038961	-0.173036
C	 2.8835690488	-0.2091886997	-2.3772794586	-0.089232
O	 4.2800402128	-0.2273026094	-2.0260898975	-0.270627
C	 3.9825651866	-0.5597549527	-0.6557457605	-0.081586
H	-0.5631269603	 1.8358056364	 1.0782085493	 0.109311
H	-0.6477915461	 1.9734031876	-0.7004787831	 0.101413
H	 1.7365107799	 2.1758021067	-0.8875317159	 0.107171
H	 1.9695204762	 2.0113273733	 0.8735245623	 0.10719
H	 0.9700422986	-1.4701829407	 1.0269897944	 0.221413
H	-0.6814786371	-0.7084457653	-0.4687883731	 0.089635
H	 2.1519313808	-1.7545691767	-0.9856585251	 0.072431
H	 2.6582834031	-0.8818318485	-3.2131305616	 0.102478
H	 2.5362865036	 0.8006623338	-2.6324008376	 0.100111
H	 4.2259020988	 0.2627691415	 0.0296707996	 0.105667
H	 4.5054524573	-1.4651444207	-0.3268521237	 0.103162
47.1975	64.0564	144.1214	223.3323	276.5125	359.7563	457.4222	474.7911	597.5704	697.1618	777.6886	815.6589	870.177	885.3071	895.0376	922.5477	930.7287	960.7734	986.1267	1005.3863	1011.3833	1042.5637	1061.5094	1087.2592	1115.5061	1131.3518	1161.2865	1163.5044	1168.7297	1217.1903	1221.053	1240.2168	1253.0365	1287.8392	1307.512	1338.8883	1356.8043	1384.3264	1447.3294	1466.2791	1493.0103	1511.3916	1535.9617	3005.6449	3016.7952	3043.297	3056.5028	3063.8887	3067.7434	3071.4977	3114.8651	3131.786	3178.8263	3455.4999
C1CC2(NC12)C1COC1	C1C[C@]2(N[C@@H]12)C1COC1	
InChI=1S/C7H11NO/c1-2-7(6(1)8-7)5-3-9-4-5/h5-6,8H,1-4H2	InChI=1S/C7H11NO/c1-2-7(6(1)8-7)5-3-9-4-5/h5-6,8H,1-4H2/t6-,7-/m0/s1
