21
gdb 55148	3.00432	1.26628	1.17537	2.6439	81.41	-0.2419	-0.0112	0.2307	1173.2819	0.183273	-387.115729	-387.107045	-387.106101	-387.14947	33.165	
C	 0.248646069	 1.1281037105	-0.474183788	-0.473279
C	 0.0220917735	-0.3295314319	-0.1074714255	 0.377741
O	 0.9404045738	-1.1181964346	-0.076836084	-0.302397
C	-1.4190588176	-0.7142565814	 0.2287506266	-0.102397
C	-2.2804091015	-0.8955140499	-1.072200227	-0.2444
C	-2.4757570462	-2.393416507	-1.2413992204	-0.019136
C	-1.2537593317	-3.2803617525	-1.2373079324	-0.294254
C	-2.048591049	-3.0899180447	 0.0298718537	-0.021815
C	-1.5519287642	-2.0430723419	 1.0179966299	-0.238995
H	 1.252047803	 1.2600562046	-0.880516965	 0.141168
H	-0.4996640982	 1.4844928688	-1.1889197999	 0.136757
H	 0.1435297135	 1.7440848385	 0.4273590812	 0.142148
H	-1.8304529169	 0.1220212367	 0.8043561166	 0.082684
H	-3.2535101397	-0.4116560763	-0.9368629442	 0.103126
H	-1.8147234327	-0.4262523287	-1.9466230338	 0.10212
H	-3.3476357739	-2.7240319287	-1.7955206041	 0.078275
H	-1.3458162918	-4.2378763875	-1.7389282427	 0.104169
H	-0.2667999567	-2.8364984671	-1.2975117846	 0.138758
H	-2.6080010582	-3.9325792813	 0.4210961236	 0.077257
H	-0.5975683641	-2.3170720525	 1.4763086891	 0.120129
H	-2.2863634204	-1.9209097329	 1.821363031	 0.09234
51.9672	116.6685	125.5206	200.1461	264.6419	295.3621	362.628	384.7431	566.3822	571.8152	642.9212	716.9345	737.0169	761.3105	824.4695	876.9061	893.4337	916.385	925.6156	961.1554	1001.2692	1018.0368	1053.9943	1064.3842	1076.9407	1096.932	1112.4474	1120.7222	1184.3911	1204.7993	1213.6137	1223.0834	1245.5963	1322.4089	1326.7651	1347.2934	1367.4542	1383.5585	1401.2027	1463.6921	1476.7159	1482.4724	1493.0857	1502.6582	1803.3995	3030.4958	3034.2553	3038.8654	3051.384	3070.2308	3095.1309	3099.2237	3136.2074	3152.6279	3160.2993	3170.6712	3225.414
CC(=O)C1CC2CC2C1	CC(=O)[C@H]1C[C@H]2C[C@H]2C1	
InChI=1S/C8H12O/c1-5(9)6-2-7-4-8(7)3-6/h6-8H,2-4H2,1H3	InChI=1S/C8H12O/c1-5(9)6-2-7-4-8(7)3-6/h6-8H,2-4H2,1H3/t6-,7-,8+
