18
gdb 37278	4.52696	1.60659	1.54809	1.2478	79.06	-0.2169	0.0064	0.2233	899.5537	0.151298	-364.744256	-364.738403	-364.737459	-364.773956	26.171	
C	 0.00637952	 1.4612313868	-0.0287354062	-0.245243
C	 1.2910339787	 0.7141877448	 0.0495491	-0.050437
C	 1.8640840904	 0.3331157145	 1.4036821565	-0.033767
C	 1.4695017847	-1.2084065225	 1.5138247094	-0.057634
C	 1.6182157719	-1.5279514112	 2.9875753266	-0.113512
C	 1.105021831	-0.448296723	 3.5849624872	-0.113658
C	 0.6864138851	 0.4515989868	 2.4356770071	-0.097136
C	 0.0283061379	-0.5660035152	 1.4113499379	 0.021109
N	-0.0124390855	-0.0099697529	 0.0469290864	-0.115593
H	-0.3389365235	 2.0514725359	 0.8128459156	 0.118506
H	-0.3030111717	 1.8451887475	-0.9971275342	 0.116303
H	 1.9129549073	 0.6072935116	-0.8353100063	 0.09554
H	 2.8675356107	 0.6695975376	 1.6682085535	 0.066832
H	 1.7990087674	-1.9198405705	 0.7564615804	 0.068313
H	 2.0325135005	-2.4299138743	 3.4143879727	 0.102443
H	 0.9770013992	-0.2280313273	 4.6353285446	 0.101368
H	 0.2334287969	 1.4097842642	 2.6854588159	 0.061965
H	-0.8645481309	-1.1288925929	 1.6876195729	 0.074603
301.4585	318.1326	364.6538	511.7547	534.0083	602.199	624.5097	708.1762	736.0085	780.4058	807.5177	839.1923	901.5218	906.5316	913.643	928.1035	931.9099	955.9886	986.898	1016.8126	1031.7145	1037.4845	1064.1892	1082.3775	1115.0913	1139.8919	1153.9802	1176.6294	1191.3041	1199.5855	1239.8839	1242.0133	1252.0478	1258.2443	1319.3622	1327.597	1371.7366	1502.3256	1631.4739	3108.9889	3110.0941	3116.2363	3122.4191	3127.963	3143.7083	3207.5356	3220.776	3247.8466
C1C2C3C4C=CC3C4N12	C1[C@H]2[C@@H]3[C@H]4C=C[C@@H]3[C@H]4N12	
InChI=1S/C8H9N/c1-2-5-7-4(1)8(5)9-3-6(7)9/h1-2,4-8H,3H2	InChI=1S/C8H9N/c1-2-5-7-4(1)8(5)9-3-6(7)9/h1-2,4-8H,3H2/t4-,5+,6-,7-,8+,9?/m0/s1
