18
gdb 103821	2.83426	1.14564	0.97082	14.6049	71.25	-0.1616	-0.0229	0.1387	1237.0915	0.147023	-476.167199	-476.157923	-476.156979	-476.201471	34.307	
N	-0.0112352308	 1.0437132896	 0.0658254815	-0.414978
H	 0.3869854324	 0.1050877898	 0.0455448831	 0.322499
H	 0.6435177859	 1.7253893322	-0.3409077047	 0.322866
H	-0.8692008093	 1.0622651381	-0.4900746065	 0.329936
C	-0.327923063	 1.5544183448	 1.4733706669	-0.279347
C	-0.6586678902	 3.0022781932	 1.2827807042	 0.388366
O	 0.4183877194	 3.6944752531	 0.6670285829	-0.49144
C	-2.0376466663	 3.3864472753	 0.8119298624	-0.334665
C	-1.6046546753	 3.6736085933	 2.2378098622	-0.235515
C	-2.2527918769	 2.8248203707	 3.3865421143	 0.357876
O	-2.3722450577	 3.414717646	 4.4597253634	-0.447925
O	-2.5614825282	 1.6454275266	 3.0513097887	-0.501186
H	-1.2005780575	 1.0494677523	 1.9195272892	 0.222918
H	 0.5824362715	 1.3932969211	 2.0570651523	 0.132519
H	 0.9573546906	 4.0888331694	 1.3625297428	 0.296627
H	-2.0836545063	 4.2038513077	 0.1010645587	 0.113443
H	-2.788403472	 2.606188524	 0.7254254052	 0.126309
H	-1.3670575764	 4.7036079727	 2.4849439833	 0.091696
66.7532	92.5443	151.495	195.7403	252.6385	274.7494	305.5108	371.3114	387.7931	413.6634	439.9971	548.7981	665.8753	704.4124	791.4322	820.9695	837.0328	863.9196	917.9055	944.6627	961.0757	970.6784	1054.6409	1065.7216	1087.0888	1120.7488	1196.5067	1206.4995	1264.5035	1300.1472	1332.0006	1367.8177	1382.1949	1429.1625	1450.6815	1502.0727	1631.2594	1668.3638	1770.2588	2961.3663	3104.4937	3120.5298	3165.3284	3223.7284	3355.743	3471.5132	3533.0518	3791.1501
[NH3+]CC1(O)CC1C([O-])=O	[NH3]C[C@@]1(O)C[C@H]1C(=O)[O]	
InChI=1S/C5H9NO3/c6-2-5(9)1-3(5)4(7)8/h3,9H,1-2,6H2,(H,7,8)	InChI=1S/C5H9NO3/c6-2-5(9)1-3(5)4(7)8/h3,9H,1-2H2,6H3/t3-,5-/m0/s1
