18
gdb 17489	3.3126	2.41516	1.89507	1.1482	69.83	-0.2421	0.0756	0.3177	774.4406	0.155684	-347.78575	-347.779167	-347.778222	-347.815902	27.368	
O	-0.0431057133	 1.3836940586	 0.0336270504	-0.498044
C	 0.0072460796	-0.016943516	 0.0246857902	 0.416122
C	 0.2705576354	-0.7229329796	-1.3526935005	-0.295781
C	-0.9504101098	-1.6023628064	-1.0778799631	-0.06274
C	-0.9327937354	-2.124668622	 0.3507383453	-0.033978
C	 0.3959838748	-2.1528263868	 1.112270803	-0.24131
C	 0.8420552083	-0.6675781138	 1.1387027666	-0.263299
C	-1.3786370171	-0.717273313	 0.079345015	-0.114238
H	 0.8572703959	 1.7164509071	-0.0471475242	 0.275286
H	 0.0754364704	-0.0196051463	-2.1663046593	 0.104112
H	 1.2437758429	-1.2050402035	-1.5080460775	 0.078828
H	-1.5719991363	-2.0715118255	-1.8317076086	 0.080578
H	-1.685546774	-2.8727472744	 0.5743520312	 0.081608
H	 0.2586231589	-2.5458915817	 2.1237925871	 0.100347
H	 1.1334777527	-2.7951279438	 0.6188583328	 0.099797
H	 1.9194464256	-0.5425787458	 0.9781987863	 0.084124
H	 0.5845013374	-0.1948991812	 2.0929821558	 0.101428
H	-2.3287097659	-0.2638569859	 0.3262611296	 0.08716
197.1243	230.7872	300.0852	360.238	404.1065	432.3896	569.5172	629.4906	695.1686	747.4072	777.7203	815.6664	853.4032	899.4617	922.7642	943.4173	963.2171	989.2155	997.4087	1031.776	1053.6686	1074.3575	1090.5533	1135.5735	1155.7588	1198.4056	1215.4126	1223.0087	1244.7891	1257.8841	1302.6454	1313.9243	1334.0883	1381.5236	1406.2758	1484.2379	1484.8744	1506.9625	3019.4607	3029.4288	3044.5318	3070.4986	3089.4889	3099.321	3167.8698	3176.9116	3211.2771	3804.0662
OC12CC3C(CC1)C23	O[C@@]12C[C@H]3[C@@H](CC1)[C@@H]23	
InChI=1S/C7H10O/c8-7-2-1-4-5(3-7)6(4)7/h4-6,8H,1-3H2	InChI=1S/C7H10O/c8-7-2-1-4-5(3-7)6(4)7/h4-6,8H,1-3H2/t4-,5+,6-,7-/m1/s1
