13
gdb 125135	3.38881	1.13983	0.87178	3.307	63.49	-0.2697	-0.0568	0.2129	1225.3188	0.086992	-489.879158	-489.870974	-489.870029	-489.913043	27.822	
C	 0.0069635802	 1.4850976147	-0.0492619315	-0.498461
C	-0.0433016408	 0.013759562	 0.1245848625	 0.315461
C	-1.0652468824	-0.874464273	 0.2792046415	 0.253476
O	-2.3931586551	-0.6034863724	 0.363241383	-0.224065
C	-3.2671210841	-1.4558535983	-0.2745559142	 0.161689
O	-4.4408286621	-1.2975585042	-0.1965198403	-0.241883
N	-0.5317702973	-2.125910236	 0.4094781509	-0.177972
N	 0.727380088	-2.0650942009	 0.3369261992	-0.006646
O	 1.0866676748	-0.6985884671	 0.1631472475	-0.202414
H	 0.5157773076	 1.7508021058	-0.9809844215	 0.163028
H	-1.0086608044	 1.8843089637	-0.0733634975	 0.163828
H	 0.5507184772	 1.9571252794	 0.7750815254	 0.165202
H	-2.7462934015	-2.2520580337	-0.828007045	 0.128756
59.821	115.1003	120.8418	156.3704	243.186	256.1875	394.6111	483.5809	496.5107	667.8784	679.6163	703.8742	727.8942	862.5818	995.7094	1028.2495	1033.4603	1066.3051	1084.8767	1199.0634	1272.3791	1392.2479	1413.5217	1429.7655	1446.2159	1475.358	1483.1203	1672.1019	1888.4333	3036.2185	3047.5169	3108.022	3144.4528
CC1=C(OC=O)N=NO1	Cc1c(OC=O)nno1	
InChI=1S/C4H4N2O3/c1-3-4(8-2-7)5-6-9-3/h2H,1H3	InChI=1S/C4H4N2O3/c1-3-4(8-2-7)5-6-9-3/h2H,1H3
