16
gdb 17088	4.83355	1.63709	1.56099	1.969	69.82	-0.2434	0.0498	0.2931	858.1783	0.131425	-346.546309	-346.539687	-346.538743	-346.57694	26.394	
C	-0.0180207187	-1.1921710386	-0.0828404939	-0.450562
C	 0.0027779873	 0.0081385961	-0.0177275108	 0.318766
C	 0.0306010032	 1.4579596856	 0.0477167306	-0.173931
C	-0.4239280704	 2.0690886004	 1.4272159337	-0.240839
C	 0.8815261294	 2.8244634888	 1.7466533177	 0.087573
C	 1.2377972606	 3.5380415989	 0.4235603613	-0.238572
C	 1.4723079459	 2.0577735101	 0.0568104084	 0.076344
O	 1.8988187331	 1.8228371951	 1.4277857896	-0.289037
H	-0.033221317	-2.2524138175	-0.1351103719	 0.192728
H	-0.5511072493	 1.8718587174	-0.7829456633	 0.102592
H	-1.2947447525	 2.7226912426	 1.3358400284	 0.103585
H	-0.6315614152	 1.293776197	 2.1650888795	 0.126585
H	 0.9970699948	 3.2806592384	 2.7293443335	 0.083375
H	 0.4706385399	 4.111028295	-0.1044179068	 0.094862
H	 2.1751679282	 4.0894050837	 0.4960431111	 0.11528
H	 2.1730661207	 1.7132794671	-0.7022154872	 0.091251
119.2398	158.8941	304.1261	410.567	457.5239	511.1662	584.7225	619.8719	625.2444	719.9506	804.7708	837.3572	847.669	867.8492	883.5084	944.0113	962.769	984.231	1030.7861	1037.2364	1096.4301	1106.1327	1148.7364	1190.2783	1221.214	1231.8415	1259.1884	1280.8035	1305.9652	1322.8134	1357.2648	1478.7513	1493.3697	2237.517	3047.3039	3064.1969	3077.3614	3127.6381	3137.4102	3138.9127	3148.4081	3505.6915
C#CC1CC2CC1O2	C#C[C@H]1C[C@@H]2C[C@H]1O2	
InChI=1S/C7H8O/c1-2-5-3-6-4-7(5)8-6/h1,5-7H,3-4H2	InChI=1S/C7H8O/c1-2-5-3-6-4-7(5)8-6/h1,5-7H,3-4H2/t5-,6+,7+/m0/s1
