16
gdb 133765	2.04248	1.60033	1.21381	1.3984	57.32	-0.2745	0.0815	0.356	1049.8282	0.120031	-569.381887	-569.373175	-569.372231	-569.415642	32.219	
O	 0.3363695545	 1.1781035841	-0.4664335924	-0.41974
C	 0.0228831375	-0.0038470515	 0.2464314993	-0.152797
C	-1.4039232924	-0.4858573644	 0.0287025609	 0.155007
C	-1.789961845	-1.0183441595	-1.3275963432	-0.297574
C	-1.677323898	-1.9597284364	-0.1597543033	-0.313576
C	-2.4324441265	 0.3020666829	 0.7894735523	 0.248463
F	-2.3589304711	 1.6232792587	 0.4904693891	-0.097165
F	-3.6878792054	-0.0882966788	 0.5286155488	-0.077365
F	-2.2510328564	 0.2070383804	 2.1173350591	-0.078126
H	-0.2807738051	 1.860984384	-0.1842737433	 0.288555
H	 0.712137832	-0.7689954628	-0.1226145417	 0.111066
H	 0.2066943401	 0.1117744654	 1.3251446694	 0.106173
H	-2.7815359694	-0.7949976684	-1.7020160755	 0.134252
H	-1.0103531307	-1.0196172681	-2.0804753246	 0.134091
H	-0.8259879056	-2.6288773051	-0.1057712289	 0.124277
H	-2.5937392385	-2.3605251305	 0.2568138239	 0.134457
57.221	111.2333	196.2797	226.0064	261.1246	291.3619	354.4191	382.7515	407.9004	478.0915	540.101	580.1802	625.4922	749.6416	784.4827	875.8844	932.7949	959.212	978.0341	1031.6926	1065.5681	1078.3946	1095.1469	1141.8886	1162.1198	1185.3962	1199.0296	1234.7228	1328.2851	1385.1544	1407.0314	1439.2248	1467.652	1496.5526	1508.8393	2997.5741	3084.2803	3143.7413	3149.9221	3227.2522	3240.9981	3824.6946
OCC1(CC1)C(F)(F)F	OCC1(CC1)C(F)(F)F	
InChI=1S/C5H7F3O/c6-5(7,8)4(3-9)1-2-4/h9H,1-3H2	InChI=1S/C5H7F3O/c6-5(7,8)4(3-9)1-2-4/h9H,1-3H2
