21
gdb 102603	3.25282	0.73449	0.63631	2.48	84.25	-0.2393	0.0525	0.2917	1797.8213	0.179152	-424.18969	-424.178201	-424.177257	-424.228423	38.979	
C	 0.147420658	 1.3071198848	-0.3068077864	-0.24243
O	 0.0233367601	-0.1036452267	-0.2896952264	-0.265657
C	-1.2709139675	-0.6122352287	 0.0073303626	 0.092505
C	-1.3180153435	-1.9890694182	-0.6626602831	-0.061184
O	-0.9957238801	-1.9033283204	-2.031423801	-0.427077
C	-1.527792046	-0.7315159655	 1.5262908055	-0.35912
C	-1.8358281344	 0.5215860273	 2.2072419221	 0.019402
C	-2.1167993654	 1.5485964569	 2.7707114135	 0.10943
C	-2.4513789417	 2.7897320066	 3.4553028265	-0.498708
H	 1.1524511648	 1.5304515447	-0.6743969663	 0.12363
H	-0.5892239026	 1.7650207798	-0.9832652592	 0.109844
H	 0.0225770555	 1.7411278707	 0.6910295582	 0.131565
H	-2.0340191798	 0.0343005172	-0.4506214688	 0.08254
H	-0.63459506	-2.6690529526	-0.1255758946	 0.086927
H	-2.3287891893	-2.4032855106	-0.5882858992	 0.107487
H	-0.2020972442	-1.3538621592	-2.0646611763	 0.284975
H	-2.360876481	-1.4325850586	 1.6751904382	 0.127592
H	-0.6437936724	-1.2018670539	 1.9747333403	 0.135313
H	-3.4983734614	 2.7976065113	 3.7780817112	 0.148285
H	-1.8298797458	 2.9335331971	 4.3461140438	 0.148434
H	-2.3006455433	 3.658255698	 2.8043304991	 0.146247
27.0991	37.9147	74.8855	90.1539	142.5921	181.189	209.6773	227.5509	263.5857	300.1674	371.7922	388.1537	415.9764	475.3599	490.5466	586.5135	770.802	810.753	883.3356	1040.184	1046.7893	1054.5524	1058.4241	1089.9964	1095.782	1146.8358	1170.9344	1184.5574	1203.5989	1225.4334	1270.7184	1273.4826	1363.468	1377.5127	1398.5216	1415.781	1442.8737	1456.8665	1478.5815	1479.4579	1479.591	1489.4705	1502.0912	1513.8578	2370.052	2960.5637	2994.8142	3003.2224	3011.66	3025.9068	3053.0879	3073.674	3077.6798	3085.3454	3087.0742	3115.3891	3772.7639
COC(CO)CC#CC	CO[C@@H](CO)CC#CC	
InChI=1S/C7H12O2/c1-3-4-5-7(6-8)9-2/h7-8H,5-6H2,1-2H3	InChI=1S/C7H12O2/c1-3-4-5-7(6-8)9-2/h7-8H,5-6H2,1-2H3/t7-/m1/s1
