12
gdb 21466	8.27785	1.24431	1.08171	3.2421	59.72	-0.2427	-0.0179	0.2248	997.4713	0.085371	-410.826177	-410.819368	-410.818423	-410.860838	23.354	
N	-0.0951419923	 1.2900160369	 0.0100931999	-0.430837
C	-0.0082001042	 0.0348605732	 0.0026881022	 0.103138
O	-1.1722233769	-0.6848666611	 0.0082764714	-0.224045
C	-1.1036949301	-2.0364516466	 0.0003303202	 0.431026
C	-2.1852088107	-2.8866258413	 0.0027020634	-0.196567
N	-1.5978261055	-4.109272116	-0.0076995577	-0.140791
N	-0.2631484223	-4.030154851	-0.0158200138	-0.111082
N	 0.0426670401	-2.7572189918	-0.0109449839	-0.273587
H	 0.8379643641	 1.6977933748	 0.0038401823	 0.238084
H	 0.8852067009	-0.590231914	-0.0088610525	 0.150386
H	-3.2481779998	-2.726396467	 0.0104238302	 0.162586
H	-2.0352627135	-5.017028196	-0.0097381716	 0.29169
2.4925	98.0692	188.2558	341.4106	464.2005	486.6041	583.3883	686.9586	725.2319	767.9731	806.049	835.2852	987.3388	1013.3416	1059.9119	1061.0792	1089.6022	1138.6046	1261.3152	1286.095	1345.9418	1358.6662	1404.8899	1506.2599	1611.0308	1748.4769	3135.1702	3303.6022	3517.3382	3658.8084
N=COC1=CNN=N1	[NH][CH]Oc1c[nH]nn1	
InChI=1S/C3H4N4O/c4-2-8-3-1-5-7-6-3/h1-2,4H,(H,5,6,7)	InChI=1S/C3H4N4O/c4-2-8-3-1-5-7-6-3/h1-2,4H,(H,5,6,7)
