20
gdb 39455	2.42867	1.78339	1.20466	2.2139	79.63	-0.2357	0.0247	0.2604	1069.0129	0.173665	-403.137322	-403.129655	-403.128711	-403.169194	30.798	
C	 0.0765368509	 1.4179399267	-0.3422304282	-0.336167
C	 1.2756048729	 0.6276064368	 0.1327419224	-0.015243
C	 1.885821525	 0.8146452752	 1.5033086817	-0.225056
C	 2.6086336212	-0.4603443119	 1.9752959102	-0.19457
C	 1.8028533754	-1.7485797956	 1.7268308184	-0.151222
N	 0.5392325301	-1.7771493931	 2.4448620938	-0.254342
C	-0.5117056386	-1.1600609309	 2.1335461859	 0.133498
O	-0.8718020307	-0.3079546351	 1.1248165155	-0.235755
C	-0.0690741554	-0.0369808305	-0.0031327934	 0.114327
H	-0.3713360889	 2.1099667616	 0.363340566	 0.126156
H	 0.0180136752	 1.7234292044	-1.3807200835	 0.115995
H	 1.9890230385	 0.3474218783	-0.6401803318	 0.08903
H	 2.5899279499	 1.6547139745	 1.49140221	 0.099036
H	 1.1008448804	 1.0835013192	 2.2176106649	 0.114009
H	 3.5668808132	-0.5618311607	 1.4497596177	 0.094476
H	 2.8400569062	-0.3772050571	 3.042878604	 0.106185
H	 1.6728658797	-1.8964458466	 0.6477874675	 0.098764
H	 2.3943607448	-2.5971089633	 2.0874429902	 0.099577
H	-1.3870282152	-1.2537421317	 2.777507901	 0.117287
H	-0.2234389445	-0.7561890202	-0.8027331322	 0.104014
116.0963	206.9467	238.584	271.7697	288.4048	343.7694	428.221	478.8358	562.2981	605.7014	743.3337	766.2227	791.7838	820.3782	851.4596	869.2084	915.9812	965.1187	981.715	1012.5882	1025.6718	1061.4622	1066.0452	1083.2811	1115.4867	1134.6862	1147.7722	1180.9131	1233.2914	1239.8122	1249.5109	1308.7201	1328.9976	1367.537	1381.176	1389.1297	1419.4861	1444.2957	1478.8936	1483.5644	1495.0505	1517.6579	1760.8023	3021.6954	3028.4937	3040.7819	3056.0917	3071.6281	3084.2264	3121.7191	3132.0148	3134.5792	3142.7841	3224.4082
C1C2CCCN=COC12	C1[C@H]2CCCN=CO[C@@H]12	
InChI=1S/C7H11NO/c1-2-6-4-7(6)9-5-8-3-1/h5-7H,1-4H2/b8-5-	InChI=1S/C7H11NO/c1-2-6-4-7(6)9-5-8-3-1/h5-7H,1-4H2/b8-5-/t6-,7+/m1/s1
