17
gdb 40988	4.17962	1.58574	1.507	1.7229	77.03	-0.2287	-0.0059	0.2228	907.2371	0.137146	-384.544424	-384.538307	-384.537363	-384.57446	26.459	
C	 0.0522940928	 1.5107081727	 0.1745390922	-0.205694
O	 1.5063700379	 1.4412161436	-0.0615991754	-0.310648
C	 1.2900379576	 0.2363670983	-0.8913155689	 0.095978
C	 1.3620949728	-1.2611777201	-0.5082279184	-0.102032
C	 0.7273620362	-0.9605959741	 0.8766917125	-0.067742
C	-0.2249883106	-2.0950953231	 1.1880932195	-0.110915
C	-0.8214577944	-2.3649778569	 0.0234775602	-0.0941
C	-0.2099952545	-1.3707509755	-0.939968209	-0.189509
C	 0.000892047	 0.0081244041	-0.1695291529	 0.241399
H	-0.1858262043	 1.806222982	 1.200419303	 0.116316
H	-0.4267707615	 2.1844578986	-0.5463149983	 0.110004
H	 1.3155279258	 0.5018915458	-1.9518066492	 0.076373
H	 2.1201636837	-2.0257527429	-0.7160217281	 0.072601
H	 1.3417661537	-0.5178825764	 1.6572381366	 0.07968
H	-0.377986272	-2.5478031757	 2.1578434678	 0.105325
H	-1.5832607857	-3.093972888	-0.2134409401	 0.106871
H	-0.4840277346	-1.3665428923	-1.9945807116	 0.076093
247.8355	286.7357	289.0758	474.957	508.5006	551.825	632.0159	712.1568	728.9565	745.807	801.9936	847.1877	870.2891	888.3759	910.9149	914.8767	927.3288	944.2373	968.9587	994.2147	1009.8154	1051.6229	1102.2594	1118.0904	1141.3037	1141.5635	1157.1766	1175.3539	1203.5642	1244.3633	1248.3005	1283.301	1299.7619	1326.9592	1349.2922	1497.7173	1628.0624	3023.5595	3039.508	3068.1655	3096.682	3129.4706	3149.5625	3220.8797	3247.3939
C1OC2C3C4C=CC3C124	C1O[C@H]2[C@H]3[C@@H]4C=C[C@H]3[C@]124	
InChI=1S/C8H8O/c1-2-5-6-4(1)8(5)3-9-7(6)8/h1-2,4-7H,3H2	InChI=1S/C8H8O/c1-2-5-6-4(1)8(5)3-9-7(6)8/h1-2,4-7H,3H2/t4-,5+,6-,7-,8+/m0/s1
