16
gdb 15976	2.84568	2.05974	1.38103	2.473	64.91	-0.2437	-0.0336	0.2101	900.8195	0.128898	-383.706366	-383.698665	-383.697721	-383.739187	27.586	
O	-0.6489760963	 1.3833691638	 0.7204581817	-0.247429
C	 0.1891994457	 0.9570276056	-0.0323241599	 0.129649
C	 1.5265640979	 1.6334961097	-0.2535196263	-0.016155
O	 2.3735499962	 0.9007178643	-1.1572779547	-0.294539
C	 2.4135726506	 1.9932521224	-2.1079166712	-0.136879
C	 1.4981432772	 2.8290434988	-1.2193753538	 0.283329
C	 0.3409016575	 3.703295682	-1.5930051971	-0.32517
C	 1.5499482065	 4.2882773762	-0.8984995339	-0.319334
H	 0.0342149912	 0.0470701857	-0.6549271137	 0.092615
H	 2.0059141574	 1.8269886817	 0.7156647276	 0.107624
H	 3.4322983824	 2.3788870313	-2.2398116737	 0.109314
H	 2.0075690108	 1.6985491031	-3.0838565627	 0.109586
H	 0.1936568549	 3.9254314987	-2.6451579887	 0.119149
H	-0.5738749915	 3.5991873961	-1.0192436057	 0.141494
H	 1.4476011096	 4.584624711	 0.1403825014	 0.127864
H	 2.2271415998	 4.9082034996	-1.4778639292	 0.118882
54.1451	82.9403	171.921	230.676	308.2915	330.8729	444.6244	487.7767	584.6197	773.5682	829.7543	867.3795	891.0295	909.584	968.1743	1001.5498	1028.8944	1048.115	1062.361	1085.4371	1087.1377	1119.1469	1153.2787	1190.9006	1223.4895	1247.5636	1302.2329	1329.857	1388.0135	1404.3064	1461.7177	1505.3506	1524.7952	1824.1259	2886.204	3009.6227	3019.8282	3055.1259	3125.7478	3130.359	3207.0519	3222.1871
O=CC1OCC11CC1	O=C[C@H]1OCC21CC2	
InChI=1S/C6H8O2/c7-3-5-6(1-2-6)4-8-5/h3,5H,1-2,4H2	InChI=1S/C6H8O2/c7-3-5-6(1-2-6)4-8-5/h3,5H,1-2,4H2/t5-/m1/s1
