14
gdb 8793	4.02326	1.40517	1.04837	2.1499	61.9	-0.2355	-0.119	0.1165	1061.4072	0.105119	-415.873933	-415.864942	-415.863998	-415.909284	29.512	
C	 0.2215201776	 1.3556809156	 0.175872122	-0.309077
N	 0.0767721	-0.0627550108	-0.0613973649	-0.295362
C	 0.693293096	-0.681129263	-1.1004051967	 0.257483
N	 1.4751306643	-0.0602194498	-1.9088596076	-0.543063
C	 0.3426938616	-2.1505859183	-1.1729323042	 0.256526
O	-0.4350454262	-2.6684320837	-0.399138785	-0.293319
C	 0.9459860012	-3.0823789094	-2.2380305541	 0.10258
O	 1.7270136864	-2.7799327504	-3.1002668084	-0.217827
H	 1.2778208459	 1.6203985616	 0.2896327832	 0.146642
H	-0.1750312333	 1.9462110707	-0.6590131405	 0.137869
H	-0.31544873	 1.6193887779	 1.0887858075	 0.123442
H	-0.567906394	-0.6148736233	 0.4780395845	 0.262061
H	 1.8504700968	-0.7006664528	-2.603578937	 0.248795
H	 0.5555941837	-4.1134460243	-2.1075830088	 0.123252
21.8463	74.3618	111.9145	113.9621	179.0476	275.0487	329.2701	378.1736	419.9878	455.695	539.0221	669.5404	716.2636	810.7961	868.6602	1007.4347	1024.5505	1161.0487	1181.8719	1199.7194	1225.1261	1347.36	1379.1549	1455.7813	1472.5692	1513.6695	1557.9174	1683.5043	1767.6838	1825.7614	2930.6029	3026.8142	3080.9269	3135.0917	3536.3114	3665.3578
CNC(=N)C(=O)C=O	CNC(=N)C(=O)C=O	
InChI=1S/C4H6N2O2/c1-6-4(5)3(8)2-7/h2H,1H3,(H2,5,6)	InChI=1S/C4H6N2O2/c1-6-4(5)3(8)2-7/h2H,1H3,(H2,5,6)
