19
gdb 15405	4.39395	0.9189	0.81377	3.2679	73.92	-0.2474	-0.0256	0.2218	1425.7567	0.164228	-365.05175	-365.042731	-365.041787	-365.086207	31.911	
C	 0.0893889983	 1.5302983967	-0.0491508551	-0.383616
C	-0.0288023482	 0.0066934343	 0.0355281795	-0.162079
C	-1.4573300781	-0.4963272426	-0.21387588	-0.181662
C	-1.5472140385	-2.0044339274	-0.1344962473	-0.006226
N	-1.7193099824	-2.6084257456	 1.1802017687	-0.331701
C	-2.8010529066	-2.7750479011	 0.1842069153	-0.136713
C	-4.0892893163	-2.1019121987	 0.5071542035	 0.174331
O	-5.1478929918	-2.4229968971	 0.0269591805	-0.259838
H	 1.1166494947	 1.8604089727	 0.132910367	 0.114383
H	-0.2087623355	 1.8968878411	-1.0376657814	 0.115483
H	-0.5535433335	 2.0180145069	 0.6917154891	 0.118463
H	 0.6506651601	-0.4561481667	-0.6928658701	 0.092951
H	 0.2980700132	-0.3384153062	 1.0239485539	 0.110621
H	-2.1334853007	-0.0473892258	 0.5208860795	 0.106146
H	-1.7994930592	-0.1690885243	-1.2045990522	 0.103784
H	-0.8884980023	-2.5224186434	-0.8331483744	 0.094083
H	-1.1952213221	-3.474153758	 1.2695735001	 0.242733
H	-2.9231621077	-3.7318894091	-0.3179408003	 0.103439
H	-4.0033142133	-1.2743879356	 1.2437927338	 0.08542
67.3238	79.2538	101.9522	146.5958	244.7173	255.1407	286.5486	353.2779	432.6502	470.3749	530.097	747.8031	813.6366	837.3031	890.7702	902.9459	931.6857	986.2305	1011.5388	1043.5533	1054.7845	1078.7201	1121.6889	1154.9648	1208.93	1232.4549	1246.4448	1281.171	1306.4479	1331.7764	1363.1805	1389.9699	1414.3566	1422.2948	1468.8413	1478.2017	1493.2778	1500.3633	1509.8546	1820.536	2903.3781	3016.5614	3025.9078	3031.6842	3053.9503	3079.7262	3097.2559	3101.8112	3104.6996	3145.6211	3515.5229
CCCC1NC1C=O	CCC[C@H]1N[C@H]1C=O	
InChI=1S/C6H11NO/c1-2-3-5-6(4-8)7-5/h4-7H,2-3H2,1H3	InChI=1S/C6H11NO/c1-2-3-5-6(4-8)7-5/h4-7H,2-3H2,1H3/t5-,6+/m1/s1
