20
gdb 14782	11.408	0.51047	0.50225	3.3635	73.59	-0.2486	-0.0195	0.2291	2106.684	0.174488	-386.14902	-386.138865	-386.137921	-386.185571	34.104	
O	-0.0209975258	 1.4634364455	 0.2146230608	-0.42058
C	 0.0525804129	 0.0597987411	 0.0186639732	-0.073421
C	-1.3611559575	-0.5004880309	 0.1051263939	-0.168422
C	-1.4157633691	-2.0177985363	-0.0930861929	-0.181501
C	-2.8386723072	-2.5805362782	-0.0046490128	-0.191024
C	-2.8918881319	-4.1064605514	-0.1950969624	-0.274002
C	-4.3112059422	-4.6242093552	-0.2123898737	 0.160124
O	-4.7486718177	-5.4772640022	 0.5156980438	-0.237247
H	 0.8702709298	 1.8214136764	 0.1702370344	 0.285898
H	 0.4894480437	-0.1837193379	-0.9642133944	 0.083254
H	 0.6884840144	-0.4175736316	 0.7826203826	 0.084365
H	-1.7810738209	-0.2315445496	 1.0821006357	 0.107801
H	-1.9799740435	 0.0019028383	-0.6485674235	 0.105959
H	-0.9854917065	-2.2794460514	-1.0697894583	 0.096059
H	-0.7850519515	-2.5114699452	 0.6586049375	 0.100299
H	-3.2746818495	-2.3221636943	 0.9686318622	 0.113203
H	-3.4698503008	-2.096016166	-0.7616821968	 0.103539
H	-2.4368752749	-4.362046505	-1.1638325389	 0.116515
H	-2.3371305739	-4.6313335102	 0.5883170757	 0.120842
H	-4.963271898	-4.1366459558	-0.9765960662	 0.06834
46.4474	62.1661	83.2673	104.5133	135.0372	155.1858	243.5568	265.6483	277.6622	404.952	479.8863	530.5223	738.6834	765.442	814.4481	885.3356	971.3571	1000.1053	1012.9044	1033.243	1064.9418	1076.7434	1109.9039	1164.0817	1200.6627	1221.0537	1258.5498	1269.0807	1306.4584	1314.5784	1323.073	1336.4302	1370.7737	1400.8321	1431.8902	1463.9662	1464.2713	1486.7631	1494.3135	1509.4847	1529.6138	1837.2594	2845.0342	2956.2677	2981.0474	3006.5323	3007.403	3019.2471	3031.4756	3035.1647	3058.2254	3077.9995	3097.0777	3830.8955
OCCCCCC=O	OCCCCCC=O	
InChI=1S/C6H12O2/c7-5-3-1-2-4-6-8/h5,8H,1-4,6H2	InChI=1S/C6H12O2/c7-5-3-1-2-4-6-8/h5,8H,1-4,6H2
