17
gdb 26311	4.05667	1.07068	0.88472	5.8444	71.71	-0.1973	0.0407	0.238	1288.4039	0.135892	-455.182487	-455.173677	-455.172732	-455.216089	32.215	
C	 0.2675632168	 1.387845176	 0.0319854835	-0.335396
N	 0.3017370183	-0.0662712329	 0.0588587575	-0.164976
C	-0.4159580385	-0.6416914019	 1.196140252	-0.340157
C	 0.0711036944	-0.6615700768	-1.1724508551	 0.361395
C	-0.2763710669	-0.1635344914	-2.3730261251	-0.131609
O	-0.2750224843	-1.183453702	-3.3205196031	-0.212422
C	 0.075766371	-2.3565867578	-2.7006937048	 0.48839
O	 0.1936634378	-3.4182980501	-3.2482628515	-0.404075
N	 0.2501531063	-2.0370286335	-1.3651952263	-0.443012
H	 0.933657739	 1.7518165004	-0.7543781926	 0.139796
H	-0.7437993914	 1.7891696337	-0.1504262806	 0.113862
H	 0.618299701	 1.7708222873	 0.9938136336	 0.130131
H	-1.4874783512	-0.3835919601	 1.1921988164	 0.119933
H	-0.330998085	-1.730131651	 1.1902645291	 0.12886
H	 0.0289898681	-0.2704330108	 2.1233350498	 0.132149
H	-0.5391640482	 0.8190377777	-2.7162757352	 0.142945
H	 0.7089871228	-2.6678708168	-0.7315067277	 0.274186
71.2239	127.8934	179.1839	204.2026	232.5932	259.659	353.2817	384.1253	419.1951	429.2108	566.8396	600.0755	633.0678	679.5493	756.4247	768.6052	926.3318	940.7799	1024.364	1074.6428	1094.7589	1124.2495	1173.8461	1181.2859	1195.8707	1233.3909	1336.6508	1351.8397	1435.4752	1444.0282	1474.4254	1480.1433	1493.5962	1503.5717	1519.998	1712.8267	1895.0491	2964.8784	2977.3029	3079.2755	3084.8227	3125.697	3130.4068	3317.2091	3687.9262
CN(C)C1=COC(=O)N1	CN(C)c1coc(=O)[nH]1	
InChI=1S/C5H8N2O2/c1-7(2)4-3-9-5(8)6-4/h3H,1-2H3,(H,6,8)	InChI=1S/C5H8N2O2/c1-7(2)4-3-9-5(8)6-4/h3H,1-2H3,(H,6,8)
