16
gdb 49159	4.33575	1.27834	1.11333	3.6157	77.32	-0.2324	-0.0721	0.1603	1074.5055	0.125698	-400.675878	-400.669202	-400.668258	-400.707141	26.347	
O	-0.0474400457	-0.0229073161	 0.0345531058	-0.275207
C	 0.0067689721	 1.1881584542	 0.0324877776	 0.056751
C	 1.2472181198	 1.9521330628	-0.0009501039	 0.264423
C	 1.4314469746	 3.2835902277	-0.0112813448	-0.183466
C	 2.9312679396	 3.4200361883	-0.0238187855	-0.033527
C	 3.5240743892	 2.3107716269	-0.9563970846	-0.064184
C	 4.6525413509	 2.1680031062	 0.0684323277	-0.184461
N	 3.4383309506	 2.33793329	 0.9873656464	-0.145399
C	 2.6631525091	 1.4187908522	-0.0100996486	-0.109027
H	-0.9165563119	 1.8079849402	 0.052351025	 0.072818
H	 0.6998845945	 4.0801022973	 0.008787546	 0.13267
H	 3.4007272598	 4.4001707089	 0.0597082123	 0.08289
H	 3.5596795266	 2.3037520652	-2.0527809958	 0.07364
H	 5.1382671486	 1.1938980853	 0.1673864029	 0.108566
H	 5.3803787864	 2.9795709573	 0.1535525659	 0.104315
H	 2.8383134857	 0.3492982035	 0.0889295537	 0.099195
111.7056	159.9793	231.3852	430.4501	447.6271	511.7065	542.386	659.1005	724.186	745.88	778.5106	842.894	869.3771	888.5169	914.3871	936.6535	973.7749	993.6562	1038.0467	1047.0734	1101.9355	1106.3341	1129.4153	1175.4123	1203.6498	1218.1697	1238.9106	1246.9969	1259.2357	1316.7867	1352.2721	1418.6348	1529.2011	1655.3497	1776.8072	2888.8868	3029.5576	3056.7069	3116.79	3125.3402	3150.0152	3231.2369
O=CC1=CC2C3CN2C13	O=CC1=C[C@@H]2[C@H]3CN2[C@@H]13	
InChI=1S/C7H7NO/c9-3-4-1-6-5-2-8(6)7(4)5/h1,3,5-7H,2H2	InChI=1S/C7H7NO/c9-3-4-1-6-5-2-8(6)7(4)5/h1,3,5-7H,2H2/t5-,6-,7+/m1/s1
