19
gdb 100927	2.11846	1.08096	0.85293	3.8679	68.95	-0.2489	-0.0398	0.2091	1408.7545	0.155515	-497.282307	-497.271705	-497.270761	-497.318965	36.637	
C	 0.4658975858	 1.2783851168	-0.1979758631	-0.245592
O	 0.2757784045	-0.0956258954	 0.0855559659	-0.260577
C	-1.0700575265	-0.525984869	 0.0068221203	-0.011788
C	-1.5077946463	-0.6938655936	-1.4494405641	 0.145271
O	-2.6567183352	-0.7867031498	-1.7894348247	-0.241001
C	-1.1438041231	-1.8809244628	 0.7317535293	 0.092025
O	-0.1512242377	-2.7655475896	 0.2162792978	-0.454602
C	-0.9787729729	-1.7537304253	 2.2507000928	-0.07581
O	-0.9443307371	-3.0312913813	 2.8461732744	-0.423119
H	 1.5368257151	 1.4771558839	-0.1226892906	 0.140225
H	 0.1260450687	 1.541605815	-1.2097050477	 0.121115
H	-0.0699309606	 1.9105963578	 0.5242282759	 0.122503
H	-1.7537069924	 0.1856739246	 0.4946320183	 0.100126
H	-0.6631193852	-0.7510869859	-2.1722986441	 0.091671
H	-2.110171791	-2.3452057814	 0.5118529381	 0.119242
H	 0.6705946943	-2.2574108447	 0.1852637117	 0.296598
H	-0.0652649558	-1.1754644936	 2.4655293527	 0.089488
H	-1.8292683111	-1.2121187681	 2.6799341461	 0.106791
H	-0.3793952037	-3.566142098	 2.2729998511	 0.287434
50.1042	74.0414	89.5959	115.73	173.9757	201.1158	215.3831	252.3617	312.3454	340.8772	429.4438	447.8866	498.9778	536.8847	559.9982	690.588	843.2321	917.6954	980.0934	1005.9084	1056.2502	1084.4481	1101.851	1121.8907	1151.3342	1182.8967	1198.3599	1219.9715	1266.1894	1296.3323	1327.6033	1336.4175	1388.7666	1396.5106	1428.7353	1441.7098	1483.4538	1489.0603	1507.0115	1510.7275	1838.1368	2883.5689	2974.6372	2990.9572	3000.3186	3045.7307	3063.1312	3082.2319	3128.582	3762.5662	3767.6854
COC(C=O)C(O)CO	CO[C@@H](C=O)[C@@H](O)CO	
InChI=1S/C5H10O4/c1-9-5(3-7)4(8)2-6/h3-6,8H,2H2,1H3	InChI=1S/C5H10O4/c1-9-5(3-7)4(8)2-6/h3-6,8H,2H2,1H3/t4-,5-/m0/s1
