17
gdb 69702	3.97477	1.33151	1.22657	4.4218	71.4	-0.2524	0.0062	0.2586	1046.9494	0.136049	-421.813766	-421.806306	-421.805362	-421.845545	29.185	
C	-0.0497430009	 1.5178382888	-0.0067642669	-0.506519
C	 0.0385333906	 0.018963349	 0.0159944774	 0.348213
C	-0.8488294046	-0.8650764601	 0.8456363256	-0.355438
C	 0.636689456	-0.9488685362	 1.0568030431	-0.109142
C	 1.3422698435	-1.7536550712	-0.0694119205	-0.225377
C	 0.7194295585	-0.8102621189	-1.1006757703	 0.043593
O	-0.0522982502	-1.9201382522	-1.6742675688	-0.264316
C	 0.5104350828	-2.8261813569	-0.7872700523	 0.438002
O	 0.31708526	-3.9967999875	-0.7408992197	-0.321443
H	 0.9055073003	 1.9757861201	-0.2876414966	 0.120889
H	-0.8061020561	 1.8566886729	-0.7248202257	 0.131712
H	-0.3290129618	 1.9080499362	 0.9768690982	 0.125668
H	-1.382065729	-0.3403143338	 1.6323625063	 0.118794
H	-1.4100658569	-1.6823806916	 0.4034234876	 0.143846
H	 1.0994761224	-0.7317715987	 2.0108766774	 0.101751
H	 2.4122083131	-1.9191338493	 0.0316889626	 0.110138
H	 1.2802958723	-0.2748511707	-1.8648313472	 0.099628
117.7201	174.6413	190.8502	286.0755	297.4401	407.6243	470.0161	500.4022	617.0909	705.6589	741.2663	772.8318	800.0916	870.7255	895.2314	905.609	926.3421	944.7939	970.3193	989.189	1043.2701	1080.9451	1083.5285	1095.4601	1111.6128	1186.6106	1212.4514	1235.8094	1243.4889	1271.888	1311.9108	1397.114	1422.0003	1484.6289	1497.2746	1500.2795	1934.5703	3023.1024	3082.0701	3101.357	3125.9881	3133.8912	3151.4977	3194.9383	3208.9876
CC12CC1C1C2OC1=O	C[C@]12C[C@H]1[C@@H]1[C@H]2OC1=O	
InChI=1S/C7H8O2/c1-7-2-3(7)4-5(7)9-6(4)8/h3-5H,2H2,1H3	InChI=1S/C7H8O2/c1-7-2-3(7)4-5(7)9-6(4)8/h3-5H,2H2,1H3/t3-,4+,5+,7-/m0/s1
