20
gdb 38701	2.599	2.07487	1.55526	1.8972	82.11	-0.2159	0.0189	0.2348	929.6267	0.174914	-365.981152	-365.974479	-365.973535	-366.011624	29.087	
C	-0.0992386011	 1.5483237553	-0.1831858944	-0.255711
C	 1.348871099	 1.9737974383	 0.1082932904	-0.025934
N	 2.5357822904	 1.988399497	-0.7767023751	-0.419187
C	 2.1833869455	 0.7472063395	-0.0948252237	 0.279479
C	 1.2689144616	-0.25687267	-0.8226137421	-0.266835
C	-0.0030305882	 0.0054621759	-0.0038342016	 0.002915
C	 0.3070556057	-0.4354917687	 1.4748674045	-0.263198
C	 1.7812421242	-0.4462787611	 1.8830575515	-0.049154
C	 2.735566538	 0.1361216156	 1.1462780816	-0.158045
H	-0.7858697734	 2.029033089	 0.5203902802	 0.098781
H	-0.4435460962	 1.7939589183	-1.1956752429	 0.095421
H	 1.5069569286	 2.5752218823	 0.9975957019	 0.098356
H	 2.2913886468	 1.9149894365	-1.7621195336	 0.22688
H	 1.1258889184	 0.0008557315	-1.8786539694	 0.083352
H	 1.6435424007	-1.2804798209	-0.7617203856	 0.1005
H	-0.8980739246	-0.5188122326	-0.3593389319	 0.054588
H	-0.2588837345	 0.1957529083	 2.1756752562	 0.107814
H	-0.0893283672	-1.4484764942	 1.6236588976	 0.107935
H	 2.0213234613	-0.9709475391	 2.8041356486	 0.086998
H	 3.7870849451	 0.1433511991	 1.4136946578	 0.095045
181.7657	297.0445	345.4123	377.1398	446.001	465.7453	502.5625	618.8972	634.1102	702.6394	736.4406	754.6378	783.2343	868.661	892.655	896.2047	919.5961	951.7228	963.8557	974.7934	1001.6442	1021.4266	1048.2729	1066.4774	1097.4369	1116.0015	1137.1105	1170.7926	1186.0847	1208.5608	1258.8985	1268.2839	1289.8253	1320.916	1323.0947	1342.2483	1361.7518	1372.2415	1447.2748	1467.0314	1480.8221	1502.6306	1666.1682	3001.3555	3022.3354	3027.4055	3033.4534	3045.3563	3083.2077	3109.4914	3157.2593	3159.0072	3187.4902	3483.7523
C1C2NC22CC1CC=C2	C1[C@@H]2N[C@@]32C[C@H]1CC=C3	
InChI=1S/C8H11N/c1-2-6-4-7-8(3-1,5-6)9-7/h1,3,6-7,9H,2,4-5H2	InChI=1S/C8H11N/c1-2-6-4-7-8(3-1,5-6)9-7/h1,3,6-7,9H,2,4-5H2/t6-,7-,8+/m0/s1
