16
gdb 49694	3.15479	1.30498	1.12931	1.5955	79.22	-0.2449	-0.0476	0.1973	1098.1096	0.122575	-400.670319	-400.662033	-400.661089	-400.703245	30.946	
O	-0.4749751416	 0.4332022176	-0.585905978	-0.270239
C	 0.0870258931	 1.1409035005	 0.2171362358	 0.146572
C	 1.3227747051	 1.9447625242	-0.0026508714	-0.128819
N	 2.4070511617	 1.70725428	-0.9791957075	-0.181348
C	 1.8148768094	 1.1202001177	-2.2423723113	-0.148687
C	 0.8941642387	 2.3424170192	-2.4586383687	-0.308109
C	 1.4877381978	 2.9042979952	-1.1589791031	 0.13369
C	 1.8695002549	 4.2601973763	-0.9428014561	 0.206646
C	 2.1597531795	 5.4175161988	-0.7882286179	-0.374359
H	-0.3194961667	 1.2629161516	 1.2460362781	 0.090947
H	 1.7379454255	 2.327794079	 0.9261741002	 0.117796
H	 2.6161664188	 1.0421849272	-2.9786986376	 0.118455
H	 1.3345671986	 0.1542211196	-2.1024631226	 0.143091
H	 1.1668731571	 2.949101947	-3.32254844	 0.12573
H	-0.1817198684	 2.163516337	-2.4574133676	 0.130858
H	 2.4251389863	 6.4361762691	-0.6468279823	 0.197775
87.6035	126.5007	162.0846	211.3076	251.3839	336.4856	359.7627	506.801	515.0912	581.6325	612.2847	665.3096	689.7496	742.9233	796.114	838.0028	846.4455	929.0064	974.2679	978.1562	1043.3262	1089.3377	1107.229	1173.7848	1215.2149	1221.8009	1255.6006	1296.4374	1313.6802	1408.9921	1435.2805	1476.8045	1497.5489	1801.0857	2232.3914	2881.4966	3087.5278	3092.0028	3144.4249	3150.7698	3167.9547	3500.8061
O=CC1N2CCC12C#C	O=C[C@H]1N2CC[C@@]12C#C	
InChI=1S/C7H7NO/c1-2-7-3-4-8(7)6(7)5-9/h1,5-6H,3-4H2	InChI=1S/C7H7NO/c1-2-7-3-4-8(7)6(7)5-9/h1,5-6H,3-4H2/t6-,7+,8?/m1/s1
