16
gdb 108159	3.43394	1.51981	1.27367	3.2745	69.57	-0.2232	-0.0537	0.1696	991.1794	0.121745	-437.726164	-437.718431	-437.717487	-437.758405	29.491	
C	-0.1922463355	 1.3569597465	 0.2306627922	-0.260161
O	 0.1743019752	 0.0041085121	-0.019916646	-0.283073
C	 0.84065534	-0.6030850647	 1.011335478	 0.384956
C	 2.2874653494	-0.1897821405	 1.4177647119	-0.235703
N	 2.5444348495	-1.0782671393	 2.5939610518	-0.221384
C	 1.6340543253	-1.9481025083	 2.4563836035	 0.269017
O	 0.5261671843	-2.0127434532	 3.3127337706	-0.262851
C	-0.1209370197	-1.4643179139	 2.07665726	-0.009249
C	 0.8117784159	-2.0778751627	 1.1344797997	-0.276525
H	 0.6873964777	 2.0038860986	 0.335733682	 0.125062
H	-0.7740923263	 1.6867443073	-0.6316636098	 0.137657
H	-0.803395242	 1.4378155278	 1.1385266476	 0.122398
H	 2.9704678128	-0.302601227	 0.5623622107	 0.118489
H	 2.378167239	 0.8324292677	 1.7970106904	 0.132188
H	-1.2010446492	-1.3857823347	 2.1061419267	 0.134297
H	 0.7474293837	-2.8883318057	 0.4197697407	 0.124883
82.4853	153.9567	190.4165	262.1142	308.5286	373.7727	468.9487	478.693	573.2521	591.9127	629.2169	718.333	778.9633	826.9221	842.0167	905.474	958.0103	999.8693	1016.756	1025.1536	1044.399	1116.7599	1141.1958	1162.422	1179.7344	1191.7517	1222.4109	1250.2461	1307.9243	1367.3785	1480.4555	1484.2834	1491.7951	1505.657	1625.2756	2992.7139	3010.4795	3070.3911	3082.7316	3135.6562	3189.8852	3201.4965
COC12CN=C3OC1C23	CO[C@@]12C[N][C]3O[C@@H]1[C@@H]23	
InChI=1S/C6H7NO2/c1-8-6-2-7-5-3(6)4(6)9-5/h3-4H,2H2,1H3	InChI=1S/C6H7NO2/c1-8-6-2-7-5-3(6)4(6)9-5/h3-4H,2H2,1H3/t3-,4-,6-/m1/s1
