16
gdb 66066	2.35056	1.40039	1.08529	2.7017	72.89	-0.2435	-0.0508	0.1927	1134.8983	0.121691	-437.823602	-437.814703	-437.813759	-437.857505	32.763	
O	 0.0659053886	 1.4811720713	 0.0428016348	-0.455341
C	 0.0417805824	 0.0979409455	 0.0559881121	 0.326539
C	 0.1285103215	-0.5224444304	 1.4799764824	-0.22557
N	-1.3257038012	-0.7782435019	 1.4710597468	-0.293821
C	-1.4082019602	-0.5762357701	 0.0050898345	-0.296366
C	-2.5022646726	 0.2380096628	-0.4821175421	 0.389018
C	-3.4036799337	 0.9052490886	-0.9137338518	-0.423219
C	 0.9820697352	-0.4585697585	-0.9848029645	 0.10922
O	 1.5722005396	 0.2570408017	-1.7568024229	-0.266336
H	 0.5624094341	 1.7325216044	-0.7525374811	 0.295877
H	 0.7660000375	-1.4172744001	 1.5233360072	 0.094891
H	 0.4548344099	 0.1914612386	 2.2413284921	 0.132996
H	-1.6177209672	-1.6949923917	 1.7895178904	 0.224548
H	-1.3682219247	-1.5148063636	-0.5697653242	 0.089666
H	-4.2004107267	 1.5043890433	-1.2799821559	 0.2004
H	 1.0867694374	-1.5627077099	-1.0139507177	 0.097499
63.285	95.8785	140.971	199.0274	292.653	302.5525	352.546	365.1375	451.847	484.8212	543.0295	579.0592	624.8652	664.0017	690.0819	803.1865	841.8431	924.5459	934.673	980.0489	1020.7695	1057.5818	1086.9065	1120.0009	1150.2273	1198.9429	1294.7909	1317.1211	1354.5866	1385.38	1393.1668	1442.8299	1502.4923	1810.2423	2238.1043	2923.7142	2967.7149	2996.6182	3087.4867	3503.6022	3540.0249	3689.6109
OC1(CNC1C#C)C=O	O[C@]1(CN[C@H]1C#C)C=O	
InChI=1S/C6H7NO2/c1-2-5-6(9,4-8)3-7-5/h1,4-5,7,9H,3H2	InChI=1S/C6H7NO2/c1-2-5-6(9,4-8)3-7-5/h1,4-5,7,9H,3H2/t5-,6+/m0/s1
