21
gdb 61851	2.81179	0.95706	0.75641	4.176	80.62	-0.2727	0.0124	0.2852	1522.0962	0.18101	-424.246221	-424.23641	-424.235466	-424.282725	34.896	
C	 0.0543445995	 1.6381802994	 0.0545987565	-0.396674
C	-0.0257833281	 0.1162911015	 0.0394238586	 0.078051
O	-1.4204706539	-0.2655024287	 0.0030767048	-0.187634
C	-1.9438845987	-0.9143493244	 1.0554651534	 0.16786
O	-3.087278665	-1.2580669614	 1.1053376078	-0.281051
C	 0.6579524189	-0.5165974028	-1.1602883802	 0.067423
C	 2.2078047353	-0.4261086127	-1.2620254731	-0.238837
C	 2.2156321196	-1.883640724	-1.7977147579	-0.213216
C	 0.7840412647	-2.0642073544	-1.2233148575	-0.238302
H	 1.0987869686	 1.963804695	 0.0585437259	 0.127603
H	-0.4357914472	 2.0542889835	-0.8305148869	 0.135018
H	-0.4375072868	 2.0458424584	 0.9421914339	 0.125203
H	 0.4194236306	-0.2885713161	 0.9605484559	 0.079302
H	-1.2044765744	-1.0926933225	 1.8619272046	 0.072138
H	 0.1894585533	-0.1347732154	-2.0738968015	 0.084433
H	 2.6316978886	 0.357422192	-1.8941167243	 0.102419
H	 2.6705143371	-0.3594238983	-0.2710572253	 0.09945
H	 2.219573205	-1.9117175376	-2.890774353	 0.108161
H	 2.9974427002	-2.5524729008	-1.4318266271	 0.100947
H	 0.8051443453	-2.5037629262	-0.2200855923	 0.096662
H	 0.0522697974	-2.6079713745	-1.8234046724	 0.111045
19.9469	67.8766	118.5673	140.7832	175.938	214.5141	247.288	327.245	367.2881	407.6489	489.8999	646.6736	655.4904	775.0255	784.6256	891.9303	919.9151	932.9218	949.8642	964.7721	1004.8157	1026.3681	1045.8566	1081.3844	1100.4149	1137.8955	1191.075	1205.7183	1213.164	1252.4833	1255.8916	1261.5926	1276.7391	1290.6401	1323.8166	1367.7705	1397.3896	1409.1086	1440.1914	1477.356	1486.2186	1486.9474	1496.3182	1509.5961	1860.9324	2934.2545	2995.6594	3041.9002	3043.6794	3046.0542	3055.7374	3063.2657	3101.5145	3110.3664	3119.4622	3121.1212	3123.3923
CC(OC=O)C1CCC1	C[C@@H](OC=O)C1CCC1	
InChI=1S/C7H12O2/c1-6(9-5-8)7-3-2-4-7/h5-7H,2-4H2,1H3	InChI=1S/C7H12O2/c1-6(9-5-8)7-3-2-4-7/h5-7H,2-4H2,1H3/t6-/m1/s1
