17
gdb 133576	2.78747	1.13152	1.07386	3.1101	61.75	-0.2633	0.0619	0.3252	1186.0262	0.131017	-549.501933	-549.492766	-549.491821	-549.536419	33.554	
C	-0.0789938538	 1.5526699634	-0.1772627073	-0.448965
C	-0.0377120152	 0.0482350545	 0.0037478791	 0.322074
C	-1.2519098663	-0.6781594709	-0.5457815781	-0.456171
N	 1.2851309032	-0.5807679773	-0.1760786201	-0.353586
C	 0.6620712092	-0.6040695188	 1.1486225796	-0.242063
C	 1.3771546758	 0.1119612051	 2.2674676174	 0.306951
F	 2.112451917	 1.1497847908	 1.8623379921	-0.066514
F	 0.4913527526	 0.5656064982	 3.1735599472	-0.082992
F	 2.1990973079	-0.7350442598	 2.9117220832	-0.080596
H	 0.8484168091	 2.019949917	 0.1481017238	 0.146417
H	-0.2341192881	 1.7930320804	-1.2346339581	 0.117593
H	-0.9095529015	 1.985735804	 0.3903548176	 0.121887
H	-1.3401054326	-0.508356618	-1.6247958353	 0.128069
H	-1.1899090286	-1.75766988	-0.3739288705	 0.114348
H	-2.1727114216	-0.3142438688	-0.0779785973	 0.132368
H	 1.2058675696	-1.4940625593	-0.6165234121	 0.235072
H	 0.2367159435	-1.5361741305	 1.5153128689	 0.10611
38.0104	130.5344	160.8539	199.3363	231.3668	290.1014	308.9737	375.1217	381.1172	434.02	481.5205	535.5888	587.5489	686.9308	725.713	802.5665	887.0292	953.4696	960.2183	974.8744	1025.2414	1074.358	1105.1349	1152.5108	1154.5868	1183.7862	1213.7107	1308.0253	1316.2987	1356.8475	1413.1758	1425.665	1473.4905	1481.2665	1488.4718	1505.2856	1517.3375	3028.1014	3041.2429	3094.1178	3098.8128	3103.1367	3131.4859	3173.0463	3499.8914
CC1(C)NC1C(F)(F)F	CC1(C)N[C@H]1C(F)(F)F	
InChI=1S/C5H8F3N/c1-4(2)3(9-4)5(6,7)8/h3,9H,1-2H3	InChI=1S/C5H8F3N/c1-4(2)3(9-4)5(6,7)8/h3,9H,1-2H3/t3-/m1/s1
