14
gdb 127551	3.30212	1.51155	1.04369	1.9948	70.36	-0.2567	-0.071	0.1857	1068.0341	0.101343	-470.037714	-470.02977	-470.028825	-470.071203	28.078	
C	 0.2451295602	 1.433682853	-0.0532773664	-0.315323
N	-0.0220525813	-0.0009854083	-0.0065781927	-0.116916
N	-0.2541296	-0.6207744101	-1.1918334996	-0.168121
C	-0.4913079041	-1.8821188561	-1.1742909862	-0.018382
C	-0.5249556015	-2.6816376478	 0.0416375072	 0.361706
N	-0.7591653235	-3.9225884534	 0.0509076192	-0.502682
O	-0.2772069462	-1.9709673357	 1.2087749805	-0.263199
C	-0.0208909282	-0.6251735	 1.2255234415	 0.507872
O	 0.1870871894	-0.0552142633	 2.2592340566	-0.354325
H	 1.2325156654	 1.6513037754	 0.3607969049	 0.155473
H	 0.2009195267	 1.7298837944	-1.0997327957	 0.156573
H	-0.5023150346	 1.9798940567	 0.5270371564	 0.155426
H	-0.6765388635	-2.37857993	-2.1181337427	 0.16009
H	-0.7377945187	-4.2957143947	 1.0011755971	 0.241807
46.9321	89.5212	145.9602	203.4581	320.9919	369.0839	413.9189	484.115	536.7255	605.0823	720.6795	727.0533	756.532	814.3263	886.2149	915.7891	968.5265	1009.1268	1110.2205	1123.0729	1157.2619	1261.6679	1286.0409	1360.042	1393.3653	1449.2686	1477.4131	1510.4416	1664.9453	1741.7666	1855.7088	3060.131	3125.961	3178.9318	3225.7262	3488.3244
CN1N=CC(=N)OC1=O	Cn1ncc([NH])oc1=O	
InChI=1S/C4H5N3O2/c1-7-4(8)9-3(5)2-6-7/h2,5H,1H3	InChI=1S/C4H8N3O2/c1-7-4(8)9-3(5)2-6-7/h3,5-6H,2H2,1H3
