24
gdb 121623	4.07138	0.64713	0.57019	3.3215	88.98	-0.2331	0.0365	0.2697	2039.7348	0.215114	-405.589486	-405.577699	-405.576755	-405.628065	40.44	
C	 0.0529718732	 1.5865822448	-0.010453705	-0.379699
C	 0.0112297701	 0.0560418607	-0.0265224817	-0.173484
C	-1.4151307215	-0.5002433743	 0.0239795465	-0.146501
C	-1.4540487259	-2.0298284939	 0.0077927975	-0.342579
C	-2.8857995115	-2.5703033319	 0.0586928499	 0.423516
O	-3.8401682027	-1.8099812538	 0.1055619752	-0.380254
N	-3.0512066123	-3.9355210123	 0.0494820453	-0.087462
C	-4.3957406855	-4.484322119	 0.0969356979	-0.342573
C	-1.9860871837	-4.9150901732	-0.0041944021	-0.336063
H	 1.0812053787	 1.9600328652	-0.0471774839	 0.108232
H	-0.4853375622	 2.0049142017	-0.8680516913	 0.115654
H	-0.4148790485	 1.9844663423	 0.8967712137	 0.115654
H	 0.5178282721	-0.3140404278	-0.9285012498	 0.089393
H	 0.5877727827	-0.3343405678	 0.8234005414	 0.089392
H	-1.9286988505	-0.138345776	 0.9212780789	 0.110564
H	-1.9982666677	-0.1181433505	-0.8208976654	 0.110568
H	-0.9523186432	-2.4064715186	-0.8933008659	 0.116919
H	-0.8823886937	-2.4267823708	 0.8570200358	 0.116915
H	-4.5947938652	-5.0981690122	-0.7911206563	 0.116904
H	-4.5239553679	-5.1182755489	 0.9839236556	 0.116903
H	-5.1021968452	-3.6573067737	 0.1345039693	 0.169338
H	-2.0163910474	-5.5715104476	 0.8764013165	 0.1242
H	-2.0871549686	-5.5513730922	-0.8942349384	 0.124206
H	-1.0086475335	-4.4399327502	-0.0378603738	 0.140258
33.5415	66.4187	76.1015	105.9694	108.0319	143.0709	172.0627	232.4511	243.6938	256.0715	298.2996	385.6804	417.828	507.5369	576.3628	616.6689	736.5155	795.3141	815.2111	911.8571	941.0231	973.0461	1032.7823	1073.1671	1081.9977	1112.8667	1118.0515	1131.9096	1159.6673	1180.6993	1238.0231	1274.0387	1289.9654	1319.9018	1327.6611	1358.1006	1396.522	1412.1295	1425.1385	1435.4832	1462.4137	1479.2335	1484.0578	1484.7543	1495.8693	1498.5538	1503.2994	1503.9334	1512.271	1543.7073	1749.6666	3000.8701	3006.7064	3011.4386	3015.7878	3029.885	3033.5942	3039.3293	3047.5837	3049.7423	3054.56	3088.1508	3098.9712	3101.1571	3172.1022	3175.6175
CCCCC(=O)N(C)C	CCCCC(=O)N(C)C	
InChI=1S/C7H15NO/c1-4-5-6-7(9)8(2)3/h4-6H2,1-3H3	InChI=1S/C7H15NO/c1-4-5-6-7(9)8(2)3/h4-6H2,1-3H3
