19
gdb 39839	2.81102	1.75724	1.37594	2.507	79.03	-0.2217	0.0658	0.2874	991.1297	0.161854	-381.998861	-381.991816	-381.990871	-382.030033	29.486	
C	-0.1307318986	 1.4631296114	 0.0102306849	-0.289671
C	 1.241334136	 0.8398295112	-0.0045475566	-0.334721
C	 0.0102081057	-0.035659192	 0.0021013493	 0.4481
C	-0.3090964781	-0.87800086	 1.2188742779	-0.163868
N	-1.7397818178	-1.2069574184	 1.3955683847	-0.317521
C	-0.8398288865	-2.1907896435	 0.7585639056	-0.040127
C	-0.8530022287	-2.1837951947	-0.7593234207	-0.040127
N	-1.7637952916	-1.1942047975	-1.3715196682	-0.317521
C	-0.3302320531	-0.8667784355	-1.2166574166	-0.163868
H	-0.4754563214	 1.9312001237	 0.9258770767	 0.115089
H	-0.4912568312	 1.9395933217	-0.8949417005	 0.115089
H	 1.8230231997	 0.8925034378	-0.9195976583	 0.108579
H	 1.838821508	 0.8841159134	 0.9007152159	 0.108579
H	 0.3169439391	-0.7794178552	 2.1017377058	 0.07971
H	-1.8912228726	-1.4873507254	 2.3627023497	 0.225157
H	-0.614571153	-3.1196197434	 1.2714999646	 0.081127
H	-0.6367543993	-3.1078405566	-1.2846298411	 0.081127
H	-1.9320202025	-1.4656829168	-2.3384234569	 0.225157
H	 0.280399186	-0.7600126901	-2.1093071961	 0.07971
123.7046	206.7955	278.4836	314.7109	381.6058	467.0237	559.8958	580.5022	694.4075	770.5114	773.7954	796.1557	842.8619	863.2891	871.7931	888.659	899.8855	928.9768	937.9726	963.2005	970.3083	982.4385	1058.4431	1063.9322	1068.9507	1081.1331	1125.6022	1129.0083	1162.0096	1183.3571	1186.0932	1231.9427	1245.3885	1285.8558	1297.2148	1348.5441	1397.2118	1413.5568	1441.5716	1469.3391	1504.559	3120.6968	3133.8593	3137.5403	3140.2503	3161.3232	3175.151	3199.9007	3220.3514	3482.3833	3483.6941
C1CC11C2NC2C2NC12	C1CC21[C@H]1N[C@H]1[C@H]1N[C@@H]21	
InChI=1S/C7H10N2/c1-2-7(1)5-3(8-5)4-6(7)9-4/h3-6,8-9H,1-2H2	InChI=1S/C7H10N2/c1-2-7(1)5-3(8-5)4-6(7)9-4/h3-6,8-9H,1-2H2/t3-,4+,5-,6+
