21
gdb 64334	2.52137	1.36551	1.12048	4.5435	78.25	-0.2557	0.0158	0.2715	1186.007	0.182519	-424.282531	-424.273496	-424.272552	-424.316004	34.779	
C	 0.0062675797	 1.5505495583	 0.0270460636	-0.425707
C	-0.0610196043	 0.0171786803	-0.0205885025	 0.247943
C	-1.5357310841	-0.42420021	-0.084238602	-0.422553
C	 0.7389059773	-0.5087932907	-1.2264923479	-0.235892
C	 0.7694732321	-2.029544171	-1.2630214004	-0.076873
O	 1.1353883439	-2.649077019	-0.0182742211	-0.228466
C	 0.916661468	-2.0677602063	 1.1872078525	 0.399258
O	 1.0431975868	-2.7302088099	 2.1811306366	-0.324132
C	 0.6158995925	-0.5748006943	 1.2294932431	-0.348396
H	 1.0432956851	 1.9031323977	 0.0395905577	 0.112892
H	-0.4879039441	 1.9916860485	-0.8455345387	 0.113801
H	-0.4902996406	 1.9379439414	 0.9232995333	 0.117206
H	-2.0086795682	-0.0824953895	-1.0113182484	 0.114438
H	-1.6500457697	-1.5112972764	-0.0292456421	 0.126367
H	-2.0975202116	 0.0018048855	 0.7533861457	 0.121251
H	 0.3106700373	-0.1496351434	-2.1698391332	 0.104121
H	 1.7637954315	-0.1209632207	-1.1716243558	 0.104927
H	-0.2083394918	-2.4313233644	-1.5538358536	 0.118396
H	 1.5011757696	-2.3902132262	-1.9910134998	 0.121835
H	 1.5868267644	-0.0847956835	 1.3847035074	 0.129545
H	 0.0331017765	-0.3965197863	 2.1369659756	 0.130039
82.3796	107.813	213.2619	248.8397	263.5976	288.9672	320.8135	362.818	398.798	451.2995	477.8106	516.5713	582.2897	662.1013	745.7931	800.6587	889.0459	899.3823	947.8618	952.2749	966.3669	1004.4299	1024.7526	1063.7851	1109.4006	1151.5707	1186.8926	1199.2844	1242.7573	1280.8349	1288.0166	1314.9884	1336.7185	1380.6393	1403.5164	1423.7395	1434.0918	1455.8396	1477.4655	1484.7082	1495.637	1505.7078	1506.9792	1525.2986	1839.8017	3023.0207	3023.4213	3026.9953	3033.8397	3037.0805	3070.347	3091.5056	3094.5466	3095.5158	3098.5963	3102.1949	3103.7239
CC1(C)CCOC(=O)C1	CC1(C)CCOC(=O)C1	
InChI=1S/C7H12O2/c1-7(2)3-4-9-6(8)5-7/h3-5H2,1-2H3	InChI=1S/C7H12O2/c1-7(2)3-4-9-6(8)5-7/h3-5H2,1-2H3
