23
gdb 39679	3.72376	0.99355	0.87425	1.3976	85.3	-0.2457	0.0796	0.3253	1413.7545	0.208139	-388.286032	-388.277346	-388.276402	-388.320475	32.867	
C	-0.0441118694	 1.53333102	 0.2390991672	-0.21398
C	 1.4929643346	 1.5254274334	 0.0224742518	-0.237498
C	 1.5139979797	 0.04642545	 0.5078133024	 0.069104
C	-0.0157432645	-0.0183243436	 0.2246352505	-0.238139
C	 2.4425018137	-0.9519751086	-0.17485046	-0.012355
C	 3.9443887739	-0.6462411437	 0.098072892	-0.255501
C	 4.3899294024	-1.7843176599	 1.0493217318	-0.068732
O	 3.1993185626	-2.4063500816	 1.5119713436	-0.242867
C	 2.2948831117	-2.3672357128	 0.4200290991	-0.099916
H	-0.3115078745	 1.9236238585	 1.2252318172	 0.102204
H	-0.6592936177	 2.0371837874	-0.5100072532	 0.094984
H	 1.7484544417	 1.5957176715	-1.0405808207	 0.094961
H	 2.0917504449	 2.2569862716	 0.5708452375	 0.093385
H	 1.6917462331	 0.0122483897	 1.5895178318	 0.077322
H	-0.6492868344	-0.5488816472	 0.9397822009	 0.095766
H	-0.2168655357	-0.4143544953	-0.7770734172	 0.094504
H	 2.2294092666	-0.9574597806	-1.2498790298	 0.061254
H	 4.536722701	-0.6425543448	-0.8202222333	 0.099313
H	 4.0614241233	 0.3357631178	 0.5642344274	 0.107763
H	 5.0157591039	-2.5146887165	 0.5113928846	 0.086393
H	 4.9471057325	-1.4376575115	 1.9235170332	 0.106049
H	 1.2938510069	-2.5829647266	 0.8036610754	 0.107184
H	 2.5543770537	-3.1362940871	-0.3274756522	 0.0788
44.1482	77.9704	127.461	155.5147	223.7008	323.2684	352.7398	427.3346	611.2156	679.3367	731.9108	764.1585	786.845	839.6981	890.598	912.7653	930.494	935.3843	947.9234	958.8125	971.3969	977.3771	1024.7351	1034.0758	1093.5404	1112.8127	1125.5105	1176.4049	1198.2991	1222.1798	1235.0502	1240.7309	1256.3595	1257.2424	1265.9909	1273.5012	1292.9248	1300.0238	1307.0348	1321.4687	1355.7274	1397.2418	1404.1401	1477.9517	1486.5144	1495.9686	1506.3448	1510.2844	1524.2097	2955.9937	2971.6676	3029.2127	3039.174	3041.0498	3048.3271	3057.8011	3062.1126	3086.5383	3090.5231	3093.8182	3097.2387	3107.1322	3115.5107
C1CC(C1)C1CCOC1	C1CC(C1)[C@H]1CCOC1	
InChI=1S/C8H14O/c1-2-7(3-1)8-4-5-9-6-8/h7-8H,1-6H2	InChI=1S/C8H14O/c1-2-7(3-1)8-4-5-9-6-8/h7-8H,1-6H2/t8-/m0/s1
