16
gdb 66268	2.05523	1.64693	1.43206	3.9851	68.95	-0.2662	-0.0532	0.213	1016.9304	0.123043	-437.920392	-437.911796	-437.910852	-437.953796	31.171	
C	-0.072066815	 1.5829372238	-0.0096127669	-0.431038
C	 0.0395555096	 0.0622727391	-0.0290075425	 0.106176
O	 0.8343230957	-0.3705251085	-1.1165168386	-0.265239
C	 1.4239879872	-1.6342775086	-0.7692770297	-0.107278
C	 1.800010568	-1.5066563422	 0.708672781	-0.340722
C	 0.7896880521	-0.4895017952	 1.2307826487	 0.376468
O	 0.6039536554	-0.1281226533	 2.3559720984	-0.287889
C	-1.2953414374	-0.5786259995	-0.0792673073	 0.271731
N	-2.320292642	-1.1115855702	-0.1215784887	-0.331252
H	 0.9316935781	 2.0138201303	-0.0242993577	 0.136374
H	-0.6267186311	 1.9387643879	-0.8798580905	 0.148383
H	-0.584078657	 1.8958029087	 0.9029785444	 0.158868
H	 0.701090646	-2.4452236382	-0.9301908611	 0.127888
H	 2.2736661214	-1.7813989039	-1.4366389558	 0.131393
H	 1.7469160233	-2.4337978804	 1.2829294038	 0.152729
H	 2.8034398857	-1.0865626599	 0.8375119225	 0.15341
73.7981	132.9186	151.7693	199.5668	219.2574	250.7736	354.6412	419.4305	508.3805	525.8574	583.8489	633.1476	652.4483	689.6337	829.775	869.5985	899.0088	973.8318	1006.2038	1045.1602	1097.4721	1158.4766	1165.1594	1194.6673	1218.4109	1254.2041	1283.6853	1386.082	1400.3151	1446.0204	1476.6532	1489.5816	1515.873	1872.6887	2345.1946	3022.3466	3058.6037	3061.5166	3121.5311	3130.7078	3142.7397	3148.8463
CC1(OCCC1=O)C#N	C[C@]1(OCCC1=O)C#N	
InChI=1S/C6H7NO2/c1-6(4-7)5(8)2-3-9-6/h2-3H2,1H3	InChI=1S/C6H7NO2/c1-6(4-7)5(8)2-3-9-6/h2-3H2,1H3/t6-/m0/s1
