13
gdb 21543	3.39492	2.06885	1.29428	0.9644	55.69	-0.2087	0.0522	0.2609	858.8177	0.097353	-431.929307	-431.921865	-431.92092	-431.960561	27.817	
N	-0.2453774886	 1.4741176791	-0.0609247361	-0.640637
C	-0.0390341832	 0.0680821662	-0.0553799712	-0.075964
C	-1.0815748525	-0.8396513292	-0.0737464645	 0.468989
O	-2.4038760886	-0.6169252975	-0.098582633	-0.429247
N	-0.5594707659	-2.0779168587	-0.0627146574	-0.290139
N	 0.8180533282	-2.0532715731	-0.0370428631	-0.350765
C	 1.1082467077	-0.7647197336	-0.0331253959	 0.373531
O	 2.3828026999	-0.319279403	-0.0099967341	-0.43437
H	 0.1861522757	 1.915115413	-0.8677080459	 0.245361
H	 0.1553091744	 1.9170229173	 0.7605902062	 0.245357
H	-2.4967102837	 0.348589152	-0.1016208252	 0.30985
H	-1.0452708157	-2.956255515	-0.0698985723	 0.276787
H	 2.9514285624	-1.0999856175	 0.0013608725	 0.301247
175.7383	221.8882	243.1897	271.0315	284.3771	303.5351	420.2197	462.7992	521.3677	567.587	601.6606	682.9426	738.454	749.6887	805.135	865.4746	1069.4731	1129.3053	1204.2567	1219.4976	1223.9827	1317.3973	1390.2529	1479.6332	1563.6964	1620.8897	1653.8112	1693.7891	3489.0789	3548.8797	3700.79	3725.2279	3787.7894
NC1=C(O)NN=C1O	Nc1c(O)[nH]nc1O	
InChI=1S/C3H5N3O2/c4-1-2(7)5-6-3(1)8/h4H2,(H3,5,6,7,8)	InChI=1S/C3H5N3O2/c4-1-2(7)5-6-3(1)8/h4H2,(H3,5,6,7,8)
