16
gdb 19143	3.43952	1.67627	1.34287	0.8576	66.03	-0.2497	-0.046	0.2037	932.2658	0.130827	-379.867856	-379.860303	-379.859359	-379.899945	27.758	
O	-0.0259061171	 0.0678345859	 0.6352497047	-0.27252
C	 0.0445958727	 1.0705259611	-0.0374251642	 0.076961
C	 1.2579228482	 1.9386580834	-0.0858425979	 0.22872
C	 1.7806629269	 2.3182965912	 1.2779612198	-0.254429
N	 2.4857505861	 1.3394793893	 0.4678599652	-0.337117
C	 1.4575318072	 2.8797632252	-1.2379350557	-0.04617
C	 0.8398799351	 2.6494736458	-2.568781505	-0.25475
N	 0.3789978783	 3.759409869	-1.7161527882	-0.324005
H	-0.8197696069	 1.3964428484	-0.6533196012	 0.081291
H	 2.2708219549	 3.2826642012	 1.3818813914	 0.134096
H	 1.2162431148	 1.97775164	 2.1414305651	 0.135727
H	 2.2423913078	 0.4030407698	 0.7937501512	 0.251796
H	 2.4306555755	 3.363067853	-1.2042604755	 0.106007
H	 1.3659824795	 2.9528506896	-3.4691256159	 0.129368
H	 0.1991426165	 1.7806431203	-2.6983132594	 0.114269
H	-0.5042661395	 3.5248420568	-1.2683562944	 0.230754
82.3669	133.5301	196.6329	250.985	293.3059	343.3158	389.7337	495.8571	601.1635	750.8437	815.929	844.0082	873.4508	927.5963	949.8064	968.3888	984.4454	1010.9173	1033.5696	1087.5424	1124.2151	1143.128	1155.488	1178.7231	1246.5135	1276.5657	1290.799	1324.3481	1342.4181	1432.2791	1449.1421	1497.0392	1517.9231	1797.9801	2906.309	3109.4465	3109.5194	3141.2409	3193.4168	3204.7863	3461.3056	3490.422
O=CC1(CN1)C1CN1	O=C[C@]1(CN1)[C@H]1CN1	
InChI=1S/C5H8N2O/c8-3-5(2-7-5)4-1-6-4/h3-4,6-7H,1-2H2	InChI=1S/C5H8N2O/c8-3-5(2-7-5)4-1-6-4/h3-4,6-7H,1-2H2/t4-,5-/m1/s1
