18
gdb 53132	3.75431	1.03064	0.91422	1.6893	85.51	-0.2203	0.0396	0.26	1330.2718	0.146803	-364.690063	-364.681526	-364.680582	-364.726973	31.503	
C	 0.2830511197	 1.6462606592	-0.2200796263	-0.503074
C	 0.1145144021	 0.2054153391	-0.0975490787	 0.148077
C	-0.0470342558	-0.9840167685	 0.0188510805	 0.005711
C	-0.1250089312	-2.4192331428	 0.0835654448	-0.202727
C	-0.4228499824	-3.329688746	 1.2617075448	-0.114785
C	-1.689642222	-2.9672721651	 2.057744355	-0.036334
C	-2.4639223753	-1.8121993535	 1.5593163622	-0.257643
N	-2.5662993206	-3.1003886721	 0.8389916968	-0.147313
C	-1.3105219074	-3.3763307973	 0.0429601029	-0.031656
H	 1.3221330261	 1.9429014422	-0.0382694256	 0.148739
H	 0.0096871302	 1.996269952	-1.2218511507	 0.149389
H	-0.3441653164	 2.183407445	 0.5003115084	 0.148325
H	 0.668565273	-2.8788432096	-0.5080722841	 0.120175
H	 0.3024229345	-4.0499339548	 1.6176275171	 0.098274
H	-1.9467755581	-3.4919911529	 2.9722804356	 0.100409
H	-3.3839448981	-1.5895877747	 2.0939599865	 0.11858
H	-1.9859788131	-0.9600899167	 1.0979719022	 0.149574
H	-1.3971424149	-4.1125343136	-0.7467308914	 0.106279
1.8128	94.1328	99.9758	230.3333	268.1156	365.5293	383.9946	433.0179	571.2697	591.5636	679.885	719.9479	739.7326	751.8578	859.1217	887.6852	898.6375	929.5366	996.777	1008.5739	1051.7155	1053.3936	1054.1425	1064.6307	1084.7362	1091.2946	1115.8777	1141.9741	1218.8749	1246.5153	1274.0449	1325.666	1351.3179	1414.1899	1428.1711	1477.0732	1478.7118	1500.705	2357.8443	3024.5266	3084.8574	3085.0379	3093.0335	3127.1905	3159.8744	3181.4806	3195.8719	3244.7732
CC#CC1C2C3CN3C12	CC#C[C@H]1[C@H]2[C@H]3CN3[C@@H]12	
InChI=1S/C8H9N/c1-2-3-5-7-6-4-9(6)8(5)7/h5-8H,4H2,1H3	InChI=1S/C8H9N/c1-2-3-5-7-6-4-9(6)8(5)7/h5-8H,4H2,1H3/t5-,6+,7-,8-,9?/m0/s1
