20
gdb 73789	2.11341	1.74342	0.99485	4.0278	83.73	-0.2355	-0.0228	0.2127	1210.3819	0.171511	-403.214685	-403.205297	-403.204353	-403.249299	34.378	
C	 0.4793729606	 1.4883130118	 0.0343474356	-0.483981
C	 0.1593233851	 0.0211052802	-0.0205792708	 0.191784
C	-0.1124277024	-0.6417737045	-1.1601364322	 0.131721
C	-0.1591294162	-0.0059363729	-2.5296799009	-0.504312
C	-0.3277357974	-2.1257048941	-1.1431144976	 0.355013
O	-0.4028607882	-2.7911218629	-2.1652889374	-0.38019
N	-0.3984147499	-2.7166101402	 0.0952932299	-0.335049
C	-0.666353052	-1.9501374365	 1.2993126296	-0.173706
C	 0.2145205917	-0.7053850256	 1.3047457175	-0.281839
H	 1.4370663376	 1.6518591277	 0.5459613776	 0.130646
H	 0.5372287154	 1.9481977763	-0.9525691858	 0.131347
H	-0.2766165224	 2.0280156918	 0.6198315337	 0.130552
H	 0.799956765	 0.4484533595	-2.801560767	 0.124168
H	-0.3899265183	-0.7730350182	-3.2691359415	 0.157842
H	-0.921096993	 0.7784590108	-2.5882271645	 0.120518
H	-0.6869869417	-3.6833955608	 0.0609757735	 0.243321
H	-1.725195036	-1.6494522955	 1.3562408328	 0.103506
H	-0.4572294787	-2.5766101037	 2.1715284998	 0.11076
H	 1.2570632374	-0.9830320217	 1.5198756158	 0.121379
H	-0.1001693365	-0.0380991418	 2.1150752422	 0.106518
49.9115	105.7811	118.0403	143.5268	213.6608	303.5149	320.3171	347.3925	444.0935	454.6212	511.0148	523.135	583.1791	665.1625	692.4143	782.6823	845.5887	917.7004	938.7503	1001.6255	1014.0286	1060.206	1095.621	1101.8602	1125.7318	1166.5138	1227.3171	1236.3788	1262.9204	1352.9033	1374.0213	1401.3914	1403.0899	1411.0863	1463.3022	1473.4765	1477.6668	1481.913	1491.7001	1508.1139	1517.0598	1705.5173	1762.328	2968.7658	3002.954	3017.3628	3034.4758	3059.1034	3062.3775	3075.633	3085.0706	3140.5286	3149.8829	3612.0901
CC1=C(C)C(=O)NCC1	CC1=C(C)C(=O)NCC1	
InChI=1S/C7H11NO/c1-5-3-4-8-7(9)6(5)2/h3-4H2,1-2H3,(H,8,9)	InChI=1S/C7H11NO/c1-5-3-4-8-7(9)6(5)2/h3-4H2,1-2H3,(H,8,9)
