18
gdb 92679	3.30249	1.17322	0.94596	3.5327	80.85	-0.2674	-0.0467	0.2207	1243.5961	0.147803	-401.982148	-401.973262	-401.972318	-402.015758	32.932	
C	 0.0020693416	 1.5682693455	 0.0110369792	-0.405008
C	 0.1122807071	 0.0456727729	 0.0061908863	 0.010294
C	 0.8879667873	-0.5521841413	-1.1958650209	-0.268405
C	 1.4868738335	-1.8106096796	-0.6360089101	-0.150828
C	 1.4126802111	-1.8423106637	 0.7015576704	 0.190889
C	 1.9235727444	-2.8545130661	 1.5560148689	 0.187733
N	 2.3244505423	-3.6443826188	 2.3037867991	-0.337276
C	 0.7955614883	-0.5593941791	 1.2588647618	-0.008164
O	 1.8014471831	 0.3277693141	 1.7314262278	-0.425189
H	 0.9897834026	 2.0307201019	 0.0712896526	 0.138894
H	-0.4912396847	 1.9179338528	-0.9016321016	 0.111301
H	-0.5837341431	 1.920627182	 0.8654114944	 0.119187
H	-0.8953643433	-0.385894859	-0.0202789776	 0.088188
H	 0.243541161	-0.7396865742	-2.0616272329	 0.117479
H	 1.6857454891	 0.1199669474	-1.5426151044	 0.130427
H	 1.9484100021	-2.5789948312	-1.2458683696	 0.124584
H	 0.0689789818	-0.7627405648	 2.056852352	 0.080607
H	 2.2148425256	-0.0675075287	 2.5063242647	 0.295287
67.9818	129.8937	168.7982	227.5888	251.4162	274.9659	287.2199	343.0959	435.2564	446.5229	566.2359	595.117	644.3187	688.9054	821.3936	857.7528	887.5801	927.3907	945.5452	992.7838	1007.8057	1079.6229	1117.4709	1137.6275	1178.8729	1192.2842	1241.6246	1287.7571	1304.0568	1324.2813	1353.5559	1367.2282	1406.921	1418.8636	1473.8182	1493.4339	1499.807	1676.5018	2331.2434	3008.9328	3015.7998	3036.4962	3042.5103	3068.5269	3105.4426	3130.5105	3203.6116	3813.7472
CC1CC=C(C#N)C1O	C[C@H]1CC=C(C#N)[C@H]1O	
InChI=1S/C7H9NO/c1-5-2-3-6(4-8)7(5)9/h3,5,7,9H,2H2,1H3	InChI=1S/C7H9NO/c1-5-2-3-6(4-8)7(5)9/h3,5,7,9H,2H2,1H3/t5-,7-/m0/s1
