17
gdb 29927	2.07155	1.87844	0.99739	3.0858	86.17	-0.2086	-0.0056	0.203	1165.382	0.135271	-380.891317	-380.882053	-380.881109	-380.925662	33.032	
C	-0.040787532	 1.4415081531	 0.0614315317	-0.340083
N	 0.0082325451	-0.0059871113	 0.0386639312	-0.068546
C	 0.0523075815	-0.8115338527	-1.0514232027	-0.009569
N	 0.0903821129	-2.0899652863	-0.7375670932	-0.316706
C	 0.0705628378	-2.1353315443	 0.6310610265	 0.187592
C	 0.1019595299	-3.4207967316	 1.3874300807	-0.501173
C	 0.0192582648	-0.8482479334	 1.1469157649	 0.082278
C	-0.0174586318	-0.368583794	 2.4675455497	 0.284934
C	-0.0490706101	 0.0466506315	 3.5997594555	-0.487879
H	 0.8253878164	 1.8503441507	 0.5892855668	 0.152401
H	-0.0370762374	 1.8087883902	-0.966303408	 0.143012
H	-0.9485099233	 1.790709802	 0.5615679164	 0.1524
H	 0.0543250705	-0.4067375866	-2.0534830469	 0.128292
H	 1.0063256312	-3.9912422361	 1.1500494887	 0.136202
H	 0.0789368614	-3.2387327853	 2.4644503211	 0.12977
H	-0.7541353275	-4.0504878603	 1.1224266084	 0.136204
H	-0.0766116594	 0.4021317845	 4.5997245092	 0.19087
76.276	91.3178	130.6018	134.8167	184.9137	260.6047	295.2991	371.8626	456.6369	503.6205	551.7314	561.3589	651.5495	666.0644	683.3665	716.047	783.5423	821.5116	989.5344	1057.7991	1061.4468	1086.8053	1154.1285	1216.9132	1267.1695	1328.9686	1401.7557	1405.8462	1427.2258	1455.1964	1477.4284	1478.2742	1483.757	1513.7517	1534.3421	1583.0474	2219.6526	3036.0274	3046.6729	3089.9078	3110.7285	3126.2342	3141.484	3240.1488	3501.8943
CN1C=NC(C)=C1C#C	Cn1cnc(C)c1C#C	
InChI=1S/C7H8N2/c1-4-7-6(2)8-5-9(7)3/h1,5H,2-3H3	InChI=1S/C7H8N2/c1-4-7-6(2)8-5-9(7)3/h1,5H,2-3H3
