17
gdb 75411	2.27616	1.72426	1.02474	5.1636	77.2	-0.2336	-0.0828	0.1508	1141.6436	0.135558	-421.879306	-421.870841	-421.869897	-421.912723	31.111	
C	 0.0333288672	 1.5058044532	 0.0398494966	-0.477346
C	-0.0276339716	 0.0040156059	 0.0136771514	 0.208663
C	-1.1748076915	-0.6942700465	-0.0638017629	-0.139471
C	-1.283378449	-2.1908336124	-0.0942660813	-0.274917
C	 0.0233272607	-2.8766581814	-0.5264910175	-0.328636
C	 1.2324177986	-2.2553172115	 0.1406822035	 0.310178
O	 2.1319780843	-2.8847906173	 0.6353211532	-0.276521
C	 1.2693278661	-0.7045162506	 0.1328872405	 0.227675
O	 2.3257888918	-0.122236697	 0.2516319511	-0.294058
H	 0.6273388779	 1.883368286	-0.7988808281	 0.144331
H	-0.9655026637	 1.9458026886	-0.0087372765	 0.117637
H	 0.5339946851	 1.8553892954	 0.9483572489	 0.147451
H	-2.1151946669	-0.1463094606	-0.0973298606	 0.106198
H	-1.5800736192	-2.5472552201	 0.9030817795	 0.139147
H	-2.1011468925	-2.4858133668	-0.7614116622	 0.123667
H	 0.0165216255	-3.9519846732	-0.3346854139	 0.129977
H	 0.1517539773	-2.7286754716	-1.6084513316	 0.136025
59.285	125.882	152.3556	245.7057	287.9349	297.8333	347.458	405.2318	428.6244	515.248	588.7317	624.8536	706.6286	755.2041	837.9322	896.7109	917.9291	956.4937	1026.6529	1047.8253	1072.8705	1083.2172	1153.3061	1195.9535	1200.87	1288.0448	1319.054	1373.9467	1384.4694	1414.3209	1458.5922	1470.1029	1479.0543	1485.3038	1696.524	1770.339	1827.6197	3007.1887	3018.9551	3041.9997	3058.4637	3099.3845	3109.9572	3126.5827	3142.5565
CC1=CCCC(=O)C1=O	CC1=CCCC(=O)C1=O	
InChI=1S/C7H8O2/c1-5-3-2-4-6(8)7(5)9/h3H,2,4H2,1H3	InChI=1S/C7H8O2/c1-5-3-2-4-6(8)7(5)9/h3H,2,4H2,1H3
