21
gdb 103458	2.54385	1.32313	1.12381	0.3792	78.83	-0.2312	0.0675	0.2987	1194.5511	0.180583	-424.183051	-424.173369	-424.172425	-424.217055	36.459	
C	-0.0760921946	 1.5618836676	 0.128829382	-0.495165
C	-0.031230173	 0.0473849879	 0.0492066063	 0.247449
C	-1.2756096025	-0.581209584	-0.5571741386	-0.139118
O	-1.4580674945	-0.2479475963	-1.9278223181	-0.421552
C	 1.2414438544	-0.7217089901	-0.2990278078	-0.214172
C	 2.4468860913	-0.0601148627	 0.3463671429	-0.116914
O	 1.7873705452	-0.0354914271	 1.6408629636	-0.32214
C	 0.6708069816	-0.7733546081	 1.108768804	 0.408448
C	 0.1081476955	-1.8242381858	 2.0121942225	-0.49565
H	 0.7316948467	 1.9465312092	 0.7539174692	 0.144282
H	 0.0104536837	 2.0234995728	-0.8619714701	 0.110185
H	-1.0214373946	 1.8942005896	 0.5748523711	 0.111805
H	-1.2073379611	-1.673130664	-0.5377487837	 0.103824
H	-2.1596707367	-0.2970458383	 0.0362639655	 0.088109
H	-1.5975250598	 0.7023097965	-1.9841498001	 0.284996
H	 1.263150986	-1.4625787017	-1.0877012776	 0.101974
H	 3.3339178663	-0.7026908272	 0.3834129725	 0.109429
H	 2.7332853262	 0.9409233324	 0.0028648837	 0.10247
H	-0.271192004	-1.3605255305	 2.9302700906	 0.133499
H	-0.7169779289	-2.364255649	 1.5423282596	 0.12885
H	 0.8803668326	-2.545864891	 2.2961301327	 0.129389
85.7662	163.1529	176.7452	177.654	202.2359	264.2957	267.8171	292.8829	331.6501	370.4382	409.6287	488.751	550.6774	676.8169	712.6743	766.6457	869.3408	923.3393	939.4528	952.8163	979.6353	991.9772	995.1538	1048.8384	1068.7475	1103.966	1120.4647	1148.3254	1161.3258	1174.7246	1228.1169	1267.6791	1294.1363	1334.8926	1377.6204	1406.129	1407.031	1428.4715	1455.011	1475.7396	1494.4264	1494.6996	1505.4432	1505.7234	1522.5333	2973.3097	3021.0058	3024.1877	3035.5637	3068.3662	3075.6896	3078.4116	3096.0232	3129.3086	3130.8892	3196.6081	3823.99
CC1(CO)C2COC12C	C[C@@]1(CO)[C@H]2CO[C@@]12C	
InChI=1S/C7H12O2/c1-6(4-8)5-3-9-7(5,6)2/h5,8H,3-4H2,1-2H3	InChI=1S/C7H12O2/c1-6(4-8)5-3-9-7(5,6)2/h5,8H,3-4H2,1-2H3/t5-,6-,7-/m1/s1
