18
gdb 86713	3.37676	1.17978	1.00542	3.7119	72.6	-0.2314	-0.0243	0.2071	1202.9243	0.146947	-439.071987	-439.06354	-439.062596	-439.105609	31.341	
C	 0.14997114	 1.6019446742	 0.1799756552	-0.388458
C	 0.0179956762	 0.0812763174	 0.1118942629	 0.022085
N	 0.6266013459	-0.4513928939	-1.1221090591	-0.336038
C	 1.1756902524	-1.7892727184	-0.8995701162	-0.091524
C	 2.441162314	-1.9769097377	-1.7297173839	 0.163275
O	 2.707650385	-2.9787151359	-2.3409644986	-0.250018
C	 1.4706603316	-1.7977819652	 0.5959958592	 0.019151
O	 2.1890205395	-0.6428840211	 1.0478403601	-0.247432
C	 0.7649315737	-0.6668084519	 1.2005347795	 0.043463
H	 1.2062520964	 1.8810126085	 0.1682768035	 0.140554
H	-0.3405446462	 2.0716967661	-0.678151366	 0.114472
H	-0.3158232143	 1.9951809956	 1.0897055856	 0.111579
H	-1.045939421	-0.1990913517	 0.2108346773	 0.068261
H	 0.0049737562	-0.4087164673	-1.9181018202	 0.230714
H	 0.4942780393	-2.6257517558	-1.1207769864	 0.083622
H	 3.103658726	-1.0859626719	-1.7180244759	 0.098343
H	 1.6924233666	-2.7319738334	 1.1024851863	 0.11431
H	 0.3959835187	-0.6673931577	 2.2224646667	 0.103643
59.6432	88.06	167.923	234.2811	238.6547	340.9836	365.6349	421.8912	478.704	540.3903	569.3949	667.4757	825.709	837.8794	850.2296	906.7088	927.7554	951.2156	1012.4949	1022.165	1043.3481	1083.0339	1106.2134	1113.214	1136.4396	1150.0095	1256.3157	1260.5949	1286.0079	1309.091	1354.8282	1367.4731	1399.0153	1405.7187	1433.4434	1439.6437	1494.0122	1497.5522	1831.4685	2920.8347	2939.5327	2985.5534	3038.8988	3104.7175	3131.3538	3154.6903	3171.8323	3580.1754
CC1NC(C=O)C2OC12	C[C@H]1N[C@@H](C=O)[C@H]2O[C@@H]12	
InChI=1S/C6H9NO2/c1-3-5-6(9-5)4(2-8)7-3/h2-7H,1H3	InChI=1S/C6H9NO2/c1-3-5-6(9-5)4(2-8)7-3/h2-7H,1H3/t3-,4+,5+,6-/m1/s1
