16
gdb 75414	2.40483	1.75218	1.0264	5.4689	76.01	-0.2551	-0.0747	0.1804	1115.6584	0.123882	-437.918694	-437.910191	-437.909247	-437.953493	30.274	
C	 0.0438821108	 1.5029835508	 0.0874120299	-0.476257
C	-0.0173331571	 0.0036003601	 0.0638706697	 0.210144
C	-1.1302135085	-0.705309491	-0.1592763371	-0.169301
C	-1.1927184165	-2.1895166105	-0.182976585	-0.121015
O	 0.0281514633	-2.8786896354	 0.0501158099	-0.269505
C	 1.2123938244	-2.2425147314	 0.2870525575	 0.297677
N	 2.2766452128	-2.8937139259	 0.4904225438	-0.463522
C	 1.2494432406	-0.7192075439	 0.3060497017	 0.242343
O	 2.2890759861	-0.1346767628	 0.5139348652	-0.28634
H	 0.7508989047	 1.8702139652	-0.6630313568	 0.150026
H	-0.9377836051	 1.9435519629	-0.1013149103	 0.118173
H	 0.4147454397	 1.8569516713	 1.0543998093	 0.150022
H	-2.0799963456	-0.2057341505	-0.3411726194	 0.115071
H	-1.9147521017	-2.5416279722	 0.5687495955	 0.137723
H	-1.577787294	-2.5283212359	-1.1562806913	 0.13773
H	 2.0859357761	-3.8975505707	 0.4453363575	 0.227031
22.6337	53.3809	147.1518	234.8771	286.5266	321.5875	360.3784	454.0482	491.0279	505.7124	553.1958	665.643	783.3467	798.5308	863.9257	909.5261	917.0517	957.0219	1028.5748	1056.3144	1072.1318	1076.461	1207.6571	1237.5764	1255.6039	1305.8231	1385.5547	1414.2919	1430.5218	1469.3381	1485.0103	1493.9832	1722.36	1728.7759	1780.6414	2995.4122	3013.5985	3045.0559	3104.0412	3129.8344	3150.8921	3462.8162
CC1=CCOC(=N)C1=O	CC1=CCO[C]([NH])C1=O	
InChI=1S/C6H7NO2/c1-4-2-3-9-6(7)5(4)8/h2,7H,3H2,1H3	InChI=1S/C6H7NO2/c1-4-2-3-9-6(7)5(4)8/h2,7H,3H2,1H3
