17
gdb 125875	3.7441	1.18094	1.07414	2.2944	75.33	-0.2649	-0.0215	0.2433	1161.2428	0.137169	-418.005378	-417.997562	-417.996618	-418.038286	29.027	
C	-0.0828309873	 1.545019651	-0.1655726003	-0.423468
C	 0.0324635757	 0.0466919625	-0.0032107246	 0.007865
C	 1.3366061458	-0.6697023442	-0.1635583508	-0.299565
C	 0.6957674454	-0.6091572158	 1.2130345348	-0.137651
C	 1.302189814	 0.1579515595	 2.2997851462	 0.450973
N	 1.1245104589	-0.0187608729	 3.581312047	-0.330845
C	 1.9275948094	 0.9548664801	 4.1152531044	 0.035606
N	 2.5681254614	 1.6953304306	 3.2542456964	-0.120044
O	 2.1536993166	 1.1597603317	 2.0227970387	-0.21088
H	 0.8139699871	 2.0616337173	 0.1824150835	 0.146664
H	-0.229019483	 1.7974637001	-1.2211856894	 0.123821
H	-0.9384818639	 1.9380300183	 0.3934311561	 0.125701
H	-0.8436310287	-0.5038676981	-0.3359850401	 0.101667
H	 1.3614243117	-1.6355153029	-0.6552638805	 0.124613
H	 2.2249741402	-0.0640447662	-0.3062356645	 0.139533
H	 0.2183602781	-1.5063644139	 1.5869966698	 0.120821
H	 2.0384747383	 1.1165340032	 5.1779446732	 0.145189
59.9159	128.1902	176.4724	215.356	279.4224	350.7585	444.5372	472.2115	649.9702	662.6955	750.1096	791.4654	859.3556	884.3078	908.7224	934.0668	942.7776	978.6044	994.3136	1032.9293	1070.5553	1081.413	1108.7407	1148.5592	1188.7998	1203.2774	1225.2356	1270.4469	1339.8286	1356.5924	1402.9272	1427.8915	1487.9611	1500.2375	1503.756	1527.9553	1616.2512	3039.3377	3097.3071	3128.5775	3139.6018	3147.8357	3193.8144	3229.5553	3257.7677
CC1CC1C1=NC=NO1	C[C@H]1C[C@H]1c1ncno1	
InChI=1S/C6H8N2O/c1-4-2-5(4)6-7-3-8-9-6/h3-5H,2H2,1H3	InChI=1S/C6H8N2O/c1-4-2-5(4)6-7-3-8-9-6/h3-5H,2H2,1H3/t4-,5+/m0/s1
