15
gdb 34525	4.40873	1.27758	1.1677	5.599	71.51	-0.275	-0.0539	0.2211	1038.8608	0.115227	-416.807977	-416.801282	-416.800338	-416.83911	26.285	
N	 0.0831091705	-1.0953380109	 0.0185514059	-0.31916
C	 0.0077132153	 0.0572507	 0.0126425346	 0.295132
C	-0.0841544515	 1.497820337	 0.0051712761	 0.277851
N	-1.2073862803	 2.0905452483	 0.0411769874	-0.290084
C	-1.0839633853	 3.5517386232	 0.0257926567	 0.00354
C	-0.0621048657	 3.9518774347	-1.0836037259	-0.246097
C	 1.0128940355	 3.5398521626	-0.0496253927	 0.108383
C	 0.0148230153	 3.9678720474	 1.0527142244	-0.246097
O	 1.1310301746	 2.095264002	-0.0430627788	-0.267934
H	-2.0691729538	 4.0124523552	 0.0578198822	 0.092718
H	-0.0993864362	 3.411416131	-2.0307957058	 0.124148
H	-0.0453101341	 5.0294481844	-1.2541869756	 0.120151
H	 2.0310983383	 3.921227754	-0.0891463193	 0.103151
H	 0.0432628425	 5.0478637008	 1.205516481	 0.120151
H	 0.0460532449	 3.4416538702	 2.0081095098	 0.124148
117.9655	171.5475	319.9083	383.4166	416.5676	477.1183	536.3674	566.0125	572.5177	736.1002	819.0701	833.9109	868.2929	872.2381	884.3777	943.2803	980.5087	999.8699	1050.9933	1069.8419	1128.6465	1165.7161	1183.7985	1235.2536	1245.1745	1261.7511	1274.5245	1343.0148	1372.3507	1467.2433	1496.4761	1689.0232	2369.1325	3078.0444	3082.6531	3132.3444	3141.6365	3144.5383	3147.4663
N#CC1=NC2CC(C2)O1	N#C[C]1[N][C@@H]2C[C@@H](C2)O1	
InChI=1S/C6H6N2O/c7-3-6-8-4-1-5(2-4)9-6/h4-5H,1-2H2	InChI=1S/C6H6N2O/c7-3-6-8-4-1-5(2-4)9-6/h4-5H,1-2H2/t4-,5+
