20
gdb 101261	2.15549	1.19756	0.87654	3.5709	79.53	-0.2674	0.0262	0.2936	1361.7408	0.170003	-403.152087	-403.14221	-403.141266	-403.187198	35.971	
C	 0.0455717665	 1.423768388	-0.2884430688	-0.395106
C	 0.0289633413	-0.0487765777	 0.1403610954	-0.024507
C	 0.6876004509	-0.2351179385	 1.5196139661	-0.067449
O	 2.0342510744	 0.206925958	 1.5498950431	-0.417819
C	-1.3819746975	-0.6056443114	 0.1476634447	 0.005517
C	-2.0301714615	-1.0977896926	-1.109323702	-0.301819
C	-1.6476438584	-2.1005785214	-0.0290089891	-0.184801
C	-0.550655531	-2.9988679762	-0.2532517538	 0.290347
N	 0.3442210858	-3.7132573946	-0.4239251787	-0.351684
H	 1.0620648839	 1.8187563201	-0.2269669166	 0.134355
H	-0.3201520987	 1.5465050427	-1.3122454165	 0.112203
H	-0.5890230943	 2.0286884844	 0.3702490804	 0.111936
H	 0.6186617755	-0.6309301708	-0.5822023056	 0.084114
H	 0.1576965589	 0.3718981874	 2.2643085597	 0.105454
H	 0.6062031413	-1.2857643391	 1.8327850221	 0.103478
H	 2.5589642901	-0.4201263512	 1.0415400054	 0.288607
H	-2.0461641471	-0.1343292312	 0.8688609819	 0.101592
H	-3.0893629767	-0.9297871646	-1.265639258	 0.130706
H	-1.4333405752	-1.1057419933	-2.0146314669	 0.140371
H	-2.4549763082	-2.5315902183	 0.5529033273	 0.134506
60.2903	87.3531	133.1058	164.9333	224.6553	231.1435	260.7291	295.0878	337.5732	409.6895	416.6547	489.4313	562.0247	645.7436	776.2201	798.8193	848.2493	890.0547	911.827	951.3829	988.9288	1000.9304	1067.2005	1081.4737	1115.4775	1116.6587	1134.189	1139.6741	1182.9287	1221.9951	1241.1134	1306.8988	1354.6196	1372.1969	1389.4146	1404.1953	1419.2318	1430.1987	1487.5521	1491.4488	1503.4411	1504.3542	2347.4995	3001.7385	3008.1839	3032.8178	3058.4438	3098.4652	3129.2717	3134.8968	3142.6367	3172.4596	3232.3771	3814.8925
CC(CO)C1CC1C#N	C[C@@H](CO)[C@H]1C[C@H]1C#N	
InChI=1S/C7H11NO/c1-5(4-9)7-2-6(7)3-8/h5-7,9H,2,4H2,1H3	InChI=1S/C7H11NO/c1-5(4-9)7-2-6(7)3-8/h5-7,9H,2,4H2,1H3/t5-,6-,7+/m0/s1
