25
gdb 96092	2.5308	1.30483	0.99483	0.1555	92.67	-0.2579	0.0823	0.3402	1327.6833	0.231103	-352.377932	-352.369031	-352.368087	-352.410886	36.312	
C	-0.01572975	 1.5563202965	 0.0274980297	-0.402833
C	 0.0221382185	 0.0256978687	 0.0051067982	 0.046489
C	 0.6592619174	-0.5091529348	-1.2891717601	-0.176592
C	 0.7155001126	-2.0431775541	-1.3169964238	-0.207335
C	 1.4486631417	-2.5953675757	-0.0847899265	-0.266915
C	 0.8353007593	-2.061125739	 1.1998430138	 0.404808
C	-0.2899460391	-2.8464355346	 1.8344775596	-0.299872
C	 1.073891347	-2.8040481429	 2.4867112783	-0.338281
C	 0.7599453998	-0.5425271297	 1.2319846167	-0.268924
H	 0.9973797171	 1.9748689856	-0.0066699139	 0.110162
H	-0.5671054243	 1.9534341981	-0.8317017975	 0.107384
H	-0.4980040731	 1.9310223423	 0.9369801793	 0.106902
H	-1.0135737433	-0.3437006386	 0.0429731838	 0.069077
H	 0.106273776	-0.1340917129	-2.1588712302	 0.0853
H	 1.6798724422	-0.1068336605	-1.374801941	 0.086604
H	-0.3070381992	-2.4432198877	-1.3364429467	 0.093799
H	 1.205243363	-2.3881630932	-2.234782168	 0.086604
H	 1.4323780458	-3.6914211871	-0.0863702764	 0.084594
H	 2.5066549142	-2.298118397	-0.1305394508	 0.089388
H	-1.0985291683	-2.2992628258	 2.3085648353	 0.104876
H	-0.6010155976	-3.7737304921	 1.3639148597	 0.105316
H	 1.6818611495	-3.7028010983	 2.4558268294	 0.105092
H	 1.1840268911	-2.2268067314	 3.399420066	 0.105007
H	 1.7798423284	-0.1285994368	 1.254967059	 0.08665
H	 0.2694205415	-0.2073057088	 2.1542134862	 0.082702
123.9539	130.809	229.7878	235.7242	261.0351	325.4877	344.1112	374.4238	430.7286	440.013	456.3165	539.9323	718.0351	782.4841	799.8512	847.2372	866.0335	879.8076	913.1149	933.3535	947.0581	951.4683	987.9031	994.1534	1000.1464	1050.2718	1059.9841	1077.9615	1097.3949	1120.8648	1151.7162	1153.3408	1188.7019	1225.9982	1242.7701	1288.2142	1303.2027	1324.0814	1336.2017	1358.9249	1372.2166	1377.7576	1390.6764	1403.8686	1413.3326	1465.7885	1477.9614	1481.5301	1487.1717	1496.6907	1499.7026	1500.5896	1506.8587	2986.5832	2992.9241	3000.3406	3004.5727	3017.8327	3022.6857	3045.4979	3050.7514	3055.9013	3064.4781	3088.2711	3093.4792	3119.8753	3124.5685	3196.5673	3211.2981
CC1CCCC2(CC2)C1	C[C@H]1CCCC2(CC2)C1	
InChI=1S/C9H16/c1-8-3-2-4-9(7-8)5-6-9/h8H,2-7H2,1H3	InChI=1S/C9H16/c1-8-3-2-4-9(7-8)5-6-9/h8H,2-7H2,1H3/t8-/m0/s1
