24
gdb 17972	2.24434	2.1305	1.29579	0.0427	83.98	-0.284	0.0785	0.3625	1064.7482	0.227422	-314.288168	-314.280069	-314.279125	-314.320104	32.614	
C	 0.0016702058	 1.5091025159	 0.1733930819	-0.180356
C	 1.4378524004	 2.0625204023	 0.0691928911	-0.181958
C	 2.3452677275	 1.4824694237	-1.0246865645	-0.178858
C	 1.9386785486	 1.7154805142	-2.4864785561	-0.181957
C	 0.6176682788	 1.0822439318	-2.9699213475	-0.180358
C	 0.3668447006	-0.3772370836	-2.5241154835	-0.182196
C	-0.5752434072	-0.56041385	-1.3196155449	-0.179716
C	-0.1390485278	-0.0266502031	 0.0576001765	-0.182194
H	-0.3954692838	 1.8306909192	 1.1433160176	 0.087545
H	-0.6448698273	 1.9852175616	-0.5716598617	 0.095133
H	 1.3868101192	 3.1541025647	-0.0414833339	 0.087853
H	 1.9390028739	 1.8847133279	 1.0301060864	 0.091024
H	 3.3448703587	 1.914165765	-0.8874202252	 0.087448
H	 2.4748539703	 0.4066888082	-0.8532133343	 0.09501
H	 1.9052409548	 2.7948421429	-2.6871397431	 0.087854
H	 2.7508349943	 1.3222168737	-3.112471069	 0.091025
H	-0.234235795	 1.7006536051	-2.6672114213	 0.095133
H	 0.6253590036	 1.1233353186	-4.0654314534	 0.087546
H	-0.0843732938	-0.9240728007	-3.3605666516	 0.089943
H	 1.3229518879	-0.8812720218	-2.3314676904	 0.091853
H	-1.5421625891	-0.101247963	-1.5714395025	 0.091094
H	-0.7766396876	-1.6343711915	-1.2132463482	 0.087336
H	 0.7936704302	-0.5144163393	 0.3697298038	 0.091854
H	-0.8951619731	-0.3622065717	 0.7773022037	 0.089941
123.9832	198.8693	206.919	237.6216	293.72	320.4207	359.2651	442.8882	475.7977	518.0974	698.115	764.3843	773.5439	796.1854	813.5598	864.9648	882.2715	960.7584	967.8852	974.0795	996.0518	1064.9249	1095.2584	1100.9414	1118.8205	1131.3262	1159.1512	1186.9446	1244.9099	1256.1246	1281.6613	1286.2304	1319.9617	1321.0819	1358.4111	1377.5201	1382.0605	1384.9331	1385.8272	1401.8121	1402.5933	1413.1442	1477.7447	1479.7681	1486.0251	1489.4832	1490.6681	1490.9417	1508.1366	1513.2067	3000.1317	3004.1701	3006.3396	3012.9039	3018.0543	3019.5467	3027.5527	3032.9329	3036.5388	3037.7419	3045.0245	3051.9475	3053.1957	3061.2344	3063.189	3077.3786
C1CCCCCCC1	C1CCCCCCC1	
InChI=1S/C8H16/c1-2-4-6-8-7-5-3-1/h1-8H2	InChI=1S/C8H16/c1-2-4-6-8-7-5-3-1/h1-8H2
