18
gdb 40250	2.83119	1.63935	1.24857	1.6291	71.75	-0.2439	0.0717	0.3156	1024.1126	0.149473	-439.034502	-439.027169	-439.026225	-439.06622	29.022	
C	 0.047134338	 1.4934594183	-0.0297302081	-0.288388
N	 1.2671376805	 0.6689888284	 0.0278722496	-0.349435
C	-0.0519362376	 0.0142095402	 0.0128297955	 0.324315
C	-0.4431256996	-0.7180101574	 1.2825066151	-0.154846
O	-0.0266044018	-2.0728559487	 1.2258021011	-0.248846
C	-0.7140656814	-2.8290073881	 0.2467191345	-0.102188
C	-0.7918009233	-2.1517110588	-1.1129197949	 0.014773
O	-1.8214725664	-1.1622171025	-1.267506228	-0.257796
C	-0.4609999051	-0.7219089713	-1.2242719539	-0.033604
H	-0.1522592409	 2.0749295057	 0.8667258651	 0.122526
H	-0.2110293371	 1.9951622494	-0.9592610672	 0.115533
H	 1.7026503362	 0.6185997265	-0.8913196735	 0.230341
H	 0.0690877883	-0.2695422922	 2.1362628418	 0.119802
H	-1.5315439858	-0.6509441351	 1.4328382281	 0.101153
H	-0.166650281	-3.7723465885	 0.1579938065	 0.114479
H	-1.740616502	-3.0584747312	 0.5780334152	 0.105481
H	-0.6670254561	-2.7969608456	-1.9820205974	 0.100872
H	-0.077068915	-0.3254788991	-2.1667770395	 0.085829
101.0457	205.6565	239.6595	294.5227	360.7756	386.2939	442.6546	486.9651	534.919	684.2823	791.4124	801.789	837.4489	887.7451	920.6757	937.3316	946.7891	978.8316	986.1494	1033.8538	1055.5778	1075.922	1100.6389	1134.2925	1141.4083	1167.7659	1256.8096	1261.2906	1274.7157	1310.4768	1330.6827	1354.664	1379.2012	1395.819	1424.2256	1473.3529	1480.3431	1488.1486	1514.2048	2970.7773	2993.6268	3081.0209	3085.0418	3103.3938	3112.2535	3117.914	3187.5691	3481.1684
C1NC11COCC2OC12	C1N[C@]21COC[C@H]1O[C@@H]21	
InChI=1S/C6H9NO2/c1-4-5(9-4)6(2-7-6)3-8-1/h4-5,7H,1-3H2	InChI=1S/C6H9NO2/c1-4-5(9-4)6(2-7-6)3-8-1/h4-5,7H,1-3H2/t4-,5-,6-/m1/s1
