19
gdb 115456	3.56737	0.98976	0.86717	1.7704	72.17	-0.2433	-0.0318	0.2114	1360.1946	0.157739	-460.160032	-460.150801	-460.149857	-460.195428	32.443	
C	 0.1181434699	 0.9180333863	-0.4254195417	-0.239228
O	-0.3909213075	-0.001766554	 0.5120623054	-0.246748
C	 0.5063252311	-0.3133587388	 1.5617126116	 0.134391
C	-0.2744431382	-1.0818012863	 2.6285842459	-0.113213
O	-0.2308701703	-2.4484179854	 2.2304043764	-0.258982
C	 1.0557601335	-2.6825301478	 1.665237939	 0.031636
C	 1.5937648715	-1.3339833023	 1.1437913459	-0.29313
C	 1.9511111314	-3.327903874	 2.7250887179	 0.127181
O	 3.1290085307	-3.118625254	 2.8552972163	-0.23293
H	 0.9977514899	 0.5326257005	-0.9628379368	 0.106535
H	-0.6751436933	 1.1089546939	-1.1519969755	 0.131626
H	 0.4002978382	 1.8693630116	 0.0528916721	 0.105856
H	 0.9448844401	 0.6115962501	 1.9636307317	 0.071147
H	 0.1903805753	-0.9410459431	 3.6171163943	 0.093724
H	-1.3202498424	-0.7730426065	 2.6724330322	 0.12731
H	 0.9262529799	-3.4274787342	 0.868224463	 0.110116
H	 1.7237070319	-1.3373442986	 0.0608280403	 0.118436
H	 2.5635550455	-1.1209955604	 1.5998372401	 0.131827
H	 1.3984612926	-4.029093037	 3.3890103521	 0.094447
39.4792	68.9637	116.5226	128.2222	182.7889	239.8711	305.3639	378.7638	406.317	462.248	594.6357	701.2744	765.5551	816.8028	858.7181	885.4525	930.4535	957.5388	986.7607	1056.4545	1080.3278	1106.3381	1111.6343	1144.5973	1184.2495	1198.6058	1228.7513	1251.1221	1263.4631	1305.8743	1324.9077	1341.5088	1374.9141	1396.2499	1402.5054	1480.4547	1486.2088	1489.5958	1501.203	1510.4829	1831.6025	2895.5143	2973.4714	2979.8245	3003.1685	3018.637	3020.7927	3082.5747	3116.1888	3121.2936	3131.3483
COC1COC(C1)C=O	CO[C@H]1CO[C@@H](C1)C=O	
InChI=1S/C6H10O3/c1-8-6-2-5(3-7)9-4-6/h3,5-6H,2,4H2,1H3	InChI=1S/C6H10O3/c1-8-6-2-5(3-7)9-4-6/h3,5-6H,2,4H2,1H3/t5-,6+/m0/s1
