21
gdb 104871	2.20645	1.53268	1.22666	2.1377	80.	-0.2487	0.008	0.2567	1158.9512	0.180853	-424.232415	-424.222802	-424.221858	-424.266812	35.465	
C	-0.0022736419	 1.2756664888	-0.2811374963	-0.38436
C	-0.047335759	-0.2047177225	 0.1046577256	-0.201748
C	-1.4723851815	-0.7567987302	 0.2353580594	 0.444764
O	-2.0749839252	-0.008756224	 1.2689817465	-0.269334
C	-3.4571581445	-0.230392003	 1.4806234803	-0.251807
O	-2.1824179441	-0.5792898451	-0.99697511	-0.302212
C	-2.6432889851	-1.823204179	-1.5097018624	-0.133253
C	-2.1938967265	-2.8517237464	-0.5112931419	-0.100073
C	-1.5270764257	-2.253610987	 0.4667426008	-0.144212
H	 1.032854004	 1.6154555852	-0.3827223547	 0.101932
H	-0.512676411	 1.4394347929	-1.2338455873	 0.127384
H	-0.4942775586	 1.8880841542	 0.4776337473	 0.129595
H	 0.4722245091	-0.8114892348	-0.6448615971	 0.095524
H	 0.463469791	-0.3652704677	 1.0611258408	 0.099338
H	-4.042098744	 0.0157307501	 0.5871011419	 0.121197
H	-3.672331152	-1.2677151778	 1.7707310996	 0.104372
H	-3.7531935533	 0.4330352268	 2.2963125966	 0.122969
H	-3.7372132136	-1.8030869331	-1.6307700935	 0.108034
H	-2.2088834005	-1.9946963913	-2.5061383055	 0.112487
H	-2.3986185226	-3.9097762522	-0.6178213501	 0.110529
H	-1.072605235	-2.7128084139	 1.3349069399	 0.108874
90.4545	102.6571	118.513	180.8188	197.5694	205.0054	260.5611	318.4346	371.0417	440.0961	462.7509	583.0913	633.2988	743.6872	773.287	785.4441	819.6922	936.4424	948.6996	963.0673	964.4702	1035.7419	1042.7559	1059.2808	1093.1383	1122.3348	1157.0987	1167.4867	1173.6186	1184.8002	1205.9878	1233.2854	1304.2958	1346.1671	1374.5322	1384.1499	1402.0074	1468.5506	1474.5248	1485.6237	1493.0497	1512.2294	1513.8833	1517.2911	1690.739	2984.645	3005.6171	3007.4014	3038.3006	3048.1544	3070.5398	3078.1526	3115.8866	3121.3687	3134.4687	3206.364	3232.5656
CCC1(OC)OCC=C1	CC[C@@]1(OC)OCC=C1	
InChI=1S/C7H12O2/c1-3-7(8-2)5-4-6-9-7/h4-5H,3,6H2,1-2H3	InChI=1S/C7H12O2/c1-3-7(8-2)5-4-6-9-7/h4-5H,3,6H2,1-2H3/t7-/m1/s1
