16
gdb 31597	3.39352	1.08732	0.85408	1.0535	69.17	-0.1924	0.0295	0.2219	1300.6292	0.125671	-471.2302	-471.221351	-471.220407	-471.264	32.571	
N	-0.1653733641	 1.3483028698	 0.2551762061	-0.619873
C	-0.0362783397	-0.0483390508	 0.0522950693	 0.077695
C	-1.1030945451	-0.8683417603	-0.2039848069	 0.374124
O	-2.4221744166	-0.6175777825	-0.3139109371	-0.437251
N	-0.6002822577	-2.1323800187	-0.3370834053	-0.333919
C	 0.7626025795	-2.0361017408	-0.1438929241	 0.271047
C	 1.6450453521	-3.2376980987	-0.2385326061	-0.175247
O	 1.0792076436	-4.3754398807	 0.4094896395	-0.419599
N	 1.1248988019	-0.7977275544	 0.0933153969	-0.33227
H	 0.3672218503	 1.8694757827	-0.4362412914	 0.241645
H	 0.2038056193	 1.6205018929	 1.1622783124	 0.240957
H	-2.5115721383	 0.3348005254	-0.1647093447	 0.308377
H	-1.1220515722	-2.9813377075	-0.4795691859	 0.27511
H	 1.7802740362	-3.5515087371	-1.2809236051	 0.122048
H	 2.6326421085	-2.9667018957	 0.1554012374	 0.121612
H	 0.9946626022	-4.1597631737	 1.344753535	 0.285544
54.1128	129.1961	202.1132	233.0198	245.026	270.7578	322.6632	384.0102	407.4748	485.6879	528.423	545.1408	649.2246	671.9397	697.6945	731.4716	836.1488	880.7011	970.8356	1012.776	1054.7627	1153.3087	1189.0098	1208.3349	1219.6271	1244.7453	1334.7758	1357.9757	1414.2085	1445.695	1497.327	1539.2602	1575.3285	1644.5828	1699.1716	3022.632	3061.2382	3480.5942	3539.4844	3664.5677	3755.0291	3803.1413
NC1=C(O)NC(CO)=N1	Nc1c(O)[nH]c(CO)n1	
InChI=1S/C4H7N3O2/c5-3-4(9)7-2(1-8)6-3/h8-9H,1,5H2,(H,6,7)	InChI=1S/C4H7N3O2/c5-3-4(9)7-2(1-8)6-3/h8-9H,1,5H2,(H,6,7)
