20
gdb 26936	2.89668	1.2656	0.95255	1.888	87.92	-0.1859	0.0497	0.2357	1279.0181	0.17198	-366.043576	-366.034681	-366.033736	-366.078047	33.465	
C	 0.193816412	 1.5121631528	 0.1090144678	-0.509839
C	 0.0733110339	 0.0292076672	-0.0259230622	 0.191451
C	-0.1201621513	-0.7845037284	-1.1284189233	 0.244801
C	-0.1555499735	-2.1337509691	-0.6511982292	-0.263278
C	 0.0150398521	-2.1034660377	 0.709486122	-0.08527
N	 0.1528146627	-0.7904905637	 1.0798052751	-0.289792
C	-0.2629325365	-0.3400234411	-2.5331058405	-0.098739
C	 0.2976649232	-1.1627483538	-3.676140677	-0.267043
C	-1.1915579593	-1.0585284483	-3.4918005642	-0.267047
H	 1.1604109557	 1.8121838556	 0.534374835	 0.123455
H	 0.1063817289	 1.9942971059	-0.8666576039	 0.138844
H	-0.5895893428	 1.9346471361	 0.7516994724	 0.123445
H	-0.2916205382	-3.0239553174	-1.2469076953	 0.088492
H	 0.0499118389	-2.896105246	 1.4394046655	 0.112477
H	 0.2920248375	-0.466194083	 2.0206535469	 0.252831
H	-0.2048232822	 0.7350844598	-2.6715655759	 0.066996
H	 0.7535836469	-0.6396070213	-4.5099930752	 0.105617
H	 0.7805641306	-2.0996710246	-3.4202765535	 0.113491
H	-1.7217529363	-1.9245514636	-3.1105137392	 0.113492
H	-1.7599870325	-0.4637128496	-4.1988582253	 0.105617
44.9074	57.7685	164.0667	171.7021	232.6255	283.4328	415.784	443.0097	453.5503	581.5949	632.6096	679.4708	698.6828	718.4739	791.5074	813.4483	816.3777	899.2624	910.9569	931.1711	973.4992	1056.8734	1057.9303	1058.8275	1072.5356	1078.2582	1120.4921	1125.5578	1159.9769	1200.754	1223.1444	1268.861	1309.6091	1387.7761	1413.5975	1443.7928	1468.4754	1479.6211	1484.0818	1496.2445	1502.8118	1525.6777	1634.087	3010.3903	3050.8557	3124.6393	3127.3281	3131.3044	3149.2196	3206.6352	3222.81	3237.477	3267.0228	3679.9137
CC1=C(C=CN1)C1CC1	Cc1c(cc[nH]1)C1CC1	
InChI=1S/C8H11N/c1-6-8(4-5-9-6)7-2-3-7/h4-5,7,9H,2-3H2,1H3	InChI=1S/C8H11N/c1-6-8(4-5-9-6)7-2-3-7/h4-5,7,9H,2-3H2,1H3
