20
gdb 103190	3.10082	1.45671	1.37082	2.9026	77.65	-0.2365	0.0799	0.3164	1036.238	0.171624	-403.067825	-403.059868	-403.058924	-403.099898	32.127	
C	-0.0735196466	 1.6033994118	-0.0826792839	-0.464542
C	-0.0120883618	 0.0825671771	-0.111713308	 0.304592
C	-1.4090548013	-0.512779677	 0.1188045325	-0.089389
O	-1.8602301208	-0.2220448565	 1.4268333893	-0.427153
C	 0.7918900951	-0.6373008993	-1.1865546684	-0.128095
C	 2.2531915874	-0.6847747031	-0.6780626868	-0.108323
C	 2.2518238918	-0.0330473847	 0.6947265247	-0.184804
N	 0.8786071272	-0.622338897	 0.9357525713	-0.215754
C	 1.2216487314	-1.6482628595	-0.1731455471	-0.025981
H	 0.893024826	 2.0762089397	-0.2635575954	 0.115314
H	-0.7562354445	 1.9491957238	-0.866779822	 0.117829
H	-0.4714453017	 1.9465846637	 0.8763583154	 0.137074
H	-2.1337752404	-0.0762195028	-0.577019333	 0.09829
H	-1.3812453344	-1.5980063208	-0.0649945415	 0.081861
H	-1.1213900477	-0.4763802686	 1.9984522896	 0.286603
H	 0.5639250145	-0.7945235611	-2.2343492686	 0.089313
H	 3.0750577204	-0.8825688304	-1.355176526	 0.09479
H	 2.9597356208	-0.5170113752	 1.373157593	 0.110825
H	 2.3272300323	 1.0512863186	 0.8088056525	 0.104374
H	 1.1622172823	-2.7230043587	-0.0844608776	 0.103176
120.5639	167.1397	179.4748	254.7336	305.575	376.7623	435.4811	485.5769	542.1375	570.8769	648.5724	775.6362	786.2806	794.061	812.396	862.5778	881.342	919.8049	934.5647	979.0184	985.0913	1009.3136	1033.7201	1038.0894	1057.8139	1081.9848	1102.2913	1124.4284	1165.4008	1168.3481	1206.0398	1228.2581	1258.835	1288.0661	1320.0656	1359.2528	1379.1175	1406.9244	1444.3478	1486.9971	1488.6902	1509.5591	1528.459	2982.6206	3042.2416	3057.7127	3067.3609	3102.831	3109.5052	3136.7197	3180.7811	3191.5844	3226.1674	3732.8616
CC1(CO)C2C3CN1C23	C[C@@]1(CO)[C@H]2[C@H]3CN1[C@@H]23	
InChI=1S/C7H11NO/c1-7(3-9)5-4-2-8(7)6(4)5/h4-6,9H,2-3H2,1H3	InChI=1S/C7H11NO/c1-7(3-9)5-4-2-8(7)6(4)5/h4-6,9H,2-3H2,1H3/t4-,5+,6-,7-/m1/s1
