20
gdb 15986	3.60898	1.46956	1.19563	1.768	75.07	-0.223	0.0785	0.3015	1085.1401	0.176167	-348.974418	-348.965963	-348.965019	-349.007731	31.48	
C	 0.0431340687	 1.5665125335	 0.0498065898	-0.384204
C	-0.2022088413	 0.0772085013	-0.2138360417	-0.191167
C	 0.7141676016	-0.4920007911	-1.2910792179	-0.115393
C	 2.2018287955	-0.7102115055	-0.9213314183	-0.085572
O	 2.1089432349	-2.1289444841	-1.1814979455	-0.307698
C	 0.7230893587	-2.0073006379	-1.5054521338	 0.458739
C	-0.2682119032	-3.0492529746	-1.1001687287	-0.335834
C	 0.0936843362	-2.8440401999	-2.5671355915	-0.33509
H	 1.0718721521	 1.7483359447	 0.3800446184	 0.118899
H	-0.1231130223	 2.161625542	-0.8550104029	 0.115797
H	-0.6257049817	 1.947265274	 0.8274623717	 0.115609
H	-0.0651431243	-0.4943333308	 0.7126834345	 0.103179
H	-1.2473810478	-0.0730556415	-0.5142524841	 0.096865
H	 0.5886567652	 0.0654871534	-2.2252948446	 0.077073
H	 2.9418995759	-0.2265396952	-1.5685292484	 0.102251
H	 2.4530524984	-0.506623418	 0.1279170941	 0.097928
H	 0.1242976133	-3.9335516297	-0.6094477701	 0.123009
H	-1.2495396265	-2.7371741035	-0.7574469351	 0.112519
H	-0.6396202297	-2.3869820866	-3.2246065314	 0.110736
H	 0.7191580664	-3.5960548805	-3.0363432145	 0.122355
57.9227	94.4821	148.4218	216.756	256.8121	273.567	364.2336	421.7601	500.0872	568.4064	755.5181	760.5554	801.231	866.8632	875.0895	906.7606	950.7964	957.2134	976.9065	994.5296	1022.4922	1046.4023	1063.8867	1082.6068	1133.7703	1155.523	1184.3513	1192.2587	1222.0258	1249.6425	1285.8596	1335.5269	1355.257	1367.6527	1404.8297	1411.0474	1447.2672	1484.1612	1494.7546	1500.0376	1506.3014	1528.6237	3010.9005	3018.952	3030.6677	3040.5102	3054.8253	3067.0932	3096.8973	3105.335	3123.583	3127.9838	3207.4552	3222.0038
CCC1COC11CC1	CC[C@H]1COC21CC2	
InChI=1S/C7H12O/c1-2-6-5-8-7(6)3-4-7/h6H,2-5H2,1H3	InChI=1S/C7H12O/c1-2-6-5-8-7(6)3-4-7/h6H,2-5H2,1H3/t6-/m0/s1
