20
gdb 98858	3.21001	1.10839	0.87283	2.3566	77.76	-0.2371	0.0518	0.2889	1372.7424	0.170116	-440.31839	-440.308474	-440.30753	-440.354059	34.452	
C	 0.1265705432	 1.3289681261	 0.2272413378	-0.22947
O	-0.0978402209	-0.0528726329	-0.0587489398	-0.256815
C	 0.565784231	-0.5181942604	-1.1483855398	 0.492818
O	 1.3112283567	 0.1465574053	-1.8369736712	-0.428166
N	 0.2621207182	-1.823117972	-1.3678919012	-0.143423
C	-0.2505466575	-2.8487550481	-0.4522394601	-0.165829
C	 0.3685601796	-3.9239269263	-1.3884728713	-0.266424
C	 1.0381774262	-2.7662193886	-2.1912429536	 0.075833
C	 0.7949709145	-2.6825972249	-3.688303063	-0.401386
H	 1.1857634541	 1.5217674311	 0.4172239862	 0.136596
H	-0.1978682186	 1.9574882825	-0.6063793353	 0.137472
H	-0.4641710846	 1.5466040593	 1.1178308373	 0.127114
H	 0.1957260121	-2.8006031236	 0.547207302	 0.115368
H	-1.3396040624	-2.8562244544	-0.3495066269	 0.117151
H	 1.0504403805	-4.6301062369	-0.91459744	 0.113075
H	-0.3724505141	-4.4753110583	-1.9703755998	 0.112734
H	 2.1128362231	-2.6765590146	-1.9855970419	 0.087778
H	-0.271892686	-2.7754321774	-3.9157601346	 0.113451
H	 1.1500090627	-1.7224614274	-4.0717939431	 0.148176
H	 1.3326406021	-3.4843881485	-4.2058608117	 0.113947
69.6596	80.079	93.9365	132.2737	149.6794	169.5619	244.8096	277.2403	332.675	418.5443	475.3792	551.4824	727.5695	783.3953	798.7184	821.4625	890.215	941.5679	949.5572	972.0871	1071.9468	1109.2813	1152.0974	1168.0969	1178.2335	1182.2722	1187.6719	1212.1325	1230.709	1264.082	1292.0527	1331.0112	1384.7624	1405.1653	1405.5717	1479.8071	1481.5391	1484.705	1490.3771	1503.1383	1505.3355	1526.5999	1798.0122	3018.0801	3035.1295	3037.4689	3047.7628	3079.7068	3085.9901	3106.0487	3120.3328	3124.5988	3142.0701	3150.7073
COC(=O)N1CCC1C	COC(=O)N1CC[C@H]1C	
InChI=1S/C6H11NO2/c1-5-3-4-7(5)6(8)9-2/h5H,3-4H2,1-2H3	InChI=1S/C6H11NO2/c1-5-3-4-7(5)6(8)9-2/h5H,3-4H2,1-2H3/t5-/m1/s1
