16
gdb 131610	2.78739	1.24692	0.89268	3.22	65.81	-0.2551	-0.0125	0.2426	1229.5278	0.124228	-474.99884	-474.990412	-474.989468	-475.032484	30.713	
O	-0.0066152948	 0.4532456822	 1.2372786897	-0.402632
C	-0.1472055573	 0.3028920436	-0.1656455748	-0.100804
C	-1.4064052494	-0.4887685436	-0.5650397645	-0.036184
O	-1.5943012175	-0.440545919	-1.974203644	-0.419811
C	-1.4001507574	-1.9055484763	-0.0609148855	 0.124538
C	-1.8987170689	-3.0051846169	-0.6890108546	-0.015358
O	-1.7123675872	-4.1051259609	 0.0532454226	-0.164255
N	-1.0692259598	-3.7469374091	 1.2350901635	-0.133865
C	-0.8919254682	-2.4523707681	 1.1564436437	-0.059241
H	-0.6920632899	 1.0558472446	 1.5438425941	 0.291686
H	-0.1780163209	 1.2705370542	-0.684768638	 0.108049
H	 0.7471411291	-0.2329572738	-0.5044111715	 0.111759
H	-2.2763978072	 0.0448757536	-0.1561935237	 0.102375
H	-0.8782103624	-0.9441367281	-2.3794208071	 0.283881
H	-2.3987056415	-3.1460587326	-1.6339852254	 0.158495
H	-0.3999057867	-1.9265862497	 1.9601955756	 0.151367
55.3139	141.7833	167.3749	192.3402	246.4848	325.0859	341.3126	392.2409	459.4923	527.8543	613.7473	651.2039	709.4363	859.2993	893.2957	937.8091	943.9831	980.3398	1003.2078	1059.9085	1072.0027	1096.9472	1150.5486	1170.6142	1198.5095	1260.1795	1276.3001	1353.3837	1368.283	1383.8011	1414.9775	1422.4693	1474.4185	1501.7669	1640.2781	3006.6819	3012.9152	3073.7246	3270.8299	3274.0446	3789.2251	3816.3971
OCC(O)C1=CON=C1	OC[C@@H](O)c1conc1	
InChI=1S/C5H7NO3/c7-2-5(8)4-1-6-9-3-4/h1,3,5,7-8H,2H2	InChI=1S/C5H7NO3/c7-2-5(8)4-1-6-9-3-4/h1,3,5,7-8H,2H2/t5-/m1/s1
