25
gdb 81350	2.30788	1.40649	1.28255	0.0123	91.83	-0.276	0.0877	0.3638	1212.2817	0.230407	-352.355789	-352.346657	-352.345713	-352.388729	36.887	
C	-0.1172065656	 1.582097238	-0.0038857196	-0.433919
C	-0.0011046213	 0.061395353	 0.003331044	 0.055426
C	 1.1030823048	-0.5895335787	-0.8923413911	-0.01998
C	 2.0977904149	-0.2996881465	 0.2671606736	-0.254537
C	 0.8459657416	-0.5995129212	 1.1394791763	-0.019978
C	 0.6429505148	-2.1108981881	 0.8746519175	 0.020314
C	-0.6626807086	-2.6930293968	 1.4178586201	-0.414161
C	 0.8423445449	-2.1031565761	-0.7010568901	 0.020314
C	-0.286115589	-2.6784122086	-1.5579583879	-0.414159
H	 0.8420223307	 2.0919124774	 0.1198419886	 0.115876
H	-0.5538207498	 1.9295187825	-0.9471173596	 0.112287
H	-0.7751834602	 1.9209363709	 0.8043688182	 0.112288
H	-1.0053519196	-0.3548033051	-0.1257971811	 0.055281
H	 1.2883578333	-0.2466899585	-1.9130253815	 0.046777
H	 2.9588175537	-0.9678200553	 0.3728369358	 0.082024
H	 2.4331327257	 0.7360415868	 0.3146851819	 0.09453
H	 0.7707331198	-0.2667757974	 2.1774053953	 0.046777
H	 1.4668520256	-2.6686398236	 1.3356625599	 0.062774
H	-1.5478586846	-2.1712181717	 1.0422428252	 0.114335
H	-0.7693769644	-3.7508873679	 1.1564604626	 0.11176
H	-0.6804696849	-2.6238344509	 2.5112002114	 0.108551
H	 1.7557886667	-2.6574274274	-0.9476829159	 0.062774
H	-1.2376778357	-2.1594048151	-1.4093944244	 0.114337
H	-0.0312394676	-2.5983229641	-2.6205616484	 0.10855
H	-0.4530249655	-3.738703156	-1.3418503304	 0.11176
145.6601	186.3637	199.341	202.2242	242.054	266.3031	268.0943	356.7564	369.8562	485.2914	490.6276	529.9845	654.8869	728.9302	786.5344	827.0162	836.3927	850.897	891.8197	923.2116	995.9804	1009.3707	1014.0466	1019.1218	1023.112	1055.7454	1071.0157	1100.6707	1104.2292	1114.987	1136.9	1164.0625	1165.1176	1224.3546	1229.2664	1257.06	1271.5502	1276.8219	1314.9265	1318.1814	1374.8056	1377.2897	1394.4946	1409.5342	1415.0338	1418.9365	1490.4483	1493.3501	1494.8066	1497.8133	1506.4502	1510.3637	1519.7754	3012.2742	3028.8667	3029.3743	3030.2695	3034.5395	3042.7518	3049.8274	3082.3932	3085.285	3086.996	3090.2382	3094.8465	3101.8955	3108.7567	3111.9876	3134.6174
CC1C2CC1C(C)C2C	C[C@H]1[C@H]2C[C@@H]1[C@@H](C)[C@H]2C	
InChI=1S/C9H16/c1-5-6(2)9-4-8(5)7(9)3/h5-9H,4H2,1-3H3	InChI=1S/C9H16/c1-5-6(2)9-4-8(5)7(9)3/h5-9H,4H2,1-3H3/t5-,6+,7+,8+,9-
