19
gdb 27527	5.06094	0.92512	0.8276	0.6539	83.5	-0.2072	0.0267	0.2339	1429.1253	0.159659	-385.914523	-385.905979	-385.905035	-385.948504	31.909	
C	 0.0573302716	 1.4701281838	 0.0934621252	-0.487941
C	-0.0455607929	-0.0070092128	-0.0382789412	 0.384496
C	-1.0827248285	-0.8838144614	 0.0168199336	-0.39591
C	-0.5357084724	-2.2023570068	-0.183372974	 0.269483
C	 0.800243392	-2.0088430409	-0.3491321046	-0.125768
O	 1.1172116371	-0.6861297456	-0.2597508325	-0.184349
C	-1.2853981699	-3.4791135021	-0.2090226982	-0.119788
C	-0.6016367982	-4.797837771	 0.0538358588	-0.26933
C	-1.5635750574	-4.2426782035	 1.0716333643	-0.249902
H	 0.4746145166	 1.9269316987	-0.8112857691	 0.136945
H	-0.9331225286	 1.896767397	 0.2661899864	 0.134043
H	 0.7044037444	 1.7557226644	 0.9307974066	 0.136798
H	-2.1195212219	-0.6346556205	 0.1852227474	 0.102164
H	 1.6244328645	-2.6756154694	-0.5403951347	 0.128507
H	-2.0921171532	-3.5085212987	-0.9376068597	 0.09102
H	-0.9072816706	-5.6558867721	-0.5341216851	 0.110898
H	 0.4533640607	-4.7841862171	 0.3029770116	 0.112773
H	-1.1483836158	-3.8411261687	 1.9891604149	 0.116272
H	-2.5320403474	-4.7177307534	 1.1833797101	 0.109589
41.2951	112.7892	135.1275	162.86	241.5798	315.3116	390.749	450.9352	573.4271	633.7451	673.4649	701.0516	741.9812	791.7668	812.9686	831.1469	898.3567	926.5497	942.982	992.6191	1015.7678	1058.5388	1064.4972	1082.1161	1096.3565	1131.081	1154.8251	1172.0206	1198.161	1222.777	1233.4552	1284.0765	1365.4385	1415.659	1424.636	1466.6335	1472.8928	1490.343	1502.2781	1594.8911	1660.0776	3029.1434	3078.7428	3127.299	3128.6224	3133.7788	3140.2926	3214.3567	3229.1363	3246.9888	3276.4147
CC1=CC(=CO1)C1CC1	Cc1cc(co1)C1CC1	
InChI=1S/C8H10O/c1-6-4-8(5-9-6)7-2-3-7/h4-5,7H,2-3H2,1H3	InChI=1S/C8H10O/c1-6-4-8(5-9-6)7-2-3-7/h4-5,7H,2-3H2,1H3
