19
gdb 82736	2.93737	1.91575	1.52638	1.5455	78.2	-0.2304	0.0078	0.2382	928.8294	0.162042	-385.870132	-385.86348	-385.862536	-385.900681	28.402	
C	-0.0114057291	 1.5478177748	-0.0104824087	-0.418031
C	 0.0359987627	 0.021879685	-0.0195485673	 0.042681
C	 0.9763673143	-0.5650170137	-1.0868350544	 0.040303
O	 2.2662082592	-0.0397564855	-0.6447260316	-0.295904
C	 2.1153551882	-0.993450163	 0.4253459798	 0.09503
C	 1.4068421835	-1.9925297693	-0.5140953977	-0.075307
C	 0.4553574255	-2.757441603	 0.3548197374	-0.103757
C	 0.1600235509	-1.9909116821	 1.4137590247	-0.093291
C	 0.7949080878	-0.6330612331	 1.2102581568	-0.116244
H	 0.9962819429	 1.9661276518	 0.0346424425	 0.136509
H	-0.5007308549	 1.9321998876	-0.9126510505	 0.109283
H	-0.5783648088	 1.9104271195	 0.8534215615	 0.10879
H	-0.9747803753	-0.3879139559	-0.0991764597	 0.071245
H	 0.7658327654	-0.3966272877	-2.1426293004	 0.077844
H	 3.0250441385	-1.2096472088	 0.9869512969	 0.082143
H	 2.0471591861	-2.5358502478	-1.2072331962	 0.077185
H	 0.0808668825	-3.7510436213	 0.1440893406	 0.098698
H	-0.5216564683	-2.2311932069	 2.2209676645	 0.098815
H	 0.8889488887	 0.0101656694	 2.0845792119	 0.06401
210.8978	230.1392	275.0263	359.3248	409.747	514.5776	582.9428	625.2665	716.66	741.8011	765.7915	799.0947	841.1209	857.6904	881.0416	919.0397	938.2997	947.8793	958.3966	971.9557	1001.9762	1040.542	1050.4652	1064.7785	1099.3364	1130.6467	1144.3137	1164.1638	1195.3325	1241.4454	1256.3619	1263.1114	1282.7047	1310.4849	1330.2002	1360.781	1371.6467	1402.9013	1494.3116	1508.7077	1635.922	3032.7284	3066.3059	3091.2507	3111.7294	3120.9086	3125.0151	3132.4994	3136.1824	3194.3328	3220.5854
CC1C2OC3C2C=CC13	C[C@H]1[C@H]2O[C@@H]3[C@H]2C=C[C@H]13	
InChI=1S/C8H10O/c1-4-5-2-3-6-7(4)9-8(5)6/h2-8H,1H3	InChI=1S/C8H10O/c1-4-5-2-3-6-7(4)9-8(5)6/h2-8H,1H3/t4-,5-,6+,7-,8+/m1/s1
