21
gdb 102056	1.87571	1.44532	0.87656	1.748	84.96	-0.2394	-0.0138	0.2256	1378.8283	0.180372	-420.440573	-420.429834	-420.42889	-420.47704	37.728	
C	 0.7488081541	-0.0849954025	 0.1769236324	-0.373111
C	-0.4220405776	-0.8254729577	-0.4697144015	-0.152158
N	-1.7373801315	-0.2716238951	-0.1035840931	-0.119416
C	-2.2969774155	 0.6437016668	-0.9725522607	 0.157304
O	-3.3304114159	 1.2595147706	-0.8413712894	-0.330929
C	-2.3107369205	-0.6850498964	 1.1291703951	 0.378137
C	-3.6840091537	-0.1638841428	 1.4722454802	-0.462632
N	-1.6041148214	-1.4776672021	 1.832158904	-0.279786
C	-2.092980387	-1.9839258128	 3.1013091257	-0.326454
H	 1.6950597406	-0.5306977407	-0.1460784088	 0.117336
H	 0.7558065888	 0.9714963724	-0.1101353299	 0.115659
H	 0.6880140885	-0.154940701	 1.2642378328	 0.144066
H	-0.3444413917	-0.7790488097	-1.5597852287	 0.106737
H	-0.4148321252	-1.8736203445	-0.1715392058	 0.138695
H	-1.6564288462	 0.7644553925	-1.8667397699	 0.085319
H	-3.6745782488	 0.922554943	 1.5786103869	 0.160191
H	-4.3988718602	-0.3783277997	 0.6758602684	 0.155509
H	-4.0291080799	-0.6160516579	 2.4013527509	 0.119543
H	-2.2736185505	-1.1849606058	 3.8332384674	 0.121761
H	-3.0235254716	-2.5594809994	 3.0014992422	 0.12143
H	-1.3381620546	-2.6520617872	 3.5243661217	 0.122797
36.4691	95.2222	100.4546	136.9107	183.6409	210.0931	216.9731	239.5403	301.5091	332.8622	384.1864	412.168	454.5022	549.0461	590.0183	668.7657	758.1099	787.5084	929.3554	978.9456	1030.9203	1054.0395	1077.6395	1089.7097	1110.8683	1114.0239	1146.8293	1177.8657	1274.4695	1301.9194	1393.6112	1406.0868	1410.02	1412.215	1440.0514	1452.9437	1458.989	1475.0674	1487.8273	1493.3011	1497.1682	1508.9199	1514.8952	1721.7161	1800.1221	2947.8591	2994.99	3042.2653	3048.6509	3064.8836	3074.5336	3096.5501	3104.8232	3134.5258	3137.709	3146.3983	3163.2563
CCN(C=O)C(C)=NC	CCN(C=O)C(=NC)C	
InChI=1S/C6H12N2O/c1-4-8(5-9)6(2)7-3/h5H,4H2,1-3H3	InChI=1S/C6H12N2O/c1-4-8(5-9)6(2)7-3/h5H,4H2,1-3H3
