23
gdb 114083	3.33342	1.15689	1.04343	0.9926	86.32	-0.244	0.0884	0.3324	1284.8905	0.20653	-388.281353	-388.27255	-388.271606	-388.314426	34.804	
C	-0.0449583555	 1.3122972004	-0.1776363991	-0.237975
O	-0.0397470045	-0.0368081831	 0.2226565003	-0.251759
C	-1.3056021233	-0.6598905924	 0.1394583071	 0.159208
C	-1.7391870817	-1.0602805595	-1.3122644289	-0.283366
C	-1.7985707218	-2.5955561821	-1.146567883	 0.350487
C	-2.1902475357	-3.4191953886	-2.3513860023	-0.497552
C	-2.5394388502	-2.7095209846	 0.2250344635	-0.266624
C	-1.2370070498	-2.0577239819	 0.7666982275	-0.052037
C	-0.4938094262	-2.8671921209	-0.3321007725	-0.255829
H	 0.9687308866	 1.6972760075	-0.0404124735	 0.124123
H	-0.3265500334	 1.4348536149	-1.234732967	 0.103991
H	-0.7383302709	 1.9142621164	 0.431628825	 0.101317
H	-2.0570886875	-0.0246216613	 0.6337027661	 0.055175
H	-2.7052327212	-0.6374449914	-1.6068239094	 0.088536
H	-0.9886965693	-0.7488871968	-2.04593082	 0.098564
H	-1.4837604682	-3.2738527829	-3.177127091	 0.11421
H	-2.210687409	-4.4883401011	-2.1140778003	 0.110726
H	-3.1855043533	-3.1394495656	-2.7167624907	 0.112185
H	-3.4851822126	-2.1705286062	 0.3488892257	 0.083176
H	-2.6530822007	-3.7455306712	 0.5541879367	 0.093361
H	-0.9530897018	-2.1026991874	 1.8176562044	 0.061321
H	-0.3853435967	-3.9224383096	-0.0687145641	 0.088465
H	 0.4492812666	-2.4661719126	-0.7102579645	 0.100296
105.1715	137.3587	186.5779	220.8885	243.0854	294.8499	330.0284	394.8859	452.23	472.2366	516.6636	609.5828	690.1185	824.803	827.7893	843.3188	875.5783	927.7974	932.5554	958.5852	981.8599	997.8415	1029.3305	1042.7325	1063.5245	1103.5663	1116.7772	1143.1023	1166.5868	1184.5947	1187.7449	1222.8506	1229.4008	1240.9365	1258.6531	1260.833	1296.9311	1323.4102	1347.1536	1396.1145	1414.3546	1480.8972	1481.7837	1485.4913	1488.9551	1493.7868	1494.1794	1510.5009	1523.4425	2967.8216	2977.5538	3015.1845	3019.9825	3037.8657	3043.4687	3061.7249	3082.1061	3089.2073	3090.4806	3105.3078	3109.8285	3121.1202	3123.119
COC1CC2(C)CC1C2	CO[C@H]1C[C@]2(C)C[C@H]1C2	
InChI=1S/C8H14O/c1-8-3-6(4-8)7(5-8)9-2/h6-7H,3-5H2,1-2H3	InChI=1S/C8H14O/c1-8-3-6(4-8)7(5-8)9-2/h6-7H,3-5H2,1-2H3/t6-,7-,8+/m0/s1
