20
gdb 53683	6.06841	0.51544	0.48075	1.0124	86.58	-0.2447	0.0334	0.2781	2286.2111	0.167984	-403.142539	-403.1313	-403.130356	-403.182023	37.456	
C	 0.1201830513	 1.4558276684	 0.0293608946	-0.496699
C	 0.0577174371	 0.0014406637	 0.0002096613	 0.082164
C	 0.0159897254	-1.2014080638	-0.0243737135	 0.033696
C	-0.0711203288	-2.6566015517	-0.0523863453	-0.355918
C	-1.5216790732	-3.1411501056	 0.0051099323	-0.040084
O	-1.4763869055	-4.5721303104	-0.0285958007	-0.237721
C	-2.6596347942	-5.2193748415	 0.0127543001	 0.394101
C	-2.434391258	-6.7095863774	-0.0307189595	-0.460276
N	-3.7556039025	-4.5815892794	 0.0783571722	-0.518244
H	 0.6875824053	 1.8138907627	 0.895600269	 0.146652
H	 0.6036086356	 1.8528918129	-0.8701734095	 0.146651
H	-0.8819364581	 1.8950363089	 0.0867239641	 0.148486
H	 0.3980706586	-3.0508558063	-0.9623769592	 0.132373
H	 0.4805111081	-3.0895508432	 0.7913655244	 0.132373
H	-2.0205543347	-2.8064827208	 0.9192639385	 0.127813
H	-2.1033784274	-2.767605125	-0.8426203789	 0.127812
H	-1.8139697064	-7.02179086	 0.8148853781	 0.14586
H	-3.3817486106	-7.2497490354	 0.0019085261	 0.126211
H	-1.8966620253	-6.9829856673	-0.9437036288	 0.14586
H	-4.5425054967	-5.2259302088	 0.1011353648	 0.21889
14.089	45.8142	64.198	69.6359	108.7537	171.1431	177.025	227.5335	278.8777	333.6765	392.179	422.3584	507.1621	573.9535	623.1322	771.9815	785.3297	856.4755	921.5098	982.1835	1051.0333	1052.6767	1067.9799	1068.3404	1076.7214	1086.2677	1120.3866	1169.4538	1229.3054	1292.6497	1309.7297	1362.0232	1398.4789	1415.4866	1432.2765	1471.6452	1478.7991	1479.2662	1479.399	1482.4693	1515.3748	1727.7494	2377.0865	3024.3433	3025.8776	3048.0513	3055.1831	3059.5354	3085.838	3086.6142	3107.6743	3111.2938	3143.3816	3516.8675
CC#CCCOC(C)=N	CC#CCCO[C](C)[NH]	
InChI=1S/C7H11NO/c1-3-4-5-6-9-7(2)8/h8H,5-6H2,1-2H3	InChI=1S/C7H11NO/c1-3-4-5-6-9-7(2)8/h8H,5-6H2,1-2H3
