19
gdb 47489	2.86768	1.37899	1.07083	4.4593	75.46	-0.2531	0.0156	0.2688	1151.1434	0.160618	-423.060511	-423.052555	-423.051611	-423.093205	30.917	
O	 0.0027492122	 0.0001038815	 0.4346059715	-0.322701
C	-0.0234344842	 1.1157696634	-0.0081042798	 0.410579
C	-1.313001526	 1.9267637686	-0.1050149318	-0.417864
C	-1.2617440095	 3.1092384556	-1.0511306116	 0.37048
C	-1.84119558	 2.9689360843	-2.4395787412	-0.30436
C	-2.5354891622	 3.8244900998	-1.4032867331	-0.335119
C	 0.0331003973	 3.8714337974	-0.8732083696	-0.303155
C	 1.1961156412	 2.9227583682	-1.1316099577	-0.058427
O	 1.1438826139	 1.7151129959	-0.3510242022	-0.231031
H	-2.1148852759	 1.2260272793	-0.3494663326	 0.134104
H	-1.5110482277	 2.2766804842	 0.9184881022	 0.138189
H	-1.3397865133	 3.4710955759	-3.2607373003	 0.11333
H	-2.3002052476	 2.0247289143	-2.7128280746	 0.12011
H	-3.4632590452	 3.4565498681	-0.9771440581	 0.116821
H	-2.4998437235	 4.9022444169	-1.5247450892	 0.114338
H	 0.1037564531	 4.7154204335	-1.5677340029	 0.106289
H	 0.0997937514	 4.2774114944	 0.1446519916	 0.110077
H	 1.219249085	 2.6366312977	-2.1906679975	 0.116921
H	 2.1570274111	 3.3801269208	-0.8826737631	 0.121417
81.5265	111.7564	205.6604	264.4629	336.4241	362.6525	440.2511	464.3603	494.6966	576.3489	645.8293	739.386	777.8473	795.5532	864.9876	908.9762	920.5318	965.2279	978.1811	997.4299	1012.4273	1055.5721	1083.6136	1098.4215	1105.465	1174.3258	1186.5685	1211.5678	1234.3012	1280.1356	1302.576	1326.3932	1367.4524	1401.7738	1430.1626	1456.473	1468.3471	1481.5752	1507.799	1513.6713	1843.0726	3016.1955	3023.2055	3030.8879	3079.0409	3098.2148	3102.5218	3125.6722	3130.4651	3204.3394	3218.6689
O=C1CC2(CC2)CCO1	O=C1CC2(CC2)CCO1	
InChI=1S/C7H10O2/c8-6-5-7(1-2-7)3-4-9-6/h1-5H2	InChI=1S/C7H10O2/c8-6-5-7(1-2-7)3-4-9-6/h1-5H2
