21
gdb 20084	3.27903	1.45892	1.22017	1.3775	79.6	-0.2087	0.0813	0.29	1100.2755	0.187802	-329.080534	-329.071477	-329.070533	-329.114382	33.368	
C	-0.9166177287	 1.4389299851	 1.4656149251	-0.414725
C	-0.6975283665	 0.0962084632	 0.8005121647	-0.010531
C	-1.3901163868	-0.3212651805	-0.4611002229	-0.016718
C	-2.3649342235	 0.5486953621	-1.1922935141	 0.016449
C	-2.840675031	 0.1284750133	-2.5655188609	-0.268091
C	-3.777587653	 0.0490222704	-1.3893754854	-0.275847
N	 0.0575176305	-0.0826022131	-0.4442993331	-0.113522
C	 0.620926867	 1.0621430588	-1.1432862633	-0.308817
H	-0.0152904722	 1.7533883589	 2.0036185017	 0.121202
H	-1.1801280305	 2.2353445009	 0.7675299596	 0.119159
H	-1.7266111453	 1.3617294285	 2.1988644584	 0.122816
H	-0.4865214784	-0.6926586773	 1.5239697516	 0.082703
H	-1.6344969493	-1.3807111628	-0.5648855713	 0.076118
H	-2.2687214432	 1.6171594065	-1.0396137396	 0.081106
H	-3.0077719354	 0.8994549359	-3.3094615979	 0.110863
H	-2.452610607	-0.801552836	-2.9677057902	 0.115933
H	-4.0214984385	-0.934474905	-1.0009469137	 0.113613
H	-4.5885937944	 0.7654322106	-1.3224072012	 0.111161
H	 0.0181112903	 1.9811357471	-1.1301701617	 0.09554
H	 1.5975178118	 1.2957510998	-0.7063933101	 0.118464
H	 0.780929274	 0.7870352336	-2.1907780057	 0.123121
53.7793	117.609	146.4563	170.0099	193.5077	258.9125	296.565	319.9634	466.0393	509.2427	554.1545	723.0823	765.9199	780.3695	830.8669	843.4548	922.487	925.2856	998.2235	1014.5612	1044.6833	1060.6078	1078.7409	1114.6781	1128.5559	1140.5403	1156.9943	1170.7788	1190.5115	1199.0599	1224.559	1228.1934	1319.1282	1350.9545	1400.2096	1416.185	1447.6333	1466.0089	1469.1101	1485.9502	1492.5755	1501.3885	1505.9612	1510.0264	2996.8429	3036.5199	3065.3998	3069.6783	3085.5083	3091.1861	3096.991	3128.956	3130.0656	3134.4707	3173.8137	3208.5004	3224.2554
CC1C(C2CC2)N1C	C[C@H]1[C@@H](C2CC2)N1C	
InChI=1S/C7H13N/c1-5-7(8(5)2)6-3-4-6/h5-7H,3-4H2,1-2H3	InChI=1S/C7H13N/c1-5-7(8(5)2)6-3-4-6/h5-7H,3-4H2,1-2H3/t5-,7-,8?/m0/s1
