23
gdb 117756	2.07418	1.1029	0.97247	0.9443	88.53	-0.2579	0.0542	0.3121	1421.6587	0.20172	-388.253987	-388.242518	-388.241574	-388.290459	41.425	
C	-0.0971659125	 1.5475456194	 0.1424879188	-0.401989
C	 0.0061502532	 0.0259594985	 0.0206094977	-0.178575
C	 0.7118401414	-0.4993818397	-1.2626357735	 0.031402
C	 0.7221088232	-2.0455339253	-1.2353239389	-0.415235
C	-0.0131717952	-0.0149420481	-2.5392051339	-0.063671
O	-1.3633878678	-0.4179881544	-2.4777751506	-0.242213
C	-2.0984705132	-0.0506052278	-3.6204590913	-0.228166
C	 2.0903417534	-0.0039028	-1.324452506	 0.337339
C	 3.22243993	 0.3978584132	-1.3847281698	-0.492522
H	 0.8860123748	 2.0212348797	 0.0623489146	 0.126614
H	-0.7448470538	 1.9712050716	-0.6310858256	 0.118547
H	-0.5252467695	 1.8220718123	 1.1115189435	 0.111081
H	 0.553229832	-0.3736254903	 0.8818821699	 0.097655
H	-0.9951773571	-0.4142827038	 0.0432934574	 0.112955
H	-0.3036896458	-2.4204038918	-1.2638511061	 0.130701
H	 1.263953673	-2.4458710455	-2.0971242517	 0.116254
H	 1.2100772812	-2.4117131576	-0.3280642413	 0.118382
H	 0.0603968816	 1.0795831064	-2.6270806439	 0.096759
H	 0.4816692672	-0.4474932585	-3.4239179844	 0.092676
H	-2.1097602462	 1.0411760877	-3.7655459008	 0.105883
H	-1.6909706283	-0.512269109	-4.5336348753	 0.106024
H	-3.1242260848	-0.3983379728	-3.4759438599	 0.127761
H	 4.2231619433	 0.749910746	-1.4330458787	 0.192338
65.4906	89.2561	117.8421	122.4319	168.8387	210.0016	227.8959	236.3964	255.5976	271.7207	348.9884	368.0801	417.9642	450.2748	552.4373	575.9978	624.9378	637.1852	718.1137	787.2645	891.4813	937.9944	971.1587	1000.2631	1015.8891	1063.157	1078.7897	1155.3977	1162.0314	1191.5583	1209.6281	1218.9209	1243.5398	1285.2092	1323.9862	1366.461	1396.0968	1409.4085	1418.2776	1475.6427	1479.6568	1484.5823	1490.7592	1497.8281	1499.6931	1502.0748	1509.0942	1528.2006	2228.6947	2965.4111	2976.7585	3007.0491	3016.2083	3039.5306	3040.1776	3045.8767	3086.6132	3105.5435	3114.3521	3115.6485	3116.4245	3132.5391	3500.628
CCC(C)(COC)C#C	CC[C@@](C)(COC)C#C	
InChI=1S/C8H14O/c1-5-8(3,6-2)7-9-4/h1H,6-7H2,2-4H3	InChI=1S/C8H14O/c1-5-8(3,6-2)7-9-4/h1H,6-7H2,2-4H3/t8-/m0/s1
