18
gdb 113749	3.57022	0.86592	0.76518	3.153	74.73	-0.2524	0.0227	0.2751	1477.0637	0.145484	-439.003127	-438.993134	-438.99219	-439.039125	35.852	
O	-0.0523047456	 1.3184075933	-0.7502077449	-0.424822
C	 0.0315161555	 0.2224631004	 0.1459897664	-0.06256
C	-1.3043207336	-0.4744882182	 0.2634503309	-0.038961
N	-1.7186075719	-1.2465908388	-0.9271975538	-0.34443
C	-1.4936083376	-1.945432411	 0.3462331521	-0.049305
C	-0.3302483209	-2.9306410023	 0.3916162139	-0.050524
O	 0.3676062083	-2.8652587289	 1.6327682738	-0.418457
C	-0.795008649	-4.2897128433	 0.099824566	 0.286039
C	-1.209663383	-5.4020071422	-0.0904935179	-0.434178
H	-0.3574672602	 0.9531989997	-1.5890107308	 0.288444
H	 0.8120998586	-0.4854292972	-0.1622662782	 0.095062
H	 0.3261690861	 0.6349466626	 1.1158874329	 0.11626
H	-2.0724519515	 0.1295847513	 0.7440658462	 0.090855
H	-2.7124483591	-1.1391957766	-1.1072799956	 0.238697
H	-2.3714540825	-2.2859530552	 0.8939190085	 0.090123
H	 0.3966427245	-2.6327498269	-0.3695179681	 0.129375
H	-0.1667092893	-3.3182200857	 2.2943658558	 0.286613
H	-1.5558222789	-6.3885895812	-0.2779999071	 0.20177
30.3476	70.113	111.1323	155.0286	202.664	222.4981	265.0832	326.4127	380.7007	429.3658	480.563	502.0826	582.2908	607.8948	637.9778	672.8914	815.5137	858.0811	919.5212	952.9567	964.6378	996.366	1046.3998	1067.3424	1069.5897	1139.633	1175.5484	1213.4474	1260.8927	1268.6795	1273.8395	1301.2317	1367.5831	1398.8844	1408.4451	1437.9889	1480.7909	1495.9614	2232.5515	3020.4153	3074.6143	3085.3462	3112.3042	3125.241	3502.0222	3515.2892	3793.3427	3808.7103
OCC1NC1C(O)C#C	OC[C@H]1N[C@H]1[C@@H](O)C#C	
InChI=1S/C6H9NO2/c1-2-5(9)6-4(3-8)7-6/h1,4-9H,3H2	InChI=1S/C6H9NO2/c1-2-5(9)6-4(3-8)7-6/h1,4-9H,3H2/t4-,5+,6-/m1/s1
