20
gdb 52164	4.54101	0.79143	0.77127	4.0596	80.96	-0.2447	0.0358	0.2805	1529.7438	0.172229	-403.141674	-403.132943	-403.131999	-403.176621	32.271	
O	-0.2757836202	 0.6570807065	-0.9041276385	-0.324391
C	 0.0052270953	 1.2428269518	 0.1206559876	 0.154124
N	 1.250410901	 1.3461007673	 0.6539784276	-0.272122
C	 2.4440405062	 0.799430646	 0.0202226759	-0.191879
C	 3.5175475021	 1.8551806836	-0.1345140822	-0.007337
C	 4.4201726916	 2.3411533221	 0.9746833989	-0.078662
C	 4.8541053485	 1.1987179803	 1.9054676647	-0.231337
C	 5.4473920049	 0.4395273278	 0.6749265012	-0.228432
C	 4.9939976547	 1.589204593	-0.2365116275	-0.074396
H	-0.7492432437	 1.7658897076	 0.7424530905	 0.069988
H	 1.3653993292	 1.8872875423	 1.4965089943	 0.246937
H	 2.8109084358	-0.0588526623	 0.593594261	 0.111115
H	 2.1239904027	 0.4227027877	-0.9542558097	 0.148246
H	 3.2044791604	 2.6699150793	-0.7849066202	 0.095457
H	 4.4963400896	 3.3957434244	 1.2129806744	 0.085133
H	 5.6295271046	 1.5048693597	 2.6104092113	 0.107614
H	 4.0618118499	 0.695403625	 2.4700689311	 0.092869
H	 6.5351632351	 0.3641072376	 0.7329235699	 0.10701
H	 5.0487757311	-0.5552449232	 0.4531153353	 0.102079
H	 5.5706451411	 1.9808828534	-1.0661825257	 0.087985
29.9841	56.389	144.5158	183.4522	249.752	309.152	319.9885	463.7094	522.0806	545.8795	705.8297	747.3509	785.0109	791.8121	801.41	914.4664	930.5825	952.96	980.1992	998.034	1018.4179	1025.6087	1035.8991	1057.315	1086.8703	1125.2087	1148.6064	1198.8417	1209.2849	1224.5773	1246.0149	1264.2895	1278.3222	1306.6113	1336.8969	1377.0274	1430.6626	1456.3153	1483.1474	1499.4059	1513.457	1527.26	1805.1328	2928.4937	3042.6336	3045.1175	3056.08	3097.9411	3109.3764	3116.1232	3131.2272	3171.2343	3183.4926	3630.5381
O=CNCC1C2CCC12	O=CNC[C@H]1[C@H]2CC[C@@H]12	
InChI=1S/C7H11NO/c9-4-8-3-7-5-1-2-6(5)7/h4-7H,1-3H2,(H,8,9)	InChI=1S/C7H11NO/c9-4-8-3-7-5-1-2-6(5)7/h4-7H,1-3H2,(H,8,9)/t5-,6+,7-
