17
gdb 16820	3.47465	2.05247	1.48239	3.3392	69.74	-0.251	0.0279	0.2789	874.0417	0.14377	-363.879313	-363.872278	-363.871334	-363.91036	27.451	
C	 0.1217245456	 1.5478572847	-0.0812312025	-0.397846
C	-0.0053130246	 0.0436404173	 0.0945437081	 0.107345
O	 0.5062013106	-0.61699968	-1.0875499906	-0.262041
C	 1.1428221595	-1.7898244259	-0.7626548934	 0.414316
N	 1.4110630049	-2.7129348057	-1.5818894898	-0.552589
C	 1.4639765067	-1.7856365656	 0.6882444865	-0.109851
C	 2.255516056	-0.576443802	 1.1523951853	-0.292941
C	 0.7602151094	-0.5744581506	 1.2565324816	-0.063281
H	 1.1702765293	 1.8480173078	-0.1552784896	 0.126653
H	-0.3969821127	 1.8714303382	-0.9876509785	 0.131613
H	-0.3271099817	 2.0627164812	 0.7739975989	 0.120846
H	-1.0673462245	-0.224734838	 0.1855335106	 0.089207
H	 1.0479612509	-2.4809243002	-2.5079825421	 0.220063
H	 1.5636943989	-2.7335709379	 1.1974435176	 0.115313
H	 2.8167316102	-0.6951090523	 2.0719273329	 0.123077
H	 2.7411054414	 0.0381329373	 0.4018481148	 0.130419
H	 0.2852357102	-0.5939009783	 2.2296084802	 0.099696
122.7316	197.2691	227.7322	261.1095	344.1513	456.5547	503.8943	596.0629	679.4106	725.7747	783.7921	805.6677	845.0621	886.775	925.2279	942.9035	962.4867	994.7445	1040.4265	1069.736	1080.5546	1101.2052	1117.6048	1122.0728	1157.7955	1197.5211	1278.7169	1341.5433	1364.0082	1381.9651	1390.7219	1412.8037	1483.0736	1487.7744	1497.3765	1777.9751	3004.213	3045.8333	3118.1109	3127.3345	3137.1788	3189.2903	3219.8519	3228.7893	3472.9979
CC1OC(=N)C2CC12	C[C@H]1O[C]([NH])[C@H]2C[C@@H]12	
InChI=1S/C6H9NO/c1-3-4-2-5(4)6(7)8-3/h3-5,7H,2H2,1H3	InChI=1S/C6H9NO/c1-3-4-2-5(4)6(7)8-3/h3-5,7H,2H2,1H3/t3-,4+,5+/m1/s1
