17
gdb 128027	4.96972	0.90292	0.76773	1.1373	81.98	-0.1986	0.0187	0.2173	1450.82	0.138053	-414.210792	-414.20232	-414.201376	-414.244308	31.056	
C	-0.3374332654	 1.6538035491	-0.0381035481	-0.311032
N	-0.0087648209	 0.2452687206	-0.0271375607	-0.217176
C	-0.9685880354	-0.5723678513	 0.1261645914	 0.105588
N	-0.8345197608	-1.9362053657	 0.158384035	-0.412186
C	 0.3322476616	-2.6817731034	 0.0412162067	 0.446129
N	 0.2320904767	-4.0094152671	 0.1075876563	-0.330191
N	 1.5071201535	-4.4347798302	-0.0367234999	-0.18459
C	 2.3896511025	-3.4222722763	-0.1898161873	-0.017106
C	 1.6666875631	-2.2488413435	-0.1451908098	-0.287031
H	 0.2065774417	 2.1731510904	 0.7605485731	 0.120273
H	-0.0177275587	 2.1073581006	-0.9844951702	 0.12028
H	-1.4135114668	 1.8607252622	 0.0925320415	 0.08953
H	-2.0166899402	-0.2620178917	 0.2484043819	 0.077414
H	-1.6693801329	-2.4834666338	 0.2904112831	 0.258239
H	 1.6914259647	-5.4220863588	-0.0202288487	 0.274205
H	 3.4452548979	-3.6047592114	-0.3164426369	 0.131273
H	 2.0093356896	-1.2347697196	-0.2292765873	 0.136379
62.2651	135.8297	142.9354	199.0495	273.0541	316.413	371.3074	382.6905	442.7267	509.775	652.1815	661.5883	723.1929	777.8575	793.228	857.1247	944.745	979.226	988.691	1041.797	1064.1444	1107.6673	1140.7522	1151.0433	1218.0293	1220.4553	1315.3651	1381.2641	1411.6371	1448.6101	1479.9206	1483.6124	1505.2521	1508.5303	1534.2634	1619.269	1757.3584	2955.9488	3008.2957	3044.1043	3061.1008	3260.7308	3322.6532	3651.0554	3691.6463
CN=CNC1=NNC=C1	CN=CNc1n[nH]cc1	
InChI=1S/C5H8N4/c1-6-4-7-5-2-3-8-9-5/h2-4H,1H3,(H2,6,7,8,9)	InChI=1S/C5H8N4/c1-6-4-7-5-2-3-8-9-5/h2-4H,1H3,(H2,6,7,8,9)
