17
gdb 128667	5.33339	1.10044	0.93246	2.2191	77.53	-0.2075	0.0309	0.2385	1242.7524	0.13768	-417.98406	-417.976153	-417.975209	-418.016937	28.964	
C	-0.0149972747	 1.383642475	 0.179120958	-0.228684
O	 0.0076496006	-0.0363092446	 0.0737035114	-0.26193
C	-1.1869055985	-0.6314205895	-0.0774148679	 0.470165
N	-2.338387379	 0.0527564148	-0.0793323423	-0.396661
N	-3.2389123147	-0.9564037916	-0.1511023486	 0.057238
C	-4.5688573342	-1.3034056971	-0.6755389503	-0.166529
C	-4.0376153917	-2.7934848517	-0.69032016	-0.362125
C	-2.7032734385	-2.1827710632	-0.2845357334	 0.382637
C	-1.3341465191	-2.0470219427	-0.2298610638	-0.512932
H	 1.0253345496	 1.6923533129	 0.2926452787	 0.123176
H	-0.4478990323	 1.837855919	-0.7185516151	 0.1297
H	-0.6029990686	 1.702931593	 1.0456555783	 0.132953
H	-5.3974385453	-1.0676899142	-0.0025307212	 0.126729
H	-4.7668641292	-0.8984056713	-1.672098143	 0.133417
H	-4.5073506416	-3.4597345751	 0.0365958004	 0.130362
H	-4.0559328968	-3.2627550834	-1.6760705791	 0.133329
H	-0.5469076559	-2.7790692803	-0.273566592	 0.109155
78.2963	106.0415	178.0471	211.5842	233.222	342.0965	406.0104	524.0927	638.1338	644.2867	715.1936	766.4396	803.3694	823.301	830.2098	920.1718	992.237	1055.7229	1057.3126	1084.3363	1131.5591	1171.4307	1173.1483	1181.7733	1216.922	1219.5473	1271.7345	1323.5549	1385.4883	1440.0608	1467.3019	1478.1332	1486.8179	1502.3184	1519.3708	1538.1001	1595.9421	3031.0371	3054.8789	3074.9649	3096.8542	3107.2112	3128.2682	3140.8166	3287.1476
COC1=NN2CCC2=C1	COc1nn2CCc2c1	
InChI=1S/C6H8N2O/c1-9-6-4-5-2-3-8(5)7-6/h4H,2-3H2,1H3	InChI=1S/C6H8N2O/c1-9-6-4-5-2-3-8(5)7-6/h4H,2-3H2,1H3
