17
gdb 29657	2.37192	1.67584	0.99715	5.619	72.73	-0.1899	0.0433	0.2332	1160.606	0.135554	-455.204165	-455.194766	-455.193822	-455.238275	33.369	
C	-0.1466809429	 1.4581101473	-0.0124228861	-0.346102
N	 0.0004672161	 0.0212546208	 0.0407095536	-0.143109
C	 0.1266873419	-0.767861397	-1.0830045619	 0.470536
O	 0.1890883433	-0.4331631075	-2.2386334395	-0.421001
O	 0.1646700208	-2.0649978321	-0.6377139576	-0.254043
C	 0.0783101527	-2.068553748	 0.7549805608	 0.300355
C	 0.1018558973	-3.383580801	 1.4361980083	-0.495639
C	-0.036871607	-0.7974789814	 1.1780822307	 0.142516
N	-0.2707094832	-0.229191247	 2.4347985066	-0.607666
H	 0.7461951103	 1.9736930194	 0.3607807664	 0.12676
H	-0.291612416	 1.7264743383	-1.0599668141	 0.171665
H	-1.0103841766	 1.7749548247	 0.5782659496	 0.146257
H	-0.778512471	-3.9916664214	 1.1940767454	 0.141502
H	 0.9872194808	-3.9624465492	 1.1485146202	 0.143973
H	 0.1289272996	-3.2478502835	 2.5213275466	 0.118706
H	-0.461301653	-0.9353687842	 3.1338568633	 0.253225
H	 0.497500347	 0.3514663918	 2.7580320678	 0.252066
102.5617	118.3519	156.6167	168.4568	192.1164	234.5891	257.7342	271.0824	343.4847	369.8093	569.1376	618.5808	639.8118	640.9725	735.7541	757.9495	787.0067	923.7456	965.0227	1039.552	1065.4514	1101.0569	1159.5257	1214.6685	1228.1646	1293.7359	1376.7425	1421.2796	1426.9521	1465.2221	1474.9246	1495.9037	1499.1644	1517.0829	1642.0031	1768.3083	1872.6669	3020.62	3028.2635	3069.8739	3096.0874	3108.591	3151.5918	3498.7282	3612.2993
CN1C(=O)OC(C)=C1N	Cn1c(=O)oc(C)c1N	
InChI=1S/C5H8N2O2/c1-3-4(6)7(2)5(8)9-3/h6H2,1-2H3	InChI=1S/C5H8N2O2/c1-3-4(6)7(2)5(8)9-3/h6H2,1-2H3
