18
gdb 54425	2.49131	1.54275	1.20602	2.537	73.33	-0.239	0.0184	0.2575	1085.8966	0.14657	-439.08767	-439.078657	-439.077713	-439.12129	33.611	
C	 0.1360502279	 1.5347477741	 0.0025067229	-0.494082
C	 0.0431571763	 0.0383341605	 0.0015638182	 0.208477
C	-0.9463815193	-0.7487476401	 0.8246615532	-0.375543
C	 0.521266111	-0.9784102895	 1.0352923003	 0.34313
O	 1.0459454045	-1.8661784053	 0.039077012	-0.345234
C	 0.6979898308	-0.9101772076	-1.0049272218	-0.136921
C	 1.2462895972	-0.7552890453	 2.3128254596	 0.313241
N	 2.3826716298	-1.4910237032	 2.4258757059	-0.540305
O	 0.8419696809	 0.0348693188	 3.1497115803	-0.38554
H	 1.122673663	 1.8721551304	-0.3331388216	 0.119332
H	-0.6165243224	 1.9828263732	-0.6566533564	 0.123036
H	-0.0235985133	 1.9202780709	 1.0134854031	 0.153426
H	-1.4258753485	-0.1849558205	 1.6172813653	 0.145578
H	-1.5315780919	-1.5524294047	 0.3856940783	 0.114819
H	 0.0617644785	-1.3597252568	-1.7759308509	 0.110049
H	 1.6040289005	-0.4971481787	-1.4630974721	 0.111003
H	 2.6732522869	-2.0881963251	 1.6699782616	 0.273238
H	 2.9552633381	-1.3861010611	 3.2461019222	 0.262296
77.3961	113.4388	173.0231	193.5019	225.8529	274.1846	331.4508	380.1123	414.5881	462.2992	509.0912	611.2605	627.3168	688.1486	742.0652	798.0114	865.0983	924.6361	958.5517	962.4495	990.599	1034.4388	1059.6671	1089.5677	1108.646	1154.7559	1162.8012	1200.7691	1283.085	1307.476	1382.4888	1411.5921	1431.6889	1484.8794	1489.4072	1497.4145	1516.8043	1602.0692	1781.1536	3023.512	3028.5978	3076.5685	3087.6331	3114.1553	3117.9613	3224.7507	3600.0405	3742.0095
CC12CC1(OC2)C(N)=O	C[C@]12C[C@]1(OC2)C(=O)N	
InChI=1S/C6H9NO2/c1-5-2-6(5,4(7)8)9-3-5/h2-3H2,1H3,(H2,7,8)	InChI=1S/C6H9NO2/c1-5-2-6(5,4(7)8)9-3-5/h2-3H2,1H3,(H2,7,8)/t5-,6+/m1/s1
