18
gdb 124991	3.08217	0.99346	0.79978	4.2702	74.46	-0.2403	0.0041	0.2444	1411.9451	0.14779	-435.26974	-435.260308	-435.259364	-435.305572	32.73	
C	-0.1405812754	 1.5277865083	 0.2277024111	-0.498075
C	-0.0365647556	 0.0494331376	 0.038683551	 0.227516
C	 0.0412502045	-0.6899218025	-1.1258533459	 0.243469
C	 0.0706869341	-0.3164840874	-2.570629317	-0.309645
C	 1.4929503091	-0.1582535678	-3.1210295892	-0.062168
O	 1.3750153718	 0.182640468	-4.4899352472	-0.414988
N	 0.1253604809	-1.9694191518	-0.6739937768	-0.229083
N	 0.0932984823	-2.0350393878	 0.6686304155	-0.125598
N	-0.0028172024	-0.8108612905	 1.1001745343	-0.247125
H	 0.845343317	 2.002561677	 0.29316048	 0.133703
H	-0.6800272598	 2.0016865291	-0.5980918669	 0.124785
H	-0.6714730505	 1.7451091234	 1.1575381868	 0.148584
H	-0.4530123616	-1.0643237846	-3.1773235894	 0.119589
H	-0.4603387442	 0.6295858742	-2.7147630358	 0.131993
H	 2.0213316453	 0.6195634566	-2.5490724896	 0.100905
H	 2.0496184349	-1.0991470657	-2.9831220281	 0.089201
H	 2.2570129294	 0.3247540844	-4.8457322315	 0.291382
H	 0.17375576	-2.8233003904	-1.2074079413	 0.275555
44.3481	52.3467	90.3183	118.2866	243.9655	257.3804	261.7618	344.5901	367.5844	423.2289	573.9257	669.6568	705.9138	732.7198	789.5526	796.0632	983.1931	1003.3191	1031.8087	1045.8976	1064.4058	1084.6188	1093.2984	1199.2039	1210.7513	1240.9976	1263.8817	1309.4233	1320.9289	1333.5824	1382.1096	1416.1517	1456.0869	1478.5465	1487.4621	1494.0268	1503.8179	1527.364	1625.374	2970.8554	3004.3496	3034.0487	3043.4566	3090.084	3092.6645	3127.0293	3649.3684	3832.6883
CC1=C(CCO)NN=N1	Cc1c(CCO)[nH]nn1	
InChI=1S/C5H9N3O/c1-4-5(2-3-9)7-8-6-4/h9H,2-3H2,1H3,(H,6,7,8)	InChI=1S/C5H9N3O/c1-4-5(2-3-9)7-8-6-4/h9H,2-3H2,1H3,(H,6,7,8)
