25
gdb 59354	2.82089	1.04953	0.86271	1.3329	89.04	-0.2497	0.0575	0.3072	1483.396	0.227052	-389.491657	-389.480787	-389.479842	-389.527339	40.757	
C	-0.1555278626	 1.5078094774	 0.0467944608	-0.390422
C	 0.0127881217	-0.010901878	-0.0975281599	 0.026344
C	 0.7929016034	-0.3703357937	-1.369796971	-0.394013
C	 0.6767335396	-0.6068801525	 1.1430729355	 0.026737
C	-0.0477198175	-0.5333634328	 2.5186641628	-0.283177
C	 0.4611868785	-1.9689573502	 2.8333784607	 0.010282
C	-0.4552414812	-2.952874592	 3.5437677704	-0.402969
C	 0.7515487081	-2.162168952	 1.3088864785	 0.091065
O	-0.217314491	-2.9045573741	 0.5905534648	-0.425959
H	 0.8200730153	 2.0028767495	 0.1236364554	 0.110438
H	-0.6739949985	 1.9305185394	-0.8202846824	 0.108813
H	-0.7310203765	 1.7675983942	 0.9412179828	 0.112738
H	-0.9915375254	-0.4503511791	-0.189223998	 0.050688
H	 1.815171709	 0.024892766	-1.3261100844	 0.106119
H	 0.8497195662	-1.4543866094	-1.498951367	 0.132005
H	 0.3133956058	 0.0535367649	-2.2586352707	 0.105266
H	 1.6902991339	-0.1962430208	 1.2369654637	 0.06575
H	 0.2368786536	 0.2671452867	 3.2057125027	 0.097481
H	-1.1387464444	-0.5052391335	 2.4025323925	 0.085007
H	 1.4179803275	-1.9081574412	 3.3641405266	 0.072894
H	-1.4039032686	-3.0799187731	 3.0114522187	 0.100628
H	 0.0070502675	-3.9422459748	 3.6240846109	 0.120405
H	-0.6886985951	-2.6057478373	 4.5561629344	 0.11349
H	 1.7042524029	-2.6336286217	 1.0551553464	 0.079309
H	-1.0875685421	-2.5296857219	 0.7607881659	 0.281081
62.446	76.5158	141.8618	180.9403	232.7234	235.1411	239.2481	257.3062	276.4468	307.5587	342.328	373.3953	447.3073	501.2911	574.4977	681.1444	746.1635	828.9449	879.896	893.4807	925.6031	931.5225	944.8027	974.031	987.6266	1012.7931	1047.5416	1118.0005	1135.256	1154.3368	1162.3265	1177.5816	1203.2019	1238.7285	1243.6757	1260.112	1268.2818	1308.6062	1319.7444	1341.711	1360.1488	1394.6136	1396.0038	1412.2637	1419.3351	1437.1672	1488.6734	1489.843	1491.6765	1493.2182	1496.1384	1503.9525	1513.5575	2988.6578	3019.8784	3023.0636	3026.1491	3029.0362	3030.9189	3040.2592	3077.8053	3086.0937	3091.7356	3093.5916	3097.6577	3099.3239	3100.5486	3116.8629	3812.023
CC(C)C1CC(C)C1O	CC(C)[C@H]1C[C@@H](C)[C@H]1O	
InChI=1S/C8H16O/c1-5(2)7-4-6(3)8(7)9/h5-9H,4H2,1-3H3	InChI=1S/C8H16O/c1-5(2)7-4-6(3)8(7)9/h5-9H,4H2,1-3H3/t6-,7-,8-/m1/s1
