20
gdb 126230	1.8322	1.76407	0.97294	2.9462	82.39	-0.1986	0.0411	0.2396	1257.4346	0.171293	-399.362928	-399.352811	-399.351867	-399.398733	36.211	
C	-0.0790149451	 1.6077026851	 0.0545618401	-0.362344
C	-0.0236223752	 0.0692517702	 0.0192824349	-0.321597
C	 0.6692390713	-0.4862787956	-1.1910036417	 0.092605
C	 0.105888873	-0.7982984004	-2.4171970248	 0.284103
N	-1.2215846965	-0.8056915274	-2.8665686447	-0.608512
N	 1.1169107149	-1.2253302608	-3.2129994558	-0.249782
N	 2.3232334453	-1.215337198	-2.5869678886	-0.302728
C	 2.0536823036	-0.771231199	-1.3645607963	 0.285021
C	 3.1528463512	-0.6192588779	-0.3602059431	-0.499783
H	 0.9280797477	 2.0357049566	 0.0375758857	 0.123092
H	-0.6155035914	 2.0009069117	-0.8154092348	 0.107491
H	-0.5854773847	 1.9666421293	 0.9569350848	 0.107732
H	 0.4818313834	-0.2906435151	 0.9233759827	 0.106652
H	-1.0459663827	-0.3275346375	 0.0851978497	 0.089968
H	-1.8514081921	-0.4682221151	-2.150057855	 0.251569
H	-1.3603743928	-0.2498386268	-3.7035004542	 0.248711
H	 1.0428194945	-1.6104958463	-4.1385146186	 0.263827
H	 3.2850560294	 0.4247460184	-0.0530913512	 0.122625
H	 2.9507897436	-1.1986219565	 0.5482714993	 0.122938
H	 4.0935836327	-0.970518225	-0.7895074583	 0.138414
28.1855	108.4278	119.9067	144.8761	186.1766	192.9864	270.0474	282.8089	341.5503	416.3677	433.4341	495.2774	578.4404	669.6813	681.9032	730.1758	754.3664	790.4106	808.8008	964.7121	998.8034	1002.4935	1062.7837	1081.8702	1105.6768	1139.7738	1174.7661	1244.1371	1297.1475	1335.4103	1361.4133	1403.1421	1406.8822	1432.5216	1479.303	1482.9508	1487.4708	1495.8876	1503.3174	1513.0157	1554.8514	1624.4696	1663.2691	3009.5687	3027.3289	3030.7848	3049.3107	3074.8876	3099.5521	3106.9248	3129.3216	3518.836	3613.9706	3678.6644
CCC1=C(N)NN=C1C	CCc1c(N)[nH]nc1C	
InChI=1S/C6H11N3/c1-3-5-4(2)8-9-6(5)7/h3H2,1-2H3,(H3,7,8,9)	InChI=1S/C6H11N3/c1-3-5-4(2)8-9-6(5)7/h3H2,1-2H3,(H3,7,8,9)
