19
gdb 52113	5.22115	0.76363	0.72936	2.6848	76.99	-0.2523	-0.0285	0.2238	1563.1389	0.156961	-422.989467	-422.980446	-422.979502	-423.024705	32.448	
O	-0.3937380522	 0.4089956346	 0.6936216968	-0.237867
C	-0.0002236101	 1.1453625609	-0.1710476451	 0.136667
C	 1.2746939033	 1.9622314248	-0.0636978247	-0.17668
O	 1.4760573816	 2.6197401307	-1.2978512183	-0.293134
C	 2.5525286584	 3.4864449585	-1.3056782149	 0.465375
C	 2.4823751945	 4.8467823678	-0.6683613348	-0.333425
C	 2.7273692858	 4.7267069536	-2.159899885	-0.136333
C	 4.1966318041	 4.359451333	-2.4073396169	-0.217098
C	 4.0053464929	 3.0592681627	-1.5526368196	-0.301451
H	-0.5468044117	 1.2960851973	-1.1280975995	 0.097762
H	 1.1674428446	 2.6814648554	 0.763937693	 0.128365
H	 2.1090774631	 1.2916928537	 0.1921516619	 0.129883
H	 1.477241034	 5.1610622782	-0.4052324258	 0.115992
H	 3.264137907	 5.2102842242	-0.0042358026	 0.105201
H	 2.0486485301	 5.167334478	-2.8791886594	 0.097481
H	 4.4216912239	 4.1402285922	-3.4527775571	 0.109601
H	 4.9304778982	 5.0796479681	-2.0324941875	 0.100769
H	 4.6432869499	 2.935320169	-0.6718226116	 0.096258
H	 4.0644043226	 2.1579507874	-2.1670494489	 0.112633
44.9239	60.4683	91.9772	117.4573	234.6453	298.1984	362.8217	381.9339	439.1413	550.3345	662.6168	722.2394	738.5221	788.9405	862.0147	912.8946	921.7806	958.5016	964.142	1018.3574	1022.3975	1054.5848	1070.2195	1096.1587	1113.5239	1122.5532	1153.6387	1217.1388	1222.5597	1231.1318	1235.4498	1265.0926	1303.6329	1344.2303	1387.4891	1411.1339	1474.9651	1478.8313	1481.8415	1511.8856	1845.1461	2899.0034	2982.3973	3018.5619	3047.0235	3056.0078	3100.502	3102.7596	3120.5412	3192.4901	3202.9107
O=CCOC12CC1CC2	O=CCO[C@]12C[C@H]1CC2	
InChI=1S/C7H10O2/c8-3-4-9-7-2-1-6(7)5-7/h3,6H,1-2,4-5H2	InChI=1S/C7H10O2/c8-3-4-9-7-2-1-6(7)5-7/h3,6H,1-2,4-5H2/t6-,7-/m1/s1
