15
gdb 31602	3.30959	1.10289	0.85235	0.9044	65.7	-0.1794	0.0255	0.205	1276.9838	0.112326	-491.107238	-491.098148	-491.097204	-491.14136	32.551	
O	 0.0927337519	 1.2811121719	-0.4115828049	-0.41843
C	-0.0322488285	 0.043582867	 0.2851633606	-0.171666
C	-1.410443681	-0.5222178669	 0.1852394608	 0.277025
N	-1.7440132008	-1.7907729302	 0.0324729606	-0.377128
C	-3.108379298	-1.8203305601	 0.0375917466	 0.200623
O	-3.8370717971	-2.9623395642	-0.1036351506	-0.460476
C	-3.6206936651	-0.5589489806	 0.1843623657	 0.291156
O	-4.8741994486	-0.0406904428	 0.2257220778	-0.445051
N	-2.524778218	 0.2659522606	 0.2838954187	-0.320564
H	-0.0748950739	 1.1037760924	-1.3437829866	 0.285457
H	 0.6765411215	-0.7187222083	-0.0629147234	 0.121328
H	 0.2276906849	 0.2831009574	 1.3237654412	 0.124193
H	-3.2019381669	-3.6825733257	-0.186134599	 0.301453
H	-5.4924352998	-0.7688945683	 0.1009334835	 0.315373
H	-2.5366963404	 1.2697572979	 0.3594567392	 0.276706
53.7894	132.2602	178.6909	218.2914	238.3927	255.1116	283.5334	332.9656	378.3358	406.5061	522.846	545.4912	645.148	661.2497	682.7675	726.5336	835.1155	971.7146	1023.7184	1055.2657	1136.5613	1151.9376	1190.5987	1238.3327	1319.5369	1357.0635	1374.7083	1415.9718	1470.5987	1498.8187	1531.8094	1560.4666	1716.8805	3020.1512	3057.2084	3664.875	3802.1951	3819.5785	3830.2901
OCC1=NC(O)=C(O)N1	OCc1nc(O)c(O)[nH]1	
InChI=1S/C4H6N2O3/c7-1-2-5-3(8)4(9)6-2/h7-9H,1H2,(H,5,6)	InChI=1S/C4H6N2O3/c7-1-2-5-3(8)4(9)6-2/h7-9H,1H2,(H,5,6)
