20
gdb 127072	2.52242	1.32817	1.05987	2.0131	82.23	-0.2113	0.0265	0.2378	1232.529	0.171339	-399.339268	-399.32965	-399.328706	-399.375355	34.647	
C	 0.026558989	 1.4869375604	-0.0311998905	-0.324308
N	-0.0043962053	 0.0312936055	 0.0670622379	-0.166117
C	 0.8371299105	-0.4668735578	 1.1501762134	-0.324309
C	-1.3161982637	-0.5144141251	 0.0645414574	 0.112298
C	-1.8344794112	-1.3292093207	-0.9306565774	 0.310907
C	-1.2078655182	-1.8271230795	-2.1876985276	-0.507415
N	-3.101021927	-1.6183031676	-0.5391058852	-0.259525
N	-3.451801794	-1.0543697935	 0.6382164711	-0.230083
C	-2.3689056826	-0.3821175369	 1.008713679	-0.060647
H	 1.0581977159	 1.819633477	-0.1911118665	 0.112872
H	-0.5763411912	 1.8099781073	-0.8835046836	 0.121919
H	-0.3558013344	 1.9964635399	 0.8718704583	 0.096375
H	 0.5208941036	-0.1159219271	 2.1492652079	 0.096368
H	 0.8213486685	-1.5595772733	 1.154075258	 0.121941
H	 1.8695690803	-0.136226853	 0.9911894335	 0.11288
H	-1.1599352452	-2.9217714358	-2.2191443579	 0.130912
H	-1.7510761986	-1.4937430409	-3.0795061972	 0.130917
H	-0.1890853081	-1.4368356721	-2.2398744019	 0.152157
H	-3.7753580335	-2.1883306398	-1.0209784009	 0.267372
H	-2.3775936948	 0.172889283	 1.9357943623	 0.105488
8.5892	138.9753	157.2095	158.6499	235.624	236.3543	241.8806	282.5032	370.0359	456.8744	480.9402	504.1009	605.2349	690.498	703.361	742.529	893.9269	931.2905	966.7993	999.9055	1060.6849	1067.0634	1120.2566	1125.6227	1161.6962	1184.2016	1200.7696	1234.0131	1289.5285	1321.6833	1384.2804	1410.3216	1440.8363	1443.1547	1468.3052	1479.2123	1484.6251	1491.2928	1496.4427	1499.7063	1513.1488	1525.0001	1631.0086	2939.9836	2946.0741	3027.4731	3055.0631	3057.4252	3077.7393	3112.2646	3114.9117	3130.4671	3239.8143	3669.7979
CN(C)C1=C(C)NN=C1	CN(C)c1c(C)[nH]nc1	
InChI=1S/C6H11N3/c1-5-6(9(2)3)4-7-8-5/h4H,1-3H3,(H,7,8)	InChI=1S/C6H11N3/c1-5-6(9(2)3)4-7-8-5/h4H,1-3H3,(H,7,8)
