21
gdb 74490	2.88196	1.33118	1.01597	1.1891	88.02	-0.2146	0.0267	0.2413	1246.5077	0.182808	-387.094015	-387.085487	-387.084543	-387.126841	33.739	
C	 0.0357981087	 1.5282253092	-0.0386413579	-0.47427
C	-0.0070632793	 0.0275661437	 0.0071963463	 0.265337
C	-1.1457755631	-0.6710859539	 0.012688281	-0.194266
C	-1.1766841851	-2.150692833	 0.0099359407	 0.429396
C	-2.1444617839	-2.8885628538	 0.9258635718	-0.324182
C	-2.3432722557	-2.897038224	-0.572145238	-0.32377
O	 0.0601687863	-2.7698648221	-0.2208034149	-0.298156
C	 1.1127059485	-2.1518854685	 0.5061981602	-0.100859
C	 1.3141682803	-0.7060877168	 0.0488326625	-0.297984
H	 0.5980880104	 1.8805377928	-0.9136544635	 0.123137
H	-0.9674353065	 1.960975403	-0.0857502767	 0.118347
H	 0.5453846086	 1.9398728399	 0.842589253	 0.120226
H	-2.1085095635	-0.1656014119	 0.0173813675	 0.082136
H	-1.7678026464	-3.797270065	 1.3814625615	 0.120304
H	-2.8241112281	-2.3096747593	 1.5415390304	 0.110646
H	-3.1589843817	-2.3225364049	-0.9971782697	 0.113477
H	-2.100628592	-3.8106640261	-1.1026493876	 0.125503
H	 0.893532305	-2.1757477369	 1.5851329571	 0.091913
H	 2.0039793246	-2.7589478954	 0.3255005207	 0.102538
H	 1.7902186069	-0.6850953234	-0.9416660464	 0.112505
H	 2.0081541058	-0.1985601332	 0.7327038719	 0.098022
99.7987	142.7501	201.278	225.3753	268.9162	354.7046	374.6661	404.0058	461.2621	465.1907	551.0534	603.8259	766.8645	790.9574	812.5987	837.5733	881.2983	911.9994	931.467	940.147	972.5085	1001.4419	1033.0942	1040.1339	1050.1901	1074.7953	1101.9924	1117.0707	1160.6525	1192.6407	1229.9129	1279.2643	1291.7893	1311.5588	1364.6041	1389.7922	1413.8475	1415.8159	1449.7945	1467.9368	1478.7674	1484.9617	1492.6153	1501.0791	1735.8759	2983.3482	3004.9878	3011.7455	3039.2435	3055.1264	3088.9868	3106.443	3132.8328	3136.3535	3153.5687	3219.1868	3233.8219
CC1=CC2(CC2)OCC1	CC1=CC2(CC2)OCC1	
InChI=1S/C8H12O/c1-7-2-5-9-8(6-7)3-4-8/h6H,2-5H2,1H3	InChI=1S/C8H12O/c1-7-2-5-9-8(6-7)3-4-8/h6H,2-5H2,1H3
