14
gdb 132636	3.23975	1.32831	0.94297	4.0262	68.45	-0.2071	-0.0124	0.1947	1123.6996	0.101943	-478.034044	-478.026532	-478.025588	-478.065753	29.29	
N	-0.0314713542	 1.421096083	-0.1387758851	-0.598738
C	-0.0187351372	 0.0274172608	-0.0515322854	 0.197193
C	-1.1721951229	-0.7453215181	 0.0352349637	-0.064894
N	-1.1903885065	-2.0866051995	 0.0579939634	-0.330178
C	-0.0346975374	-2.694229318	-0.0048585414	 0.340698
F	-0.0520401665	-4.0291633323	 0.016005545	-0.082215
C	 1.2022500811	-2.0593409377	-0.0872903025	-0.425252
C	 1.2029491524	-0.6735026997	-0.1093886016	 0.389178
O	 2.3317015266	 0.0821496146	-0.1768412734	-0.447531
H	 0.8325901251	 1.8506690712	 0.1603532314	 0.259133
H	-0.8331418061	 1.8552969939	 0.296010688	 0.249542
H	-2.1404638511	-0.2520806474	 0.0880019437	 0.104012
H	 2.1201492951	-2.6352381821	-0.1283849283	 0.103234
H	 3.1050626216	-0.4913687488	-0.1923817974	 0.305818
147.2366	230.1402	281.4436	305.383	350.1274	359.1176	413.9454	458.5086	465.4459	545.0157	588.6439	643.2801	681.9708	758.0047	771.7244	806.5838	838.6666	922.5927	994.0379	1111.0185	1169.6834	1192.9018	1310.9891	1324.7685	1355.234	1393.8812	1456.5636	1548.3905	1631.0357	1647.7875	1664.2743	3147.9935	3189.414	3558.5951	3658.7906	3824.7548
NC1=CN=C(F)C=C1O	Nc1cnc(F)cc1O	
InChI=1S/C5H5FN2O/c6-5-1-4(9)3(7)2-8-5/h1-2H,7H2,(H,8,9)	InChI=1S/C5H5FN2O/c6-5-1-4(9)3(7)2-8-5/h1-2H,7H2,(H,8,9)
