18
gdb 17116	4.65217	1.55212	1.46976	2.7941	67.06	-0.2432	0.0825	0.3257	912.6061	0.155925	-384.912006	-384.905187	-384.904243	-384.943033	27.191	
O	-0.0415344381	 1.3992635486	-0.195715419	-0.422226
C	 0.0644029639	 0.0223221009	 0.111357123	-0.084348
C	-1.3095986802	-0.6355419357	 0.0987714411	 0.127027
O	-1.965257333	-0.3473080313	-1.1711454881	-0.312267
C	-2.3207336218	-1.6662835337	-1.6294225749	 0.117994
C	-2.8816549974	-2.3431667962	-0.355136499	-0.233731
C	-1.3910212689	-2.1704302964	 0.0864610375	-0.085831
C	-1.0307456761	-2.4878426854	-1.4032319352	-0.237897
H	-0.5785226238	 1.4444881049	-0.9965740616	 0.292183
H	 0.744475955	-0.4917522019	-0.5848067161	 0.083111
H	 0.4997605077	-0.0493530992	 1.114627384	 0.103246
H	-1.9129516353	-0.1995595305	 0.9056359939	 0.081349
H	-2.8507876297	-1.5936473105	-2.5775431479	 0.081837
H	-3.652592317	-1.8028769881	 0.1994780029	 0.102834
H	-3.1621112627	-3.3869441102	-0.504231435	 0.10314
H	-0.9585752251	-2.7074067978	 0.9297335472	 0.076545
H	-1.1488399546	-3.5469627125	-1.6374042298	 0.103827
H	-0.1032848528	-2.099151835	-1.8265269528	 0.103209
94.568	185.5697	233.1347	392.3782	462.6845	484.1408	514.9375	543.9726	655.8299	816.9096	834.0172	840.1372	863.8376	882.2757	945.7972	968.3503	1000.3176	1012.2385	1036.9059	1046.3605	1077.4711	1091.932	1106.9723	1125.7472	1146.7999	1210.2976	1223.5213	1243.1282	1248.6431	1281.5972	1298.0189	1324.0824	1360.776	1405.1582	1442.5631	1474.7847	1501.5056	1515.2932	2984.9274	3021.3463	3065.2421	3069.3132	3079.1685	3127.7351	3136.3205	3139.9111	3143.1338	3783.6068
OCC1OC2CC1C2	OC[C@H]1O[C@@H]2C[C@H]1C2	
InChI=1S/C6H10O2/c7-3-6-4-1-5(2-4)8-6/h4-7H,1-3H2	InChI=1S/C6H10O2/c7-3-6-4-1-5(2-4)8-6/h4-7H,1-3H2/t4-,5+,6-/m1/s1
