18
gdb 17213	4.21202	1.78169	1.53863	1.8143	70.9	-0.2541	0.0688	0.3229	877.0881	0.154442	-347.754581	-347.747679	-347.746735	-347.785879	27.149	
C	-0.4242850726	 1.3675195155	 0.1564780838	-0.266921
O	 0.9397430407	 0.960450508	-0.0218703465	-0.273215
C	-0.0563976048	-0.0459087644	 0.042223421	 0.463467
C	-0.0348068483	-1.1608483431	 1.096614323	-0.328626
C	-0.4362331719	-2.1716076107	-0.0116241619	-0.013575
C	-1.9614451309	-2.270482759	-0.3008312663	-0.222771
C	-1.8251311162	-1.2241338575	-1.4495333529	-0.222153
C	-0.326552602	-1.0343956185	-1.099760685	-0.122255
H	-0.6614123689	 1.7894365582	 1.1329050249	 0.111839
H	-0.8712253621	 1.8846516968	-0.6923678671	 0.112499
H	 0.9803200445	-1.321935062	 1.4715780781	 0.11633
H	-0.7138682596	-1.0623830433	 1.9492085543	 0.099565
H	 0.1345753941	-3.0984722199	-0.0618757118	 0.069013
H	-2.2910357664	-3.2563472404	-0.6364770036	 0.10301
H	-2.5994506655	-1.9691886938	 0.5353613627	 0.097165
H	-1.9727327378	-1.6646059096	-2.4385941435	 0.102933
H	-2.4493787253	-0.328778472	-1.3787087481	 0.096329
H	 0.4053011429	-1.0254339144	-1.908611641	 0.077366
60.1521	188.191	275.0707	333.2186	362.3598	448.7909	541.0158	684.3647	751.2042	790.4063	808.1642	843.2094	875.4117	888.1924	921.8279	942.4367	960.9538	981.5896	1037.4584	1063.9628	1106.7349	1119.8793	1129.741	1155.5347	1172.6322	1194.6034	1212.17	1239.7926	1242.6172	1265.7488	1282.6749	1294.8759	1309.8523	1423.5275	1469.0187	1476.5761	1494.199	1531.9883	3046.5358	3051.2162	3057.5179	3074.4151	3091.9778	3098.6202	3103.9932	3108.4541	3119.736	3159.4321
C1OC11CC2CCC12	C1O[C@]21C[C@H]1CC[C@@H]21	
InChI=1S/C7H10O/c1-2-6-5(1)3-7(6)4-8-7/h5-6H,1-4H2	InChI=1S/C7H10O/c1-2-6-5(1)3-7(6)4-8-7/h5-6H,1-4H2/t5-,6-,7+/m1/s1
