21
gdb 120400	3.03759	0.88943	0.76516	4.1232	79.34	-0.2672	0.0139	0.2812	1571.2311	0.181273	-424.270383	-424.260458	-424.259513	-424.305942	35.516	
C	 0.1084037437	 1.4684029104	 0.3088757846	-0.384828
C	 0.0068413036	-0.0356523421	 0.0453239266	-0.169535
C	-1.4433154825	-0.5300319206	-0.0378681196	-0.187993
C	-1.537090149	-2.0238429255	-0.2754227187	 0.121483
O	-1.0176938338	-2.7916560409	 0.8746235237	-0.259421
C	-2.2208360756	-3.4197054755	 1.0667634598	 0.452928
O	-2.508914345	-4.1940044353	 1.922481148	-0.327886
C	-2.8992341233	-2.7548719216	-0.1343456477	-0.216751
C	-4.1929789624	-1.9930745828	 0.1262555398	-0.41299
H	 1.1524740416	 1.790840154	 0.3637101895	 0.117365
H	-0.3775171629	 2.0464732475	-0.4853013645	 0.113326
H	-0.3728422714	 1.7377452791	 1.2554541858	 0.118426
H	 0.5262193718	-0.2829286826	-0.8899218979	 0.096512
H	 0.5214676593	-0.5898166015	 0.838273852	 0.123565
H	-1.9735375557	-0.2728048824	 0.8868502232	 0.106329
H	-1.9675221929	-0.0177377146	-0.8561724561	 0.102569
H	-0.9736184758	-2.3116883512	-1.1688566211	 0.092677
H	-3.0493688004	-3.486585218	-0.9344566367	 0.114522
H	-4.0875280585	-1.2667195717	 0.9360101063	 0.131695
H	-4.5236525492	-1.461041425	-0.7708126836	 0.125436
H	-4.9806911515	-2.6957732796	 0.4120870766	 0.142572
61.1265	91.0982	113.6949	122.47	193.7809	208.2986	243.7952	272.7048	322.1678	406.0592	497.336	543.5009	682.7596	731.4922	767.1794	808.9352	849.4491	878.5336	904.8843	918.3769	1027.0181	1052.4958	1068.4397	1073.8397	1113.3325	1137.9377	1164.5199	1183.7859	1229.9425	1260.2641	1281.0009	1322.7541	1339.3997	1353.7886	1383.51	1411.1825	1412.5241	1417.8676	1470.46	1492.6175	1496.1589	1499.0051	1499.5127	1509.6991	1931.9542	3017.4941	3023.6342	3030.5395	3045.8005	3050.0022	3060.7668	3068.9744	3077.0358	3099.1362	3106.0322	3115.9561	3123.652
CCCC1OC(=O)C1C	CCC[C@H]1OC(=O)[C@H]1C	
InChI=1S/C7H12O2/c1-3-4-6-5(2)7(8)9-6/h5-6H,3-4H2,1-2H3	InChI=1S/C7H12O2/c1-3-4-6-5(2)7(8)9-6/h5-6H,3-4H2,1-2H3/t5-,6+/m0/s1
