21
gdb 115955	3.07683	1.30204	1.06347	2.2464	77.92	-0.2419	0.0755	0.3174	1199.1778	0.183871	-424.211697	-424.203287	-424.202343	-424.244975	31.937	
C	-0.0217019235	 1.3516295786	-0.1780072539	-0.236643
O	-0.0628411773	 0.0131451647	 0.26047547	-0.248013
C	-1.3085219942	-0.6230307389	 0.0668221334	 0.141948
C	-1.6803317226	-0.9250967391	-1.4057771691	-0.251847
C	-2.6762813892	-2.0928089946	-1.2956461977	-0.230073
C	-2.1251971366	-2.937361437	-0.1474934841	 0.128711
O	-0.9338674817	-3.6681162427	-0.5261830947	-0.301628
C	-0.1178455514	-2.909898426	 0.3965086892	-0.076555
C	-1.2986938657	-1.9925680331	 0.7639329898	-0.101565
H	 0.9556977076	 1.7530511608	 0.100935952	 0.127063
H	-0.1389620524	 1.4385219984	-1.2678441017	 0.109341
H	-0.804598346	 1.9600676124	 0.3022607389	 0.102352
H	-2.1056273861	-0.0031139362	 0.5140107384	 0.061071
H	-2.0920286828	-0.0603353241	-1.9318828579	 0.094503
H	-0.7786356437	-1.2457462829	-1.9383085994	 0.120526
H	-3.6760175648	-1.728110083	-1.0270374549	 0.095754
H	-2.7706075358	-2.6734863859	-2.2174751516	 0.111983
H	-2.8658453133	-3.5969663218	 0.3180229582	 0.066874
H	 0.2459611346	-3.535524317	 1.2210107164	 0.096188
H	 0.7329573849	-2.4269671961	-0.093993065	 0.114954
H	-1.5454781999	-1.9327888069	 1.8235574536	 0.075057
82.6817	107.6709	173.9024	200.3686	223.8512	318.4576	362.8633	409.2684	501.5409	604.132	621.5115	797.0647	819.6654	852.6718	891.368	906.5293	939.9725	966.9621	1000.4293	1010.9241	1028.0214	1046.9008	1106.5164	1115.9975	1151.0849	1160.8518	1177.0461	1186.9627	1199.2175	1224.952	1234.5155	1278.4192	1302.0683	1313.605	1332.088	1345.0807	1362.4234	1378.0208	1390.8089	1471.003	1480.6529	1489.1431	1497.8171	1510.5325	1530.4561	2941.8776	2975.6638	3019.8209	3027.3409	3028.3232	3046.7256	3054.9941	3081.2483	3095.4595	3106.6204	3112.7168	3113.4126
COC1CCC2OCC12	CO[C@H]1CC[C@H]2OC[C@@H]12	
InChI=1S/C7H12O2/c1-8-6-2-3-7-5(6)4-9-7/h5-7H,2-4H2,1H3	InChI=1S/C7H12O2/c1-8-6-2-3-7-5(6)4-9-7/h5-7H,2-4H2,1H3/t5-,6-,7+/m0/s1
