16
gdb 9605	3.75842	1.40753	1.20081	6.2426	66.28	-0.2665	0.0205	0.287	1013.0733	0.129626	-379.907684	-379.899084	-379.898139	-379.940618	30.739	
C	-0.3347562503	 1.7981630527	 0.4962042836	-0.454976
C	-0.1161769943	 0.3865708607	 0.0029628511	 0.291593
C	-1.3075342079	-0.2161852753	-0.7238433318	-0.150053
O	-0.9387014185	-1.4883008452	-1.2304487651	-0.420612
N	 1.2213360028	 0.0812191191	-0.5017729182	-0.349759
C	 0.7664782877	-0.566491443	 0.7540922443	-0.224484
C	 1.4390704208	-0.1842781932	 1.9707985339	 0.329936
N	 1.9507196488	 0.1105332436	 2.9650842483	-0.34138
H	 0.5472290266	 2.1614360084	 1.0260546553	 0.15747
H	-0.5262191437	 2.4693410312	-0.3477773044	 0.125349
H	-1.1918935974	 1.8482914644	 1.1761753238	 0.125318
H	-2.1583028564	-0.2876302064	-0.0293675451	 0.10921
H	-1.5992594415	 0.4650836243	-1.5388385381	 0.105879
H	-1.6802840562	-1.8567700514	-1.7178354193	 0.30217
H	 1.1465349119	-0.6161248187	-1.2411513639	 0.252041
H	 0.4958630774	-1.6162055114	 0.7023658357	 0.1423
112.2586	136.9945	153.2112	182.1937	219.5254	250.654	337.3035	368.3968	389.8792	511.4128	563.6719	603.2303	713.0865	817.6926	898.8399	954.8954	965.6756	1008.3438	1065.9985	1083.5581	1108.014	1141.3747	1205.3126	1228.4226	1262.6533	1313.0816	1351.4796	1422.9728	1436.5816	1456.0335	1486.804	1495.8713	1518.2783	2357.0379	2975.5841	3009.7628	3039.3728	3101.7032	3141.5002	3169.9011	3491.0128	3849.8566
CC1(CO)NC1C#N	C[C@@]1(CO)N[C@H]1C#N	
InChI=1S/C5H8N2O/c1-5(3-8)4(2-6)7-5/h4,7-8H,3H2,1H3	InChI=1S/C5H8N2O/c1-5(3-8)4(2-6)7-5/h4,7-8H,3H2,1H3/t4-,5-/m0/s1
