13
gdb 24772	3.55945	1.76267	1.17888	5.6278	73.07	-0.2381	-0.0976	0.1405	942.3605	0.092163	-415.656234	-415.650008	-415.649063	-415.686907	24.165	
O	 0.0167800559	-0.0143065315	 0.0024302872	-0.296635
C	 0.0106325715	 1.1915822962	 0.0089491035	 0.300811
C	-1.1925097824	 2.1051607465	 0.0316795459	-0.24241
C	-0.7695455288	 3.3768655592	 0.0322173086	-0.033633
N	 0.645271967	 3.4071169799	 0.0113624301	-0.007794
C	 1.6947903278	 4.2863883922	 0.0003128883	-0.130709
C	 2.8193242867	 3.4840276479	-0.0204430058	-0.091262
N	 2.4810737661	 2.1491062856	-0.022592389	-0.335299
C	 1.1664715346	 2.1423317584	-0.003102783	 0.263452
H	-2.2128018728	 1.7563738001	 0.0449316494	 0.140881
H	-1.3277356029	 4.3020287829	 0.0454213823	 0.159352
H	 1.565325989	 5.3559076742	 0.0078476165	 0.148773
H	 3.8509334283	 3.8006505184	-0.033997914	 0.124473
155.8105	177.1637	309.4227	374.0884	540.7597	611.068	626.2967	693.6294	694.6552	716.1927	756.7418	758.9309	827.7623	855.1315	917.703	936.436	1046.2821	1069.9429	1096.3289	1144.3024	1201.052	1275.3088	1318.054	1384.0698	1440.8863	1471.3011	1552.7744	1629.2204	1820.0428	3241.2759	3254.864	3275.7932	3281.7149
O=C1C=CN2C=CN=C12	O=C1C=Cn2ccnc12	
InChI=1S/C6H4N2O/c9-5-1-3-8-4-2-7-6(5)8/h1-4H	InChI=1S/C6H4N2O/c9-5-1-3-8-4-2-7-6(5)8/h1-4H
