19
gdb 75084	2.9664	1.38459	1.07297	3.3419	82.08	-0.2233	-0.0099	0.2134	1160.5819	0.159918	-385.922475	-385.914317	-385.913373	-385.955164	31.742	
C	 0.186085858	 1.5355032372	 0.0906106127	-0.486552
C	 0.0032595151	 0.0462555497	-0.0221497781	 0.338032
C	-0.0517539965	-0.59041108	-1.1950143966	-0.176531
C	-0.2429552035	-2.0781799394	-1.3411368841	-0.385306
C	-0.7964500664	-2.7749109879	-0.0995258025	 0.40393
O	-1.5084362544	-3.7518512802	-0.1908093675	-0.333778
C	-0.4557125587	-2.1803694144	 1.2204507479	-0.129183
C	 0.9647221931	-1.7532671739	 1.552008417	-0.296295
C	-0.0738524498	-0.7035275854	 1.2648773122	-0.126746
H	 1.0896168388	 1.7819600331	 0.6625480013	 0.127492
H	 0.2637520895	 2.0058953037	-0.8926433871	 0.123996
H	-0.6555267791	 1.9962583173	 0.6235169695	 0.127101
H	 0.057651987	-0.0244433839	-2.1168409745	 0.087151
H	-0.9149426891	-2.3200901951	-2.1703823233	 0.135119
H	 0.713760867	-2.5634223066	-1.5941356518	 0.134583
H	-1.0449316602	-2.5813583883	 2.0368037225	 0.107322
H	 1.283650599	-1.9085021184	 2.576460489	 0.126849
H	 1.7367925094	-1.9091202149	 0.8069487351	 0.128297
H	-0.4457046592	-0.1435342026	 2.117594668	 0.094519
70.9001	181.2647	186.139	248.1643	283.9104	310.2142	434.7222	450.7868	489.2007	562.7783	604.6383	695.8908	737.9653	806.7098	817.7566	833.168	899.2849	949.2758	961.7702	981.9725	1024.8645	1056.5363	1066.0387	1073.8859	1120.0541	1128.0859	1172.6679	1186.3807	1203.7615	1243.3287	1310.6564	1353.0283	1367.8611	1412.8551	1419.4431	1447.8552	1477.846	1482.7564	1491.5757	1736.9681	1794.3338	2984.7958	3017.2059	3063.9197	3077.5758	3116.3792	3138.2986	3152.285	3154.2405	3185.0813	3228.887
CC1=CCC(=O)C2CC12	CC1=CCC(=O)[C@H]2C[C@@H]12	
InChI=1S/C8H10O/c1-5-2-3-8(9)7-4-6(5)7/h2,6-7H,3-4H2,1H3	InChI=1S/C8H10O/c1-5-2-3-8(9)7-4-6(5)7/h2,6-7H,3-4H2,1H3/t6-,7-/m0/s1
