15
gdb 123931	3.50307	1.6315	1.1561	5.3697	66.99	-0.2343	-0.0367	0.1975	993.2885	0.11496	-453.928953	-453.92236	-453.921416	-453.959993	25.739	
C	-0.0093185699	 1.516184308	-0.0192236337	-0.231066
C	 1.426418173	 2.0560145179	 0.0510388886	-0.085202
O	 2.1142829144	 1.6750056243	 1.2583135154	-0.259514
C	 1.9156621727	 0.3738171239	 1.5290163302	 0.316154
C	 0.978085419	-0.4484232889	 0.9878040387	 0.287532
C	-0.0481752099	-0.0321535145	-0.0020325393	-0.344673
O	 1.1301769221	-1.6543629599	 1.5371831186	-0.224159
N	 2.2188774912	-1.5362802505	 2.4668497779	-0.023604
N	 2.6463549291	-0.3466969468	 2.4282284084	-0.207352
H	-0.5738500207	 1.9056630932	 0.8345264129	 0.13098
H	-0.4830477461	 1.9013712506	-0.9268220188	 0.11917
H	 2.0105419496	 1.696170231	-0.8075862175	 0.116917
H	 1.4362779734	 3.1470627107	 0.0468754632	 0.130658
H	-1.0432007713	-0.3946784347	 0.2758859118	 0.139101
H	 0.1722438733	-0.4456441442	-0.9942217564	 0.135057
123.1357	216.8556	301.6988	376.4122	396.1779	458.4312	526.1993	637.3545	657.6976	700.9747	723.9032	732.677	864.7111	880.0523	922.5129	1005.6425	1011.453	1065.6448	1096.8228	1197.5816	1217.9535	1227.4101	1278.5255	1299.2157	1331.1311	1367.5494	1402.6311	1428.3874	1463.3215	1475.5478	1490.8194	1504.4859	1675.9282	3014.4425	3030.0228	3053.5729	3078.0486	3103.8418	3122.9861
C1COC2=C(C1)ON=N2	C1COc2c(C1)onn2	
InChI=1S/C5H6N2O2/c1-2-4-5(8-3-1)6-7-9-4/h1-3H2	InChI=1S/C5H6N2O2/c1-2-4-5(8-3-1)6-7-9-4/h1-3H2
