21
gdb 22318	3.70219	0.78107	0.74877	1.1261	83.75	-0.2282	0.0156	0.2439	1617.9985	0.17979	-420.339951	-420.329467	-420.328523	-420.376598	37.532	
C	 0.7384639205	 1.0446407905	-0.6757139382	-0.412969
C	-0.1605848131	 0.2743704694	 0.2671057653	 0.033077
C	 0.131764892	-1.139713473	 0.6417374146	-0.250889
N	 0.2189565349	-0.0757792491	 1.6384315893	-0.087964
C	 1.5475317895	 0.2733651795	 2.138258309	-0.238596
C	 1.8497482298	-0.5169198142	 3.3890560905	 0.380608
C	 0.9344555877	-0.39326353	 4.5734290628	-0.477172
N	 2.900043384	-1.2435604435	 3.3344559223	-0.17333
O	 3.1367639554	-1.9205192731	 4.5424807183	-0.397865
H	 1.7682188178	 0.67991235	-0.666459145	 0.124805
H	 0.364285244	 0.9500321756	-1.700584777	 0.123275
H	 0.7521238892	 2.1120691292	-0.4282267324	 0.122723
H	-1.2088905046	 0.563759955	 0.1965670065	 0.089516
H	-0.6670633774	-1.8635622196	 0.7811937384	 0.112538
H	 1.0666832076	-1.5626981983	 0.2751854692	 0.113174
H	 2.3621817465	 0.098334898	 1.423065406	 0.104208
H	 1.5367107081	 1.344555346	 2.3838505651	 0.107424
H	-0.0543119167	-0.0699096494	 4.2442693012	 0.142257
H	 0.859537985	-1.3437018043	 5.1051678678	 0.146095
H	 1.3274509533	 0.3447688605	 5.2836753747	 0.134937
H	 3.9195569365	-2.4393984392	 4.3305079219	 0.304149
44.4009	54.8508	70.5376	122.3761	186.3922	227.8108	283.1965	308.5851	353.5232	372.3996	417.8465	442.9676	481.838	536.8275	667.0658	753.7112	820.5804	835.5408	898.4718	938.716	958.4357	984.6461	1035.8801	1042.6529	1053.9655	1086.8392	1115.9053	1147.3667	1164.9557	1188.2565	1253.7763	1284.4672	1333.8718	1361.6807	1393.8463	1401.2525	1406.4591	1421.878	1475.262	1482.0093	1487.6255	1493.8899	1499.9646	1513.5172	1734.8052	2998.0699	3034.9554	3037.0943	3043.3471	3088.5774	3093.1448	3099.0482	3109.0509	3126.0843	3151.2	3174.7309	3822.4742
CC1CN1CC(C)=NO	C[C@H]1CN1CC(=NO)C	
InChI=1S/C6H12N2O/c1-5(7-9)3-8-4-6(8)2/h6,9H,3-4H2,1-2H3	InChI=1S/C6H12N2O/c1-5(7-9)3-8-4-6(8)2/h6,9H,3-4H2,1-2H3/t6-,8?/m0/s1
