17
gdb 48161	3.80178	0.9118	0.79828	2.0487	70.68	-0.2635	-0.0835	0.18	1426.9085	0.13435	-458.983316	-458.974467	-458.973523	-459.018356	30.907	
O	-0.6724860237	 1.1494530762	 0.4983591075	-0.212142
C	 0.3223265231	 0.8824781275	-0.1139123751	 0.090847
C	 1.4811789226	 1.8540075377	-0.367469788	 0.330963
O	 2.4423167871	 1.5157426007	-1.0144549911	-0.345609
O	 1.282303615	 3.0433806326	 0.1944441632	-0.225892
C	 2.3262608834	 4.0153872808	 0.0118520337	 0.166225
C	 2.3330150237	 4.8296889327	-1.3002239727	-0.240524
C	 2.6371692006	 6.0883320039	-0.4372051991	-0.221601
C	 2.1142434647	 5.3126472813	 0.8068000035	-0.255763
H	 0.5200993613	-0.106024589	-0.5752990393	 0.114703
H	 3.2877179659	 3.5339000603	 0.2027059458	 0.108721
H	 3.0431997425	 4.5333943534	-2.0730378234	 0.117747
H	 1.3272666867	 4.8710910803	-1.727661101	 0.115871
H	 3.7088946261	 6.2918015611	-0.3734270536	 0.112883
H	 2.1213679924	 7.0123332771	-0.7016450749	 0.110973
H	 1.0471986572	 5.4855700481	 0.9685821229	 0.124357
H	 2.6433977014	 5.4209354254	 1.7553171614	 0.108241
48.1387	70.1472	108.6889	132.6507	177.4549	243.8794	361.2032	432.762	511.8442	590.5998	610.6936	720.5984	781.0864	803.3712	904.9064	915.186	921.9007	955.4366	970.3961	1029.8416	1072.311	1095.5617	1155.7315	1196.6219	1244.6827	1248.6884	1256.3288	1275.967	1297.5103	1306.6087	1377.5136	1395.5689	1475.6633	1488.151	1509.83	1801.3998	1843.0614	2943.6138	3068.4731	3071.6571	3074.4641	3090.5592	3121.0728	3130.2127	3140.7034
O=CC(=O)OC1CCC1	O=CC(=O)OC1CCC1	
InChI=1S/C6H8O3/c7-4-6(8)9-5-2-1-3-5/h4-5H,1-3H2	InChI=1S/C6H8O3/c7-4-6(8)9-5-2-1-3-5/h4-5H,1-3H2
