15
gdb 124289	4.50008	1.03897	0.84907	3.4287	70.65	-0.2287	-0.0511	0.1776	1291.5367	0.111766	-453.965134	-453.956544	-453.9556	-453.998877	30.94	
C	-0.0788434474	 1.4944752466	-0.0900735481	-0.481501
C	 0.0335311935	-0.012854425	-0.072905223	 0.314721
O	 1.094419173	-0.5987552355	-0.0496996379	-0.298029
C	-1.2369876869	-0.7967986957	-0.0858611992	 0.307907
N	-2.4038308499	-0.1874976538	-0.0997550336	-0.211461
O	-3.3470533472	-1.2214940978	-0.1063419235	-0.212768
C	-2.7056242735	-2.4052995106	-0.0974826279	 0.499308
N	-3.505430253	-3.5158291642	-0.1652822088	-0.595933
C	-1.3534196316	-2.2104688051	-0.0821286955	-0.440993
H	 0.9200100594	 1.9310260292	-0.0726738695	 0.136527
H	-0.6217600195	 1.8215389904	-0.9823346741	 0.154583
H	-0.661098435	 1.8395046673	 0.7699291429	 0.153979
H	-4.4521146849	-3.3739577434	 0.1565507182	 0.270804
H	-3.0889513968	-4.364969184	 0.1842843531	 0.270971
H	-0.5585729702	-2.9344895983	-0.0744457831	 0.131886
59.7787	113.0703	145.5491	163.4487	273.1551	327.8045	334.7908	398.697	515.6094	554.9348	564.8581	610.8031	696.4598	728.6987	741.2115	789.7325	937.6552	949.8877	1007.1005	1017.1096	1048.5087	1069.7192	1123.3495	1232.9771	1366.1595	1386.8502	1457.6409	1466.8308	1482.1762	1526.2101	1619.0632	1673.1907	1791.9579	3050.0936	3113.9796	3160.1861	3298.831	3577.3804	3684.0344
CC(=O)C1=NOC(N)=C1	CC(=O)c1noc(N)c1	
InChI=1S/C5H6N2O2/c1-3(8)4-2-5(6)9-7-4/h2H,6H2,1H3	InChI=1S/C5H6N2O2/c1-3(8)4-2-5(6)9-7-4/h2H,6H2,1H3
