19
gdb 64765	3.5994	1.08898	1.0218	1.0671	82.77	-0.2457	0.0175	0.2632	1239.5693	0.157935	-385.869917	-385.86091	-385.859966	-385.903666	34.573	
O	-0.0188807688	 1.1921659484	-0.2259251831	-0.474266
C	 0.1019476163	-0.206396224	 0.0449509591	 0.355688
C	 0.8418984831	-0.3991784955	 1.395086983	-0.395346
C	 2.1478764718	 0.2496672814	 1.3962510166	 0.266766
C	 3.2077531166	 0.8168643232	 1.341363119	-0.431061
C	-1.3266115126	-0.8015795025	 0.0660775341	-0.25199
C	-1.5345820926	-1.4796564005	-1.3102934838	-0.264354
C	-0.1302536539	-1.6038548551	-1.8480461516	-0.067953
C	 0.7559295835	-0.9372790109	-1.112878806	-0.112164
H	 0.8723361341	 1.5637717533	-0.2181985007	 0.278455
H	 0.2208501836	 0.0262985718	 2.1928754723	 0.135808
H	 0.9530124011	-1.4697730316	 1.6034459239	 0.129802
H	 4.1529992288	 1.3006500905	 1.3226673389	 0.199043
H	-1.4029396038	-1.5477578907	 0.8628547744	 0.099582
H	-2.0514494714	-0.012886278	 0.276184528	 0.117106
H	-2.0396812437	-2.4484568248	-1.2238865446	 0.103465
H	-2.1529252345	-0.8701937635	-1.9821677593	 0.116898
H	 0.0986872085	-2.1557507213	-2.7538714253	 0.095201
H	 1.8184758439	-0.8526420102	-1.3127047548	 0.09932
68.2117	88.215	132.9271	240.9374	306.5943	334.3481	356.0692	385.6257	411.2137	457.7121	507.6367	621.4259	651.556	696.7049	724.1533	774.3454	807.8561	835.3906	900.469	928.6817	944.175	975.2714	989.7612	999.5583	1066.0474	1095.3353	1122.6794	1137.4509	1198.7112	1225.8543	1277.9606	1291.4327	1314.6194	1321.5207	1377.9142	1398.7576	1458.8481	1472.3658	1493.1179	1687.6529	2228.3801	3024.5613	3027.9427	3051.2869	3064.5651	3069.491	3120.1056	3178.4155	3205.2709	3504.3231	3771.9801
OC1(CC#C)CCC=C1	O[C@@]1(CC#C)CCC=C1	
InChI=1S/C8H10O/c1-2-5-8(9)6-3-4-7-8/h1,3,6,9H,4-5,7H2	InChI=1S/C8H10O/c1-2-5-8(9)6-3-4-7-8/h1,3,6,9H,4-5,7H2/t8-/m1/s1
