18
gdb 33925	3.30985	1.32817	1.13126	4.2632	81.9	-0.2461	-0.0026	0.2435	1107.3239	0.150266	-364.835892	-364.828303	-364.827358	-364.867741	30.058	
N	 0.0376268935	-1.1029742248	 0.07596867	-0.348818
C	 0.0180063348	 0.0524899118	 0.0127156644	 0.224891
C	-0.0195345939	 1.4906904064	-0.0563595826	 0.161275
C	 0.5536638527	 2.1216352727	-1.3093192446	-0.315419
C	 1.3329655154	 2.2140235929	-0.015673107	-0.098855
C	 1.3797951782	 3.4935322347	 0.7338468516	-0.044473
C	 0.2833472751	 4.1646770112	 1.0894509466	-0.076669
C	-1.103212407	 3.6660164632	 0.7741343039	-0.289544
C	-1.1767270541	 2.1279846257	 0.7114480406	-0.269239
H	 0.9204555419	 1.4536828456	-2.0796147911	 0.138427
H	 0.0803722323	 3.0252057027	-1.6749917202	 0.131414
H	 2.2120981738	 1.5833627453	 0.0539408244	 0.112935
H	 2.3654166112	 3.8784021456	 0.9781522103	 0.098133
H	 0.3736867056	 5.1097249288	 1.6165022951	 0.096609
H	-1.8145310301	 4.0199499341	 1.5278707503	 0.11372
H	-1.4495172367	 4.096886036	-0.1754980271	 0.119635
H	-2.1296510897	 1.8147698372	 0.273327837	 0.119754
H	-1.1512228932	 1.7305350408	 1.7322172384	 0.126226
126.425	157.5215	206.2994	278.7495	340.3223	405.107	458.0463	541.8752	561.8716	582.9072	640.4878	716.1848	748.9635	809.1851	863.2519	881.5451	930.0267	944.9144	991.68	1009.9961	1023.3555	1057.1677	1076.8432	1089.9103	1122.4371	1189.3604	1208.0872	1239.7019	1273.7009	1288.5153	1354.8663	1367.0189	1407.8908	1424.7151	1476.5325	1489.5297	1502.2579	1713.5249	2346.8212	3013.1543	3041.6811	3066.2695	3084.6174	3146.0753	3160.8577	3174.9096	3185.9345	3238.0658
N#CC12CC1C=CCC2	N#C[C@]12C[C@H]1C=CCC2	
InChI=1S/C8H9N/c9-6-8-4-2-1-3-7(8)5-8/h1,3,7H,2,4-5H2	InChI=1S/C8H9N/c9-6-8-4-2-1-3-7(8)5-8/h1,3,7H,2,4-5H2/t7-,8+/m1/s1
