22
gdb 120859	4.06775	0.61352	0.56362	1.8039	81.66	-0.2489	0.0804	0.3293	2026.3332	0.192064	-441.426928	-441.416165	-441.415221	-441.464115	37.021	
C	-0.4560742035	 1.2986256852	-0.0023992312	-0.224795
O	-0.2922161723	-0.0936034236	-0.1159872253	-0.233795
C	 0.7646905681	-0.4516989023	-0.9816447172	-0.057326
C	 0.8404150422	-1.9557044513	-1.0203609659	-0.03587
N	 0.0940082157	-2.6453225701	-2.0822951891	-0.328502
C	 1.5611718295	-2.7317696826	-2.0644672293	-0.035858
C	 2.3081079368	-2.1134937265	-3.2173414591	-0.057344
O	 2.5185461649	-3.1194288068	-4.1860892023	-0.233803
C	 3.2130941449	-2.6515067175	-5.3160034667	-0.224797
H	 0.4492586625	 1.7874545482	 0.3933873212	 0.100251
H	-0.6982138474	 1.7633957202	-0.9714607199	 0.104944
H	-1.2830176498	 1.4760193045	 0.689565849	 0.126715
H	 0.591463138	-0.0529073744	-1.9926648844	 0.094539
H	 1.7171794318	-0.0312665869	-0.6116521893	 0.081596
H	 0.8263458318	-2.3973027283	-0.0249593847	 0.090848
H	-0.3254541863	-3.5026979844	-1.734594726	 0.234278
H	 2.0077034392	-3.6692837576	-1.7362750809	 0.090853
H	 1.729720154	-1.2791786362	-3.642298659	 0.094557
H	 3.2773022987	-1.7107886424	-2.8718266637	 0.081598
H	 3.3357712254	-3.4961185966	-5.9984262567	 0.126715
H	 2.6600482389	-1.8528077114	-5.8355624814	 0.104946
H	 4.2094412167	-2.2603311792	-5.0523707481	 0.100252
58.179	76.5986	88.0254	93.7304	108.5104	192.1261	232.5106	233.6794	273.5301	325.3608	368.2348	472.7294	487.629	547.3805	822.8782	875.8949	883.2287	972.9309	979.1257	1001.0488	1008.7871	1059.4191	1075.669	1150.9745	1153.7938	1161.8051	1180.7344	1184.2149	1202.2151	1221.4629	1233.5094	1246.8312	1274.3952	1278.1277	1286.0407	1361.5589	1394.0654	1440.1319	1476.7085	1479.1279	1485.5597	1485.5811	1497.4255	1499.7004	1500.9449	1520.7279	1526.7619	2939.979	2944.894	2966.2985	2967.2808	2996.9568	3008.3979	3009.229	3011.567	3112.9939	3113.1291	3115.6507	3126.0801	3514.1043
COCC1NC1COC	COC[C@H]1N[C@H]1COC	
InChI=1S/C6H13NO2/c1-8-3-5-6(7-5)4-9-2/h5-7H,3-4H2,1-2H3	InChI=1S/C6H13NO2/c1-8-3-5-6(7-5)4-9-2/h5-7H,3-4H2,1-2H3/t5-,6+
