17
gdb 32373	4.49343	0.88594	0.77947	4.5947	85.56	-0.2276	-0.0211	0.2065	1451.4223	0.1376	-380.935881	-380.927278	-380.926333	-380.970099	31.362	
C	-0.1623159445	 1.56109461	 0.0277269028	-0.364453
C	 0.1080765531	 0.0489100868	-0.0487448304	-0.300759
C	 0.767191939	-0.5010633135	 1.1847050235	 0.295429
C	 2.0839728322	-0.9106820535	 1.3026345103	-0.16913
N	 2.3050433973	-1.3226402321	 2.5830624969	-0.314856
C	 1.1417401499	-1.1898676422	 3.31230514	 0.237874
C	 0.1749789968	-0.6799436358	 2.4607461091	-0.33546
C	 1.0736605039	-1.5487474632	 4.6746951933	 0.204772
N	 1.0315486679	-1.8472461918	 5.7946630902	-0.350803
H	 0.7704560465	 2.1189851567	 0.1558854654	 0.119433
H	-0.6515868209	 1.9171806974	-0.8843002086	 0.113521
H	-0.8111737273	 1.8028509406	 0.8753828694	 0.122052
H	-0.8388341802	-0.4765115011	-0.2233513121	 0.110852
H	 0.7392610568	-0.164404048	-0.9189023578	 0.101985
H	 2.8723615105	-0.9398718598	 0.5667408264	 0.132268
H	 3.1708369709	-1.6798115728	 2.9493244195	 0.278799
H	-0.845708702	-0.4681522076	 2.739912702	 0.118474
34.5478	105.697	142.4056	193.5295	221.4155	332.5779	390.5378	477.781	519.3222	536.2898	575.9513	654.5204	675.2107	696.3764	776.4867	789.1618	848.4215	949.2121	993.5462	1009.9144	1065.4244	1087.957	1143.6477	1172.1874	1250.9061	1296.789	1324.1297	1364.1566	1409.482	1423.524	1452.4122	1483.9801	1496.5933	1503.4204	1515.3143	1613.2859	2333.4593	3028.0349	3036.1696	3062.9226	3108.2907	3111.2601	3255.9674	3258.0474	3678.9517
CCC1=CNC(=C1)C#N	CCc1c[nH]c(c1)C#N	
InChI=1S/C7H8N2/c1-2-6-3-7(4-8)9-5-6/h3,5,9H,2H2,1H3	InChI=1S/C7H8N2/c1-2-6-3-7(4-8)9-5-6/h3,5,9H,2H2,1H3
