23
gdb 104737	1.84528	1.46183	1.01831	2.2363	81.65	-0.254	0.0758	0.3299	1315.8119	0.202553	-425.418841	-425.407886	-425.406942	-425.454554	40.449	
C	-0.457655874	-0.3648929253	 1.2331574041	-0.386571
C	 1.0252048005	-0.5399626072	 0.8815824982	-0.261656
C	 1.2836325559	-0.7262226888	-0.6076578503	 0.296166
C	 1.2789193364	 0.5869327338	-1.3809647039	-0.129722
O	 2.4313663385	 1.3463093687	-1.0496121484	-0.419458
O	 2.4376983779	-1.5379832384	-0.933690265	-0.34719
C	 1.1325412413	-2.0408779537	-1.2852297211	 0.341012
C	 0.6926055219	-3.2735908746	-0.5161498958	-0.456772
C	 0.8682121719	-2.1667306943	-2.7753698879	-0.459338
H	-0.8998169437	 0.4922351398	 0.7148034115	 0.120747
H	-1.0415685567	-1.2511969344	 0.9645317388	 0.1169
H	-0.5818887767	-0.1952366186	 2.3068052041	 0.118874
H	 1.5903771694	 0.3450407602	 1.1954463575	 0.119521
H	 1.4489080573	-1.3843994007	 1.4298908076	 0.106833
H	 1.2174516192	 0.4184595965	-2.4617267321	 0.08816
H	 0.4158780283	 1.1956805947	-1.0924538919	 0.108759
H	 3.1834616304	 0.7602570548	-1.1993145116	 0.293018
H	 0.8586838329	-3.1837357237	 0.5567376166	 0.128283
H	-0.3708017358	-3.4717063971	-0.6888204217	 0.12073
H	 1.2526027461	-4.1446893083	-0.8733455875	 0.125717
H	 1.2401431665	-3.1332340481	-3.1326248569	 0.123094
H	-0.2060740159	-2.1279904447	-2.9860790697	 0.122
H	 1.3671258983	-1.3882975608	-3.3517764547	 0.130893
70.9031	99.8187	126.5519	142.241	177.4105	200.6204	226.9298	274.3343	324.3805	356.3283	388.7969	406.2026	434.3097	468.9126	499.9015	586.1412	701.8193	730.2353	796.6346	890.2201	907.1999	941.1867	944.961	1000.4031	1008.7609	1052.5896	1064.1408	1088.9828	1148.2921	1165.29	1192.269	1237.5413	1254.7703	1286.1673	1357.23	1366.1397	1405.9422	1412.4104	1415.7138	1429.7883	1449.1376	1473.5747	1482.2512	1496.6371	1499.0252	1504.7784	1507.5709	1513.3656	1521.0719	3034.5407	3037.0017	3038.4882	3043.7449	3051.3709	3082.1184	3090.6253	3093.3562	3099.0469	3108.5182	3112.3471	3150.5043	3153.3627	3785.6853
CCC1(CO)OC1(C)C	CC[C@@]1(CO)OC1(C)C	
InChI=1S/C7H14O2/c1-4-7(5-8)6(2,3)9-7/h8H,4-5H2,1-3H3	InChI=1S/C7H14O2/c1-4-7(5-8)6(2,3)9-7/h8H,4-5H2,1-3H3/t7-/m0/s1
