18
gdb 23470	3.02026	1.33747	1.02706	2.2024	76.19	-0.2181	0.0068	0.2249	1156.7088	0.150442	-435.194945	-435.18707	-435.186126	-435.227379	30.88	
O	-0.0275351594	 1.3217012865	 0.109373612	-0.396297
N	 0.0489089759	-0.0821439603	 0.1123658605	-0.22347
C	-1.0990038503	-0.6341325192	 0.0019280963	 0.415602
C	-2.4513604718	 0.0476596542	-0.040154275	-0.279582
N	-3.3824453533	-0.5508834043	 0.9251201253	-0.289952
C	-3.6348468528	-1.9724396205	 0.6796807069	-0.167296
C	-2.3982440488	-2.8114424585	 0.341083179	-0.049097
N	-1.9520800358	-2.7369759389	-1.0568965783	-0.337504
C	-1.1186656089	-2.1170704579	 0.0036474378	-0.111022
H	 0.895005538	 1.5708934077	 0.2254358703	 0.305847
H	-2.3419751586	 1.1109643616	 0.1716778656	 0.136544
H	-2.8804518823	-0.0583399812	-1.0434851872	 0.136292
H	-2.9936116256	-0.4377743327	 1.8565123656	 0.218933
H	-4.1258720469	-2.3817544305	 1.5680466227	 0.102463
H	-4.3423219318	-2.0605252862	-0.1541465164	 0.119575
H	-2.3174625908	-3.7741657334	 0.8418689401	 0.089437
H	-1.5280104853	-3.6142545974	-1.347332336	 0.235746
H	-0.1747810814	-2.5880373789	 0.2605754309	 0.093782
76.006	178.9226	222.9107	282.2197	337.7151	371.5179	421.777	436.0544	467.6073	577.0287	611.0347	736.5585	763.7012	773.8631	830.0263	871.893	915.05	943.2717	951.5227	974.8307	986.9867	1054.7872	1118.3546	1129.5038	1163.1311	1191.5605	1229.0872	1247.9403	1289.4553	1338.8563	1342.1859	1358.3114	1386.4507	1413.315	1455.0638	1468.8672	1476.9905	1499.3334	1726.8855	3029.0399	3047.4957	3081.9488	3123.4376	3138.4971	3160.318	3502.5912	3507.1285	3825.301
ON=C1CNCC2NC12	ON=C1CNC[C@H]2N[C@@H]12	
InChI=1S/C5H9N3O/c9-8-4-2-6-1-3-5(4)7-3/h3,5-7,9H,1-2H2	InChI=1S/C5H9N3O/c9-8-4-2-6-1-3-5(4)7-3/h3,5-7,9H,1-2H2/t3-,5-/m1/s1
