20
gdb 7461	4.091	1.10536	1.02322	0.1533	84.54	-0.2362	0.0592	0.2954	1268.4172	0.175662	-311.843876	-311.834522	-311.833578	-311.87918	33.598	
C	 0.2012651766	 1.5851178934	-0.2704327458	-0.500525
C	 0.1107733141	 0.1380158914	-0.1339251189	 0.091336
C	 0.0349063608	-1.0597079965	-0.0199914368	-0.007331
C	-0.0617454939	-2.5037345858	 0.122732141	 0.161715
C	 0.887870199	-3.2176876312	-0.8520221192	-0.438374
C	 0.0625323116	-3.0691881898	 1.5842572215	-0.241566
C	-1.1614201708	-3.9832995104	 1.3176534956	-0.218004
C	-1.5106777759	-3.1122316363	 0.0831529335	-0.241567
H	 0.9422964548	 1.8704464026	-1.025677055	 0.144923
H	-0.7592120926	 2.0189413889	-0.5710843429	 0.144797
H	 0.494411066	 2.0580257421	 0.673774146	 0.144768
H	 1.9257280666	-2.9259202604	-0.6644867289	 0.120545
H	 0.8126334974	-4.3047503684	-0.7419918949	 0.10966
H	 0.6440314545	-2.9609936567	-1.8874431341	 0.120548
H	 1.013360119	-3.5474353593	 1.8341424746	 0.096749
H	-0.1500183769	-2.2977803362	 2.3272793897	 0.107105
H	-0.8733777379	-5.00185567	 1.044981451	 0.102798
H	-1.9131713468	-4.0430108387	 2.1072294994	 0.098565
H	-2.2647951605	-2.3556358973	 0.3094253414	 0.10711
H	-1.7906858852	-3.6241514514	-0.8413847473	 0.096747
17.1514	90.5728	109.318	158.4017	260.6309	278.4348	293.196	334.9579	343.3416	486.2831	525.7731	552.0542	693.0761	795.4663	846.8034	874.3503	905.289	920.5741	945.5799	991.2259	1042.9335	1053.5013	1055.1932	1076.4145	1152.0715	1175.6712	1209.6537	1237.4987	1254.9932	1272.2866	1274.3131	1323.0341	1406.619	1414.9969	1474.0017	1479.1254	1479.6366	1483.1583	1490.2077	1498.5252	1506.632	2361.7622	3022.7807	3031.0715	3057.9856	3059.0286	3067.888	3081.7055	3082.3124	3102.035	3102.8275	3108.7983	3117.4665	3128.3141
CC#CC1(C)CCC1	CC#CC1(C)CCC1	
InChI=1S/C8H12/c1-3-5-8(2)6-4-7-8/h4,6-7H2,1-2H3	InChI=1S/C8H12/c1-3-5-8(2)6-4-7-8/h4,6-7H2,1-2H3
