17
gdb 9789	3.025	1.78311	1.34864	5.3377	68.02	-0.2593	0.0274	0.2867	946.7146	0.142481	-360.023277	-360.0148	-360.013856	-360.056012	31.398	
C	-0.1311908539	 1.5317723482	-0.235901004	-0.480518
C	 0.0079436091	 0.0385323611	-0.0238642427	 0.325823
C	 0.8781941658	-0.7379394297	-0.9430249125	-0.290307
N	 1.2793086292	-0.5110119699	 0.457763417	-0.338333
C	-1.2254748235	-0.6540911263	 0.6039473194	-0.181591
N	-1.0961062341	-2.0785515622	 0.8846419941	-0.505754
C	-1.5781453282	 0.0437550711	 1.8590113821	 0.310708
N	-1.8341317401	 0.6179813995	 2.8283050773	-0.33221
H	 0.7589411068	 1.9395320566	-0.7244863653	 0.116994
H	-0.9942470978	 1.7597439721	-0.8717830849	 0.1288
H	-0.2730116698	 2.0533188697	 0.7155625799	 0.156583
H	 0.6568501622	-1.7727703018	-1.1867627407	 0.108421
H	 1.3858397116	-0.1882429452	-1.7311425335	 0.120056
H	 1.9864556426	 0.2158672184	 0.523922941	 0.238524
H	-2.0740231613	-0.5168140686	-0.0785025919	 0.128708
H	-1.1501403243	-2.6074356684	 0.0214460042	 0.237614
H	-0.1785732243	-2.2441633147	 1.2924158906	 0.256483
65.2309	151.181	207.6868	236.5383	254.0786	320.5306	353.5164	359.8346	400.8679	450.1357	555.0557	610.4699	740.4303	818.7591	850.1863	878.8542	932.1717	963.7358	973.1807	1001.0927	1052.0439	1118.772	1129.9946	1147.5912	1207.4737	1259.4049	1288.6846	1324.2359	1370.5515	1407.9245	1420.1968	1485.4512	1499.5659	1510.7981	1661.3097	2358.8833	3031.8418	3038.0815	3098.0881	3110.9532	3113.3973	3194.4536	3489.7502	3512.6781	3586.2722
CC1(CN1)C(N)C#N	C[C@]1(CN1)[C@@H](N)C#N	
InChI=1S/C5H9N3/c1-5(3-8-5)4(7)2-6/h4,8H,3,7H2,1H3	InChI=1S/C5H9N3/c1-5(3-8-5)4(7)2-6/h4,8H,3,7H2,1H3/t4-,5-/m0/s1
