15
gdb 133590	3.14058	1.28478	1.1849	3.5916	57.46	-0.2395	0.0703	0.3098	1037.1388	0.110072	-548.268828	-548.261311	-548.260366	-548.301583	28.305	
F	 0.1283624545	 0.0895096017	-0.1838564368	-0.062075
C	 0.009023618	 1.4074521026	-0.0118443169	 0.274752
F	 1.2476520308	 1.9344176677	-0.0323678383	-0.087911
F	-0.6477986245	 1.8904828428	-1.0855590613	-0.087663
C	-0.7113371333	 1.7904341227	 1.2628830835	-0.13468
C	-2.0042900051	 1.0059027598	 1.6837908283	-0.254053
C	-1.3335410532	 0.7357718126	 3.0385995134	-0.042548
N	-0.1193882417	-0.053964488	 2.7389613865	-0.317928
C	-0.0822714137	 1.4223749172	 2.6122073152	-0.075671
H	-0.9049034682	 2.8636437575	 1.20421961	 0.108667
H	-2.880812938	 1.6528414328	 1.7360608798	 0.113479
H	-2.2321991965	 0.11118572	 1.1021767904	 0.12831
H	-1.8032959548	 0.6936096006	 4.0125853259	 0.101187
H	 0.3241896647	-0.2783154025	 3.6294185275	 0.233118
H	 0.6260645609	 2.0144522925	 3.1769883229	 0.103016
53.1104	150.5567	171.8696	286.4344	362.1947	387.47	474.6912	523.5844	576.1487	690.6	703.4127	788.9935	819.0306	838.0923	909.7962	948.7952	978.9349	1001.8158	1018.4421	1049.3026	1098.1993	1123.0463	1150.2245	1165.5779	1188.0473	1214.2305	1253.631	1288.5707	1306.6666	1326.279	1386.1628	1403.4072	1477.5448	3083.4546	3096.3186	3144.637	3194.2696	3207.3929	3475.3058
FC(F)(F)C1CC2NC12	FC(F)(F)[C@H]1C[C@H]2N[C@@H]12	
InChI=1S/C5H6F3N/c6-5(7,8)2-1-3-4(2)9-3/h2-4,9H,1H2	InChI=1S/C5H6F3N/c6-5(7,8)2-1-3-4(2)9-3/h2-4,9H,1H2/t2-,3+,4-/m0/s1
