15
gdb 16685	3.00922	2.28566	1.87571	3.8582	60.62	-0.2281	-0.0101	0.2181	759.9941	0.120153	-399.779328	-399.772755	-399.77181	-399.809897	25.741	
O	-0.0155066535	 1.4962838214	 0.0824251079	-0.427422
C	 0.018115826	 0.0991956264	-0.0134293477	 0.129408
C	-1.3431099445	-0.6168880432	-0.1797374509	-0.048415
C	-1.9802591572	 0.0901494414	-1.386737436	-0.313588
C	-0.7249088952	 0.0928003957	-2.2821161472	 0.484001
O	-0.564730464	 0.5473442503	-3.3791252319	-0.330551
C	 0.2806982715	-0.6256840409	-1.3765520085	-0.194842
N	-0.6176108752	-1.7463978263	-0.882447621	-0.331363
H	 0.8849825393	 1.8364618154	 0.0692433845	 0.29347
H	 0.6155770312	-0.3653889865	 0.7836235363	 0.077253
H	-1.9799654642	-0.8676238186	 0.6672241009	 0.082066
H	-2.7915491844	-0.4895466731	-1.8322040524	 0.133173
H	-2.3166623687	 1.1080524312	-1.1812177993	 0.139586
H	 1.2619344653	-0.863096759	-1.7826278002	 0.08375
H	-0.0900578464	-2.2651813643	-0.1779433544	 0.223474
123.9153	243.292	252.7971	336.1382	437.5519	461.4248	551.4709	628.3047	655.2103	763.1878	807.2123	829.8469	850.7537	907.6656	952.6374	976.4804	981.8404	1057.8133	1105.3779	1118.3671	1137.3885	1166.8198	1176.3124	1193.7769	1248.0233	1275.6451	1285.1508	1336.8026	1368.6582	1413.7593	1444.2805	1887.7556	3007.6554	3082.596	3130.5206	3140.2391	3147.918	3437.3384	3819.3032
OC1C2CC(=O)C1N2	O[C@H]1[C@H]2CC(=O)[C@@H]1N2	
InChI=1S/C5H7NO2/c7-3-1-2-5(8)4(3)6-2/h2,4-6,8H,1H2	InChI=1S/C5H7NO2/c7-3-1-2-5(8)4(3)6-2/h2,4-6,8H,1H2/t2-,4+,5+/m1/s1
