18
gdb 78674	2.43264	1.75654	1.40422	1.289	71.35	-0.1936	0.0682	0.2617	989.7731	0.14648	-438.998068	-438.989733	-438.988789	-439.030313	32.657	
C	 0.0097755273	 1.5337696361	-0.1394493508	-0.333257
N	 0.0272221784	 0.092139054	 0.0946759128	-0.06642
C	-0.8948033719	-0.5129712518	 1.0423237184	-0.102279
C	 0.0677908394	-1.6004143609	 1.4050218632	-0.150255
C	 1.1207069001	-0.5610330192	 0.8647637671	-0.109112
C	 1.1449930521	 0.022352534	 2.327333716	 0.062767
O	 1.291762923	 1.4012724441	 2.585154969	-0.438753
C	-0.2448158648	-0.5608441659	 2.4610833659	 0.320649
O	-0.9607578554	-0.7824325244	 3.616909565	-0.458557
H	 0.8977422333	 1.8061025387	-0.7205180638	 0.109766
H	-0.8668455603	 1.77005673	-0.7534014997	 0.110711
H	-0.0106673838	 2.146706095	 0.7687792764	 0.1227
H	-1.9691251548	-0.5606065885	 0.9076216699	 0.097104
H	 0.0110201668	-2.6775243531	 1.3961158286	 0.106111
H	 2.0474902549	-0.7736651059	 0.3327783106	 0.071173
H	 1.8425349407	-0.5729099498	 2.9328407526	 0.080417
H	 2.2285223658	 1.6203662565	 2.5703718339	 0.283594
H	-1.4154490809	 0.0350861111	 3.8478431948	 0.293644
159.5609	176.3089	225.3541	241.2182	257.5755	290.9616	314.7527	369.1378	415.5052	580.1797	602.8056	663.2312	719.2351	742.1586	787.68	839.7388	869.1239	918.5111	938.6133	963.7147	999.7569	1036.7754	1099.2679	1110.4893	1124.4292	1158.282	1163.0025	1200.3106	1215.9775	1234.111	1257.4355	1281.9139	1312.0303	1335.0661	1405.5003	1448.3599	1473.1341	1485.1845	1510.5968	3013.0069	3016.4117	3082.0032	3090.5244	3117.7656	3185.7441	3243.4947	3799.3879	3821.8545
CN1C2C3C1C(O)C23O	CN1[C@H]2[C@H]3[C@@H]1[C@@H](O)[C@@]23O	
InChI=1S/C6H9NO2/c1-7-3-2-4(7)6(2,9)5(3)8/h2-5,8-9H,1H3	InChI=1S/C6H9NO2/c1-7-3-2-4(7)6(2,9)5(3)8/h2-5,8-9H,1H3/t2-,3-,4+,5-,6+/m1/s1
