13
gdb 14810	2.54909	2.23272	1.32996	2.4913	63.5	-0.2785	-0.0031	0.2754	882.1625	0.094581	-361.410349	-361.402816	-361.401872	-361.44289	26.485	
C	-0.1647834576	-1.2201369525	-0.1640508218	-0.442091
C	-0.0987243923	-0.0279641861	-0.033107429	 0.368063
C	-0.0153362133	 1.4121449792	 0.1135325909	-0.075021
O	-0.0801050848	 1.8666795848	 1.4861012081	-0.262397
C	 1.279827323	 2.3347782	 1.4715905915	-0.075713
C	 1.4033986177	 2.0717953432	-0.0520328033	-0.230387
C	 2.5082007701	 1.2567363869	-0.5164537349	 0.296343
N	 3.400040269	 0.6174814787	-0.8790707107	-0.317705
H	-0.2173809068	-2.2751449564	-0.2794957201	 0.214869
H	-0.7857584068	 1.9014124976	-0.4930578006	 0.122994
H	 1.361776487	 3.3819012808	 1.7772493037	 0.12539
H	 1.9393698618	 1.7143394928	 2.0876121572	 0.133152
H	 1.3488734031	 2.9859394411	-0.6458793011	 0.142502
55.032	102.1827	199.5908	205.1256	264.2219	434.0554	506.8972	545.4168	600.1777	650.4769	690.6072	739.6272	820.5584	905.2473	964.3574	1017.5992	1048.6008	1067.4059	1113.1854	1164.1188	1203.4107	1253.1902	1335.5823	1349.2548	1371.0567	1525.0442	2240.5979	2362.502	3039.3293	3044.3236	3090.9543	3106.0648	3500.4381
C#CC1OCC1C#N	C#C[C@H]1OC[C@H]1C#N	
InChI=1S/C6H5NO/c1-2-6-5(3-7)4-8-6/h1,5-6H,4H2	InChI=1S/C6H5NO/c1-2-6-5(3-7)4-8-6/h1,5-6H,4H2/t5-,6-/m1/s1
