23
gdb 95906	2.18463	1.45233	1.16043	0.7057	90.68	-0.2527	0.0607	0.3134	1215.211	0.205255	-351.147251	-351.137425	-351.13648	-351.181213	38.19	
C	-0.6957511354	 1.2088767287	 0.060073973	-0.424479
C	 0.0038887287	-0.1421410024	-0.0612313835	 0.044406
C	 1.0756571789	-0.2228573606	-1.1698729554	-0.232974
C	 2.0430758138	-1.3650192475	-0.7513977325	-0.226017
C	 1.55552386	-1.8427992411	 0.637457127	-0.229566
C	 0.7472177041	-0.6499404295	 1.2198641778	 0.088764
C	 1.6999626376	 0.4117797745	 1.8154773532	-0.429312
C	-0.1983662398	-1.0791970852	 2.2470650064	 0.282952
C	-0.9829513067	-1.4249556005	 3.0911720665	-0.452948
H	 0.0196763812	 2.0231604673	 0.2155841915	 0.113588
H	-1.2561688048	 1.4361112878	-0.8528509585	 0.111951
H	-1.402875469	 1.2114850552	 0.8958801555	 0.124687
H	-0.7608507766	-0.9002690287	-0.2732466496	 0.078668
H	 0.6180238511	-0.3992366143	-2.1474935137	 0.097493
H	 1.6104693132	 0.7301465886	-1.2476108573	 0.09731
H	 2.0427526757	-2.1887231529	-1.4701214618	 0.100115
H	 3.0730887517	-1.0002548728	-0.7006761184	 0.101582
H	 0.8855805043	-2.7015751241	 0.5322772946	 0.106294
H	 2.3702441638	-2.1485517138	 1.299650119	 0.098084
H	 2.4132116714	 0.7678728604	 1.0662818742	 0.114716
H	 1.1471036129	 1.272691231	 2.1985452678	 0.126072
H	 2.2663538324	-0.0179650131	 2.6463586681	 0.122459
H	-1.6733002184	-1.7351250867	 3.8358516461	 0.186154
104.4523	121.5302	140.4556	196.9833	225.3739	241.4711	285.1631	316.3559	354.828	461.0944	487.5249	535.761	559.3756	619.757	624.4061	624.9409	689.817	784.9685	848.0411	885.3477	910.1014	930.9374	962.7495	974.8818	1019.775	1040.9814	1077.9848	1097.493	1139.5486	1176.5943	1190.9676	1236.231	1250.663	1263.3582	1302.511	1327.341	1330.6345	1358.6535	1380.9279	1407.7253	1412.4346	1485.8693	1486.5519	1494.2656	1497.5282	1505.2508	1512.1376	1517.7217	2228.0442	3018.2419	3031.9556	3040.9971	3045.8142	3051.565	3060.2579	3076.3207	3091.7058	3097.7727	3103.9354	3107.3888	3115.5107	3125.4266	3502.029
CC1CCCC1(C)C#C	C[C@H]1CCC[C@]1(C)C#C	
InChI=1S/C9H14/c1-4-9(3)7-5-6-8(9)2/h1,8H,5-7H2,2-3H3	InChI=1S/C9H14/c1-4-9(3)7-5-6-8(9)2/h1,8H,5-7H2,2-3H3/t8-,9-/m0/s1
