18
gdb 76992	3.09634	1.25729	1.06022	4.267	74.5	-0.2306	0.0293	0.2598	1159.1392	0.146063	-439.067481	-439.058576	-439.057632	-439.101068	33.163	
C	-0.1674437212	 1.4775255787	-0.0676020058	-0.417764
C	-0.0076119504	-0.0293174839	 0.0370771073	-0.021402
N	 0.9877572774	-0.6789884464	-0.8494155855	-0.043047
C	 1.3061916979	-0.465471207	-2.1453825888	 0.132489
O	 0.6781557228	 0.2375004657	-2.9130776728	-0.34061
C	 1.681981388	-1.3429760285	 0.235668527	-0.084813
C	 2.2256275205	-0.3207353734	 1.2134797365	-0.360191
C	 0.7555679991	-0.6630421969	 1.2274332697	 0.354984
O	 0.1222963264	-1.2370778546	 2.3072741839	-0.455949
H	 0.7793447478	 1.995933033	 0.1108056037	 0.116228
H	-0.519482835	 1.749309366	-1.0645814526	 0.162204
H	-0.8967478438	 1.8235868613	 0.6724100741	 0.115881
H	-0.9778007731	-0.5290118102	-0.0706273256	 0.107665
H	 2.2068526901	-1.041625053	-2.4437047728	 0.069928
H	 2.0181273281	-2.3697029653	 0.1665189779	 0.124442
H	 2.7718502545	-0.7540506089	 2.0462880405	 0.125102
H	 2.5996553677	 0.6354378551	 0.8595117027	 0.121276
H	 0.1446037032	-0.6153306916	 3.0428515903	 0.293577
58.7975	170.3296	185.838	216.4207	236.8266	259.8539	286.5232	364.0035	386.2907	474.4112	536.8943	541.9098	661.7294	733.2459	798.6781	840.4371	915.2189	934.5186	969.467	1021.0515	1029.8446	1065.8885	1075.0183	1111.1438	1137.05	1168.0556	1210.7136	1240.0052	1271.9231	1318.7715	1374.2417	1401.937	1407.6198	1417.7502	1452.6207	1485.4183	1492.3298	1503.883	1782.9513	2916.4265	3040.7109	3042.4271	3110.1582	3117.1828	3139.7898	3197.6241	3211.0324	3799.191
CC1N(C=O)C2CC12O	C[C@H]1N(C=O)[C@H]2C[C@@]12O	
InChI=1S/C6H9NO2/c1-4-6(9)2-5(6)7(4)3-8/h3-5,9H,2H2,1H3	InChI=1S/C6H9NO2/c1-4-6(9)2-5(6)7(4)3-8/h3-5,9H,2H2,1H3/t4-,5+,6-/m1/s1
