17
gdb 68175	3.53447	1.42836	1.22046	3.948	67.88	-0.2635	0.0134	0.2769	1015.3067	0.137114	-458.990848	-458.983397	-458.982453	-459.022489	29.484	
O	-0.0090329143	 1.4305992922	-0.0407630538	-0.474328
C	 0.0063395577	 0.0339708052	 0.0417834252	 0.369122
C	 0.2338025012	-0.6975141777	 1.3919087373	-0.299332
C	-0.700052978	-1.7935880666	 0.7957247432	-0.155818
C	-1.3630102015	-0.6639093141	-0.0498252858	-0.266818
C	 0.1130106866	-2.686269029	-0.1170489019	 0.435844
O	 0.0955620613	-3.8842901456	-0.1169807617	-0.334209
O	 0.9237591241	-2.0221721564	-0.992595971	-0.238349
C	 0.9327297364	-0.5856192677	-1.0093427669	-0.121782
H	 0.8855406624	 1.7629695943	 0.0969137896	 0.283736
H	 1.2522875767	-0.9779621803	 1.6738940186	 0.109513
H	-0.2557913748	-0.1683493917	 2.2122503712	 0.117362
H	-1.3116642374	-2.4012091395	 1.4580082619	 0.103718
H	-2.1145372565	-0.1272734586	 0.5326940258	 0.120588
H	-1.755843019	-0.9095696598	-1.0392859904	 0.11602
H	 0.6291754564	-0.2590764322	-2.0098652702	 0.127853
H	 1.9703469587	-0.2682417225	-0.8402711312	 0.106879
122.6205	195.8118	259.4724	299.7961	340.7987	419.1265	427.8472	436.8928	481.874	610.3364	691.229	743.0894	764.9743	863.6094	893.9687	920.0505	953.6915	960.9206	990.6405	1035.1732	1058.5753	1090.4017	1111.7088	1158.4926	1187.0493	1217.4151	1236.4659	1245.858	1280.001	1284.993	1329.5937	1374.3769	1417.9495	1476.3581	1504.8689	1518.5395	1862.1879	3017.5909	3059.5254	3068.494	3074.3834	3124.624	3130.5583	3149.815	3794.5362
OC12CC(C1)C(=O)OC2	O[C@@]12C[C@@H](C1)C(=O)OC2	
InChI=1S/C6H8O3/c7-5-4-1-6(8,2-4)3-9-5/h4,8H,1-3H2	InChI=1S/C6H8O3/c7-5-4-1-6(8,2-4)3-9-5/h4,8H,1-3H2/t4-,6-
