16
gdb 42476	4.50116	0.84099	0.78264	3.094	71.31	-0.2661	-0.0909	0.1752	1436.6904	0.121735	-437.868856	-437.859768	-437.858823	-437.904111	31.671	
O	 0.6418026787	 0.0109019518	-0.0004557273	-0.247536
C	 0.3903336295	 1.1842814313	-0.0509382798	 0.289475
C	 1.3140389471	 2.2836878809	-0.567348629	-0.188695
O	 2.5376465168	 1.8167668285	-1.0397003285	-0.225715
C	 3.5701852209	 1.7893921047	-0.0864771492	 0.124375
C	 3.7441475646	 0.5952072195	 0.8148861003	-0.29674
C	 4.6814523637	 0.8312462685	-0.3531079171	-0.285062
C	-0.9292533465	 1.698561505	 0.3895113082	 0.212332
N	-1.9458595488	 2.129666576	 0.7327965953	-0.285969
H	 0.7847574	 2.7761233824	-1.3963428976	 0.154866
H	 1.4159047113	 3.0406742761	 0.2277497974	 0.135584
H	 3.814575642	 2.7763514086	 0.3066660552	 0.093136
H	 4.1104640614	 0.7641171647	 1.8217365737	 0.115705
H	 3.022372956	-0.2044813684	 0.7101681418	 0.150156
H	 4.5601124658	 0.1861063362	-1.215430502	 0.134831
H	 5.6981472275	 1.1550050441	-0.1630858314	 0.119255
46.2238	50.7408	105.1707	149.6303	244.4686	257.7964	282.5725	393.6324	421.472	535.5902	570.6365	589.3723	748.1168	809.4011	816.1615	837.472	957.2805	975.1917	1030.4457	1049.4791	1060.4257	1080.7751	1122.0713	1142.407	1196.2616	1198.0119	1245.4134	1305.203	1374.3505	1405.003	1447.8599	1454.5188	1497.3808	1815.9096	2335.3405	2980.8687	3032.8789	3100.38	3143.2987	3146.7166	3231.4133	3248.2205
O=C(COC1CC1)C#N	O=C(COC1CC1)C#N	
InChI=1S/C6H7NO2/c7-3-5(8)4-9-6-1-2-6/h6H,1-2,4H2	InChI=1S/C6H7NO2/c7-3-5(8)4-9-6-1-2-6/h6H,1-2,4H2
