19
gdb 47554	2.48517	1.70418	1.15823	3.1466	74.76	-0.2586	-0.0069	0.2517	1080.6473	0.160789	-423.047854	-423.040053	-423.039109	-423.080356	30.487	
O	 0.1026131854	-0.0453602267	-0.1399720941	-0.294782
C	 0.0074443583	 1.1403006327	-0.0175229993	 0.406516
C	-1.2786162258	 1.9271317492	 0.0808967391	-0.287901
C	-1.5236862699	 2.8277985204	-1.1548241335	-0.206168
C	-0.4226137557	 3.8703570259	-1.4233664598	-0.218158
C	 0.850939829	 3.2884367049	-2.0245157933	-0.036673
C	 2.2014565604	 3.6330021137	-1.4212856568	-0.33378
C	 1.6269373396	 2.2673071015	-1.2331272765	 0.102912
O	 1.128139502	 1.9616213145	 0.0524414352	-0.256311
H	-2.1041657778	 1.2225107224	 0.2050712948	 0.123144
H	-1.2192235658	 2.5587027023	 0.9751004154	 0.125921
H	-1.661829598	 2.1971035443	-2.0415567758	 0.11203
H	-2.475790741	 3.3449150226	-0.9924742495	 0.105994
H	-0.8132113674	 4.63298886	-2.1064688706	 0.103712
H	-0.1900556644	 4.3908144017	-0.4876590994	 0.105954
H	 0.8203878272	 3.1316473032	-3.0994051784	 0.091632
H	 3.0638014292	 3.7377846393	-2.0701003192	 0.119075
H	 2.2002896269	 4.2854227834	-0.5549454239	 0.127298
H	 2.0786090877	 1.4182552349	-1.7391400543	 0.109586
67.9651	142.8001	235.7904	269.3736	301.2452	368.596	425.4261	472.7329	590.2027	606.6605	711.4971	753.7124	803.9204	818.3994	857.9151	878.3155	898.7025	946.5259	981.1176	1036.1621	1053.6711	1063.2247	1089.0348	1106.3326	1133.015	1147.066	1172.0336	1214.3009	1231.4168	1237.3785	1288.1166	1343.6287	1355.5438	1380.5749	1382.3544	1410.0411	1469.8079	1475.6919	1490.5886	1491.2825	1857.1701	3030.843	3035.3283	3042.5718	3071.355	3077.1734	3112.603	3136.07	3138.2022	3148.229	3226.4021
O=C1CCCC2CC2O1	O=C1CCC[C@H]2C[C@H]2O1	
InChI=1S/C7H10O2/c8-7-3-1-2-5-4-6(5)9-7/h5-6H,1-4H2	InChI=1S/C7H10O2/c8-7-3-1-2-5-4-6(5)9-7/h5-6H,1-4H2/t5-,6+/m0/s1
