18
gdb 54612	2.50118	1.43209	0.92758	1.6802	77.43	-0.2376	-0.03	0.2076	1228.606	0.146944	-439.13085	-439.121446	-439.120502	-439.165692	33.456	
C	 0.0690069293	 1.5103499541	 0.0268158079	-0.509575
C	-0.0256076096	 0.0238305111	-0.0584958546	 0.184042
C	-1.101461099	-0.7770075485	-0.0497911597	 0.108173
C	-0.6524414001	-2.2170533253	-0.1671850965	-0.179472
O	 0.7655326138	-2.17491224	-0.2410758909	-0.266019
C	 1.2101901698	-0.8274521509	-0.1745047194	-0.139385
C	-2.5222283707	-0.3545404982	 0.0461320461	 0.318443
N	-3.4244948385	-1.3883048287	 0.1092192614	-0.534804
O	-2.894961209	 0.8080672448	 0.0412371139	-0.369615
H	 0.6894826721	 1.8038524797	 0.8831783097	 0.127823
H	 0.5662744397	 1.9099281629	-0.8663318298	 0.130921
H	-0.9181237633	 1.9589917178	 0.1175291464	 0.179798
H	-0.9548078933	-2.8270563263	 0.7022559041	 0.096659
H	-1.0584903359	-2.7095808049	-1.0652103769	 0.112299
H	 1.7937657851	-0.5751018492	-1.0749860498	 0.110622
H	 1.8810667845	-0.6895167689	 0.689450785	 0.109253
H	-3.1433257767	-2.3277780592	 0.3319227551	 0.260248
H	-4.3828877281	-1.1338526303	 0.2887952081	 0.26059
46.5283	99.919	128.4746	158.835	210.0283	240.6942	281.909	310.1226	411.7255	463.3478	477.9102	574.6568	624.3843	664.2	776.3173	817.6632	939.2243	959.722	961.1643	1050.757	1063.2556	1080.3247	1095.5529	1131.5116	1155.0827	1180.5495	1233.0306	1270.2705	1344.0936	1382.3518	1397.0337	1406.0293	1471.0891	1496.6951	1512.293	1534.2326	1620.5344	1713.3015	1767.1915	2941.4633	2966.3886	2978.265	2982.604	3021.6589	3064.8995	3174.2022	3594.0814	3725.5358
CC1=C(COC1)C(N)=O	CC1=C(COC1)C(=O)N	
InChI=1S/C6H9NO2/c1-4-2-9-3-5(4)6(7)8/h2-3H2,1H3,(H2,7,8)	InChI=1S/C6H9NO2/c1-4-2-9-3-5(4)6(7)8/h2-3H2,1H3,(H2,7,8)
