23
gdb 109774	1.9478	1.36467	0.96343	2.3953	82.47	-0.2332	0.0651	0.2983	1353.6797	0.203028	-425.39814	-425.387302	-425.386358	-425.434007	39.563	
C	-0.1650218394	 1.0659346728	 0.2628610027	-0.241637
O	 0.6853789976	-0.0627283353	 0.1882334853	-0.253432
C	 0.8911006406	-0.5478687174	-1.1050490719	 0.02953
C	 1.4713827382	-1.9312432377	-1.1162796042	 0.062487
O	 1.6759931381	-2.5576663594	 0.1154352637	-0.428354
C	 0.0559996641	-1.7136476299	-1.6269118706	-0.086394
C	-1.1405817562	-2.2764162744	-0.8760082958	 0.029427
C	-2.4549664906	-1.6750978399	-1.3963725743	-0.397528
C	-1.1644977672	-3.810496671	-0.9688329855	-0.387658
H	 0.2355884703	 1.9025720554	-0.3275363137	 0.113529
H	-1.1774680746	 0.8384963406	-0.0935026176	 0.124634
H	-0.2113807097	 1.3633267665	 1.3129597549	 0.130986
H	 1.2533454764	 0.2034533654	-1.8073831577	 0.086066
H	 2.2527002318	-2.1685343702	-1.8335038151	 0.094457
H	 1.5369863376	-1.8843066442	 0.7941136501	 0.299454
H	-0.0443141803	-1.7410044652	-2.7113260834	 0.077155
H	-1.0326079352	-2.0071652376	 0.1804184337	 0.076266
H	-2.6190209505	-1.9451526982	-2.4465835204	 0.110222
H	-3.310183292	-2.0480436341	-0.8228591306	 0.109636
H	-2.458718834	-0.5821067187	-1.3346632389	 0.1091
H	-0.2548466216	-4.2337683077	-0.5371118016	 0.13692
H	-2.0274082588	-4.2209714394	-0.4329468981	 0.101695
H	-1.2364912544	-4.1389853705	-2.0127662712	 0.103435
57.9064	99.4216	127.8933	151.5219	181.3042	206.6302	232.3567	261.4769	274.2339	338.0431	357.6846	375.2621	421.5602	589.1088	609.769	645.2154	766.5342	777.3342	865.4545	916.7723	932.5044	963.1218	1003.7847	1035.0565	1069.2084	1104.6769	1123.1529	1138.6623	1162.3483	1181.8939	1182.506	1195.4116	1231.4152	1255.033	1297.8347	1336.3291	1346.153	1377.0967	1395.7541	1399.6629	1419.6608	1450.2354	1482.697	1485.0608	1488.1706	1492.2052	1503.7995	1507.188	1515.3127	2997.343	3023.4753	3027.5232	3044.6164	3058.2343	3084.8151	3090.847	3093.0746	3099.5522	3113.6367	3122.4144	3128.5194	3139.5886	3764.1302
COC1C(O)C1C(C)C	CO[C@H]1[C@@H](O)[C@H]1C(C)C	
InChI=1S/C7H14O2/c1-4(2)5-6(8)7(5)9-3/h4-8H,1-3H3	InChI=1S/C7H14O2/c1-4(2)5-6(8)7(5)9-3/h4-8H,1-3H3/t5-,6+,7-/m1/s1
