17
gdb 86470	2.3111	1.30735	0.9685	5.0718	77.71	-0.3237	-0.0088	0.3149	1242.3072	0.135744	-380.889028	-380.88018	-380.879236	-380.922772	32.341	
C	 0.1349740381	 1.6243812142	 0.0410034842	-0.416493
C	 0.0742000541	 0.106597566	 0.0191317112	 0.040099
C	 1.0522426003	-0.6598176766	-0.91130765	-0.262149
C	 1.2538005966	-1.7363227616	 0.2246232948	-0.010476
C	 0.656262553	-0.6747810061	 1.2275714534	-0.262148
C	 0.3679429772	-2.8871449351	 0.0525687012	 0.271768
N	-0.3663140897	-3.7677199635	-0.0895226439	-0.324445
C	 2.6252856457	-2.1670380971	 0.4755190873	 0.252398
N	 3.7263782088	-2.4527966266	 0.6773699892	-0.325929
H	 1.1549094776	 1.9760461262	 0.2322788448	 0.121908
H	-0.1918425479	 2.0453718647	-0.9155811152	 0.129451
H	-0.513660597	 2.0332053218	 0.8228171184	 0.129451
H	-0.9503355644	-0.2274980744	-0.1728833598	 0.104784
H	 0.6848640576	-1.0384642142	-1.8651494149	 0.140191
H	 1.985808477	-0.114598781	-1.0675860017	 0.1357
H	 1.4706469316	-0.1340652135	 1.7150512324	 0.1357
H	-0.0272763585	-1.0653741934	 1.9814718886	 0.140191
69.9334	131.9436	170.4928	175.2089	238.6756	246.9802	315.9519	394.9426	478.2477	502.4868	508.7276	595.3268	596.4679	711.7448	838.6792	853.1866	903.7989	931.5669	960.8088	972.9696	1064.9687	1077.9845	1139.5126	1149.9731	1212.109	1247.8855	1270.5387	1295.0362	1298.2966	1381.3299	1417.249	1471.8195	1491.7777	1495.5133	1498.5951	2359.2775	2363.9044	3030.5667	3057.3602	3078.5876	3083.1878	3101.4929	3102.8718	3147.7145	3149.1912
CC1CC(C1)(C#N)C#N	CC1CC(C1)(C#N)C#N	
InChI=1S/C7H8N2/c1-6-2-7(3-6,4-8)5-9/h6H,2-3H2,1H3	InChI=1S/C7H8N2/c1-6-2-7(3-6,4-8)5-9/h6H,2-3H2,1H3
