23
gdb 122746	6.70243	0.37939	0.37122	1.2408	93.45	-0.24	0.0382	0.2781	2965.6758	0.203028	-388.26514	-388.253309	-388.252365	-388.30519	40.187	
C	 0.0425683836	 1.5529594431	 0.1734469124	-0.379369
C	-0.0079585785	 0.0233425548	 0.216154157	-0.170198
C	-1.4037184025	-0.54193341	-0.0682254158	-0.156257
C	-1.4583646081	-2.0714888481	-0.0261214331	-0.16976
C	-2.8689760698	-2.6238791597	-0.3141873782	-0.361436
C	-2.9422679367	-4.079683849	-0.2743674814	 0.020585
C	-2.9762162191	-5.2822794237	-0.2280684047	 0.148469
C	-3.0234336555	-6.7378886448	-0.1996190303	-0.216261
O	-3.3314983394	-7.1848255563	 1.1169856288	-0.410072
H	 1.0506046758	 1.9258033805	 0.3801785279	 0.111383
H	-0.2572639715	 1.9319257722	-0.8100439444	 0.11305
H	-0.6334608351	 1.9923787245	 0.9154692893	 0.11364
H	 0.7034120059	-0.3880382845	-0.5121292148	 0.095308
H	 0.3300218717	-0.3279310792	 1.1999760436	 0.096551
H	-2.1168022037	-0.130919801	 0.6604610953	 0.092759
H	-1.7434282773	-0.1908900226	-1.0530915207	 0.091375
H	-0.7562950832	-2.4911882885	-0.7566688818	 0.104152
H	-1.1309318411	-2.4312839385	 0.956530087	 0.10885
H	-3.5787641927	-2.2061692057	 0.4126429179	 0.129219
H	-3.2056966788	-2.2683357637	-1.2976036848	 0.124992
H	-3.7775175786	-7.0891467776	-0.9233305684	 0.113016
H	-2.0524496934	-7.1377316341	-0.5359374352	 0.112474
H	-3.3543931421	-8.1469512981	 1.0931902245	 0.287533
12.0505	45.0365	62.9755	100.1274	122.4101	153.1678	165.6789	228.3102	247.36	270.236	329.2396	355.7207	393.7639	506.4692	565.6951	731.9355	755.1921	774.0824	842.3261	903.5977	970.3029	1003.4668	1028.5877	1033.8137	1046.9961	1068.5406	1127.4599	1132.3032	1154.1608	1230.7489	1246.8335	1255.9718	1261.4715	1293.6018	1325.2093	1332.7138	1333.5749	1380.9923	1399.8147	1413.3537	1459.8405	1469.7501	1483.988	1489.2577	1499.9375	1502.349	1504.2829	1513.5006	2371.8992	2958.1935	2974.8231	2999.6069	3009.3575	3015.2412	3024.7989	3028.4519	3033.1044	3035.7726	3050.14	3077.707	3094.9015	3100.8401	3816.1332
CCCCCC#CCO	CCCCCC#CCO	
InChI=1S/C8H14O/c1-2-3-4-5-6-7-8-9/h9H,2-5,8H2,1H3	InChI=1S/C8H14O/c1-2-3-4-5-6-7-8-9/h9H,2-5,8H2,1H3
