18
gdb 82951	2.20959	1.82031	1.50114	2.4384	70.5	-0.2179	0.0615	0.2794	971.0994	0.148129	-439.025788	-439.017953	-439.017009	-439.057524	31.507	
O	 0.0799060432	 1.3904624241	-0.1569073006	-0.409968
C	-0.0356688445	 0.0030779572	-0.0268600566	-0.00005
C	-0.4631820812	-0.6837611666	 1.2564558993	-0.15471
C	-1.2033677794	 0.1165448791	 2.3324049669	-0.187662
N	-2.585228619	 0.396822809	 1.8641896782	-0.096127
C	-2.7152328892	 1.4264306379	 0.8218499457	-0.262571
C	-2.657413838	-0.0121466034	 0.4497346158	-0.105806
C	-1.3664416516	-0.6997788449	 0.0369775619	 0.35715
O	-1.5109247503	-1.881672089	-0.6927444728	-0.463311
H	 0.862854113	 1.6662877436	 0.3328533485	 0.291766
H	 0.7037563262	-0.5591745132	-0.5997514317	 0.094738
H	 0.0844176579	-1.5724439371	 1.5521367898	 0.098887
H	-1.2704381229	-0.4846711602	 3.2438991274	 0.114816
H	-0.6960448921	 1.0524914632	 2.5955694193	 0.097651
H	-3.6757336481	 1.9367396404	 0.8251000557	 0.105265
H	-1.8606756705	 2.0460733317	 0.5832310905	 0.14098
H	-3.5489298634	-0.5477654314	 0.133127057	 0.0925
H	-1.6225003803	-1.6470922205	-1.6207329042	 0.286449
151.7554	228.828	246.9178	275.6239	290.7074	331.1974	367.1172	412.5119	547.9488	559.7261	628.727	664.1085	701.2235	785.1524	831.814	840.0788	896.0926	939.1324	980.3165	1019.9901	1035.4388	1064.8732	1092.7601	1101.9155	1126.1347	1149.4183	1169.5913	1206.6789	1234.1707	1255.2347	1273.2456	1295.4245	1325.7398	1334.2916	1351.6838	1385.7818	1472.4679	1496.2331	1513.6119	3033.262	3077.2737	3087.5295	3112.2976	3138.7045	3167.5503	3230.7632	3793.584	3796.3772
OC1C2CN3CC3C12O	O[C@H]1[C@H]2CN3C[C@H]3[C@@]12O	
InChI=1S/C6H9NO2/c8-5-3-1-7-2-4(7)6(3,5)9/h3-5,8-9H,1-2H2	InChI=1S/C6H9NO2/c8-5-3-1-7-2-4(7)6(3,5)9/h3-5,8-9H,1-2H2/t3-,4+,5+,6-,7?/m1/s1
