18
gdb 112363	2.25691	1.36041	0.8942	2.724	73.29	-0.2455	-0.0376	0.2079	1287.7037	0.147013	-439.157814	-439.148844	-439.1479	-439.192413	32.629	
C	-0.1227316077	 1.5826991124	 0.0597447965	-0.399896
C	-0.0598930686	 0.0547541642	 0.0018011528	-0.165263
C	 0.7178173363	-0.4786633308	-1.2105339601	-0.088214
N	 2.1418298667	-0.1968625279	-1.1989432268	-0.31716
C	 2.9919237224	-1.2696971088	-1.288128279	 0.408236
O	 4.1999097221	-1.2117265148	-1.3123782408	-0.368933
C	 2.1232830839	-2.5249842609	-1.3548778614	-0.461155
C	 0.6918625987	-2.019558875	-1.2695315498	 0.397978
O	-0.3143253221	-2.6759190555	-1.2343719651	-0.305854
H	 0.8743235945	 2.0263755047	 0.1575144208	 0.115717
H	-0.5877780209	 1.9957665824	-0.8422274357	 0.121834
H	-0.7102952942	 1.9152282879	 0.9201852138	 0.127905
H	 0.4001298086	-0.3384576613	 0.9163170425	 0.105519
H	-1.0686385828	-0.3672805871	-0.0561411915	 0.129168
H	 0.2432523843	-0.0977840699	-2.1287992824	 0.110758
H	 2.5227499518	 0.7364824081	-1.1897839284	 0.256372
H	 2.2956144597	-3.064429773	-2.2917875069	 0.166595
H	 2.3553583872	-3.2187110946	-0.5416270885	 0.166391
54.4825	81.7035	100.9086	168.7469	235.7128	303.6925	405.1776	411.6904	445.8035	525.1025	572.5406	582.05	612.7481	673.2021	775.2122	802.067	871.3377	922.8993	942.99	1011.815	1066.3226	1095.9787	1134.7777	1149.9996	1161.3366	1237.0788	1253.4135	1283.0467	1302.5165	1362.4932	1386.0219	1411.8153	1414.2327	1434.1379	1480.8482	1498.7489	1505.9431	1828.4388	1866.637	2980.2321	3031.0398	3038.2904	3068.7101	3079.7994	3102.9469	3109.9591	3110.1625	3636.3261
CCC1NC(=O)CC1=O	CC[C@H]1NC(=O)CC1=O	
InChI=1S/C6H9NO2/c1-2-4-5(8)3-6(9)7-4/h4H,2-3H2,1H3,(H,7,9)	InChI=1S/C6H9NO2/c1-2-4-5(8)3-6(9)7-4/h4H,2-3H2,1H3,(H,7,9)/t4-/m1/s1
