20
gdb 32420	2.82434	1.21269	0.91426	0.7813	82.52	-0.1746	0.058	0.2325	1317.4731	0.169891	-403.194383	-403.184234	-403.18329	-403.22955	36.804	
C	-0.1117925997	 1.5587519029	-0.0072601784	-0.363821
C	 0.0715442618	 0.0306473583	-0.0145936534	-0.298258
C	 0.758672418	-0.5029041606	 1.2091932787	 0.216753
C	 2.0650948896	-0.9139984632	 1.2881449723	-0.200551
N	 2.3113044004	-1.3149741312	 2.5897336112	-0.305437
C	 1.1710857922	-1.1632234976	 3.3206814556	 0.311824
O	 1.2115767905	-1.5237047959	 4.6319574063	-0.437737
C	 0.1722978298	-0.6631775284	 2.5171452572	 0.049391
C	-1.2377159847	-0.368125629	 2.9320805271	-0.523407
H	 0.8569705923	 2.0636343628	 0.0599780588	 0.11537
H	-0.6140190144	 1.9005028917	-0.9187309709	 0.10365
H	-0.7125571066	 1.8836005725	 0.848252401	 0.115908
H	-0.9125554696	-0.4442181926	-0.1272333787	 0.094868
H	 0.6475944226	-0.2564997772	-0.9022079467	 0.095688
H	 2.8368609657	-0.9632850615	 0.5374586395	 0.110628
H	 3.174353776	-1.6746528238	 2.9564814921	 0.262078
H	 0.3690416447	-1.2887290264	 5.0324342998	 0.303284
H	-1.4334778446	 0.7040638643	 3.0637855856	 0.125604
H	-1.9601695838	-0.7353592177	 2.1940527838	 0.129397
H	-1.4926625401	-0.8573314773	 3.8810435091	 0.094764
54.2363	109.0132	117.9658	174.9439	194.2875	226.1371	257.2278	286.9019	300.9995	355.3706	447.9825	493.4563	562.2564	635.3014	678.7773	692.1458	707.6966	755.589	793.6732	937.9036	966.7218	1053.6106	1056.6352	1083.7223	1084.5303	1132.0586	1168.9697	1230.0767	1261.7322	1302.0099	1354.3773	1373.9366	1403.8321	1412.5743	1423.452	1475.2279	1484.6355	1496.0481	1501.755	1506.5245	1555.4034	1580.0832	1652.8305	3005.5524	3011.4767	3031.6855	3051.7207	3052.0804	3071.4535	3100.1423	3107.9303	3264.2754	3692.4535	3842.0286
CCC1=CNC(O)=C1C	CCc1c[nH]c(O)c1C	
InChI=1S/C7H11NO/c1-3-6-4-8-7(9)5(6)2/h4,8-9H,3H2,1-2H3	InChI=1S/C7H11NO/c1-3-6-4-8-7(9)5(6)2/h4,8-9H,3H2,1-2H3
