17
gdb 27153	2.94398	1.3467	0.98937	2.1727	77.27	-0.2166	0.0062	0.2228	1190.371	0.135758	-421.834704	-421.826442	-421.825498	-421.868359	30.113	
C	-0.3845430718	 1.5258169956	 0.1388303751	-0.510224
C	-0.0897087758	 0.0606090969	 0.0407267908	 0.145455
C	 0.2250657995	-0.6651532181	-1.0742269525	 0.303391
O	 0.4166097797	-1.9786557598	-0.7472425691	-0.184502
C	 0.2176748116	-2.0886456067	 0.5893585841	-0.016584
C	-0.0890465997	-0.8816807517	 1.1266191227	-0.25715
C	 0.3838890529	-0.2952916377	-2.4846218702	-0.049885
C	 1.0618782645	-1.1558238784	-3.4667380302	-0.177393
O	-0.3589667324	-1.0459011547	-3.4664761293	-0.234032
H	 0.345495389	 2.0390000747	 0.7752623559	 0.132654
H	-0.3701647798	 2.0110368948	-0.8401619354	 0.128721
H	-1.3727940776	 1.7006950484	 0.5785210501	 0.135302
H	 0.3277745867	-3.0793082616	 0.9990235078	 0.135928
H	-0.2966583063	-0.6738891118	 2.1652099407	 0.111248
H	 0.3831955975	 0.7787671043	-2.6610234044	 0.097424
H	 1.5724722798	-0.6995145973	-4.3145026903	 0.112744
H	 1.4552512822	-2.1164932769	-3.141283766	 0.126902
55.892	97.5002	151.2231	175.556	256.4065	281.4697	428.8922	475.9021	608.1957	622.3632	694.3485	724.3331	758.2107	818.5469	825.7095	898.7291	920.5435	982.6978	993.5382	1061.4241	1068.8869	1092.1887	1117.7309	1159.5071	1162.9658	1192.6751	1255.362	1278.8763	1301.0978	1399.3321	1420.4579	1449.459	1481.7116	1495.5503	1515.3578	1551.005	1665.294	3031.1308	3080.8865	3083.5024	3115.5795	3131.5892	3178.2556	3248.8262	3282.32
CC1=C(OC=C1)C1CO1	Cc1c(occ1)[C@H]1CO1	
InChI=1S/C7H8O2/c1-5-2-3-8-7(5)6-4-9-6/h2-3,6H,4H2,1H3	InChI=1S/C7H8O2/c1-5-2-3-8-7(5)6-4-9-6/h2-3,6H,4H2,1H3/t6-/m1/s1
