19
gdb 38573	2.7552	2.13699	1.97686	1.838	75.58	-0.2331	0.0828	0.3159	833.463	0.164526	-385.889085	-385.883337	-385.882392	-385.918743	25.817	
C	 0.0060161878	 1.5787474894	 0.1089738427	-0.250776
C	 1.4900982366	 1.9124671467	 0.0042391129	-0.060971
C	 2.3807213607	 1.0644673672	 0.8788813372	-0.047327
C	 1.7167741905	 0.127301378	 1.884530222	-0.234482
C	 0.71912696	-0.7532151386	 1.1298378185	 0.09054
O	 1.4457914794	-1.512686651	 0.1252853518	-0.308039
C	 1.2237280914	-0.4138229463	-0.8001420174	 0.095989
C	 2.2229082088	 0.7183828515	-0.5912348731	-0.07637
C	-0.0081170022	 0.0548848795	 0.0147085064	-0.07101
H	-0.4503271591	 1.9495176539	 1.0354584353	 0.099842
H	-0.5514056236	 2.021203987	-0.7247047401	 0.100474
H	 1.7924036087	 2.9272499577	-0.2307583337	 0.078559
H	 3.3292934693	 1.4991457494	 1.1765114681	 0.082807
H	 2.4603586262	-0.5186234203	 2.363216669	 0.108747
H	 1.2135231408	 0.693217005	 2.6798289611	 0.093985
H	 0.1298416556	-1.4012696454	 1.7848008324	 0.069005
H	 1.1314626965	-0.7561576149	-1.8331967102	 0.071239
H	 3.0613328892	 0.8396178767	-1.2660274827	 0.080142
H	-0.9577359766	-0.3920884556	-0.2788859101	 0.077645
282.2648	368.716	394.5359	466.723	556.3306	626.7898	655.289	696.652	770.6629	786.5192	815.2281	868.6356	875.4348	893.9768	922.5004	931.1917	960.2502	983.9098	1018.167	1034.8999	1043.8198	1058.3533	1069.2955	1094.7247	1104.3006	1122.3418	1151.309	1201.1049	1233.8795	1247.0345	1267.379	1301.4791	1305.0379	1320.9829	1335.3463	1347.4559	1372.6778	1378.3752	1426.0061	1476.1767	1495.8402	3018.1716	3027.0818	3061.8453	3066.2834	3072.898	3085.3789	3116.1425	3155.8867	3166.6024	3186.7289
C1C2C3CC4OC(C23)C14	C1[C@H]2[C@H]3C[C@@H]4O[C@H]([C@@H]23)[C@H]14	
InChI=1S/C8H10O/c1-3-4-2-6-5(1)8(9-6)7(3)4/h3-8H,1-2H2	InChI=1S/C8H10O/c1-3-4-2-6-5(1)8(9-6)7(3)4/h3-8H,1-2H2/t3-,4+,5+,6-,7-,8-/m0/s1
