16
gdb 19731	4.12298	2.60134	2.31954	1.397	67.7	-0.2391	0.0072	0.2463	667.9221	0.134017	-346.579887	-346.574718	-346.573774	-346.608705	22.719	
C	-0.0405142178	 1.5709480132	 0.0690806954	-0.244141
C	 1.4886476284	 1.3794553502	 0.0106051392	 0.086353
O	 1.7681236393	 0.7764880497	 1.261849104	-0.278541
C	 0.9048892991	-0.4218542381	 1.1669783749	 0.04964
C	 1.8030671423	-1.4729972839	 0.5569606962	-0.086099
C	 2.0342951121	-1.0945723476	-0.7089153944	-0.079789
C	 1.2158497	 0.1214343322	-0.9760663744	-0.085176
C	-0.008550773	 0.02815623	-0.0061406951	-0.062684
H	-0.4381952051	 2.0527999491	 0.9645595562	 0.098952
H	-0.4618069155	 2.0114652147	-0.8376579605	 0.098094
H	 2.2108304059	 2.1626997965	-0.2121100562	 0.082046
H	 0.457312004	-0.6173650398	 2.1403249144	 0.074107
H	 2.2929332023	-2.2628850756	 1.1113884902	 0.100205
H	 2.7477884843	-1.5291088618	-1.3982143796	 0.100233
H	 1.010893644	 0.4131962965	-2.004655229	 0.071781
H	-0.8706186301	-0.5977849653	-0.2346977714	 0.07502
367.716	397.2424	461.3544	527.4577	641.1479	694.0475	749.3516	777.8045	800.8672	827.1934	874.3961	891.6499	904.9289	937.3924	938.0617	962.1962	978.7212	1008.8905	1024.34	1063.0319	1086.6443	1110.6555	1129.0754	1169.9891	1207.6182	1225.1622	1245.8922	1268.8778	1280.2875	1307.5084	1334.2461	1364.0359	1489.6466	1627.246	3066.7662	3122.0999	3129.083	3130.8962	3134.0917	3143.4974	3199.2184	3226.1569
C1C2OC3C=CC2C13	C1[C@H]2O[C@@H]3C=C[C@H]2[C@H]13	
InChI=1S/C7H8O/c1-2-6-5-3-7(8-6)4(1)5/h1-2,4-7H,3H2	InChI=1S/C7H8O/c1-2-6-5-3-7(8-6)4(1)5/h1-2,4-7H,3H2/t4-,5-,6+,7+/m0/s1
