12
gdb 21894	7.65737	1.28548	1.1007	1.2553	60.83	-0.2397	-0.0676	0.1722	970.5012	0.085275	-414.694059	-414.687388	-414.686444	-414.724961	24.399	
O	 0.0741760441	 1.3356123137	 0.0207228019	-0.425389
C	 0.066909469	-0.0086459672	 0.0786109027	 0.454788
N	 0.0987956484	-0.7566793209	-1.0251437721	-0.308789
N	 0.0793034134	-2.01947851	-0.5700277113	-0.246218
C	 0.0361579562	-2.0932716901	 0.7836203395	 0.31892
C	 0.0093721233	-3.3818157568	 1.4650943946	 0.086586
O	 0.0238727918	-4.4430798818	 0.8774285955	-0.291128
C	 0.0266722139	-0.7841903725	 1.2509795263	-0.410189
H	 0.1046724353	 1.584565813	-0.9118045957	 0.308798
H	 0.0962445653	-2.801309059	-1.2043696584	 0.291839
H	-0.0252596689	-3.3244706543	 2.571931571	 0.091911
H	-0.0043058718	-0.4463067541	 2.2730246861	 0.12887
117.775	174.6399	263.1724	357.6158	391.3196	406.0828	509.2468	540.4066	679.8843	708.1024	714.5653	797.6108	809.5429	1004.6507	1029.2477	1048.2134	1156.7927	1184.8805	1245.0311	1332.9556	1386.442	1453.9041	1493.3034	1567.7695	1604.4756	1778.0486	2929.3506	3281.2034	3669.8696	3795.1029
OC1=NNC(C=O)=C1	Oc1n[nH]c(C=O)c1	
InChI=1S/C4H4N2O2/c7-2-3-1-4(8)6-5-3/h1-2H,(H2,5,6,8)	InChI=1S/C4H4N2O2/c7-2-3-1-4(8)6-5-3/h1-2H,(H2,5,6,8)
