19
gdb 102418	3.37207	0.78732	0.68488	4.705	77.59	-0.2266	-0.0122	0.2144	1652.6962	0.155774	-456.340725	-456.329573	-456.328629	-456.380342	36.228	
C	-0.2632194568	 1.249110199	 0.2013975672	-0.333915
N	 0.8646294482	 0.3241120342	 0.0913391391	-0.329392
C	 0.9900852176	-0.478800155	-1.0324911378	 0.430368
O	 0.8831254894	 0.1738770864	-2.2285439854	-0.245962
C	 1.7607142632	 1.2849954168	-2.4419910942	-0.247351
N	 1.185720321	-1.7287427158	-0.9260320206	-0.338785
C	 1.5153194544	-2.5090284403	-2.0975924194	-0.241134
C	 2.6650742457	-3.4578079183	-1.7916952149	 0.156891
O	 3.3655288558	-3.9624890715	-2.6301193953	-0.245341
H	-0.0723177454	 1.9544557374	 1.0143358572	 0.13079
H	-0.3730568021	 1.8144613161	-0.7245631991	 0.145478
H	-1.2159099425	 0.7369198026	 0.3973574843	 0.125918
H	 0.9916557966	-0.2461336632	 0.9173768093	 0.247389
H	 2.8071177075	 0.9630770958	-2.3993559163	 0.132996
H	 1.5360840404	 1.6554976985	-3.4434760051	 0.140051
H	 1.6048977896	 2.0826423673	-1.7106923963	 0.131936
H	 0.6584880207	-3.1510409944	-2.3611794082	 0.132281
H	 1.7560984413	-1.927327465	-2.9952997039	 0.125609
H	 2.8003928553	-3.6617518805	-0.7058026204	 0.082174
13.0524	44.9103	61.4983	91.8516	108.0503	114.4107	163.3537	249.9127	277.4486	294.8189	376.3724	421.1928	590.4217	621.9604	705.781	771.5025	788.039	825.6395	1035.4198	1039.9818	1066.308	1100.3076	1105.7585	1151.7845	1176.8248	1180.6808	1210.7404	1234.2516	1317.3227	1335.1686	1403.6561	1453.2637	1459.6576	1464.4921	1484.1337	1487.7432	1489.9876	1505.134	1525.9014	1757.818	1837.2004	2887.3705	2978.9336	3005.5459	3033.5257	3055.5428	3093.2633	3105.5639	3142.4892	3148.0513	3582.768
CNC(OC)=NCC=O	CNC(=NCC=O)OC	
InChI=1S/C5H10N2O2/c1-6-5(9-2)7-3-4-8/h4H,3H2,1-2H3,(H,6,7)	InChI=1S/C5H10N2O2/c1-6-5(9-2)7-3-4-8/h4H,3H2,1-2H3,(H,6,7)
