15
gdb 26758	3.16361	1.54463	1.06165	1.5659	69.38	-0.1767	0.0282	0.2049	1065.4307	0.113481	-453.937193	-453.929205	-453.92826	-453.969587	29.463	
O	-0.2549746637	 1.2992100859	-0.0363461875	-0.453234
C	 0.0806146966	-0.0179074693	-0.0900560418	 0.212407
C	 0.2267431864	-0.7405716693	-1.2560014636	 0.221533
O	 0.0874462356	-0.4167348989	-2.5666223125	-0.442674
N	 0.7470227393	-1.9457365222	-0.8346570865	-0.055055
C	 0.6002631126	-3.4278423753	-0.8625566121	-0.172262
C	 0.7994667958	-3.4098809346	 0.6982985052	-0.344589
C	 0.7630390052	-1.9027762537	 0.5315518283	 0.300745
N	 0.3689132889	-0.75870472	 1.0385036679	-0.414498
H	-0.2924364073	 1.534161691	 0.8977840091	 0.303481
H	-0.0154708845	 0.5402622171	-2.6201004188	 0.312005
H	-0.3978712297	-3.7481414047	-1.1696692562	 0.13812
H	 1.3600387854	-3.9278021518	-1.466223304	 0.131026
H	-0.0337695902	-3.8397990767	 1.2586786172	 0.134278
H	 1.7370249096	-3.8416168074	 1.0568642052	 0.128718
123.2056	175.8391	196.2599	242.6841	251.7487	284.6063	316.8457	371.8754	581.6795	618.695	656.0732	691.8505	697.3878	802.0089	834.4431	882.2923	960.3904	1036.1812	1079.3974	1116.9892	1136.8905	1180.1403	1212.9722	1246.0761	1270.5088	1326.5274	1342.6117	1409.9931	1480.9672	1499.5273	1516.9484	1572.8323	1675.2645	3067.7347	3072.064	3114.8892	3132.7037	3814.5243	3818.6256
OC1=C(O)N2CCC2=N1	Oc1c(O)n2CCc2n1	
InChI=1S/C5H6N2O2/c8-4-5(9)7-2-1-3(7)6-4/h8-9H,1-2H2	InChI=1S/C5H6N2O2/c8-4-5(9)7-2-1-3(7)6-4/h8-9H,1-2H2
