15
gdb 14324	4.61686	1.89299	1.59513	4.3573	61.7	-0.2525	0.0563	0.3089	809.5745	0.120773	-399.810866	-399.804458	-399.803514	-399.842226	24.177	
N	 0.0037159986	 1.3266535157	-0.1450539156	-0.568262
C	 0.0288824104	 0.0770914476	-0.0186051845	 0.482343
O	 1.1201373922	-0.737560183	-0.1539245603	-0.261896
C	 0.7577824057	-2.0978123066	 0.0769037788	 0.074556
C	 1.1025234134	-2.6136651786	 1.4953091659	-0.248386
C	-0.3857783467	-2.4096205509	 1.9234670229	-0.255186
C	-0.7379102778	-2.0071841471	 0.4654572354	 0.091186
O	-1.0828717024	-0.6429197509	 0.275070993	-0.233084
H	 0.9303567315	 1.6715356496	-0.3830673074	 0.231436
H	 1.0697614052	-2.6970660276	-0.7803699036	 0.098374
H	 1.4273030435	-3.6564681834	 1.502431668	 0.115357
H	 1.8456973015	-2.0090103986	 2.0175479444	 0.125262
H	-0.8951843909	-3.3035129945	 2.2879883753	 0.115266
H	-0.5556660744	-1.5951177107	 2.6298088085	 0.130703
H	-1.4638591397	-2.6285893109	-0.0597515009	 0.102331
50.3679	108.9586	343.45	408.2717	474.8857	657.9639	699.9364	714.0335	741.0234	768.4056	803.3181	859.5965	898.4385	919.5234	954.2004	963.0918	1010.8621	1037.1917	1103.281	1135.4983	1155.1815	1208.7025	1224.5191	1240.9812	1264.3222	1293.9602	1303.4831	1357.5994	1396.0642	1465.5487	1482.8072	1798.8716	3074.521	3080.4084	3093.2946	3110.2666	3126.9212	3143.5551	3539.7142
N=C1OC2CCC2O1	[NH][C]1O[C@H]2CC[C@H]2O1	
InChI=1S/C5H7NO2/c6-5-7-3-1-2-4(3)8-5/h3-4,6H,1-2H2	InChI=1S/C5H7NO2/c6-5-7-3-1-2-4(3)8-5/h3-4,6H,1-2H2/t3-,4+
