16
gdb 73345	2.45723	1.98201	1.5522	3.212	67.23	-0.2432	-0.0083	0.235	899.9911	0.124996	-437.873498	-437.86616	-437.865215	-437.905131	28.586	
O	 0.1970626304	 1.3753506658	-0.2260519543	-0.484374
C	 0.0913729985	-0.0031384978	-0.1351711655	 0.285758
C	 0.8336024932	-0.7501569061	-1.2531908722	-0.249334
C	 0.3686631544	-2.2153678458	-1.1016145111	-0.255175
C	-0.8857921105	-2.1257162625	-0.2357117034	-0.014133
C	-1.2886859929	-0.743227996	-0.0057865801	-0.118522
N	-0.7506133086	-1.5973848075	 1.1734137897	-0.208594
C	 0.348309005	-0.6591892249	 1.2237856109	 0.340465
O	 1.0143446959	-0.3489423758	 2.1671383573	-0.33012
H	 0.3254108515	 1.7276594322	 0.6630143582	 0.301107
H	 0.5268803349	-0.3226632269	-2.2132750162	 0.120095
H	 1.914603888	-0.6244841519	-1.1569195544	 0.123688
H	 0.1239995853	-2.6715170608	-2.0648829427	 0.118131
H	 1.1249122432	-2.8477032116	-0.6260287427	 0.12673
H	-1.6134938352	-2.9294988384	-0.2657550288	 0.117979
H	-2.2733972831	-0.3007363319	 0.0515872954	 0.126297
111.8236	173.8385	204.2154	300.0639	359.8208	371.9399	493.1659	526.405	642.3393	679.5784	702.5	727.6898	806.5448	838.2777	864.5586	902.3994	921.3746	964.3772	1000.4227	1029.9862	1077.3162	1094.0633	1105.2152	1174.0376	1210.3566	1226.7901	1256.0751	1277.6312	1313.7474	1360.7583	1376.2761	1392.0415	1483.9952	1501.0043	1887.0249	3054.0057	3059.3272	3094.8531	3115.5777	3174.4353	3222.7145	3788.3855
OC12CCC3C1N3C2=O	O[C@]12CC[C@@H]3[C@H]1N3C2=O	
InChI=1S/C6H7NO2/c8-5-6(9)2-1-3-4(6)7(3)5/h3-4,9H,1-2H2	InChI=1S/C6H7NO2/c8-5-6(9)2-1-3-4(6)7(3)5/h3-4,9H,1-2H2/t3-,4-,6-,7?/m1/s1
