16
gdb 7096	3.04787	1.30226	0.97209	1.2866	66.97	-0.2662	0.0129	0.2791	1182.456	0.129751	-379.976036	-379.967016	-379.966072	-380.011578	30.658	
C	-0.2211318592	 1.2962449069	 0.4222574906	-0.374637
C	 0.1144356473	-0.1444353766	 0.0337407442	-0.151383
N	-1.0232853146	-1.0438039512	 0.176655816	-0.324836
C	-1.6505149929	-1.600562239	-0.8849527543	 0.435676
O	-1.3341988468	-1.4445098969	-2.0475393709	-0.370267
C	-2.8603619884	-2.5130519705	-0.5618862693	-0.456696
C	-3.2015281426	-2.6440042415	 0.8477563839	 0.265727
N	-3.4245581712	-2.7086788608	 1.9806173609	-0.313165
H	 0.6630764457	 1.9320044949	 0.3152402932	 0.125427
H	-1.0126760446	 1.6966022975	-0.2175103612	 0.134106
H	-0.5566529251	 1.3613742368	 1.462789436	 0.120258
H	 0.4194902761	-0.2038654901	-1.0127365914	 0.15391
H	 0.9415866289	-0.5214243785	 0.6466579447	 0.115414
H	-1.3829399475	-1.2230405448	 1.1021381845	 0.269018
H	-3.7162732532	-2.1178488013	-1.1173678849	 0.185532
H	-2.6404182918	-3.498141825	-0.984827692	 0.185917
24.3076	50.2439	101.4702	135.3747	219.2265	303.3686	358.2306	375.725	432.6234	500.3846	507.257	632.9225	659.1084	778.7659	891.3752	932.5242	947.0949	975.1541	1077.9982	1123.8286	1177.6021	1214.6636	1253.9498	1298.2662	1321.7423	1392.7761	1413.0389	1439.8212	1486.5572	1492.7856	1503.0808	1564.3129	1794.1085	2354.5796	3037.4542	3038.6642	3068.0779	3101.6472	3108.1941	3118.894	3130.6554	3616.2755
CCNC(=O)CC#N	CCNC(=O)CC#N	
InChI=1S/C5H8N2O/c1-2-7-5(8)3-4-6/h2-3H2,1H3,(H,7,8)	InChI=1S/C5H8N2O/c1-2-7-5(8)3-4-6/h2-3H2,1H3,(H,7,8)
