16
gdb 22807	2.7711	1.4225	1.0116	1.44	70.01	-0.2422	-0.0607	0.1815	1134.4662	0.124192	-474.988407	-474.980306	-474.979362	-475.021538	30.073	
O	 0.0182115814	 1.3276007839	 0.0360602046	-0.358056
N	 0.0320454821	-0.0529294351	 0.0072209229	-0.171715
C	-1.1267037776	-0.5951973363	 0.0111629267	 0.267825
C	-1.1614942086	-2.1121960873	-0.0207337279	-0.16864
O	-2.0880151792	-2.5920459139	-0.9771685084	-0.232442
C	-3.4035808228	-2.157876446	-0.6878649487	-0.093799
C	-3.5206259602	-0.630484306	-0.8133610658	-0.312185
C	-2.4701717899	 0.0969343121	 0.0167171871	 0.312316
O	-2.6954530212	 1.1181711522	 0.6198930546	-0.287638
H	 0.9562950658	 1.5430966065	-0.0226188542	 0.314865
H	-0.1752997584	-2.4971286888	-0.2857580999	 0.135226
H	-1.4266119235	-2.494619364	 0.9807072001	 0.106494
H	-4.0626717057	-2.6552614328	-1.4038762269	 0.121103
H	-3.6982766663	-2.4795542019	 0.3249786636	 0.100619
H	-3.3452146351	-0.3579142788	-1.8628333799	 0.140126
H	-4.5117184609	-0.2677287437	-0.527996288	 0.1259
53.9925	127.3587	213.7227	267.6129	281.0838	371.8705	407.9655	436.8794	455.9123	511.7249	556.0311	665.8923	686.7568	743.2174	873.7028	920.3589	984.5082	990.026	1037.958	1089.2194	1098.4337	1159.2485	1213.058	1228.994	1267.2105	1305.6704	1339.6779	1371.5295	1407.7644	1421.0889	1449.4307	1485.6653	1507.629	1699.8582	1807.6981	2951.7259	2971.3979	3029.4259	3096.0037	3106.6159	3118.6876	3801.575
ON=C1COCCC1=O	ON=C1COCCC1=O	
InChI=1S/C5H7NO3/c7-5-1-2-9-3-4(5)6-8/h8H,1-3H2	InChI=1S/C5H7NO3/c7-5-1-2-9-3-4(5)6-8/h8H,1-3H2
