19
gdb 98887	3.97504	0.95218	0.88142	2.6879	71.51	-0.2421	-0.0202	0.2219	1380.5668	0.158202	-460.176397	-460.16702	-460.166076	-460.212605	32.475	
C	-0.0214101564	 1.5533307876	 0.0532349231	-0.377338
C	 0.1681615281	 0.0397177008	 0.0076025897	-0.293237
C	 0.7802497571	-0.4606754802	-1.2903435158	 0.361255
O	 1.1912267222	 0.2768329028	-2.1539310189	-0.299777
C	 0.8178921639	-1.9847357545	-1.4710575753	-0.004942
C	-0.4631626491	-2.4808829586	-2.2258660719	-0.124903
O	 0.0531410199	-3.2466280838	-3.2981491322	-0.232741
C	 1.3238336515	-2.7018370269	-3.5630896488	 0.016611
O	 1.8849851442	-2.3921618454	-2.3045759009	-0.234311
H	 0.9309165462	 2.0656561142	-0.1020851915	 0.139122
H	-0.7011849819	 1.8866246178	-0.7355101114	 0.130082
H	-0.4322220332	 1.8640391765	 1.0175654025	 0.113246
H	 0.8194970331	-0.3043820565	 0.8243443962	 0.131738
H	-0.7815566037	-0.492171009	 0.1668189569	 0.120608
H	 0.9315130297	-2.4800533219	-0.5004520348	 0.094614
H	-1.1003922769	-3.1220109398	-1.6132406806	 0.12302
H	-1.0552991391	-1.6317347926	-2.5967865606	 0.109166
H	 1.9400039079	-3.4580225338	-4.0560522684	 0.121747
H	 1.2452820766	-1.7924849267	-4.1798086774	 0.106043
24.1577	60.6732	67.9858	172.8419	192.0734	229.4946	266.7478	320.175	355.0367	556.965	656.2841	715.5304	744.8216	799.1832	817.9512	926.7125	945.8521	975.2471	1009.2673	1024.8856	1034.6895	1100.0347	1110.826	1119.4519	1151.4422	1187.2528	1217.3505	1254.4559	1271.2241	1295.9141	1355.2409	1363.6833	1383.3859	1414.1789	1426.7594	1448.0613	1493.1637	1497.9456	1512.1949	1542.3705	1818.9368	2981.8063	2999.4034	3007.3889	3032.3537	3047.8498	3052.8893	3101.244	3105.5464	3122.8106	3131.0299
CCC(=O)C1COCO1	CCC(=O)[C@H]1COCO1	
InChI=1S/C6H10O3/c1-2-5(7)6-3-8-4-9-6/h6H,2-4H2,1H3	InChI=1S/C6H10O3/c1-2-5(7)6-3-8-4-9-6/h6H,2-4H2,1H3/t6-/m1/s1
