16
gdb 127725	3.32927	1.45951	1.02758	0.4151	77.55	-0.244	-0.0807	0.1633	1131.148	0.124571	-430.238988	-430.230654	-430.229709	-430.272111	30.253	
C	-0.0746712311	 1.4246981312	-0.0110709358	-0.308814
N	-0.0333920243	-0.030313886	 0.0326038776	-0.01126
N	-0.1332520111	-0.6566214941	-1.1302464585	-0.050943
N	-0.1052828949	-1.932536312	-1.175255493	-0.254343
C	 0.0326862547	-2.6201386464	 0.0347101053	 0.374322
C	 0.0554857414	-4.1085959794	-0.1130985211	-0.454372
N	 0.1352490029	-2.0765212029	 1.2029708051	-0.326628
C	 0.1070059308	-0.6898804427	 1.2746882946	 0.43383
N	 0.1935876087	 0.0236038404	 2.3258281425	-0.560681
H	 0.8452377003	 1.8293785669	 0.4168615301	 0.162125
H	-0.1857967448	 1.7156122666	-1.0547375917	 0.15205
H	-0.9115729894	 1.7847898231	 0.5914728593	 0.162114
H	 0.876638759	-4.402935091	-0.7747599388	 0.15348
H	 0.1692928949	-4.5859263902	 0.8595241058	 0.145891
H	-0.869207898	-4.4475849682	-0.5915649417	 0.15353
H	 0.2895329607	-0.5948938455	 3.1304404804	 0.229698
85.0679	114.6059	164.5974	192.8261	269.8156	305.7227	339.5252	434.1088	503.7052	527.9542	597.8692	654.218	757.1108	780.6648	781.6927	863.1541	932.5027	1026.1973	1059.655	1064.1601	1107.7639	1153.4554	1209.768	1261.125	1329.2846	1354.5947	1408.5716	1432.4457	1463.5988	1465.8326	1470.8124	1496.5057	1503.7708	1650.0356	1722.7568	3048.5433	3063.037	3105.8052	3132.2422	3165.6279	3176.2051	3503.493
CN1N=NC(C)=NC1=N	Cn1nnc(C)nc1[NH]	
InChI=1S/C4H7N5/c1-3-6-4(5)9(2)8-7-3/h5H,1-2H3	InChI=1S/C4H12N5/c1-3-6-4(5)9(2)8-7-3/h3-8H,1-2H3
