18
gdb 41653	3.21247	1.99995	1.65758	2.4766	73.27	-0.2361	0.0872	0.3234	858.5653	0.151349	-401.883336	-401.877263	-401.876319	-401.913433	25.867	
C	 0.0104431143	 1.5860305595	 0.0065113027	-0.10755
O	 1.2938442523	 2.1806396466	-0.0616995847	-0.240969
C	 2.0754238298	 1.7136359167	-1.1461094635	-0.098876
C	 2.1214996138	 0.1963501908	-1.2385388189	 0.035217
C	 0.7800387972	-0.5629565241	-1.2639588638	-0.118894
C	 1.4807125231	-1.588056195	-0.304449258	-0.059017
C	 1.1965467809	-0.6303846839	 0.7887835742	-0.041296
C	 0.0913560427	 0.0648921333	-0.01517648	-0.034828
N	 2.4911998596	-0.5422579318	 0.0218098781	-0.151669
H	-0.4361251868	 1.9479129144	 0.938437812	 0.110232
H	-0.6279987099	 1.9315221425	-0.8266680032	 0.084481
H	 1.6966284791	 2.112078124	-2.1050643961	 0.08424
H	 3.0796070545	 2.1183154428	-0.9861317077	 0.118275
H	 2.8081796957	-0.1202569637	-2.0295175601	 0.079091
H	 0.2222150832	-0.7574349153	-2.1783249924	 0.06854
H	 1.6861801656	-2.6494138155	-0.3357885623	 0.098618
H	 1.2892812582	-0.750553062	 1.8600550704	 0.096999
H	-0.8816745732	-0.3954312195	 0.1794494132	 0.077407
230.7429	237.4011	363.9581	379.3334	463.2088	618.4253	697.1403	745.8729	778.3849	798.3902	825.8034	840.2159	878.1021	884.6286	911.0361	935.7426	986.2755	1011.6136	1019.6974	1038.2064	1062.7072	1077.5671	1092.8257	1143.422	1148.8291	1175.4544	1199.7859	1212.4644	1248.6998	1263.0186	1284.492	1318.0086	1342.6242	1344.9763	1368.8624	1383.9733	1422.664	1479.0203	1495.6929	2942.6225	2949.4718	3065.0005	3067.7645	3075.7869	3082.0252	3129.5171	3199.435	3213.5228
C1OCC2C3C4C(C13)N24	C1OC[C@@H]2[C@H]3[C@@H]4[C@H]([C@@H]13)N24	
InChI=1S/C7H9NO/c1-3-5-4(2-9-1)8-6(3)7(5)8/h3-7H,1-2H2	InChI=1S/C7H9NO/c1-3-5-4(2-9-1)8-6(3)7(5)8/h3-7H,1-2H2/t3-,4+,5-,6-,7+,8?/m0/s1
