20
gdb 95718	2.94032	1.19398	0.91642	3.0653	75.46	-0.2381	0.0313	0.2694	1271.4205	0.172924	-440.330942	-440.322217	-440.321273	-440.364357	33.577	
O	-0.1424233093	 1.4778957218	-0.0799109387	-0.426668
C	-0.002118055	 0.0660498692	 0.0253096323	 0.119383
C	-1.4260222884	-0.4833939053	 0.0952670879	-0.183655
C	-1.5507743475	-2.0060267655	 0.2215645292	-0.215539
C	-0.9900536299	-2.8102553691	-0.9694574004	-0.299311
C	 0.5239976109	-2.98087866	-0.94756359	 0.373359
O	 1.0566287211	-4.0711120576	-0.8445728046	-0.367111
N	 1.269965592	-1.8346937181	-1.029269376	-0.289165
C	 0.7980318517	-0.4698252575	-1.1793342067	-0.197647
H	 0.7297806966	 1.8775177545	-0.0016747975	 0.282974
H	 0.5436118128	-0.209199238	 0.942798673	 0.070671
H	-1.9245719519	-0.0024767671	 0.9434087232	 0.108725
H	-1.9536490102	-0.1443264429	-0.8064756205	 0.104551
H	-1.0733136439	-2.3516757581	 1.1469626573	 0.110616
H	-2.614556341	-2.246644096	 0.3222684032	 0.10742
H	-1.3933872639	-3.8241762278	-0.9640635494	 0.126589
H	-1.299245477	-2.3372140121	-1.9111982929	 0.10987
H	 2.2643396793	-1.9991286867	-0.9916264212	 0.245707
H	 0.1958596118	-0.3488942872	-2.0902019772	 0.120158
H	 1.6848435617	 0.1584983236	-1.3103659611	 0.099073
64.8642	126.9005	216.4382	269.3482	296.0411	299.8578	331.8863	368.8092	444.0361	477.5592	497.0563	526.9757	626.6414	716.829	758.8031	853.657	860.6457	909.0987	929.4671	978.3601	1049.4793	1077.7072	1090.4754	1098.6175	1136.6743	1166.9927	1220.1191	1245.879	1269.1766	1311.2156	1321.7017	1347.3937	1352.5058	1376.5196	1395.3594	1403.6333	1439.2058	1466.3863	1471.773	1484.3593	1494.8852	1498.5839	1787.0392	2968.8818	3014.0259	3022.7514	3024.2244	3032.4306	3071.4184	3075.365	3079.4675	3118.5519	3623.3817	3815.4031
OC1CCCC(=O)NC1	O[C@H]1CCCC(=O)NC1	
InChI=1S/C6H11NO2/c8-5-2-1-3-6(9)7-4-5/h5,8H,1-4H2,(H,7,9)	InChI=1S/C6H11NO2/c8-5-2-1-3-6(9)7-4-5/h5,8H,1-4H2,(H,7,9)/t5-/m0/s1
