14
gdb 25790	4.33936	1.10834	0.88368	4.706	68.18	-0.2155	-0.0394	0.176	1224.3804	0.101666	-470.064031	-470.055569	-470.054625	-470.097521	30.56	
N	-0.1557461774	 1.2769059761	 0.0971001181	-0.534652
C	 0.035632275	-0.0728789026	 0.1412315909	 0.308996
O	 1.1231973299	-0.6067375776	 0.19197426	-0.339935
C	-1.2315865408	-0.8606540326	 0.1138863692	 0.330788
N	-1.3610713975	-2.1522464157	 0.1427984664	-0.323029
C	-2.7225093996	-2.375496257	 0.0960451113	 0.274121
N	-3.2183368782	-3.6664543682	 0.1736658291	-0.599819
C	-3.3675872964	-1.1728237006	 0.0382320898	-0.124221
O	-2.4064869365	-0.192122708	 0.0487171806	-0.187781
H	 0.6554173506	 1.8696474439	 0.1437181937	 0.267668
H	-1.0742415597	 1.6839697948	 0.0945768025	 0.272182
H	-2.5257871108	-4.3518714704	-0.0952326752	 0.263174
H	-4.0962375344	-3.8147024298	-0.3022912549	 0.251817
H	-4.3926044942	-0.8516013922	-0.0062741714	 0.140689
58.9509	131.5973	162.0167	177.4987	252.762	341.0359	359.0717	416.9876	519.7521	541.8159	625.5526	649.6308	659.3002	668.8449	728.7495	754.5649	799.5455	976.2243	1021.4433	1088.1297	1101.5986	1127.4924	1202.1051	1304.5099	1372.7155	1397.9261	1574.9302	1609.9813	1635.7923	1668.5013	1804.1263	3301.5944	3562.9865	3612.9961	3663.4901	3752.17
NC(=O)C1=NC(N)=CO1	NC(=O)c1nc(N)co1	
InChI=1S/C4H5N3O2/c5-2-1-9-4(7-2)3(6)8/h1H,5H2,(H2,6,8)	InChI=1S/C4H5N3O2/c5-2-1-9-4(7-2)3(6)8/h1H,5H2,(H2,6,8)
