20
gdb 67244	3.07662	1.58469	1.34069	1.5973	83.55	-0.2189	0.0914	0.3103	1044.7032	0.171278	-365.926307	-365.918549	-365.917604	-365.958048	31.585	
C	-0.0118732881	 1.5409203368	-0.0453671135	-0.525499
C	-0.0342194505	 0.0539272762	-0.0299819817	 0.385754
C	-0.0116720602	-1.0409419734	-1.056757985	-0.146382
C	 1.2141299866	-1.6248989289	-0.3788613086	-0.178697
N	 0.8468463032	-0.8583344321	 0.8821007941	-0.25109
C	-0.4261017512	-1.5428818774	 1.2703643829	 0.439477
C	-0.499659509	-2.8340764101	 2.0128480055	-0.352639
C	-0.9158267599	-1.5272660241	 2.6781084394	-0.355592
C	-1.1033039995	-1.0010852939	 0.0450837418	-0.234637
H	 0.9779448496	 1.9220648957	-0.3198375224	 0.128413
H	-0.7351821418	 1.9233935501	-0.7734455016	 0.12418
H	-0.2705415589	 1.9505435465	 0.9369810435	 0.131474
H	-0.2713485971	-0.9799068546	-2.1072500871	 0.086596
H	 1.294358241	-2.7078761761	-0.2369363642	 0.098561
H	 2.1505997854	-1.231257464	-0.7829765259	 0.102441
H	-1.272207224	-3.5476821179	 1.7457211337	 0.11208
H	 0.435128518	-3.2806220216	 2.336713777	 0.117492
H	-0.2507198596	-1.1174417548	 3.4302965371	 0.121779
H	-1.9721245793	-1.3567155916	 2.8600115747	 0.108946
H	-2.1560548047	-0.9123476247	-0.1947626096	 0.087343
129.9977	203.4591	216.1166	264.9938	274.9166	314.7918	484.6742	493.523	567.0418	645.188	746.5576	766.4139	795.9962	841.5466	863.9753	878.4107	889.3209	902.6667	946.7283	976.4333	980.6941	1006.9318	1022.9594	1035.3598	1048.26	1073.5174	1087.9615	1134.514	1143.9384	1166.4279	1179.9565	1187.0024	1223.217	1269.0411	1293.6316	1403.7417	1404.5077	1451.5049	1465.4239	1476.4898	1496.6465	1503.0295	1514.2399	3026.9523	3042.1456	3090.8229	3099.7129	3100.1448	3125.4168	3129.1182	3178.2622	3189.2673	3206.9372	3221.7529
CC12C3CN1C1(CC1)C23	C[C@@]12[C@H]3CN1C1(CC1)[C@@H]23	
InChI=1S/C8H11N/c1-7-5-4-9(7)8(2-3-8)6(5)7/h5-6H,2-4H2,1H3	InChI=1S/C8H11N/c1-7-5-4-9(7)8(2-3-8)6(5)7/h5-6H,2-4H2,1H3/t5-,6+,7-/m0/s1
