19
gdb 86109	2.51135	1.51102	1.04731	1.6596	77.04	-0.236	0.	0.236	1166.8484	0.15938	-423.024777	-423.016392	-423.015447	-423.057527	32.562	
C	 0.0761724294	 1.5446476241	-0.0232253232	-0.478239
C	-0.0486415913	 0.048313087	-0.0256096058	 0.290243
C	 0.043503935	-0.6866364929	-1.1390068323	-0.149129
C	-0.0492115652	-2.1662846572	-1.1048614198	 0.0056
O	 0.8215632506	-2.8705258167	-0.1795286323	-0.27095
C	-0.5806463703	-2.8217057691	 0.0983385638	 0.004475
C	-1.0025463297	-1.9588003687	 1.2661066579	 0.105407
O	-0.9038927841	-2.6600659861	 2.4999685059	-0.437681
C	-0.2252576421	-0.6288549788	 1.3166299284	-0.332764
H	 0.9099631391	 1.8688061118	 0.6130084807	 0.130218
H	 0.241767083	 1.9406111197	-1.0285375087	 0.123476
H	-0.8267569804	 2.0131711132	 0.3889430434	 0.127314
H	 0.1996182479	-0.2149569585	-2.1047188615	 0.084971
H	-0.1529884615	-2.6754217843	-2.0607759217	 0.092236
H	-1.0992656508	-3.7770017936	 0.0131847775	 0.095477
H	-2.073241049	-1.7486699346	 1.1480803054	 0.095761
H	 0.0123969931	-2.9474651229	 2.5889632649	 0.285293
H	 0.7699923154	-0.8376824568	 1.7328538855	 0.119556
H	-0.7197462692	 0.0401192444	 2.0284120819	 0.108738
106.5693	140.376	192.5329	243.1136	277.4184	357.9584	383.7057	409.7675	436.4293	472.5747	537.8081	655.2987	674.7999	783.4607	830.2261	853.8537	890.9884	907.082	947.8958	999.187	1034.8088	1054.4156	1065.8268	1077.3492	1131.8071	1148.1038	1178.3503	1201.2103	1267.435	1290.8523	1321.5039	1358.3907	1369.9282	1377.8727	1412.2176	1427.9186	1454.4272	1470.0268	1478.1799	1487.8356	1724.1203	3013.8066	3017.6032	3036.0344	3062.0311	3075.1023	3110.2999	3113.4411	3133.9572	3170.6252	3793.1596
CC1=CC2OC2C(O)C1	CC1=C[C@H]2O[C@H]2[C@@H](O)C1	
InChI=1S/C7H10O2/c1-4-2-5(8)7-6(3-4)9-7/h3,5-8H,2H2,1H3	InChI=1S/C7H10O2/c1-4-2-5(8)7-6(3-4)9-7/h3,5-8H,2H2,1H3/t5-,6+,7-/m0/s1
