23
gdb 83537	2.66355	1.57869	1.26223	1.5648	84.98	-0.2343	0.0868	0.3211	1126.0936	0.206215	-388.27474	-388.265845	-388.264901	-388.307402	35.73	
C	 0.1237007006	 1.5659942267	 0.9448888682	-0.441557
C	 0.1136548266	 0.0962835906	 0.5517127227	 0.025435
C	 0.74794676	-0.4098017028	-0.7961117055	-0.122583
C	 2.1591897834	 0.1602128563	-0.6486504875	-0.104172
O	 2.4269971373	-0.1935589596	 0.7330323271	-0.276899
C	 1.2006659183	-0.8552474284	 1.1112053801	 0.048044
C	 0.9313400536	-1.8179582886	-0.0927867873	 0.349282
C	-0.3363562728	-2.6783752118	-0.0334340877	-0.469136
C	 2.0993267496	-2.7106956549	-0.5198376151	-0.472046
H	 1.1392087995	 1.9562122446	 1.0395122458	 0.13562
H	-0.4166507806	 2.1762767433	 0.2123614286	 0.111669
H	-0.3714840421	 1.7028733901	 1.9123697517	 0.113275
H	-0.8866237376	-0.3121000383	 0.6814969099	 0.073371
H	 0.2498396348	-0.2981390276	-1.7603769024	 0.060222
H	 2.8980714643	-0.3052430391	-1.3089165974	 0.099062
H	 2.2114864245	 1.2467087439	-0.7772812768	 0.097972
H	 1.271011006	-1.1762587237	 2.1510979971	 0.067399
H	-1.2575678492	-2.1224533906	 0.1453346524	 0.116784
H	-0.4607357579	-3.2141135126	-0.9816002549	 0.11606
H	-0.2477181578	-3.4363376199	 0.7533630204	 0.116341
H	 2.0732020272	-3.6548134993	 0.035496171	 0.109103
H	 2.031695063	-2.9612315145	-1.5851445133	 0.109448
H	 3.0667091093	-2.2452959836	-0.3298484471	 0.137305
161.8983	179.4182	182.8098	207.3437	246.5545	274.4887	328.4402	374.8442	404.5188	463.8063	516.4513	551.3789	672.3193	704.4097	759.0988	801.2148	869.4094	914.1813	943.8353	945.7932	963.2049	966.9864	997.7752	1021.136	1036.947	1059.8794	1069.6106	1121.3047	1131.5878	1178.2774	1192.6712	1202.2243	1215.7156	1237.0881	1264.5727	1286.2733	1309.3172	1364.7545	1391.2576	1402.7767	1411.3738	1431.3261	1482.7554	1489.585	1492.0661	1505.6291	1509.5508	1517.2723	1547.573	3028.1503	3033.4809	3033.7429	3038.6902	3072.9224	3081.7768	3086.1473	3089.5992	3105.9733	3112.2358	3118.7923	3127.6378	3142.3924	3143.8569
CC1C2COC1C2(C)C	C[C@H]1[C@H]2CO[C@@H]1C2(C)C	
InChI=1S/C8H14O/c1-5-6-4-9-7(5)8(6,2)3/h5-7H,4H2,1-3H3	InChI=1S/C8H14O/c1-5-6-4-9-7(5)8(6,2)3/h5-7H,4H2,1-3H3/t5-,6+,7-/m0/s1
