20
gdb 66310	3.74986	0.76777	0.70082	2.5409	76.51	-0.2509	0.0297	0.2806	1625.4586	0.169276	-440.295238	-440.285142	-440.284197	-440.332199	35.542	
C	 0.1358519314	 1.6267683535	-0.0590282444	-0.460441
C	-0.1029988435	 0.1345911591	-0.151204858	 0.425355
C	-1.5453577164	-0.33938231	-0.1220962427	-0.260536
C	-2.213781648	-0.1077290428	 1.2440520167	-0.164728
N	-3.5690473298	-0.6340146037	 1.3076136482	-0.268978
C	-4.6480433766	 0.0904795615	 0.9130376614	 0.150367
O	-4.6046704039	 1.2329114733	 0.5053081565	-0.327546
C	 0.9177754869	-0.7200339022	-0.7766015858	-0.229725
O	 0.7874778166	-0.6700653717	 0.6463331452	-0.281349
H	 1.2067376541	 1.8429700357	-0.0710440899	 0.12666
H	-0.3370792157	 2.1459523049	-0.8991950881	 0.128876
H	-0.2811453215	 2.0399621501	 0.8645392411	 0.13277
H	-2.1257600804	 0.1804462449	-0.8924268825	 0.124243
H	-1.5737979124	-1.409721697	-0.3532956571	 0.094471
H	-1.6173161413	-0.5803107037	 2.0295833349	 0.125572
H	-2.2797392648	 0.9611936818	 1.459127813	 0.142072
H	-3.7101651889	-1.5942138967	 1.5770132855	 0.249159
H	-5.5920874218	-0.4812898615	 1.0162536191	 0.074078
H	 0.6270039147	-1.6615593016	-1.241699607	 0.108619
H	 1.8256044615	-0.2701990841	-1.1776636863	 0.111062
24.1987	48.3319	74.4817	151.0344	192.6638	211.2553	279.433	345.0689	365.8676	375.9396	440.6164	497.0633	519.1129	724.4845	735.9466	819.4528	842.1663	911.5011	933.5246	979.0167	996.3262	1029.8683	1044.6815	1089.5609	1113.7879	1135.0985	1168.8928	1202.1981	1236.6098	1289.2594	1311.2432	1344.6235	1395.9748	1414.3975	1423.8911	1429.0295	1467.6044	1483.5062	1490.6265	1498.3435	1530.3723	1531.6808	1802.605	2933.5417	3038.2548	3042.8863	3067.2852	3076.2688	3084.4848	3106.729	3124.518	3127.8022	3161.0062	3639.4794
CC1(CCNC=O)CO1	C[C@@]1(CCNC=O)CO1	
InChI=1S/C6H11NO2/c1-6(4-9-6)2-3-7-5-8/h5H,2-4H2,1H3,(H,7,8)	InChI=1S/C6H11NO2/c1-6(4-9-6)2-3-7-5-8/h5H,2-4H2,1H3,(H,7,8)/t6-/m1/s1
