13
gdb 130856	7.39799	0.88227	0.78826	1.7704	79.37	-0.2486	-0.0734	0.1753	1331.5803	0.089741	-415.610098	-415.602466	-415.601522	-415.642465	27.868	
O	 0.0774965219	-0.068487606	-0.0018620637	-0.28843
C	 0.0076471538	 1.1422821642	 0.0089007453	 0.076018
C	 1.1832082283	 2.0050931082	 0.0031355069	 0.304385
C	 1.3496786692	 3.3799645889	 0.0123286442	-0.398036
C	 2.7493601215	 3.576551905	-0.0010270467	 0.210657
N	 3.4007955012	 2.3944139186	-0.017690851	-0.262786
N	 2.4397672492	 1.4799779971	-0.0147128742	-0.233641
C	 3.4498381869	 4.8083115147	 0.0013690599	 0.269048
C	 4.0120945666	 5.871564026	 0.0038789655	-0.400758
H	-0.9639832654	 1.6752741716	 0.0234309842	 0.095364
H	 0.5804387777	 4.1343531477	 0.0266524391	 0.134005
H	 2.6635041617	 0.4963926505	-0.0250835485	 0.296358
H	 4.5187669473	 6.8048047135	 0.0059359389	 0.197815
91.4241	126.3444	202.7354	211.4609	288.2612	435.6604	472.6897	549.7613	597.5841	628.5206	640.3239	673.9814	687.2355	729.7733	780.8569	849.8475	999.554	1030.257	1048.8853	1154.4253	1219.0423	1296.5257	1376.6015	1396.3899	1463.027	1468.6312	1584.7589	1777.7401	2244.6018	2935.5124	3277.5631	3503.7952	3647.7621
O=CC1=CC(=NN1)C#C	O=Cc1cc(n[nH]1)C#C	
InChI=1S/C6H4N2O/c1-2-5-3-6(4-9)8-7-5/h1,3-4H,(H,7,8)	InChI=1S/C6H4N2O/c1-2-5-3-6(4-9)8-7-5/h1,3-4H,(H,7,8)
