16
gdb 27070	3.18588	1.39232	0.98403	1.145	75.99	-0.1764	0.0234	0.1998	1141.1717	0.128116	-430.286826	-430.27883	-430.277885	-430.31968	30.455	
N	-0.4880830685	 0.3896897056	 1.4472534785	-0.626089
C	-0.1941742932	-0.5100773791	 0.4166724282	 0.214235
C	-0.9160512388	-1.3714650346	-0.3843458802	 0.298563
N	-2.2772683014	-1.7149836658	-0.4153542794	-0.37658
C	-3.3558347088	-1.0433977448	 0.0641798527	 0.084721
N	-3.2965633722	 0.028970641	 0.764822023	-0.476267
N	-0.1052108127	-1.9960346091	-1.3027565828	-0.32289
C	 1.101589896	-1.5310500179	-1.0790433115	 0.004437
N	 1.100289947	-0.6254882307	-0.0639784042	-0.263337
H	-1.5011846088	 0.5454985411	 1.4437820539	 0.265022
H	-0.2223529248	 0.021333558	 2.3569513235	 0.231203
H	-2.4578427453	-2.4876209634	-1.0366637498	 0.258713
H	-4.2903939994	-1.5414868024	-0.2163398556	 0.09363
H	-4.2299709412	 0.3452891446	 1.0089684552	 0.222356
H	 1.9986601679	-1.8209494314	-1.6039291572	 0.127665
H	 1.8709116042	-0.068344601	 0.2655498156	 0.264618
44.2666	202.8842	232.3613	266.8527	296.4388	367.9428	382.4546	449.7182	522.2172	523.3559	601.7875	659.8938	721.2268	727.608	772.0032	775.0682	832.0011	948.093	956.6492	1024.0108	1098.1387	1128.6328	1153.8584	1206.9612	1273.9763	1297.0848	1317.8502	1408.3841	1412.6321	1476.8708	1516.8843	1579.49	1646.4028	1679.4802	1716.6707	3060.7246	3257.1799	3354.7275	3503.6679	3534.4787	3641.4127	3664.1591
NC1=C(NC=N)N=CN1	Nc1c(NC=N)nc[nH]1	
InChI=1S/C4H7N5/c5-1-7-4-3(6)8-2-9-4/h1-2H,6H2,(H2,5,7)(H,8,9)	InChI=1S/C4H7N5/c5-1-7-4-3(6)8-2-9-4/h1-2H,6H2,(H2,5,7)(H,8,9)
