22
gdb 112944	4.02553	0.81588	0.72426	4.0769	85.01	-0.231	0.0368	0.2677	1639.6883	0.192779	-404.377794	-404.367277	-404.366333	-404.415185	36.498	
C	 0.1954946259	 1.3418908419	 0.37419491	-0.382587
C	 0.0082942123	-0.109766953	-0.0764442267	-0.191199
C	 0.5706992585	-0.3792355771	-1.4667235989	 0.018422
C	 2.1271272353	-0.4145541059	-1.6041174751	-0.183989
N	 2.0117340007	-1.7877964054	-2.0849557289	-0.055528
C	 0.5573552135	-1.8627169176	-1.9498835404	-0.212444
C	 2.9988715652	-2.6699982411	-2.3876917177	 0.363583
C	 2.5206608995	-4.0572107144	-2.7893865207	-0.488772
O	 4.1752456023	-2.3506729077	-2.3386494156	-0.371211
H	 1.2551655963	 1.6179689965	 0.3988467354	 0.124231
H	-0.3116633024	 2.0353017422	-0.3056880737	 0.117166
H	-0.2113215584	 1.5006928067	 1.3772364428	 0.117767
H	 0.489468916	-0.7864621684	 0.6424694484	 0.101307
H	-1.0598553245	-0.3635897756	-0.0680377867	 0.099427
H	 0.1087672167	 0.2929947598	-2.1950873297	 0.081102
H	 2.5689459289	 0.2742022121	-2.3311183578	 0.11835
H	 2.6809373381	-0.3273273657	-0.6615442587	 0.115559
H	 0.2110757782	-2.5826697813	-1.1963432276	 0.106995
H	 0.0225884524	-2.0547296557	-2.8876939863	 0.109722
H	 1.8384794133	-4.0098927569	-3.6447344474	 0.132619
H	 3.3894018757	-4.6603559017	-3.051426917	 0.146149
H	 1.9814945666	-4.5401980318	-1.9670727076	 0.13333
26.1741	69.4615	74.6361	97.6994	127.9404	182.0903	215.9712	242.9994	342.6186	415.7193	422.9958	561.5616	593.768	638.4947	754.5287	798.7245	894.5738	909.8356	949.2187	962.0557	979.2634	997.3628	1049.285	1070.2839	1117.3266	1133.6575	1144.5655	1160.5058	1210.3224	1213.2162	1266.1799	1296.7774	1301.0643	1322.5754	1354.5173	1378.6913	1393.3598	1414.4981	1453.1842	1473.8475	1482.9353	1485.638	1499.1628	1506.5049	1509.3924	1529.2607	1765.2586	3004.7013	3014.1483	3030.9394	3033.3293	3039.648	3042.61	3047.3487	3067.9002	3082.0798	3099.5977	3099.9191	3107.5461	3160.6991
CCC1CN(C1)C(C)=O	CCC1CN(C1)C(=O)C	
InChI=1S/C7H13NO/c1-3-7-4-8(5-7)6(2)9/h7H,3-5H2,1-2H3	InChI=1S/C7H13NO/c1-3-7-4-8(5-7)6(2)9/h7H,3-5H2,1-2H3
