21
gdb 85736	3.16076	1.18195	1.00381	0.9133	87.89	-0.2515	0.059	0.3105	1263.4589	0.18302	-349.92883	-349.92015	-349.919206	-349.96184	34.453	
C	-0.0282104884	 1.5734600969	-0.0012555969	-0.40169
C	 0.0490828176	 0.0452878906	 0.0181979087	 0.024114
C	 0.8025482469	-0.5546193	-1.1911664034	-0.247876
C	 1.3132690139	-1.9454299622	-0.7152223289	-0.179352
C	 2.4748204207	-2.4284521539	-1.4528515253	 0.320406
C	 3.4366139809	-2.8160862879	-2.061876707	-0.460464
C	 1.5342979973	-1.7677375548	 0.7919918303	-0.038445
C	 2.2709987054	-0.5346586289	 1.2461982219	-0.28917
C	 0.7599554615	-0.5487655207	 1.2318155767	-0.040938
H	 0.9735411703	 2.0155975885	 0.0312425325	 0.116008
H	-0.5265524727	 1.9348833001	-0.9072242339	 0.111417
H	-0.5879223812	 1.9527528991	 0.8601604973	 0.111595
H	-0.9758409978	-0.3520603599	 0.0180094668	 0.071706
H	 0.1756627275	-0.6354310285	-2.0824823016	 0.105434
H	 1.654843532	 0.0757622787	-1.4622257892	 0.113014
H	 0.5002428632	-2.6738091066	-0.8408901691	 0.101524
H	 4.2854537905	-3.1634225153	-2.5965424106	 0.189837
H	 1.59099808	-2.6636196152	 1.3994921957	 0.088023
H	 2.7545681063	-0.5839990517	 2.2155150008	 0.109934
H	 2.8148380584	 0.0588340746	 0.5185626307	 0.115615
H	 0.2403373877	-0.5333130827	 2.1843667445	 0.079308
91.3278	130.5707	175.3622	230.786	271.2348	310.5054	370.8839	451.8106	512.5873	536.1144	576.9911	606.4539	625.8123	627.8779	767.2585	817.9416	837.3522	885.4926	931.314	934.0097	963.5489	991.8212	1037.8171	1045.5634	1051.0598	1068.0844	1089.6421	1110.4286	1140.3593	1157.1958	1204.334	1209.7639	1273.0189	1298.0355	1330.0782	1337.2406	1351.7271	1373.948	1393.1272	1412.0818	1485.5049	1495.2735	1499.5009	1511.1849	2233.3954	3000.0749	3006.6409	3028.5321	3060.8779	3096.3251	3098.0485	3106.0199	3133.1609	3157.4599	3175.0337	3213.9058	3504.9295
CC1CC(C#C)C2CC12	C[C@H]1C[C@@H](C#C)[C@H]2C[C@@H]12	
InChI=1S/C9H12/c1-3-7-4-6(2)8-5-9(7)8/h1,6-9H,4-5H2,2H3	InChI=1S/C9H12/c1-3-7-4-6(2)8-5-9(7)8/h1,6-9H,4-5H2,2H3/t6-,7+,8-,9+/m0/s1
