17
gdb 43745	4.35124	0.9537	0.88332	2.9894	79.13	-0.2428	-0.0106	0.2322	1308.6155	0.134133	-384.64796	-384.639502	-384.638558	-384.681549	32.	
O	 0.2257552494	 0.005118115	-0.1244294362	-0.316734
C	 0.1125737281	 1.1884071398	 0.0255289913	 0.430253
C	-1.1217349302	 2.128731539	 0.0954592017	-0.413171
C	-0.1386248543	 3.3072779722	-0.0328234494	 0.368858
C	-0.3547270932	 4.5045389364	-0.9291194596	-0.469927
C	-1.4012108656	 5.3928393365	-0.4277514853	 0.311683
C	-2.2702200291	 6.103159694	 0.0011175536	-0.448643
C	 0.779064055	 3.2908446129	 1.1326935934	-0.313913
C	 1.0762331798	 2.3343495627	-0.0236341435	-0.241874
H	-1.7524499729	 1.9778226903	-0.7861715414	 0.132564
H	-1.7466009	 2.0998756708	 0.9922148666	 0.124585
H	 0.5853714547	 5.062169249	-1.0278839251	 0.134967
H	-0.6187163291	 4.1657598251	-1.9398031042	 0.137985
H	-3.0353324868	 6.7388934688	 0.3726308416	 0.200991
H	 1.4855036649	 4.1125318527	 1.2024804843	 0.127286
H	 0.4542266753	 2.9024491341	 2.0939851815	 0.125148
H	 2.021297214	 2.3718646707	-0.5521470593	 0.109941
54.3759	86.5069	138.0912	280.9968	327.3358	353.5583	390.5062	429.1255	463.1897	552.7334	625.9047	631.6316	647.8991	723.9756	781.2622	840.5944	902.6194	919.6256	948.4759	964.4786	990.6491	996.831	1053.3036	1087.6461	1103.2974	1118.5308	1184.0614	1205.4707	1233.2086	1312.7292	1333.2935	1395.6106	1457.2982	1463.5629	1504.377	1883.2803	2240.5792	3015.5812	3049.5213	3057.6384	3111.4567	3116.1082	3191.4404	3202.9195	3506.1176
O=C1CC2(CC#C)CC12	O=C1C[C@@]2(CC#C)C[C@@H]12	
InChI=1S/C8H8O/c1-2-3-8-4-6(8)7(9)5-8/h1,6H,3-5H2	InChI=1S/C8H8O/c1-2-3-8-4-6(8)7(9)5-8/h1,6H,3-5H2/t6-,8+/m0/s1
