18
gdb 53363	5.38225	0.73496	0.67139	3.4241	83.33	-0.254	0.0259	0.2799	1666.5629	0.1477	-401.950765	-401.941536	-401.940592	-401.986975	32.467	
C	 0.1911306883	 1.5438884551	-0.3226821908	-0.499632
C	 0.0898581176	 0.1063163971	-0.1161698394	 0.114312
C	 0.0072820335	-1.0838986229	 0.0471240614	 0.032535
C	-0.0974542475	-2.5170284962	 0.2645843196	-0.207815
C	 0.3710906581	-2.9782015423	 1.6641489213	-0.088049
O	-0.2772759786	-4.2371441439	 1.8805759294	-0.235743
C	-1.3981014659	-4.3412608299	 1.0979696615	 0.404769
N	-2.1856510637	-5.3263251401	 1.1023100826	-0.541233
C	-1.5269389952	-3.1021225352	 0.239895728	-0.297253
H	 0.8805011871	 1.7801612172	-1.1405782041	 0.151335
H	-0.7827039608	 1.9784921171	-0.5733943141	 0.151784
H	 0.5579348114	 2.0498807192	 0.5770625437	 0.150505
H	 0.505181288	-3.0482991096	-0.4831558821	 0.114946
H	 1.4496066604	-3.1319390588	 1.7332296	 0.127106
H	 0.0596890334	-2.2630616638	 2.434857384	 0.118541
H	-1.8831142274	-6.0228659413	 1.7859165833	 0.221914
H	-2.23052249	-2.4046291213	 0.7072760652	 0.138354
H	-1.8991438188	-3.3403189703	-0.7558425596	 0.143624
14.5903	70.2481	87.7012	144.9248	205.1251	281.1226	319.0833	421.6563	441.9478	503.9258	524.905	571.829	672.8015	816.2563	861.0744	895.6969	909.218	923.834	1012.9004	1050.9504	1051.9864	1064.8831	1071.0075	1106.6488	1173.769	1189.8773	1237.2976	1264.242	1282.6928	1317.3666	1360.4203	1403.4149	1415.2294	1473.4814	1477.7856	1478.013	1521.0558	1782.4551	2373.9306	3021.3902	3028.2609	3038.5968	3060.6399	3089.6791	3090.1968	3115.3335	3142.8362	3470.3442
CC#CC1COC(=N)C1	CC#C[C@H]1CO[C]([NH])C1	
InChI=1S/C7H9NO/c1-2-3-6-4-7(8)9-5-6/h6,8H,4-5H2,1H3	InChI=1S/C7H9NO/c1-2-3-6-4-7(8)9-5-6/h6,8H,4-5H2,1H3/t6-/m1/s1
