16
gdb 125405	3.09572	1.39223	1.03209	2.732	70.8	-0.2573	-0.0138	0.2435	1121.4583	0.124259	-437.858728	-437.850795	-437.849851	-437.89171	28.968	
C	 1.0721290991	 0.9184090745	 0.628350332	-0.518027
C	 0.2214235608	-0.2343867906	 0.1927016901	 0.05176
C	 0.1267352667	-0.7951900701	-1.0404561373	 0.009214
O	-0.7561390548	-1.8069497963	-1.0520789805	-0.169113
N	-1.2937788235	-1.9381676916	 0.216762593	-0.210536
C	-0.7119367237	-1.0165257694	 0.9510756355	 0.333735
C	-1.1028986325	-0.9159618855	 2.3741483271	-0.018161
C	-0.1406201332	-0.6398468617	 3.4542735188	-0.186124
O	-1.0218331618	 0.3782212234	 2.985592379	-0.230514
H	 1.9240971211	 0.5890360599	 1.234638545	 0.132107
H	 1.4762868219	 1.4508154859	-0.2365847157	 0.127
H	 0.4940228886	 1.6202803024	 1.2332235544	 0.160979
H	 0.6078854414	-0.5801451071	-1.9825374149	 0.150436
H	-1.9979480735	-1.4834932885	 2.6212770073	 0.119665
H	-0.3483735318	-1.0175771861	 4.4541282044	 0.127798
H	 0.9117997951	-0.4968638394	 3.2180923121	 0.119781
66.0632	144.1221	176.0151	185.1728	271.6036	315.8506	418.2871	443.1511	614.9793	666.667	670.9457	739.4038	837.4022	854.5393	906.3614	928.9893	962.6923	997.0594	1024.9373	1071.5022	1098.0572	1151.0977	1154.6009	1172.6013	1216.2387	1278.4439	1298.1741	1395.5794	1421.0729	1435.2553	1481.4073	1506.5075	1513.3999	1534.6566	1652.104	3036.4415	3091.3582	3096.9915	3133.5917	3138.2314	3181.641	3260.263
CC1=CON=C1C1CO1	Cc1conc1[C@H]1CO1	
InChI=1S/C6H7NO2/c1-4-2-9-7-6(4)5-3-8-5/h2,5H,3H2,1H3	InChI=1S/C6H7NO2/c1-4-2-9-7-6(4)5-3-8-5/h2,5H,3H2,1H3/t5-/m1/s1
