23
gdb 89306	2.58268	1.49917	1.17955	1.2633	85.69	-0.2567	0.0794	0.3361	1167.6783	0.205727	-388.296896	-388.287798	-388.286854	-388.329663	36.691	
C	-0.026235146	 1.530919776	 0.030779144	-0.498087
C	 0.0176660584	 0.0203683971	 0.0363649994	 0.349556
C	 0.9716166741	-0.7940242118	-0.8920646903	-0.306937
C	 0.7182471664	-1.9315325165	 0.1426602059	 0.346902
C	 1.6236334646	-3.1327369693	 0.2838288233	-0.507224
C	 0.6461020854	-0.7942867013	 1.2081235897	-0.295199
C	-0.7786767202	-2.2087344227	-0.0959842598	 0.10247
O	-1.2951009488	-2.9591683994	 0.993602386	-0.447351
C	-1.3075875284	-0.7412625978	-0.1809768908	-0.292429
H	 0.9705233106	 1.9594932621	 0.1809499524	 0.110585
H	-0.4141726566	 1.9138502345	-0.9206527204	 0.111274
H	-0.6760170311	 1.9104042118	 0.8282319199	 0.113386
H	 0.6676083632	-0.9580274945	-1.9323777049	 0.079845
H	 2.0029458531	-0.4317093407	-0.8576937589	 0.090247
H	 2.6569852314	-2.8324701052	 0.4861605569	 0.106576
H	 1.2858776509	-3.7745260385	 1.1032572796	 0.13248
H	 1.624129386	-3.7355239073	-0.6325559317	 0.108199
H	 1.6389943066	-0.4263860815	 1.4817849074	 0.084642
H	 0.0430677438	-0.9725228053	 2.1017242958	 0.098291
H	-0.9303656462	-2.7578149611	-1.0375315803	 0.05515
H	-2.2360999934	-3.0929350925	 0.8463403055	 0.281124
H	-2.0387719063	-0.5453460234	 0.6106672984	 0.089819
H	-1.7701819376	-0.5061706828	-1.1457326369	 0.086682
154.8219	205.2676	214.6487	230.2704	242.7776	249.4457	273.4882	358.3668	406.5332	449.1619	483.8693	529.6715	587.3308	614.6055	705.2731	817.5181	823.4717	871.1166	885.7989	922.5999	945.8789	958.5796	1008.7428	1024.1926	1038.2896	1053.576	1068.6531	1130.1938	1137.9691	1153.261	1191.8754	1205.0727	1234.2541	1250.5923	1260.6495	1271.0152	1287.9251	1345.7216	1354.5443	1408.7974	1413.6975	1425.6751	1480.833	1485.2014	1490.0794	1493.4797	1494.5315	1497.2653	1527.5046	2979.7387	3019.6425	3024.9134	3031.4538	3036.6898	3057.2628	3080.5138	3083.3285	3086.8175	3090.2907	3098.3518	3107.2167	3118.1805	3825.3841
CC12CC(C)(C1)C(O)C2	C[C@@]12C[C@@](C)(C1)[C@@H](O)C2	
InChI=1S/C8H14O/c1-7-3-6(9)8(2,4-7)5-7/h6,9H,3-5H2,1-2H3	InChI=1S/C8H14O/c1-7-3-6(9)8(2,4-7)5-7/h6,9H,3-5H2,1-2H3/t6-,7-,8+/m0/s1
