22
gdb 120162	3.36913	0.91692	0.83007	1.4848	83.51	-0.2399	0.0704	0.3102	1503.1135	0.193975	-404.276277	-404.266949	-404.266005	-404.31091	35.418	
C	 0.0769565143	 1.5276073742	-0.0896387465	-0.382795
C	-0.0569912241	 0.0101793451	 0.0570350253	-0.155516
C	-1.4751560225	-0.4977362766	-0.2419954902	-0.243802
C	-1.5792505074	-2.0075387821	-0.124571074	 0.052647
N	-1.3870127065	-2.6701811395	 1.2698619876	-0.151784
C	-2.8435369838	-2.27348608	 1.5554780991	-0.247105
C	-2.8961585023	-2.7781090371	 0.090566485	 0.325088
O	-3.9415699072	-2.8002810112	-0.8174650022	-0.467213
C	-1.9843585237	-3.9203696753	 0.6100934223	-0.231416
H	 1.0962701478	 1.8605141807	 0.1295067837	 0.111802
H	-0.1681141255	 1.8522432039	-1.1073244027	 0.112147
H	-0.5983356113	 2.0535484971	 0.5947186914	 0.112717
H	 0.6540005337	-0.4884453468	-0.6147541787	 0.093927
H	 0.2212380326	-0.2959578395	 1.0719376524	 0.117765
H	-2.1911273546	 0.01726886	 0.4067591301	 0.097474
H	-1.7550369306	-0.2286956175	-1.2695899152	 0.106094
H	-0.9022368484	-2.4720611849	-0.8516194944	 0.070692
H	-3.3093442717	-2.8937422117	 2.3265498971	 0.094599
H	-2.9931140372	-1.2151753958	 1.7660315199	 0.10626
H	-4.6526929193	-3.3433906266	-0.4599226967	 0.281694
H	-1.3102276207	-4.4079266653	-0.0987793093	 0.102643
H	-2.3989829316	-4.629607961	 1.331736996	 0.094081
54.5665	86.2585	111.7587	238.513	241.8568	248.55	309.9972	338.5163	404.6336	469.0605	602.0921	613.7179	638.7872	727.5317	760.8322	803.0173	857.2819	899.1012	907.4773	923.6968	965.0203	982.0111	1045.9293	1055.3577	1065.3321	1096.8166	1122.5029	1126.2798	1170.3131	1176.9728	1187.6866	1191.2354	1244.9203	1262.7626	1290.8053	1308.4432	1326.3586	1357.2853	1387.6616	1414.8267	1448.306	1481.8137	1493.8497	1500.3458	1509.0773	1515.6218	1554.8146	3020.7198	3024.8522	3028.6562	3030.6812	3050.8028	3058.5752	3065.7239	3077.618	3096.4471	3101.3619	3121.2142	3143.3995	3805.4706
CCCC1N2CC1(O)C2	CCC[C@H]1N2C[C@]1(O)C2	
InChI=1S/C7H13NO/c1-2-3-6-7(9)4-8(6)5-7/h6,9H,2-5H2,1H3	InChI=1S/C7H13NO/c1-2-3-6-7(9)4-8(6)5-7/h6,9H,2-5H2,1H3/t6-/m1/s1
