21
gdb 99933	3.47545	0.7105	0.68171	1.2942	102.17	-0.2383	-0.0063	0.232	1765.1709	0.178683	-349.915203	-349.9042	-349.903256	-349.951085	40.531	
C	-0.1010307936	 1.5245496664	 0.1581203158	-0.407397
C	 0.0158578	 0.0073996416	-0.0218699315	-0.172148
C	 0.7495460314	-0.4727563177	-1.3125275573	-0.010505
C	 0.0111641967	 0.0030675228	-2.5865029149	-0.402882
C	 2.2142786795	 0.0255144545	-1.3424908378	-0.402887
C	 0.7540591385	-1.9378242671	-1.2941416985	 0.536008
C	 0.7514755569	-3.1487289269	-1.2678146621	-0.354578
C	 0.7504973441	-4.5095412878	-1.2416451486	 0.303599
C	 0.7488942685	-5.717111488	-1.2172702461	-0.583973
H	 0.8778309651	 2.009647694	 0.2158272996	 0.120991
H	-0.6626402602	 1.9942802551	-0.6547600239	 0.120986
H	-0.6299284298	 1.7467643461	 1.0900512021	 0.11842
H	 0.539430125	-0.4211873269	 0.8402173245	 0.107198
H	-0.9861004496	-0.4365457215	-0.0212898694	 0.107197
H	 0.0352146982	 1.0940101534	-2.6606584406	 0.117425
H	 0.4873490113	-0.4073928669	-3.481006315	 0.1253
H	-1.0331364807	-0.321891937	-2.5787818842	 0.123422
H	 2.7518956171	-0.2832073251	-0.4414446661	 0.123419
H	 2.7406737379	-0.384539174	-2.2085902736	 0.125301
H	 2.2484851554	 1.1165532006	-1.41103149	 0.117428
H	 0.7480771082	-6.7783628457	-1.1967446323	 0.187677
71.9445	74.8494	101.6497	202.6115	209.9781	227.6957	260.6343	273.4282	288.5652	337.404	355.8093	390.4418	496.2148	502.5137	537.4738	545.2091	598.4275	603.1124	641.8385	783.9494	790.9465	913.116	939.7411	1001.7758	1022.1776	1057.8237	1071.4841	1085.7065	1205.6347	1216.6377	1265.5017	1321.8839	1366.8159	1394.8739	1408.6197	1421.694	1480.7372	1480.9858	1484.2448	1503.2367	1507.6058	1507.9196	1510.043	2178.1769	2356.6517	3034.6023	3040.4224	3041.4953	3046.1882	3070.1021	3106.2126	3112.1462	3117.5207	3119.2939	3119.5604	3121.0598	3506.236
CCC(C)(C)C#CC#C	CCC(C)(C)C#CC#C	
InChI=1S/C9H12/c1-5-7-8-9(3,4)6-2/h1H,6H2,2-4H3	InChI=1S/C9H12/c1-5-7-8-9(3,4)6-2/h1H,6H2,2-4H3
