16
gdb 123607	4.08173	1.60861	1.26731	5.4211	73.67	-0.2407	0.0044	0.2452	957.2366	0.12881	-396.922512	-396.916302	-396.915358	-396.95306	25.014	
C	-0.0092768328	 1.4905307808	 0.0680196065	-0.284564
C	 1.3095585754	 0.7674248543	 0.0221789059	-0.043628
C	 2.0043281564	 0.4310961551	 1.3454751978	-0.194162
N	 1.0223596859	-0.443573603	 1.9800224716	 0.05693
N	 1.0028724431	-1.0398373245	 3.1792856082	-0.175499
N	-0.0983040439	-1.7482916306	 3.2150981197	-0.191431
C	-0.7841711507	-1.5946965312	 2.0420113052	-0.225378
C	-0.065568724	-0.747241819	 1.2317312997	 0.371259
C	-0.0011570583	-0.021624977	-0.0534030296	-0.196397
H	-0.3440137858	 1.9214125153	 1.0063029668	 0.132334
H	-0.2882047054	 2.0560624951	-0.8142934269	 0.125525
H	 1.9341894746	 0.8837442308	-0.8543556788	 0.107718
H	 2.9463587981	-0.1041954929	 1.1912405981	 0.139507
H	 2.2011371236	 1.3067948467	 1.9704115176	 0.143344
H	-1.7242164326	-2.0926308194	 1.8718377898	 0.121806
H	-0.3390184936	-0.4917208505	-0.9676869916	 0.112634
151.027	200.8487	327.9024	419.9146	429.3389	598.7932	704.8756	711.7195	720.7872	791.2587	801.9469	824.3997	836.4191	889.367	972.2225	998.0086	1006.0799	1049.6842	1076.9439	1098.0878	1111.5202	1124.0887	1170.6335	1191.8643	1213.7391	1250.7584	1258.9684	1293.7723	1339.56	1356.034	1376.4229	1468.1653	1487.4957	1517.4979	1595.5104	3055.7442	3098.6721	3130.7259	3192.2982	3200.0524	3221.9354	3275.8365
C1C2CN3N=NC=C3C12	C1[C@H]2Cn3nncc3[C@@H]12	
InChI=1S/C6H7N3/c1-4-3-9-6(5(1)4)2-7-8-9/h2,4-5H,1,3H2	InChI=1S/C6H7N3/c1-4-3-9-6(5(1)4)2-7-8-9/h2,4-5H,1,3H2/t4-,5-/m0/s1
