16
gdb 54785	3.89597	1.29093	1.18077	5.9719	68.71	-0.2404	-0.0316	0.2088	1042.9196	0.126927	-437.870956	-437.864194	-437.86325	-437.902322	26.894	
O	 0.1945325279	 0.3766884585	-0.9612136261	-0.339332
C	-0.0472300248	 1.0804271874	-0.0141769087	 0.396834
O	 0.8205563079	 1.2616949267	 0.9878063757	-0.376557
C	-1.3823588237	 1.8212181052	 0.1018453946	-0.111043
C	-2.1246167904	 1.7800764958	 1.4955593311	-0.067874
N	-1.1111670156	 2.8115478456	 1.9326397039	-0.334568
H	-1.4629142918	 3.4351058865	 2.6595396586	 0.219146
H	 0.3827224244	 1.8766028424	 1.6304800672	 0.31229
C	-1.3427732309	 3.3393728017	 0.5362814964	-0.067872
C	-2.8448878947	 3.6735594224	 0.5348007405	-0.087727
C	-3.369504174	 2.6272716744	 1.178464871	-0.087724
H	-1.9835232297	 1.5849900067	-0.7721119786	 0.109015
H	-2.2163549008	 0.8720453805	 2.0897342889	 0.095053
H	-0.6226193645	 4.0505546677	 0.1343132223	 0.095054
H	-3.3144925945	 4.5332540961	 0.0801838384	 0.122652
H	-4.3952590849	 2.3777882323	 1.4062034748	 0.122652
100.2671	183.4447	240.9174	371.7547	417.6315	526.707	574.2759	688.3327	712.4834	713.8996	761.9968	842.8323	858.9197	904.3721	910.6596	924.5961	925.5882	935.9314	963.9226	974.5394	1019.21	1105.4285	1126.2924	1153.5628	1196.755	1229.9949	1239.3414	1258.4534	1294.3969	1297.231	1313.2913	1326.8779	1492.2112	1615.9432	1851.2137	3135.624	3136.5669	3161.6694	3233.4003	3259.8416	3281.4398	3452.6132
[O-]C(=O)C1C2[NH2+]C1C=C2	O=C(O)[C@H]1[C@H]2N[C@@H]1C=C2	
InChI=1S/C6H7NO2/c8-6(9)5-3-1-2-4(5)7-3/h1-5,7H,(H,8,9)	InChI=1S/C6H7NO2/c8-6(9)5-3-1-2-4(5)7-3/h1-5,7H,(H,8,9)/t3-,4+,5-
