17
gdb 12553	3.52276	1.90164	1.31388	1.3694	66.02	-0.2455	0.0132	0.2586	928.6205	0.143511	-401.001634	-400.994217	-400.993273	-401.033485	27.627	
C	 0.2498691042	 1.5710764982	 0.014628626	-0.389267
C	-0.053741306	 0.0689797515	-0.0261844242	 0.042495
C	 0.5267962256	-0.5517065525	-1.2992478653	-0.095811
O	 0.146885097	-1.9091102171	-1.4714705352	-0.218111
C	 0.8670359007	-2.7893749725	-0.6867546338	 0.017384
O	 0.4669076935	-2.8608568774	 0.6794009542	-0.225445
C	 0.5255107287	-1.7525825948	 1.4723378162	 0.117915
N	 0.365275266	-0.5260367797	 1.2359994681	-0.259596
H	 1.3306880039	 1.7464843326	 0.0415401623	 0.118822
H	-0.1622948317	 2.0839771633	-0.8601284583	 0.109105
H	-0.1812301579	 2.0118830663	 0.9157236341	 0.130829
H	-1.1442987772	-0.0667045357	-0.0834421383	 0.103439
H	 0.145585012	-0.0172435738	-2.1742041551	 0.113741
H	 1.6255336688	-0.4667825404	-1.2933800679	 0.094393
H	 0.6943487306	-3.7945543857	-1.0742133008	 0.125894
H	 1.9408499807	-2.5406884602	-0.7114707355	 0.093597
H	 0.707501771	-2.0717495522	 2.4993111935	 0.120615
74.9156	160.8279	218.8284	282.068	325.786	377.2548	438.2709	454.2646	561.9592	595.5944	789.9055	802.9039	908.2828	932.4957	939.0629	967.555	1003.3881	1073.0169	1103.6758	1128.3489	1162.5904	1172.847	1217.6792	1284.8849	1308.3824	1342.6132	1368.5282	1399.7528	1411.7602	1432.9502	1453.8839	1482.2146	1488.9724	1499.4126	1505.3537	1756.4448	2968.0759	2979.56	3000.3238	3039.0083	3087.3997	3106.8837	3123.8318	3130.6831	3131.7666
CC1COCOC=N1	C[C@H]1COCOC=N1	
InChI=1S/C5H9NO2/c1-5-2-7-4-8-3-6-5/h3,5H,2,4H2,1H3	InChI=1S/C5H9NO2/c1-5-2-7-4-8-3-6-5/h3,5H,2,4H2,1H3/t5-/m0/s1
