19
gdb 10312	2.43137	1.75142	1.0829	3.2431	72.44	-0.2848	0.0188	0.3036	1123.1566	0.163022	-365.073763	-365.064015	-365.063071	-365.108236	34.209	
C	 0.0152154718	 1.3809318665	-0.2153999132	-0.25148
O	-0.0179544693	 0.0182992924	 0.1717492927	-0.234539
C	-1.2929720805	-0.5763262117	 0.1025106623	 0.000154
C	-1.7381406097	-0.6819556423	-1.3084104964	 0.275307
N	-2.068119623	-0.7491516852	-2.4140387338	-0.335459
C	-1.2302331115	-1.9603664613	 0.7824090683	 0.012913
C	-0.7723833253	-1.8056943498	 2.2376361827	-0.401084
C	-2.5774047457	-2.6870031938	 0.6900720668	-0.411154
H	 1.0439673584	 1.7198797088	-0.0803852291	 0.138455
H	-0.2717547577	 1.5112897236	-1.2672582517	 0.135924
H	-0.6508208429	 1.9913417273	 0.4122692493	 0.112412
H	-2.0363453236	 0.0474333085	 0.6296605004	 0.10621
H	-0.4755888037	-2.5379623545	 0.2347643105	 0.102524
H	-1.5078242103	-1.2374183303	 2.8200299191	 0.111557
H	-0.6670616591	-2.7884325122	 2.7067261669	 0.117304
H	 0.1858302698	-1.2871324972	 2.2981041197	 0.137273
H	-2.8961832308	-2.8304267228	-0.3459031065	 0.143607
H	-2.5045726776	-3.6721460452	 1.1595780705	 0.122795
H	-3.3630778995	-2.1293974407	 1.2135918313	 0.117279
67.1983	101.6612	148.1476	180.5239	198.2827	217.4472	247.2069	275.5362	331.4026	371.3698	431.2541	442.9129	539.893	611.1921	847.1245	893.1527	935.9212	960.0146	990.3098	996.1025	1133.8858	1141.8419	1164.5848	1184.5519	1194.1577	1230.1339	1294.6207	1342.645	1360.3088	1376.5314	1399.6361	1423.498	1479.4715	1487.1808	1489.3847	1491.4587	1503.9476	1508.6321	1514.5026	2349.9517	2954.2954	2991.7477	3031.9476	3033.0297	3043.1376	3053.1515	3098.0701	3104.7046	3120.3396	3131.5574	3138.9153
COC(C#N)C(C)C	CO[C@@H](C#N)C(C)C	
InChI=1S/C6H11NO/c1-5(2)6(4-7)8-3/h5-6H,1-3H3	InChI=1S/C6H11NO/c1-5(2)6(4-7)8-3/h5-6H,1-3H3/t6-/m0/s1
