20
gdb 13627	3.86617	1.23411	1.04792	2.705	71.27	-0.2524	0.0605	0.3129	1183.8502	0.175971	-386.124468	-386.115413	-386.114469	-386.157982	33.984	
C	-0.0126935853	 1.546332727	-0.0160765139	-0.384553
C	-0.0343527173	 0.0169468782	 0.0223816855	-0.188324
C	-1.4475306334	-0.5709667424	 0.030154626	 0.111317
O	-2.1985484316	-0.1489481834	-1.1295779832	-0.437848
C	-1.4545374658	-2.0832662941	 0.1449133361	-0.082508
C	-1.9081250327	-2.7610700488	 1.426040474	-0.314286
C	-2.7979241072	-2.7674985416	 0.2163821589	 0.117743
O	-3.9429491587	-1.970248817	 0.2398076047	-0.43385
H	 1.0118308728	 1.9266123993	-0.0664333953	 0.110596
H	-0.562419739	 1.9185282018	-0.8844994452	 0.128107
H	-0.4823856769	 1.968186989	 0.8792596066	 0.116791
H	 0.509010291	-0.3896045497	-0.8433256531	 0.085166
H	 0.4929206846	-0.3521164996	 0.9107878721	 0.106488
H	-2.0121409017	-0.1420586283	 0.8641340643	 0.098551
H	-1.78579815	-0.5505753694	-1.9030465627	 0.280199
H	-0.6756925531	-2.5856024419	-0.4260020014	 0.077729
H	-1.4216583659	-3.683275072	 1.7237815481	 0.110735
H	-2.2141737957	-2.1190990288	 2.2451587368	 0.121957
H	-2.9129585342	-3.7111063602	-0.3169989075	 0.082093
H	-3.81744446	-1.2954545281	-0.4430265208	 0.293897
79.2443	111.2493	144.8618	211.5641	245.9632	263.0595	326.1475	366.4442	416.3667	435.7477	510.2234	579.9203	631.891	772.436	799.3827	834.4403	864.2269	912.5022	962.7151	1001.2169	1015.8687	1052.7467	1062.5992	1087.114	1118.6745	1132.4124	1166.5482	1170.9488	1235.7292	1255.5665	1282.8541	1325.4465	1371.6108	1386.3093	1403.9794	1406.7113	1422.3924	1427.1949	1479.5661	1481.9959	1495.5257	1508.8199	3003.6114	3038.4614	3051.8867	3069.4557	3096.1721	3103.5924	3121.4287	3122.4511	3134.9763	3224.4482	3722.5103	3793.3258
CCC(O)C1CC1O	CC[C@@H](O)[C@H]1C[C@H]1O	
InChI=1S/C6H12O2/c1-2-5(7)4-3-6(4)8/h4-8H,2-3H2,1H3	InChI=1S/C6H12O2/c1-2-5(7)4-3-6(4)8/h4-8H,2-3H2,1H3/t4-,5-,6-/m1/s1
