20
gdb 81731	2.98018	1.27189	1.064	1.8293	86.85	-0.2295	0.0236	0.2531	1211.7828	0.169146	-365.940765	-365.931467	-365.930523	-365.974232	35.729	
C	-1.0273689828	 1.3436059228	-0.2069137938	-0.410094
C	-0.3583470564	-0.0209102703	-0.2155605297	 0.058594
C	 0.6436842742	-0.4381546236	-1.3434117382	-0.077781
C	 0.9976524784	 0.5008778568	-2.4892948733	-0.416497
C	 1.6732937948	-0.6517479949	-0.2209885637	 0.16805
C	 1.8167748098	 0.571316011	 0.6068491314	-0.278352
N	 0.6551020804	-0.2837950872	 0.8775694846	-0.17904
C	 2.5591898287	-1.7652855102	-0.1380649089	 0.189231
C	 3.3063741732	-2.7085741071	-0.1150763239	-0.392657
H	-0.3261227375	 2.1713384532	-0.3436569123	 0.116348
H	-1.7708518204	 1.4054948545	-1.0085695996	 0.120964
H	-1.5458206383	 1.4963659717	 0.7452858045	 0.131084
H	-1.1305302776	-0.7865110943	-0.1032393364	 0.089433
H	 0.3459291312	-1.406350099	-1.7536201387	 0.089256
H	 1.3227985116	 1.4844894573	-2.1393102533	 0.115126
H	 1.8084113042	 0.078396142	-3.0923169856	 0.127284
H	 0.1363760081	 0.6510595859	-3.1489588391	 0.118207
H	 2.5535914585	 0.5342971383	 1.4026936585	 0.131408
H	 1.68897862	 1.5520351111	 0.1571620774	 0.111076
H	 3.9635348397	-3.5417607682	-0.0801390998	 0.188359
106.3013	133.6555	184.0076	202.7179	203.4493	227.3759	317.8834	340.1807	443.7456	498.6844	523.3023	578.1119	593.1228	632.0953	653.9918	695.2993	747.8381	777.771	830.9436	904.7211	952.9373	1013.7533	1042.2698	1071.7898	1097.057	1121.2095	1132.5925	1143.196	1185.7717	1229.4147	1246.2396	1308.5061	1334.1859	1378.5601	1395.8324	1408.4924	1414.3302	1484.5714	1489.6181	1491.6204	1503.6455	1508.7633	2230.9919	3034.123	3039.583	3058.6054	3076.8633	3098.8585	3104.445	3108.7194	3113.1286	3121.7287	3206.7429	3503.1438
CC1C(C)C2(CN12)C#C	C[C@H]1[C@@H](C)[C@]2(CN12)C#C	
InChI=1S/C8H11N/c1-4-8-5-9(8)7(3)6(8)2/h1,6-7H,5H2,2-3H3	InChI=1S/C8H11N/c1-4-8-5-9(8)7(3)6(8)2/h1,6-7H,5H2,2-3H3/t6-,7+,8-,9?/m1/s1
