17
gdb 37486	2.99102	1.78056	1.46776	3.2686	66.68	-0.247	0.0769	0.3239	920.4018	0.137728	-458.907378	-458.900555	-458.899611	-458.938795	26.784	
C	 0.0497121707	 1.377482159	 0.02978166	 0.017434
O	 1.351039868	 1.8794430297	 0.0486624652	-0.216695
C	 2.004101562	 1.6740449673	-1.1974585707	-0.106535
C	 1.8984264351	 0.2217650611	-1.6713592214	-0.10422
C	 2.8815143312	-0.8346180898	-1.1496970177	 0.014066
O	 2.7383377299	-0.9100090293	 0.267513336	-0.223329
C	 1.8026345489	-1.6294766028	-0.5353731275	 0.003032
C	 0.7364945299	-0.6273912727	-1.0060748013	 0.082993
O	 0.0032690538	-0.0313065454	 0.0368330792	-0.253086
H	-0.4397611555	 1.6996543116	 0.9505164745	 0.121482
H	-0.4952463378	 1.7740002596	-0.8489181697	 0.070511
H	 1.5571832123	 2.341232383	-1.9526414157	 0.092297
H	 3.0456253992	 1.9747799045	-1.0532367729	 0.119168
H	 1.822468785	 0.176638219	-2.761135084	 0.086502
H	 3.8271768475	-1.1475519084	-1.5775830675	 0.106312
H	 1.7069726761	-2.6940869385	-0.3603035001	 0.109465
H	 0.0592224936	-1.056435768	-1.7559496963	 0.080603
114.0889	123.6489	263.2692	358.2815	426.4656	461.2039	556.7706	614.6931	701.714	766.281	801.2534	857.2598	880.1106	909.971	918.7498	962.8747	997.0259	1007.722	1038.284	1051.3993	1072.688	1115.1278	1160.3422	1189.0183	1208.3449	1238.586	1249.4954	1276.347	1288.0402	1331.0639	1343.7558	1356.6366	1394.1444	1410.2994	1447.2797	1491.5955	1512.0741	2912.9725	2969.0006	3017.4481	3075.8688	3086.7338	3116.6764	3180.8731	3199.9808
C1OCC2C3OC3C2O1	C1OC[C@H]2[C@H]3O[C@H]3[C@H]2O1	
InChI=1S/C6H8O3/c1-3-4(8-2-7-1)6-5(3)9-6/h3-6H,1-2H2	InChI=1S/C6H8O3/c1-3-4(8-2-7-1)6-5(3)9-6/h3-6H,1-2H2/t3-,4+,5-,6+/m1/s1
