22
gdb 11854	5.61077	1.05656	1.00106	0.2114	83.22	-0.2594	0.0888	0.3482	1280.5524	0.200133	-313.053212	-313.044577	-313.043633	-313.086554	33.015	
C	 0.0840426945	 1.4923144354	-0.1688062279	-0.378211
C	 0.0212797007	-0.0211296658	 0.060125277	-0.193793
C	-1.4001451512	-0.5677933866	 0.0767334764	 0.074829
C	-2.2093847625	-0.5806808159	-1.2594550461	-0.311884
C	-2.672962164	-2.0006780644	-0.9101363168	 0.391517
C	-4.1028130137	-2.4368384019	-0.768563381	-0.315567
C	-3.208694084	-3.065511293	-1.8162953075	-0.33115
C	-1.5991236157	-2.1111023335	 0.1798239316	-0.32795
H	 1.117767023	 1.8513928676	-0.1883391037	 0.110019
H	-0.3820050954	 1.7683747229	-1.1209862304	 0.118129
H	-0.4420282146	 2.034319904	 0.6251191524	 0.112438
H	 0.5923227694	-0.536488535	-0.7244640436	 0.089519
H	 0.5147722279	-0.2707355005	 1.0091900701	 0.09245
H	-1.9801377875	-0.0625045546	 0.8575743127	 0.06672
H	-2.9836805448	 0.1811191189	-1.3874017021	 0.093983
H	-1.5500996082	-0.5574928822	-2.1356790058	 0.092735
H	-4.3744207748	-3.0354585772	 0.0956839479	 0.107533
H	-4.8824779064	-1.7591577175	-1.1032765844	 0.107472
H	-3.3858771727	-2.8124887767	-2.8572564815	 0.107358
H	-2.8782098511	-4.0877057145	-1.6585150824	 0.10753
H	-0.7118544626	-2.6599484408	-0.1575356493	 0.092922
H	-1.9078381563	-2.5115857688	 1.1498446344	 0.093401
50.7317	100.9581	167.6753	231.3614	275.0609	301.2781	318.6907	408.9728	420.3414	535.2164	711.8302	776.0116	782.1694	819.3132	849.2243	896.8417	903.7359	922.4377	949.9492	967.4006	999.1624	1009.1541	1050.8082	1074.1235	1076.4759	1085.5542	1131.0414	1169.2583	1186.8981	1222.663	1233.3035	1247.2796	1255.1807	1278.3915	1305.6532	1345.0055	1374.2484	1398.07	1410.866	1463.433	1472.1976	1484.1593	1496.2439	1498.8618	1505.1943	1507.259	3007.2681	3026.1453	3027.9421	3030.1078	3032.7358	3045.9511	3084.7911	3088.0883	3095.7575	3101.181	3116.094	3120.6343	3193.2452	3208.5246
CCC1CC2(CC2)C1	CCC1CC2(CC2)C1	
InChI=1S/C8H14/c1-2-7-5-8(6-7)3-4-8/h7H,2-6H2,1H3	InChI=1S/C8H14/c1-2-7-5-8(6-7)3-4-8/h7H,2-6H2,1H3
