15
gdb 28838	3.52499	1.29087	0.94559	6.2863	86.21	-0.2155	-0.0734	0.142	1162.1784	0.114258	-416.839178	-416.831473	-416.830529	-416.87169	29.323	
N	 0.0034298917	 1.3996494617	 0.0398171382	-0.5649
C	-0.0180661772	 0.017816606	 0.0166021251	 0.301092
C	-1.2308702453	-0.6375009951	 0.1029280215	-0.068882
N	-1.5371680536	-1.9495441797	 0.0221553342	-0.228223
C	-0.7654384797	-2.9784944362	-0.1122594165	-0.075368
C	 0.7001652163	-3.1170786065	-0.2123602044	 0.308811
O	 1.1983526032	-4.2364472539	-0.2847615657	-0.363767
C	 1.5677297314	-1.9307816481	-0.2412746183	-0.16213
C	 1.2628656859	-0.6181497304	-0.1521311203	-0.109927
H	 0.8537618392	 1.8447948476	 0.3465480218	 0.261822
H	-0.8343288436	 1.8628113488	 0.3570974722	 0.263124
H	-2.1043346329	 0.0009777169	 0.2434606386	 0.090586
H	-1.2610281961	-3.9506632535	-0.1521456357	 0.121339
H	 2.6149892223	-2.1972193793	-0.3592897674	 0.123161
H	 2.1007941185	 0.0746500616	-0.2163980333	 0.103263
53.4576	152.9275	304.9492	339.9937	357.8265	366.0054	414.3041	419.605	501.8694	523.6541	610.6055	663.7808	707.2097	756.0762	833.6976	867.5754	896.3752	925.2757	957.1502	1039.6992	1071.5879	1188.1713	1247.5287	1310.3364	1312.8577	1412.1679	1428.2984	1488.716	1532.1286	1639.1023	1653.9957	1669.46	1707.4864	3104.4671	3112.9265	3133.2078	3174.173	3583.4074	3691.3537
NC1=CN=CC(=O)C=C1	Nc1cncc(=O)cc1	
InChI=1S/C6H6N2O/c7-5-1-2-6(9)4-8-3-5/h1-4H,7H2	InChI=1S/C6H6N2O/c7-5-1-2-6(9)4-8-3-5/h1-4H,7H2
