15
gdb 71385	2.72311	1.81774	1.29402	2.0109	65.35	-0.2399	0.0015	0.2414	945.5411	0.111016	-457.720008	-457.712207	-457.711263	-457.751926	30.227	
O	-0.0253022499	 1.3193526048	-0.0409179538	-0.47008
C	 0.0255527758	-0.0497186798	-0.0568666076	 0.394878
C	 0.8254809009	-0.9049388701	-1.0309921798	-0.287924
C	-0.0055920427	-2.0978673089	-0.4569936392	-0.198439
C	-1.0785659049	-1.0712506443	 0.0507457063	-0.234581
C	-0.0789951531	-0.8224429014	 1.2587396156	 0.181725
O	-0.2467122186	-0.0773215987	 2.3926059691	-0.471469
C	 0.4467725106	-2.1996599104	 1.0236226905	 0.372172
O	 0.7939787311	-3.0967418471	 1.7412867444	-0.353118
H	-0.0471078843	 1.6078785513	 0.8811749216	 0.303655
H	 0.5553949469	-0.6875739341	-2.0678333997	 0.118898
H	 1.9142757357	-0.9423777694	-0.916893482	 0.107778
H	-0.2104029316	-2.9925967837	-1.0351676023	 0.103219
H	-2.1566957298	-1.0710132935	 0.085712632	 0.122711
H	-0.6725074461	-0.6161463247	 3.0692598546	 0.310578
115.747	209.4974	228.3945	261.1202	293.5123	321.631	413.005	451.2844	516.8521	565.7576	656.4723	685.8568	713.0684	785.3823	821.3569	837.6139	910.5342	920.3139	934.3044	999.8431	1044.4507	1082.3693	1111.9254	1152.8952	1192.9036	1197.3986	1267.345	1284.2706	1349.8166	1423.4637	1453.2116	1504.2491	1867.4462	3044.2442	3110.2856	3183.9907	3250.1497	3768.2141	3800.3812
OC12CC3C1C2(O)C3=O	O[C@]12C[C@@H]3[C@H]1[C@@]2(O)C3=O	
InChI=1S/C6H6O3/c7-4-2-1-5(8)3(2)6(4,5)9/h2-3,8-9H,1H2	InChI=1S/C6H6O3/c7-4-2-1-5(8)3(2)6(4,5)9/h2-3,8-9H,1H2/t2-,3-,5-,6-/m1/s1
