20
gdb 73627	2.22978	1.97184	1.49389	1.8158	77.36	-0.2443	0.0273	0.2716	990.7218	0.173428	-403.195753	-403.188075	-403.18713	-403.227686	30.721	
C	-0.090088088	 1.5612352209	 0.146531084	-0.452722
C	 0.0120120108	 0.0484084011	 0.0484631839	 0.383917
C	-1.3346804297	-0.6932111621	-0.0292302927	-0.244506
C	-1.0628005671	-2.0752696168	 0.588310663	-0.220564
C	-0.1004151065	-1.7602090483	 1.7473315546	-0.209983
C	 0.8287944912	-0.6641507724	 1.1850749364	-0.035473
N	 2.0098695123	-1.2333130437	 0.5101081321	-0.273181
C	 1.8694798937	-0.9658822106	-0.7208799866	 0.103167
O	 0.7959565733	-0.269079013	-1.150918615	-0.261246
H	 0.9050879497	 2.0149146146	 0.1714241753	 0.127156
H	-0.6342076916	 1.9746913287	-0.7083390442	 0.126348
H	-0.6209126479	 1.8457321098	 1.0607685208	 0.118997
H	-2.0725535246	-0.1509867006	 0.5741781828	 0.098393
H	-1.7083210829	-0.727593315	-1.0557658324	 0.109092
H	-1.9744324671	-2.5826078763	 0.9145346665	 0.09657
H	-0.5714439863	-2.7257786376	-0.1435725103	 0.113357
H	-0.6614246649	-1.3626340813	 2.6017019561	 0.094294
H	 0.470610972	-2.6240694756	 2.0942935477	 0.113625
H	 1.164975539	 0.0248002787	 1.9659974445	 0.078387
H	 2.5607371445	-1.2527190204	-1.5068704565	 0.134371
88.5551	197.3259	238.9912	264.2368	327.0524	351.6389	418.8831	525.4789	583.528	588.2895	641.0585	789.103	806.7035	839.4861	885.9768	910.0006	927.9526	928.412	961.8588	966.7984	996.5982	1038.6848	1053.5253	1120.0262	1126.3375	1149.4501	1199.6669	1217.4681	1227.8637	1264.703	1289.9935	1313.4803	1329.5155	1338.6536	1348.7323	1367.619	1408.8001	1473.5288	1483.7052	1485.9198	1493.6634	1501.0364	1699.3494	3033.982	3035.1438	3040.0545	3049.5011	3058.5402	3096.7674	3103.2198	3109.5697	3111.7765	3113.6378	3204.1008
CC12CCCC1N=CO2	C[C@]12CCC[C@H]1N=CO2	
InChI=1S/C7H11NO/c1-7-4-2-3-6(7)8-5-9-7/h5-6H,2-4H2,1H3	InChI=1S/C7H11NO/c1-7-4-2-3-6(7)8-5-9-7/h5-6H,2-4H2,1H3/t6-,7+/m1/s1
