21
gdb 92662	2.30561	1.76539	1.51126	2.5185	76.81	-0.2431	0.0687	0.3118	1008.112	0.185893	-424.217867	-424.210109	-424.209165	-424.250272	31.124	
O	-0.3941149513	 1.3062814253	 1.0869161211	-0.441087
C	-0.100377355	 0.2027253472	 0.2660981504	 0.129865
C	 0.532032716	-1.0221472608	 0.9867184893	-0.260614
C	-0.8213706181	-1.7826898501	 0.8877580773	-0.039529
C	-1.6503638796	-1.7637914241	 2.1709510202	-0.098159
O	-2.1395492508	-0.4524971999	 2.4500279588	-0.256429
C	-3.1752425889	-0.0878106804	 1.5374815445	-0.089152
C	-2.7258308579	-0.1217048921	 0.0528101167	-0.252299
C	-1.3197532082	-0.7030849256	-0.1332425605	-0.027348
H	-0.8545813879	 0.9546910253	 1.8646987326	 0.288736
H	 0.4664309949	 0.6028540096	-0.5788501297	 0.077584
H	 1.3290058974	-1.4963586952	 0.4078534565	 0.098275
H	 0.9080856725	-0.8190982768	 1.9944800054	 0.099096
H	-0.7567727509	-2.8069636364	 0.5094575113	 0.065131
H	-2.5045451572	-2.4554812112	 2.0970287335	 0.089968
H	-1.0495970311	-2.0605357306	 3.037146405	 0.109561
H	-4.0279457614	-0.7650388432	 1.695873989	 0.097928
H	-3.4856305684	 0.9160402248	 1.8357688677	 0.117849
H	-3.4464467535	-0.7086464379	-0.5261906115	 0.098139
H	-2.7365968652	 0.8915507689	-0.3604836834	 0.120585
H	-1.1991198155	-1.0515894567	-1.1628169043	 0.071901
61.5657	138.1305	224.2658	285.1576	394.4536	409.1395	419.8688	478.1594	570.4672	668.906	696.2398	721.5983	783.3781	799.6315	850.2215	879.6986	901.1158	926.5361	954.5562	1001.9008	1025.6211	1050.8437	1077.4296	1095.4162	1118.9194	1139.0207	1157.061	1187.3162	1235.7776	1251.3375	1262.1817	1276.9054	1292.6306	1302.6717	1339.6241	1346.4589	1352.3739	1362.1094	1394.5946	1418.9159	1469.904	1478.1984	1482.4622	1494.5171	1509.8886	2977.4621	2989.1173	3041.8411	3047.608	3055.9714	3065.6664	3071.8589	3076.5876	3081.2501	3104.6192	3106.2327	3692.0893
OC1CC2COCCC12	O[C@H]1C[C@H]2COCC[C@@H]12	
InChI=1S/C7H12O2/c8-7-3-5-4-9-2-1-6(5)7/h5-8H,1-4H2	InChI=1S/C7H12O2/c8-7-3-5-4-9-2-1-6(5)7/h5-8H,1-4H2/t5-,6+,7-/m0/s1
