17
gdb 28152	4.98451	1.21773	0.99062	3.8593	82.61	-0.1855	0.005	0.1905	1171.2039	0.138651	-380.918918	-380.911472	-380.910528	-380.950619	28.952	
C	-0.0193388016	 1.4539777684	 0.0457094056	-0.486028
C	-0.0010291105	-0.0391217505	-0.0182006632	 0.301206
C	-0.0371961589	-0.8228664766	-1.1182532893	-0.294056
C	 0.0014389042	-2.2231233188	-0.699201118	 0.29568
C	 0.0612338375	-2.2688049792	 0.6687417312	 0.284617
C	 0.0666375971	-0.8969126484	 1.2584424461	-0.45908
N	 0.0946136837	-3.5989000206	 0.9905395806	-0.379779
C	 0.0526157991	-4.2821096972	-0.2071489857	-0.021678
N	-0.0040370432	-3.4789963659	-1.2509417252	-0.348808
H	 0.8795547849	 1.8536792316	 0.5337654018	 0.121087
H	-0.0746546538	 1.8874365388	-0.9566693069	 0.127047
H	-0.877178865	 1.8283852731	 0.619983017	 0.120939
H	-0.0866845104	-0.4704735829	-2.1408572647	 0.097647
H	 0.9693444352	-0.6672796618	 1.8402835856	 0.126765
H	-0.7889866025	-0.6929220738	 1.9160455859	 0.126771
H	 0.1400177767	-4.0162636378	 1.9049034001	 0.263587
H	 0.0669164475	-5.3614060082	-0.2394348807	 0.124081
133.7395	157.6707	217.2246	268.3289	306.8044	447.3394	470.3767	508.2957	520.3078	657.5388	730.1756	741.8852	774.3178	794.0974	853.528	857.8464	932.7097	969.3699	1007.7799	1057.2005	1079.3194	1127.6018	1147.1306	1154.9889	1208.0062	1272.9943	1290.861	1373.372	1407.1108	1420.3829	1442.8312	1456.9026	1477.3924	1489.2341	1509.4186	1575.0353	1654.8683	3008.1415	3022.1936	3047.1877	3051.8874	3107.6377	3213.8339	3251.0321	3664.6644
CC1=CC2=C(C1)NC=N2	CC1=Cc2c(C1)[nH]cn2	
InChI=1S/C7H8N2/c1-5-2-6-7(3-5)9-4-8-6/h2,4H,3H2,1H3,(H,8,9)	InChI=1S/C7H8N2/c1-5-2-6-7(3-5)9-4-8-6/h2,4H,3H2,1H3,(H,8,9)
