16
gdb 25584	3.79147	1.17111	0.95547	2.2328	71.23	-0.2181	0.0078	0.2259	1188.5838	0.1273	-434.135971	-434.128098	-434.127153	-434.168939	28.791	
O	 1.0663424416	 1.0938212398	 1.5117543542	-0.346337
C	 0.496353103	 1.4277667954	 0.4850385111	 0.162742
N	 1.0748457463	 1.4784248271	-0.7332673676	-0.256856
C	 2.4792146088	 1.1104497297	-0.9466065271	-0.29595
C	 3.462666987	 2.107334184	-0.4188858424	 0.339516
N	 4.3089325259	 2.814694076	-1.1392599287	-0.301876
C	 5.0115192444	 3.5718397444	-0.2304257701	-0.095967
C	 4.5784590217	 3.3173606824	 1.0459030038	-0.109453
N	 3.5916379542	 2.3716820138	 0.9121447271	-0.255192
H	-0.5711660216	 1.7154497258	 0.4638475513	 0.093907
H	 0.5474292357	 1.8550313804	-1.5043718704	 0.261648
H	 2.6357134357	 0.1328120584	-0.4780469342	 0.142807
H	 2.6470632841	 1.0104762452	-2.0190348934	 0.144513
H	 5.7873286836	 4.2526875963	-0.5458764534	 0.104052
H	 4.8710452399	 3.7069530861	 2.0067253007	 0.12681
H	 2.9915604096	 1.9670881253	 1.619559129	 0.285635
79.1463	117.3226	140.1755	231.3102	266.3038	335.0023	427.7945	509.5124	629.4325	683.0704	729.7757	735.5027	749.4359	815.605	854.226	934.4665	941.8427	993.1458	1006.5061	1034.2415	1110.9004	1134.2286	1184.2551	1209.8523	1276.882	1303.3939	1378.1288	1409.7946	1423.6389	1461.1458	1466.8606	1505.3581	1524.6162	1586.4745	1774.5763	2965.4697	3053.821	3142.3442	3248.4158	3280.016	3581.4972	3642.7108
O=CNCC1=NC=CN1	O=CNCc1ncc[nH]1	
InChI=1S/C5H7N3O/c9-4-6-3-5-7-1-2-8-5/h1-2,4H,3H2,(H,6,9)(H,7,8)	InChI=1S/C5H7N3O/c9-4-6-3-5-7-1-2-8-5/h1-2,4H,3H2,(H,6,9)(H,7,8)
