17
gdb 69462	2.91594	1.32164	1.26884	3.4345	68.33	-0.242	-0.0255	0.2165	1060.156	0.13487	-458.949637	-458.941493	-458.940549	-458.982433	30.785	
O	-0.4210379647	 1.3395628028	 0.1695218528	-0.465393
C	-0.1854096701	-0.0284586996	 0.1004936856	 0.380258
C	-0.2531150637	-0.7690919334	-1.2102846192	-0.362902
C	-1.320553952	-0.9808669423	-0.1537713197	-0.118665
C	-1.0888153056	-2.147329769	 0.8010132141	 0.003591
O	 0.2654994186	-2.0515424834	 1.2045287531	-0.251009
C	 0.65318121	-0.6774335983	 1.1951028408	-0.149625
C	-2.0673264297	-2.0639375348	 1.9683206709	 0.149306
O	-1.7680814151	-1.7529298476	 3.0892766179	-0.233506
H	 0.3393138218	 1.7958554253	-0.2067880093	 0.289116
H	-0.5564664415	-0.1892229338	-2.0749404108	 0.119955
H	 0.4576711521	-1.5666753454	-1.4039698043	 0.126043
H	-2.323529984	-0.6136051669	-0.3340518135	 0.10916
H	-1.2214844173	-3.1274189374	 0.3203669133	 0.102789
H	 1.7334050545	-0.6502718426	 1.0154799404	 0.102629
H	 0.4316981815	-0.1871843672	 2.151694155	 0.124962
H	-3.1198075549	-2.3109794062	 1.688719283	 0.073294
77.1804	137.8314	187.8074	278.7293	300.4606	315.7586	356.3715	397.0503	436.0556	577.2251	666.5832	725.095	785.8625	794.7196	872.068	918.3259	934.0629	952.8898	993.5429	1029.5056	1051.8727	1067.9377	1087.125	1092.3964	1148.3836	1206.662	1254.9116	1258.6373	1285.6323	1328.5276	1348.7767	1357.1748	1409.8117	1420.459	1483.4085	1517.134	1844.2896	2844.4401	3010.9381	3025.2247	3075.5848	3127.9274	3191.1793	3223.5667	3801.8246
OC12CC1C(OC2)C=O	O[C@]12C[C@H]1[C@@H](OC2)C=O	
InChI=1S/C6H8O3/c7-2-5-4-1-6(4,8)3-9-5/h2,4-5,8H,1,3H2	InChI=1S/C6H8O3/c7-2-5-4-1-6(4,8)3-9-5/h2,4-5,8H,1,3H2/t4-,5-,6-/m0/s1
