17
gdb 55220	2.92361	1.27603	1.01522	1.8847	68.06	-0.2579	-0.0333	0.2246	1172.8035	0.134853	-459.033744	-459.025054	-459.02411	-459.068474	30.999	
C	-0.8094680553	 0.1441517215	 0.5674538445	-0.475213
C	 0.517673161	 0.110251549	-0.1547841573	 0.352699
O	 1.5463887774	 0.5194395627	 0.329852194	-0.288791
C	 0.516051644	-0.4321380216	-1.5987500624	-0.000252
C	 1.8149570315	-1.1589034862	-1.9902951248	-0.248024
C	 1.4466412361	-2.6293466719	-1.7733081897	-0.359778
C	-0.0736508543	-2.6560440642	-1.8806961674	 0.428163
O	-0.8034787869	-3.5924393859	-2.0080099266	-0.325263
O	-0.5513827797	-1.3742925271	-1.7925285306	-0.226265
H	-1.5728557278	 0.6263734322	-0.0521574107	 0.149527
H	-1.1653961507	-0.8753567346	 0.7471967559	 0.161994
H	-0.6957947945	 0.672611027	 1.5141978112	 0.143932
H	 0.3080633472	 0.4250627978	-2.2503390392	 0.124977
H	 2.0507765407	-0.9686775505	-3.0400243159	 0.119476
H	 2.644373762	-0.8060583071	-1.3777404516	 0.147007
H	 1.883891738	-3.3249107058	-2.4902659572	 0.146319
H	 1.7157408211	-2.9815272552	-0.7708970622	 0.149491
36.2693	77.7534	112.0284	131.0468	245.9963	315.5587	415.214	459.7637	511.2126	546.1991	581.1167	676.8632	733.6133	755.4361	811.2696	879.7971	934.8655	977.2445	994.8966	1029.2144	1075.7059	1089.4507	1151.1318	1160.8288	1196.1972	1236.2055	1288.8125	1313.3458	1347.2136	1355.6518	1386.9383	1454.6273	1464.404	1469.2146	1501.3424	1814.2598	1891.2402	3041.0914	3047.6842	3057.9297	3079.8292	3108.6865	3131.4516	3145.1897	3159.8486
CC(=O)C1CCC(=O)O1	CC(=O)[C@H]1CCC(=O)O1	
InChI=1S/C6H8O3/c1-4(7)5-2-3-6(8)9-5/h5H,2-3H2,1H3	InChI=1S/C6H8O3/c1-4(7)5-2-3-6(8)9-5/h5H,2-3H2,1H3/t5-/m1/s1
