18
gdb 78079	3.255	1.28955	1.10193	4.267	76.39	-0.2654	0.0279	0.2933	1135.6983	0.147238	-401.936772	-401.928054	-401.92711	-401.969795	32.918	
C	 0.0235691258	 1.5676493968	 0.0756286989	-0.500157
C	 0.0181999199	 0.0671407769	 0.0293005833	 0.307949
C	-1.2536611518	-0.7882509044	-0.1013069746	-0.298493
C	-0.6649344264	-1.8081565988	 0.9368025237	-0.140555
C	-0.5324691077	-3.2116352699	 0.5566155819	 0.271513
N	-0.4049907116	-4.3257978357	 0.2729998752	-0.345426
C	 0.6264669799	-0.9785396732	 1.0022335269	-0.183457
C	 1.1920969169	-0.7626456138	-0.3765289014	 0.067093
O	 1.0647614068	-1.6835728482	-1.4165459192	-0.420733
H	 1.0176623812	 1.9543386378	 0.3211331882	 0.123648
H	-0.2652002596	 1.9885501817	-0.8948351996	 0.132153
H	-0.679262794	 1.948005407	 0.8253164146	 0.120193
H	-2.1467690475	-0.2959564812	 0.287200415	 0.112333
H	-1.452040809	-1.1855864526	-1.0972172006	 0.134902
H	-1.2163857059	-1.7586400813	 1.8784963486	 0.127294
H	 1.2202967375	-0.8479220965	 1.8995981913	 0.096525
H	 2.1385387358	-0.2195385807	-0.3666552435	 0.093304
H	 1.4777012697	-2.514671074	-1.1570544688	 0.301913
105.7453	132.8335	194.6032	227.812	250.9074	274.8311	307.5531	319.7896	462.1393	502.3023	539.7242	591.4608	661.271	752.9108	801.4529	829.6758	903.0357	956.1531	970.4962	977.38	1021.8396	1034.4552	1072.8339	1112.5256	1140.5739	1171.6854	1218.3001	1239.0559	1256.7897	1297.498	1310.7995	1340.812	1342.4844	1418.1466	1464.6677	1484.4277	1491.7103	1503.6369	2347.5803	3024.4903	3080.0554	3084.538	3086.6298	3093.206	3101.8009	3143.6209	3177.6717	3806.2705
CC12CC(C#N)C1C2O	C[C@]12C[C@@H](C#N)[C@H]1[C@H]2O	
InChI=1S/C7H9NO/c1-7-2-4(3-8)5(7)6(7)9/h4-6,9H,2H2,1H3	InChI=1S/C7H9NO/c1-7-2-4(3-8)5(7)6(7)9/h4-6,9H,2H2,1H3/t4-,5-,6+,7-/m0/s1
