21
gdb 71131	2.69337	1.7854	1.5203	1.3991	79.9	-0.2532	0.0738	0.3271	974.0777	0.186244	-387.11224	-387.10495	-387.104006	-387.143376	30.983	
O	-0.1468377085	 1.3912410143	-0.020712633	-0.497499
C	 0.0109943994	-0.016098721	 0.0198644387	 0.382778
C	 0.5950369794	-0.5549544007	 1.3502330004	-0.268253
C	 0.1406195415	-2.0054631416	 1.3513945017	-0.058341
C	-1.0959655699	-2.0876851219	 0.4694953713	-0.062523
C	-1.3740726615	-0.6879676966	-0.0532423552	-0.238297
C	 0.2080480321	-2.7001001302	 0.0093824579	-0.028558
C	 0.9873539684	-2.0741390781	-1.1389027071	-0.237075
C	 0.875119926	-0.5223967077	-1.1469966767	-0.255133
H	 0.7304505586	 1.7866925312	-0.0633687547	 0.270847
H	 1.6844140369	-0.4316416867	 1.4002472611	 0.080571
H	 0.1548040378	-0.0065414765	 2.1907143294	 0.100678
H	 0.2294526611	-2.5940020568	 2.2576490964	 0.076067
H	-1.9263512041	-2.7380978672	 0.7195060468	 0.076199
H	-2.0728558376	-0.1563711009	 0.6022093356	 0.103663
H	-1.78273946	-0.6628495248	-1.0694001964	 0.092888
H	 0.2531695418	-3.7848894348	 0.0481962533	 0.076344
H	 2.0379660647	-2.3780104319	-1.0680658747	 0.100283
H	 0.6210382248	-2.4820348988	-2.0877590318	 0.102576
H	 0.4343130791	-0.163927106	-2.0826113598	 0.102311
H	 1.8718832098	-0.0681546033	-1.0720088633	 0.080474
133.4843	266.6204	293.8039	312.7217	419.0877	425.6868	430.0628	472.697	561.1943	635.6908	669.8406	766.0394	791.0333	817.7674	826.2931	894.9142	920.4571	947.4865	976.8416	978.0879	1009.8737	1032.4411	1052.6604	1054.9857	1082.4897	1117.915	1131.8877	1156.5227	1165.3831	1175.9663	1222.838	1263.661	1274.1932	1286.9362	1293.3655	1319.3648	1339.6303	1351.6782	1369.3408	1407.6489	1438.104	1487.0342	1490.1249	1500.8713	1518.5748	3012.5093	3021.0005	3032.4174	3037.6046	3053.4991	3066.4306	3076.0636	3081.2824	3142.6749	3164.2353	3176.1351	3804.3048
OC12CC3C(C1)C3CC2	O[C@@]12C[C@H]3[C@@H](C1)[C@H]3CC2	
InChI=1S/C8H12O/c9-8-2-1-5-6(3-8)7(5)4-8/h5-7,9H,1-4H2	InChI=1S/C8H12O/c9-8-2-1-5-6(3-8)7(5)4-8/h5-7,9H,1-4H2/t5-,6+,7-,8-
