15
gdb 64843	3.48572	1.11927	1.07542	1.7969	69.26	-0.2531	-0.0724	0.1806	1132.613	0.111155	-457.80276	-457.794765	-457.793821	-457.83572	29.838	
O	 0.0918122623	 1.4957146159	 0.0502738844	-0.472992
C	-0.0077988802	 0.1010149367	-0.0343546501	 0.284976
C	-1.4644231601	-0.4267609588	-0.1282635789	-0.407286
C	-1.4570420292	-1.4466697279	-1.2768102009	 0.382906
O	-2.3477616395	-2.2113101916	-1.5546480232	-0.317199
C	-0.1482217354	-1.3016856027	-1.965015341	-0.185154
C	 0.6303872429	-0.4377772053	-1.3070772251	-0.105506
C	 0.6859928044	-0.5271237119	 1.1744782864	 0.110856
O	 1.2447004583	 0.1467783425	 2.0025329771	-0.264068
H	 0.5919503269	 1.6775749625	 0.8632614413	 0.296113
H	-1.8625380626	-0.871755194	 0.7876086083	 0.133023
H	-2.1027767362	 0.4214288907	-0.3914502852	 0.163803
H	 0.0876403211	-1.8304814996	-2.8797768688	 0.131375
H	 1.6253517323	-0.1132350308	-1.5907134209	 0.134892
H	 0.635879485	-1.6317838756	 1.2418061767	 0.114262
63.4593	106.0216	200.1698	297.0395	335.4805	364.2683	401.0685	454.2557	476.3171	524.6365	581.9799	676.1315	770.0703	817.9017	837.5856	841.1562	891.0361	983.5628	1003.9301	1016.5962	1079.7228	1114.0755	1150.8463	1191.9781	1228.7795	1263.9319	1348.1783	1380.8432	1425.4579	1446.6911	1642.7966	1814.8048	1826.146	2947.4013	3069.0877	3117.999	3199.8948	3229.0904	3671.05
OC1(CC(=O)C=C1)C=O	O[C@]1(CC(=O)C=C1)C=O	
InChI=1S/C6H6O3/c7-4-6(9)2-1-5(8)3-6/h1-2,4,9H,3H2	InChI=1S/C6H6O3/c7-4-6(9)2-1-5(8)3-6/h1-2,4,9H,3H2/t6-/m1/s1
