18
gdb 8285	7.76343	0.91618	0.88921	2.5544	72.56	-0.2234	0.0228	0.2463	1321.7366	0.153173	-381.087122	-381.078631	-381.077686	-381.12138	29.902	
C	-0.0350208658	 1.5013291304	 0.0818967866	-0.317506
N	 0.0085611367	 0.0601814614	 0.1923940865	-0.071714
C	-1.2239189047	-0.6540527665	 0.582338522	-0.199816
C	-0.3453455069	-1.6340549125	 1.3831654656	 0.121963
C	 0.7449965253	-0.5386107311	 1.3230487432	-0.197941
O	-0.845866332	-1.9734460023	 2.6590165406	-0.182867
C	-0.5562567318	-3.1956230909	 3.148966715	 0.119913
N	-0.9057041001	-3.5055057154	 4.3205481215	-0.440617
H	 0.9685958419	 1.8873292611	-0.1255719173	 0.122841
H	-0.6834521011	 1.789520808	-0.7522506047	 0.123017
H	-0.4115461849	 1.9958634783	 0.9972990371	 0.095004
H	-1.8698097308	-0.0822830588	 1.2681295782	 0.104623
H	-1.824877151	-1.0421173389	-0.2461468789	 0.106337
H	-0.0800919886	-2.5334739308	 0.8187970233	 0.094863
H	 1.777994578	-0.8312613292	 1.1075167929	 0.103387
H	 0.7187716041	 0.0693316262	 2.2420143342	 0.10226
H	-0.0227500624	-3.8367541139	 2.4328732037	 0.086416
H	-0.6280552159	-4.4635489151	 4.5226543905	 0.229836
27.6936	80.9577	115.1079	222.2006	247.976	302.5458	349.1544	397.6589	417.5695	553.8284	691.1393	816.5412	826.8861	888.6532	978.1801	986.4206	1027.0288	1032.6174	1043.97	1106.7807	1119.3862	1147.3308	1173.5188	1212.056	1218.255	1241.0476	1263.3902	1295.029	1298.6749	1336.7022	1397.5645	1432.486	1452.7177	1485.8072	1497.3097	1499.4597	1527.8065	1746.708	2929.7872	2973.8969	2984.2172	3015.7489	3053.5952	3058.1847	3066.3916	3075.2667	3099.617	3520.2862
CN1CC(C1)OC=N	CN1CC(C1)O[CH][NH]	
InChI=1S/C5H10N2O/c1-7-2-5(3-7)8-4-6/h4-6H,2-3H2,1H3	InChI=1S/C5H10N2O/c1-7-2-5(3-7)8-4-6/h4-6H,2-3H2,1H3
