15
gdb 126029	3.07048	1.64802	1.13835	5.039	67.71	-0.2279	-0.0441	0.1837	1022.1266	0.112874	-453.904032	-453.896492	-453.895548	-453.9394	27.467	
C	 0.0371021544	 1.6045937303	-0.0348897078	-0.401236
C	-0.0202168369	 0.0750805835	 0.0659964254	-0.167007
C	 0.7340258928	-0.6608190529	-1.1196021745	-0.10119
O	 1.6882261065	-1.6381245462	-0.5826045531	-0.276002
C	 1.6331346957	-1.4383218936	 0.7503504759	 0.346756
C	 0.7413458313	-0.532362909	 1.1994017826	 0.300033
O	 0.8044152651	-0.4716804184	 2.5155889262	-0.238224
N	 1.8580246756	-1.4548474637	 2.8756200158	-0.037101
N	 2.2903970265	-1.974132373	 1.8049799846	-0.21232
H	 1.0730255873	 1.9560761762	-0.0555318211	 0.133472
H	-0.46197706	 1.9467614566	-0.9468066527	 0.127974
H	-0.4643667241	 2.0671990234	 0.8194190652	 0.141146
H	-1.0709592866	-0.2394597151	 0.0915825579	 0.116569
H	 0.0492920015	-1.2043803632	-1.7729509598	 0.135927
H	 1.3054938809	 0.0574144453	-1.7151769246	 0.131203
2.1701	146.3474	228.3387	268.332	334.2192	405.5754	438.9804	514.5439	611.5274	655.5079	677.6817	747.6403	751.1645	888.6706	927.1785	960.8489	987.0284	1031.1642	1096.3844	1137.5041	1192.5426	1232.7578	1276.2774	1327.8352	1347.9052	1379.8962	1410.7707	1422.3331	1487.942	1495.2962	1501.2388	1514.7765	1661.3384	3024.2222	3040.8618	3059.6224	3114.6627	3120.1794	3124.8159
CC1COC2=C1ON=N2	C[C@H]1COc2c1onn2	
InChI=1S/C5H6N2O2/c1-3-2-8-5-4(3)9-7-6-5/h3H,2H2,1H3	InChI=1S/C5H6N2O2/c1-3-2-8-5-4(3)9-7-6-5/h3H,2H2,1H3/t3-/m0/s1
