20
gdb 80064	2.85108	1.85108	1.64469	1.3719	82.29	-0.2135	0.0084	0.2219	936.1083	0.173841	-365.963394	-365.956446	-365.955502	-365.994211	29.457	
C	-0.2006627927	 1.6175736219	 0.0229877962	-0.430045
C	 0.0609846817	 0.1224187745	 0.0222076318	 0.05003
C	 1.1670740596	-0.5600966699	-0.8629895615	-0.079689
C	 2.3851991534	 0.3179787979	-0.8439331539	-0.069948
C	 2.898748725	 0.5274139417	 0.3713725814	-0.077394
C	 2.2847551189	-0.3192853537	 1.4549214818	-0.104133
C	 2.4755403919	-1.785393892	 0.9449564223	-0.152868
N	 1.1953654554	-1.6964797657	 0.1933835334	-0.148978
C	 0.7523647842	-0.6081260669	 1.1709864489	-0.011975
H	 0.7038975789	 2.1925835262	 0.2329315517	 0.121076
H	-0.5957004997	 1.9485008319	-0.9441864946	 0.113812
H	-0.9462782152	 1.8692798051	 0.7854054951	 0.113617
H	-0.8699642947	-0.425498658	-0.1605784133	 0.090824
H	 0.8836350003	-0.915763475	-1.8542785717	 0.068837
H	 2.7531655369	 0.7806173388	-1.7531905932	 0.089961
H	 3.7592091161	 1.156247291	 0.573355706	 0.093219
H	 2.5865006488	-0.0543860444	 2.4695509789	 0.061147
H	 3.3787353958	-2.0070809848	 0.37037538	 0.100517
H	 2.3374426416	-2.5320989314	 1.7340363841	 0.104986
H	 0.1807249238	-0.9182208673	 2.0512254065	 0.067005
178.6129	196.6204	246.4705	395.7253	398.0161	491.1348	520.2364	605.3666	652.1619	688.9217	733.5567	759.3149	786.9338	840.2109	849.0705	917.6687	924.3668	945.8114	955.7682	972.3413	1014.284	1037.6585	1066.407	1092.5547	1098.6952	1128.4974	1157.857	1178.7081	1183.4603	1205.0314	1206.9187	1248.3236	1280.3382	1304.0321	1311.984	1346.7473	1370.3954	1395.384	1410.664	1488.5635	1492.0009	1504.2586	1671.7041	3031.7769	3040.353	3045.6735	3058.8038	3089.5187	3092.8546	3099.0734	3104.0169	3122.9801	3172.9101	3196.7402
CC1C2C=CC3CN2C13	C[C@H]1[C@H]2C=C[C@@H]3CN2[C@H]13	
InChI=1S/C8H11N/c1-5-7-3-2-6-4-9(7)8(5)6/h2-3,5-8H,4H2,1H3	InChI=1S/C8H11N/c1-5-7-3-2-6-4-9(7)8(5)6/h2-3,5-8H,4H2,1H3/t5-,6+,7+,8+/m0/s1
