21
gdb 81444	2.57662	1.6588	1.34773	1.7313	81.5	-0.2398	0.0875	0.3273	1056.9576	0.183671	-387.05718	-387.049312	-387.048368	-387.089124	32.102	
C	-0.2358017885	 1.6131394553	-0.0687239412	-0.437609
C	 0.0117834705	 0.1164337621	 0.007075014	 0.035811
C	 1.1879670833	-0.5973218527	-0.714195656	 0.056455
C	 2.45965378	 0.1385884354	-0.231554943	-0.321645
C	 2.0968344616	 0.1481379061	 1.2687255588	 0.427237
C	 3.0724223346	-0.0940839274	 2.3798590981	-0.340572
C	 2.3999391987	 1.254580161	 2.2391916726	-0.334686
C	 0.7524856726	-0.5715722678	 1.1870707853	-0.027455
O	 1.070873264	-1.6707357959	 0.2725782199	-0.299
H	 0.6590731345	 2.198232723	 0.1554156215	 0.127276
H	-0.5843397436	 1.8962677385	-1.0681453308	 0.1173
H	-1.0128943023	 1.9116368686	 0.6434666215	 0.11849
H	-0.9017815834	-0.4478861613	-0.1975016511	 0.083681
H	 1.1380647149	-0.934925924	-1.7498537808	 0.074562
H	 3.3563957072	-0.4474626454	-0.4476508466	 0.109009
H	 2.5754471858	 1.1349659681	-0.6690928007	 0.097543
H	 2.768959672	-0.7350229309	 3.2018686605	 0.112264
H	 4.1251236803	-0.1664028544	 2.1260821104	 0.111217
H	 2.9986238076	 2.0912731051	 1.8930301318	 0.110397
H	 1.6434553364	 1.5262596181	 2.9693032227	 0.109758
H	 0.2647905441	-0.8789694218	 2.1135409829	 0.069967
122.8262	186.0737	212.9052	265.3595	291.0422	321.5984	437.6842	487.8367	577.1581	594.245	725.8099	774.5801	791.7869	818.0262	864.5767	875.7623	884.9313	912.1761	939.8056	949.2452	980.5093	1011.6602	1029.6683	1054.8669	1064.8924	1076.8924	1081.7932	1149.0676	1160.8235	1183.3493	1188.5738	1206.4417	1232.328	1254.9551	1285.5151	1297.6044	1318.7163	1387.3441	1393.4051	1415.1837	1464.8855	1482.1469	1495.3088	1503.8225	1506.3261	3035.089	3054.0635	3078.0413	3091.9801	3103.2871	3109.1879	3117.4146	3118.4596	3123.8779	3124.4615	3195.5956	3211.2966
CC1C2CC3(CC3)C1O2	C[C@H]1[C@H]2CC3(CC3)[C@@H]1O2	
InChI=1S/C8H12O/c1-5-6-4-8(2-3-8)7(5)9-6/h5-7H,2-4H2,1H3	InChI=1S/C8H12O/c1-5-6-4-8(2-3-8)7(5)9-6/h5-7H,2-4H2,1H3/t5-,6+,7+/m0/s1
