21
gdb 56152	3.26454	0.82031	0.76722	2.7202	76.45	-0.2398	0.0558	0.2957	1576.0224	0.180457	-457.594852	-457.583964	-457.58302	-457.631389	40.098	
C	 0.0476939467	 1.538681826	 0.0676501639	-0.384883
C	 0.0227946578	 0.011216373	 0.0005058466	 0.316674
C	 0.6454997965	-0.6072983006	 1.2546989235	-0.428869
O	-1.3715959309	-0.3438422157	-0.0834050691	-0.464765
C	 0.7384459442	-0.5147625159	-1.2589151132	-0.148182
N	 0.0397239667	-0.0819531973	-2.4504723437	-0.339612
C	 0.6631418918	-0.0806147704	-3.6741504008	 0.452886
N	-0.1949952913	 0.1689490724	-4.7433156085	-0.567661
O	 1.8522877042	-0.2970606114	-3.8234404006	-0.397618
H	 1.0747444345	 1.9020822157	 0.1636689547	 0.117296
H	-0.3849812537	 1.9690565998	-0.8379204233	 0.121884
H	-0.5297964972	 1.8845292426	 0.9289351938	 0.119752
H	 0.1158488536	-0.2647661379	 2.1479360231	 0.125281
H	 0.5913627815	-1.7022345524	 1.220710036	 0.106866
H	 1.7005916016	-0.332409497	 1.3503920851	 0.125228
H	-1.4407581194	-1.2945103282	 0.0601168296	 0.278928
H	 1.7667458148	-0.150207118	-1.3140690271	 0.135504
H	 0.7944004251	-1.6146363453	-1.2032166729	 0.087047
H	-0.9649367186	-0.1594299952	-2.4005847627	 0.241428
H	-0.9881732663	 0.768586489	-4.5690597867	 0.245236
H	 0.3095819784	 0.4004946168	-5.5858573578	 0.257583
26.5503	77.3139	108.2343	190.4182	217.8681	236.3915	251.0764	307.2961	328.7371	356.6369	394.9798	403.8068	439.5522	485.9362	524.171	559.7368	599.4302	662.7494	777.4803	779.8415	903.8628	912.0381	940.1957	960.6934	1015.4159	1034.5224	1091.1002	1133.5794	1171.7056	1205.5298	1242.7448	1251.4336	1312.1081	1370.5878	1388.7759	1406.6935	1424.8439	1478.9733	1482.8044	1495.9823	1504.581	1510.8532	1529.6946	1626.3819	1799.4442	2964.2749	3027.2932	3051.0022	3093.9374	3107.9393	3117.4373	3125.7187	3134.2549	3569.2669	3617.0984	3683.4477	3797.0463
CC(C)(O)CNC(N)=O	CC(C)(O)CNC(=O)N	
InChI=1S/C5H12N2O2/c1-5(2,9)3-7-4(6)8/h9H,3H2,1-2H3,(H3,6,7,8)	InChI=1S/C5H12N2O2/c1-5(2,9)3-7-4(6)8/h9H,3H2,1-2H3,(H3,6,7,8)
