21
gdb 72246	2.37882	1.6667	1.45657	1.2101	81.78	-0.2331	0.0745	0.3077	1047.8237	0.183594	-387.077592	-387.069338	-387.068394	-387.109682	33.292	
C	-0.1120590315	 1.4975358871	 0.0257449339	-0.505079
C	-0.0120505526	 0.0008389517	-0.0338746017	 0.297865
C	 0.8414821547	-0.8008406253	-1.0215333557	-0.283768
C	-0.1318817414	-2.0137789278	-0.8403257317	-0.102174
C	 0.391732039	-2.9893978497	 0.2230603988	-0.210044
C	 0.5614997491	-2.0974802754	 1.4876843102	-0.237863
C	-0.3183183309	-0.8813732532	 1.1961585044	-0.171546
C	-1.0953389604	-1.0497013715	-0.0798640595	 0.341748
O	-2.4528556577	-0.8770408513	-0.2665330961	-0.468545
H	 0.7952801291	 1.9448282736	 0.4491664826	 0.115046
H	-0.2559246984	 1.9217736244	-0.9747419293	 0.117085
H	-0.9595407171	 1.8123991701	 0.6431092999	 0.121795
H	 0.7832415107	-0.3747336724	-2.0274871679	 0.097309
H	 1.8952501609	-0.973773157	-0.7714118025	 0.083664
H	-0.4982065722	-2.4726310388	-1.7587634932	 0.067384
H	-0.3483624699	-3.7780186091	 0.4065658823	 0.08851
H	 1.323556795	-3.4802534425	-0.0757151031	 0.094021
H	 0.2387632886	-2.6144480837	 2.3968888585	 0.093548
H	 1.6087290907	-1.8154927769	 1.6429706016	 0.100316
H	-0.7924679488	-0.3435147847	 2.010904618	 0.077654
H	-2.9221937269	-1.5114169876	 0.2863731603	 0.283076
171.7843	189.7052	208.1387	221.7814	272.5551	299.7457	340.9998	410.3639	497.6686	551.2943	632.8586	676.1203	691.0623	756.6491	834.5993	859.6309	886.2206	902.2004	918.5049	956.4004	978.3263	1004.8578	1033.7368	1062.5597	1095.2625	1122.6324	1140.8824	1147.3763	1201.4957	1224.0132	1227.5445	1241.2349	1264.0961	1283.2646	1297.6149	1331.3794	1336.7663	1340.9161	1414.5059	1471.6046	1486.8178	1487.3024	1494.5327	1505.7954	1520.8199	3019.9328	3025.2278	3026.9118	3039.9983	3068.9833	3078.0038	3082.1404	3086.0659	3097.1934	3113.8229	3167.7265	3789.0353
CC12CC3CCC1C23O	C[C@@]12C[C@H]3CC[C@@H]1[C@@]23O	
InChI=1S/C8H12O/c1-7-4-5-2-3-6(7)8(5,7)9/h5-6,9H,2-4H2,1H3	InChI=1S/C8H12O/c1-7-4-5-2-3-6(7)8(5,7)9/h5-6,9H,2-4H2,1H3/t5-,6+,7-,8-/m1/s1
