15
gdb 84413	3.23839	1.31472	0.99488	1.5227	68.89	-0.2698	-0.0511	0.2187	1144.3293	0.112753	-454.017339	-454.009231	-454.008287	-454.050406	28.892	
C	-0.0735539903	 1.5671106091	-0.013646543	-0.387603
C	 0.0327915358	 0.0397590242	-0.0162149018	-0.101774
N	 0.811822521	-0.4701062059	-1.1538848788	-0.246212
C	 1.7648316498	-1.1653912677	-0.6786166086	 0.073618
N	 1.8104027061	-1.2559963749	 0.7256973403	-0.158496
C	 2.7547201075	-1.9452292279	 1.4834065263	 0.169775
O	 3.662733926	-2.5688799564	 0.9980164468	-0.289832
C	 0.7275836829	-0.5001029236	 1.2399148423	 0.41848
O	 0.4708981124	-0.345897047	 2.4036348678	-0.345878
H	 0.9197951509	 2.024316287	-0.0007271512	 0.132495
H	-0.5963886889	 1.9042002894	-0.9109443687	 0.141701
H	-0.6224770497	 1.8971822213	 0.8717414642	 0.145167
H	-0.9760223434	-0.3901378638	-0.0624415442	 0.138309
H	 2.5248104274	-1.6801343499	-1.2533298435	 0.175354
H	 2.5569298024	-1.8420212738	 2.5617960921	 0.134897
72.9798	156.9001	187.2802	216.1553	234.8145	249.6142	331.7489	396.3367	560.7567	598.2362	663.9947	732.6386	780.6009	845.4683	903.2723	955.1236	993.9904	1049.124	1085.0296	1107.4741	1133.1929	1199.224	1275.3506	1296.1837	1306.8146	1374.0519	1403.5188	1417.2596	1487.7086	1496.7323	1686.6484	1813.8965	1860.5591	3029.9862	3037.3922	3052.5627	3129.0865	3142.1667	3229.0415
CC1N=CN(C=O)C1=O	C[C@H]1N=CN(C=O)C1=O	
InChI=1S/C5H6N2O2/c1-4-5(9)7(3-8)2-6-4/h2-4H,1H3	InChI=1S/C5H6N2O2/c1-4-5(9)7(3-8)2-6-4/h2-4H,1H3/t4-/m1/s1
