18
gdb 117132	3.41717	0.85851	0.76653	2.0194	71.45	-0.2515	-0.0453	0.2062	1519.0494	0.145599	-476.268282	-476.25835	-476.257406	-476.304764	34.66	
C	 0.6740836514	 1.0324086945	 0.6251761382	-0.37375
C	 0.0008416844	-0.2731536755	 0.1988484272	-0.146382
N	 0.6989983482	-0.9320740392	-0.893227159	-0.30103
C	 0.1748993813	-1.0767757503	-2.127270185	 0.347414
O	-0.9398822527	-0.7384394517	-2.486779175	-0.388567
C	 1.1253470642	-1.7723405975	-3.1297239626	-0.039411
O	 2.407020682	-2.0234696896	-2.6251001874	-0.438547
C	 0.4700068719	-3.0686916041	-3.5770709827	 0.136556
O	 1.0732623305	-4.1130647433	-3.515595522	-0.262599
H	 1.7030103356	 0.8593431248	 0.958700924	 0.117429
H	 0.7004762269	 1.7451584362	-0.2039869943	 0.133124
H	 0.1257768757	 1.4884362623	 1.4552519613	 0.123277
H	-0.0644224084	-0.9608987572	 1.0509854936	 0.111696
H	-1.0153411349	-0.0887973489	-0.1568803383	 0.149552
H	 1.6553996971	-1.238283316	-0.7833515412	 0.261856
H	 1.160655765	-1.1054686164	-4.005988502	 0.133402
H	 2.5380628765	-2.982059042	-2.7315642068	 0.299249
H	-0.5687595948	-2.988682256	-3.939698618	 0.136731
27.7433	60.65	86.3936	143.366	177.9566	242.4989	279.9686	324.7597	337.547	423.6603	486.0121	529.3074	581.0992	652.2012	731.8281	758.9619	793.3686	856.8839	896.213	957.4563	1028.2251	1082.3471	1131.2628	1160.276	1181.6321	1208.4991	1259.2845	1312.2596	1321.817	1371.3124	1391.6334	1412.1915	1416.1796	1488.7916	1492.5318	1504.3802	1556.368	1778.2372	1808.9058	2990.5798	3008.0723	3030.8753	3036.8607	3098.8031	3117.2923	3125.0277	3605.4685	3643.7219
CCNC(=O)C(O)C=O	CCNC(=O)[C@@H](O)C=O	
InChI=1S/C5H9NO3/c1-2-6-5(9)4(8)3-7/h3-4,8H,2H2,1H3,(H,6,9)	InChI=1S/C5H9NO3/c1-2-6-5(9)4(8)3-7/h3-4,8H,2H2,1H3,(H,6,9)/t4-/m0/s1
