15
gdb 34939	4.98726	0.98953	0.91524	4.5781	71.52	-0.2668	0.0038	0.2706	1231.2682	0.112376	-416.73764	-416.730189	-416.729245	-416.769755	28.107	
N	-0.1141068735	-1.0537960059	-0.0110364527	-0.31734
C	-0.0355531304	 0.0985186952	 0.0285457845	 0.30199
C	 0.0199421988	 1.5379308916	 0.0903418363	-0.178139
C	 0.5852221319	 2.1990466704	 1.3022980815	-0.137404
N	 1.3810642651	 2.1238357815	 0.0230565819	-0.12208
C	 1.1618413934	 3.609968736	-0.1690058511	-0.263223
C	 0.4023996752	 3.6927935846	 1.1620674644	 0.448218
C	-0.6041771218	 4.6043417138	 1.7068174134	-0.269381
O	 0.7563432317	 4.6008277619	 2.175885727	-0.265918
H	-0.7874516053	 2.033458505	-0.4453015469	 0.135171
H	 0.8584862327	 1.6518265674	 2.1973328222	 0.138487
H	 2.1217136095	 4.127468724	-0.1226736223	 0.148222
H	 0.6392588159	 3.8696653066	-1.0940480768	 0.123687
H	-0.8958011588	 5.4871933902	 1.1404466114	 0.128135
H	-1.3425524044	 4.2354585676	 2.4167163372	 0.129575
108.2473	134.5012	195.6721	283.6316	348.3118	382.422	454.8264	509.1384	533.4892	579.7211	787.3241	831.4729	847.218	876.7763	892.2866	949.4856	983.236	999.5877	1045.6535	1070.5825	1104.0658	1123.7348	1154.2821	1174.3471	1178.7893	1206.0912	1268.3701	1288.0345	1394.9934	1449.0815	1484.6589	1537.5243	2365.2503	3063.1454	3088.7319	3129.7286	3133.3332	3179.2912	3190.1395
N#CC1C2N1CC21CO1	N#C[C@H]1[C@H]2N1C[C@]12CO1	
InChI=1S/C6H6N2O/c7-1-4-5-6(3-9-6)2-8(4)5/h4-5H,2-3H2	InChI=1S/C6H6N2O/c7-1-4-5-6(3-9-6)2-8(4)5/h4-5H,2-3H2/t4-,5+,6+,8?/m0/s1
