16
gdb 66802	3.4103	1.99259	1.98958	0.5183	69.22	-0.2106	0.0476	0.2582	779.8315	0.126101	-400.609762	-400.604035	-400.603091	-400.639443	24.9	
O	-0.0972475031	 1.4141535165	 0.0285472166	-0.481806
C	 0.0219477028	 0.0411039964	-0.0017671183	 0.420996
C	-1.2541163965	-0.8658141321	 0.0141587654	-0.118953
C	-0.5816561387	-1.7942179433	 1.0947896885	-0.060253
C	 0.0500817169	-2.6356402326	-0.0553231748	-0.005332
C	-0.6408311353	-1.7502320974	-1.1363072533	-0.06025
C	 0.6436095385	-0.8653982183	-1.1231159741	-0.113284
N	 1.30481846	-1.7590053238	-0.0713497908	-0.177907
C	 0.7012356196	-0.9082567486	 1.0483894108	-0.113301
H	 0.785813912	 1.8018050813	 0.0136701427	 0.284532
H	-2.2709899848	-0.4829214645	 0.048678034	 0.075093
H	-1.0721213208	-2.1783342802	 1.9869472389	 0.06904
H	 0.1665263038	-3.7190278233	-0.0797695554	 0.071958
H	-1.1782941435	-2.099423796	-2.0156503924	 0.069039
H	 1.2244553337	-0.5408028771	-1.9879346902	 0.070218
H	 1.3274584555	-0.6173854371	 1.8933172623	 0.070209
242.0913	296.7147	353.338	553.7235	640.1014	646.4946	675.3875	739.2133	815.6843	831.9603	842.1243	853.0683	868.8398	871.1848	880.5801	938.803	957.3293	959.2023	993.1275	1031.2112	1052.0686	1087.9541	1102.5117	1136.0887	1148.4718	1163.189	1171.9931	1175.7502	1186.0145	1207.5014	1227.3914	1241.1728	1271.728	1316.6827	1397.1415	3090.0507	3092.689	3103.5687	3126.2612	3128.9466	3147.631	3787.1504
OC12C3C4C5C3C1N5C24	O[C@@]12[C@@H]3[C@H]4[C@H]5[C@@H]3[C@@H]1N5[C@@H]24	
InChI=1S/C7H7NO/c9-7-3-1-4-2(3)6(7)8(4)5(1)7/h1-6,9H	InChI=1S/C7H7NO/c9-7-3-1-4-2(3)6(7)8(4)5(1)7/h1-6,9H/t1-,2+,3+,4-,5+,6-,7+
