21
gdb 121270	3.97343	0.92891	0.8328	2.2247	78.44	-0.2276	0.0845	0.3121	1442.7495	0.182846	-424.198626	-424.189758	-424.188814	-424.232743	33.02	
C	 0.0082904307	 1.3550336106	 0.0995520921	-0.225277
O	-0.0147948784	-0.0514628091	 0.0722128483	-0.236389
C	-1.3195652468	-0.5810364998	-0.0470077258	-0.065824
C	-1.2170898419	-2.0987383614	-0.046469944	-0.030265
C	-0.5809885026	-2.6585453547	 1.2504993613	-0.096737
O	-1.1502801341	-3.9491846597	 1.4712064078	-0.258234
C	-2.4076592713	-3.9815039299	 0.8509957457	 0.118552
C	-3.3948792863	-2.8838309774	 1.1493551476	-0.332441
C	-2.5445866752	-2.8413368479	-0.1152436432	-0.100512
H	 1.0521778467	 1.6650655713	 0.1906416349	 0.127583
H	-0.4120411134	 1.7883599816	-0.8220807368	 0.103468
H	-0.5581246555	 1.7574879717	 0.9545985727	 0.103481
H	-1.9509783459	-0.2410190467	 0.7922261597	 0.084655
H	-1.796746536	-0.2247156384	-0.9758466524	 0.086327
H	-0.6105768065	-2.3992994889	-0.9089714895	 0.086495
H	 0.5028317722	-2.7725157824	 1.1879745759	 0.120503
H	-0.7992197118	-1.9922636904	 2.0980276923	 0.094569
H	-2.7385169559	-4.9935825957	 0.6505645465	 0.100368
H	-4.4471446615	-3.1151177911	 1.0232105666	 0.113036
H	-3.1868786697	-2.1945129448	 1.9604769724	 0.1175
H	-3.0272123369	-2.959930917	-1.078304112	 0.089143
71.3093	104.4817	112.4095	177.9353	232.1169	269.5196	337.1448	385.1657	420.8158	514.7672	663.7787	696.6351	768.7424	805.1248	874.9514	921.3323	947.4612	961.42	983.8057	1003.4315	1035.7479	1044.6822	1079.5982	1099.2657	1112.0193	1152.1489	1161.4492	1172.0115	1189.27	1198.7212	1228.5238	1230.6465	1262.9353	1306.4789	1317.9575	1338.2446	1387.4231	1401.0893	1422.3224	1476.8593	1481.1311	1485.7568	1503.1371	1518.2209	1527.8669	2948.2947	2970.0855	2976.8655	2993.8379	3011.7171	3041.2868	3107.0838	3113.5552	3133.5591	3172.7979	3186.4933	3218.9028
COCC1COC2CC12	COC[C@H]1CO[C@H]2C[C@@H]12	
InChI=1S/C7H12O2/c1-8-3-5-4-9-7-2-6(5)7/h5-7H,2-4H2,1H3	InChI=1S/C7H12O2/c1-8-3-5-4-9-7-2-6(5)7/h5-7H,2-4H2,1H3/t5-,6-,7-/m0/s1
