20
gdb 51871	4.20911	0.87808	0.76828	2.7449	78.52	-0.249	0.0232	0.2722	1487.1011	0.172336	-440.291024	-440.282379	-440.281434	-440.325093	32.143	
N	-0.0902892069	 1.2990918407	-0.1011518109	-0.442759
C	-0.0353006739	 0.0433835948	 0.0112510388	 0.120962
O	-1.1665847367	-0.687708554	-0.0089633856	-0.187244
C	-1.0374407286	-2.1120336967	-0.0051441307	 0.098578
C	-2.2172497861	-2.7007497241	 0.7640187965	-0.22401
C	-2.2276588226	-4.2304940485	 0.6179138142	-0.214684
C	-2.1375168837	-4.6224958513	-0.8576344686	-0.064734
O	-0.9972904006	-4.046730228	-1.4793344919	-0.242815
C	-1.0299712578	-2.6342868872	-1.4489016667	-0.090676
H	 0.8461364612	 1.6931836754	-0.0401768948	 0.228815
H	 0.8732306806	-0.5613162176	 0.1458645622	 0.086082
H	-0.0941637723	-2.3988448801	 0.4811074437	 0.086965
H	-2.1711054517	-2.3974286215	 1.8144598238	 0.107797
H	-3.1392892778	-2.2765595471	 0.3470574693	 0.115652
H	-1.3740076129	-4.6652395247	 1.1520118151	 0.107664
H	-3.1364047883	-4.6513531453	 1.0618433545	 0.103424
H	-2.0332211655	-5.7042945599	-0.9772888597	 0.110072
H	-3.0526310861	-4.3072233713	-1.3878118973	 0.090189
H	-1.9200167301	-2.2420319171	-1.9688348876	 0.102204
H	-0.1422722502	-2.2845184565	-1.9847646844	 0.108519
52.2548	108.7854	115.7767	229.2974	252.4614	341.9013	354.9564	389.2171	454.7591	490.009	543.6634	682.6054	818.5641	830.5007	870.2099	885.9019	924.8385	973.9784	989.6583	1034.4699	1043.4494	1047.0543	1120.9702	1131.471	1140.4662	1182.3573	1201.5078	1236.9425	1285.0575	1303.8656	1319.2579	1339.1308	1343.2791	1373.0281	1380.0115	1402.1658	1416.9978	1432.0191	1479.9972	1490.4304	1494.3354	1507.0791	1744.3343	2962.1481	2974.6553	3004.0113	3016.7513	3033.24	3036.4536	3078.2199	3083.1967	3087.7204	3092.705	3518.7257
N=COC1CCCOC1	[NH][CH]O[C@H]1CCCOC1	
InChI=1S/C6H11NO2/c7-5-9-6-2-1-3-8-4-6/h5-7H,1-4H2	InChI=1S/C6H11NO2/c7-5-9-6-2-1-3-8-4-6/h5-7H,1-4H2/t6-/m0/s1
