17
gdb 125396	2.42035	1.73847	1.02454	0.1069	80.25	-0.2308	-0.0474	0.1834	1138.5386	0.135841	-418.001143	-417.992808	-417.991864	-418.033874	31.56	
C	 0.1622056408	 1.4756199776	 0.0610310363	-0.475955
C	 0.0105556562	-0.0140028437	 0.0197450863	 0.19875
C	-0.0535490854	-0.7058705598	-1.1303403826	 0.00944
O	-0.189551522	-2.0455299198	-1.2324764869	-0.244234
N	-0.2751364213	-2.822196171	-0.0870839922	-0.135849
C	-0.2208434649	-2.2268445871	 1.057215643	 0.31282
C	-0.3205165031	-3.1394333556	 2.2468358928	-0.487741
C	-0.0732088764	-0.7675604745	 1.2597524652	 0.142415
N	-0.0186841017	-0.170628784	 2.3990940512	-0.522975
H	 1.0672382728	 1.7522467085	 0.6114454689	 0.146948
H	 0.2110760158	 1.9022196636	-0.9442696948	 0.114254
H	-0.6741521009	 1.9297688109	 0.6021488712	 0.146958
H	-0.0026520613	-0.2607256602	-2.1179901714	 0.138424
H	-0.4239745701	-4.1724015691	 1.9139843889	 0.153022
H	 0.5728498475	-3.0536832814	 2.8754541838	 0.145127
H	-1.1850806839	-2.8744570824	 2.8656519833	 0.145126
H	-0.0907005619	-0.834900382	 3.169793647	 0.213472
84.3098	173.4761	211.8222	265.5473	272.75	295.1296	331.207	459.1781	459.6766	485.3041	506.3071	570.1911	664.4186	774.6112	859.1084	861.1855	889.8403	912.4762	940.1039	1036.929	1048.9283	1058.6549	1067.569	1163.6271	1225.4663	1282.9814	1346.7792	1403.5402	1416.9564	1458.2484	1465.8285	1474.7635	1477.6331	1486.6679	1621.0285	1658.3841	1696.4285	3035.9166	3039.7585	3091.9015	3097.9069	3122.3162	3152.4196	3201.5252	3478.2957
CC1=CON=C(C)C1=N	CC1=C(C(=NO[CH]1)C)[NH]	
InChI=1S/C6H8N2O/c1-4-3-9-8-5(2)6(4)7/h3,7H,1-2H3	InChI=1S/C6H8N2O/c1-4-3-9-8-5(2)6(4)7/h3,7H,1-2H3
