20
gdb 94019	4.28381	0.96046	0.83274	4.4216	85.67	-0.2619	0.0001	0.2619	1397.7646	0.172601	-366.053361	-366.044739	-366.043795	-366.086697	32.973	
C	-0.0256999354	 1.5765704672	 0.0000837394	-0.401928
C	 0.0128078194	 0.0407413373	 0.0022206262	-0.008508
C	 0.6663559299	-0.5147662334	-1.2738502581	-0.222435
C	 0.9624516468	-2.0122235349	-1.1545829509	-0.221653
C	 1.9622704893	-2.2676741744	-0.0029804113	-0.176381
C	 1.5801596476	-1.4916744779	 1.2462944963	-0.070083
C	 0.7092374553	-0.4855734282	 1.2341693449	-0.05138
C	 2.0734892844	-3.7014203513	 0.2885532554	 0.257171
N	 2.1584336035	-4.8313478947	 0.5165567451	-0.325261
H	 0.9872061938	 1.9937219424	-0.0118071127	 0.12008
H	-0.5563595082	 1.9518931014	-0.8809139149	 0.116385
H	-0.5359664533	 1.9612820054	 0.889047248	 0.116518
H	-1.0304933498	-0.3115174228	 0.0353600013	 0.090816
H	 0.0191425127	-0.3283629626	-2.1374476183	 0.101129
H	 1.6030603275	 0.0277013215	-1.4617163934	 0.100478
H	 0.037068515	-2.5606879041	-0.9461672262	 0.122448
H	 1.3683287568	-2.4109256858	-2.0887849587	 0.114301
H	 2.9630528756	-1.9432939352	-0.3268866189	 0.133188
H	 2.0554554164	-1.8024375732	 2.1716690931	 0.110628
H	 0.4774021627	 0.0167403032	 2.1715445838	 0.094489
62.3435	140.1124	179.5394	235.1054	275.4692	305.2058	340.882	389.2542	456.6878	508.766	565.4236	603.4826	677.9528	744.2333	779.9072	852.7479	914.1382	942.7069	974.0461	1001.0631	1011.8202	1032.5289	1060.773	1089.1245	1115.525	1132.3521	1217.6974	1227.1498	1250.8173	1299.1572	1318.1033	1325.952	1345.9112	1367.7463	1378.775	1404.5106	1423.8776	1488.0647	1493.393	1497.0132	1501.2064	1721.5965	2356.4991	2975.6765	2990.7975	3018.2523	3030.2974	3046.1844	3072.7663	3094.0704	3100.8118	3103.1637	3142.379	3179.812
CC1CCC(C=C1)C#N	C[C@H]1CC[C@@H](C=C1)C#N	
InChI=1S/C8H11N/c1-7-2-4-8(6-9)5-3-7/h2,4,7-8H,3,5H2,1H3	InChI=1S/C8H11N/c1-7-2-4-8(6-9)5-3-7/h2,4,7-8H,3,5H2,1H3/t7-,8-/m1/s1
