16
gdb 127480	3.33357	1.24557	0.91305	1.3403	84.52	-0.2011	-0.0134	0.1877	1229.5142	0.124571	-396.9226	-396.913676	-396.912731	-396.956506	32.703	
C	-0.0996942816	 1.3573854204	-0.0256710683	-0.325628
N	-0.0553951558	-0.0849794504	 0.0404223824	-0.05515
N	-0.136544144	-0.8081314157	-1.097327909	-0.328316
C	-0.0738466036	-2.0832737627	-0.70857772	 0.390811
N	-0.205145947	-3.1138851434	-1.6368634531	-0.601682
C	 0.0608038133	-2.1929920636	 0.6898499839	-0.429407
C	 0.0720986173	-0.8790084108	 1.1435467168	 0.290437
C	 0.1810827151	-0.3662162069	 2.453238904	 0.258586
C	 0.2754033042	 0.0691546997	 3.5727828636	-0.4403
H	-0.0117351901	 1.7544525058	 0.9858253751	 0.151871
H	 0.7242302933	 1.7333491798	-0.6391128081	 0.143825
H	-1.0450254789	 1.6863806902	-0.4667387683	 0.145668
H	-0.0510980802	-2.7868853276	-2.5819463718	 0.250205
H	 0.3789880643	-3.9136975497	-1.4357298703	 0.246458
H	 0.1275478032	-3.0820164434	 1.2943007484	 0.107924
H	 0.3579954504	 0.4465529681	 4.5618707447	 0.194699
49.1803	135.1213	146.4009	171.2049	255.9542	298.0143	324.0685	408.5302	473.2961	543.2166	554.5931	574.4738	656.9223	670.6299	678.6046	683.2991	744.9901	788.2381	820.0517	1019.5198	1067.0221	1133.3117	1153.278	1171.2895	1206.1098	1327.8474	1424.3404	1459.77	1476.7703	1482.5159	1512.0555	1532.5468	1582.44	1647.6032	2229.1048	3046.1513	3107.2075	3157.1424	3273.9312	3500.9181	3547.9516	3644.8518
CN1N=C(N)C=C1C#C	Cn1nc(N)cc1C#C	
InChI=1S/C6H7N3/c1-3-5-4-6(7)8-9(5)2/h1,4H,2H3,(H2,7,8)	InChI=1S/C6H7N3/c1-3-5-4-6(7)8-9(5)2/h1,4H,2H3,(H2,7,8)
