17
gdb 74393	3.25359	1.54887	1.19431	3.1388	73.19	-0.2237	-0.0027	0.221	1041.0363	0.13435	-421.746812	-421.739103	-421.738159	-421.778549	30.646	
C	-0.0525527021	 1.5137194615	 0.0141614398	-0.501566
C	-0.0029860125	 0.0252900527	-0.0426978201	 0.325729
C	-0.0284367247	-0.8166083504	-1.0817166564	-0.331155
C	 0.0454453586	-2.2041010091	-0.4610827745	 0.377884
O	-0.0345786725	-3.3416286767	-1.2416594157	-0.476708
C	-0.7791704141	-2.1738478709	 0.8687794971	 0.045391
O	 0.1820570227	-3.0397066554	 1.559115248	-0.323581
C	 1.0116880264	-2.1045116313	 0.7951045142	 0.004639
C	 0.0854939939	-0.899290753	 1.1643564217	-0.162685
H	 0.8369984501	 1.9241390867	 0.5090212563	 0.130609
H	-0.1166708522	 1.9498702044	-0.9865515107	 0.127573
H	-0.9171319347	 1.8617334075	 0.5936351095	 0.132042
H	-0.1037051425	-0.6008569358	-2.1396670577	 0.102437
H	 0.661215877	-3.3084085649	-1.9064399811	 0.285592
H	-1.8448809586	-2.3519862409	 1.0311624486	 0.093968
H	 2.0983543345	-2.2000087026	 0.8688485259	 0.088726
H	 0.1124082406	-0.5135312418	 2.1813920249	 0.081105
163.9494	175.6657	214.0935	261.9203	309.2841	328.18	445.7774	504.0116	534.5076	569.756	683.07	725.3121	739.1186	784.3461	843.4139	864.3817	897.321	914.101	941.0978	1014.2665	1034.1064	1056.9515	1068.6631	1122.1909	1136.2328	1142.8411	1163.0292	1190.6647	1218.1547	1283.6168	1311.8244	1324.4938	1386.9788	1414.2606	1477.1659	1486.2398	1697.0142	3016.5902	3061.8841	3083.8894	3096.2659	3109.7403	3149.8412	3213.7462	3812.6626
CC1=CC2(O)C3OC2C13	CC1=C[C@]2(O)[C@H]3O[C@@H]2[C@@H]13	
InChI=1S/C7H8O2/c1-3-2-7(8)5-4(3)6(7)9-5/h2,4-6,8H,1H3	InChI=1S/C7H8O2/c1-3-2-7(8)5-4(3)6(7)9-5/h2,4-6,8H,1H3/t4-,5-,6+,7-
