21
gdb 103477	2.39025	1.58809	1.19392	2.5252	79.29	-0.2255	0.0798	0.3052	1143.0624	0.179737	-424.175837	-424.166142	-424.165198	-424.209708	36.267	
C	 0.1036923513	 1.1968930781	-0.3602471337	-0.249599
O	-0.0866740666	-0.0521285179	 0.276143926	-0.274405
C	-1.3667902824	-0.5934633706	 0.131531778	 0.375335
C	-2.4535105824	 0.1301462585	 0.902354171	-0.466684
C	-1.7934235573	-1.2034265654	-1.1969355424	-0.279587
C	-0.5918825255	-1.894437962	-1.8272193913	-0.100199
O	-0.3161985222	-2.6367840846	-0.6149035341	-0.309783
C	-1.4727869265	-2.0883773548	 0.0211303143	 0.393853
C	-2.2309735388	-3.0288134862	 0.9029471082	-0.495199
H	 1.1746370887	 1.4103852074	-0.3236437689	 0.128439
H	-0.2208574064	 1.1708663985	-1.4103095287	 0.107132
H	-0.4311043683	 2.0119934792	 0.1476157026	 0.107386
H	-2.5603713827	 1.1623314301	 0.5528143288	 0.120846
H	-3.4253608794	-0.3532782177	 0.7761669337	 0.121806
H	-2.2135154532	 0.1558799574	 1.9700329036	 0.128192
H	-2.730222281	-0.971242799	-1.6888042583	 0.090355
H	-0.8559316571	-2.5763436058	-2.6434431537	 0.104187
H	 0.2534709572	-1.2655833671	-2.1267054601	 0.107001
H	-1.5800120096	-3.3732067427	 1.7148139233	 0.13857
H	-3.1059258553	-2.5526067269	 1.3503647606	 0.123785
H	-2.5588048425	-3.9078650086	 0.3398169609	 0.128567
113.8913	151.9443	164.6847	182.0586	196.0611	241.0016	252.8655	298.2228	330.923	354.8399	387.5838	528.8254	575.6172	651.8126	694.5197	802.741	852.554	922.8284	941.003	955.819	979.5634	1003.2162	1051.1839	1078.5603	1107.4509	1128.1677	1158.4152	1165.9578	1180.0763	1194.4935	1213.4134	1234.4475	1289.0531	1339.355	1402.332	1414.3667	1438.3068	1472.5881	1475.9768	1484.3107	1491.7759	1496.5326	1507.8423	1513.9659	1516.5643	2989.8958	3028.4878	3035.9629	3037.8805	3042.2049	3076.3121	3098.6611	3099.7041	3115.257	3119.7805	3131.5608	3181.7986
COC1(C)C2COC12C	CO[C@@]1(C)[C@H]2CO[C@@]12C	
InChI=1S/C7H12O2/c1-6(8-3)5-4-9-7(5,6)2/h5H,4H2,1-3H3	InChI=1S/C7H12O2/c1-6(8-3)5-4-9-7(5,6)2/h5H,4H2,1-3H3/t5-,6+,7-/m1/s1
