23
gdb 101033	2.95169	0.95364	0.85952	2.7886	80.92	-0.2571	0.0669	0.324	1477.1908	0.203296	-425.405907	-425.395144	-425.3942	-425.441688	39.526	
C	 0.8616080487	 1.7764529294	-0.031883251	-0.403974
C	 0.9584918191	 0.2524656613	-0.1244916585	-0.239264
C	 0.4608967666	-0.5229642369	 1.0889835842	 0.402671
C	 0.35331276	 0.1160862941	 2.4113831556	-0.231073
O	-0.8094756627	-0.0757150696	 1.5995826125	-0.271566
C	 0.6487225778	-2.0405456799	 0.9815129646	-0.075407
C	 2.0671756523	-2.4529192339	 1.4062144395	-0.410293
C	-0.4271994654	-2.830073487	 1.7488939939	-0.078538
O	-0.3378540817	-4.2288686107	 1.5149712344	-0.42374
H	 1.5806921332	 2.1899728678	 0.682118834	 0.114943
H	 1.069800528	 2.2306158665	-1.0047598545	 0.113998
H	-0.1429217333	 2.0783671505	 0.2769921887	 0.139328
H	 0.3697137168	-0.0959976048	-0.9836188462	 0.11117
H	 1.9934458462	-0.0473850094	-0.3304211884	 0.10351
H	 0.3933399927	-0.490311798	 3.3154581929	 0.107288
H	 0.6578812541	 1.1513651136	 2.5481008214	 0.113579
H	 0.5242630215	-2.3120875654	-0.075553277	 0.082603
H	 2.2362916241	-3.5167842838	 1.2121635791	 0.113204
H	 2.83426651	-1.902205879	 0.8538390101	 0.121703
H	 2.2306770023	-2.2668475694	 2.4742647446	 0.112693
H	-0.3769250018	-2.60934181	 2.8259528916	 0.085088
H	-1.4170635267	-2.5265012761	 1.4048042046	 0.129109
H	 0.425031158	-4.5650490192	 1.9935814738	 0.282969
65.8772	86.2056	101.4173	174.0733	211.2129	233.4454	242.0837	274.7502	305.668	324.4884	342.6934	367.3926	447.1051	504.8764	566.3722	706.0213	773.0941	844.8699	857.5253	907.3075	913.2034	941.5474	1014.1643	1057.6564	1063.3714	1072.8737	1093.8487	1118.6359	1139.8655	1149.8211	1174.6513	1184.0247	1248.721	1302.1229	1323.3797	1360.2945	1381.7473	1394.1882	1395.0799	1403.2571	1413.0498	1430.0039	1478.6062	1492.8462	1498.2101	1499.6941	1509.0405	1511.9383	1536.0923	2988.1813	3014.4935	3022.492	3029.2379	3043.0727	3054.8107	3088.5038	3097.2441	3103.3928	3108.2435	3119.9229	3123.0548	3172.1127	3833.6368
CCC1(CO1)C(C)CO	CC[C@]1(CO1)[C@@H](C)CO	
InChI=1S/C7H14O2/c1-3-7(5-9-7)6(2)4-8/h6,8H,3-5H2,1-2H3	InChI=1S/C7H14O2/c1-3-7(5-9-7)6(2)4-8/h6,8H,3-5H2,1-2H3/t6-,7-/m0/s1
