16
gdb 108394	2.40846	1.4643	1.12951	4.3429	69.82	-0.2596	0.0246	0.2842	1103.8478	0.122928	-437.832822	-437.824326	-437.823381	-437.866386	30.485	
C	-0.0106701703	 1.3655048302	-0.226796899	-0.263611
O	-0.0132124519	 0.0039070406	 0.198502175	-0.270058
C	-1.2409104674	-0.5846168003	 0.1508046756	 0.348362
C	-2.3322396493	-0.518246757	 1.2263830366	-0.162655
O	-2.6676057223	-1.9165342	 0.9780947861	-0.268399
C	-1.6169284815	-2.0265542429	 0.0351383637	 0.007187
C	-1.8525854115	-1.1038371532	-1.1618244495	-0.298558
C	-3.1634899023	-0.7453288853	-1.6203889688	 0.309452
N	-4.2201998717	-0.4319138769	-1.9726386164	-0.344229
H	 1.023032143	 1.7087591736	-0.1662326755	 0.141816
H	-0.3680095466	 1.4568516767	-1.2602924734	 0.128272
H	-0.6371813321	 1.9898259355	 0.4229672556	 0.12636
H	-1.915343237	-0.3972548509	 2.2307999344	 0.130249
H	-3.1853237752	 0.147438208	 1.0695814678	 0.137411
H	-1.0597954228	-2.9530482725	-0.0310135835	 0.135394
H	-1.0993535911	-1.2196984554	-1.9361765484	 0.143005
81.0281	115.0773	136.4165	171.5226	210.8263	321.0874	373.3018	387.9102	434.5864	545.9159	622.827	677.5151	773.6304	842.1265	902.7825	921.3723	982.213	1026.2026	1031.2622	1063.0719	1073.8195	1080.4498	1154.5738	1177.9753	1193.6412	1221.7568	1278.9206	1283.5521	1339.4694	1439.4961	1488.6413	1496.5214	1501.9342	1509.2485	2349.808	3009.1323	3050.9421	3070.7065	3114.5381	3141.3655	3163.5983	3198.222
COC12COC1C2C#N	CO[C@]12CO[C@H]1[C@H]2C#N	
InChI=1S/C6H7NO2/c1-8-6-3-9-5(6)4(6)2-7/h4-5H,3H2,1H3	InChI=1S/C6H7NO2/c1-8-6-3-9-5(6)4(6)2-7/h4-5H,3H2,1H3/t4-,5+,6+/m1/s1
