19
gdb 73441	2.92533	1.90833	1.49902	1.2195	78.97	-0.2108	0.0161	0.2269	941.9885	0.161222	-385.88801	-385.880949	-385.880005	-385.918947	29.366	
C	 0.0368255079	 1.4733762539	 0.0249839691	-0.473119
C	-0.0261463797	-0.0284406308	 0.0041807612	 0.44668
O	 0.9364814553	-0.6225927525	-0.8400939872	-0.295355
C	 0.2728034243	-1.6122085049	-1.6352474576	-0.078533
C	-0.8508060032	-2.1464354639	-0.7202782908	-0.115141
C	-0.2012336347	-2.9587751904	 0.3910991198	-0.08966
C	 0.0607890232	-2.1929865955	 1.4511930059	-0.059186
C	-0.4606977344	-0.8102516336	 1.2648062734	-0.160763
C	-1.2819950269	-0.8340763352	-0.0180883363	-0.161871
H	 1.0180824697	 1.8127278179	 0.3721833637	 0.130182
H	-0.1271650189	 1.8829533746	-0.977373407	 0.12151
H	-0.7229383046	 1.8846637071	 0.6959434795	 0.116119
H	-0.13944802	-1.1609503809	-2.5523111346	 0.085581
H	 1.0138975753	-2.3665328747	-1.914723107	 0.106075
H	-1.6415422467	-2.6600882969	-1.2730382898	 0.072384
H	 0.1303652349	-3.9807130773	 0.2469717613	 0.093825
H	 0.6102844183	-2.4985990379	 2.3337189998	 0.096417
H	-0.7744041659	-0.2189714375	 2.1192941253	 0.079162
H	-2.277744704	-0.4182080717	-0.1146659588	 0.085695
201.078	214.8618	225.3924	305.7559	333.9874	428.445	554.2558	588.1712	675.2588	722.407	746.1012	794.6999	807.2201	833.7324	863.4447	882.5551	916.7089	942.0418	961.644	973.2796	1005.7026	1028.4498	1060.1539	1064.0699	1079.7657	1112.2485	1128.9652	1183.75	1217.5262	1225.0967	1255.4679	1282.777	1301.6597	1359.0669	1386.2887	1404.1588	1423.4259	1479.1353	1497.9881	1510.5502	1666.7277	2971.9265	3033.772	3077.8696	3088.1484	3099.4313	3112.7382	3158.2637	3178.5118	3189.099	3214.554
CC12OCC3C=CC1C23	C[C@@]12OC[C@H]3C=C[C@@H]1[C@@H]23	
InChI=1S/C8H10O/c1-8-6-3-2-5(4-9-8)7(6)8/h2-3,5-7H,4H2,1H3	InChI=1S/C8H10O/c1-8-6-3-2-5(4-9-8)7(6)8/h2-3,5-7H,4H2,1H3/t5-,6-,7+,8-/m1/s1
