19
gdb 66452	2.95874	1.67065	1.49529	1.123	78.47	-0.2176	0.07	0.2876	974.5926	0.159129	-385.820645	-385.813077	-385.812132	-385.852011	31.153	
C	 0.0104634783	 1.4223485121	 0.0319338724	-0.515112
C	 0.0079874956	-0.0734439546	-0.0569479319	 0.376491
C	-0.9451682177	-0.9865496611	 0.7209664597	-0.107343
C	 0.5548241997	-1.0980978425	 0.9178371706	-0.220789
C	 0.537446095	-2.1050523783	-0.2597582808	 0.428477
O	 1.4378767203	-3.1391651589	-0.3683963965	-0.480223
C	-1.0508601755	-2.1916669518	-0.2427087772	-0.13667
C	-1.1021061253	-1.6108677131	-1.6773547087	-0.260378
C	 0.2519397299	-0.9532528654	-1.3132456019	-0.192887
H	 0.9777226307	 1.8418403989	-0.2674394629	 0.11872
H	-0.7583597484	 1.8624035249	-0.6147442533	 0.117632
H	-0.1902053577	 1.7531888853	 1.0570085809	 0.118443
H	-1.6867556393	-0.6036565614	 1.4106671529	 0.080958
H	 1.1731404783	-0.9963593358	 1.7996773529	 0.087896
H	 1.2611364919	-3.6217046691	-1.1842712757	 0.28359
H	-1.6126987622	-3.0706749898	 0.0728707096	 0.063602
H	-0.9907466868	-2.3885971816	-2.4415708967	 0.084275
H	-1.9404673569	-0.958965903	-1.9416589598	 0.092991
H	 0.9749275102	-0.609418765	-2.0537301136	 0.060327
191.3843	206.8088	222.084	270.1263	276.7662	363.72	451.5279	534.6747	568.5098	620.9618	728.2782	758.4203	787.6124	822.3797	852.9467	881.0816	908.2266	924.3713	942.4997	968.2393	973.6174	991.107	1022.7036	1049.3153	1068.4622	1103.0112	1127.7336	1134.1448	1138.0065	1195.5	1207.7485	1245.2562	1252.2811	1285.933	1324.2013	1398.0962	1413.4885	1436.3914	1485.1175	1488.6372	1499.9015	3018.3723	3035.7959	3077.9595	3089.3733	3090.4828	3111.5914	3118.1224	3188.4699	3205.4569	3792.6222
CC12C3C1C1(O)C3CC21	C[C@]12[C@@H]3[C@H]1[C@@]1(O)[C@@H]3C[C@@H]21	
InChI=1S/C8H10O/c1-7-4-2-3-5(7)6(7)8(3,4)9/h3-6,9H,2H2,1H3	InChI=1S/C8H10O/c1-7-4-2-3-5(7)6(7)8(3,4)9/h3-6,9H,2H2,1H3/t3-,4+,5+,6-,7+,8-/m1/s1
