19
gdb 16023	3.7234	1.82881	1.47291	1.4714	71.27	-0.2408	0.0784	0.3192	908.257	0.16835	-365.044987	-365.037961	-365.037017	-365.075966	28.034	
C	 0.0423979376	 1.5121826473	-0.0256549012	-0.304326
N	 1.2678365896	 0.6921938573	 0.0486719718	-0.346147
C	-0.051559033	 0.0353298783	 0.0236852068	 0.34849
C	-0.4178236825	-0.716978291	 1.2906122423	-0.265059
C	 0.107171438	-2.1586178767	 1.18708255	-0.205728
C	-0.3415071782	-2.7923634805	-0.1321864483	-0.064729
O	 0.0716711541	-2.0242811003	-1.2539896718	-0.243473
C	-0.4691394766	-0.7148444655	-1.2260606812	-0.14942
H	-0.1701611235	 2.1007501755	 0.8631146705	 0.11512
H	-0.1954736581	 2.0123506245	-0.9622537028	 0.107403
H	 1.7052606943	 0.6360897339	-0.8686089209	 0.228933
H	 0.0015176853	-0.2054407249	 2.161352638	 0.106539
H	-1.5108435724	-0.7259870069	 1.4038805319	 0.092668
H	 1.2023538548	-2.1460604084	 1.2200973871	 0.118215
H	-0.2441205125	-2.7669091971	 2.0281327781	 0.092351
H	 0.0971987918	-3.7850058836	-0.2675162564	 0.106591
H	-1.4407670586	-2.903713791	-0.1410170896	 0.081362
H	-1.5719983157	-0.7606051728	-1.2794766135	 0.086477
H	-0.1083765644	-0.2087958981	-2.1283573208	 0.094733
117.7563	203.6826	293.1417	305.8478	389.6846	411.4646	466.1154	482.8248	581.8304	726.0776	835.352	865.3652	873.7946	891.8066	928.0675	936.548	968.5019	998.5054	1036.5609	1041.1819	1087.3749	1118.0045	1126.304	1154.2091	1203.0217	1229.5518	1263.5805	1269.3611	1317.475	1334.4489	1355.1279	1371.0812	1380.0628	1411.7338	1431.1989	1473.1593	1481.0384	1485.8058	1500.0778	1514.8558	2941.6764	2948.8289	3015.9567	3037.82	3062.7119	3081.9646	3086.2787	3092.4053	3098.5246	3181.3844	3488.1135
C1NC11CCCOC1	C1N[C@]21CCCOC2	
InChI=1S/C6H11NO/c1-2-6(4-7-6)5-8-3-1/h7H,1-5H2	InChI=1S/C6H11NO/c1-2-6(4-7-6)5-8-3-1/h7H,1-5H2/t6-/m0/s1
