17
gdb 65371	3.41569	0.94412	0.92125	2.0458	76.49	-0.2464	0.0269	0.2733	1328.9127	0.132841	-421.743082	-421.73399	-421.733046	-421.777234	33.851	
O	-0.1407423268	 1.3903899082	-0.2981837022	-0.449304
C	 0.0023434904	 0.0264906004	 0.0058129512	 0.186199
C	-0.1878762569	-0.3933413828	 1.453427006	-0.353933
C	-1.2789394178	-0.6582339424	 0.4416144853	-0.080332
C	-2.5541990342	 0.1157133334	 0.4816143456	 0.094571
C	-3.7094503755	-0.2651629152	-0.339382618	-0.184831
O	-3.6765993979	-0.5635482785	 1.0580040964	-0.243023
C	 0.9423846183	-0.6903989806	-0.8170230183	 0.297584
C	 1.7499287503	-1.2650185462	-1.4986797664	-0.456786
H	 0.709648168	 1.8155375776	-0.1391344032	 0.290327
H	 0.3865188063	-1.2308182098	 1.830763328	 0.128685
H	-0.3500341603	 0.4191056541	 2.1540113603	 0.125693
H	-1.3939845885	-1.6861831484	 0.1140889791	 0.110058
H	-2.4575953668	 1.1584820247	 0.7761557269	 0.105911
H	-4.4312148726	 0.4920280752	-0.6423637884	 0.116656
H	-3.6355078965	-1.126118986	-1.0029568366	 0.113333
H	 2.4533823805	-1.7761784938	-2.1082272359	 0.199192
58.8991	103.9012	128.2703	199.0067	254.1698	301.9195	340.0253	372.6963	421.434	473.6175	553.8324	581.8943	608.5352	678.282	706.069	803.211	852.1871	890.773	908.8023	929.4614	954.1717	1035.4792	1054.2964	1082.6156	1099.4987	1153.632	1171.1065	1195.7703	1237.7072	1249.1784	1290.601	1314.6598	1375.6558	1454.8676	1484.9288	1531.1087	2231.9936	3081.2901	3135.7598	3137.8785	3166.6899	3172.0898	3233.8159	3501.2543	3797.2872
OC1(CC1C1CO1)C#C	O[C@]1(C[C@H]1[C@H]1CO1)C#C	
InChI=1S/C7H8O2/c1-2-7(8)3-5(7)6-4-9-6/h1,5-6,8H,3-4H2	InChI=1S/C7H8O2/c1-2-7(8)3-5(7)6-4-9-6/h1,5-6,8H,3-4H2/t5-,6+,7-/m0/s1
