20
gdb 88107	2.7484	1.4164	1.20974	2.2089	79.27	-0.2427	0.0296	0.2722	1119.7791	0.172558	-403.151496	-403.143187	-403.142243	-403.184325	31.986	
C	-0.1058665596	 1.5384853001	-0.062930081	-0.416391
C	 0.0146691033	 0.0324388125	 0.0253837962	-0.019119
C	 1.3316425801	-0.6654888969	-0.2281651611	-0.360311
C	 0.7268938856	-0.688577102	 1.1514287061	 0.288465
C	 1.3730214554	 0.0801002675	 2.2751723406	-0.141275
O	 0.4320147229	 0.3162840817	 3.3395573277	-0.227982
C	-0.4451794009	-0.6907102616	 3.5742508934	 0.133813
N	-0.6450291007	-1.7568126117	 2.9250996804	-0.270883
C	 0.123078556	-1.9697117404	 1.6982949697	-0.222811
H	 0.8183641888	 2.0452362986	 0.2304795239	 0.114609
H	-0.3265339114	 1.8447148925	-1.0912365384	 0.120827
H	-0.9102639613	 1.9140352198	 0.5785166075	 0.127629
H	-0.8631385671	-0.4938367343	-0.3433905053	 0.089719
H	 1.3401720736	-1.59014871	-0.79717742	 0.112999
H	 2.2064293063	-0.0413840081	-0.3900427741	 0.107697
H	 2.2204626804	-0.4835767033	 2.6887223371	 0.111381
H	 1.7331224311	 1.0648536282	 1.974113628	 0.114811
H	-1.0249881956	-0.4679791632	 4.4686371134	 0.121332
H	-0.5406353535	-2.431330275	 0.9580609254	 0.106994
H	 0.9091956067	-2.7106247645	 1.9055718404	 0.108495
95.9838	126.2849	173.8141	210.9459	285.7296	349.7655	409.1854	413.874	470.776	510.1806	553.0415	718.1888	784.7992	855.5326	886.2045	897.8529	934.0266	959.2442	963.7427	986.3496	1005.1378	1038.8379	1061.7659	1074.2434	1123.2202	1130.4436	1160.0074	1187.8316	1236.7022	1251.3778	1300.9332	1334.8388	1354.7703	1400.7452	1410.0315	1415.1731	1437.9308	1483.7693	1491.1594	1492.3876	1505.1591	1516.3914	1735.3761	2999.1385	3016.2339	3032.5794	3049.5609	3093.4966	3099.8646	3115.2438	3119.3988	3132.116	3154.2686	3198.4281
CC1CC11COC=NC1	C[C@H]1C[C@]21COC=NC2	
InChI=1S/C7H11NO/c1-6-2-7(6)3-8-5-9-4-7/h5-6H,2-4H2,1H3	InChI=1S/C7H11NO/c1-6-2-7(6)3-8-5-9-4-7/h5-6H,2-4H2,1H3/t6-,7+/m0/s1
