14
gdb 47775	2.20389	1.7158	1.21167	2.4968	61.62	-0.2657	-0.0649	0.2008	1009.7577	0.100935	-473.829344	-473.821559	-473.820615	-473.862353	27.805	
O	 0.0216463128	 0.0160908421	 0.2337278737	-0.26772
C	-0.0428417623	 1.1939190245	 0.0128486928	 0.369455
C	-1.3487953868	 1.9566357181	-0.1727773685	-0.20102
O	-1.2264852324	 3.0416962479	-1.0783938424	-0.221701
C	-0.1279680563	 3.852872986	-0.7837170911	 0.002914
O	 1.0941626941	 3.1594075866	-0.9532290088	-0.225086
C	 1.2365228326	 2.0768934586	-0.0532348027	-0.13902
C	 1.5626028657	 2.5372357432	 1.3124341836	 0.272186
N	 1.7830120456	 2.9155840392	 2.3820008413	-0.308824
H	-2.1127739788	 1.2776811127	-0.5548291839	 0.157183
H	-1.6647603834	 2.3102357497	 0.8251504551	 0.142237
H	-0.1185994251	 4.6650361162	-1.5103803047	 0.141919
H	-0.1954259904	 4.2500192906	 0.2439417021	 0.11046
H	 2.0527216346	 1.4491593846	-0.4197090765	 0.167017
60.7627	130.3552	138.9773	231.7521	361.013	379.9737	414.8012	437.0874	517.4383	596.8098	619.5317	695.2761	811.8216	923.1401	956.2196	977.4713	1012.8868	1065.7023	1145.903	1187.2788	1202.7593	1246.1399	1274.0743	1317.0699	1339.1863	1361.888	1434.2402	1462.2939	1511.0782	1851.8358	2350.4074	2959.0186	2964.7239	3096.1625	3127.4775	3142.6106
O=C1COCOC1C#N	O=C1COCO[C@H]1C#N	
InChI=1S/C5H5NO3/c6-1-5-4(7)2-8-3-9-5/h5H,2-3H2	InChI=1S/C5H5NO3/c6-1-5-4(7)2-8-3-9-5/h5H,2-3H2/t5-/m0/s1
