15
gdb 9465	2.7951	1.80131	1.71567	2.3524	62.86	-0.2642	-0.0414	0.2228	859.5138	0.117382	-399.806723	-399.798749	-399.797805	-399.839372	28.151	
C	 0.0312487982	 1.6767201063	 0.2954203329	-0.463963
C	-0.0121398423	 0.1637413502	 0.0779356215	 0.057775
C	 0.6721305429	-0.4311949065	-1.1676881144	-0.122542
O	 1.6116007724	-1.1634751135	-0.3086571384	-0.25648
C	 1.054352463	-0.6341622267	 0.8282429959	 0.414246
N	 1.3366183284	-0.7671698116	 2.0413087182	-0.543834
C	-1.4043504254	-0.3825483543	 0.3558773343	 0.126663
O	-2.0375594254	-1.0615185321	-0.4086562075	-0.243202
H	 1.0465979029	 2.0571673716	 0.1566385092	 0.13896
H	-0.6325706165	 2.1929977045	-0.4053658736	 0.133901
H	-0.2812109548	 1.9222572592	 1.3146295235	 0.149276
H	 0.0568961213	-1.1145598666	-1.7533989491	 0.14838
H	 1.2042103266	 0.2781757204	-1.8048524911	 0.121978
H	 2.1349707937	-1.3887089668	 2.1807572297	 0.234958
H	-1.8026061049	-0.098898554	 1.3535940888	 0.103884
74.0554	117.8551	180.2926	199.0636	242.9325	288.8117	334.1174	465.5384	584.1352	666.746	678.1437	793.9425	860.4879	887.9882	930.3002	961.4314	979.7047	1010.8452	1021.9179	1154.3991	1161.7506	1215.233	1230.6044	1269.3866	1353.8372	1403.8114	1423.3791	1490.1156	1494.3688	1510.9692	1807.2993	1835.6382	2908.5066	3040.8231	3078.0933	3114.8321	3122.2418	3150.9781	3480.0458
CC1(COC1=N)C=O	C[C@]1(CO[C]1[NH])C=O	
InChI=1S/C5H7NO2/c1-5(2-7)3-8-4(5)6/h2,6H,3H2,1H3	InChI=1S/C5H7NO2/c1-5(2-7)3-8-4(5)6/h2,6H,3H2,1H3/t5-/m1/s1
