23
gdb 115384	3.23738	1.04736	0.93494	0.2154	82.07	-0.2311	0.0879	0.319	1390.4298	0.206005	-425.436227	-425.426749	-425.425805	-425.470354	36.089	
C	-0.0167964	 1.5867515511	-0.0078123044	-0.383617
C	-0.011767313	 0.0565994535	-0.059525045	-0.195725
C	-1.4094416318	-0.5488868973	-0.0060445177	 0.130197
C	-1.4052689405	-2.0729723383	-0.1218897548	-0.098585
O	-2.7070449592	-2.613581885	 0.0504191923	-0.27343
C	-3.3449692523	-2.2031391123	 1.2633416788	 0.121781
C	-2.7357361924	-2.8703580668	 2.4999342513	-0.404323
C	-3.3285584634	-0.6736420728	 1.3449894438	-0.087605
O	-2.0053387465	-0.1757912416	 1.2364577556	-0.26718
H	 1.0027035491	 1.9835717568	-0.0109324651	 0.109723
H	-0.5428676432	 2.0094439854	-0.8709636315	 0.111249
H	-0.5204232806	 1.9370010424	 0.8963285989	 0.135911
H	 0.4781816389	-0.2898729382	-0.9781326169	 0.096557
H	 0.5695535446	-0.343938162	 0.7800643143	 0.103739
H	-2.0260906069	-0.1421832336	-0.8280206409	 0.064844
H	-1.0799152307	-2.3830646232	-1.1200224933	 0.105797
H	-0.7005417332	-2.4925263529	 0.6126922325	 0.090825
H	-4.3828208241	-2.5372222836	 1.1503871842	 0.081095
H	-1.7536468411	-2.4543372879	 2.7385094623	 0.129009
H	-3.3836205953	-2.7134028858	 3.3684591265	 0.113484
H	-2.6345164607	-3.9465177539	 2.3357239817	 0.122265
H	-3.9551567741	-0.2589778896	 0.5390328032	 0.090701
H	-3.7202466236	-0.3257183845	 2.3060520642	 0.103288
79.4181	105.1021	178.3231	205.4985	224.1889	236.9898	287.1019	362.4482	371.8004	426.3122	468.6032	490.1794	536.0801	723.0602	762.8342	794.0914	859.8013	904.5688	937.8227	946.0399	983.4834	1009.7966	1023.0808	1073.2669	1119.9361	1131.092	1138.7653	1152.8788	1170.4875	1180.3142	1272.934	1285.2222	1306.6421	1318.022	1351.7713	1371.1889	1375.2658	1397.5775	1398.6491	1406.6482	1417.9742	1422.7565	1474.4931	1481.9897	1490.1512	1493.3826	1496.8434	1509.4732	1511.1286	2942.5013	2977.7281	2988.5935	3026.975	3038.1839	3042.5847	3046.6785	3063.111	3079.8105	3080.3123	3103.1065	3113.071	3127.8089	3129.8074
CCC1COC(C)CO1	CC[C@H]1CO[C@@H](C)CO1	
InChI=1S/C7H14O2/c1-3-7-5-8-6(2)4-9-7/h6-7H,3-5H2,1-2H3	InChI=1S/C7H14O2/c1-3-7-5-8-6(2)4-9-7/h6-7H,3-5H2,1-2H3/t6-,7-/m0/s1
