21
gdb 102698	2.10039	0.90378	0.69456	2.2082	76.13	-0.2612	-0.0348	0.2264	1653.9684	0.178481	-461.358149	-461.347096	-461.346152	-461.396122	37.841	
C	-0.2237315751	 0.9717336456	-0.935575371	-0.388906
C	-0.0570209046	-0.3891048586	-0.2570384063	-0.17368
C	 0.6891319637	-0.3206407571	 1.0751300965	 0.103611
C	 0.8434411082	-1.6942441118	 1.739499431	-0.071589
O	 1.6164935624	-2.5696723516	 0.9426029613	-0.418115
O	 1.9957039084	 0.2126532315	 0.8095414319	-0.273263
C	 2.6203673675	 0.8649912926	 1.8886985355	-0.158523
C	 3.8675899069	 1.5591313257	 1.3648447719	 0.139365
O	 4.6848437592	 2.0815760786	 2.0738194775	-0.233333
H	 0.7490048218	 1.4279132123	-1.135417791	 0.126679
H	-0.7545560573	 0.8714297644	-1.8867462947	 0.116231
H	-0.7967677997	 1.6632919262	-0.3071170367	 0.10938
H	-1.0389109107	-0.8378982529	-0.0639421796	 0.099834
H	 0.4765577124	-1.0849881574	-0.9123982271	 0.116388
H	 0.1578950899	 0.3572496949	 1.7631642043	 0.068172
H	 1.2836729705	-1.5745208685	 2.7432340685	 0.08569
H	-0.1403513394	-2.1570204807	 1.8715656127	 0.111264
H	 2.3862401442	-2.0600704456	 0.6608046144	 0.286273
H	 1.9619557073	 1.6314840531	 2.3313746571	 0.127817
H	 2.9115534999	 0.1823953846	 2.701004535	 0.129666
H	 3.9503706246	 1.5491685947	 0.2555383286	 0.09704
42.2927	51.3088	86.5643	93.402	114.285	157.4197	223.9164	230.4252	289.1414	329.892	411.0019	419.2731	459.4727	560.4201	678.554	742.049	777.0828	853.2498	897.995	963.0164	997.4084	1045.7438	1056.3335	1090.4356	1114.7139	1131.2416	1147.3075	1175.8321	1227.561	1238.253	1285.9827	1309.0465	1340.1865	1367.1074	1380.42	1402.4522	1407.0873	1417.6863	1429.466	1481.1124	1485.314	1499.3376	1507.7989	1510.3455	1845.6925	2898.0545	2963.2086	2969.5943	2980.286	3015.8534	3036.0504	3039.3758	3073.0857	3082.4682	3104.24	3124.4277	3782.88
CCC(CO)OCC=O	CC[C@@H](CO)OCC=O	
InChI=1S/C6H12O3/c1-2-6(5-8)9-4-3-7/h3,6,8H,2,4-5H2,1H3	InChI=1S/C6H12O3/c1-2-6(5-8)9-4-3-7/h3,6,8H,2,4-5H2,1H3/t6-/m0/s1
