18
gdb 102997	1.98431	1.42167	1.12392	4.6815	73.21	-0.2571	0.0179	0.275	1176.2294	0.145707	-439.076645	-439.066878	-439.065934	-439.111173	35.543	
C	 0.1046962585	 1.4018308069	-0.3957052158	-0.390591
C	-0.0419507174	 0.0259453284	 0.2622859681	-0.243657
C	-1.448174899	-0.5518805376	 0.1388106945	 0.058458
C	-2.4680188421	 0.1337365189	 0.8866040914	 0.250513
N	-3.2959481205	 0.6722752456	 1.4910214489	-0.350065
C	-1.9269847065	-1.1692968499	-1.1746479667	 0.000387
O	-0.9696025091	-1.1932324983	-2.1997687507	-0.42536
C	-1.6522256653	-2.0826392679	-0.0159588814	 0.057116
O	-0.5438140685	-2.9054237576	-0.0926015074	-0.422699
H	 1.1179689955	 1.7886280746	-0.2522771692	 0.1171
H	-0.0886102041	 1.3403790034	-1.4702423264	 0.131166
H	-0.5944036616	 2.1242626421	 0.0372059742	 0.135066
H	 0.6640719958	-0.6825760381	-0.1750110797	 0.110507
H	 0.2032309435	 0.0864343015	 1.3282113992	 0.119705
H	-2.9471946115	-0.9648330099	-1.4879563084	 0.122163
H	-1.3311065582	-1.7035297303	-2.9326400443	 0.30699
H	-2.4750134565	-2.5289506021	 0.5324013528	 0.13018
H	-0.1370648929	-2.7393304097	-0.9554086491	 0.293021
73.6071	123.5526	144.1171	174.1089	201.9405	235.407	255.9991	299.4121	310.309	451.2962	479.5224	496.3769	565.4443	600.2499	668.8242	686.1724	780.16	842.9408	865.4031	974.8465	1020.0731	1039.5515	1076.2445	1101.2043	1144.0421	1175.7285	1211.3162	1240.9616	1286.6054	1317.2517	1331.959	1361.6986	1409.6804	1414.1749	1464.5881	1486.9523	1499.2201	1508.7487	2340.418	3041.9541	3053.8323	3102.8248	3115.9997	3125.9826	3143.2444	3171.8204	3729.1252	3812.9361
CCC1(C#N)C(O)C1O	CC[C@@]1(C#N)[C@@H](O)[C@H]1O	
InChI=1S/C6H9NO2/c1-2-6(3-7)4(8)5(6)9/h4-5,8-9H,2H2,1H3	InChI=1S/C6H9NO2/c1-2-6(3-7)4(8)5(6)9/h4-5,8-9H,2H2,1H3/t4-,5+,6+
