18
gdb 8515	4.51218	1.80061	1.60407	1.7106	71.56	-0.2217	0.0849	0.3066	875.4058	0.152708	-347.750898	-347.743503	-347.742559	-347.781868	29.298	
C	-0.0757044587	 1.4949799974	 0.0417025936	-0.507218
C	 0.0296494724	 0.0021350481	-0.0329270155	 0.28916
C	 0.9305419828	-0.8450633606	-0.9340667694	-0.310771
C	 0.0791097	-2.0533490561	-0.4537214341	 0.427289
C	 0.0097377425	-3.3704357329	-1.1596517807	-0.505722
O	 0.442645687	-2.1532067072	 0.9632214767	-0.330872
C	-0.280092098	-0.9393524684	 1.147318011	 0.059437
C	-1.0871438955	-1.0433164974	-0.0998235452	-0.248485
H	 0.8612284823	 1.9400855665	 0.3964692912	 0.123995
H	-0.30305782	 1.932601627	-0.9372675228	 0.119133
H	-0.8694832398	 1.8024933467	 0.7317297295	 0.118137
H	 0.7576969388	-0.6215773741	-1.9911957812	 0.09501
H	 2.0042999184	-0.8953810801	-0.7213187991	 0.092639
H	 0.9918752272	-3.8556660021	-1.144792708	 0.132573
H	-0.708506589	-4.0356000667	-0.6720039208	 0.130839
H	-0.2901059829	-3.2328511606	-2.2029626761	 0.12132
H	-0.5221083908	-0.6129623072	 2.1507548015	 0.101388
H	-2.1444676568	-0.9927628024	-0.3235176605	 0.092149
196.3808	201.3598	204.1193	233.883	321.1679	341.8649	454.3867	536.081	574.8809	645.4653	749.8269	778.2688	819.9694	820.8252	875.0991	897.1029	930.5007	973.3805	993.6304	1024.1745	1043.5896	1070.4791	1120.6781	1133.356	1159.7071	1173.8421	1191.7539	1256.5078	1299.4341	1345.0136	1398.1044	1415.7117	1425.7381	1477.6485	1485.7285	1489.332	1490.6741	1499.7032	3019.9489	3034.0958	3037.7998	3080.5963	3087.6543	3097.1814	3106.774	3117.6619	3192.8562	3207.0049
CC12CC3(C)OC1C23	C[C@@]12C[C@@]3(C)O[C@@H]1[C@@H]23	
InChI=1S/C7H10O/c1-6-3-7(2)4(6)5(6)8-7/h4-5H,3H2,1-2H3	InChI=1S/C7H10O/c1-6-3-7(2)4(6)5(6)8-7/h4-5H,3H2,1-2H3/t4-,5+,6-,7+/m0/s1
