22
gdb 56571	2.82807	0.98452	0.95129	1.0441	88.81	-0.2364	0.0581	0.2945	1397.8143	0.191678	-367.152729	-367.142464	-367.14152	-367.187662	38.508	
C	-0.1939866343	 1.4899815752	-0.0178904436	-0.390649
C	 0.0882488384	-0.0236494141	 0.0675877532	-0.167497
C	 0.6717435381	-0.530359344	-1.1727881495	 0.329563
C	 1.1648865985	-0.9394294182	-2.1906852509	-0.47361
C	 0.9654446328	-0.4228655516	 1.2908327712	 0.052605
C	 2.3273023261	 0.2700915115	 1.3169480126	-0.400078
N	 0.2257039386	-0.0996279196	 2.5121983018	-0.056962
C	-0.7196887724	-1.1036305876	 2.9908357382	-0.227654
C	 0.5673820104	-0.8698074299	 3.7015381401	-0.228999
H	 0.7114366576	 2.0484054629	-0.2682775639	 0.124429
H	-0.9354957374	 1.6927773663	-0.7948793234	 0.11883
H	-0.5737380016	 1.847089189	 0.9417559287	 0.134534
H	-0.8751925598	-0.5317629948	 0.2125631723	 0.104109
H	 1.5903790776	-1.3036870654	-3.0926698416	 0.191839
H	 1.1322537815	-1.5131213514	 1.21600751	 0.062919
H	 2.938226883	-0.1221919198	 2.1353861448	 0.11247
H	 2.8612691394	 0.0994246155	 0.3785286661	 0.12971
H	 2.2154225111	 1.3465518532	 1.4704505883	 0.126534
H	-1.6537541069	-0.7239620303	 3.3946888249	 0.116867
H	-0.8094245855	-2.031589266	 2.4273388783	 0.112075
H	 1.3286987936	-1.6430180758	 3.6067829926	 0.111578
H	 0.5943936512	-0.3168179552	 4.6360597798	 0.117389
70.1122	107.3886	133.1197	189.5553	215.1962	221.8455	247.5304	277.875	321.9702	336.1515	450.1354	484.0746	537.2589	609.273	626.586	638.1389	757.0496	799.6692	836.3561	893.7857	915.3619	962.0951	1006.1666	1014.9947	1030.8965	1086.4427	1105.7658	1112.3955	1120.9836	1146.6667	1158.2232	1183.2309	1204.8013	1302.7225	1316.0719	1317.6667	1371.0799	1381.7101	1402.3827	1411.5102	1489.1838	1490.8889	1492.9419	1499.5074	1511.9113	1518.2254	2231.4473	2924.9727	3008.2286	3047.4567	3053.4116	3090.7854	3095.6026	3115.1878	3123.9149	3130.7014	3138.9107	3175.327	3189.4892	3504.4562
CC(C#C)C(C)N1CC1	C[C@@H](C#C)[C@@H](C)N1CC1	
InChI=1S/C8H13N/c1-4-7(2)8(3)9-5-6-9/h1,7-8H,5-6H2,2-3H3	InChI=1S/C8H13N/c1-4-7(2)8(3)9-5-6-9/h1,7-8H,5-6H2,2-3H3/t7-,8+/m0/s1
