21
gdb 95156	2.58708	1.40873	1.04498	2.4395	77.95	-0.2568	0.0743	0.3311	1203.6169	0.182879	-424.234459	-424.225754	-424.22481	-424.267309	34.359	
C	 0.073349201	 1.5271954993	-0.0617825158	-0.469852
C	-0.0431914618	 0.0253702603	 0.0663123377	 0.382045
C	-1.2757495082	-0.6059118748	-0.5726111662	-0.261597
C	-1.8287291807	-1.8122682872	 0.1906260775	 0.130814
O	-2.7349333699	-2.4608996556	-0.6923515092	-0.440778
C	-0.7084425257	-2.7391937207	 0.6694569473	-0.23254
C	 0.1921102888	-2.0151159329	 1.6785972531	-0.25232
C	 0.6719118814	-0.68299712	 1.1464430505	 0.016006
O	 1.1863683762	-0.6862588676	-0.1888963286	-0.29374
H	 1.0234664274	 1.8777115697	 0.3489432235	 0.125103
H	 0.0243880838	 1.8264963394	-1.1148210075	 0.126775
H	-0.7452937359	 2.0287512668	 0.4657374998	 0.118604
H	-2.0664425663	 0.1429182557	-0.6825594913	 0.102349
H	-1.009463693	-0.9351873318	-1.5837563448	 0.124583
H	-2.3697778246	-1.4444037009	 1.0808769542	 0.057784
H	-3.0971735959	-3.2269363736	-0.2356557756	 0.277969
H	-1.1402632009	-3.6345000191	 1.1338886052	 0.079734
H	-0.1216904964	-3.0676843346	-0.1941998473	 0.121665
H	-0.3534475482	-1.8341810925	 2.6148727609	 0.100776
H	 1.0575529684	-2.6363319198	 1.9380795316	 0.1089
H	 1.2581240205	-0.0839486401	 1.846802125	 0.077722
100.2995	177.7548	217.5333	255.8327	284.5168	296.9551	357.4453	368.3649	414.1929	425.726	488.1106	531.1428	622.8336	727.8099	796.9756	828.9333	893.7846	909.6236	920.9399	948.5898	1016.5951	1050.1302	1059.9065	1077.7088	1086.4454	1112.026	1136.3211	1188.0437	1226.136	1238.0575	1250.2787	1297.5174	1324.9753	1348.2776	1351.7204	1374.854	1405.6677	1413.1114	1437.954	1460.8829	1478.0257	1478.8209	1489.5802	1493.2839	1504.3948	2934.6215	3017.2262	3030.1442	3031.5612	3043.4922	3057.4332	3083.6019	3086.2065	3090.888	3094.7977	3122.0262	3814.4586
CC12CC(O)CCC1O2	C[C@]12C[C@@H](O)CC[C@H]1O2	
InChI=1S/C7H12O2/c1-7-4-5(8)2-3-6(7)9-7/h5-6,8H,2-4H2,1H3	InChI=1S/C7H12O2/c1-7-4-5(8)2-3-6(7)9-7/h5-6,8H,2-4H2,1H3/t5-,6+,7-/m0/s1
