21
gdb 76325	2.01517	1.53538	1.1899	1.3305	78.73	-0.234	-0.0226	0.2114	1181.6483	0.178873	-424.24177	-424.23108	-424.230135	-424.277375	38.567	
C	 0.1365938589	 1.7151630658	 0.0246485764	-0.408805
C	 0.0901391328	 0.1936220566	-0.0030584795	-0.139303
C	 0.6909129554	-0.604296575	-1.2183970058	 0.066352
O	 1.5333298077	 0.1264152881	-2.0787512951	-0.417708
C	 1.3959650295	-1.6064674859	-0.2204683619	 0.147516
C	 0.6000019979	-2.9092271918	-0.0530484592	-0.437163
C	 2.881556479	-1.886123596	-0.4265985344	-0.437349
C	 1.0582180734	-0.5929019428	 0.8958681953	 0.351925
O	 1.4933204039	-0.4110759108	 1.9983250591	-0.313209
H	 1.1382977043	 2.0971892397	-0.1949464836	 0.108914
H	-0.5511135193	 2.1451891336	-0.7089484571	 0.128566
H	-0.1407551345	 2.0807381115	 1.017308066	 0.137478
H	-0.9323843662	-0.1530782956	 0.1919250145	 0.106233
H	-0.0496465882	-1.0713803198	-1.8708156245	 0.086236
H	 2.2025827714	 0.5838313154	-1.5592793216	 0.28325
H	 0.7164621694	-3.5388227503	-0.941984405	 0.124688
H	 0.9566231024	-3.4721508033	 0.8152030249	 0.13201
H	-0.4697631529	-2.7216174372	 0.0861599878	 0.117774
H	 3.4654086429	-0.9702302409	-0.5565284168	 0.10372
H	 3.2867503711	-2.4078337627	 0.4456028889	 0.133851
H	 3.0414581213	-2.5111476984	-1.3108245686	 0.125024
43.2501	132.9138	145.843	156.4989	198.6295	220.3439	231.8908	240.2909	260.5714	277.5714	319.6352	436.9976	497.9371	558.3999	604.338	708.8793	745.5877	797.809	846.5135	917.7306	962.3095	981.4749	1001.8412	1006.9037	1047.222	1140.3307	1152.5434	1157.3458	1176.8379	1218.059	1239.7378	1280.1505	1296.1328	1335.8609	1396.6933	1408.553	1417.0243	1436.4336	1477.4134	1484.8738	1489.6934	1494.8778	1500.476	1504.4593	1876.3963	3027.3969	3034.1336	3037.5694	3041.9221	3090.8255	3096.8981	3104.7809	3105.2393	3107.697	3112.5604	3119.3214	3812.356
CC1C(O)C(C)(C)C1=O	C[C@H]1[C@@H](O)C(C)(C)C1=O	
InChI=1S/C7H12O2/c1-4-5(8)7(2,3)6(4)9/h4-5,8H,1-3H3	InChI=1S/C7H12O2/c1-4-5(8)7(2,3)6(4)9/h4-5,8H,1-3H3/t4-,5+/m0/s1
