20
gdb 31704	3.38754	0.95966	0.78875	1.1852	83.49	-0.1776	0.0635	0.2412	1498.4172	0.170933	-403.180949	-403.171357	-403.170413	-403.215809	35.091	
C	 0.0561816419	 1.0658185224	-0.7472523115	-0.360124
C	-0.114406944	-0.1563697048	 0.1709143972	-0.29559
C	-1.5474747199	-0.5487815325	 0.3866035297	 0.297013
C	-2.2490319722	-0.459975708	 1.5614624742	-0.194885
N	-3.5398383435	-0.9042383947	 1.3282562483	-0.336759
C	-3.6535950571	-1.2734975271	 0.0189689173	 0.431343
O	-4.8543345893	-1.742039584	-0.3884912915	-0.259872
C	-4.9155720129	-2.1104039259	-1.7550307606	-0.24289
C	-2.4458996379	-1.0709125884	-0.6070556625	-0.404946
H	 1.1144807904	 1.3115436359	-0.8854877337	 0.103053
H	-0.3781013603	 0.8801462518	-1.7348115908	 0.114198
H	-0.446999443	 1.9416632896	-0.3256024468	 0.115135
H	 0.4435718008	-1.0006009464	-0.2561480001	 0.097515
H	 0.3495767709	 0.0532018366	 1.1419770193	 0.093501
H	-1.9474070791	-0.1234902859	 2.5400740502	 0.110426
H	-4.285909585	-0.9687514132	 1.9977574881	 0.259732
H	-5.9319687133	-2.4624056698	-1.9371530018	 0.132781
H	-4.700844624	-1.2525809795	-2.4050042515	 0.125908
H	-4.2018832878	-2.9132931151	-1.9796560712	 0.125871
H	-2.2171383346	-1.2690591711	-1.6416948626	 0.08859
57.0235	91.0243	125.4083	175.92	205.8094	239.2903	285.8336	338.9524	370.2914	446.498	496.3033	577.6618	640.4605	674.766	691.2426	722.8876	757.6743	789.4046	945.4255	995.1146	1004.8242	1062.6867	1085.934	1089.3975	1118.9124	1184.1465	1184.3017	1230.7323	1250.8687	1295.7021	1319.9057	1361.5635	1404.3964	1419.722	1468.94	1482.8962	1483.5336	1494.1198	1496.2128	1507.0352	1511.5781	1580.5201	1636.6807	3008.0997	3012.1566	3031.9784	3052.9873	3066.3737	3101.062	3107.9641	3138.4706	3256.1324	3263.678	3690.3844
CCC1=CNC(OC)=C1	CCc1c[nH]c(OC)c1	
InChI=1S/C7H11NO/c1-3-6-4-7(9-2)8-5-6/h4-5,8H,3H2,1-2H3	InChI=1S/C7H11NO/c1-3-6-4-7(9-2)8-5-6/h4-5,8H,3H2,1-2H3
