18
gdb 33415	2.53641	1.29394	0.95759	3.2983	76.78	-0.2571	0.0148	0.2719	1242.7106	0.147943	-398.070352	-398.06158	-398.060635	-398.104567	31.797	
N	-0.3066394333	-0.9206220781	 0.7017430282	-0.329988
C	-0.1805260647	 0.1880796988	 0.3987905855	 0.263939
C	-0.0663762965	 1.60177257	-0.0358611535	-0.138727
C	 1.3867124795	 1.9513712174	-0.3204696554	 0.04238
C	 1.8652757819	 3.3201666326	-0.0253475836	-0.240837
N	 2.3273374667	 2.1767628517	 0.7818364907	-0.314406
N	-0.8952288697	 1.9465778863	-1.190340483	-0.073385
C	-1.07836743	 0.9657014762	-2.2595180929	-0.230614
C	-2.2047617079	 1.3184827941	-1.3517571187	-0.233644
H	-0.4132945784	 2.2201336802	 0.8029843658	 0.124285
H	 1.8118212447	 1.4074578391	-1.1604213708	 0.112288
H	 2.6259245929	 3.7752754102	-0.6520937224	 0.129221
H	 1.1552846612	 4.0203892817	 0.407446235	 0.11987
H	 1.843391669	 2.1540598894	 1.6769298653	 0.236409
H	-1.02754914	 1.3695298913	-3.2658021533	 0.127171
H	-0.6453797909	-0.0245254839	-2.1351424293	 0.139764
H	-2.5075829691	 0.5598389708	-0.6335539877	 0.139698
H	-2.9944297755	 1.9870113622	-1.68047495	 0.126576
66.3451	79.3697	139.99	162.8123	187.5369	308.9473	363.5237	377.9019	442.0294	535.8849	600.7354	788.1798	811.7703	828.3594	874.9047	896.1877	915.6548	956.3373	987.2576	1027.6949	1049.1698	1066.1685	1119.2196	1129.1638	1131.7834	1155.3911	1173.334	1187.4189	1218.9493	1245.5916	1277.1347	1311.5252	1314.216	1335.1124	1421.6048	1488.1445	1514.5764	1515.9117	2342.9848	3022.6592	3108.2687	3111.1031	3113.4086	3142.209	3193.1248	3200.4614	3206.2902	3493.0606
N#CC(C1CN1)N1CC1	N#C[C@@H]([C@H]1CN1)N1CC1	
InChI=1S/C6H9N3/c7-3-6(5-4-8-5)9-1-2-9/h5-6,8H,1-2,4H2	InChI=1S/C6H9N3/c7-3-6(5-4-8-5)9-1-2-9/h5-6,8H,1-2,4H2/t5-,6+/m1/s1
