17
gdb 33856	4.19555	1.28863	1.15385	0.9557	78.43	-0.2259	0.0267	0.2526	1072.6674	0.136952	-380.779081	-380.771702	-380.770758	-380.810621	29.807	
C	-0.0281785249	-1.1806478806	 0.1132900926	-0.397941
C	 0.0073976446	 0.0199848125	 0.060359933	 0.273205
C	 0.0181726944	 1.4521221622	-0.048350763	 0.091232
C	-0.9792212506	 2.1184878657	-1.0139565491	-0.252988
N	-0.3251502835	 3.2766775029	-1.6613446484	-0.090014
C	-0.0274459442	 4.435422009	-0.8149432411	-0.267861
C	 1.0242655266	 3.4163936596	-1.0703967751	-0.018268
C	 1.2593655331	 2.3087543733	-0.0696102525	-0.094629
N	 0.4512682804	 2.2124856686	 1.1428047825	-0.35361
H	-0.0495898097	-2.240590344	 0.1733575868	 0.193432
H	-1.2480906057	 1.4018176996	-1.7949590632	 0.129586
H	-1.9052382058	 2.4206053055	-0.5108649267	 0.11594
H	 0.001235222	 5.383950161	-1.3455495679	 0.1243
H	-0.4740635817	 4.5085817883	 0.1745342631	 0.108923
H	 1.8407953146	 3.6315074618	-1.754127646	 0.098629
H	 2.2559404272	 1.886608518	 0.0037441712	 0.110323
H	-0.1287410868	 3.0337905666	 1.2870610736	 0.229743
125.8858	147.3388	268.6175	278.8707	431.9301	441.3564	510.202	559.1447	579.0597	609.0068	659.0134	677.828	731.0468	759.2278	816.387	830.6904	895.7045	952.8933	979.0723	1013.8406	1029.7855	1061.8865	1095.6458	1104.5525	1118.5035	1136.8921	1149.4261	1221.3271	1246.5421	1274.0323	1306.7611	1330.1296	1370.7266	1415.7548	1493.4598	1515.8905	2239.2976	3041.1537	3090.1655	3096.0385	3144.5558	3172.0275	3175.355	3502.6954	3515.0721
C#CC12CN3CC3C1N2	C#C[C@]12CN3C[C@H]3[C@H]1N2	
InChI=1S/C7H8N2/c1-2-7-4-9-3-5(9)6(7)8-7/h1,5-6,8H,3-4H2	InChI=1S/C7H8N2/c1-2-7-4-9-3-5(9)6(7)8-7/h1,5-6,8H,3-4H2/t5-,6+,7-,9?/m0/s1
