20
gdb 82221	2.44894	2.02036	1.48558	2.2623	76.95	-0.2181	0.0777	0.2958	964.0049	0.173323	-403.10177	-403.094537	-403.093593	-403.13292	30.117	
C	-0.0690037766	 1.5867928678	-0.0193756626	-0.404286
C	 0.039392842	 0.0651713518	-0.054628995	 0.039556
C	 0.6214092727	-0.4846903587	-1.3689459035	 0.086978
C	 2.1505829155	-0.3328218866	-1.4678303053	-0.267998
C	 2.107529939	-1.6244353101	-0.6264742486	 0.074183
O	 0.796196768	-1.9241106076	-1.2128936625	-0.298052
C	 1.8594929754	-1.3871506505	 0.8507384259	-0.015977
C	 2.1044556029	-0.058100154	 1.4789302094	-0.261497
N	 0.7437597593	-0.4731914637	 1.1349779182	-0.093391
H	 0.9040720339	 2.0719541108	-0.1469217579	 0.112711
H	-0.7282022556	 1.9428746027	-0.8176486254	 0.117384
H	-0.4853459562	 1.9127340875	 0.9379727163	 0.131125
H	-0.9731608495	-0.3540870899	 0.0137132674	 0.094304
H	-0.0063227763	-0.2333416377	-2.2292389016	 0.074203
H	 2.5036012714	-0.5431137439	-2.4785063976	 0.113879
H	 2.6392163366	 0.5634320907	-1.0868156973	 0.099809
H	 2.8361518647	-2.4153594366	-0.8189309703	 0.077949
H	 1.8819026073	-2.2840129879	 1.4676099032	 0.093607
H	 2.2949113122	-0.0008986861	 2.5481951389	 0.114273
H	 2.6108611632	 0.7091317618	 0.9022084984	 0.111241
170.1011	214.2082	231.6797	348.2139	354.0325	425.5426	471.1725	497.5283	597.4113	626.4338	695.1422	785.7077	817.3498	872.7139	879.6549	912.9439	934.4969	940.7957	964.9095	1011.59	1034.1044	1055.1462	1077.4332	1100.6592	1116.993	1122.7344	1133.1643	1154.1642	1170.3661	1216.0194	1252.598	1292.8869	1303.0942	1330.1689	1349.8233	1357.3163	1379.361	1404.8271	1407.0805	1489.0793	1490.2513	1498.0964	1522.3177	3015.7219	3037.673	3064.3133	3081.091	3091.7224	3104.2726	3107.551	3115.1743	3119.2912	3143.3228	3190.4598
CC1C2CC(O2)C2CN12	C[C@H]1[C@H]2C[C@H](O2)[C@H]2CN12	
InChI=1S/C7H11NO/c1-4-6-2-7(9-6)5-3-8(4)5/h4-7H,2-3H2,1H3	InChI=1S/C7H11NO/c1-4-6-2-7(9-6)5-3-8(4)5/h4-7H,2-3H2,1H3/t4-,5+,6+,7-,8?/m0/s1
