14
gdb 43032	2.95921	1.67416	1.2217	2.955	74.3	-0.2495	-0.0223	0.2273	983.0739	0.100338	-399.46898	-399.461813	-399.460869	-399.500546	27.727	
O	-0.0720574178	 0.042958439	 0.0398432577	-0.314328
C	-0.0580569739	 1.2350839542	 0.1004297027	 0.413855
C	-1.0916927651	 2.3437583215	-0.0855659773	-0.142141
C	-1.0185294962	 3.1789615326	 1.2094508345	-0.257084
C	 0.3825121999	 3.5098977851	 0.7165164887	-0.052599
N	 0.0659473557	 3.2140411252	-0.6980646326	-0.175439
C	 1.0246047808	 2.2836606102	 0.1015140439	 0.055781
C	 2.4132083181	 2.153109362	-0.1476741777	 0.152119
C	 3.5914340433	 2.0078735583	-0.3380305829	-0.372103
H	-2.0068551404	 2.1779125972	-0.646528216	 0.118379
H	-1.6567281634	 4.0643019485	 1.1539879738	 0.130739
H	-1.1605129885	 2.6701522217	 2.1666264806	 0.124604
H	 1.0186039599	 4.3457694368	 0.9870526787	 0.120288
H	 4.6299250877	 1.8769185078	-0.518492044	 0.197928
127.0584	148.0077	185.608	362.3777	380.4686	476.1792	505.2492	609.3729	616.7257	629.5924	668.5256	701.2041	769.5583	792.9222	820.8274	894.6128	935.3306	990.3677	994.9239	1010.9465	1080.3733	1135.9647	1163.6104	1201.547	1232.4079	1267.0098	1281.7693	1388.6586	1494.7521	1900.6912	2241.6038	3060.6632	3118.0771	3174.0579	3181.4401	3500.6088
O=C1C2CC3N2C13C#C	O=C1[C@H]2C[C@@H]3N2[C@]13C#C	
InChI=1S/C7H5NO/c1-2-7-5-3-4(6(7)9)8(5)7/h1,4-5H,3H2	InChI=1S/C7H5NO/c1-2-7-5-3-4(6(7)9)8(5)7/h1,4-5H,3H2/t4-,5+,7+,8?/m1/s1
