23
gdb 122749	7.54062	0.40158	0.39711	1.0254	93.84	-0.2426	0.061	0.3036	2849.9589	0.202855	-388.268809	-388.257054	-388.25611	-388.308918	39.722	
C	 0.1650314515	 1.4817318035	-0.0093786166	-0.384485
C	 0.3515606521	-0.0247516804	-0.0739112878	-0.028989
O	 0.5370806201	-0.5127728104	 1.2391115809	-0.23981
C	 0.7202806317	-1.9080886358	 1.2963015061	-0.042009
C	 0.9065768913	-2.29512395	 2.7673288621	-0.351809
C	 1.1062968248	-3.7282958518	 2.9443825623	 0.016835
C	 1.261624598	-4.9172966461	 3.060508416	 0.094023
C	 1.4791993319	-6.351733749	 3.2206578657	-0.312596
C	 2.9500652815	-6.7140387719	 3.4957707149	-0.362939
H	 1.0430491438	 1.9580397436	 0.4360436692	 0.126422
H	 0.0185139212	 1.8915765252	-1.0131677737	 0.11414
H	-0.7072450577	 1.734258668	 0.6001652966	 0.126471
H	-0.5276952761	-0.5045127465	-0.5368478469	 0.085549
H	 1.2226423324	-0.2807658937	-0.7010143599	 0.085447
H	-0.149578994	-2.4377125358	 0.8748490415	 0.094253
H	 1.6030737219	-2.2143612691	 0.7117541175	 0.093856
H	 1.761129039	-1.7353588955	 3.1668262442	 0.133405
H	 0.0270718721	-1.956540968	 3.3286021682	 0.133464
H	 0.8513232936	-6.7266422035	 4.0394065262	 0.126914
H	 1.1369607363	-6.8751482312	 2.3183953313	 0.125939
H	 3.5915232929	-6.3834381835	 2.6742849182	 0.126202
H	 3.3031714532	-6.2335396469	 4.4122654623	 0.127475
H	 3.0631637886	-7.7966168412	 3.6079388717	 0.112243
10.6811	42.2211	64.5367	91.1107	117.7152	155.4966	164.6442	216.072	247.4347	292.2705	336.1688	378.2833	422.2833	514.0997	537.7165	749.1839	785.2131	796.3229	821.9494	899.5263	965.7	1043.1825	1053.7026	1077.607	1088.1134	1105.8115	1146.9666	1161.6701	1172.7151	1186.6442	1233.0539	1286.3899	1295.9631	1300.7544	1310.2609	1351.758	1388.3318	1406.916	1408.2015	1448.5738	1475.7633	1478.6508	1483.5374	1494.515	1499.7627	1505.7243	1516.8542	1538.8922	2368.8715	2950.1811	2967.9373	2976.4578	2994.4799	3016.8075	3028.0574	3042.6879	3043.0308	3044.4295	3063.7319	3115.51	3118.9281	3120.9562	3122.1844	10.6823	42.2216	64.5369	91.1108	117.7151	155.4964	164.6443	216.072	247.435	292.2704	336.1683	378.2833	422.283	514.0994	537.7162	749.1839	785.2131	796.3229	821.9494	899.5262	965.7	1043.1824	1053.7026	1077.607	1088.1134	1105.8114	1146.9665	1161.67	1172.715	1186.6441	1233.054	1286.3899	1295.963	1300.7545	1310.261	1351.758	1388.3317	1406.916	1408.2014	1448.5737	1475.7633	1478.6509	1483.5372	1494.5149	1499.7625	1505.7241	1516.8541	1538.8921	2368.8713	2950.1811	2967.9373	2976.4577	2994.4799	3016.8075	3028.0575	3042.6879	3043.0309	3044.4295	3063.7318	3115.51	3118.9281	3120.9562	3122.1844
CCOCCC#CCC	CCOCCC#CCC	
InChI=1S/C8H14O/c1-3-5-6-7-8-9-4-2/h3-4,7-8H2,1-2H3	InChI=1S/C8H14O/c1-3-5-6-7-8-9-4-2/h3-4,7-8H2,1-2H3
