20
gdb 51646	3.4601	1.01517	0.93424	3.0933	78.38	-0.232	-0.026	0.206	1308.0824	0.171664	-403.136176	-403.127707	-403.126763	-403.170316	31.563	
O	 0.2263635677	-0.1879974754	-0.3438900992	-0.239325
C	 0.2782776246	 0.9859408139	-0.0816615976	 0.163762
C	 1.4903739159	 1.8687878366	-0.2751598771	-0.293792
C	 1.1849483071	 3.0500804941	-1.2225104266	-0.017884
C	 2.33374171	 4.0946935249	-1.3192638633	-0.256899
C	 2.9208990971	 3.9241737159	-2.7115796601	-0.005252
C	 3.3574106774	 2.5681470342	-3.1302521169	-0.250645
N	 2.045647286	 3.0831236117	-3.5490203074	-0.08829
C	 0.9248001901	 2.6348931331	-2.7048192632	-0.179041
H	-0.6121897896	 1.5192996924	 0.3300052387	 0.072019
H	 1.7607561155	 2.2709514717	 0.7119145672	 0.117909
H	 2.316771638	 1.2462146133	-0.6269744717	 0.12544
H	 0.2883973728	 3.5424054883	-0.8296903395	 0.083626
H	 1.9373248802	 5.1096693893	-1.2145342246	 0.108624
H	 3.0803471666	 3.9605197936	-0.5297203498	 0.107582
H	 3.3523895592	 4.7983473592	-3.1916034806	 0.090807
H	 4.0743268567	 2.4534679074	-3.9384688188	 0.117901
H	 3.4016039712	 1.7817325046	-2.3818973948	 0.112388
H	 0.7778010394	 1.5553381657	-2.8168675372	 0.121682
H	 0.022082924	 3.1272837554	-3.0805189078	 0.109388
54.2478	66.4263	115.5452	210.0894	284.3334	350.099	373.5991	405.0351	505.3992	657.0978	706.9272	742.1605	780.1719	842.5705	867.3438	885.9948	927.0468	938.9405	989.5219	1011.861	1023.8237	1056.664	1089.8582	1106.8983	1120.9442	1139.818	1169.4878	1207.1838	1219.0083	1246.5903	1259.7525	1291.4364	1298.0623	1339.6578	1346.2063	1383.2037	1398.031	1429.9445	1463.1644	1491.961	1500.9637	1513.1972	1834.1266	2845.1066	3013.5198	3030.4803	3042.7359	3050.8584	3082.2487	3085.0429	3104.2688	3114.8066	3143.3553	3194.8392
O=CCC1CC2CN2C1	O=CC[C@H]1C[C@H]2CN2C1	
InChI=1S/C7H11NO/c9-2-1-6-3-7-5-8(7)4-6/h2,6-7H,1,3-5H2	InChI=1S/C7H11NO/c9-2-1-6-3-7-5-8(7)4-6/h2,6-7H,1,3-5H2/t6-,7-,8?/m0/s1
