23
gdb 101139	3.37952	0.84749	0.83625	1.3425	88.45	-0.226	0.0317	0.2577	1537.9511	0.205784	-388.307167	-388.297119	-388.296175	-388.342661	36.969	
C	 0.0336837308	 1.5710615184	-0.0355834134	-0.397085
C	 0.0626616305	 0.0323049452	-0.0168295669	-0.091099
C	 0.6870061725	-0.5197418985	-1.3071733453	-0.07374
O	-0.1063550593	-0.0841259148	-2.4025059995	-0.421978
C	 0.7655411838	-0.5158999022	 1.1976733939	 0.357094
C	 0.2408561873	-1.3449442629	 2.1037299152	-0.19032
C	 1.1927565061	-1.6707103643	 3.2284326308	-0.243702
C	 2.5508647739	-1.1582945221	 2.6858523728	-0.205091
C	 2.1878853674	-0.1352143849	 1.5818751637	-0.305329
H	 1.0477574533	 1.9861088026	-0.0549235374	 0.109811
H	-0.4912667944	 1.9255077944	-0.9250414979	 0.13313
H	-0.4726313543	 1.9623254692	 0.8518883045	 0.110927
H	-0.9731898733	-0.3295050474	-0.0004043807	 0.081793
H	 1.7244497487	-0.1609838465	-1.4042764759	 0.082808
H	 0.7190068857	-1.6185960588	-1.2515194377	 0.0869
H	 0.3073078986	-0.3901837585	-3.2144324197	 0.286084
H	-0.7777429318	-1.7192514836	 2.0728679656	 0.08125
H	 0.897592545	-1.149738173	 4.151169349	 0.10192
H	 1.2166307919	-2.7379843309	 3.4771058426	 0.098458
H	 3.1903125286	-0.7344854168	 3.4644773853	 0.09378
H	 3.0985145209	-1.9939716384	 2.2380051963	 0.101823
H	 2.8893303147	-0.1653762245	 0.7401850672	 0.097178
H	 2.2153144935	 0.8965212084	 1.9604009474	 0.105388
47.3683	98.8016	103.7096	162.7673	208.4466	231.3861	238.7282	282.9477	314.3572	359.6639	474.9234	533.4337	626.391	686.9815	815.6259	835.7126	864.4804	893.407	907.2649	921.9414	928.6237	957.1092	1002.7694	1039.2859	1060.6951	1075.2731	1097.2977	1150.9245	1152.4876	1186.4165	1228.9288	1234.2908	1247.2771	1268.1793	1280.649	1321.8601	1328.3193	1336.2463	1357.5958	1373.7417	1395.2849	1452.0115	1482.9652	1488.4766	1494.3027	1502.5453	1506.4638	1522.0359	1712.0391	2966.3112	2999.1142	2999.2146	3007.3039	3030.447	3037.7543	3040.6353	3050.4732	3060.5005	3098.5432	3101.5933	3131.8064	3178.0413	3834.3872
CC(CO)C1=CCCC1	C[C@@H](CO)C1=CCCC1	
InChI=1S/C8H14O/c1-7(6-9)8-4-2-3-5-8/h4,7,9H,2-3,5-6H2,1H3	InChI=1S/C8H14O/c1-7(6-9)8-4-2-3-5-8/h4,7,9H,2-3,5-6H2,1H3/t7-/m0/s1
