15
gdb 47459	3.35728	1.12186	0.87194	4.1439	66.97	-0.2898	-0.0034	0.2865	1243.773	0.113434	-453.969292	-453.961233	-453.960289	-454.002884	28.544	
N	-0.0472793727	 1.225027516	 0.2675591959	-0.535807
C	 0.0228835931	-0.0108002997	 0.0406830137	 0.395783
O	 1.1333063854	-0.7328584858	-0.2697195201	-0.234506
C	 0.7304028042	-2.0923148175	-0.476852931	 0.014189
O	-0.5069643825	-2.2476195673	 0.1607868091	-0.245988
C	-1.146529268	-0.980887123	 0.0827263631	 0.020545
C	-2.0573006483	-0.7541771527	 1.2888572964	-0.355616
C	-3.2488640459	-1.5983265046	 1.2652758336	 0.267401
N	-4.1942459197	-2.261351208	 1.2395318632	-0.299505
H	 0.8612269761	 1.6800014394	 0.1730065015	 0.237444
H	 0.6613150466	-2.2735441284	-1.5603148866	 0.116901
H	 1.463754961	-2.7586074321	-0.0176150189	 0.142231
H	-1.7286763131	-0.8952374478	-0.8479357911	 0.126841
H	-1.4917650824	-0.9454348061	 2.2061306843	 0.164153
H	-2.3477458739	 0.3013390376	 1.2945454169	 0.185935
61.6807	101.8155	135.4641	195.5892	242.3737	380.1381	393.7036	441.2692	527.6123	612.9067	688.0786	752.9912	852.3657	887.7744	913.2303	968.5384	989.3572	1035.4559	1051.2694	1103.3976	1139.3202	1175.5272	1219.487	1244.989	1267.5192	1306.3196	1344.6986	1392.8652	1443.7551	1450.6135	1542.427	1798.7581	2369.3846	2991.2183	2994.5202	3063.1409	3109.6112	3112.7284	3489.9451
N=C1OCOC1CC#N	[NH][C]1OCO[C@H]1CC#N	
InChI=1S/C5H6N2O2/c6-2-1-4-5(7)9-3-8-4/h4,7H,1,3H2	InChI=1S/C5H6N2O2/c6-2-1-4-5(7)9-3-8-4/h4,7H,1,3H2/t4-/m0/s1
