23
gdb 118235	2.97337	0.77963	0.65115	1.7399	83.06	-0.2377	0.0806	0.3183	1767.623	0.203179	-425.40026	-425.389495	-425.38855	-425.437113	38.905	
C	 0.3404431519	 1.3560313512	 0.3393456208	-0.401494
C	 0.0785969677	-0.1245218347	 0.0548859919	 0.132073
C	 0.7870628522	-0.6037962701	-1.2113429707	-0.207419
C	 0.4407097649	-2.0427770521	-1.6002112619	-0.068081
O	 1.0714734831	-2.4464189503	-2.8077934716	-0.420506
O	 0.534319533	-0.9698481083	 1.1149737495	-0.264217
C	-0.2465138511	-0.9524670849	 2.2688429496	 0.153922
C	 0.3492699999	-1.5953355947	 3.4784604701	-0.297932
C	 0.1503369914	-0.0924436358	 3.4443947625	-0.28356
H	 1.4128391073	 1.5362316263	 0.4673581818	 0.118358
H	-0.0155820226	 1.9706189114	-0.4936538869	 0.114398
H	-0.174443978	 1.6831904492	 1.2456976065	 0.124867
H	-1.0084836984	-0.2744666666	-0.0663870882	 0.065668
H	 0.5302708295	 0.0604487401	-2.0439148038	 0.102613
H	 1.8711600059	-0.5181529916	-1.0530011075	 0.092025
H	 0.6814286564	-2.7198485438	-0.7702170225	 0.106252
H	-0.6358420094	-2.1281012526	-1.7890271027	 0.103784
H	 2.019224069	-2.4781393108	-2.6438803885	 0.279498
H	-1.3121925543	-1.0967503887	 2.084839843	 0.082075
H	-0.2890333412	-2.1982093053	 4.1142374924	 0.114093
H	 1.3650706627	-1.9600459962	 3.376354126	 0.124148
H	 1.0397671398	 0.5156203025	 3.3273786388	 0.119087
H	-0.6283183398	 0.3489131557	 4.0575477714	 0.110348
46.9104	73.9881	79.0985	114.613	166.3964	197.5756	240.0445	287.197	306.1372	351.2861	410.0064	430.2188	488.9163	539.8482	746.4471	778.154	809.0618	826.8429	873.9055	933.3427	966.4802	967.5712	997.7321	1034.3734	1059.0549	1070.5138	1074.7569	1103.489	1121.2654	1126.0749	1154.7306	1189.2939	1194.8683	1229.236	1241.9344	1291.013	1317.1455	1360.9835	1370.4172	1401.9742	1405.5935	1417.8984	1421.5977	1453.1292	1473.712	1488.5585	1496.1531	1502.3289	1516.7131	2950.1189	3015.712	3020.1904	3039.3653	3059.4348	3083.0985	3088.4008	3109.334	3124.708	3134.1007	3141.0198	3219.8633	3234.1961	3817.25
CC(CCO)OC1CC1	C[C@@H](CCO)OC1CC1	
InChI=1S/C7H14O2/c1-6(4-5-8)9-7-2-3-7/h6-8H,2-5H2,1H3	InChI=1S/C7H14O2/c1-6(4-5-8)9-7-2-3-7/h6-8H,2-5H2,1H3/t6-/m0/s1
