19
gdb 28488	3.05193	1.32416	0.9351	2.9223	88.44	-0.203	-0.0073	0.1957	1265.7877	0.160168	-382.147033	-382.137972	-382.137028	-382.180988	33.973	
C	-0.0534897738	 1.5165771041	-0.023439251	-0.466714
C	 0.0093016714	 0.0108758215	 0.0124052849	 0.312585
N	 0.1181368134	-0.618155371	-1.1657608316	-0.329095
C	 0.1722877822	-1.9454770867	-1.1670244045	-0.061543
C	 0.1311768611	-2.7448860899	-0.0181437927	 0.182589
N	 0.2642887773	-4.1352882385	-0.1027552835	-0.593288
C	 0.0194491726	-2.0943291394	 1.2214919692	 0.276216
C	-0.0182402489	-2.8834760308	 2.5021309531	-0.515198
C	-0.0428898097	-0.7034587603	 1.2097008322	-0.238808
H	 0.8453397812	 1.9299861216	-0.4929066327	 0.133304
H	-0.9076014907	 1.853799618	-0.6201298175	 0.132423
H	-0.144582867	 1.9402701796	 0.9801869899	 0.110812
H	 0.2580647007	-2.4254016222	-2.1425695139	 0.086289
H	 0.081420867	-4.5067383932	-1.0248721738	 0.246334
H	-0.246381945	-4.6536363592	 0.5981164319	 0.246056
H	 0.8515052199	-3.5461643316	 2.5841934004	 0.140936
H	-0.0301938831	-2.2238961731	 3.3728135731	 0.129157
H	-0.911359474	-3.5209485338	 2.5616961867	 0.124576
H	-0.1299483247	-0.1691735853	 2.1513538999	 0.083369
43.441	132.2124	169.5726	198.6198	274.887	302.0783	308.1215	361.9827	443.9848	455.908	506.6563	560.3257	590.3831	659.9258	750.6107	769.4053	794.5354	894.9129	933.6591	946.7637	1002.6537	1029.5144	1059.2324	1060.451	1101.4489	1172.2171	1269.5476	1301.9872	1330.8612	1336.7047	1405.4911	1409.7787	1424.3278	1476.4811	1482.4533	1490.6796	1500.1599	1528.4055	1607.4718	1638.7423	1660.8816	3010.1125	3035.4637	3063.3807	3093.0606	3114.3657	3117.3934	3119.3679	3166.457	3551.7552	3646.7628
CC1=NC=C(N)C(C)=C1	Cc1ncc(N)c(C)c1	
InChI=1S/C7H10N2/c1-5-3-6(2)9-4-7(5)8/h3-4H,8H2,1-2H3	InChI=1S/C7H10N2/c1-5-3-6(2)9-4-7(5)8/h3-4H,8H2,1-2H3
