17
gdb 26282	3.6321	1.2113	0.98385	2.2722	76.39	-0.2601	-0.0456	0.2145	1191.187	0.137654	-418.065089	-418.057094	-418.05615	-418.098256	29.877	
C	 0.1369567356	 1.3544877212	-0.4742435444	-0.390588
C	 0.0213069502	 0.007049364	 0.2589390051	 0.059676
O	 0.3906603958	 0.1498188142	 1.6073156838	-0.440512
C	-1.3848423779	-0.5601331842	 0.1351353338	 0.316896
N	-2.0997766476	-0.5993770585	 1.2629538226	-0.326956
C	-3.3436491997	-1.0768264054	 1.1835060187	 0.072518
N	-3.9552700894	-1.526896427	 0.0922075207	-0.254489
C	-3.2286297041	-1.4887391615	-1.0319895057	 0.027336
C	-1.92815502	-1.0098572704	-1.0683536613	-0.178067
H	 1.1503843211	 1.7427432269	-0.3462495785	 0.133171
H	-0.0660029083	 1.2526371318	-1.5451787265	 0.109536
H	-0.5664566204	 2.0767722582	-0.0492526933	 0.125514
H	 0.7094736567	-0.70703192	-0.2207938391	 0.090076
H	-0.4228391212	 0.0079778261	 2.1183634019	 0.290666
H	-3.9124449203	-1.1009869284	 2.1099208771	 0.127376
H	-3.7124323997	-1.8600926796	-1.9323893083	 0.124868
H	-1.3578335408	-0.9937339672	-1.9900109166	 0.112979
40.6643	132.7305	220.4643	254.3466	300.7981	371.722	395.971	428.5952	478.3469	565.8065	637.2693	691.6548	787.3074	813.7087	865.7876	920.0811	990.0168	1013.7363	1024.8931	1037.3034	1095.8744	1097.1684	1146.2643	1197.6436	1230.35	1257.0826	1307.1736	1333.1836	1360.5414	1397.7951	1420.3989	1447.4154	1488.7641	1493.8459	1505.9456	1597.297	1623.6148	2977.5805	3039.5896	3114.8908	3128.0432	3159.5539	3167.6199	3199.5019	3664.6807
CC(O)C1=NC=NC=C1	C[C@@H](O)c1ncncc1	
InChI=1S/C6H8N2O/c1-5(9)6-2-3-7-4-8-6/h2-5,9H,1H3	InChI=1S/C6H8N2O/c1-5(9)6-2-3-7-4-8-6/h2-5,9H,1H3/t5-/m1/s1
