17
gdb 39909	4.26013	1.51739	1.38591	2.0838	79.4	-0.2244	-0.0454	0.1791	960.4403	0.137052	-380.751532	-380.744946	-380.744002	-380.782194	27.397	
C	-0.1359814102	 1.4599139236	 0.1588564662	-0.313442
C	 1.2263085179	 0.8280151487	-0.0056355945	-0.31487
C	-0.0172505776	-0.0272554237	-0.0220530152	 0.373409
N	-0.4296446476	-0.8933965245	 1.077693041	-0.239334
C	-0.6476355964	-2.0197522979	 0.512837732	 0.123893
C	-2.0670904971	-2.4440870101	 0.1982495217	-0.26017
C	-1.6008459076	-1.8634842191	-1.1882520851	-0.078333
C	-0.4620037365	-0.8160289383	-1.2407465888	-0.129888
N	-0.1749589732	-2.2094732734	-0.905280027	-0.131917
H	-0.4235875116	 1.8086179424	 1.1436642514	 0.130771
H	-0.5404833282	 2.0347383424	-0.6680149105	 0.116666
H	 1.7599992408	 0.9747381144	-0.9387927077	 0.118604
H	 1.8579522201	 0.7460366303	 0.8711452879	 0.130668
H	-2.2576577365	-3.5126942607	 0.0680385664	 0.131168
H	-2.8433582539	-1.9551518924	 0.7848317095	 0.13296
H	-2.0537667737	-2.1955964064	-2.1214384451	 0.110639
H	-0.1843699488	-0.4823932852	-2.2385709021	 0.099175
135.04	242.6912	281.8409	381.9191	474.5321	502.9317	578.3701	665.9642	692.4257	752.8039	770.0323	829.0333	837.7739	871.2059	894.5904	919.079	943.4163	949.3997	984.3035	1005.8463	1033.7068	1054.8864	1070.4397	1078.3043	1091.0173	1134.1208	1144.2268	1190.1944	1208.6665	1238.7308	1262.8497	1307.0396	1385.0775	1455.148	1482.582	1490.6529	1606.5527	3069.0602	3119.8862	3133.227	3136.0432	3143.5015	3156.7796	3219.5469	3233.4221
C1CC11N=C2CC3C1N23	C1CC21[N][C]1C[C@H]3[C@@H]2N13	
InChI=1S/C7H8N2/c1-2-7(1)6-4-3-5(8-7)9(4)6/h4,6H,1-3H2	InChI=1S/C7H8N2/c1-2-7(1)6-4-3-5(8-7)9(4)6/h4,6H,1-3H2/t4-,6-,9?/m0/s1
