16
gdb 7846	4.2791	1.28344	1.06749	1.2826	62.02	-0.2519	0.005	0.2569	1096.0266	0.127506	-420.887086	-420.878185	-420.877241	-420.922068	30.631	
C	-0.0251283705	 1.3772095749	-0.2492053926	-0.483336
C	-0.2542277352	-0.1032705896	-0.0753532639	 0.432374
O	-0.8432614984	-0.6302556044	 0.8287164479	-0.334264
O	 0.3189839839	-0.7942861461	-1.0992636327	-0.263058
C	 0.1750468881	-2.203571299	-1.0748441215	 0.079385
C	-0.8088966055	-2.8136690371	-2.0409645256	-0.337946
C	 0.6803222946	-2.8569724128	-2.3245590168	 0.10211
O	 1.2188756137	-2.0673714871	-3.3384660638	-0.431014
H	 1.0465561533	 1.5900420219	-0.2964278491	 0.152587
H	-0.4673415007	 1.7172697748	-1.1901365066	 0.152212
H	-0.474293432	 1.9123164296	 0.5862468606	 0.154102
H	 0.329219827	-2.6370572516	-0.0948217419	 0.125542
H	-1.3284305229	-3.7177555738	-1.7432572294	 0.122902
H	-1.3843428988	-2.1215244625	-2.6460016663	 0.126411
H	 1.1939940586	-3.8093219052	-2.2274327692	 0.106725
H	 1.2834158246	-1.167669782	-2.9970500791	 0.295268
28.0367	67.1844	111.9937	134.424	210.233	253.1423	333.0957	389.4125	481.227	590.0929	604.6731	630.5911	765.7458	806.9943	891.0854	924.3109	999.6047	1024.1022	1039.2357	1062.3359	1071.977	1113.574	1136.9962	1155.886	1235.3435	1253.7718	1344.7713	1376.2374	1398.1722	1419.2092	1469.4501	1476.4168	1477.0963	1841.1933	3057.3031	3121.9437	3136.2577	3147.0955	3171.4938	3194.2014	3231.5806	3791.0877
CC(=O)OC1CC1O	CC(=O)O[C@H]1C[C@H]1O	
InChI=1S/C5H8O3/c1-3(6)8-5-2-4(5)7/h4-5,7H,2H2,1H3	InChI=1S/C5H8O3/c1-3(6)8-5-2-4(5)7/h4-5,7H,2H2,1H3/t4-,5+/m1/s1
