16
gdb 69445	4.01675	1.21019	1.04427	5.9089	69.35	-0.2792	0.0124	0.2916	1135.9078	0.123641	-437.87943	-437.871333	-437.870389	-437.912235	29.782	
C	 0.034668954	 1.4400565878	-0.1539612411	-0.491843
C	-0.0263586252	-0.0422400019	 0.0781146354	 0.389909
C	-1.2312781446	-0.8574913783	-0.3546455438	-0.135559
O	-1.1216101933	-2.1203750159	 0.3013657777	-0.264075
C	-0.2929837867	-1.9958348778	 1.4497555805	-0.026764
C	 0.4742177351	-3.2365294934	 1.6277358974	 0.286542
N	 1.0870927232	-4.1968089633	 1.8147546882	-0.313799
C	 0.5743246723	-0.7682885247	 1.2025432658	-0.073537
O	 1.1916883154	-0.7917701401	-0.0794420836	-0.270232
H	 0.9571474335	 1.8528802009	 0.2600210476	 0.143502
H	 0.0142691728	 1.6622286076	-1.2260307266	 0.141535
H	-0.8185232856	 1.9434277935	 0.3116452837	 0.132235
H	-2.1575313365	-0.3398277562	-0.0624341281	 0.105476
H	-1.256881642	-1.0472573701	-1.4321686189	 0.132317
H	-0.8914905991	-1.832406489	 2.3613287662	 0.123122
H	 1.1255513268	-0.3110305989	 2.0189683698	 0.121171
85.2293	138.1048	178.3462	202.3758	277.9622	313.2231	385.5189	423.2181	507.3495	559.4229	609.0979	713.0157	816.906	862.4003	875.3002	932.2952	967.0848	999.0587	1014.0237	1053.5154	1076.0063	1109.055	1131.8452	1236.2757	1255.1316	1283.8053	1300.7525	1354.0886	1373.4686	1413.6409	1463.9716	1488.2832	1498.0133	1506.0889	2370.3384	2973.2336	2995.8195	3042.3256	3083.3136	3106.018	3132.6294	3164.6992
CC12COC(C#N)C1O2	C[C@]12CO[C@@H](C#N)[C@H]1O2	
InChI=1S/C6H7NO2/c1-6-3-8-4(2-7)5(6)9-6/h4-5H,3H2,1H3	InChI=1S/C6H7NO2/c1-6-3-8-4(2-7)5(6)9-6/h4-5H,3H2,1H3/t4-,5+,6-/m0/s1
