16
gdb 13968	5.70455	1.26049	1.16109	3.8612	66.02	-0.2647	0.0039	0.2686	1030.8902	0.130066	-383.729377	-383.722046	-383.721102	-383.761382	27.021	
O	 0.0401288778	-0.0091088434	-0.2342922064	-0.269034
C	 0.1067632927	 1.1789256094	-0.3176013505	 0.148618
O	 1.0253717369	 1.9031473509	 0.3660448404	-0.227543
C	 0.9754443272	 3.295572075	 0.2319212107	 0.432283
C	 1.1312235749	 3.9934755033	-1.0868741449	-0.331159
C	 2.136747335	 4.2494611829	 0.0154201592	-0.119908
C	 1.5404013164	 5.215826954	 1.0480652114	-0.219446
C	 0.368965479	 4.2048778531	 1.2998372136	-0.295887
H	-0.5463639348	 1.8092195572	-0.9478807725	 0.087892
H	 1.5021292161	 3.365425653	-1.8906775946	 0.126953
H	 0.4331759678	 4.7669315713	-1.4007062884	 0.113981
H	 3.1869686484	 4.0273661682	-0.1231994754	 0.106577
H	 2.1680892594	 5.3538378763	 1.9299239783	 0.115368
H	 1.2544904211	 6.1976532106	 0.6594805113	 0.105107
H	-0.6536852248	 4.5535914526	 1.1246874475	 0.101571
H	 0.4281599268	 3.7542670155	 2.2925113002	 0.124628
71.681	145.7078	158.4855	267.0109	366.6446	381.5745	445.1862	518.0661	688.0283	776.1581	787.9527	865.3961	914.6755	933.2063	967.9191	971.1786	1023.7174	1029.0834	1050.4222	1084.4426	1107.9078	1147.5638	1168.0899	1219.6136	1228.7306	1237.7179	1261.493	1303.3187	1370.8207	1420.3102	1479.7273	1481.8014	1510.9121	1869.2727	2978.7494	3051.7716	3061.7359	3104.7724	3110.9403	3127.759	3197.1582	3205.6197
O=COC12CC1CC2	O=CO[C@]12C[C@H]1CC2	
InChI=1S/C6H8O2/c7-4-8-6-2-1-5(6)3-6/h4-5H,1-3H2	InChI=1S/C6H8O2/c7-4-8-6-2-1-5(6)3-6/h4-5H,1-3H2/t5-,6-/m1/s1
