14
gdb 24771	3.5411	1.70985	1.15308	4.1178	78.68	-0.2256	-0.08	0.1456	973.4501	0.103844	-399.608662	-399.602283	-399.601338	-399.639435	25.249	
O	-0.0122965403	-0.0290657986	 0.0027010385	-0.324969
C	-0.0037456998	 1.1823561312	 0.008459782	 0.277979
C	-1.1960722701	 2.1063269204	 0.0319491554	-0.255301
C	-0.7538483863	 3.3732249886	 0.0321215432	-0.030885
N	 0.6547665126	 3.3860300568	 0.0113703937	-0.023048
C	 1.6744358647	 4.2969320165	 0.0013805312	-0.10056
C	 2.8585304148	 3.5837480474	-0.0198531029	-0.146089
C	 2.5331368842	 2.1948668641	-0.0226891702	-0.298292
C	 1.1568089061	 2.1047426298	-0.0031764736	 0.239156
H	-2.2211171565	 1.7717268806	 0.0456615988	 0.131929
H	-1.2969732264	 4.3073997595	 0.0454685558	 0.150784
H	 1.486262493	 5.3589211926	 0.0100004137	 0.138249
H	 3.8486407855	 4.0121784307	-0.0319903256	 0.112212
H	 3.2255421886	 1.3674979302	-0.0373900799	 0.128835
140.6483	183.7726	304.0996	383.3759	538.5687	599.1035	610.9183	667.956	696.4372	710.0814	743.1026	757.0715	793.9113	828.1572	874.1999	908.6665	914.2158	1020.9347	1043.9628	1069.8117	1102.9478	1177.2621	1254.3241	1291.0466	1337.6322	1407.1351	1440.273	1483.4312	1583.3904	1623.3643	1796.3367	3239.8793	3248.9263	3261.192	3272.167	3274.0774
O=C1C=CN2C=CC=C12	O=C1C=Cn2cccc12	
InChI=1S/C7H5NO/c9-7-3-5-8-4-1-2-6(7)8/h1-5H	InChI=1S/C7H5NO/c9-7-3-5-8-4-1-2-6(7)8/h1-5H
