25
gdb 105526	2.35527	1.2637	1.0387	0.0497	92.21	-0.2607	0.0834	0.3441	1330.5686	0.229292	-352.333234	-352.323543	-352.322599	-352.368254	37.708	
C	-0.09817165	 1.6019557883	 0.1997064846	-0.401599
C	-0.1693944513	 0.0866201969	-0.0337286711	-0.260344
C	 0.5099234896	-0.4560137846	-1.3027214761	 0.366443
C	 0.1155154146	 0.3159770575	-2.6115909152	-0.260588
C	 1.488761387	 1.0385935602	-2.6012174578	-0.205651
C	 1.9797259456	 0.0578940423	-1.5033651875	-0.260552
C	 0.3859970914	-1.965778144	-1.4456707245	-0.027357
C	 0.4558278222	-2.9501186351	-0.3026246023	-0.283503
C	-0.8338233113	-2.7719280706	-1.0681905268	-0.283515
H	 0.9327191508	 1.957231735	 0.2916680726	 0.119561
H	-0.5774630383	 2.1664626497	-0.6059181812	 0.119559
H	-0.614890852	 1.8604642336	 1.1293422927	 0.111565
H	 0.2716713182	-0.4117954953	 0.8384741032	 0.097485
H	-1.2271483054	-0.2040466283	-0.0527418184	 0.0975
H	-0.0006060235	-0.3617325139	-3.4618164616	 0.092401
H	-0.7775232261	 0.9448484334	-2.5606236464	 0.092041
H	 2.0466666756	 1.0343399947	-3.5406895869	 0.092205
H	 1.4238953767	 2.0715273677	-2.2515718049	 0.099919
H	 2.4706898019	 0.4951344133	-0.629653489	 0.09204
H	 2.6325413483	-0.7262893179	-1.8964854204	 0.092403
H	 0.8757671618	-2.3168434199	-2.3523727668	 0.074162
H	 1.0248354548	-3.8618299004	-0.4495027611	 0.106577
H	 0.4890990745	-2.5727722861	 0.7130837874	 0.111339
H	-1.6522731641	-2.2768788866	-0.5580696155	 0.111334
H	-1.1511775011	-3.5611776599	-1.741189737	 0.106575
27.0817	116.5399	135.5	206.4334	218.9067	258.2224	300.0881	327.077	365.5694	453.2822	469.9677	584.2927	705.055	770.0084	781.5597	798.8497	829.7743	841.4888	848.6851	911.286	919.1852	951.9387	968.7195	978.4704	1002.9437	1037.8768	1054.1107	1057.8735	1076.1836	1100.3113	1149.0847	1155.3758	1168.1288	1198.5455	1207.1616	1216.5403	1238.1176	1256.1406	1275.7259	1285.3694	1304.1682	1328.8186	1382.3029	1405.5022	1413.2711	1470.3246	1471.8584	1478.1893	1485.2916	1502.9075	1508.7908	1508.7975	1512.7413	3018.2888	3040.0452	3050.2636	3053.2367	3054.3957	3064.4159	3090.2527	3098.6779	3102.1815	3110.6843	3112.1641	3119.1892	3135.4242	3140.3391	3211.3015	3226.3544
CCC1(CCC1)C1CC1	CCC1(CCC1)C1CC1	
InChI=1S/C9H16/c1-2-9(6-3-7-9)8-4-5-8/h8H,2-7H2,1H3	InChI=1S/C9H16/c1-2-9(6-3-7-9)8-4-5-8/h8H,2-7H2,1H3
