22
gdb 99273	4.54059	0.60251	0.58693	2.4137	81.18	-0.2424	0.0389	0.2813	1993.9393	0.191871	-441.525554	-441.514182	-441.513238	-441.563726	39.61	
C	-0.0856470618	 1.4397904345	 0.089146849	-0.332633
N	-0.0910710027	 0.0094335614	-0.1446449273	-0.313208
C	 0.8598610974	-0.6190506603	-0.8965397435	 0.416458
O	 1.7623530898	-0.0188740865	-1.4567435849	-0.380302
C	 0.7253047275	-2.1375788923	-0.9610372434	-0.322305
C	 1.1779729432	-2.7030392994	-2.3095618855	-0.186191
C	 1.4138688236	-4.2178171223	-2.2746394494	 0.133941
C	 1.8314418849	-4.765758372	-3.6393186462	-0.401693
O	 2.3595364529	-4.5724837803	-1.264942852	-0.428509
H	 0.0599017778	 1.6751788452	 1.1499156306	 0.123612
H	 0.7435054483	 1.8561487185	-0.4839486479	 0.171162
H	-1.0211670827	 1.9015138865	-0.2456990744	 0.122917
H	-0.798563783	-0.5511811015	 0.2996101263	 0.24341
H	 1.3685296897	-2.5599265562	-0.1792776662	 0.142349
H	-0.2994511153	-2.4508666971	-0.7272514421	 0.088097
H	 0.4408215657	-2.4677279177	-3.087093735	 0.09585
H	 2.1043949879	-2.1923782906	-2.599322197	 0.118066
H	 0.4896976211	-4.7194721734	-1.9585152294	 0.082721
H	 2.74944791	-4.2761982607	-3.9877287654	 0.109939
H	 2.0185341384	-5.841074749	-3.5765104056	 0.122385
H	 1.0559807831	-4.5894313613	-4.391828041	 0.115411
H	 3.2054527741	-4.1809666756	-1.5121425798	 0.278525
28.5827	50.7426	83.5389	97.2855	142.9495	162.3205	240.5561	256.7953	272.5666	323.0216	351.1961	430.478	458.686	471.8348	502.5307	630.0877	716.2227	775.1111	856.2358	907.6636	938.491	963.735	1034.6945	1060.7676	1097.2573	1102.4322	1149.23	1153.6533	1172.1192	1176.1826	1228.998	1266.3495	1310.7564	1343.9053	1369.4871	1394.3108	1405.6494	1423.1841	1437.1758	1467.561	1485.7623	1492.861	1494.8461	1497.0709	1500.9024	1559.4105	1773.2001	3022.0459	3024.9631	3025.3591	3027.7087	3033.809	3062.753	3075.8882	3080.8121	3096.2963	3118.745	3153.7974	3651.1862	3790.0538
CNC(=O)CCC(C)O	CNC(=O)CC[C@@H](C)O	
InChI=1S/C6H13NO2/c1-5(8)3-4-6(9)7-2/h5,8H,3-4H2,1-2H3,(H,7,9)	InChI=1S/C6H13NO2/c1-5(8)3-4-6(9)7-2/h5,8H,3-4H2,1-2H3,(H,7,9)/t5-/m1/s1
