17
gdb 84460	3.96813	1.22128	1.07641	5.0887	78.82	-0.2479	-0.0156	0.2323	1136.3902	0.136629	-380.864548	-380.856672	-380.855728	-380.896735	30.401	
C	-0.263248412	 1.5382789405	 0.0433536434	-0.397823
C	 0.053369639	 0.0422572329	-0.0021725908	-0.009709
C	 0.737405532	-0.4483095904	-1.2634243664	-0.089363
C	 1.8219917624	-1.1653430428	-0.9799009063	-0.151059
C	 2.0362820179	-1.1858286739	 0.5026568922	 0.169572
C	 2.295285434	 0.1605952817	 1.1144583848	-0.269042
N	 0.9414114747	-0.3867901546	 1.1165118401	-0.133552
C	 2.4692120228	-2.3998665572	 1.1502866641	 0.215929
N	 2.8484793283	-3.3740099758	 1.6438670062	-0.337221
H	 0.6315368055	 2.1490452206	-0.1068467045	 0.121428
H	-0.9805019879	 1.7935206262	-0.742266624	 0.125785
H	-0.7053234808	 1.8014673807	 1.0079718537	 0.13806
H	-0.8920711787	-0.5014632804	 0.1335988956	 0.108165
H	 0.3709980379	-0.221262426	-2.2577745219	 0.114823
H	 2.485975591	-1.662129412	-1.6745498775	 0.12616
H	 2.7465726511	 0.2254985023	 2.1001479144	 0.139779
H	 2.5670002928	 0.9482043882	 0.4169986969	 0.128067
121.0927	141.0181	199.5951	236.5716	279.1482	390.1455	422.5492	491.0226	555.5756	581.1111	603.4013	723.5179	759.57	786.6775	791.4091	844.0321	916.3255	952.2412	956.0862	983.8857	1053.1519	1094.6383	1117.0601	1121.1485	1144.326	1167.1781	1228.4094	1305.4008	1330.832	1352.9971	1360.8495	1408.5708	1487.1531	1496.2716	1498.2525	1671.1885	2358.5336	3002.6882	3045.7239	3110.7321	3117.2787	3124.7094	3201.3006	3206.207	3233.7347
CC1C=CC2(CN12)C#N	C[C@H]1C=C[C@]2(CN12)C#N	
InChI=1S/C7H8N2/c1-6-2-3-7(4-8)5-9(6)7/h2-3,6H,5H2,1H3	InChI=1S/C7H8N2/c1-6-2-3-7(4-8)5-9(6)7/h2-3,6H,5H2,1H3/t6-,7+,9?/m0/s1
