20
gdb 40938	3.3045	1.35056	1.20991	2.2036	78.4	-0.2425	0.0277	0.2702	1100.6006	0.17352	-403.152479	-403.144676	-403.143732	-403.184874	30.445	
C	 0.1291519972	 1.4077009804	-0.5503803994	-0.212465
C	 1.4088788773	 1.6384251265	 0.2984430379	-0.253623
C	 1.3174483522	 0.1604632786	 0.7968294329	 0.290273
C	-0.1349997608	 0.0991297429	 0.244333315	-0.282411
C	 2.2694265584	-0.7597654986	 0.0434458526	-0.120399
O	 3.629195912	-0.5481169445	 0.4546983309	-0.228458
C	 3.8017031852	-0.3156246626	 1.7801881056	 0.131899
N	 2.9371310034	-0.1276656289	 2.6825082049	-0.272285
C	 1.5289525298	-0.0947183835	 2.2869519235	-0.226193
H	-0.6425774315	 2.1784885052	-0.5000972295	 0.102539
H	 0.3511679424	 1.2191782528	-1.6039544213	 0.104768
H	 2.3223609752	 1.9191050139	-0.2318417035	 0.10645
H	 1.2500126816	 2.3522626195	 1.1114202981	 0.103662
H	-0.874110287	 0.2322610047	 1.040375658	 0.103727
H	-0.408178063	-0.7934253237	-0.3274541893	 0.095754
H	 2.0092780543	-1.811980802	 0.2236465114	 0.108591
H	 2.2557522312	-0.582339068	-1.0353379233	 0.114139
H	 4.8649560596	-0.3000720618	 2.0138466263	 0.121915
H	 1.0312789869	 0.6819302291	 2.8801080553	 0.104827
H	 1.0595837754	-1.0456693098	 2.5786351341	 0.107291
101.977	120.4498	166.496	249.6744	354.7132	373.6554	428.1383	502.3157	521.2878	660.1705	722.7517	785.5437	839.7493	870.0166	916.7604	933.8268	941.6125	948.5488	962.7622	971.7193	989.2664	1018.8289	1068.437	1114.8843	1155.5081	1185.3131	1209.3801	1212.7444	1237.0039	1256.0189	1270.4716	1280.2315	1322.2436	1328.6577	1350.0103	1400.8048	1416.1703	1474.8706	1480.1706	1487.1157	1501.4855	1513.6625	1734.8241	3000.4055	3013.7966	3042.7172	3044.3584	3057.5413	3065.3609	3088.5776	3091.1687	3104.0872	3121.5309	3156.6044
C1CC2(C1)COC=NC2	C1CC2(C1)COC=NC2	
InChI=1S/C7H11NO/c1-2-7(3-1)4-8-6-9-5-7/h6H,1-5H2	InChI=1S/C7H11NO/c1-2-7(3-1)4-8-6-9-5-7/h6H,1-5H2
