20
gdb 76155	2.06861	1.44882	1.20122	4.7042	80.81	-0.2344	0.0357	0.2702	1166.0116	0.169677	-399.323855	-399.313363	-399.312418	-399.358339	38.915	
C	-0.0654019906	 1.5670492781	-0.0136957393	-0.43499
C	 0.0083219674	 0.0540692289	-0.0176259041	 0.270034
N	-1.2189758214	-0.5320043592	-0.5033861211	-0.570305
C	 1.3405134729	-0.6322996646	-0.2608732014	-0.120406
N	 2.5321198624	 0.1505167141	-0.4265317948	-0.512398
C	 0.7023534243	-0.6578839628	 1.1498403473	 0.107872
C	 1.3222519707	 0.1200441202	 2.3019099733	-0.469259
C	 0.1462134972	-1.9295936349	 1.5357480803	 0.257489
N	-0.3038232361	-2.9550204155	 1.832007248	-0.366964
H	 0.8890815417	 2.0273689315	 0.2397946119	 0.136719
H	-0.3516733549	 1.916507797	-1.0128591249	 0.112604
H	-0.8365821697	 1.9065444088	 0.6829604356	 0.133493
H	-1.2893822169	-0.4201655789	-1.5105930401	 0.22657
H	-1.2768606477	-1.5240343104	-0.2983914973	 0.247396
H	 1.2630563375	-1.5840399215	-0.7907493777	 0.086807
H	 3.3617770609	-0.4117828042	-0.2651169094	 0.239694
H	 2.593280361	 0.5135548226	-1.3723997344	 0.239111
H	 1.945327936	 0.9289604192	 1.9218471143	 0.149293
H	 0.5482579324	 0.5368225879	 2.9528491296	 0.135447
H	 1.9525467627	-0.5376976564	 2.9074609744	 0.131792
129.5222	139.6847	157.1706	180.2025	197.6838	208.997	233.1721	260.261	298.8579	302.767	393.8268	420.5303	461.7079	526.6612	572.6652	610.682	659.6444	707.3733	778.3709	838.359	910.3232	932.0605	1004.8121	1007.0897	1068.8092	1093.5557	1141.7084	1159.7654	1205.9473	1235.2773	1253.8049	1310.3089	1357.1785	1403.6327	1414.9005	1439.4503	1483.3375	1490.1864	1502.7532	1511.3024	1654.1897	1657.3944	2335.2427	3038.2513	3050.6668	3071.2369	3102.0468	3111.6932	3152.6177	3161.0177	3493.0795	3496.5398	3572.1032	3579.0516
CC1(N)C(N)C1(C)C#N	C[C@@]1(N)[C@@H](N)[C@]1(C)C#N	
InChI=1S/C6H11N3/c1-5(3-7)4(8)6(5,2)9/h4H,8-9H2,1-2H3	InChI=1S/C6H11N3/c1-5(3-7)4(8)6(5,2)9/h4H,8-9H2,1-2H3/t4-,5-,6+/m0/s1
