20
gdb 65639	3.0649	1.33289	1.18468	3.2468	79.34	-0.2187	-0.0164	0.2023	1126.0861	0.170112	-403.114974	-403.106305	-403.105361	-403.148753	32.763	
C	 0.1846893299	 1.5706437728	 0.0574425606	-0.47424
C	 0.0276862591	 0.0560728613	 0.0248915497	 0.246468
C	 0.8154532774	-0.7528913682	-1.0374404026	-0.322882
C	 1.392900626	-1.5749264493	 0.132890931	 0.052523
C	 2.7363736035	-1.1067530541	 0.7384850154	-0.24603
C	 1.9009264123	-0.270644542	 1.7459463595	-0.172894
N	 0.6130869432	-0.7601335519	 1.1561094619	-0.184436
C	-1.4570515031	-0.286928778	 0.068249594	 0.147033
O	-2.0740716292	-0.8412317332	-0.8033184469	-0.257386
H	 1.2348617661	 1.8716539716	 0.0176750501	 0.127212
H	-0.3172738954	 2.0107142672	-0.8108959873	 0.136687
H	-0.262374977	 1.9985515141	 0.9618478874	 0.12923
H	 0.1708195259	-1.2962650687	-1.7303982861	 0.130418
H	 1.5538829176	-0.1783797509	-1.6029906923	 0.098377
H	 1.2076573212	-2.6519437255	 0.1167454167	 0.082275
H	 3.3350208208	-1.8987113361	 1.1931294698	 0.110043
H	 3.3741953332	-0.5367481672	 0.0572678996	 0.103012
H	 1.9933499126	-0.5935635112	 2.7870168498	 0.111249
H	 2.0437203299	 0.8128745893	 1.7184585478	 0.103521
H	-1.9315884138	 0.0043321299	 1.0321733117	 0.079818
48.8714	79.4564	195.5721	213.8108	279.6103	323.1594	338.9419	379.3125	384.7321	566.7684	647.546	729.3176	762.2663	790.4714	825.1377	891.0643	895.5086	916.9048	929.8695	972.3798	986.8277	1005.6925	1032.4928	1068.6848	1138.4238	1153.4244	1178.5581	1216.5253	1219.3349	1237.0787	1259.4374	1268.0196	1276.7171	1307.551	1347.9943	1396.8971	1408.5477	1478.025	1484.3662	1485.3502	1493.9393	1517.2672	1829.6626	2884.2517	3030.4657	3051.4482	3059.2979	3062.8274	3070.8713	3092.3186	3100.0732	3110.1031	3119.0563	3128.1603
CC1(CC2CCN12)C=O	C[C@]1(C[C@H]2CCN12)C=O	
InChI=1S/C7H11NO/c1-7(5-9)4-6-2-3-8(6)7/h5-6H,2-4H2,1H3	InChI=1S/C7H11NO/c1-7(5-9)4-6-2-3-8(6)7/h5-6H,2-4H2,1H3/t6-,7+/m1/s1
