21
gdb 82576	3.11133	1.36628	1.18836	1.407	82.16	-0.2414	0.0757	0.3172	1130.346	0.183204	-387.043412	-387.035201	-387.034256	-387.075936	32.872	
O	-0.2027073054	 1.4503238011	 0.0161172869	-0.421103
C	-0.2436238047	 0.0544854317	-0.1039332416	 0.100638
C	-0.4593261571	-0.8604066072	 1.0648728492	-0.116585
C	-1.3696697982	-0.1893634182	 2.1009638075	-0.32995
C	-2.4807889122	-0.0334094433	 1.0242677957	 0.399826
C	-3.8492281878	-0.7446388232	 1.2110926659	-0.284356
C	-4.5243307918	 0.4212424869	 0.4398304645	-0.213161
C	-3.2498409636	 1.2720399492	 0.6901326695	-0.273385
C	-1.547887556	-0.6634600144	-0.0207090139	-0.158344
H	 0.6208807905	 1.6857254737	 0.456395983	 0.284987
H	 0.428626031	-0.3471824572	-0.8640233413	 0.083864
H	 0.1807759355	-1.7159837392	 1.2483640392	 0.080526
H	-1.6736646122	-0.8632632581	 2.9062296087	 0.097628
H	-0.9854278763	 0.7375972999	 2.5385927717	 0.088869
H	-3.9495489896	-1.7564818132	 0.8070764392	 0.091727
H	-4.1456269525	-0.761564713	 2.2652750405	 0.09355
H	-4.6583552565	 0.1871496955	-0.6200829032	 0.099781
H	-5.4723157384	 0.7984687217	 0.8305401869	 0.092125
H	-3.3529585233	 1.9079967207	 1.575758369	 0.09201
H	-2.8614243591	 1.8778525281	-0.1293350145	 0.110605
H	-1.8724099722	-1.3401380015	-0.804656753	 0.080749
111.4326	125.235	174.7827	272.2233	288.1949	342.3081	349.5653	464.9388	515.252	637.3291	680.6558	736.5912	775.4256	786.5905	826.7492	869.8333	889.8846	925.1768	936.3766	964.2723	982.6818	986.4516	1002.076	1026.8239	1058.7955	1076.3268	1128.888	1163.8999	1175.6433	1189.8286	1211.2894	1222.4666	1248.1139	1250.4664	1255.9737	1274.8506	1292.839	1299.0944	1313.0344	1354.1311	1450.3652	1473.7289	1481.8107	1484.2199	1505.0918	3038.8013	3043.5805	3051.4031	3057.5456	3087.2148	3089.624	3098.1861	3108.0845	3126.7194	3157.4043	3173.4051	3803.6072
OC1C2CC3(CCC3)C12	O[C@H]1[C@H]2CC3(CCC3)[C@@H]12	
InChI=1S/C8H12O/c9-7-5-4-8(6(5)7)2-1-3-8/h5-7,9H,1-4H2	InChI=1S/C8H12O/c9-7-5-4-8(6(5)7)2-1-3-8/h5-7,9H,1-4H2/t5-,6+,7-/m0/s1
