21
gdb 92475	2.51962	1.64128	1.61382	2.2082	76.37	-0.2443	0.0739	0.3182	1001.3728	0.185772	-424.245705	-424.237995	-424.237051	-424.277897	30.8	
C	-0.1888985703	 1.5347896441	 0.0317717331	-0.411302
C	 0.0257363028	 0.0208574042	-0.0038526071	 0.012995
C	 0.8059222052	-0.457368451	-1.2644297206	-0.235037
C	 1.9601874031	-1.3591247918	-0.7940376993	-0.071131
C	 2.8930540414	-0.5237684582	 0.0901635643	-0.057922
O	 2.1455581618	 0.029843925	 1.1817013162	-0.274116
C	 0.8236204062	-0.4769134024	 1.2145195987	 0.204351
O	 0.8171845241	-1.8882610182	 1.2696801945	-0.273568
C	 1.3833780229	-2.4713606489	 0.0880454503	-0.065797
H	 0.771575513	 2.0580898085	 0.0681742127	 0.128545
H	-0.7305449143	 1.872969074	-0.8576384475	 0.111655
H	-0.7688080347	 1.835987493	 0.9111051198	 0.112598
H	-0.9484328258	-0.4790576141	 0.0387185421	 0.079759
H	 0.1503319734	-1.0015897723	-1.951557195	 0.098248
H	 1.2067145178	 0.4008666588	-1.8155577487	 0.096383
H	 2.5137357293	-1.7853631905	-1.6358785762	 0.071575
H	 3.7065843124	-1.1421790188	 0.4950185561	 0.097713
H	 3.3440027852	 0.3012881619	-0.4763135099	 0.097372
H	 0.3938734386	-0.1352083789	 2.1589553911	 0.082514
H	 0.6100869256	-3.0417278003	-0.4465306534	 0.093042
H	 2.1663840724	-3.1738653041	 0.4012652987	 0.102123
62.1636	214.7044	237.2877	275.9318	312.1362	376.6776	426.0383	453.1078	540.8756	609.2219	680.5317	789.7325	827.6761	874.901	889.8086	903.3054	963.6515	969.5435	972.3174	979.736	1024.582	1042.8159	1077.17	1097.9739	1142.6407	1154.0811	1172.3893	1216.6882	1224.7387	1231.1919	1291.3395	1326.6988	1339.0549	1348.2874	1350.0191	1362.393	1386.8234	1407.1503	1412.1308	1417.383	1493.7471	1495.1927	1503.782	1517.9234	1532.2367	2993.815	2997.633	3030.6006	3032.7812	3034.7386	3037.6621	3039.5683	3069.6279	3079.7616	3091.8934	3097.5767	3111.2503
CC1CC2COC1OC2	C[C@H]1C[C@H]2CO[C@@H]1OC2	
InChI=1S/C7H12O2/c1-5-2-6-3-8-7(5)9-4-6/h5-7H,2-4H2,1H3	InChI=1S/C7H12O2/c1-5-2-6-3-8-7(5)9-4-6/h5-7H,2-4H2,1H3/t5-,6-,7+/m0/s1
