20
gdb 86106	2.45097	1.23552	0.87232	3.4003	83.97	-0.2123	-0.0249	0.1874	1356.933	0.168954	-403.160595	-403.150975	-403.15003	-403.195569	34.564	
C	-0.1387941616	 1.5043760917	-0.0347021035	-0.327543
N	-0.0765774307	 0.0703813734	 0.1539344721	-0.077287
C	-1.3527372506	-0.6419711141	 0.0939410757	-0.241774
C	-1.1423707947	-1.8332832622	 0.9956898527	 0.314476
C	-2.1365522503	-2.9447563675	 1.083409832	-0.490955
C	-0.007783453	-1.6840456302	 1.6793833864	-0.204956
C	 0.691099552	-0.3978711755	 1.3062813243	-0.08711
C	 2.1428218091	-0.6642558276	 0.9055205022	 0.161209
O	 3.0986341283	-0.45149514	 1.6038856384	-0.250783
H	 0.8710995027	 1.9261355485	-0.0439236414	 0.127857
H	-0.6011628583	 1.7327969273	-1.0005421981	 0.122202
H	-0.7180636823	 2.0255350918	 0.7506508173	 0.097145
H	-2.2015715999	-0.0309477712	 0.4614716611	 0.088697
H	-1.6029669789	-0.9275504506	-0.9389457424	 0.105661
H	-2.2667100431	-3.4339434723	 0.1101012084	 0.133042
H	-1.8297477595	-3.7027079693	 1.8083762255	 0.13065
H	-3.1244672055	-2.5692035413	 1.3784267311	 0.131479
H	 0.3895098108	-2.3638088365	 2.4231068462	 0.109598
H	 0.7084720148	 0.310842388	 2.1538878273	 0.081138
H	 2.2302358306	-1.0969978223	-0.1169726654	 0.077253
51.035	94.3343	130.9589	182.0171	207.7765	242.6019	255.4666	302.2398	376.2167	401.1348	471.2935	491.797	558.3698	686.0934	829.0132	897.3948	918.8307	936.4891	999.1791	1013.8899	1044.649	1071.9743	1077.4294	1087.7667	1147.4424	1187.0882	1197.918	1213.3823	1250.69	1292.9182	1301.0364	1322.3458	1389.6964	1393.3108	1415.1284	1464.5155	1478.892	1487.7836	1490.1302	1505.3225	1521.033	1722.2076	1831.7623	2880.7363	2898.3692	2930.174	2939.7073	2992.2462	3021.6877	3059.3894	3068.5933	3102.279	3117.781	3210.8907
CN1CC(C)=CC1C=O	CN1CC(=C[C@H]1C=O)C	
InChI=1S/C7H11NO/c1-6-3-7(5-9)8(2)4-6/h3,5,7H,4H2,1-2H3	InChI=1S/C7H11NO/c1-6-3-7(5-9)8(2)4-6/h3,5,7H,4H2,1-2H3/t7-/m0/s1
