17
gdb 77200	3.62132	1.06592	0.9161	4.1502	79.94	-0.2443	-0.0001	0.2442	1262.4617	0.134651	-380.821318	-380.812257	-380.811313	-380.855274	32.994	
C	 0.0801099917	 1.524570644	-0.0993461849	-0.338929
N	 0.1148486626	 0.100257021	 0.1642006767	-0.05821
C	-0.7860830849	-0.5303188213	 1.169887123	-0.167149
C	 0.3756936296	-1.5173297931	 1.5042612545	-0.257356
C	 1.303720162	-0.4858788081	 0.8053575418	-0.109967
C	 2.3319994729	-0.9769527248	-0.1119499616	 0.291533
N	 3.1498453461	-1.3692042328	-0.8281126618	-0.322519
C	-1.1806893674	 0.3163736952	 2.291706481	 0.347854
C	-1.4962279235	 1.034788422	 3.2034157103	-0.479091
H	 0.8614049371	 1.765616242	-0.8267606214	 0.138347
H	-0.8851607385	 1.7883156017	-0.5417496641	 0.133009
H	 0.2294223298	 2.1419363024	 0.8010202255	 0.113306
H	-1.6754880893	-0.9776447553	 0.7133563734	 0.11462
H	 0.5698160537	-1.7090454952	 2.5572164572	 0.134023
H	 0.2971506476	-2.4508641595	 0.9486128803	 0.138918
H	 1.7823562353	 0.181289652	 1.5402911812	 0.114023
H	-1.7868013848	 1.6606612397	 4.0112526289	 0.207587
64.1367	119.3081	152.3454	186.057	220.9574	239.8696	316.7181	332.403	461.0849	504.7625	548.8947	624.501	637.6173	665.7201	676.4496	778.732	825.8585	940.1699	980.1076	994.4989	1052.5533	1070.8098	1137.1348	1153.7426	1201.532	1220.6225	1252.984	1270.7064	1280.9347	1346.4857	1370.253	1449.78	1480.9774	1488.5061	1501.4218	2225.3996	2357.6571	2973.5886	2979.1081	3044.8227	3075.0247	3109.1537	3113.3271	3178.8493	3499.3985
CN1C(CC1C#N)C#C	CN1[C@@H](C[C@H]1C#N)C#C	
InChI=1S/C7H8N2/c1-3-6-4-7(5-8)9(6)2/h1,6-7H,4H2,2H3	InChI=1S/C7H8N2/c1-3-6-4-7(5-8)9(6)2/h1,6-7H,4H2,2H3/t6-,7+/m1/s1
