17
gdb 17577	3.48302	2.37131	1.93926	2.0144	66.87	-0.2284	0.0703	0.2987	751.2688	0.14431	-363.800219	-363.794076	-363.793132	-363.829906	26.237	
O	-0.1082124462	 1.3901304378	 0.0733689095	-0.481971
C	 0.0515008848	 0.0107197231	 0.086510209	 0.392441
C	 0.8629935638	-0.8154100039	-0.9892048811	-0.271452
C	 0.6782605908	-1.9122291186	 0.0986832442	 0.006305
C	 0.877539667	-0.7762092602	 1.1423197985	-0.316048
N	-0.7956331376	-2.1681748711	-0.0488202396	-0.110391
C	-1.6441287732	-1.7262440115	 1.0737818902	-0.254695
C	-1.273304629	-0.7601179225	 0.0110658903	-0.046698
H	 0.7633195909	 1.7978788291	 0.0527812302	 0.282278
H	 0.3902799795	-0.9982433868	-1.9563070442	 0.107421
H	 1.8966961035	-0.4791478197	-1.1068150423	 0.087543
H	 1.2669248788	-2.826804247	 0.1178303315	 0.079127
H	 1.9191126498	-0.4474092855	 1.1607836248	 0.093227
H	 0.5143745647	-0.8767118982	 2.1647005816	 0.100345
H	-2.641137075	-2.1570293172	 1.0362900944	 0.117812
H	-1.2433966348	-1.6426029072	 2.0770774674	 0.117194
H	-1.9970034378	-0.4305728906	-0.7296415145	 0.097563
260.7238	304.963	343.1931	414.8817	436.3338	558.5528	570.0974	597.9447	639.6352	756.3725	793.6357	837.9095	856.8294	916.1207	929.3458	965.5893	973.8355	984.7876	1026.2054	1065.9383	1083.3306	1102.4279	1122.7323	1126.7018	1147.0253	1166.8623	1216.2843	1228.7772	1236.6658	1278.7656	1279.7616	1352.7439	1408.3953	1474.1649	1501.3384	1541.5936	3060.273	3079.089	3122.8259	3131.4787	3134.8241	3140.9593	3146.1	3208.7852	3819.9377
OC12CC(C1)N1CC21	O[C@@]12C[C@@H](C1)N1C[C@@H]21	
InChI=1S/C6H9NO/c8-6-1-4(2-6)7-3-5(6)7/h4-5,8H,1-3H2	InChI=1S/C6H9NO/c8-6-1-4(2-6)7-3-5(6)7/h4-5,8H,1-3H2/t4-,5-,6-,7?/m0/s1
