20
gdb 60120	4.00413	0.94836	0.81214	1.9103	77.47	-0.2508	0.0196	0.2704	1449.863	0.171221	-440.311139	-440.301855	-440.300911	-440.346105	33.708	
C	 0.0435133761	 1.5527939979	 0.1361531552	-0.383147
C	-0.1594162905	 0.0712690352	 0.428755538	 0.139478
O	-0.6323076671	-0.0262760232	 1.7610791375	-0.442549
C	-1.1467287978	-0.5689854302	-0.5751119448	-0.305257
C	-1.2240121251	-2.056347398	-0.4558280014	 0.399885
N	-1.0083732536	-2.9092719872	-1.369004778	-0.301972
C	-1.2018159016	-4.2386682655	-0.772419821	-0.186608
C	-1.5174191931	-3.9629589435	 0.7201673428	-0.115598
O	-1.5515309533	-2.5189399406	 0.797827843	-0.267491
H	 0.7069307395	 1.9894065249	 0.8871619277	 0.126243
H	 0.4872894061	 1.7017372773	-0.8525075675	 0.112286
H	-0.9129918036	 2.0837416918	 0.1774534114	 0.121019
H	 0.8104477436	-0.4459935812	 0.3269965471	 0.06845
H	-0.8982957608	-0.9424847877	 1.907248506	 0.29015
H	-2.1385650419	-0.1383602195	-0.3901145113	 0.126697
H	-0.8549251646	-0.3407695868	-1.6022613979	 0.130557
H	-2.01899738	-4.758595995	-1.2838792278	 0.120676
H	-0.2996166304	-4.8441778233	-0.9042116938	 0.120753
H	-2.4882222769	-4.3445183853	 1.0458777868	 0.124392
H	-0.744736745	-4.3259097803	 1.4039010582	 0.122035
48.1175	87.7982	95.9919	148.6024	229.7442	287.239	301.1625	327.5723	456.16	468.1877	483.8743	636.5034	753.6028	756.467	831.3438	845.4357	900.322	922.0196	950.6725	965.6978	1001.8119	1012.0125	1066.8308	1106.5895	1124.7293	1148.8688	1210.0695	1217.5602	1247.0802	1266.1053	1303.0932	1319.3758	1345.2325	1378.3102	1381.9786	1403.0326	1453.6848	1458.5657	1485.145	1499.892	1503.6531	1526.2454	1748.6843	2947.8736	3040.124	3043.4591	3043.6992	3057.6051	3073.8951	3108.8672	3113.9572	3121.6762	3125.5872	3775.3405
CC(O)CC1=NCCO1	C[C@@H](O)CC1=NCCO1	
InChI=1S/C6H11NO2/c1-5(8)4-6-7-2-3-9-6/h5,8H,2-4H2,1H3	InChI=1S/C6H11NO2/c1-5(8)4-6-7-2-3-9-6/h5,8H,2-4H2,1H3/t5-/m1/s1
