14
gdb 31445	2.98584	1.38811	0.95314	5.235	66.85	-0.2666	-0.0714	0.1953	1137.226	0.102805	-470.07019	-470.06268	-470.061736	-470.102673	27.442	
O	 0.1310223645	 1.3756505264	-0.0516372851	-0.421428
C	 0.032957498	-0.0158429633	-0.0598409727	-0.110663
C	-1.3884420107	-0.5142191915	-0.0164968031	 0.331479
N	-2.3287351268	 0.3871356488	 0.0222839092	-0.373836
C	-3.6523421919	-0.0121483378	 0.0633455442	 0.454099
O	-4.6164378475	 0.7089040967	 0.1012951173	-0.361237
N	-3.8192045608	-1.4273621694	 0.0577616765	-0.324896
C	-2.7751709857	-2.2751639957	 0.015634746	 0.117934
N	-1.5389490247	-1.881533053	-0.022569427	-0.302501
H	-0.7805117375	 1.7063086125	-0.0179204939	 0.300438
H	 0.5031123336	-0.4481100809	-0.9584268675	 0.126868
H	 0.5615734957	-0.4624237178	 0.798363233	 0.126828
H	-4.7727393083	-1.7626773793	 0.0871030441	 0.2826
H	-3.0083541879	-3.3379404557	 0.0150347788	 0.154315
88.5265	151.5591	176.2927	204.2994	370.7464	432.2045	433.4691	510.5325	576.2861	612.0515	627.86	730.9404	773.2133	813.331	957.9211	987.8472	994.8103	1033.0317	1121.7666	1158.8993	1165.5091	1242.4565	1278.8277	1344.3819	1407.3222	1459.7731	1468.7478	1493.7331	1566.8904	1669.3886	1846.3153	2978.8041	2992.6434	3163.7034	3603.3364	3688.6775
OCC1=NC(=O)NC=N1	OCc1nc(=O)[nH]cn1	
InChI=1S/C4H5N3O2/c8-1-3-5-2-6-4(9)7-3/h2,8H,1H2,(H,5,6,7,9)	InChI=1S/C4H5N3O2/c8-1-3-5-2-6-4(9)7-3/h2,8H,1H2,(H,5,6,7,9)
