16
gdb 35105	2.22865	1.76765	1.15916	3.2097	73.57	-0.273	-0.0069	0.2661	1052.429	0.124628	-400.750284	-400.742556	-400.741612	-400.783206	29.013	
N	-0.1203613015	-1.1998504013	-0.1895060358	-0.332025
C	-0.0685787991	-0.0500461056	-0.0806992098	 0.268689
C	 0.0031463246	 1.407438805	 0.0585114655	-0.264412
C	-0.5552088006	 1.8932876575	 1.3847708713	-0.071519
C	 0.3742783486	 2.4816201523	 2.1334114125	-0.06684
C	 1.7310420634	 2.5041893449	 1.4804870303	-0.340608
C	 1.4564127865	 1.9502554926	 0.0799539518	 0.403797
C	 2.4876999305	 1.5068189095	-0.8584287715	-0.235853
O	 1.8197848888	 2.7642300318	-1.0303380984	-0.26429
H	-0.518727144	 1.8500232616	-0.7991657299	 0.148011
H	-1.5941494363	 1.744860577	 1.6498812915	 0.12169
H	 0.1972780591	 2.9019679153	 3.1165947427	 0.113472
H	 2.1575117373	 3.5105854584	 1.4043541552	 0.135123
H	 2.4542621758	 1.8898232442	 2.0320371503	 0.128857
H	 3.5358519819	 1.5705101942	-0.5698841355	 0.121075
H	 2.2533758651	 0.7445607427	-1.5994768401	 0.134834
42.5149	138.724	169.677	310.9257	355.5105	388.7029	400.9716	490.21	538.4964	585.1847	720.5164	778.5568	797.6717	834.2577	912.7628	942.9668	969.2355	978.9637	985.34	1017.7796	1048.1967	1125.3638	1132.4962	1163.9644	1182.0771	1209.1165	1232.5916	1291.1209	1303.0839	1365.9772	1418.6111	1471.1806	1532.8496	1689.8412	2353.3615	3027.661	3038.0565	3070.5085	3087.6143	3176.9881	3199.3315	3226.3691
N#CC1C=CCC11CO1	N#C[C@H]1C=CC[C@]21CO2	
InChI=1S/C7H7NO/c8-4-6-2-1-3-7(6)5-9-7/h1-2,6H,3,5H2	InChI=1S/C7H7NO/c8-4-6-2-1-3-7(6)5-9-7/h1-2,6H,3,5H2/t6-,7-/m1/s1
