21
gdb 38372	2.08402	2.03975	1.29655	0.9031	77.5	-0.2346	0.0677	0.3023	1045.4237	0.184738	-424.196192	-424.188501	-424.187557	-424.228028	31.428	
C	-0.0549984396	 1.5509505271	 0.1777630746	-0.252607
C	 1.4893944994	 1.6475362884	 0.0183142328	 0.130613
C	 1.5721160195	 0.0996417744	 0.1934827384	-0.305968
C	 0.0242446082	 0.0049681893	 0.0242579361	 0.130614
O	-0.5083094299	-0.5115199749	-1.1786550305	-0.264517
C	 0.2565059464	-0.4994318384	-2.3682002752	-0.066107
C	 0.7052259649	 0.8615928	-2.9291074633	-0.239462
C	 2.0083448326	 1.4645371112	-2.3753072118	-0.066107
O	 1.9375774093	 2.2305540935	-1.1885827993	-0.264518
H	-0.3970268775	 1.8596223455	 1.1697004751	 0.096817
H	-0.6443099251	 2.0738786452	-0.5776845615	 0.108645
H	 1.9941694602	 2.2183369734	 0.8023972339	 0.08202
H	 2.2036872582	-0.4661909237	-0.4914086992	 0.110766
H	 1.8728129456	-0.1648965514	 1.2102254852	 0.106362
H	-0.4825722402	-0.5583163312	 0.8124487381	 0.082021
H	 1.1384167131	-1.1540457586	-2.2750038484	 0.087637
H	-0.4058977529	-0.9728795324	-3.1000258886	 0.109025
H	 0.8886630755	 0.694094572	-3.9991558658	 0.102399
H	-0.1109420371	 1.5898328814	-2.8668963592	 0.115705
H	 2.7594075598	 0.66323215	-2.2815725885	 0.087637
H	 2.4006959194	 2.1735557992	-3.1114140729	 0.109025
103.0731	223.215	253.6121	316.9349	333.6521	375.2267	402.3605	445.1721	500.107	539.7434	690.2563	735.5963	781.4713	791.1912	868.6535	901.8191	929.9163	942.6052	959.1374	1011.6727	1031.2301	1050.357	1066.9542	1088.024	1094.7679	1149.3336	1178.4209	1219.6393	1227.6155	1252.3029	1260.4639	1275.3389	1291.4023	1329.3508	1331.4004	1376.6082	1395.552	1401.5537	1419.3568	1431.8494	1449.2141	1462.0071	1478.0546	1495.7878	1510.6649	2969.5873	2973.5202	3019.5586	3054.9449	3063.8402	3066.9024	3068.8625	3072.1361	3078.6367	3084.7093	3127.3269	3138.0783
C1C2CC1OCCCO2	C1[C@H]2C[C@@H]1OCCCO2	
InChI=1S/C7H12O2/c1-2-8-6-4-7(5-6)9-3-1/h6-7H,1-5H2	InChI=1S/C7H12O2/c1-2-8-6-4-7(5-6)9-3-1/h6-7H,1-5H2/t6-,7+
