23
gdb 60104	3.61959	0.93519	0.88085	1.7524	86.13	-0.2443	0.0791	0.3234	1465.7399	0.204272	-388.267313	-388.257621	-388.256677	-388.302188	36.717	
C	 0.0118216866	 1.5753061738	 0.0989123629	-0.392671
C	 0.0313605747	 0.0412639996	 0.0917844548	 0.042933
C	 0.6790385566	-0.5052936392	 1.3717549289	-0.381659
C	-1.3941686231	-0.5128555724	-0.1195861137	-0.320795
C	-1.4508356279	-1.9915126889	-0.3490985405	 0.442167
C	-0.9004504956	-2.7986454737	-1.5453088038	-0.286039
C	-2.0269530238	-3.8610682956	-1.2917992784	-0.239684
C	-2.498175117	-3.0043605223	-0.1103377532	-0.050912
O	-1.3852855983	-2.875654148	 0.7851887833	-0.289752
H	 1.0212134426	 1.9818818165	 0.2198219115	 0.110132
H	-0.4036510095	 1.9781387912	-0.8311406607	 0.106685
H	-0.5985076636	 1.9534078366	 0.9279337491	 0.112541
H	 0.6408174804	-0.2831570161	-0.7641113705	 0.074373
H	 0.7145143801	-1.597069782	 1.3770133559	 0.137808
H	 1.7008765689	-0.1265993164	 1.4808371254	 0.104046
H	 0.1120376069	-0.1912898315	 2.2562863807	 0.110926
H	-2.0182711669	-0.2693263293	 0.7495527915	 0.103466
H	-1.8450985412	-0.013019175	-0.9872794901	 0.095212
H	-1.0172207642	-2.2856574835	-2.5034130761	 0.103175
H	 0.1320764191	-3.1391135215	-1.4381386157	 0.107179
H	-2.7505180458	-3.9070814571	-2.1092840362	 0.103571
H	-1.7052795976	-4.8720566333	-1.030892814	 0.109994
H	-3.4887860813	-2.9148992418	 0.322761659	 0.097303
48.4505	82.748	122.9901	219.2856	233.0783	246.4395	310.4068	327.5337	352.0916	418.4064	440.8798	494.826	708.4376	728.347	772.1011	815.626	858.8756	895.0027	920.0168	931.5643	939.1562	947.5384	964.008	971.765	1004.7462	1045.2296	1097.7787	1133.0887	1161.0705	1192.3831	1202.014	1213.4578	1217.3874	1255.3353	1260.1084	1297.0272	1319.4496	1368.905	1374.6692	1402.3307	1423.6495	1448.7168	1464.6223	1470.0923	1486.4821	1493.1307	1494.9425	1504.9007	1508.5364	2998.62	3013.8712	3023.1403	3031.2664	3059.2417	3060.9701	3068.6818	3087.2364	3092.9493	3098.3146	3111.5213	3125.8071	3128.267	3175.4503
CC(C)CC12CCC1O2	CC(C)C[C@]12CC[C@H]1O2	
InChI=1S/C8H14O/c1-6(2)5-8-4-3-7(8)9-8/h6-7H,3-5H2,1-2H3	InChI=1S/C8H14O/c1-6(2)5-8-4-3-7(8)9-8/h6-7H,3-5H2,1-2H3/t7-,8-/m1/s1
