16
gdb 46956	2.88925	1.90744	1.43737	4.7541	67.76	-0.2553	-0.0087	0.2466	902.8252	0.127063	-437.872351	-437.865805	-437.864861	-437.903321	26.03	
O	 0.0350897376	-0.0162736043	 0.1817987413	-0.328076
C	-0.0195522766	 1.163814285	-0.0335440334	 0.421586
O	-1.2289067336	 1.7468600787	-0.2392091736	-0.235417
C	-1.3357454038	 3.105550955	-0.7022727197	-0.085965
C	-0.2131271657	 3.9806005802	-0.183421112	-0.0761
C	 0.1857671684	 3.7389707514	 1.2975751773	-0.174833
N	 1.4995523987	 3.1189803495	 0.9008794887	-0.144246
C	 1.1751552464	 3.4318666139	-0.533743218	-0.064703
C	 1.2108681528	 2.0258979486	-0.0805724554	-0.146656
H	-1.3559290918	 3.0998713805	-1.8000967882	 0.120106
H	-2.3101977239	 3.4497122653	-0.3443312076	 0.127655
H	-0.3826047326	 5.0250353221	-0.4483350604	 0.095628
H	 0.3912387212	 4.6612153112	 1.8432482881	 0.124344
H	-0.4597601298	 3.09547352	 1.9014524477	 0.128923
H	 1.8997690127	 3.8565428333	-1.21985633	 0.106466
H	 2.1013771702	 1.4393195995	-0.2720188949	 0.131287
112.8153	197.9438	323.9906	355.3921	430.7492	501.3195	544.2382	683.3981	702.4645	767.9419	805.075	814.2768	826.5126	890.3407	922.965	983.9936	988.6463	1032.5479	1054.8816	1062.6552	1100.6898	1123.3746	1180.453	1186.7966	1214.1727	1256.5907	1291.2767	1299.7416	1319.9316	1348.0199	1393.6449	1426.7711	1502.9747	1505.6799	1838.6567	3023.5004	3067.1773	3089.8483	3105.9188	3128.0613	3172.7953	3195.8996
O=C1OCC2CN3C2C13	O=C1OC[C@H]2CN3[C@H]2[C@H]13	
InChI=1S/C6H7NO2/c8-6-5-4-3(2-9-6)1-7(4)5/h3-5H,1-2H2	InChI=1S/C6H7NO2/c8-6-5-4-3(2-9-6)1-7(4)5/h3-5H,1-2H2/t3-,4-,5-,7?/m1/s1
