25
gdb 119143	2.29783	1.02873	0.84673	1.3744	88.75	-0.2617	0.0702	0.3319	1533.7558	0.227037	-389.486434	-389.47549	-389.474546	-389.522463	41.151	
C	-2.0107405358	 1.4936598297	-1.3100164864	-0.380955
C	-1.8802110951	-0.0321249333	-1.3061906337	-0.166561
C	-1.6793429739	-0.6039783886	 0.1056010783	-0.26626
C	-1.6620859218	-2.1267686922	 0.1835181042	 0.376121
C	-2.1136376919	-2.7478715563	 1.4848981707	-0.328649
C	-3.0007920686	-2.8175450207	 0.2636181718	-0.30201
C	-0.5481740659	-2.8310860318	-0.605314712	 0.052424
C	 0.8563549624	-2.4007013064	-0.1751957523	-0.41454
O	-0.6686457235	-4.2518701527	-0.5579109518	-0.432181
H	-2.1500179588	 1.8807957059	-2.3241872645	 0.111229
H	-2.8668949287	 1.8190531462	-0.7083134652	 0.113237
H	-1.1162186622	 1.9695208682	-0.8923257425	 0.112414
H	-2.7768817899	-0.4817573478	-1.7509509908	 0.101359
H	-1.0425859071	-0.3219410664	-1.9525601913	 0.098915
H	-0.7570035507	-0.1913882065	 0.5362156645	 0.092401
H	-2.4921930439	-0.2395541108	 0.7472363046	 0.089369
H	-1.6545952062	-3.6735620256	 1.816268656	 0.089828
H	-2.3924992743	-2.0837923615	 2.296389696	 0.10568
H	-3.8939240569	-2.20157474	 0.2420579648	 0.101494
H	-3.0938039678	-3.7824761003	-0.219218677	 0.125021
H	-0.6805027134	-2.5915479517	-1.667210004	 0.088282
H	 1.0068146357	-2.5841728952	 0.896069879	 0.110541
H	 1.6045434856	-2.969831809	-0.7339176656	 0.121283
H	 1.031437729	-1.3366663463	-0.3562643381	 0.122426
H	-0.3191606463	-4.5479081268	 0.2891210354	 0.279133
54.3227	91.3309	95.6507	156.8934	227.3486	240.9532	253.7213	273.7186	305.3435	330.2898	345.4356	383.0794	428.4649	485.6104	589.6122	687.417	743.1446	790.3678	848.7693	883.8612	892.0134	910.0449	939.3201	949.6373	981.0271	1048.2693	1050.1272	1057.8084	1076.9037	1085.6335	1095.473	1123.5985	1145.6816	1190.5429	1253.2348	1271.3521	1299.8917	1309.1555	1330.3559	1351.9135	1367.8866	1394.534	1400.3444	1412.6611	1426.9655	1457.4219	1480.3381	1490.076	1496.5108	1497.685	1499.4857	1501.7135	1511.6937	3009.404	3023.5984	3026.9791	3028.168	3035.4358	3040.0685	3060.804	3094.6754	3100.3777	3101.3361	3119.7296	3125.1718	3134.3895	3202.7252	3230.1727	3809.8746
CCCC1(CC1)C(C)O	CCCC1(CC1)[C@@H](C)O	
InChI=1S/C8H16O/c1-3-4-8(5-6-8)7(2)9/h7,9H,3-6H2,1-2H3	InChI=1S/C8H16O/c1-3-4-8(5-6-8)7(2)9/h7,9H,3-6H2,1-2H3/t7-/m1/s1
