18
gdb 52126	5.81476	0.71214	0.64208	2.7429	77.84	-0.2349	0.0072	0.2421	1683.9815	0.146857	-439.075655	-439.06643	-439.065486	-439.112162	31.246	
N	-0.0204637477	 1.2784292316	 0.0465607989	-0.436685
C	-0.0197387106	 0.0174181159	 0.0202105136	 0.13812
O	-1.187372326	-0.6549434602	 0.0100729726	-0.179441
C	-1.0944921664	-2.0759305324	-0.0198950096	-0.185828
C	-2.4654531582	-2.6579491268	-0.0275520794	 0.27002
C	-3.6356040132	-2.0289599086	-0.0105934168	-0.191489
C	-4.7506426085	-3.0328477824	-0.027890057	-0.106221
O	-4.1108541912	-4.3085613722	-0.0566200769	-0.264771
C	-2.6991547545	-4.1479242674	-0.0578783181	-0.149027
H	 0.9356749923	 1.6271849741	 0.0506393169	 0.231005
H	 0.8646152436	-0.6352903987	 0.0036074501	 0.085655
H	-0.5372159823	-2.4009327462	-0.9130978299	 0.119156
H	-0.5314218597	-2.4378469791	 0.8552979712	 0.119157
H	-3.7838827835	-0.9584821444	 0.012233255	 0.128524
H	-5.3964067434	-2.9600904166	 0.8614767759	 0.108832
H	-5.4022178954	-2.9231311246	-0.9091899517	 0.108832
H	-2.2661076688	-4.6213338226	-0.9550790781	 0.102081
H	-2.2603213465	-4.6582857194	 0.8159481432	 0.102081
19.3668	62.2665	105.7413	107.9056	127.5056	221.8937	304.7403	337.4516	433.9731	636.139	703.9241	777.3431	818.5006	822.3464	921.4256	933.0055	972.6844	996.6885	1021.9675	1041.0701	1045.383	1082.6168	1108.1742	1146.0139	1173.9177	1200.0121	1224.8213	1261.3024	1268.4866	1299.0088	1356.6741	1398.7324	1416.2314	1437.0146	1501.1207	1517.3587	1530.1037	1740.4163	1752.3159	2955.3735	2969.1537	2969.6582	2975.6578	2990.7383	2995.4584	3018.5109	3241.2524	3521.3065
N=COCC1=CCOC1	[NH][CH]OCC1=CCOC1	
InChI=1S/C6H9NO2/c7-5-9-4-6-1-2-8-3-6/h1,5,7H,2-4H2	InChI=1S/C6H9NO2/c7-5-9-4-6-1-2-8-3-6/h1,5,7H,2-4H2
