16
gdb 53633	4.26783	0.61876	0.54408	3.7179	82.78	-0.2513	-0.0408	0.2105	1947.0872	0.122245	-396.917638	-396.906981	-396.906036	-396.957107	34.653	
C	-0.1198622826	 1.431789598	-0.1420918181	-0.499437
C	-0.0671727626	-0.0207770374	-0.0660406763	 0.151755
C	-0.0091414045	-1.2211643878	-0.0043724404	-0.033176
C	 0.0452228303	-2.6740462633	 0.074283591	-0.275308
N	-1.2905125087	-3.2494024105	-0.0534858149	-0.32222
C	-1.4739893163	-4.5947418778	 0.008585327	 0.31352
N	-0.4939164305	-5.4144926968	 0.1143371646	-0.530624
C	-2.8677667921	-5.0085542076	-0.068249851	 0.228643
N	-3.9621651355	-5.3777949152	-0.1215756473	-0.320354
H	 0.8746167249	 1.8487093347	-0.3339636067	 0.157187
H	-0.7795115058	 1.7630570479	-0.9512102236	 0.154173
H	-0.4894601527	 1.8682502892	 0.7919131896	 0.153496
H	 0.6844487014	-3.0881527861	-0.7159493779	 0.157863
H	 0.4974660606	-2.9991554079	 1.0217923306	 0.152574
H	-2.0831382381	-2.6317969565	-0.0283862967	 0.271299
H	-0.818136648	-6.3776284429	 0.1232387401	 0.24061
8.5535	31.4403	62.6144	79.7231	160.7747	193.0581	227.6832	251.9734	308.6883	356.6049	376.563	463.7816	524.4456	617.8324	724.5378	760.157	817.8475	940.8606	1000.1655	1051.8344	1054.5815	1077.0219	1163.443	1180.5969	1245.6347	1293.674	1390.5659	1414.8293	1475.8442	1478.1368	1498.9697	1533.3263	1680.0927	2349.3325	2380.7613	3010.2888	3031.2166	3037.1127	3093.9015	3094.7726	3539.159	3677.0727
CC#CCNC(=N)C#N	CC#CCNC(=N)C#N	
InChI=1S/C6H7N3/c1-2-3-4-9-6(8)5-7/h4H2,1H3,(H2,8,9)	InChI=1S/C6H7N3/c1-2-3-4-9-6(8)5-7/h4H2,1H3,(H2,8,9)
