14
gdb 77214	3.98131	1.05275	0.8933	4.5339	69.65	-0.2793	-0.0225	0.2568	1229.6525	0.098497	-436.626311	-436.617524	-436.61658	-436.660761	31.089	
O	 0.061794201	 1.2029099025	 0.277491683	-0.402687
C	 0.1854000374	-0.1501920725	-0.0206815299	 0.043437
C	-1.1893726957	-0.7978965546	-0.3194919069	-0.044932
O	-0.7351087411	-1.2273059286	-1.6392841796	-0.284293
C	 0.5310749777	-0.5635747416	-1.4931126801	-0.0647
C	 0.7258916873	 0.550241387	-2.4216447733	 0.286923
N	 0.9155275616	 1.434711169	-3.1404746025	-0.314022
C	-1.631377877	-1.8888177967	 0.5232418527	 0.312419
C	-1.9928388467	-2.7872531669	 1.2344016639	-0.428256
H	 0.9341742041	 1.5824510011	 0.4281958842	 0.303532
H	 0.782453804	-0.7000858878	 0.7139527358	 0.110331
H	-1.9652562588	-0.0286997154	-0.4115162835	 0.137413
H	 1.3650695682	-1.2670469027	-1.5977968668	 0.132882
H	-2.3200246119	-3.5817290427	 1.8594295628	 0.211954
29.3498	112.6603	144.433	184.5517	245.7684	268.9233	338.4067	398.2109	462.1265	481.9323	609.498	624.68	636.3599	689.3374	796.625	807.6267	949.8954	972.8695	1003.8582	1034.8321	1084.6719	1150.9707	1189.8989	1234.6318	1261.0456	1304.2413	1343.4631	1366.5342	1439.7517	2240.9699	2358.1482	3041.9367	3047.555	3061.0958	3500.2417	3817.8855
OC1C(OC1C#N)C#C	O[C@H]1[C@@H](O[C@H]1C#N)C#C	
InChI=1S/C6H5NO2/c1-2-4-6(8)5(3-7)9-4/h1,4-6,8H	InChI=1S/C6H5NO2/c1-2-4-6(8)5(3-7)9-4/h1,4-6,8H/t4-,5-,6-/m0/s1
