21
gdb 103341	2.84563	1.33658	1.08262	1.729	79.28	-0.2352	0.0592	0.2944	1212.586	0.180176	-424.155605	-424.146152	-424.145208	-424.189481	36.144	
C	-0.2240458172	 1.5665986007	 0.0139604773	-0.404367
C	 0.1437209109	 0.0797929823	-0.0882443528	-0.246178
C	 0.8095273026	-0.4732760133	 1.170769383	 0.427714
O	 2.0510607981	 0.1463141512	 1.4060103603	-0.480867
C	-0.1270957052	-0.8346212067	 2.3886149777	-0.053323
O	-0.6806104418	-1.9150829094	 1.5399970967	-0.307948
C	 0.7888376749	-2.0167840979	 1.3780552401	-0.032617
C	 0.9000553659	-1.8763446923	 2.9290961121	 0.056399
C	 2.1594473281	-1.5736535237	 3.7266592586	-0.447336
H	 0.6517609067	 2.2142090902	 0.1512386825	 0.103123
H	-0.7149766819	 1.9043408138	-0.9031244365	 0.125187
H	-0.9108510251	 1.753299111	 0.8463355881	 0.12382
H	-0.7535893696	-0.5054001734	-0.2912750309	 0.130056
H	 0.8357604859	-0.069097748	-0.9264778749	 0.099821
H	 1.946083972	 1.0924934846	 1.265780664	 0.282188
H	-0.8435109182	-0.2180189007	 2.9358490046	 0.082037
H	 1.1653089679	-2.8026130955	 0.7200506082	 0.086315
H	 0.3464916022	-2.7001438993	 3.3895665476	 0.083815
H	 2.746572122	-0.7597086528	 3.3101501014	 0.146101
H	 1.8866517518	-1.3214826392	 4.7579956713	 0.111567
H	 2.7883300601	-2.4700207115	 3.7736187114	 0.114492
78.6009	127.9992	158.8089	217.6651	219.2352	245.3552	305.7584	339.3145	365.2303	410.2224	454.7666	586.2691	631.2811	651.1003	752.4912	788.307	799.2896	831.4035	874.9686	911.0708	958.94	1010.0982	1031.2315	1056.6983	1076.7175	1104.969	1128.0382	1140.5444	1149.4999	1178.7532	1217.0579	1235.1243	1248.007	1271.9302	1299.436	1342.946	1395.1526	1407.9546	1410.2012	1418.4552	1481.803	1493.7158	1498.7211	1510.1623	1513.146	3018.8159	3034.1859	3035.6493	3066.3555	3078.8964	3084.3717	3093.2715	3102.5418	3110.2366	3131.1533	3185.876	3818.1149
CCC1(O)C2OC1C2C	CC[C@@]1(O)[C@H]2O[C@@H]1[C@H]2C	
InChI=1S/C7H12O2/c1-3-7(8)5-4(2)6(7)9-5/h4-6,8H,3H2,1-2H3	InChI=1S/C7H12O2/c1-3-7(8)5-4(2)6(7)9-5/h4-6,8H,3H2,1-2H3/t4-,5-,6+,7+
