18
gdb 104521	2.66268	1.14171	0.92406	5.434	72.02	-0.2726	0.0316	0.3042	1269.7938	0.146312	-439.07631	-439.066748	-439.065804	-439.111005	34.825	
O	 0.3476621582	-1.1730905458	 1.5976500543	-0.426907
C	 0.102946931	-0.4310165762	 0.4146528682	-0.132858
C	-1.3625715576	-0.5034143126	 0.0144975812	 0.30298
C	-2.3056284203	 0.2188395928	 0.9713904817	-0.421359
C	-2.2133389268	 1.6759185505	 0.8581410155	 0.272444
N	-2.1295686209	 2.823655736	 0.7527941691	-0.31303
C	-1.7054348232	-0.5927719528	-1.4592653258	-0.37506
C	-1.8331085515	-1.8053019437	-0.569573818	 0.042878
O	-0.8818582063	-2.832298205	-0.6171262599	-0.426913
H	 0.2216486688	-2.0998642169	 1.3613262828	 0.296851
H	 0.3791986166	 0.6057889054	 0.6342524031	 0.12826
H	 0.7335288311	-0.7765514624	-0.4130918672	 0.09813
H	-3.3463991169	-0.0735811117	 0.7947456197	 0.14299
H	-2.0546683585	-0.0728447459	 1.9978261685	 0.169964
H	-2.6131811139	-0.119281833	-1.818620494	 0.125158
H	-0.8750253537	-0.5674861684	-2.1570954325	 0.124709
H	-2.840135005	-2.1369265595	-0.3154729439	 0.093856
H	-0.9951196711	-3.3248517409	-1.4365180128	 0.297908
58.99	98.5416	118.1607	188.5899	232.0018	268.2972	299.3753	336.659	392.1687	415.76	440.46	482.8829	495.3145	651.6166	755.0559	828.9029	884.2336	921.1173	939.92	952.2546	995.9928	1031.7186	1049.7258	1069.3253	1100.3524	1172.3917	1206.1679	1214.4658	1276.0074	1296.3431	1330.199	1351.8359	1403.8194	1425.3368	1431.3538	1461.8108	1487.6247	1503.6355	2360.9835	3028.9349	3043.3074	3081.6013	3085.4369	3096.8615	3131.181	3219.272	3795.2978	3812.0703
OCC1(CC#N)CC1O	OC[C@@]1(CC#N)C[C@H]1O	
InChI=1S/C6H9NO2/c7-2-1-6(4-8)3-5(6)9/h5,8-9H,1,3-4H2	InChI=1S/C6H9NO2/c7-2-1-6(4-8)3-5(6)9/h5,8-9H,1,3-4H2/t5-,6-/m1/s1
