19
gdb 89140	2.08493	1.70628	1.15236	3.74	81.3	-0.2178	0.0285	0.2463	1132.2551	0.158622	-382.043417	-382.034404	-382.03346	-382.076797	33.56	
C	-0.39809287	 1.4291278344	 0.0472493287	-0.347862
N	 0.0843558221	 0.0576670969	 0.0108946953	-0.066502
C	 1.110911625	-0.375764498	-0.9741753047	-0.2458
C	 1.8732952007	-1.091553047	 0.1553923625	 0.286388
C	 2.4772929799	-2.461461214	 0.0650574107	-0.501475
C	 2.3201132541	-0.0544170598	 1.1802129042	-0.249217
C	 2.8142092256	 1.2438825802	 0.8194543299	 0.308877
N	 3.2283681344	 2.2817060845	 0.5148592017	-0.365397
C	 0.8478664181	-0.5014684961	 1.0993405092	-0.06516
H	 0.3931050739	 2.186723553	 0.1339415515	 0.136913
H	-0.9701659242	 1.629113274	-0.8645326417	 0.123742
H	-1.0794578488	 1.5403555235	 0.8971147542	 0.123434
H	 0.6985165055	-1.0537241018	-1.7290026881	 0.11203
H	 1.6581835512	 0.4333617881	-1.4733874801	 0.122861
H	 3.382751085	-2.4536658388	-0.5523185409	 0.134765
H	 2.752939927	-2.8419139961	 1.0534637115	 0.12586
H	 1.7714519195	-3.1688907069	-0.3829107407	 0.131686
H	 2.839409346	-0.4922368301	 2.0290855589	 0.128828
H	 0.3683857551	-0.9104348361	 1.9839783479	 0.106032
126.9073	136.6491	167.2257	183.0731	197.0096	234.3611	296.4491	373.7206	396.3625	431.3102	554.6927	596.9305	649.3023	696.5706	802.4645	854.7871	885.1175	939.2338	967.9762	980.1448	1031.9094	1042.6179	1086.0599	1105.4054	1142.7621	1172.3882	1206.8905	1235.0037	1244.3116	1280.5825	1295.6877	1354.983	1416.3234	1450.5443	1453.9988	1485.2953	1486.2503	1496.4048	1509.003	1512.3226	2338.1156	3008.0166	3023.3763	3029.9165	3071.958	3075.7016	3092.912	3102.2408	3104.0392	3145.9881	3155.6784
CN1CC2(C)C(C#N)C12	CN1C[C@@]2(C)[C@@H](C#N)[C@@H]12	
InChI=1S/C7H10N2/c1-7-4-9(2)6(7)5(7)3-8/h5-6H,4H2,1-2H3	InChI=1S/C7H10N2/c1-7-4-9(2)6(7)5(7)3-8/h5-6H,4H2,1-2H3/t5-,6+,7-/m0/s1
