21
gdb 115568	2.28893	1.12337	1.06835	2.8652	79.17	-0.2492	-0.029	0.2202	1309.878	0.179534	-424.22886	-424.218605	-424.217661	-424.264647	36.941	
C	 0.0833558096	 1.5349738758	-0.010507375	-0.38466
C	-0.092024068	 0.0142858125	-0.0849196883	-0.189605
C	 0.6845277531	-0.6087280957	-1.2359500866	 0.000606
C	 2.2392958884	-0.6060370191	-1.2101839392	-0.25232
C	 2.2218593717	-2.0589166459	-1.7511364983	-0.27369
C	 0.71400593	-2.1795114561	-1.3585111054	 0.269242
O	 0.4516571148	-2.9032318931	-0.172625377	-0.483474
C	-0.1978438678	-2.7677905864	-2.4118020819	 0.134922
O	-0.2529643628	-2.3615993764	-3.5451770788	-0.265837
H	 1.1358397684	 1.8090171693	 0.1198255553	 0.118232
H	-0.2729362713	 2.0189776518	-0.9262158876	 0.119881
H	-0.4762990786	 1.9564745226	 0.8300175932	 0.115032
H	 0.2254701813	-0.4386296155	 0.8630635121	 0.080697
H	-1.1559687297	-0.2315745164	-0.1915419433	 0.105173
H	 0.3311785023	-0.2131118019	-2.1941348978	 0.095121
H	 2.7498219991	 0.1437677188	-1.8175373539	 0.107887
H	 2.6341791733	-0.5437799113	-0.1899342586	 0.092469
H	 2.345578912	-2.1035765607	-2.8354099632	 0.128343
H	 2.8795909719	-2.7952704136	-1.2816664775	 0.103271
H	 1.0862884352	-2.6423354376	 0.5014930463	 0.285831
H	-0.820239453	-3.6168043412	-2.0540855847	 0.092881
54.8357	72.5302	96.2038	161.6056	195.7141	224.5916	240.6778	264.165	291.2851	373.5246	419.6573	522.8152	568.4283	673.6264	744.1975	748.7871	785.0319	885.339	920.7429	936.8113	951.9836	969.5124	1006.2233	1061.943	1078.2908	1101.3386	1146.4282	1170.0837	1189.5027	1230.5951	1253.5653	1262.1317	1274.0228	1291.5851	1345.1951	1357.4935	1387.2917	1409.5912	1417.3052	1470.9969	1480.0569	1497.9505	1499.3389	1506.4869	1827.3644	2902.0857	3019.8764	3032.15	3041.3611	3047.8161	3062.3056	3064.0432	3100.0037	3104.5971	3106.9903	3127.8855	3830.4688
CCC1CCC1(O)C=O	CC[C@H]1CC[C@]1(O)C=O	
InChI=1S/C7H12O2/c1-2-6-3-4-7(6,9)5-8/h5-6,9H,2-4H2,1H3	InChI=1S/C7H12O2/c1-2-6-3-4-7(6,9)5-8/h5-6,9H,2-4H2,1H3/t6-,7-/m0/s1
