17
gdb 83345	2.21168	1.67656	1.54587	2.6938	62.78	-0.2348	0.043	0.2777	961.4667	0.135861	-496.05928	-496.051255	-496.05031	-496.091187	31.862	
O	 0.094175893	 1.4650584801	-0.1002501247	-0.450727
C	 0.0102538833	 0.073963369	-0.0602421357	 0.097008
C	 0.1516141341	-0.6356089622	 1.3044698283	-0.019207
O	-0.8460253916	 0.0426350643	 2.1011429929	-0.297717
C	-2.0027568593	 0.0420046324	 1.2165884315	-0.138967
C	-1.3983110783	-0.6564591784	 0.002619032	 0.313871
O	-2.2545838838	-0.8460933524	-1.0639704526	-0.483187
C	-0.6469348013	-1.8262169715	 0.7101662364	 0.045983
O	-0.0001353231	-2.621522819	-0.2581337296	-0.446799
H	-0.1614659958	 1.7836279276	 0.7746953195	 0.293694
H	 0.6447547314	-0.3447413569	-0.8397576158	 0.102995
H	 1.0803344033	-0.7271967172	 1.8645703902	 0.084863
H	-2.8298043513	-0.5120555011	 1.6708912853	 0.114666
H	-2.3243334019	 1.0667260419	 1.0027817275	 0.113066
H	-1.8084643118	-1.4273473555	-1.69098369	 0.295378
H	-1.2180299539	-2.4195243176	 1.4341929385	 0.080552
H	 0.5854840469	-3.2405346835	 0.1884765264	 0.294527
177.0864	214.1343	229.1596	280.352	291.7475	328.651	356.4644	399.1849	465.7329	494.8957	527.5984	635.8823	668.6643	746.9973	818.9173	847.1348	888.8493	934.8407	977.1289	1004.253	1049.0587	1098.4407	1124.3392	1142.9905	1161.2052	1189.1394	1201.08	1217.7802	1263.6603	1274.6841	1297.9976	1303.5287	1355.1812	1415.5133	1421.4333	1451.3911	1531.686	3036.779	3042.2356	3088.4862	3136.3023	3145.152	3775.6728	3799.9377	3824.5723
OC1C2OCC1(O)C2O	O[C@H]1[C@H]2OC[C@]1(O)[C@H]2O	
InChI=1S/C5H8O4/c6-3-2-4(7)5(3,8)1-9-2/h2-4,6-8H,1H2	InChI=1S/C5H8O4/c6-3-2-4(7)5(3,8)1-9-2/h2-4,6-8H,1H2/t2-,3-,4-,5-/m0/s1
