20
gdb 63265	2.07771	1.54945	1.39941	1.6703	76.28	-0.264	0.0222	0.2863	1097.6143	0.167566	-440.300511	-440.290363	-440.289418	-440.334918	37.89	
C	-0.3437649798	 1.5604495306	 0.0766590957	-0.438478
C	 0.0016849919	 0.0823896488	 0.0700017273	 0.373889
C	-1.1176878637	-0.7789890063	-0.4845963849	-0.418409
O	 1.2469376299	-0.1381108228	-0.7262112163	-0.298864
C	 1.8858519242	-0.7141937119	 0.3336740004	 0.39081
N	 3.0067235771	-1.2716071965	 0.4399662582	-0.568263
C	 0.7518234473	-0.5093664448	 1.3221836107	 0.195053
C	 1.0508856643	 0.4087781558	 2.5001770542	-0.444023
O	 0.1790764754	-1.7226013671	 1.7757738092	-0.466701
H	 0.512122519	 2.1753632187	 0.3608736011	 0.127826
H	-0.6673675005	 1.8717025253	-0.9211889779	 0.129554
H	-1.1630909766	 1.7577994698	 0.7751125138	 0.127983
H	-1.357270474	-0.4615406745	-1.503929046	 0.12037
H	-0.8362609006	-1.8317820296	-0.4905018513	 0.135871
H	-2.0159924023	-0.6730304356	 0.1312948435	 0.126798
H	 3.5115615822	-1.2856055449	-0.4479584902	 0.227302
H	 1.4995954015	 1.3560003938	 2.1923336358	 0.123657
H	 0.1332631686	 0.6123703806	 3.0598799632	 0.126378
H	 1.7577325335	-0.0928314947	 3.1677797342	 0.132706
H	 0.9097773927	-2.3162772447	 1.9851371694	 0.296543
64.7067	140.5805	180.723	208.7966	217.5455	231.9889	277.8649	281.7635	325.8898	338.5188	360.6936	413.2274	481.8528	583.748	619.7158	682.2352	714.2835	816.9403	823.8601	870.4951	942.771	967.8887	977.7364	1001.5079	1038.5541	1093.9869	1146.4517	1150.7179	1221.3836	1257.0863	1267.482	1342.0045	1361.5964	1403.9723	1405.7443	1420.6327	1471.5794	1474.1956	1482.9453	1488.6504	1499.4538	1509.7767	1818.311	3042.9824	3045.9518	3050.6643	3109.8787	3116.733	3117.962	3125.9521	3137.8327	3154.1793	3473.2151	3797.954
CC1(C)OC(=N)C1(C)O	CC1(C)O[C]([NH])[C@]1(C)O	
InChI=1S/C6H11NO2/c1-5(2)6(3,8)4(7)9-5/h7-8H,1-3H3	InChI=1S/C6H11NO2/c1-5(2)6(3,8)4(7)9-5/h7-8H,1-3H3/t6-/m0/s1
