17
gdb 43118	3.74854	1.53536	1.47461	2.0996	70.78	-0.2397	-0.0075	0.2322	922.5623	0.139281	-421.830499	-421.824232	-421.823288	-421.860998	26.005	
O	-0.014407762	 0.0091199708	-0.096564053	-0.32864
C	-0.0288865179	 1.1985243664	 0.022196474	 0.435207
C	-1.1029547036	 2.3015871752	 0.0460917158	-0.167907
C	-0.8199238001	 2.876214277	 1.4551737627	-0.251711
C	 0.6942276745	 3.195955537	 1.2494442847	 0.101574
O	 0.8149434587	 4.5367627211	 0.7843796965	-0.262433
C	 0.1440361892	 4.5727731949	-0.4817519288	-0.114216
C	-0.0642534054	 3.1000497802	-0.8429984777	-0.055274
C	 1.007825043	 2.3177616004	 0.0026167626	-0.177082
H	-2.1315154607	 2.1236634211	-0.2595819288	 0.087277
H	-1.3681632699	 3.7923802651	 1.6867906579	 0.116916
H	-1.0140693113	 2.1439244194	 2.2439456217	 0.115587
H	 1.3393604394	 3.076778132	 2.1184978217	 0.091902
H	-0.8042984426	 5.1209504409	-0.4030876865	 0.106101
H	 0.7812139449	 5.0915280171	-1.2067030448	 0.113432
H	-0.1096605722	 2.8635594385	-1.904784544	 0.097145
H	 2.046138396	 2.1943143829	-0.2937820639	 0.092123
151.8756	253.2621	295.0302	446.7758	475.6875	535.1254	638.1254	705.9136	733.4262	771.2303	791.3227	818.5074	888.4658	917.8205	922.9756	972.2213	980.0099	1001.8585	1019.5908	1033.0857	1065.0567	1076.8052	1114.1029	1141.2057	1162.6898	1188.4401	1211.4327	1220.6324	1235.8779	1287.7535	1298.4558	1316.6991	1328.18	1382.1111	1499.2768	1529.3737	1899.2492	3013.7139	3059.604	3061.0654	3111.5455	3134.2312	3136.1508	3149.6937	3161.8249
O=C1C2CC3OCC2C13	O=C1[C@H]2C[C@@H]3OC[C@H]2[C@H]13	
InChI=1S/C7H8O2/c8-7-3-1-5-6(7)4(3)2-9-5/h3-6H,1-2H2	InChI=1S/C7H8O2/c8-7-3-1-5-6(7)4(3)2-9-5/h3-6H,1-2H2/t3-,4+,5-,6-/m0/s1
