14
gdb 17718	4.96878	2.73028	2.22618	1.7045	63.67	-0.2376	-0.0252	0.2125	629.2788	0.109146	-341.438739	-341.433758	-341.432814	-341.467377	21.306	
C	-0.1051519198	 1.5830142008	-0.0164561852	-0.345091
C	 1.4535335514	 1.300310114	-0.022601054	-0.117142
C	 1.2958615507	 0.1619515081	 1.0093233985	 0.009987
N	 1.8505690281	-1.0205631305	 0.1886114581	-0.244315
C	 0.6532006528	-1.9256402581	 0.3002427012	 0.008716
N	-0.4809063348	-1.3337463119	 0.2671846529	-0.282396
C	 0.0406402085	 0.0495167538	 0.125533199	 0.318866
C	 1.2573072678	-0.0106777068	-0.8153156972	 0.010061
H	-0.4956144107	 2.1303997784	 0.8451468099	 0.115039
H	-0.5334302616	 1.9607390822	-0.9483101749	 0.11504
H	 2.2618846662	 2.0228164712	-0.1080349741	 0.094935
H	 1.3541044837	 0.1951769571	 2.0979064242	 0.093
H	 0.7948260256	-2.9957099669	 0.3982400245	 0.130297
H	 1.2698165422	-0.1823352014	-1.8922963929	 0.093004
370.8845	425.8602	432.8012	555.9828	703.7214	764.9606	775.9311	806.2802	807.0569	831.5701	853.7056	896.7446	904.5272	931.7879	951.3753	995.7301	995.7806	1066.5677	1112.1676	1119.4123	1132.1467	1167.7098	1168.7079	1177.6745	1235.9131	1253.8866	1285.822	1313.0537	1504.3492	1593.676	3060.2767	3112.3504	3114.1915	3125.9481	3146.5584	3214.436
C1C2C3N4C=NC13C24	C1[C@H]2[C@@H]3N4[CH][N][C@@]13[C@@H]24	
InChI=1S/C6H6N2/c1-3-4-6(1)5(3)8(4)2-7-6/h2-5H,1H2	InChI=1S/C6H6N2/c1-3-4-6(1)5(3)8(4)2-7-6/h2-5H,1H2/t3-,4-,5+,6-
