16
gdb 61328	4.33448	0.61683	0.61468	3.2997	88.9	-0.2529	-0.0311	0.2218	1807.6089	0.121732	-400.713063	-400.703246	-400.702302	-400.748868	34.094	
C	-0.3107449374	 1.3738938583	 0.0687948852	-0.347712
N	 0.0454439051	-0.0299792376	-0.0491347119	-0.01969
C	-0.0184856486	-0.864125605	 1.1388122028	-0.381902
C	-1.3740560121	-1.0475741509	 1.6578536046	 0.468643
C	-2.4944028303	-1.188788319	 2.0918665959	-0.320668
C	-3.7550209348	-1.3515254887	 2.5777012188	 0.296788
C	-4.8731454571	-1.4955444696	 3.0093177744	-0.536665
C	 0.3860425874	-0.5601276991	-1.2619315436	 0.160327
O	 0.4507269813	 0.054191795	-2.3033106994	-0.332847
H	 0.3583277592	 1.884085442	 0.772114751	 0.12557
H	-0.2115815318	 1.822019816	-0.9195227963	 0.172197
H	-1.3412268599	 1.4854543001	 0.422565084	 0.141713
H	 0.4158151328	-1.840666074	 0.8924413132	 0.153715
H	 0.6136218772	-0.4320117537	 1.9284076268	 0.146451
H	-5.8571486205	-1.622901844	 3.3877270664	 0.198195
H	 0.6118772694	-1.6423210295	-1.185114582	 0.075885
38.16	67.3095	134.547	152.5237	175.8546	259.5837	315.5047	332.5068	342.2975	373.4714	442.5707	538.9457	542.9062	596.0307	611.177	704.8477	745.4603	872.2163	970.9551	1025.8295	1085.3131	1159.9803	1167.3393	1233.2939	1267.8433	1374.3455	1427.3743	1436.9681	1442.0618	1464.8925	1496.5264	1520.474	1802.7626	2183.721	2365.4782	2934.02	2999.0579	3026.5948	3053.6429	3083.5894	3162.3969	3503.7838
CN(CC#CC#C)C=O	CN(CC#CC#C)C=O	
InChI=1S/C7H7NO/c1-3-4-5-6-8(2)7-9/h1,7H,6H2,2H3	InChI=1S/C7H7NO/c1-3-4-5-6-8(2)7-9/h1,7H,6H2,2H3
