15
gdb 133079	3.07861	1.26627	0.90233	4.4446	71.91	-0.2333	-0.0152	0.218	1205.2382	0.114062	-458.160696	-458.152801	-458.151857	-458.193698	28.59	
C	-0.0665034972	 1.4480934603	 0.1016950781	-0.325901
N	 0.0245587449	 0.0148227342	-0.0482912881	-0.349403
C	 0.619548727	-0.621390736	-1.084761359	 0.459429
N	 0.6024787147	-1.9724458486	-1.0344177637	-0.338892
C	 1.1801655966	-2.6053157387	-2.0423888856	 0.073546
N	 1.7826704839	-2.0713510448	-3.1112422811	-0.324993
C	 1.780007396	-0.752602507	-3.1257566905	 0.36222
F	 2.3672454548	-0.1787495375	-4.1679838459	-0.065329
C	 1.222785509	 0.0594292182	-2.1563880903	-0.393966
H	 0.924253871	 1.917300015	 0.1574846681	 0.137031
H	-0.6178740467	 1.9105749014	-0.7269692079	 0.137402
H	-0.5988532393	 1.6711253874	 1.0275462144	 0.138989
H	-0.3641325246	-0.591640049	 0.6547274882	 0.25685
H	 1.16492521	-3.6920021336	-1.9989710592	 0.121511
H	 1.2602404199	 1.1362055288	-2.2373950777	 0.111508
71.2793	134.537	196.1755	206.9432	233.6797	415.3481	426.9581	479.8742	509.1045	556.8898	590.8197	714.9787	784.8721	818.6214	843.7149	977.1308	1000.5342	1004.4962	1097.7678	1161.2635	1179.3522	1230.4835	1270.7586	1321.8132	1362.1104	1433.8566	1461.9616	1484.4621	1495.8046	1522.4697	1574.3548	1605.1528	1648.4099	3010.1652	3056.1344	3135.5624	3162.7253	3232.8639	3653.8757
CNC1=NC=NC(F)=C1	CNc1ncnc(F)c1	
InChI=1S/C5H6FN3/c1-7-5-2-4(6)8-3-9-5/h2-3H,1H3,(H,7,8,9)	InChI=1S/C5H6FN3/c1-7-5-2-4(6)8-3-9-5/h2-3H,1H3,(H,7,8,9)
