14
gdb 133597	2.63512	1.36802	1.09816	3.4428	54.91	-0.2615	-0.0394	0.2221	1064.969	0.096257	-568.20462	-568.19647	-568.195526	-568.238687	29.023	
F	-0.1598336729	 0.0990545586	-0.1852624223	-0.087849
C	-0.0206104598	 1.426302225	-0.0204015163	 0.290393
F	 1.2871881088	 1.6992757865	 0.0048759194	-0.066564
F	-0.5423424634	 2.0178243369	-1.1086035304	-0.081254
C	-0.7089730355	 1.8938944483	 1.2403032547	-0.26055
C	-2.1967357592	 1.4797436842	 1.448230942	-0.255717
C	-1.8618625636	 0.9193637905	 2.8645002992	-0.340537
C	-0.3747117627	 1.1245470626	 2.5494329471	 0.397544
O	 0.647905116	 0.7878896666	 3.0615265668	-0.274756
H	-0.5287009281	 2.9670137075	 1.3502339194	 0.133675
H	-2.9151185679	 2.2978232316	 1.4139377208	 0.123259
H	-2.5078355052	 0.7010907234	 0.750735767	 0.13651
H	-2.1949149607	 1.5562724549	 3.6903541937	 0.141875
H	-2.1547226058	-0.1101910366	 3.0840964191	 0.143972
49.8785	66.4903	122.1856	212.1725	303.4325	367.7524	421.5265	506.7844	528.8261	585.3224	624.1964	683.8499	747.1068	773.6736	892.933	936.2466	985.0757	1013.6034	1066.135	1078.9149	1153.7849	1200.736	1212.0375	1227.5788	1234.8485	1265.5839	1282.7379	1360.3926	1437.1288	1490.194	1905.2403	3061.7832	3085.6818	3096.7487	3116.8889	3154.5526
FC(F)(F)C1CCC1=O	FC(F)(F)[C@H]1CCC1=O	
InChI=1S/C5H5F3O/c6-5(7,8)3-1-2-4(3)9/h3H,1-2H2	InChI=1S/C5H5F3O/c6-5(7,8)3-1-2-4(3)9/h3H,1-2H2/t3-/m0/s1
