15
gdb 128620	3.03737	1.41449	0.97096	2.7746	73.4	-0.2215	-0.0592	0.1623	1148.8846	0.114729	-450.139252	-450.131442	-450.130497	-450.171911	28.652	
C	 0.0195835707	 1.3941384969	 0.0073024845	-0.239717
O	-0.0372216576	-0.0384127256	 0.0037582607	-0.251146
C	-1.2483103421	-0.5940837101	 0.0109368265	 0.426635
N	-2.3243161803	 0.1222186583	 0.0207457185	-0.42213
C	-3.5490247975	-0.5397533669	 0.0277158053	 0.43072
N	-4.7090101867	-0.0117474256	 0.0375775147	-0.561897
N	-3.4794753519	-1.9460980643	 0.0231893985	-0.23333
N	-2.3777106508	-2.6806638955	 0.0131689913	-0.132451
C	-1.250011672	-2.0400214021	 0.0068532639	-0.091986
H	 1.0808244232	 1.6416737123	-0.0001080704	 0.138458
H	-0.4791592883	 1.800577831	-0.8759320828	 0.147208
H	-0.4655620911	 1.7956281071	 0.9003287061	 0.147187
H	-4.6130765429	 1.0017549885	 0.0397533513	 0.221032
H	-4.3538992733	-2.4506152346	 0.0280828235	 0.282841
H	-0.3323849693	-2.6123370194	-0.0013866717	 0.138577
96.4905	146.9091	161.3561	214.4138	242.0328	418.5344	430.9726	479.7063	570.4063	618.9482	662.2283	723.2533	746.8729	767.5817	828.0794	858.142	966.7713	1007.4369	1037.964	1129.525	1178.2221	1188.7667	1224.2981	1291.2898	1351.2768	1423.1905	1438.246	1479.0377	1488.8369	1499.4965	1586.8881	1657.7668	1731.7007	3053.7555	3130.1905	3163.2776	3227.1881	3517.8538	3621.2971
COC1=NC(=N)NN=C1	COc1nc([NH])[nH]nc1	
InChI=1S/C4H6N4O/c1-9-3-2-6-8-4(5)7-3/h2H,1H3,(H2,5,7,8)	InChI=1S/C4H11N4O/c1-9-3-2-6-8-4(5)7-3/h3-8H,2H2,1H3
