25
gdb 95411	2.74584	1.1323	0.88089	0.2548	95.34	-0.223	0.0306	0.2536	1447.1908	0.230217	-352.386277	-352.376678	-352.375734	-352.420158	37.717	
C	-0.1388893211	 1.5758490551	 0.0022143644	-0.39747
C	-0.0134944708	 0.0456808827	-0.0039404711	 0.047356
C	 0.5889991495	-0.4310331319	-1.3370734867	-0.167893
C	 0.6103358637	-1.9583639593	-1.547823134	-0.26574
C	 1.6584863016	-2.6978857051	-0.7518770714	-0.149633
C	 1.7574339303	-2.7081777324	 0.5797705182	 0.342629
C	 2.8440759614	-3.4752863984	 1.286264946	-0.478541
C	 0.7893248662	-1.9519513379	 1.4703760613	-0.312997
C	 0.7516545228	-0.4267024252	 1.2450798438	-0.169885
H	 0.8480837951	 2.0504468658	-0.0562916925	 0.111798
H	-0.7271829867	 1.9305891273	-0.8506698303	 0.107276
H	-0.6236742082	 1.9334505269	 0.916921525	 0.106798
H	-1.0302206117	-0.3730280101	 0.061256071	 0.064417
H	 0.0041005971	 0.0198056705	-2.1492983295	 0.084679
H	 1.6099682567	-0.0389307021	-1.4378380954	 0.090116
H	-0.3905855273	-2.3556253265	-1.3189186611	 0.099485
H	 0.7709092886	-2.1593474603	-2.6121457259	 0.092576
H	 2.3911625934	-3.2619335573	-1.3259866835	 0.071079
H	 3.502530194	-3.9925167108	 0.5829897691	 0.115668
H	 3.4610501412	-2.8104042845	 1.9056463921	 0.119053
H	 2.4194151863	-4.223299539	 1.9691472752	 0.119717
H	-0.2271661189	-2.3518467442	 1.339335155	 0.102982
H	 1.0498068709	-2.1413383489	 2.5173771994	 0.090568
H	 1.7796124862	-0.0407985025	 1.2121807272	 0.090246
H	 0.2785147498	 0.0354704282	 2.1209814738	 0.085714
73.1552	167.8596	200.351	223.5986	224.0029	258.1688	297.1368	315.6511	349.9161	393.6986	423.757	495.1196	554.6061	618.5625	723.0019	779.7093	845.344	851.3875	890.0992	929.382	939.0512	969.2194	988.8242	1020.4308	1051.2333	1057.6523	1084.1526	1102.1361	1122.667	1139.3555	1179.9382	1204.3954	1240.4539	1285.1287	1292.8401	1329.6484	1338.6064	1349.5543	1363.5998	1385.0585	1395.9427	1400.7879	1411.6963	1416.4941	1476.0184	1478.7267	1482.1445	1487.5705	1491.7939	1493.9899	1497.0813	1501.8085	1738.3078	2976.9783	2990.59	2998.2619	3007.804	3008.5421	3011.1853	3024.1858	3047.3922	3051.4419	3052.0163	3059.8704	3063.0097	3089.0337	3096.0163	3107.2382	3139.0907
CC1CCC=C(C)CC1	C[C@H]1CCC=C(C)CC1	
InChI=1S/C9H16/c1-8-4-3-5-9(2)7-6-8/h4,9H,3,5-7H2,1-2H3	InChI=1S/C9H16/c1-8-4-3-5-9(2)7-6-8/h4,9H,3,5-7H2,1-2H3/t9-/m0/s1
