16
gdb 79978	3.15446	1.33892	1.20229	3.4255	73.22	-0.2158	-0.0203	0.1955	1054.9006	0.124882	-437.89282	-437.885139	-437.884195	-437.925152	29.261	
O	 0.0099519236	 1.3911231049	-0.0966063913	-0.424343
C	-0.0496807072	 0.0085975154	-0.024580275	 0.109915
C	-0.4295982954	-0.739337933	 1.242686673	-0.1706
C	-1.182076363	 0.0554761913	 2.254770483	-0.196982
C	-2.3394637097	 0.4918828961	 1.7323010598	-0.028136
N	-2.519351402	 0.0221996991	 0.4260186015	-0.026575
C	-3.6285543157	 0.2667987615	-0.3429865315	 0.151339
O	-4.5751646607	 0.9313262753	 0.0137036022	-0.320783
C	-1.3622056032	-0.7386171224	 0.0117121588	-0.08505
H	-0.3662810737	 1.7484242108	 0.71876749	 0.289944
H	 0.7275144909	-0.4525810081	-0.6255710561	 0.117453
H	 0.1506137289	-1.6043626043	 1.5447776792	 0.102466
H	-0.8407273942	 0.2451189082	 3.261580188	 0.119629
H	-3.110708442	 1.1190337916	 2.1530437665	 0.162169
H	-3.5561635511	-0.2211321858	-1.3325556888	 0.084938
H	-1.5518152453	-1.5993804207	-0.6190749093	 0.114615
72.9508	212.3541	229.9415	231.4865	266.4215	298.3848	473.2361	491.1237	597.038	691.7258	707.544	754.3587	774.2483	805.1563	813.8297	911.2003	929.766	980.6799	1018.6819	1029.8834	1035.6141	1056.1341	1091.1779	1114.0583	1198.0553	1260.1095	1290.207	1316.2753	1336.2309	1346.3728	1416.241	1438.8957	1456.5502	1641.0256	1795.5925	2965.7553	3161.5492	3167.0943	3178.2062	3242.0933	3271.1026	3748.5518
OC1C2C=CN(C=O)C12	O[C@H]1[C@H]2C=CN(C=O)[C@@H]12	
InChI=1S/C6H7NO2/c8-3-7-2-1-4-5(7)6(4)9/h1-6,9H	InChI=1S/C6H7NO2/c8-3-7-2-1-4-5(7)6(4)9/h1-6,9H/t4-,5+,6-/m0/s1
