16
gdb 93468	3.00199	1.38649	0.9774	2.6085	66.39	-0.2538	-0.0149	0.239	1138.9373	0.127534	-471.286685	-471.278523	-471.277579	-471.319582	30.359	
N	-0.0566962047	 1.5005815187	 0.1106081007	-0.505525
C	-0.0169574722	 0.0541012362	-0.0238795797	-0.097694
C	-1.4284776235	-0.53335598	-0.0113657157	-0.17311
N	-1.3606292666	-1.9706339062	-0.2238202188	-0.349099
C	-0.5835494708	-2.5430221805	-1.1937854106	 0.45814
O	-0.7010722033	-3.6819968311	-1.5891246428	-0.384448
N	 0.4104719669	-1.690730549	-1.7070227752	-0.386059
C	 0.758541601	-0.431126316	-1.259819252	 0.400574
O	 1.6282690041	 0.224621397	-1.7888946808	-0.35343
H	 0.8943105658	 1.8502499876	 0.0218541808	 0.248655
H	-0.5510930307	 1.894979704	-0.6872581893	 0.231268
H	 0.5219634108	-0.3574454218	 0.841587107	 0.127283
H	-1.895309589	-0.3362547141	 0.9555238782	 0.139015
H	-2.0402457631	-0.0360348757	-0.7819079568	 0.111383
H	-2.1454486572	-2.5424111487	 0.0466111248	 0.262907
H	 0.9607573125	-2.0858844302	-2.4581333198	 0.270139
88.1764	129.2143	192.0744	211.901	290.9652	361.9068	384.5332	422.0563	496.247	538.701	584.6601	674.0821	706.6575	762.6906	768.9975	787.0154	926.5209	958.394	998.8663	1060.033	1127.3948	1174.16	1211.0771	1241.4666	1259.6431	1348.0094	1369.7559	1390.051	1415.4209	1421.8857	1472.1976	1518.6339	1673.1582	1809.4706	1833.0363	2971.5214	3016.8108	3108.6871	3478.7129	3550.7523	3604.2372	3640.9697
NC1CNC(=O)NC1=O	N[C@H]1CNC(=O)NC1=O	
InChI=1S/C4H7N3O2/c5-2-1-6-4(9)7-3(2)8/h2H,1,5H2,(H2,6,7,8,9)	InChI=1S/C4H7N3O2/c5-2-1-6-4(9)7-3(2)8/h2H,1,5H2,(H2,6,7,8,9)/t2-/m0/s1
