18
gdb 89599	4.80838	0.96559	0.89324	3.0101	76.04	-0.2485	0.0286	0.277	1316.529	0.146705	-401.928374	-401.919743	-401.918798	-401.962001	32.144	
C	-0.4344307152	 1.3318698344	 0.5672185898	-0.408204
C	 0.0726351901	-0.0916898382	 0.4900429919	 0.143704
O	 0.4900329122	-0.4924091731	-0.8590150941	-0.349572
C	 1.7304631003	-0.9778291123	-0.3419236538	 0.481015
C	 2.2071280672	-2.2820730777	-0.9303609576	-0.454468
C	 3.4043570863	-2.7930879685	-0.2693182108	 0.267108
N	 4.34864592	-3.1827798719	 0.2701873078	-0.310925
C	 2.5478281598	 0.1417627136	 0.2129827487	-0.346037
C	 1.4419377642	-0.4809583154	 1.0526158091	-0.193786
H	 0.3366207944	 2.0507871177	 0.279144452	 0.125337
H	-1.2932736309	 1.4632827658	-0.0983758392	 0.131868
H	-0.758013155	 1.5579872103	 1.5887749737	 0.123368
H	-0.6995473117	-0.792099364	 0.832771074	 0.087989
H	 1.4098627991	-3.0310641696	-0.8615494977	 0.162113
H	 2.4209360324	-2.1432240756	-1.9979938648	 0.166146
H	 3.5465858973	-0.1231164735	 0.5452171557	 0.141798
H	 2.4486288182	 1.1369719301	-0.2097892048	 0.118901
H	 1.6275855312	-0.935691962	 2.0161091601	 0.113645
54.081	110.3505	165.3482	218.8823	236.9999	319.1996	368.8093	391.2514	453.0016	496.0561	556.3837	682.779	700.3292	822.6233	847.6641	864.3985	950.1447	959.4586	981.2559	990.1097	1023.8088	1031.5967	1065.0026	1086.7734	1111.3737	1144.6822	1162.9548	1228.0638	1274.2168	1300.3348	1348.2634	1384.255	1394.522	1415.2188	1465.7439	1484.387	1490.5709	1495.7246	2367.0356	3023.7448	3033.037	3040.9189	3072.2143	3109.5607	3122.6302	3126.0587	3206.5363	3217.4818
CC1OC2(CC#N)CC12	C[C@H]1O[C@@]2(CC#N)C[C@@H]12	
InChI=1S/C7H9NO/c1-5-6-4-7(6,9-5)2-3-8/h5-6H,2,4H2,1H3	InChI=1S/C7H9NO/c1-5-6-4-7(6,9-5)2-3-8/h5-6H,2,4H2,1H3/t5-,6+,7+/m1/s1
