17
gdb 85639	2.3933	1.38132	1.00682	5.47	72.92	-0.2474	-0.0465	0.201	1193.5173	0.136066	-418.038356	-418.029755	-418.02881	-418.072212	31.575	
C	-0.011685177	 1.6038608361	 0.0338731419	-0.417174
C	 0.0650816491	 0.089540334	-0.0793869141	 0.044925
C	 0.9146793645	-0.442059562	-1.2498484009	-0.342378
C	 1.4333443197	-1.7902948111	-0.7580277574	 0.397784
O	 2.0064847606	-2.6392214686	-1.3760178513	-0.281822
C	 1.1074096082	-1.8489529128	 0.780103917	-0.272427
N	 0.6498391036	-0.5093632699	 1.1458161106	-0.288698
C	 0.0703942377	-2.8608806794	 1.0234462721	 0.32202
N	-0.7558757928	-3.6526955278	 1.183302292	-0.318179
H	 0.9910549611	 2.0420947904	 0.111769443	 0.115139
H	-0.4963592287	 2.0351436639	-0.8462197397	 0.132113
H	-0.5833605512	 1.8935067005	 0.919822535	 0.139808
H	-0.9517653875	-0.313522724	-0.1709630697	 0.11199
H	 0.3893855196	-0.5567593208	-2.2010074258	 0.145825
H	 1.7812687017	 0.2090726449	-1.428464654	 0.134446
H	 2.0084661647	-2.1396571705	 1.3276422423	 0.148624
H	 1.4515112968	 0.0410477371	 1.4396086292	 0.228005
54.1442	96.7234	140.5067	239.2135	250.3598	287.5372	408.2101	424.8445	462.0282	523.2488	556.25	614.1288	677.4663	747.5655	810.8595	855.5451	904.0864	909.5107	965.4501	1042.2781	1073.6666	1107.7107	1132.4536	1155.22	1197.2765	1222.1644	1255.7482	1323.7113	1352.9551	1378.2673	1413.2734	1442.3519	1465.052	1494.5555	1498.2171	1868.6122	2357.0249	3020.8824	3028.9399	3036.0817	3082.1408	3101.8904	3110.3763	3125.1076	3512.6111
CC1CC(=O)C(N1)C#N	C[C@H]1CC(=O)[C@@H](N1)C#N	
InChI=1S/C6H8N2O/c1-4-2-6(9)5(3-7)8-4/h4-5,8H,2H2,1H3	InChI=1S/C6H8N2O/c1-4-2-6(9)5(3-7)8-4/h4-5,8H,2H2,1H3/t4-,5-/m0/s1
