18
gdb 55317	1.89354	1.74865	1.11966	4.2995	76.16	-0.2564	-0.0284	0.2281	1136.4346	0.146651	-401.975798	-401.966628	-401.965684	-402.010502	32.711	
C	 0.1030626271	 1.1621928519	 0.7129780272	-0.48758
C	 0.0245239592	 0.0132114843	-0.2695225283	 0.382385
O	 0.9246383032	-0.2526916388	-1.0326705068	-0.294135
C	-1.2617593646	-0.813937639	-0.245476971	-0.126766
C	-1.3654684162	-1.8396839833	-1.4038337423	-0.23209
C	-0.8373467931	-2.9495221993	-0.4596982874	-0.223237
C	-1.1967197662	-2.0397703533	 0.7546114103	-0.140929
C	-0.2980122582	-1.9908896402	 1.8951304149	 0.279105
N	 0.4224879664	-1.9397937571	 2.7987515076	-0.33465
H	-0.0251631143	 0.7938053294	 1.7366683593	 0.164816
H	 1.0679549462	 1.661710627	 0.6226664583	 0.148081
H	-0.7050737889	 1.8777332783	 0.5222660366	 0.137197
H	-2.1184367836	-0.1583872739	-0.0707055258	 0.092671
H	-2.4003953087	-2.0041926521	-1.7121369258	 0.106485
H	-0.7484289028	-1.6131990502	-2.2724423373	 0.134681
H	-1.3207067635	-3.9270211904	-0.483555542	 0.116725
H	 0.2423175349	-3.0742527741	-0.5523854366	 0.145125
H	-2.2044320171	-2.2592829891	 1.1177144791	 0.132116
57.0914	90.4237	112.4975	117.1274	204.4621	249.2567	296.7214	369.5925	510.7505	534.1944	555.2899	607.7892	677.5714	744.9856	764.5779	885.0261	936.5036	948.9944	959.0418	1000.2132	1018.2111	1071.8145	1089.3527	1100.389	1184.6668	1201.894	1229.4133	1251.9479	1271.8537	1279.8316	1333.5721	1367.1231	1387.9726	1461.3821	1470.467	1475.6413	1490.1875	1807.5478	2348.1322	3037.1713	3070.0084	3075.6944	3084.6478	3086.741	3101.3322	3142.1533	3154.6154	3156.3526
CC(=O)C1CCC1C#N	CC(=O)[C@H]1CC[C@H]1C#N	
InChI=1S/C7H9NO/c1-5(9)7-3-2-6(7)4-8/h6-7H,2-3H2,1H3	InChI=1S/C7H9NO/c1-5(9)7-3-2-6(7)4-8/h6-7H,2-3H2,1H3/t6-,7+/m0/s1
