21
gdb 82182	2.78304	1.56543	1.27146	1.8345	81.12	-0.2484	0.0828	0.3312	1093.2614	0.182857	-387.076504	-387.068191	-387.067247	-387.108768	33.286	
C	 0.0292870904	 1.5927485885	-0.044791105	-0.391806
C	 0.0292613693	 0.0610682441	 0.0195670323	-0.026972
C	 0.6742801989	-0.607241534	-1.1930732081	 0.031689
O	 2.0802511444	-0.3557462165	-1.3413565001	-0.259585
C	 1.6659471662	-1.594664535	-0.7439659364	-0.030767
C	 1.7137495052	-1.6295186256	 0.7753009721	 0.327936
C	 1.8452537314	-2.9770467171	 1.4431049684	-0.495434
C	 2.2434885161	-0.3658986253	 1.4126372856	-0.328688
C	 0.7532564628	-0.5449192129	 1.2330485878	-0.102038
H	 1.0499710304	 1.9745702985	-0.1327782313	 0.132225
H	-0.5410970736	 1.9527656724	-0.9077441909	 0.110364
H	-0.4190858288	 2.0222916441	 0.8563797088	 0.113091
H	-1.012179856	-0.2886736203	 0.0501241086	 0.07446
H	 0.1238420197	-0.6823003977	-2.1294673918	 0.089557
H	 1.9232646972	-2.4880937439	-1.3081769869	 0.08876
H	 2.8231239812	-3.4304609971	 1.2415806531	 0.120369
H	 1.7408910652	-2.8862280536	 2.5285003583	 0.117912
H	 1.0764259946	-3.6775393613	 1.0952194411	 0.115631
H	 2.6215735029	-0.4491054999	 2.4268992335	 0.101271
H	 2.7750492993	 0.3336865404	 0.7807323367	 0.132814
H	 0.1649200831	-0.6874162278	 2.134472204	 0.07921
142.0249	186.9895	201.5539	222.4308	251.9534	298.967	359.9921	426.7617	506.3683	532.1673	594.6459	679.3159	738.2017	791.0831	831.7351	854.044	877.0977	909.221	939.7462	971.4741	979.2081	1008.5427	1026.7794	1060.8712	1084.3462	1091.3796	1105.277	1125.5151	1143.8913	1154.1601	1240.5675	1267.2341	1286.8753	1308.5504	1341.3336	1344.1398	1396.601	1413.7187	1420.1179	1427.1921	1483.5899	1489.8865	1496.9673	1500.9644	1502.5115	3010.1129	3020.2691	3036.8687	3076.4603	3100.3113	3101.4643	3120.0304	3123.3478	3134.4218	3142.4828	3149.8765	3233.4433
CC1C2OC2C2(C)CC12	C[C@H]1[C@H]2O[C@H]2[C@@]2(C)C[C@@H]12	
InChI=1S/C8H12O/c1-4-5-3-8(5,2)7-6(4)9-7/h4-7H,3H2,1-2H3	InChI=1S/C8H12O/c1-4-5-3-8(5,2)7-6(4)9-7/h4-7H,3H2,1-2H3/t4-,5+,6-,7-,8+/m1/s1
