14
gdb 56626	2.24273	1.28512	0.91609	2.2875	63.83	-0.2806	-0.0811	0.1995	1211.3663	0.096915	-473.831419	-473.8218	-473.820856	-473.867498	31.915	
O	-0.3414549521	 1.2400728708	-0.1493740501	-0.416535
C	 0.1153203729	-0.0978731528	-0.0640171717	-0.0124
C	 0.933030848	-0.4625693788	-1.2340128161	 0.267623
N	 1.6060958423	-0.6906563791	-2.1446719259	-0.307707
C	 0.8817854548	-0.3550477638	 1.2467968606	-0.215258
C	 0.1063362462	 0.2235852918	 2.4402442328	 0.15155
O	 0.6423509775	 0.6018422574	 3.4448280531	-0.233467
C	 1.0844030519	-1.8473009117	 1.5182852526	 0.142446
O	 0.518754842	-2.7112304078	 0.9031877118	-0.222634
H	 0.4157987159	 1.8195484172	-0.2953465515	 0.302938
H	-0.7817779067	-0.7244349909	-0.0711148723	 0.165018
H	 1.8672349161	 0.1246078404	 1.2455045977	 0.135085
H	-0.9958421195	 0.2246913021	 2.3181700831	 0.117395
H	 1.7777271806	-2.0688837448	 2.3540953258	 0.125947
34.1514	67.1833	91.6794	122.5466	191.8152	230.338	266.4467	333.3645	341.0053	397.4164	453.2533	578.7265	609.5469	684.3418	862.915	885.4054	931.9462	1025.919	1059.7976	1098.9465	1116.4787	1214.5984	1225.763	1290.5452	1360.6319	1408.3619	1410.5543	1420.5643	1806.161	1845.8686	2360.9761	2930.0217	2939.4042	3059.9887	3085.8626	3798.345
OC(C#N)C(C=O)C=O	O[C@@H](C#N)C(C=O)C=O	
InChI=1S/C5H5NO3/c6-1-5(9)4(2-7)3-8/h2-5,9H	InChI=1S/C5H5NO3/c6-1-5(9)4(2-7)3-8/h2-5,9H/t5-/m0/s1
