16
gdb 71181	2.69982	1.68248	1.36236	5.1553	72.	-0.253	0.0183	0.2713	973.5971	0.123919	-400.70069	-400.693208	-400.692263	-400.732539	28.985	
C	-0.0726301765	 1.5173408255	 0.0365374207	-0.513538
C	 0.0926871097	 0.0335501546	 0.0878777056	 0.409509
O	-1.1511523867	-0.7159050609	 0.1493877254	-0.307393
C	-0.4143311193	-1.7505475232	 0.7938080319	 0.103972
C	 0.9347911546	-1.8906327285	 0.0727710863	-0.126311
C	 0.7258258241	-0.8896654548	 1.2056756159	-0.218737
C	 0.9298035974	-0.7749733431	-0.9743422279	-0.194925
C	 0.3360792133	-0.9961617437	-2.2874641059	 0.279974
N	-0.1243529948	-1.16316429	-3.3344069022	-0.330336
H	 0.9014424309	 2.0144231125	 0.0125970073	 0.129503
H	-0.6290798857	 1.7973041225	-0.8640153186	 0.15434
H	-0.6278677506	 1.8705099772	 0.9094811133	 0.141943
H	-0.9440905405	-2.558011716	 1.2794948899	 0.123466
H	 1.5229159417	-2.7981516792	 0.0710006656	 0.111168
H	 1.251211895	-0.705393186	 2.1316695364	 0.112331
H	 1.9274740874	-0.341248017	-1.0808876838	 0.125032
123.312	138.839	203.7857	275.5649	303.7801	397.6104	466.7593	545.4225	601.4915	690.8385	768.0973	780.4402	797.3872	812.1672	837.1534	882.1013	934.1926	963.5132	995.2164	1020.0072	1031.8356	1037.1594	1095.9458	1109.5678	1128.2164	1175.0731	1178.5293	1278.4837	1325.6486	1350.4543	1371.7366	1421.3498	1477.2614	1487.9117	2356.1079	3043.088	3086.6761	3116.3076	3125.4183	3212.1402	3215.8401	3231.528
CC12OC3C(C13)C2C#N	C[C@]12O[C@H]3[C@H]([C@@H]13)[C@H]2C#N	
InChI=1S/C7H7NO/c1-7-3(2-8)4-5(7)6(4)9-7/h3-6H,1H3	InChI=1S/C7H7NO/c1-7-3(2-8)4-5(7)6(4)9-7/h3-6H,1H3/t3-,4+,5-,6+,7-/m1/s1
