13
gdb 132372	2.0022	1.94157	0.99173	0.6775	62.21	-0.2857	-0.046	0.2398	1085.3865	0.089807	-494.117388	-494.10993	-494.108986	-494.150589	26.661	
C	-0.0655410625	 1.488510318	-0.0123007195	-0.459793
C	 0.0053193687	-0.0070860646	 0.0141583855	 0.355144
N	 0.0990177496	-0.6351618351	-1.1717352192	-0.34411
C	 0.1571335308	-1.9461279916	-1.0721369305	 0.347853
F	 0.2495878844	-2.6123341438	-2.2002002717	-0.041501
N	 0.1342348417	-2.682111238	 0.0237258686	-0.404444
C	 0.0392446499	-1.9455224948	 1.1354244068	 0.460648
O	 0.0086377015	-2.5927610124	 2.2955471841	-0.373364
N	-0.0284359017	-0.6175594086	 1.1995815984	-0.312161
H	 0.8226812122	 1.8918286519	-0.5084415691	 0.154125
H	-0.9293566205	 1.8072112702	-0.6038825906	 0.154112
H	-0.1397312348	 1.8862674616	 0.9990762685	 0.147879
H	 0.0652181807	-3.5374907628	 2.0918387388	 0.315611
30.132	188.9779	199.789	211.3451	308.4316	375.1617	574.0873	581.1496	596.7704	597.2178	641.1566	644.5338	771.7671	846.4486	998.0553	1003.6124	1037.9873	1065.3863	1126.639	1218.2521	1299.6619	1387.9787	1438.231	1452.5579	1475.4517	1481.8637	1524.0304	1595.2078	1647.9892	3052.9327	3111.6499	3166.9881	3769.2964
CC1=NC(F)=NC(O)=N1	Cc1nc(F)nc(O)n1	
InChI=1S/C4H4FN3O/c1-2-6-3(5)8-4(9)7-2/h1H3,(H,6,7,8,9)	InChI=1S/C4H4FN3O/c1-2-6-3(5)8-4(9)7-2/h1H3,(H,6,7,8,9)
