16
gdb 10139	2.74147	1.4029	0.97799	1.1407	73.45	-0.2668	0.0091	0.276	1190.0459	0.126143	-346.515294	-346.505975	-346.505031	-346.54957	32.963	
C	 0.004924557	 1.4913082885	-0.0164376841	-0.386972
C	-0.1301350385	-0.0160417984	-0.1367838503	-0.034077
O	 0.8143112669	-0.4634907855	-1.1016995752	-0.240655
C	 0.8178120709	-1.8702912183	-1.2844731006	-0.220279
C	-0.4157636694	-2.3612282899	-1.9262736792	 0.346258
C	-1.4344446487	-2.7509914074	-2.4292937961	-0.470495
C	 2.0002952306	-2.2312978701	-2.0708781288	 0.310393
C	 2.9724534584	-2.5513012111	-2.6970296469	-0.404324
H	 1.017365336	 1.7644978638	 0.2935198367	 0.129326
H	-0.2017798232	 1.971860688	-0.9766164619	 0.132366
H	-0.7026016396	 1.8756664033	 0.7243100101	 0.1168
H	 0.0678121512	-0.5056940821	 0.8314914955	 0.088133
H	-1.14796234	-0.295069969	-0.4445879285	 0.105357
H	 0.8994534228	-2.3632746256	-0.2983684901	 0.121939
H	-2.3287068706	-3.0997294577	-2.8844312426	 0.204609
H	 3.8308827363	-2.8274778085	-3.258227778	 0.20162
70.5581	94.1489	127.0697	133.3633	219.9994	253.1028	285.7297	334.8594	396.5621	499.9152	558.5704	619.0084	635.0937	641.1815	674.4216	679.6763	824.5094	893.4064	906.1859	1027.2273	1043.7945	1110.5026	1151.0025	1187.9773	1297.665	1325.3619	1327.8481	1401.8657	1433.2717	1483.2535	1500.3479	1527.5861	2235.4847	2251.7577	2933.4848	2966.3181	3020.3199	3046.584	3120.806	3125.3249	3501.2427	3504.1236
CCOC(C#C)C#C	CCOC(C#C)C#C	
InChI=1S/C7H8O/c1-4-7(5-2)8-6-3/h1-2,7H,6H2,3H3	InChI=1S/C7H8O/c1-4-7(5-2)8-6-3/h1-2,7H,6H2,3H3
