18
gdb 6565	3.08967	1.98908	1.52458	1.3698	68.21	-0.2568	0.0739	0.3307	890.4348	0.15256	-384.896263	-384.88814	-384.887196	-384.927979	31.575	
C	-0.0019470351	 1.4726213944	 0.0333458201	-0.512522
C	 0.0427465455	-0.0297290378	 0.0246458717	 0.309487
C	 0.6168156786	-0.9614228321	-1.0887922953	-0.333573
C	 0.0762689523	-1.9079784016	 0.0234949526	 0.347968
O	-0.0087817807	-3.2890699325	 0.0302259598	-0.477408
C	 0.7386609346	-0.9627373297	 1.0708030997	-0.332648
C	-1.1734361227	-0.9979445459	 0.0699107576	 0.085341
O	-1.9534927914	-0.9424666352	 1.2368342957	-0.450902
H	 1.0068725352	 1.898667326	 0.0196475013	 0.117126
H	-0.5412633126	 1.8559622018	-0.8396766229	 0.118144
H	-0.5114697379	 1.8379736217	 0.9308498691	 0.132178
H	 0.0918045742	-0.9692584698	-2.0487329044	 0.090069
H	 1.7015887559	-0.9327052294	-1.2195670414	 0.087617
H	 0.8816954384	-3.6529083214	 0.077135918	 0.283455
H	 1.8325440017	-0.9365449997	 1.0808872951	 0.077676
H	 0.3127098567	-0.9686468947	 2.0734235273	 0.108429
H	-1.7987812371	-1.0122902329	-0.8343190589	 0.059292
H	-2.4038841556	-1.7881997311	 1.3311414748	 0.29027
171.2089	202.1723	214.3932	225.9844	257.0287	281.9997	347.8934	417.1473	486.8393	531.6809	596.3201	633.1285	667.7073	745.6856	809.614	914.8047	946.2156	971.4666	1013.9281	1035.1154	1062.5796	1107.1975	1120.5273	1125.6927	1141.9011	1158.503	1191.9859	1212.0111	1256.7687	1318.7581	1348.2361	1375.192	1411.1005	1434.5878	1483.0834	1489.8707	1492.2403	1543.3734	3002.5279	3029.6781	3047.9674	3056.938	3095.3286	3101.9384	3115.1493	3147.5874	3810.6932	3814.2773
CC12CC(O)(C1)C2O	C[C@@]12C[C@@](O)(C1)[C@H]2O	
InChI=1S/C6H10O2/c1-5-2-6(8,3-5)4(5)7/h4,7-8H,2-3H2,1H3	InChI=1S/C6H10O2/c1-5-2-6(8,3-5)4(5)7/h4,7-8H,2-3H2,1H3/t4-,5-,6-/m0/s1
