20
gdb 106115	3.03666	1.33012	1.14532	1.931	79.29	-0.2108	0.0806	0.2915	1153.577	0.171156	-403.069543	-403.061077	-403.060133	-403.102608	32.611	
C	-0.102900046	 1.4658649586	 0.0363643855	-0.328711
N	 0.1012547435	 0.0250793477	 0.1057077143	-0.079574
C	 0.7348818801	-0.6604112144	-1.0140522076	-0.087194
C	 2.2777460796	-0.6342662751	-0.8339650888	-0.156277
C	 2.5350893489	 0.1064759922	 0.476639171	-0.250645
C	 1.1926182464	-0.524607194	 0.9616376148	-0.072802
C	 1.4070276621	-1.6586914487	-0.1217321028	 0.313567
C	 1.3600824026	-3.1458220309	-0.0702846783	-0.20766
O	 0.1316591199	-3.6340924051	 0.4501750763	-0.414574
H	 0.7747917841	 2.0428296927	-0.2934725436	 0.102696
H	-0.9203583565	 1.6725069518	-0.6628026393	 0.119103
H	-0.4074720751	 1.8317858802	 1.0226140605	 0.11978
H	 0.2597433039	-0.7949264497	-1.9794752854	 0.091436
H	 2.9551706712	-0.8045073591	-1.6618351276	 0.086667
H	 3.3761150936	-0.33629014	 1.0164678279	 0.104664
H	 2.6350993627	 1.1966430402	 0.4779140565	 0.091831
H	 0.967830595	-0.650163552	 2.0196907114	 0.081796
H	 1.5614151515	-3.5435114126	-1.0798750138	 0.087646
H	 2.1401780414	-3.543526673	 0.5895893501	 0.110523
H	-0.5739128289	-3.1272610487	 0.0338702689	 0.287727
94.9824	101.6613	186.8263	221.5051	252.8473	311.2506	333.5857	409.6963	511.8136	572.0546	630.7232	692.7908	743.7305	802.5983	875.9913	878.1823	919.2183	957.1306	966.9534	985.661	1015.0084	1018.6494	1053.3577	1074.4114	1117.4517	1121.3937	1131.1519	1156.2681	1171.3578	1210.1172	1231.4518	1243.0406	1244.7347	1272.5691	1325.5682	1355.4552	1421.7266	1442.7465	1463.3316	1481.7137	1496.2739	1504.0693	1517.3065	2957.5714	2982.8168	3047.3581	3051.0099	3062.9698	3097.9915	3103.7179	3129.4514	3175.2792	3193.8247	3808.2475
CN1C2C3CC1C23CO	CN1[C@H]2[C@H]3C[C@@H]1[C@@]23CO	
InChI=1S/C7H11NO/c1-8-5-2-4-6(8)7(4,5)3-9/h4-6,9H,2-3H2,1H3	InChI=1S/C7H11NO/c1-8-5-2-4-6(8)7(4,5)3-9/h4-6,9H,2-3H2,1H3/t4-,5-,6+,7+/m1/s1
