20
gdb 62069	4.68264	0.66091	0.62629	3.2648	77.24	-0.2522	-0.0299	0.2223	1792.8728	0.168109	-440.251866	-440.241727	-440.240783	-440.288548	35.203	
C	 0.2110819139	 1.3318453913	-0.3675829841	-0.406347
C	 0.057272764	-0.1460629133	-0.0087172373	 0.04859
O	 0.8307445008	-0.5648704561	 1.0978500557	-0.26301
C	 2.2175376683	-0.7084725018	 0.8471927419	-0.087045
C	 2.851262291	-1.3890271947	 2.0285051679	 0.019112
C	 4.2547521644	-1.0648192846	 2.3869576969	-0.247091
N	 3.1473401382	-0.6313142469	 3.2518531058	-0.303126
C	-1.3862753114	-0.5001159455	 0.3411665989	 0.148255
O	-2.3489603717	-0.0066764374	-0.183506036	-0.244483
H	 1.1961716812	 1.5443870657	-0.7903548146	 0.117759
H	-0.551822909	 1.601799483	-1.1015730626	 0.146875
H	 0.0687141944	 1.9501788924	 0.5235312433	 0.131008
H	 0.3106477339	-0.7634563675	-0.892727686	 0.09389
H	 2.3738788341	-1.3068459885	-0.0668426134	 0.094959
H	 2.6936550876	 0.2721050236	 0.6837737085	 0.086139
H	 2.4783525037	-2.3928327287	 2.2194249188	 0.100416
H	 4.8967908198	-1.8314670293	 2.8103045238	 0.123996
H	 4.7755044701	-0.3221213813	 1.7867860498	 0.111005
H	 2.949344475	 0.3556946073	 3.1027274693	 0.232429
H	-1.4664602982	-1.2818425178	 1.1273268833	 0.09667
47.0601	53.4272	86.9058	97.888	162.8888	211.4612	255.6407	268.1074	335.9483	414.9128	451.922	495.4379	618.5245	804.4406	833.728	840.8744	909.6619	924.6194	940.9235	951.125	1016.9959	1060.5633	1084.0414	1117.9707	1135.631	1138.5088	1154.3092	1169.3077	1214.1496	1251.7524	1280.1637	1313.6309	1324.8503	1335.1737	1376.446	1391.2159	1405.231	1452.7553	1488.12	1496.2037	1508.364	1514.9978	1840.9779	2907.8189	2919.9279	2953.9355	2988.9779	3050.2645	3107.4396	3124.8529	3136.7439	3137.8884	3193.2399	3493.3299
CC(OCC1CN1)C=O	C[C@@H](OC[C@H]1CN1)C=O	
InChI=1S/C6H11NO2/c1-5(3-8)9-4-6-2-7-6/h3,5-7H,2,4H2,1H3	InChI=1S/C6H11NO2/c1-5(3-8)9-4-6-2-7-6/h3,5-7H,2,4H2,1H3/t5-,6-/m1/s1
