16
gdb 27571	3.27186	1.26842	0.91924	1.9149	89.94	-0.2387	-0.0398	0.1988	1233.9421	0.124485	-363.649321	-363.641129	-363.640185	-363.682718	30.512	
C	 0.0001715276	 1.5030230599	-0.0096390977	-0.475357
C	-0.0015114113	-0.0035025609	 0.0262270204	 0.327099
N	 0.0521560251	-0.6214886391	-1.1584584652	-0.36727
C	 0.0531847882	-1.963915981	-1.1817125264	 0.155937
C	 0.0005024719	-2.7459812149	-0.0193828993	-0.174511
C	-0.0550012549	-2.0979893477	 1.2057623674	-0.074893
C	-0.0562258837	-0.7080681971	 1.2333431138	-0.163673
C	 0.1112572452	-2.5987748228	-2.463660915	 0.224726
C	 0.1593136468	-3.164864873	-3.5245016328	-0.371559
H	 0.9032020987	 1.8696679422	-0.5076393787	 0.143349
H	-0.8535573617	 1.8697114365	-0.5880620784	 0.143353
H	-0.0457403999	 1.9326346213	 0.993932718	 0.116912
H	 0.0038821485	-3.8263508744	-0.0944737324	 0.110784
H	-0.0967982141	-2.6684681524	 2.1278405513	 0.109469
H	-0.0988568649	-0.1708402704	 2.1742817115	 0.101072
H	 0.2020963985	-3.6485299663	-4.4689255466	 0.194563
42.2664	135.6094	144.6269	200.2103	343.5095	368.6893	449.859	489.5049	549.4483	558.9666	610.8897	638.1316	650.1912	715.1701	766.0031	821.941	919.177	923.57	997.7365	1002.4627	1031.7782	1060.3422	1115.9193	1182.9795	1235.4095	1286.1503	1293.3727	1408.49	1433.4349	1473.6736	1475.5949	1495.4655	1612.6426	1617.0999	2230.825	3042.932	3104.8016	3126.3599	3178.2209	3195.1098	3211.2123	3503.0313
CC1=NC(=CC=C1)C#C	Cc1nc(ccc1)C#C	
InChI=1S/C8H7N/c1-3-8-6-4-5-7(2)9-8/h1,4-6H,2H3	InChI=1S/C8H7N/c1-3-8-6-4-5-7(2)9-8/h1,4-6H,2H3
