18
gdb 106436	2.70994	1.34179	1.06511	4.3351	77.34	-0.2419	0.0018	0.2437	1168.2553	0.148567	-398.050075	-398.041687	-398.040743	-398.083447	31.382	
C	 0.0584285599	 1.4506754598	 0.0800169917	-0.340515
N	-0.0662138244	-0.0015692319	-0.0288873771	-0.404041
C	-1.3973668369	-0.4846196925	-0.053772031	 0.34322
C	-2.4575781443	-0.4171063184	 1.0695083179	-0.200792
N	-3.1770636741	-1.2644346696	 0.0027289076	-0.136511
C	-2.6256154606	-0.2421619531	-1.003422348	-0.247003
C	-1.8129186175	-1.9793162382	-0.128890747	-0.161693
C	-1.5788940811	-2.7340719169	-1.3517031254	 0.281257
N	-1.3503754234	-3.3345266586	-2.3130773991	-0.331351
H	 1.1172555045	 1.7201612536	 0.0901332171	 0.130958
H	-0.4334803163	 2.0078139309	-0.7336914095	 0.109404
H	-0.3778194113	 1.7829460369	 1.0275031466	 0.132462
H	 0.4485276387	-0.3475122579	-0.8324319461	 0.233058
H	-2.2589426752	-0.9551628605	 2.0000529168	 0.112792
H	-2.9535863109	 0.5377738802	 1.2520964449	 0.112679
H	-3.134610739	 0.7220626813	-0.9487318378	 0.110426
H	-2.5789565947	-0.6160290445	-2.0280424107	 0.132512
H	-1.5755776235	-2.5971995206	 0.7409424292	 0.123139
64.5491	119.2677	181.2555	183.311	214.9585	360.1933	382.1372	470.0619	521.3452	562.0864	616.3667	648.4559	723.6444	796.6664	817.9572	893.3066	917.3883	961.2208	985.5259	1039.1188	1045.0411	1071.4309	1094.871	1124.6625	1146.6674	1157.0721	1178.9761	1190.1789	1216.4746	1255.6993	1343.0606	1384.204	1462.1552	1472.1699	1493.1306	1510.453	1518.1422	1551.4209	2351.857	2974.3931	3061.816	3071.9881	3073.4287	3085.328	3119.1304	3135.1556	3143.1099	3522.46
CNC12CN(C1)C2C#N	CN[C@@]12CN(C1)[C@H]2C#N	
InChI=1S/C6H9N3/c1-8-6-3-9(4-6)5(6)2-7/h5,8H,3-4H2,1H3	InChI=1S/C6H9N3/c1-8-6-3-9(4-6)5(6)2-7/h5,8H,3-4H2,1H3/t5-/m0/s1
