20
gdb 107913	4.45429	1.10658	1.03085	2.1634	78.47	-0.2451	0.0818	0.3269	1227.4121	0.171693	-403.091939	-403.083652	-403.082708	-403.124688	32.276	
C	 0.159196797	 1.49903801	 0.0155576919	-0.412321
C	 0.0649963222	-0.0232876867	 0.0225171807	 0.003646
C	 0.8272867156	-0.686154478	-1.1175290477	-0.090598
N	 2.1023714365	-0.779351671	-0.3196603451	-0.211958
C	 1.1283917011	-0.71809525	 0.9045129941	-0.009778
C	 0.8764688984	-2.2298145983	 0.7782075461	-0.294705
C	 1.3149949807	-2.0254187389	-0.6652927554	 0.285761
C	 1.9356133716	-3.0422523089	-1.575826761	-0.164147
O	 3.0641592349	-3.655648815	-0.9755799156	-0.41639
H	 1.1935543254	 1.8251342596	-0.1311096206	 0.134132
H	-0.4484487534	 1.9280866437	-0.788306905	 0.115334
H	-0.2004804655	 1.9150229165	 0.9626339127	 0.115064
H	-0.9718619531	-0.3452034002	 0.1815421517	 0.068498
H	 0.8437977633	-0.3914100504	-2.1622290116	 0.090336
H	 1.4706541615	-0.2642536644	 1.8338298764	 0.080341
H	 1.622366643	-2.8196079248	 1.3158285286	 0.11717
H	-0.1283988364	-2.6107741795	 0.990076386	 0.094141
H	 1.2254085866	-3.8475749165	-1.7950910339	 0.113227
H	 2.1984882668	-2.5626768837	-2.532285241	 0.091051
H	 3.6374292538	-2.9330260734	-0.6921112813	 0.291195
78.5337	153.5134	194.4556	244.6304	262.2792	325.1406	354.1697	438.9563	445.5048	571.4668	662.5365	751.4217	768.627	802.479	823.7661	876.8797	922.0509	948.6356	971.0635	982.2724	1007.5979	1034.1347	1068.8852	1076.7202	1089.0273	1111.7338	1147.6523	1188.5783	1198.7408	1213.4093	1245.6475	1270.8874	1275.5499	1320.8431	1358.8664	1392.1731	1407.3963	1412.5877	1438.6627	1491.5525	1496.6663	1500.2393	1502.1601	2978.1274	3020.6657	3032.1602	3042.5788	3065.5253	3096.1854	3110.9007	3112.4519	3125.7602	3164.7826	3787.2687
CC1C2N3C1CC23CO	C[C@H]1[C@H]2N3[C@@H]1C[C@@]23CO	
InChI=1S/C7H11NO/c1-4-5-2-7(3-9)6(4)8(5)7/h4-6,9H,2-3H2,1H3	InChI=1S/C7H11NO/c1-4-5-2-7(3-9)6(4)8(5)7/h4-6,9H,2-3H2,1H3/t4-,5-,6-,7-,8?/m1/s1
