21
gdb 8441	2.65641	2.05445	1.75396	1.68	78.38	-0.2194	0.0799	0.2993	914.8985	0.187941	-329.098161	-329.089645	-329.088701	-329.130067	33.654	
C	-0.1145923181	 1.5432768983	 0.0918228972	-0.517358
C	 0.1020179931	 0.0616120114	 0.0330943863	 0.323956
N	-0.7924307942	-0.8716649474	 0.7644172102	-0.378762
C	 0.6733327186	-0.8994732331	 1.0164661991	-0.101619
C	 1.2626192483	-1.7759831092	-0.0871714313	-0.270358
C	 0.6932448936	-0.7568524963	-1.1530174167	 0.305973
C	-0.3202392777	-1.3132656487	-2.1488906149	-0.450939
C	 1.821657886	-0.0056300038	-1.8589834724	-0.450635
H	 0.7573653633	 2.0930534156	-0.2762533064	 0.125762
H	-0.9775563724	 1.8438674394	-0.5149014392	 0.126538
H	-0.3031649766	 1.8692900516	 1.1210201859	 0.114389
H	-1.2162914866	-0.3367241179	 1.5230811564	 0.218533
H	 1.0606879536	-0.7282049351	 2.0144437661	 0.084778
H	 2.3548309364	-1.8122588906	-0.0900389575	 0.09393
H	 0.8614099585	-2.7920731824	-0.128043885	 0.100695
H	-1.1408699655	-1.8065629691	-1.623581516	 0.136142
H	-0.7396872852	-0.5150331888	-2.7733310144	 0.101978
H	 0.1510425438	-2.0410686848	-2.819736002	 0.105152
H	 2.3744377692	-0.6800826726	-2.5222948588	 0.113114
H	 1.4338643963	 0.8168281952	-2.4711326826	 0.110132
H	 2.5356813555	 0.4156243283	-1.142388254	 0.108602
150.9995	198.5292	219.6164	229.8067	265.7843	294.1376	337.077	353.7041	414.7124	468.5535	504.0719	626.4154	636.6775	767.2007	836.7479	858.0386	912.6073	921.0724	948.3269	966.3797	981.0829	1021.1828	1027.1767	1051.7495	1105.2749	1111.7866	1163.2923	1182.252	1230.1164	1251.0491	1269.7599	1310.9403	1346.1509	1392.9643	1405.5038	1414.3731	1436.9348	1479.4695	1482.6638	1485.2937	1491.9621	1496.7186	1504.9327	1512.7456	3018.5833	3020.992	3024.5267	3057.1396	3078.3933	3080.8516	3087.4973	3090.7158	3098.3618	3113.5606	3126.2233	3175.1775	3458.5135
CC12NC1CC2(C)C	C[C@]12N[C@H]1CC2(C)C	
InChI=1S/C7H13N/c1-6(2)4-5-7(6,3)8-5/h5,8H,4H2,1-3H3	InChI=1S/C7H13N/c1-6(2)4-5-7(6,3)8-5/h5,8H,4H2,1-3H3/t5-,7-/m0/s1
