20
gdb 82099	2.74427	1.48446	1.25391	1.4963	78.26	-0.2229	0.0792	0.3021	1090.4672	0.170615	-403.071127	-403.062739	-403.061795	-403.104186	32.205	
C	-0.2265819615	 1.7116526193	 0.1380406975	-0.404031
C	-0.2507018536	 0.1906421207	 0.100711206	-0.041959
C	 0.6974879032	-0.508325244	-0.8863646261	 0.022168
O	 2.0332848076	-0.1319614517	-0.5411045253	-0.238741
C	 1.4236012593	-1.2099191272	 0.1873119753	-0.027056
C	 0.4764211791	-0.6125024348	 1.257323307	 0.014231
N	 0.9284855346	 0.1237868696	 2.4166170573	-0.083666
C	 1.9330968746	-0.508462865	 3.2674019306	-0.230218
C	 2.2791004899	 0.6827720447	 2.4444461939	-0.22161
H	 0.8004911132	 2.0829103037	 0.1130620303	 0.133358
H	-0.764030105	 2.1304461006	-0.7196522889	 0.107884
H	-0.700473527	 2.0806872597	 1.0518755345	 0.127461
H	-1.2757453533	-0.1767836495	-0.0092856864	 0.076337
H	 0.5219098347	-0.8084692898	-1.9131415223	 0.102368
H	 1.9409799638	-2.1631312632	 0.1708318977	 0.099622
H	-0.191072045	-1.4036285362	 1.6165286826	 0.085192
H	 1.7700749876	-0.4174215465	 4.3378311965	 0.114575
H	 2.3453042739	-1.4652640048	 2.9505987797	 0.10789
H	 2.9166536652	 0.5334925981	 1.580106202	 0.142992
H	 2.3597592586	 1.6597923862	 2.9131522782	 0.113203
74.929	145.5603	157.7736	211.2737	236.7721	283.2823	341.3055	458.8438	528.8513	632.8108	720.8552	766.2448	811.7439	836.0353	857.3185	864.1435	891.1425	908.0469	915.5166	989.2956	1028.5398	1039.1064	1051.4003	1071.9372	1101.2642	1122.801	1136.9092	1142.8618	1177.2365	1187.9523	1208.9876	1237.8778	1248.9556	1283.7732	1333.9489	1359.3888	1368.447	1383.9041	1408.3528	1489.2019	1495.8005	1505.454	1522.9471	3040.0039	3043.0291	3063.7083	3094.5	3107.3479	3120.099	3130.098	3169.4587	3178.888	3188.7557	3216.8633
CC1C2OC2C1N1CC1	C[C@H]1[C@H]2O[C@H]2[C@H]1N1CC1	
InChI=1S/C7H11NO/c1-4-5(8-2-3-8)7-6(4)9-7/h4-7H,2-3H2,1H3	InChI=1S/C7H11NO/c1-4-5(8-2-3-8)7-6(4)9-7/h4-7H,2-3H2,1H3/t4-,5+,6-,7+/m1/s1
