19
gdb 73843	2.38306	1.78723	1.34713	2.0992	76.35	-0.2268	0.0153	0.2421	1037.5167	0.159654	-423.030308	-423.022147	-423.021203	-423.062781	31.26	
C	-0.0255439805	 1.4983381445	 0.1209961727	-0.512473
C	-0.0895142484	 0.013575923	-0.0047458178	 0.21664
C	-0.0920726754	-0.7846164647	-1.0819983086	 0.242206
C	-0.0309212853	-0.4836443584	-2.5400046857	-0.515022
C	 0.0146458933	-2.1929824554	-0.4941053422	 0.070721
O	 1.3867898559	-2.3570507054	-0.0486420442	-0.277709
C	 1.450066851	-1.54794665	 1.1314994705	-0.082557
C	 0.0084009288	-0.9473100283	 1.1791035968	-0.079044
O	-0.7137833747	-2.0994569552	 0.7066257609	-0.228463
H	 0.8980544096	 1.819789921	 0.6203378911	 0.129622
H	-0.0606628967	 1.9898101811	-0.8549238343	 0.129306
H	-0.8571100034	 1.8844205701	 0.7241094503	 0.130559
H	 0.8942297791	-0.8785267812	-2.9789128527	 0.139723
H	-0.8623773761	-0.9513327986	-3.0822266405	 0.129837
H	-0.0630943911	 0.5912130188	-2.7378314273	 0.125696
H	-0.2739349961	-3.0550737078	-1.0935275761	 0.086575
H	 1.6469800625	-2.1819370145	 2.0025914954	 0.107407
H	 2.2330057088	-0.7876648725	 1.040721654	 0.100419
H	-0.3527005412	-0.6172316964	 2.1519895381	 0.086558
147.9711	159.2871	172.0536	175.3803	244.9222	280.1743	363.5424	482.4967	578.8503	599.2066	609.2616	695.9961	801.6421	831.7369	859.1962	882.4664	908.7168	951.9497	980.8341	1008.0811	1028.1739	1054.6771	1070.494	1078.5107	1155.6916	1190.3641	1199.4543	1225.0064	1243.3085	1281.1752	1333.638	1345.3001	1355.4161	1411.3864	1419.5662	1478.6786	1479.9957	1486.5417	1490.9464	1513.6892	1733.5958	3014.5936	3018.1339	3033.9015	3058.4188	3064.468	3081.7416	3108.1442	3111.0118	3136.4004	3143.6775
CC1=C(C)C2OCC1O2	CC1=C(C)[C@H]2OC[C@@H]1O2	
InChI=1S/C7H10O2/c1-4-5(2)7-8-3-6(4)9-7/h6-7H,3H2,1-2H3	InChI=1S/C7H10O2/c1-4-5(2)7-8-3-6(4)9-7/h6-7H,3H2,1-2H3/t6-,7-/m0/s1
