18
gdb 11949	3.50334	1.59915	1.3636	2.292	68.21	-0.2346	0.0619	0.2965	973.256	0.152614	-384.895382	-384.887074	-384.88613	-384.928204	30.786	
C	 0.019532027	 1.5485439592	 0.0086725288	-0.493172
C	 0.0544966643	 0.0494590016	 0.0642868738	 0.190715
C	 1.2560991273	-0.8010278513	-0.3182308565	-0.374881
C	 0.65081189	-0.9418167339	 1.0459840156	 0.418731
C	 1.3362779054	-0.8671826396	 2.3720846311	-0.171148
O	 1.9684356755	-2.0933160723	 2.710328521	-0.412173
O	-0.4928570845	-1.8128448861	 0.9727218212	-0.33916
C	-1.1668152085	-0.8683483181	 0.0976945903	-0.122592
H	 0.9933273355	 1.9772628536	 0.2653201145	 0.123831
H	-0.235616795	 1.9008471081	-0.9981446169	 0.125354
H	-0.7216792016	 1.9596735535	 0.7032402668	 0.120797
H	 1.1638445578	-1.6160767572	-1.0314815059	 0.111893
H	 2.19540493	-0.2571686622	-0.3592104882	 0.114395
H	 2.1233173755	-0.1069635155	 2.341728029	 0.111171
H	 0.609006971	-0.5716648928	 3.1441766164	 0.093386
H	 1.2880066802	-2.7750168709	 2.6774032311	 0.295021
H	-2.0311662119	-0.4235815317	 0.6062005074	 0.104601
H	-1.489705138	-1.3286009347	-0.8441636195	 0.103231
60.8984	123.0843	199.5316	225.1705	262.9798	324.0311	358.0488	390.0286	453.122	498.1373	605.4552	739.5727	797.0503	867.5096	923.7193	931.8305	967.3101	978.7032	997.3432	1036.6057	1051.669	1062.319	1116.4827	1134.4896	1159.7521	1231.9518	1250.6509	1288.9502	1349.5695	1379.4196	1400.0689	1418.9577	1439.963	1486.3426	1489.3155	1497.3757	1504.9007	1522.4372	2984.9985	3013.8512	3023.1865	3062.8417	3080.0742	3080.7216	3099.937	3110.4181	3202.5296	3806.5658
CC12CC1(CO)OC2	C[C@@]12C[C@]1(CO)OC2	
InChI=1S/C6H10O2/c1-5-2-6(5,3-7)8-4-5/h7H,2-4H2,1H3	InChI=1S/C6H10O2/c1-5-2-6(5,3-7)8-4-5/h7H,2-4H2,1H3/t5-,6+/m0/s1
