25
gdb 90762	3.13951	1.17033	0.96648	0.076	92.31	-0.2715	0.0824	0.3539	1358.1628	0.230851	-352.370928	-352.361862	-352.360918	-352.404623	36.116	
C	-0.0240780275	 1.6187386819	-0.2007341581	-0.410496
C	 0.0369404277	 0.1116120569	 0.0041606277	 0.035907
C	 0.9579987737	-0.7462074624	-0.9114908077	-0.262293
C	 1.3664020733	-1.6048514114	 0.3241420641	 0.015912
C	 0.7517550363	-0.50445268	 1.2479678575	-0.017633
C	 1.9855619481	 0.2038838214	 1.8416702115	-0.234884
C	 3.0128227656	-0.9322747327	 1.9860964447	-0.19921
C	 2.8652403685	-1.7608730855	 0.6864497664	 0.034256
C	 3.3361056477	-3.2101774281	 0.8228444231	-0.411007
H	 0.9720394281	 2.0729564709	-0.1895101474	 0.11257
H	-0.4814153312	 1.860401033	-1.1670780864	 0.110988
H	-0.6213415154	 2.1053666636	 0.5789213159	 0.110847
H	-0.9816272451	-0.2909812992	-0.0372658134	 0.06748
H	 0.4801735695	-1.2633407864	-1.7478832646	 0.091561
H	 1.8026282395	-0.1704387083	-1.3060769348	 0.090236
H	 0.8367122268	-2.5610371821	 0.354738015	 0.056314
H	 0.0861161875	-0.845341572	 2.0466699219	 0.054491
H	 2.3757617908	 0.9596574715	 1.1495713527	 0.0935
H	 1.7741029052	 0.7162276293	 2.784831845	 0.09115
H	 4.0349553755	-0.5756356731	 2.1503878169	 0.087703
H	 2.748772339	-1.5611510958	 2.847476631	 0.08997
H	 3.4656374265	-1.278641238	-0.0967164206	 0.063793
H	 2.7518160694	-3.7412071199	 1.583819815	 0.110134
H	 3.2284728593	-3.7568191463	-0.1202383812	 0.110343
H	 4.3897993414	-3.2625152974	 1.1185022056	 0.108368
47.4581	158.1585	209.2544	231.9194	244.2051	281.1143	299.7878	340.4736	438.6874	489.4742	539.9836	580.1786	667.6847	769.2751	812.3514	823.6189	892.0949	895.8919	898.9296	941.1624	957.0907	967.1478	996.6919	1010.9843	1041.0815	1054.8295	1076.4778	1129.0316	1146.457	1159.3949	1167.638	1199.226	1211.4299	1237.9399	1250.9639	1274.1844	1292.0212	1301.8862	1314.6387	1325.0292	1338.0547	1360.6839	1367.0045	1389.1649	1409.4162	1411.6861	1484.7482	1489.8554	1494.0115	1498.2558	1499.8534	1500.1765	1503.4526	3003.5494	3016.1502	3022.3939	3024.0653	3028.0816	3036.1353	3040.1147	3049.6296	3063.93	3075.209	3086.2974	3087.1117	3089.0499	3092.4057	3094.3931	3100.9814
CC1CC2C1CCC2C	C[C@H]1C[C@@H]2[C@H]1CC[C@H]2C	
InChI=1S/C9H16/c1-6-3-4-8-7(2)5-9(6)8/h6-9H,3-5H2,1-2H3	InChI=1S/C9H16/c1-6-3-4-8-7(2)5-9(6)8/h6-9H,3-5H2,1-2H3/t6-,7+,8+,9+/m1/s1
