17
gdb 78490	3.55974	1.33366	1.28119	1.462	66.68	-0.2526	0.0685	0.3211	1027.3726	0.13703	-458.913079	-458.905869	-458.904925	-458.944704	28.309	
O	-0.0425118457	 1.3189590508	-0.0646025841	-0.440191
C	-0.0209412533	-0.0778118296	 0.009197774	 0.097687
C	-0.4922758796	-0.6767038182	 1.3088929827	-0.134224
C	-1.3873397667	-0.6752939486	 0.0427690196	-0.09736
C	-1.3138461675	-2.2050738687	-0.0075453653	 0.059726
O	-0.512619138	-2.7910929886	-1.024793407	-0.262235
C	 0.5007935531	-3.5037044352	-0.3399024428	 0.018152
O	 0.8103157593	-2.7850800713	 0.8395374154	-0.264714
C	-0.4195650038	-2.204778917	 1.258761391	 0.058195
H	 0.748157034	 1.6476093768	 0.3757529218	 0.289702
H	 0.7709826283	-0.5626432295	-0.5578234365	 0.103799
H	-0.5837582279	-0.072383664	 2.2021820661	 0.091855
H	-2.259808577	-0.0725335396	-0.1715337702	 0.101018
H	-2.2819792876	-2.7071955745	 0.080938482	 0.08471
H	 0.1532141629	-4.5220969151	-0.0903474106	 0.088872
H	 1.3916731322	-3.5537903883	-0.9723430384	 0.121223
H	-0.8222242626	-2.7126906194	 2.1404989025	 0.083784
138.5779	153.6818	238.9409	293.0544	299.6855	393.5675	475.4739	606.2882	654.8912	716.2568	753.7413	808.1217	857.1194	905.8931	920.0333	969.9441	981.5936	984.2453	1016.3883	1043.9959	1066.6359	1096.1555	1098.7508	1140.6318	1155.7481	1185.5107	1224.0621	1230.7766	1238.5867	1276.322	1299.7429	1312.0655	1338.4905	1358.8129	1424.9065	1457.2623	1540.7413	2943.6092	3053.0101	3065.2114	3089.6208	3125.4598	3196.6132	3209.2881	3809.8711
OC1C2C1C1OCOC21	O[C@H]1[C@H]2[C@@H]1[C@H]1OCO[C@@H]21	
InChI=1S/C6H8O3/c7-4-2-3(4)6-5(2)8-1-9-6/h2-7H,1H2	InChI=1S/C6H8O3/c7-4-2-3(4)6-5(2)8-1-9-6/h2-7H,1H2/t2-,3+,4+,5+,6-
