20
gdb 70058	3.04722	1.58522	1.27821	1.2069	85.19	-0.2204	0.0146	0.2349	1059.4683	0.172766	-365.971031	-365.963452	-365.962507	-366.002557	31.137	
C	 0.0631300064	 1.5934222081	 0.1492847638	-0.498237
C	 0.1217898757	 0.0950199056	-0.0080849689	 0.30768
N	-0.6162791357	-0.7661230958	 0.9375988252	-0.372779
C	 0.8830742233	-0.8068066248	 0.9272548206	-0.117956
C	 1.3562505167	-1.9939801876	 0.1446749961	-0.203271
C	 1.0398484342	-1.8046587168	-1.1382098664	 0.250602
C	 0.4024196163	-2.5265142951	-2.3031268938	-0.308141
C	-0.7237987609	-1.4322740013	-2.1731408199	-0.245563
C	 0.2922717291	-0.5177738477	-1.3927139627	-0.081192
H	 0.8685384224	 2.0802775421	-0.411529776	 0.12306
H	-0.8876133768	 1.9908057032	-0.2258599222	 0.124126
H	 0.1590613442	 1.891291861	 1.1989164928	 0.111131
H	-0.9177887844	-0.1830461998	 1.7177718632	 0.220099
H	 1.4063719905	-0.4239699715	 1.7983542598	 0.082587
H	 1.6773938288	-2.9192546544	 0.6084420303	 0.093791
H	 0.9509646835	-2.4153188542	-3.2445082655	 0.107262
H	 0.127135045	-3.5743368477	-2.1672289969	 0.110497
H	-1.1300109724	-1.0336757046	-3.1054936452	 0.096476
H	-1.526427898	-1.7655065087	-1.5140162717	 0.132018
H	 0.793303792	 0.1747234001	-2.0799306024	 0.06781
160.2066	198.7603	218.6075	252.6712	323.6045	366.8419	485.9442	516.916	574.0761	668.1244	688.0109	746.3979	779.7546	814.6319	840.8539	860.3588	894.0199	921.018	929.7493	970.3766	1009.9109	1017.061	1058.4379	1066.4295	1084.5971	1102.647	1116.502	1157.6602	1172.7263	1216.827	1236.4107	1249.8657	1269.0213	1279.8816	1325.0359	1357.9906	1413.9277	1425.5003	1470.4736	1485.1945	1487.6795	1499.605	1702.0737	3021.3507	3028.9994	3047.466	3069.241	3083.7149	3094.9869	3110.5659	3144.9228	3153.3894	3198.7511	3465.8038
CC12NC1C=C1CCC21	C[C@]12N[C@H]1[CH][C]1CC[C@@H]21	
InChI=1S/C8H11N/c1-8-6-3-2-5(6)4-7(8)9-8/h4,6-7,9H,2-3H2,1H3	InChI=1S/C8H11N/c1-8-6-3-2-5(6)4-7(8)9-8/h4,6-7,9H,2-3H2,1H3/t6-,7+,8-/m1/s1
