20
gdb 116621	4.36791	0.95073	0.84876	2.8197	83.89	-0.238	0.0285	0.2665	1434.0342	0.171789	-403.158505	-403.149872	-403.148928	-403.192808	32.232	
C	-0.4197792248	 1.503710993	-0.17012175	-0.364319
C	 0.2989962273	 0.1799548566	 0.0849387372	-0.129032
N	 0.9798586941	-0.266157453	-1.1247916092	-0.349603
C	 2.0371465065	-0.9430574435	-1.0291832738	 0.455328
O	 2.6017083841	-1.3599271512	 0.1595741496	-0.26234
C	 3.9643364205	-1.7709470798	-0.0410516361	-0.102115
C	 4.128158874	-1.9901862788	-1.5337994949	-0.061137
C	 3.139339247	-2.9179235045	-2.1709531145	-0.286689
C	 2.8726570288	-1.4234628629	-2.1596974069	-0.136164
H	 0.2958155836	 2.2899510182	-0.4307935819	 0.113014
H	-1.1240842065	 1.4043588664	-1.0012123295	 0.120271
H	-0.9717552248	 1.8243352308	 0.7194458465	 0.102185
H	 0.9901978843	 0.2739118014	 0.9336540768	 0.100262
H	-0.438428612	-0.5837929345	 0.3704240105	 0.102925
H	 4.6342508299	-0.980358927	 0.319631962	 0.113811
H	 4.1301425346	-2.6710219168	 0.5599193378	 0.117743
H	 5.1055246439	-1.8434539206	-1.9759467868	 0.101844
H	 3.404929268	-3.3517805228	-3.1280214302	 0.122425
H	 2.5306371635	-3.5538590593	-1.5356635124	 0.128033
H	 2.8503752879	-0.8675395618	-3.0860955043	 0.11356
29.2756	117.5436	143.0125	193.3744	243.5235	290.7377	362.0657	408.8287	447.7333	647.5075	723.7021	734.8161	782.9772	803.7086	826.9225	847.9926	904.7978	927.3002	978.7728	991.8379	1020.2818	1065.0395	1075.6828	1079.9076	1103.026	1114.8961	1128.7691	1145.7089	1195.4389	1202.4947	1236.0762	1297.2109	1340.9527	1366.8599	1381.6449	1399.1659	1408.121	1484.735	1485.8299	1488.857	1506.9262	1520.3936	1796.0814	2998.2746	3025.1456	3029.8474	3036.6301	3075.1216	3106.371	3114.7625	3131.6899	3192.4092	3218.3572	3227.4147
CCN=C1OCC2CC12	CCN=C1OC[C@H]2C[C@@H]12	
InChI=1S/C7H11NO/c1-2-8-7-6-3-5(6)4-9-7/h5-6H,2-4H2,1H3	InChI=1S/C7H11NO/c1-2-8-7-6-3-5(6)4-9-7/h5-6H,2-4H2,1H3/t5-,6-/m1/s1
