16
gdb 11781	4.46923	1.67738	1.56159	1.6182	64.95	-0.2507	-0.0324	0.2182	842.9682	0.131329	-383.722076	-383.715423	-383.714478	-383.753163	25.511	
O	-0.0425817737	-0.0585682646	 0.038370399	-0.244033
C	 0.0420088258	 1.1371041336	 0.1729385622	 0.039542
C	 1.3091357524	 1.9138183295	 0.0670738765	 0.198676
C	 2.6855026043	 1.2943108886	-0.3162973641	-0.267112
C	 2.9968708601	 2.783728362	-0.6000326414	 0.101333
C	 1.5463130729	 2.9254479917	-1.1205769126	-0.275475
O	 2.9382214367	 3.3942897864	 0.7000163377	-0.274408
C	 1.732827925	 2.8179664527	 1.2443000385	-0.117373
H	-0.8640036333	 1.7560008915	 0.3742609452	 0.072538
H	 3.2647912267	 0.8027968933	 0.4674346519	 0.110524
H	 2.6244839627	 0.6732178126	-1.2101152505	 0.117985
H	 3.8734020333	 3.1410352127	-1.1368426637	 0.089167
H	 1.3782681772	 2.4633351845	-2.0941650993	 0.117402
H	 1.0853500203	 3.9135545235	-1.0596968968	 0.109988
H	 1.0045635198	 3.6032700875	 1.4790167784	 0.106842
H	 1.9597608298	 2.2521830545	 2.1547649992	 0.114404
72.2973	182.9905	265.935	351.9503	437.87	476.5186	516.395	663.1877	714.2347	824.606	855.0939	884.5575	911.305	949.4849	953.0045	985.0889	997.4437	1021.7567	1046.403	1112.626	1121.4911	1170.1738	1200.1487	1207.1135	1224.9244	1236.0923	1275.4304	1304.5675	1372.7388	1428.3035	1473.209	1505.2356	1531.1301	1819.1478	2853.998	3025.5481	3069.5357	3074.6254	3083.9165	3145.7157	3146.84	3154.0629
O=CC12CC(C1)OC2	O=C[C@@]12C[C@@H](C1)OC2	
InChI=1S/C6H8O2/c7-3-6-1-5(2-6)8-4-6/h3,5H,1-2,4H2	InChI=1S/C6H8O2/c7-3-6-1-5(2-6)8-4-6/h3,5H,1-2,4H2/t5-,6+
