19
gdb 5959	3.24864	1.14642	1.05175	5.1211	71.76	-0.278	0.041	0.319	1197.8034	0.163402	-365.078367	-365.068546	-365.067602	-365.112945	34.936	
C	 0.0780747125	 1.5754486835	-0.0057848579	-0.40597
C	 0.0177118159	 0.0310301659	 0.0501382864	 0.066378
C	 0.853962706	-0.4926218042	 1.2411413893	-0.405963
C	-1.4448478391	-0.491797215	 0.0931088449	-0.174355
C	-2.2671107759	-0.0669129424	 1.3077499035	-0.102202
O	-3.5504440536	-0.6496504859	 1.1417404539	-0.416055
C	 0.6206020713	-0.4907057072	-1.1902246657	 0.271199
N	 1.0953666911	-0.8986585616	-2.1620600874	-0.342202
H	 1.1076350278	 1.9159344598	-0.1437612492	 0.134959
H	-0.5232393976	 1.9630592427	-0.832565186	 0.135101
H	-0.2976424417	 2.0036291558	 0.9271874283	 0.123442
H	 0.4813339424	-0.0735666071	 2.1794798805	 0.123426
H	 0.8074875801	-1.5830842762	 1.3052662232	 0.135109
H	 1.9021133539	-0.2015418976	 1.1333509863	 0.134959
H	-1.9709784398	-0.1555726054	-0.8064916298	 0.124847
H	-1.4342182165	-1.5862159068	 0.0573938274	 0.12483
H	-1.793383377	-0.415637617	 2.2378275537	 0.091728
H	-2.3368477418	 1.0299202822	 1.364179078	 0.091751
H	-4.094343798	-0.4013764535	 1.8948623008	 0.289017
61.2194	101.9345	129.0467	186.6493	245.6257	252.2118	265.7711	266.0129	324.7162	353.0326	380.4859	434.1677	583.6739	594.5322	734.46	796.5241	876.1996	944.9821	987.078	999.8991	1024.9848	1059.6941	1078.5551	1192.794	1207.5757	1227.792	1263.4771	1265.5248	1329.5725	1354.9272	1400.5042	1423.0688	1462.7473	1483.4031	1487.6159	1491.0195	1503.6754	1512.5195	1530.6345	2352.4321	2979.2151	3006.6455	3045.8777	3047.948	3051.124	3094.0157	3121.7227	3124.1193	3125.483	3126.1547	3831.9447
CC(C)(CCO)C#N	CC(C)(CCO)C#N	
InChI=1S/C6H11NO/c1-6(2,5-7)3-4-8/h8H,3-4H2,1-2H3	InChI=1S/C6H11NO/c1-6(2,5-7)3-4-8/h8H,3-4H2,1-2H3
