15
gdb 98033	6.30873	0.59653	0.56756	3.0337	76.26	-0.276	-0.0455	0.2305	1898.2617	0.11017	-457.72845	-457.719054	-457.718109	-457.764836	31.114	
C	 0.1029461256	 1.3556558009	 0.1110336483	-0.242306
O	 0.111491576	-0.0755646653	 0.0063015781	-0.217727
C	 0.6621519004	-0.5564820554	-1.1236188973	 0.25215
O	 1.1242786802	 0.1247145464	-2.0053277939	-0.352867
C	 0.6246522278	-1.9996535015	-1.1398028704	-0.031293
C	 0.625936476	-3.2019928882	-1.226239428	 0.271232
C	 0.612247318	-4.6360462247	-1.2857230711	-0.14364
C	 0.0976547892	-5.3450190754	-2.478041377	-0.156313
O	 1.4915185462	-5.2675337261	-2.228222347	-0.202822
H	 1.1222700492	 1.7489194588	 0.0878223242	 0.146241
H	-0.4640851111	 1.7982680163	-0.7116688395	 0.145342
H	-0.3717193072	 1.5760079565	 1.0667354341	 0.137759
H	 0.5510892277	-5.1444795441	-0.3247542053	 0.129814
H	-0.3569638777	-6.3255456036	-2.3443344669	 0.128491
H	-0.2637921605	-4.7611906045	-3.3218866282	 0.135941
26.3628	72.1403	82.8245	119.3005	169.5157	184.5075	296.3882	310.2318	401.5209	542.6664	543.2491	617.8617	772.0105	790.6377	844.3271	880.9371	955.0411	1016.3095	1078.5827	1124.1698	1157.071	1168.0855	1176.8873	1213.3364	1260.2347	1296.2324	1401.4164	1471.7262	1480.6977	1495.6643	1517.965	1792.3146	2350.1286	3053.5029	3090.155	3125.1598	3128.8872	3164.4167	3186.5893
COC(=O)C#CC1CO1	COC(=O)C#C[C@H]1CO1	
InChI=1S/C6H6O3/c1-8-6(7)3-2-5-4-9-5/h5H,4H2,1H3	InChI=1S/C6H6O3/c1-8-6(7)3-2-5-4-9-5/h5H,4H2,1H3/t5-/m0/s1
