23
gdb 109943	2.24473	1.34419	0.98461	1.6646	85.86	-0.2209	0.0797	0.3006	1326.2549	0.204194	-388.268376	-388.258567	-388.257623	-388.303415	37.133	
C	-0.0427035733	 1.6588861975	 0.1933242357	-0.38903
C	-0.0825456504	 0.1294606887	 0.2897946678	-0.19211
C	-1.4692331615	-0.4590717719	 0.0510479699	-0.145979
C	-2.0388589164	-0.6131302358	-1.3959626706	 0.143147
C	-1.1617840155	-0.328626949	-2.600967455	-0.404872
O	-2.219215217	-2.042492678	-1.2011439144	-0.326303
C	-1.6383408966	-1.9770228417	 0.0991768229	 0.459746
C	-0.7078866625	-3.0404638155	 0.5892036111	-0.33697
C	-2.0925325948	-2.8694340982	 1.2039979519	-0.337345
H	 0.9621784661	 2.0412671867	 0.3969983345	 0.114515
H	-0.3341424703	 2.0090083061	-0.8020214486	 0.120706
H	-0.7266321208	 2.1165203224	 0.9167951688	 0.115725
H	 0.6394432323	-0.3110028294	-0.4068241398	 0.10229
H	 0.2487914967	-0.1725637701	 1.2923133462	 0.096922
H	-2.190633515	 0.0471511473	 0.7018725561	 0.075958
H	-3.0144313449	-0.1273957096	-1.5257167905	 0.075025
H	-0.1728185582	-0.7828643763	-2.4966953107	 0.122939
H	-1.6317684687	-0.7499380651	-3.4952911955	 0.126864
H	-1.041112563	 0.748312377	-2.7580313378	 0.115247
H	-0.5546020847	-3.8935068352	-0.0633111622	 0.12127
H	 0.1603233889	-2.754291447	 1.1742339286	 0.111313
H	-2.1687530605	-2.4609124158	 2.2071587962	 0.109515
H	-2.8424093998	-3.614007107	 0.9585783056	 0.121428
36.3798	98.1442	150.5264	193.2445	230.7617	240.0517	281.1654	286.6836	381.7326	393.7321	466.7693	509.2812	603.8205	736.6214	759.3047	801.7276	820.4253	875.8701	882.1704	924.9211	946.5797	961.1142	997.7342	1024.2333	1045.5742	1061.3461	1065.6578	1083.7127	1091.4125	1166.4985	1172.2303	1188.3356	1223.7696	1247.3325	1284.7255	1323.0305	1343.8756	1356.5112	1394.9674	1406.6343	1410.3332	1413.5316	1448.1344	1480.282	1484.6472	1498.0397	1500.0178	1502.7655	1507.9347	3013.1488	3020.6236	3033.3585	3037.9035	3042.981	3063.8472	3100.8555	3104.9084	3109.1154	3120.9729	3122.8933	3127.7668	3206.6066	3221.3494
CCC1C(C)OC11CC1	CC[C@H]1[C@@H](C)OC21CC2	
InChI=1S/C8H14O/c1-3-7-6(2)9-8(7)4-5-8/h6-7H,3-5H2,1-2H3	InChI=1S/C8H14O/c1-3-7-6(2)9-8(7)4-5-8/h6-7H,3-5H2,1-2H3/t6-,7+/m1/s1
