23
gdb 58889	2.9632	1.28804	1.08011	1.199	84.93	-0.2245	0.0826	0.3071	1245.6872	0.205917	-388.291595	-388.282402	-388.281458	-388.325294	35.875	
C	-0.2119870419	 1.5364783146	-0.1223529855	-0.385276
C	-0.0584138959	 0.0128981067	 0.0162273146	-0.051403
C	-1.4233570553	-0.6671905512	 0.1729211913	-0.408084
C	 0.7666790041	-0.5383514868	-1.1301012974	 0.489133
C	 0.2230355675	-0.8495839528	-2.5053995486	-0.360688
C	 0.8194836102	-1.9525323366	-1.6404539949	-0.13008
C	 2.2909959679	-2.2742068073	-1.8387718995	-0.242438
C	 2.9476683697	-0.8764318714	-1.8292690332	-0.094861
O	 2.0851049015	-0.0235090426	-1.0825031118	-0.308382
H	 0.7635902695	 2.0167590898	-0.2261959715	 0.132559
H	-0.8089282323	 1.786315281	-1.0070463708	 0.109428
H	-0.7155791998	 1.9585683068	 0.7535047174	 0.102452
H	 0.5269503568	-0.1851539559	 0.9246051367	 0.079449
H	-2.0665276986	-0.4866179585	-0.6954317026	 0.116314
H	-1.3310953646	-1.7487866434	 0.3104304733	 0.113737
H	-1.9420303	-0.2649323743	 1.0485967233	 0.114924
H	-0.8534957964	-0.8611982519	-2.6351739253	 0.111577
H	 0.7677113549	-0.5050660049	-3.3784339028	 0.110976
H	 0.1633564424	-2.7262423507	-1.2598612989	 0.087383
H	 2.6485909058	-2.8832271761	-1.0014897163	 0.106271
H	 2.5081579128	-2.8166682407	-2.7642177016	 0.103017
H	 3.9326295634	-0.8596805918	-1.3538500751	 0.10755
H	 3.0654990485	-0.4958242618	-2.8536452007	 0.096439
57.2646	151.2321	195.9301	224.5529	232.3367	251.9157	305.9428	339.2419	415.6854	446.5428	466.9208	630.1006	666.3857	705.7111	808.2278	862.7632	874.1593	892.9127	926.478	931.675	937.9144	961.9336	982.0796	1021.8837	1024.7593	1062.8141	1096.7793	1119.7671	1132.8307	1146.3087	1174.3362	1208.1626	1221.6943	1237.6895	1279.1583	1321.6575	1347.6048	1368.6711	1386.9674	1396.6939	1403.8478	1420.3352	1481.3462	1491.2506	1491.8522	1496.6157	1504.3972	1515.3443	1529.6957	2998.6093	3011.5512	3030.5905	3034.7849	3042.8112	3076.9903	3089.8632	3093.7842	3100.1714	3107.0654	3126.6578	3130.9878	3178.2828	3214.7738
CC(C)C12CC1CCO2	CC(C)[C@]12C[C@H]1CCO2	
InChI=1S/C8H14O/c1-6(2)8-5-7(8)3-4-9-8/h6-7H,3-5H2,1-2H3	InChI=1S/C8H14O/c1-6(2)8-5-7(8)3-4-9-8/h6-7H,3-5H2,1-2H3/t7-,8-/m1/s1
