18
gdb 42472	4.79357	0.68797	0.62724	2.255	80.54	-0.2371	-0.0571	0.1799	1740.6157	0.144744	-401.891628	-401.882029	-401.881085	-401.927528	33.939	
O	-0.156798808	-0.0939976557	-0.3170519718	-0.291862
C	-0.0339657081	 1.0911820675	-0.0915006212	 0.230894
C	 1.3081551385	 1.7914256325	-0.0182600376	-0.303537
C	 2.4888646397	 0.8525443377	-0.2529365475	-0.151155
N	 3.735714047	 1.6084145017	-0.2353359616	-0.068333
C	 4.3928221736	 1.7402470712	 1.0628362938	-0.223412
C	 4.947738194	 0.8387282325	 0.0159982903	-0.220502
C	-1.1925543246	 1.9449170352	 0.1272476613	 0.245679
C	-2.1380739807	 2.6671953558	 0.3095826542	-0.386478
H	 1.3163972803	 2.607615485	-0.7520388178	 0.145249
H	 1.3831313716	 2.2849437491	 0.9602751613	 0.133319
H	 2.4743394069	 0.0422150974	 0.4958477372	 0.09617
H	 2.3880073929	 0.3751603526	-1.2327941191	 0.121387
H	 4.8538162854	 2.7022145711	 1.2671337183	 0.117598
H	 3.9226613586	 1.2667005456	 1.9240995366	 0.109253
H	 4.8468967689	-0.2329817928	 0.1807542644	 0.113104
H	 5.8211944657	 1.1307772903	-0.5598306635	 0.118292
H	-2.9849583517	 3.2900876231	 0.4675280428	 0.214333
39.845	62.8613	92.3058	125.2459	183.0312	243.223	266.9582	357.1538	412.158	500.1891	570.7684	610.8219	645.3378	703.8623	760.0072	796.221	826.7154	862.0928	913.0776	1012.4661	1028.0882	1063.1082	1070.9486	1110.417	1116.0258	1119.4533	1164.9113	1181.1375	1231.133	1305.5507	1321.1292	1326.4398	1405.2463	1447.997	1487.5209	1496.4455	1521.0471	1765.6579	2211.5009	2960.2697	3027.7377	3058.8721	3080.2627	3090.8363	3097.3745	3176.5786	3190.8958	3494.1866
O=C(CCN1CC1)C#C	O=C(CCN1CC1)C#C	
InChI=1S/C7H9NO/c1-2-7(9)3-4-8-5-6-8/h1H,3-6H2	InChI=1S/C7H9NO/c1-2-7(9)3-4-8-5-6-8/h1H,3-6H2
