20
gdb 94600	3.0485	0.95415	0.83693	3.0837	75.27	-0.241	0.0374	0.2784	1424.8229	0.169968	-440.307689	-440.297739	-440.296795	-440.34425	36.023	
N	-0.1975094026	 1.2613168096	 0.5681095072	-0.525755
C	-0.004526526	-0.0150692756	 0.1114796594	 0.40606
O	 1.0873885198	-0.4143230498	-0.2446455884	-0.358435
C	-1.2646490353	-0.8787162557	 0.0983664805	-0.322306
C	-0.9407457214	-2.3561869618	-0.0938928323	 0.000221
C	-0.4566270562	-3.0794521828	 1.198039376	-0.220543
C	-1.8976409935	-3.623750775	 1.4082267257	-0.261524
C	-2.1871517625	-3.28114146	-0.0784424532	 0.117496
O	-3.3976144807	-2.6385092816	-0.4160262435	-0.43403
H	 0.5650251865	 1.9121625417	 0.4709466769	 0.256828
H	-1.1199742821	 1.6303442412	 0.7219874702	 0.255505
H	-1.8343607848	-0.7082386514	 1.0195744663	 0.109775
H	-1.9117210713	-0.5315820051	-0.7170493137	 0.135244
H	-0.2856904651	-2.4578981914	-0.9601697257	 0.089231
H	 0.2640337693	-3.8711812434	 0.9816299504	 0.105484
H	-0.0430821757	-2.4462126778	 1.9857484664	 0.103673
H	-2.0160778965	-4.6626062535	 1.7269195743	 0.090405
H	-2.4878086049	-2.9820534877	 2.0689718001	 0.102438
H	-2.0181945575	-4.1579060553	-0.7202338421	 0.067
H	-4.1094099395	-3.2834670945	-0.3587125146	 0.283234
15.794	68.6883	117.6202	133.5188	218.4553	237.5178	243.0333	328.5631	401.7502	436.5327	500.2691	535.4257	607.4806	640.9104	659.8699	760.5257	843.795	865.3245	909.637	922.5822	945.5649	954.6895	1051.0205	1080.9863	1096.1028	1120.19	1154.4907	1194.0027	1195.7601	1229.2475	1250.5125	1260.3463	1267.0494	1297.1251	1332.836	1358.2871	1408.678	1419.6346	1461.6631	1480.3557	1498.6567	1616.7484	1795.8012	2990.7944	3033.4461	3054.4784	3065.3705	3070.8208	3101.4589	3104.3187	3124.2677	3595.6846	3729.963	3819.5138
NC(=O)CC1CCC1O	NC(=O)C[C@H]1CC[C@H]1O	
InChI=1S/C6H11NO2/c7-6(9)3-4-1-2-5(4)8/h4-5,8H,1-3H2,(H2,7,9)	InChI=1S/C6H11NO2/c7-6(9)3-4-1-2-5(4)8/h4-5,8H,1-3H2,(H2,7,9)/t4-,5-/m1/s1
