17
gdb 52641	3.01642	0.62688	0.53357	4.1105	89.62	-0.2601	-0.0598	0.2003	2020.7234	0.131818	-384.645033	-384.634027	-384.633083	-384.684749	35.706	
C	-0.0348244902	 1.5091173634	 0.0753812979	-0.497495
C	-0.0279803566	 0.0545008153	 0.0193635305	 0.053663
C	-0.0140450228	-1.1475056706	-0.0294525761	 0.106174
C	-0.0264900217	-2.613386374	-0.0777326542	-0.341798
C	-1.4727273917	-3.1750802101	-0.1034842358	-0.378359
C	 0.7479308287	-3.1286519862	-1.2102131622	 0.17612
C	 1.3688368697	-3.5907813182	-2.1370149706	-0.024149
C	 2.1235425451	-4.0913854252	-3.2564179107	 0.024683
O	 2.2735450884	-5.2636136323	-3.5156630944	-0.23048
H	 0.5014481774	 1.9391588617	-0.7774213902	 0.153762
H	-1.0569230287	 1.902601636	 0.0579635061	 0.151577
H	 0.4467491009	 1.8736450733	 0.9891673426	 0.151893
H	 0.4558106271	-2.9940481523	 0.8352518196	 0.146448
H	-1.9948329229	-2.8357836847	-1.0005247401	 0.140908
H	-1.4524868583	-4.2674142755	-0.0977343692	 0.135002
H	-2.0167713914	-2.8190400011	 0.774264738	 0.132559
H	 2.5741274269	-3.2982963895	-3.8875279913	 0.099495
17.4538	21.8683	51.12	110.7476	121.128	153.8109	221.5933	246.8981	280.2458	312.2578	381.33	461.1356	475.5341	563.2222	628.4393	730.8723	814.5749	958.0649	1022.5002	1049.8471	1052.5768	1055.7502	1067.9668	1139.9122	1195.6142	1288.1425	1325.7319	1403.0918	1414.4974	1422.3498	1477.3567	1477.7566	1488.3756	1497.0451	1767.2954	2330.8929	2378.0965	2917.2107	2993.5615	3029.6755	3053.8903	3091.7484	3092.3746	3136.9864	3140.8554
CC#CC(C)C#CC=O	CC#C[C@@H](C)C#CC=O	
InChI=1S/C8H8O/c1-3-5-8(2)6-4-7-9/h7-8H,1-2H3	InChI=1S/C8H8O/c1-3-5-8(2)6-4-7-9/h7-8H,1-2H3/t8-/m1/s1
