19
gdb 53557	3.87923	0.75323	0.69165	1.7468	86.82	-0.2274	0.0181	0.2455	1685.5038	0.15797	-385.86949	-385.859717	-385.858773	-385.906741	33.474	
C	 0.0302038289	 1.4722826738	 0.3203979298	-0.496214
C	 0.0167583316	 0.0301310841	 0.1188449526	 0.047414
C	 0.0128485383	-1.16163715	-0.0510927785	 0.080547
C	-0.0146524395	-2.6113716111	-0.2540842642	-0.464441
C	-1.3979085659	-3.1980781271	-0.1517427524	 0.327457
C	-2.0572683008	-3.9223228231	-1.0500769247	-0.216063
C	-3.4016011442	-4.3158880536	-0.5094047437	-0.099597
O	-3.4622452545	-3.744707906	 0.7955584274	-0.265905
C	-2.2562215343	-3.0429326893	 1.077923052	-0.14452
H	 1.0495324867	 1.8709056221	 0.2707977658	 0.148173
H	-0.5640646951	 1.9871841368	-0.4424920725	 0.14852
H	-0.3825174207	 1.7417107194	 1.298844386	 0.148328
H	 0.4138443599	-2.8613044157	-1.2318671913	 0.133985
H	 0.6366653466	-3.0885078122	 0.493992582	 0.13583
H	-1.7070155898	-4.2035870682	-2.0356924267	 0.098999
H	-4.2313919784	-3.9318217393	-1.1245013609	 0.104007
H	-3.5283053029	-5.4089294031	-0.4461879621	 0.102344
H	-1.7735132777	-3.4668684526	 1.9744758883	 0.097983
H	-2.4737718482	-1.9868960252	 1.2977177232	 0.113151
17.907	47.7566	67.7871	111.2756	195.5847	212.5145	274.997	317.6504	381.6003	423.3434	474.8491	664.9464	752.179	779.7988	833.5854	898.0998	925.5092	934.2444	987.8154	1028.8915	1053.6112	1053.9539	1064.6441	1109.3779	1157.7911	1169.8007	1200.6296	1210.7074	1223.4606	1304.4272	1336.7315	1370.7641	1397.2394	1415.5069	1461.5256	1478.7329	1479.4177	1516.2765	1529.341	1732.7902	2374.349	2961.3726	2969.5299	2981.5243	2992.9082	2999.7509	3027.3309	3050.9861	3087.9784	3088.1708	3210.0163
CC#CCC1=CCOC1	CC#CCC1=CCOC1	
InChI=1S/C8H10O/c1-2-3-4-8-5-6-9-7-8/h5H,4,6-7H2,1H3	InChI=1S/C8H10O/c1-2-3-4-8-5-6-9-7-8/h5H,4,6-7H2,1H3
