20
gdb 15941	3.45419	1.71675	1.4127	1.8797	74.02	-0.2378	0.0663	0.3041	972.5132	0.177347	-348.976453	-348.968498	-348.967553	-349.008822	30.165	
C	-0.1241337208	 1.5356091875	 0.0316977286	-0.380923
C	-0.0917148947	 0.0039749102	-0.0546833796	-0.29841
C	 0.7430652899	-0.4995372353	-1.2132235177	 0.339092
C	 0.1991993275	-0.3191888437	-2.6659823139	-0.287924
C	 0.4344642051	-1.8360834431	-2.9505677756	-0.228822
C	 1.0418276941	-1.996223451	-1.5409707216	 0.057996
O	 2.4643259722	-1.7589289268	-1.5150374694	-0.294876
C	 2.2791430984	-0.3777436204	-1.1303770538	-0.120755
H	 0.8821366062	 1.9462957923	 0.169896749	 0.119362
H	-0.5386701801	 1.9756075885	-0.8815527148	 0.120624
H	-0.7381366399	 1.8718481205	 0.8724249903	 0.115323
H	 0.3033327338	-0.4092581703	 0.8827655295	 0.09852
H	-1.1161482427	-0.3790447452	-0.1518512654	 0.094998
H	-0.8541613638	-0.0278127641	-2.6978228778	 0.100214
H	 0.7636191159	 0.3781889943	-3.2909071842	 0.099514
H	-0.4933527469	-2.397770985	-3.0910378686	 0.099515
H	 1.1249098191	-2.0842459216	-3.7593849866	 0.110107
H	 0.7530157293	-2.8545958774	-0.9263777313	 0.067877
H	 2.762103162	 0.3190652085	-1.827733959	 0.095742
H	 2.6648656753	-0.1918367977	-0.1178238684	 0.092827
92.1715	106.386	167.6242	221.1992	301.7657	352.4405	370.9753	426.5591	634.0873	670.0509	741.257	792.347	855.2179	880.0187	905.579	936.769	948.0956	984.1888	1002.8368	1021.5836	1036.257	1058.0273	1109.591	1131.5992	1153.7717	1195.6288	1220.5332	1226.8642	1250.1353	1271.0547	1286.8193	1321.7773	1323.6872	1362.0352	1383.6865	1413.9801	1464.5503	1481.4759	1489.778	1501.9267	1506.1277	1523.228	2991.0379	3013.1455	3033.4604	3038.1011	3045.5118	3052.2033	3053.4516	3066.5774	3098.7229	3100.0795	3106.9871	3123.1797
CCC12CCC1OC2	CC[C@]12CC[C@H]1OC2	
InChI=1S/C7H12O/c1-2-7-4-3-6(7)8-5-7/h6H,2-5H2,1H3	InChI=1S/C7H12O/c1-2-7-4-3-6(7)8-5-7/h6H,2-5H2,1H3/t6-,7-/m1/s1
