18
gdb 125520	4.53498	0.83051	0.74239	1.9482	74.91	-0.2493	0.0127	0.262	1527.066	0.148486	-435.294015	-435.28482	-435.283876	-435.329182	32.074	
C	 0.0291995767	 1.4284919411	-0.0104194138	-0.480571
C	 0.0394262719	-0.0630837999	-0.0031034544	 0.352489
N	 0.0490513291	-0.7824984497	-1.1182042087	-0.307434
N	 0.0639210961	-2.0599572773	-0.6544197907	 0.056986
C	 0.0335203238	-3.179742263	-1.5724145695	-0.181627
C	-1.3252338323	-3.3144978962	-2.2770915427	-0.070639
O	-1.333480279	-4.4197824733	-3.1596182481	-0.405917
C	 0.0574723638	-2.0440153681	 0.6935432647	 0.00027
N	 0.0450539482	-0.8053385776	 1.1447883707	-0.314704
H	 0.9089554486	 1.8237273843	 0.5070009761	 0.139789
H	 0.0237670261	 1.8009460691	-1.0361178358	 0.136838
H	-0.852849798	 1.8114095144	 0.512283271	 0.139559
H	 0.8269307403	-3.0405366788	-2.3143360557	 0.12536
H	 0.250907229	-4.0907333388	-1.0088307384	 0.132624
H	-2.1048202257	-3.5029893871	-1.5318444509	 0.121827
H	-1.5669855554	-2.3698912321	-2.7808269107	 0.124322
H	-0.8329437076	-4.1805338225	-3.9459545496	 0.290549
H	 0.0688061645	-2.9459286245	 1.2880508865	 0.140279
54.6548	87.3952	91.136	99.6875	246.1951	281.102	293.7401	333.8209	380.847	421.3678	653.2796	680.2095	720.4239	787.6613	797.5847	858.0123	991.8413	1032.9907	1038.106	1049.262	1066.1684	1069.7674	1089.6732	1157.7469	1226.365	1287.4888	1339.0669	1341.7978	1351.8647	1400.6443	1405.4399	1417.2884	1459.329	1478.0032	1478.1576	1481.3414	1502.5577	1511.4126	1566.1928	3027.6807	3047.203	3052.5987	3084.0266	3103.3791	3117.7287	3144.0679	3250.3108	3821.1351
CC1=NN(CCO)C=N1	Cc1nn(CCO)cn1	
InChI=1S/C5H9N3O/c1-5-6-4-8(7-5)2-3-9/h4,9H,2-3H2,1H3	InChI=1S/C5H9N3O/c1-5-6-4-8(7-5)2-3-9/h4,9H,2-3H2,1H3
