15
gdb 62346	3.96647	1.1437	1.0939	2.285	72.76	-0.2806	-0.023	0.2576	1112.7183	0.111892	-416.789109	-416.781089	-416.780145	-416.82167	29.817	
C	 0.0055308972	 1.5364448713	 0.0610035303	-0.469494
C	 0.06302052	 0.0186795874	 0.0612292861	 0.10663
C	-1.1006586996	-0.6327322617	-0.496890153	 0.238647
N	-2.0310825316	-1.1452362613	-0.9544873133	-0.325434
C	 1.3363345095	-0.7690625903	-0.148979337	 0.062967
O	 2.4603922457	-0.0261963425	 0.3622565413	-0.270671
C	 1.9355690727	-0.1290649737	 1.6606947768	 0.438803
N	 2.4180645114	 0.2090121005	 2.761703915	-0.542098
C	 0.6904030882	-0.8230593464	 1.2086871796	-0.231422
H	 0.9566910702	 1.9538048015	 0.3927176656	 0.154654
H	-0.2000173439	 1.9044494702	-0.9478541872	 0.145641
H	-0.7870173806	 1.8896488902	 0.7254355783	 0.148522
H	 1.5181972801	-1.5135608308	-0.9111903521	 0.151099
H	 3.3408089363	 0.6339052385	 2.6575658884	 0.242034
H	 0.1428762342	-1.5968507429	 1.7248938113	 0.150121
123.4617	136.3174	165.7498	177.9151	272.7812	340.1821	423.0903	462.4028	547.4981	566.5597	627.0058	707.3803	755.3851	832.8082	873.1712	877.9483	924.5627	956.4785	972.5379	1010.1631	1039.7969	1072.5588	1107.1126	1171.7529	1180.6117	1266.8347	1280.2156	1359.3337	1417.3972	1483.9546	1496.5595	1840.5744	2352.0414	3057.3241	3125.9698	3153.3387	3224.6155	3245.0401	3486.4321
CC1(C#N)C2OC(=N)C12	C[C@@]1(C#N)[C@H]2O[C]([NH])[C@@H]12	
InChI=1S/C6H6N2O/c1-6(2-7)3-4(6)9-5(3)8/h3-4,8H,1H3	InChI=1S/C6H6N2O/c1-6(2-7)3-4(6)9-5(3)8/h3-4,8H,1H3/t3-,4-,6-/m0/s1
