18
gdb 102360	1.69512	1.41318	1.32475	4.0021	73.12	-0.2698	-0.0538	0.2161	1171.8775	0.143382	-439.092025	-439.081497	-439.080552	-439.12788	36.057	
C	 0.1327903196	 1.6252181745	 0.1059671551	-0.404483
C	 0.1062597308	 0.0961135928	 0.058758482	-0.213395
C	 0.7411903695	-0.4901399798	-1.2265712636	 0.107098
O	 2.0783921321	-0.041564498	-1.2682091133	-0.263527
C	 2.8101727526	-0.3941303612	-2.4382223731	-0.266181
C	 0.7112527627	-2.0274333348	-1.0725156173	 0.130382
O	-0.1311381525	-2.754180233	-1.5142636343	-0.225281
C	-0.0243953311	-0.0689466	-2.4185496921	 0.290174
N	-0.5969195558	 0.286496463	-3.3565967	-0.34192
H	 1.1567750877	 1.9979093296	 0.0390023807	 0.142137
H	-0.4456427732	 2.0552154146	-0.7168077604	 0.14419
H	-0.3027436523	 1.9753602204	 1.0457860643	 0.124067
H	 0.6667038468	-0.3194407537	 0.9040989963	 0.118802
H	-0.919177627	-0.2809578792	 0.1257634772	 0.135038
H	 2.8433246651	-1.4819669566	-2.5893658764	 0.123938
H	 2.3831739896	 0.0735124857	-3.3331960387	 0.148132
H	 3.8253543386	-0.0257368034	-2.2835879319	 0.144369
H	 1.5608707567	-2.3846482309	-0.4486962045	 0.106463
64.3681	95.9558	121.4365	144.0497	149.9001	176.3518	203.2733	255.1018	283.201	312.9355	379.2719	444.1847	465.8307	606.6172	655.6991	709.495	786.4978	903.0955	963.4394	1000.2625	1040.1163	1087.5752	1120.2809	1160.8204	1183.7337	1197.7513	1231.796	1316.2511	1360.5074	1391.4145	1408.9984	1473.8117	1479.97	1487.9945	1493.5333	1506.9819	1507.5722	1850.4269	2357.512	2893.1862	3004.9508	3043.1738	3051.7071	3073.2234	3091.6475	3120.8371	3140.1473	3140.7022
CCC(OC)(C=O)C#N	CC[C@@](OC)(C=O)C#N	
InChI=1S/C6H9NO2/c1-3-6(4-7,5-8)9-2/h5H,3H2,1-2H3	InChI=1S/C6H9NO2/c1-3-6(4-7,5-8)9-2/h5H,3H2,1-2H3/t6-/m0/s1
