19
gdb 116965	4.61168	0.51952	0.48033	1.1569	81.66	-0.2469	0.0543	0.3012	2236.5055	0.156988	-422.967793	-422.957479	-422.956534	-423.005826	35.2	
O	-0.136062518	 1.1653023918	 0.63398186	-0.416368
C	-0.3849792068	-0.2299729432	 0.6696368808	-0.063247
C	-0.978312387	-0.6125898694	-0.6909116683	-0.324643
C	-1.2836162548	-2.0342211414	-0.7853200612	 0.054159
C	-1.5174841549	-3.214362799	-0.8339903663	 0.071903
C	-1.8351526037	-4.6383352585	-0.8834866279	-0.380964
C	-2.8711497203	-5.0463753944	 0.1502908827	 0.112158
C	-2.8975999538	-6.3983032743	 0.7184807892	-0.182022
O	-2.3959482692	-5.2911152406	 1.4711787676	-0.225912
H	 0.2288306454	 1.4280813297	 1.4837046196	 0.288923
H	 0.5371010056	-0.8051660539	 0.8401972865	 0.098886
H	-1.0950870158	-0.4983874393	 1.4656228667	 0.101136
H	-1.8819494529	-0.0126927149	-0.8545782697	 0.135092
H	-0.267662813	-0.3191334466	-1.4733268694	 0.13575
H	-2.2141163794	-4.9001365842	-1.8812175547	 0.131272
H	-0.9307010306	-5.2377222567	-0.7227028904	 0.133235
H	-3.8044357256	-4.4839244242	 0.1088607156	 0.101318
H	-3.8368119125	-6.8212420766	 1.0718848882	 0.116147
H	-2.1500678826	-7.1273306042	 0.4066762409	 0.113177
18.4073	44.5067	74.6795	108.1369	128.3454	242.4104	268.7447	294.6617	326.601	387.8864	394.6463	469.8548	557.5998	785.8062	794.4198	809.3358	862.2746	938.9779	960.2959	1001.8812	1079.8245	1087.5142	1095.4277	1108.0525	1158.6687	1162.6874	1170.5019	1220.5304	1238.8664	1245.888	1293.8361	1303.6356	1320.9478	1333.8726	1439.074	1453.7395	1455.178	1478.4004	1527.7029	1531.5802	2372.3996	2986.0114	3013.4938	3016.932	3029.5719	3055.2131	3066.6182	3081.2625	3110.3715	3167.218	3835.3532
OCCC#CCC1CO1	OCCC#CC[C@H]1CO1	
InChI=1S/C7H10O2/c8-5-3-1-2-4-7-6-9-7/h7-8H,3-6H2	InChI=1S/C7H10O2/c8-5-3-1-2-4-7-6-9-7/h7-8H,3-6H2/t7-/m0/s1
