16
gdb 6315	4.06525	1.15836	0.99036	2.9869	61.79	-0.2563	-0.0361	0.2203	1168.648	0.126644	-420.906293	-420.897214	-420.896269	-420.940917	31.218	
C	 0.2090174158	 1.4386170841	 0.0936829115	-0.471431
C	 0.3157411776	-0.0587976242	-0.1154895162	 0.376867
O	 1.2283315152	-0.7083256083	 0.3482615667	-0.29745
C	-0.7870272369	-0.7070138632	-0.9371842023	-0.337128
C	-0.8049390289	-2.2480898998	-0.8872340252	 0.061159
O	-2.0159970719	-2.7261055603	-1.4068297865	-0.4425
C	 0.3626464551	-2.8564028656	-1.6475739889	 0.124223
O	 0.1719788318	-3.6190298277	-2.5663229492	-0.265295
H	 1.1091874403	 1.8103866905	 0.5841411185	 0.148106
H	 0.0589126651	 1.9557049397	-0.8601594865	 0.141379
H	-0.6644554365	 1.6637849045	 0.7167023716	 0.148538
H	-1.7635777032	-0.3487765234	-0.5912736115	 0.142678
H	-0.7038566632	-0.3579177025	-1.9758172313	 0.13674
H	-0.6811543837	-2.5519060166	 0.1660305401	 0.109488
H	-1.7653405927	-3.3352056892	-2.1207112748	 0.294419
H	 1.373426496	-2.5687533481	-1.3120220259	 0.130207
45.8893	92.897	117.6536	130.3265	169.8747	291.1699	336.0969	341.2839	433.4319	474.4475	500.8063	587.6895	734.8409	814.9785	831.2646	863.5526	946.959	972.5079	1056.1511	1103.3885	1135.5716	1191.1932	1197.6231	1288.9894	1321.1042	1358.8714	1381.7218	1388.2873	1444.9714	1450.1488	1463.0847	1475.9055	1799.1413	1804.3796	2971.1527	3007.2788	3027.2171	3038.666	3071.1842	3099.2312	3154.6488	3674.55
CC(=O)CC(O)C=O	CC(=O)C[C@@H](O)C=O	
InChI=1S/C5H8O3/c1-4(7)2-5(8)3-6/h3,5,8H,2H2,1H3	InChI=1S/C5H8O3/c1-4(7)2-5(8)3-6/h3,5,8H,2H2,1H3/t5-/m1/s1
