21
gdb 53371	4.03487	0.75	0.67406	0.3592	95.65	-0.2273	0.0293	0.2566	1758.8141	0.181532	-349.956743	-349.946653	-349.945709	-349.993665	35.938	
C	 0.0733838225	 1.5475753355	-0.0590100303	-0.497356
C	 0.0295146097	 0.0920330714	-0.0378633253	 0.054839
C	-0.0061977771	-1.1119905113	-0.0223524732	 0.069575
C	-0.0540149558	-2.5712969617	 0.0054280835	-0.188465
C	 0.6338232825	-3.2063176995	 1.2550011381	-0.216675
C	-0.1916160076	-4.473892064	 1.567626037	-0.303347
C	-1.5334142611	-4.1951096175	 0.9184925685	 0.324047
C	-2.7314256677	-5.046890345	 1.1966479398	-0.489902
C	-1.4538746445	-3.1621832502	 0.0792606592	-0.162732
H	 0.7888740525	 1.9359545924	 0.6746415351	 0.144643
H	 0.3734072235	 1.9251230044	-1.0430795763	 0.144125
H	-0.9056795487	 1.9803189094	 0.1757500929	 0.144737
H	 0.437324633	-2.9418192126	-0.908952012	 0.099418
H	 1.6950465437	-3.4050719054	 1.0880075755	 0.099702
H	 0.556155032	-2.5001532847	 2.0860397637	 0.113796
H	 0.2605066792	-5.3771073408	 1.1316408514	 0.102
H	-0.2747462783	-4.6656135517	 2.644246321	 0.099278
H	-2.9890058533	-5.0305766966	 2.2634497808	 0.124344
H	-3.6054592112	-4.7153832403	 0.6296229889	 0.123096
H	-2.538360148	-6.0970135553	 0.9413212656	 0.123752
H	-2.2652331951	-2.7819294163	-0.5311540738	 0.091124
15.1372	63.6413	91.6912	157.0257	179.4587	211.7809	271.1137	319.3039	334.6315	432.2485	454.3445	517.6044	569.047	628.9357	805.6295	831.8818	855.5758	886.7885	912.5435	974.0532	1008.4345	1026.9638	1046.4361	1053.0556	1055.1088	1085.3751	1148.114	1175.7913	1191.78	1238.8866	1273.1379	1284.9337	1298.1046	1342.1786	1363.111	1413.251	1415.3501	1479.3055	1479.4413	1479.907	1483.7403	1488.422	1499.4619	1723.0033	2368.6157	2962.0303	2998.3705	3015.0912	3023.2299	3042.9754	3059.8677	3065.8786	3082.3354	3082.5273	3109.8404	3111.5934	3195.1146
CC#CC1CCC(C)=C1	CC#C[C@H]1CCC(=C1)C	
InChI=1S/C9H12/c1-3-4-9-6-5-8(2)7-9/h7,9H,5-6H2,1-2H3	InChI=1S/C9H12/c1-3-4-9-6-5-8(2)7-9/h7,9H,5-6H2,1-2H3/t9-/m0/s1
