17
gdb 107318	2.75261	1.6402	1.17694	4.1534	74.12	-0.2507	-0.0625	0.1882	1039.6353	0.137121	-421.842765	-421.835101	-421.834157	-421.874843	29.831	
O	 0.0461179198	 1.3543870928	 0.3301346791	-0.420186
C	 0.0524152641	-0.0008598755	-0.0675924252	-0.156581
C	-1.3447421984	-0.5821676405	-0.06521706	 0.193726
C	-1.9649555177	-1.1425293818	 1.202345207	-0.301134
C	-1.7188032912	-2.0392179582	 0.0000495019	-0.15675
C	-2.9030910745	-2.1899347039	-0.8978312368	-0.063494
C	-3.2747557415	-1.0230677489	-1.4487789293	-0.189216
C	-2.334700672	 0.0447593638	-1.0260081969	 0.35019
O	-2.3096237684	 1.2049291581	-1.3905109005	-0.363027
H	-0.5942467518	 1.7948840083	-0.2471587886	 0.297568
H	 0.4936384135	-0.1240180542	-1.0703284437	 0.092452
H	 0.6920131924	-0.5429273006	 0.6379869757	 0.101128
H	-1.2950988678	-1.2391389631	 2.0513745797	 0.131232
H	-2.9913444547	-0.8961627434	 1.4520397639	 0.129357
H	-0.9796550614	-2.8285880331	 0.0710622432	 0.107765
H	-3.4133308751	-3.1378257964	-1.0286141394	 0.124603
H	-4.1252131555	-0.8394020135	-2.0913492302	 0.122365
108.4912	146.817	211.0082	267.1622	324.1477	371.5708	450.7491	478.1307	561.5459	650.2894	690.9073	742.915	755.9486	839.5291	845.9435	879.7106	929.4393	971.5863	986.1431	1011.1759	1028.3035	1055.3309	1079.5692	1081.9222	1112.2997	1129.2966	1208.4575	1239.7536	1325.0801	1360.0488	1383.1129	1388.5713	1459.3235	1480.2221	1508.17	1623.2894	1781.3039	2968.7869	3059.8752	3126.3301	3181.8344	3198.0458	3219.4506	3235.6647	3732.0612
OCC12CC1C=CC2=O	OC[C@]12C[C@H]1C=CC2=O	
InChI=1S/C7H8O2/c8-4-7-3-5(7)1-2-6(7)9/h1-2,5,8H,3-4H2	InChI=1S/C7H8O2/c8-4-7-3-5(7)1-2-6(7)9/h1-2,5,8H,3-4H2/t5-,7-/m1/s1
