17
gdb 42426	4.63882	0.86039	0.78462	1.9259	77.24	-0.277	-0.0402	0.2368	1455.7882	0.134357	-421.808421	-421.799577	-421.798633	-421.843062	31.897	
O	 0.1316816733	 0.0087880325	-0.6072210935	-0.358037
C	-0.0039059149	 1.109729827	-0.1329534999	 0.289685
O	 1.0019340602	 1.9207140198	 0.237238815	-0.243417
C	 2.3263653178	 1.3991963864	 0.0500038884	 0.173421
C	 2.9631230091	 1.5165940545	-1.3518743517	-0.237939
C	 4.2761390549	 1.9602023665	-0.6448559275	-0.223121
C	 3.4331151906	 2.301991249	 0.6181758551	-0.258833
C	-1.2865758429	 1.7339410452	 0.114526811	 0.222516
C	-2.3772656965	 2.2033259053	 0.2974991132	-0.359112
H	 2.3585700974	 0.3759909995	 0.429857775	 0.107592
H	 2.9739885596	 0.6222803137	-1.9758742665	 0.117319
H	 2.5089613761	 2.3414863731	-1.907961008	 0.113554
H	 4.952043095	 1.119158168	-0.4713716431	 0.111564
H	 4.8416652797	 2.7732934522	-1.1022227224	 0.10822
H	 3.1090537162	 3.3460708057	 0.6130060994	 0.118926
H	 3.8362912852	 2.0566480945	 1.6025335432	 0.106026
H	-3.3419796408	 2.6186371672	 0.4600126825	 0.211636
48.1662	71.1341	108.795	166.1129	226.0793	279.7903	363.161	409.0152	508.0842	606.2261	656.522	666.4775	698.4233	772.4436	777.3144	787.1396	909.7734	913.0103	921.4282	954.6973	965.0013	1071.3118	1095.2577	1155.9756	1195.7201	1242.389	1247.871	1250.9612	1255.7232	1275.2981	1297.7742	1394.2794	1475.1005	1487.9993	1510.0668	1786.9823	2236.8308	3067.1653	3070.3669	3073.2285	3091.2536	3118.7753	3128.6258	3139.9277	3498.1272
O=C(OC1CCC1)C#C	O=C(OC1CCC1)C#C	
InChI=1S/C7H8O2/c1-2-7(8)9-6-4-3-5-6/h1,6H,3-5H2	InChI=1S/C7H8O2/c1-2-7(8)9-6-4-3-5-6/h1,6H,3-5H2
