13
gdb 57125	3.50533	0.78645	0.6773	4.4988	73.23	-0.2826	-0.0593	0.2233	1538.3081	0.088033	-452.756442	-452.747394	-452.746449	-452.791298	31.7	
N	-0.0768236536	 1.2686755156	 0.019548864	-0.513625
C	 0.0375232234	-0.0704310603	-0.0820536342	 0.400418
O	 1.070062517	-0.6688356233	-0.3122369001	-0.359093
C	-1.2816211222	-0.8957068892	 0.0502161987	-0.144916
O	-0.9674757767	-2.2539562811	-0.0070873058	-0.404725
C	-2.000531455	-0.5482670971	 1.2780960357	 0.157929
C	-2.6035332215	-0.2485637692	 2.2815600281	-0.027823
C	-3.280137088	 0.0965862937	 3.4162708889	 0.21519
N	-3.8546052808	 0.4008669596	 4.3788832779	-0.328403
H	 0.7607643182	 1.8276864583	-0.0180566386	 0.2811
H	-0.9257521184	 1.6958056557	 0.3506381227	 0.278449
H	-1.9195364838	-0.610111252	-0.8042499799	 0.139566
H	-8.0386*^-6	-2.2704736907	-0.1330441473	 0.305932
48.9321	69.6854	115.8611	201.0983	262.7609	317.1504	341.0867	414.6898	424.5706	464.115	518.6209	544.7331	573.1419	595.9552	637.681	680.3064	818.701	864.2191	1102.9798	1117.0636	1168.663	1227.5873	1340.0697	1366.6658	1443.9058	1624.1594	1811.8181	2262.1426	2397.8216	2958.7425	3594.8847	3608.3858	3723.8842
NC(=O)C(O)C#CC#N	NC(=O)[C@@H](O)C#CC#N	
InChI=1S/C5H4N2O2/c6-3-1-2-4(8)5(7)9/h4,8H,(H2,7,9)	InChI=1S/C5H4N2O2/c6-3-1-2-4(8)5(7)9/h4,8H,(H2,7,9)/t4-/m0/s1
