16
gdb 48605	2.55919	1.42952	1.0909	2.0384	77.27	-0.252	-0.0451	0.207	1113.4672	0.122949	-400.642303	-400.634168	-400.633224	-400.675475	30.397	
O	-0.6478660391	 0.833054152	 0.6409035302	-0.241206
C	 0.329691899	 0.7862185704	-0.0625037315	 0.029886
C	 1.4471010981	 1.7754209387	 0.0104850417	 0.250065
C	 1.8069753195	 2.7902116626	 1.123269771	-0.284349
C	 2.8956267875	 2.8856389199	 0.0198589689	-0.028844
N	 2.9086269444	 1.3713789487	-0.129546083	-0.348529
C	 1.7572337654	 2.9101211543	-1.0486871945	-0.220454
C	 2.0453398605	 2.5561617081	-2.418491428	 0.325968
C	 2.2446031874	 2.3170431785	-3.5795610305	-0.425234
H	 0.4668991096	 0.0004348143	-0.8363811493	 0.100171
H	 1.1428486994	 3.6440626506	 1.2813722003	 0.11054
H	 2.1296761836	 2.3458509571	 2.0674697212	 0.106407
H	 3.8160380835	 3.4692442266	 0.0089817448	 0.101179
H	 3.214942092	 0.955743436	 0.7565795807	 0.213311
H	 1.0832078104	 3.7666991229	-0.979509706	 0.114095
H	 2.4364097388	 2.0882799294	-4.5986623761	 0.196995
62.5136	112.0187	168.2814	205.2281	261.8306	398.8022	430.4495	500.9246	539.8872	628.2002	635.5959	643.5163	714.8203	756.9381	820.9514	889.5034	903.8498	941.7301	1007.4404	1015.9926	1053.7218	1068.1673	1097.4372	1129.3585	1171.126	1184.5061	1207.654	1267.2283	1294.1862	1314.4247	1376.6655	1408.6203	1511.7568	1818.8436	2238.1006	2905.8951	3056.5994	3091.4061	3120.5339	3129.3778	3380.7639	3503.3184
O=CC12CC(N1)C2C#C	O=C[C@@]12C[C@@H](N1)[C@H]2C#C	
InChI=1S/C7H7NO/c1-2-5-6-3-7(5,4-9)8-6/h1,4-6,8H,3H2	InChI=1S/C7H7NO/c1-2-5-6-3-7(5,4-9)8-6/h1,4-6,8H,3H2/t5-,6-,7-/m1/s1
