17
gdb 33020	4.71569	0.95347	0.85009	1.4461	77.88	-0.2477	-0.0388	0.2089	1374.1674	0.13734	-418.044038	-418.035761	-418.034816	-418.078806	29.122	
C	-0.0235035489	 1.3476436589	 0.0341736238	-0.220438
O	 0.0030383338	-0.0597048444	 0.0108479967	-0.239214
C	 0.6563033947	-0.5675556084	-1.1363244566	-0.131856
C	 0.6227816129	-2.0745274882	-1.0521577084	 0.352106
N	 1.6426911236	-2.6683316931	-0.4226763722	-0.269072
C	 1.5832314803	-3.9968563092	-0.3210535576	 0.008469
C	 0.5271120508	-4.7368177446	-0.8390094385	-0.127697
C	-0.4714603969	-4.0160363297	-1.4828594133	 0.00847
N	-0.4338376049	-2.6877149694	-1.5967986044	-0.269078
H	 0.9914367777	 1.7760566959	 0.0443570653	 0.104514
H	-0.5615687942	 1.7613156056	-0.8336426485	 0.104516
H	-0.5427847018	 1.6472381979	 0.9476495773	 0.127981
H	 0.1414801731	-0.2431161424	-2.052750284	 0.100022
H	 1.7022747244	-0.228547479	-1.1703982134	 0.100021
H	 2.4124630463	-4.4816155675	 0.1898833658	 0.119241
H	 0.4882962629	-5.8159929713	-0.7525499542	 0.112777
H	-1.3297795241	-4.5165499312	-1.9260845579	 0.11924
19.9573	84.2134	101.1285	232.1479	264.5903	340.8265	360.5228	412.5331	522.7506	644.2939	659.6421	815.7233	833.0757	888.4317	986.7297	1003.9446	1009.7492	1010.8955	1014.3874	1095.7858	1127.9065	1152.8457	1182.268	1222.4227	1232.7203	1257.6232	1301.063	1317.9399	1415.922	1468.4179	1471.8244	1482.3096	1484.7899	1497.8539	1518.7859	1603.4795	1617.6073	2967.431	2987.3529	3012.9039	3030.1912	3115.3191	3152.2331	3154.1877	3208.6337
COCC1=NC=CC=N1	COCc1ncccn1	
InChI=1S/C6H8N2O/c1-9-5-6-7-3-2-4-8-6/h2-4H,5H2,1H3	InChI=1S/C6H8N2O/c1-9-5-6-7-3-2-4-8-6/h2-4H,5H2,1H3
