17
gdb 48443	2.30179	1.57933	1.14193	3.2462	68.25	-0.2447	-0.0346	0.2101	1093.6298	0.133883	-458.91921	-458.910565	-458.909621	-458.953571	30.589	
O	-1.029568422	 1.1867975816	 1.1366901891	-0.247346
C	-0.2965264303	 1.0554933116	 0.1914233063	 0.116258
C	 1.0117425999	 1.8194548355	 0.003701676	 0.309667
C	 1.6801197194	 2.3066325811	 1.3035273724	-0.343781
C	 2.7214224109	 1.2097467473	 1.0063884378	-0.069995
O	 2.0576252815	 0.8430683243	-0.2327366611	-0.321234
C	 0.8682697329	 2.8322143115	-1.1111961604	 0.000511
C	 1.8798841891	 2.9690627334	-2.1647138848	-0.172407
O	 0.6371787887	 2.304739871	-2.4168061697	-0.2378
H	-0.5001400543	 0.335633983	-0.6280904939	 0.113539
H	 2.059333919	 3.3287259506	 1.2648415927	 0.116101
H	 1.0657858359	 2.169925178	 2.1932357451	 0.140791
H	 3.7443029719	 1.5547197663	 0.8236200273	 0.113559
H	 2.7432357706	 0.3708429277	 1.7099518575	 0.119338
H	 0.2504443449	 3.6935204468	-0.8483648889	 0.109978
H	 2.0038432559	 3.9292077689	-2.6627866481	 0.118095
H	 2.7493821061	 2.3181660914	-2.1414735173	 0.134725
55.6282	76.0056	103.1163	183.2062	235.4066	254.5658	333.8528	397.9845	449.5309	641.0271	679.1389	795.3337	829.7172	868.8944	881.9623	934.0796	962.6614	987.9897	1002.5422	1006.7896	1095.659	1105.2281	1158.4245	1161.5361	1167.7826	1201.41	1203.9247	1235.3972	1264.8954	1281.7066	1345.9229	1399.2503	1423.1927	1490.6829	1513.2871	1528.2912	1828.9889	2930.0021	3037.0654	3082.4036	3089.7873	3092.0773	3100.3129	3152.1937	3199.1558
O=CC1(CCO1)C1CO1	O=C[C@]1(CCO1)[C@H]1CO1	
InChI=1S/C6H8O3/c7-4-6(1-2-9-6)5-3-8-5/h4-5H,1-3H2	InChI=1S/C6H8O3/c7-4-6(1-2-9-6)5-3-8-5/h4-5H,1-3H2/t5-,6-/m1/s1
