17
gdb 38883	2.86368	2.20695	1.97962	1.7747	65.19	-0.2414	0.088	0.3294	791.6805	0.140465	-458.957331	-458.951766	-458.950822	-458.986939	24.476	
C	-0.0197805863	 1.6045490241	 0.024210263	-0.219052
C	 1.5166964111	 1.6186215408	-0.0046722621	 0.04952
O	 1.7898070248	 0.9757045706	 1.2538321539	-0.271189
C	 1.136039363	-0.2783564906	 1.0554241213	 0.171038
O	 2.0643254303	-1.1809106876	 0.5135921753	-0.245528
C	 2.7886994828	-0.5177662297	-0.5362506174	-0.072823
C	 1.8512413616	 0.5486133165	-1.1150290956	 0.020386
O	 0.6019642234	-0.1482147584	-1.2901719496	-0.26288
C	 0.0071128066	 0.0670469048	-0.0075529166	 0.029105
H	-0.3930037459	 2.0629383379	 0.9408589169	 0.111055
H	-0.5251186153	 2.0055719713	-0.8556704968	 0.110457
H	 2.056410869	 2.5621823622	-0.0600465474	 0.087809
H	 0.786309861	-0.6810621949	 2.0061081808	 0.095913
H	 3.7185429675	-0.0828752593	-0.1488981267	 0.103736
H	 3.0268139201	-1.2731521669	-1.2892091786	 0.115483
H	 2.1856383697	 0.962765607	-2.0678435615	 0.089097
H	-0.9176911634	-0.5010897378	 0.0736872911	 0.087872
310.6545	351.4446	417.1602	519.4026	558.2966	575.7085	657.8967	692.8373	781.8712	809.7081	863.7681	882.8996	909.4716	917.5781	931.3346	965.0284	970.5918	995.2313	1012.3024	1038.4883	1050.5835	1075.1413	1124.445	1142.5918	1201.5934	1222.8709	1255.404	1272.1837	1286.1434	1286.501	1300.377	1327.5685	1351.0897	1356.2045	1399.2295	1475.8496	1500.9014	3026.9405	3083.4058	3095.8683	3102.9325	3118.5978	3142.7917	3147.4684	3148.4813
C1C2OC3OCC2OC13	C1[C@H]2O[C@@H]3OC[C@H]2O[C@H]13	
InChI=1S/C6H8O3/c1-3-5-2-7-6(9-3)4(1)8-5/h3-6H,1-2H2	InChI=1S/C6H8O3/c1-3-5-2-7-6(9-3)4(1)8-5/h3-6H,1-2H2/t3-,4-,5-,6+/m1/s1
