18
gdb 36234	3.72775	0.97483	0.8544	2.9881	78.65	-0.2578	-0.0016	0.2562	1345.3202	0.148859	-401.971659	-401.963336	-401.962392	-402.00528	30.781	
N	-0.1494420292	-1.085743853	 0.5949951753	-0.313069
C	-0.1054898541	 0.0227944136	 0.2714600338	 0.26562
C	-0.0245703605	 1.4310212396	-0.1294183555	-0.430183
C	 1.3945476575	 1.9656352248	-0.1072602709	 0.318574
C	 1.9810223351	 2.4353485028	-1.206915179	-0.174196
C	 3.362595554	 3.0301258206	-1.1923860203	-0.116248
O	 3.8592187402	 3.2672887158	 0.1078858153	-0.244376
C	 3.6245202292	 2.1770937985	 0.9829313169	-0.085499
C	 2.1256870136	 1.9685033992	 1.2136443343	-0.307085
H	-0.4586469145	 1.5363219179	-1.1289066945	 0.154248
H	-0.6605341355	 2.0081582417	 0.5560826254	 0.157018
H	 1.476301702	 2.4047080659	-2.1698462443	 0.093352
H	 4.0498621931	 2.3751247133	-1.760267731	 0.103705
H	 3.3622658918	 4.0012713626	-1.7016717676	 0.122156
H	 4.0680475107	 1.2547060926	 0.5742041441	 0.097884
H	 4.1402653052	 2.4160019307	 1.9164502962	 0.112953
H	 1.7268480709	 2.7603566438	 1.8627654672	 0.117226
H	 1.9614721005	 1.0203590897	 1.7410482346	 0.127919
56.2484	88.689	161.887	258.1633	307.6762	317.3108	388.3306	396.8535	450.7915	540.249	581.6819	709.3971	802.8028	836.4656	869.5034	906.4324	939.8072	974.8134	996.4755	1031.3935	1041.1202	1094.1497	1152.3942	1171.2822	1215.4532	1232.4444	1260.3294	1306.9927	1319.3685	1342.672	1376.1933	1391.5449	1423.1456	1452.86	1471.1626	1485.0775	1502.1536	1745.3971	2359.8161	2931.6239	2977.6027	3013.7359	3020.7742	3050.667	3055.8364	3082.4896	3096.1924	3154.2534
N#CCC1=CCOCC1	N#CCC1=CCOCC1	
InChI=1S/C7H9NO/c8-4-1-7-2-5-9-6-3-7/h2H,1,3,5-6H2	InChI=1S/C7H9NO/c8-4-1-7-2-5-9-6-3-7/h2H,1,3,5-6H2
