18
gdb 81281	2.79189	1.62409	1.31384	3.8432	77.92	-0.2156	-0.0511	0.1645	1020.6846	0.148925	-401.935666	-401.928194	-401.92725	-401.967263	29.781	
C	-0.1597739143	 1.4264870495	-0.0098220331	-0.326453
N	 0.036366291	-0.0172352485	-0.000012458	-0.107746
C	 1.2251346986	-0.4937273413	-0.8111253171	-0.045074
C	 2.1389840007	-0.3206990211	 0.4399090296	-0.248847
C	 0.8000785923	-0.5214475229	 1.2030456662	-0.11141
C	 0.4768879504	-2.0186955498	 1.3044980443	 0.428447
O	 0.1565495652	-2.5664789557	 2.3359038809	-0.344829
C	 0.6296908727	-2.7131077038	-0.0021471467	-0.169565
C	 1.0173045463	-1.9722835181	-1.0492107484	-0.036642
H	 0.7425479202	 2.0293653831	 0.193588048	 0.094303
H	-0.5518575665	 1.7246659705	-0.987745448	 0.123952
H	-0.9122018327	 1.683038071	 0.7427667818	 0.13037
H	 1.4371346269	 0.0727927503	-1.7200168002	 0.074083
H	 2.9460620624	-1.0413021316	 0.5886078335	 0.113063
H	 2.5241208595	 0.6945715339	 0.5494266349	 0.114877
H	 0.6186242605	-0.0137835995	 2.1518202705	 0.085048
H	 0.4427564426	-3.7804089486	-0.0420173538	 0.112784
H	 1.1912546041	-2.3947024675	-2.0336581943	 0.113638
128.25	213.6199	223.2886	282.3993	345.2181	403.5024	428.442	474.5997	500.1931	651.0511	684.3627	759.1864	807.1888	826.0006	861.0911	907.2793	915.9399	941.9675	992.7329	1000.8825	1066.8164	1078.4493	1127.2884	1139.329	1166.8453	1171.5651	1194.3159	1228.157	1250.2776	1284.3302	1308.5501	1336.4359	1383.6177	1448.1541	1480.6938	1499.4651	1504.314	1657.2352	1801.8659	2950.7246	3061.1162	3069.8196	3092.9936	3101.7441	3107.2366	3128.2051	3178.4986	3205.2448
CN1C2CC1C(=O)C=C2	CN1[C@H]2C[C@@H]1C(=O)C=C2	
InChI=1S/C7H9NO/c1-8-5-2-3-7(9)6(8)4-5/h2-3,5-6H,4H2,1H3	InChI=1S/C7H9NO/c1-8-5-2-3-7(9)6(8)4-5/h2-3,5-6H,4H2,1H3/t5-,6-/m1/s1
