19
gdb 98298	3.05753	1.03634	0.89238	3.8182	73.13	-0.2422	0.0161	0.2583	1362.7725	0.159243	-456.345558	-456.335833	-456.334889	-456.381251	34.466	
C	-0.2024892272	 1.4411116866	 0.2410206356	-0.337904
N	-0.0731820353	-0.0048438387	 0.1917103074	-0.3097
C	 0.6033501094	-0.7173158622	 1.117998997	 0.409661
O	 1.1993672154	-0.2212456753	 2.0658695918	-0.398689
C	 0.6206078241	-2.2520345969	 0.9419945316	-0.022956
O	 1.4757644108	-2.7801392534	 1.9191194222	-0.434927
C	-0.7819449138	-2.8443183055	 1.0667564044	 0.000469
C	-0.9530374499	-4.2214134021	 1.5817037461	-0.240695
N	-1.3521980853	-3.0573070225	 2.3990284194	-0.315421
H	 0.371087811	 1.7925656024	 1.0986077253	 0.176378
H	 0.1939039874	 1.9015654616	-0.6697560116	 0.132804
H	-1.2486023054	 1.7412307977	 0.3628608181	 0.136689
H	-0.5347453467	-0.5042001773	-0.550970978	 0.254466
H	 1.0083665716	-2.4786081254	-0.0653296483	 0.091953
H	 1.770518554	-1.9987234928	 2.4238696522	 0.299131
H	-1.4951963608	-2.4732340554	 0.3314201766	 0.076605
H	-1.7747936494	-4.8348172876	 1.2236541297	 0.11368
H	-0.0549125103	-4.7579223352	 1.8695271488	 0.132967
H	-0.6106805195	-2.8911771678	 3.0786979818	 0.235489
56.9252	64.9058	82.8475	121.169	185.2336	239.3528	273.2563	349.9011	392.3511	445.1296	493.5641	575.8112	626.9318	660.8663	775.3131	815.6874	859.5646	902.3758	951.0247	993.0783	1022.1469	1053.8399	1104.8989	1135.1562	1153.9761	1159.7569	1174.1186	1203.9498	1246.3617	1276.42	1283.1524	1314.8192	1357.2158	1399.6432	1443.5495	1452.7636	1497.5591	1499.8035	1501.5659	1578.6988	1764.5836	2965.0933	3036.2141	3092.0271	3106.6287	3119.9527	3162.2096	3213.0839	3477.5782	3595.0878	3642.484
CNC(=O)C(O)C1CN1	CNC(=O)[C@@H](O)[C@H]1CN1	
InChI=1S/C5H10N2O2/c1-6-5(9)4(8)3-2-7-3/h3-4,7-8H,2H2,1H3,(H,6,9)	InChI=1S/C5H10N2O2/c1-6-5(9)4(8)3-2-7-3/h3-4,7-8H,2H2,1H3,(H,6,9)/t3-,4+/m1/s1
