16
gdb 71100	2.68444	1.58085	1.32968	2.5393	77.43	-0.2353	0.0207	0.256	1003.0864	0.123519	-400.646263	-400.638623	-400.637678	-400.678048	30.48	
O	 0.173993518	 1.4280457647	 0.1192697909	-0.458132
C	 0.0258458975	 0.0667423382	 0.0345890339	 0.318888
C	 0.4919287446	-0.7711912308	-1.1849996462	-0.318003
C	-0.5036245516	-1.8207470612	-0.6989400037	-0.084976
N	-0.5230624481	-1.8547668149	 0.8023448758	-0.179769
C	 0.4545001497	-0.7949293657	 1.2197593914	-0.182706
C	-1.3250448866	-0.8294688162	 0.0501274015	 0.250874
C	-2.7021884846	-0.5563555125	 0.1709012281	-0.01254
C	-3.867601256	-0.265954853	 0.2587907547	-0.360884
H	-0.0707787691	 1.8278783733	-0.7224198616	 0.291201
H	 0.1579779463	-0.3367719428	-2.1325891455	 0.105603
H	 1.5552591946	-1.026654591	-1.2418363271	 0.105618
H	-0.8399599166	-2.7169720756	-1.2027203614	 0.11572
H	 1.5005599961	-1.1174992513	 1.2691350908	 0.101748
H	 0.1344337537	-0.3859313295	 2.1801664956	 0.125203
H	-4.8975985979	-0.0234536816	 0.3451418027	 0.182154
120.0176	138.5104	279.9279	323.7928	355.0504	412.5368	429.0686	526.6857	540.3608	592.238	601.9545	642.452	650.5527	720.5776	758.8069	855.1185	894.7652	911.6093	945.9678	986.4513	1037.3749	1069.5526	1082.1397	1109.6295	1139.6416	1151.3171	1234.5066	1245.0763	1276.8759	1325.8417	1397.3693	1405.3297	1488.3819	1516.2715	2229.6628	3039.0296	3045.264	3098.1045	3121.8163	3211.6754	3501.6164	3805.8535
OC12CC3N(C1)C23C#C	O[C@@]12C[C@H]3N(C1)[C@@]23C#C	
InChI=1S/C7H7NO/c1-2-7-5-3-6(7,9)4-8(5)7/h1,5,9H,3-4H2	InChI=1S/C7H7NO/c1-2-7-5-3-6(7,9)4-8(5)7/h1,5,9H,3-4H2/t5-,6+,7-,8?/m1/s1
