16
gdb 123596	4.17506	1.64358	1.41741	0.5444	74.2	-0.2232	0.0268	0.25	907.425	0.129124	-396.869066	-396.862979	-396.862034	-396.899302	25.314	
C	-0.0199142925	 1.5137914858	-0.0681828919	-0.174517
C	 1.5402696678	 1.3387176818	-0.0307458335	-0.177986
C	 1.1583170787	 0.1658236511	 0.9412020273	-0.17452
N	-0.0991106221	-0.0212789493	 0.0666728015	-0.244657
C	 0.5848068327	-0.3557516523	-1.1783969357	 0.305705
C	 0.6270485673	-1.1493448838	-2.2872744817	-0.273433
N	 1.7303843427	-0.7075966761	-2.9843318704	-0.206673
N	 2.3970818321	 0.3263646518	-2.3824457236	-0.365897
C	 1.6844748549	 0.5183075426	-1.2946633408	 0.366252
H	-0.4359922448	 1.9857634363	 0.8259503542	 0.110044
H	-0.4802505137	 1.9118453095	-0.9742490737	 0.116337
H	 2.2384353172	 2.1352478784	 0.218014168	 0.084594
H	 1.8100840154	-0.708438539	 0.9878571105	 0.116344
H	 0.8671694746	 0.4948799894	 1.9423575832	 0.110051
H	 0.0183331865	-1.9583951558	-2.657067234	 0.137509
H	 2.0775257733	-1.0587658405	-3.8591436194	 0.270847
150.9434	311.1344	340.014	446.4501	505.3523	577.2672	630.0778	684.1205	705.4163	768.794	788.051	816.8824	828.0005	842.3073	907.3832	962.1637	999.0383	1022.3249	1024.7384	1040.4461	1093.5772	1101.5385	1142.9499	1171.8456	1199.5171	1234.2485	1244.4124	1283.9141	1297.69	1407.3927	1445.8454	1489.6897	1519.1977	1551.2341	1650.3655	3056.5346	3065.411	3132.2013	3136.2023	3143.1627	3267.2362	3693.657
C1C2CN1C1=CNN=C21	C1[C@H]2CN1c1c[nH]nc21	
InChI=1S/C6H7N3/c1-5-6(8-7-1)4-2-9(5)3-4/h1,4H,2-3H2,(H,7,8)	InChI=1S/C6H7N3/c1-5-6(8-7-1)4-2-9(5)3-4/h1,4H,2-3H2,(H,7,8)
