17
gdb 56773	2.70708	1.30374	1.10051	1.0988	72.21	-0.2667	0.0171	0.2838	1143.197	0.135882	-417.970199	-417.961579	-417.960635	-418.003911	31.703	
N	-0.1944846698	 1.4148425867	 0.111072931	-0.498407
C	 0.0929745986	-0.011459725	-0.0565462682	-0.264725
C	 0.7923732852	-0.3266032489	-1.3254652153	 0.254845
N	 1.3456222886	-0.5251026896	-2.321254978	-0.324685
C	 0.8950508303	-0.5283625702	 1.1102989893	 0.483952
C	 2.3252308891	-0.1502930091	 1.541907194	-0.310139
C	 2.4618318239	-1.5897251797	 2.1550806163	-0.235291
C	 1.0298103649	-1.8774990807	 1.6851884036	-0.049023
O	 0.1790763834	-0.8891694646	 2.2888276322	-0.28935
H	 0.667352896	 1.9501443488	 0.0520720792	 0.245718
H	-0.7890165388	 1.7401949814	-0.6453957522	 0.24779
H	-0.8603881086	-0.5509378033	-0.0542755178	 0.144791
H	 3.0034546338	 0.0079402332	 0.700322159	 0.126147
H	 2.3863360811	 0.691367365	 2.234620431	 0.118797
H	 3.2133297592	-2.1923782885	 1.6409848607	 0.118106
H	 2.6119388492	-1.6538611718	 3.2346500055	 0.119216
H	 0.5689285838	-2.8178486638	 1.4049587497	 0.112259
57.8902	103.3811	170.6249	206.5153	231.4814	275.5216	341.4838	412.7247	483.1544	516.0989	597.3371	696.9872	752.9924	778.9903	847.3691	892.5209	923.2841	932.8357	940.9096	971.5424	1009.7259	1059.0949	1077.7142	1145.5832	1161.3454	1216.313	1221.8301	1232.4146	1264.3245	1289.8155	1296.4415	1382.8466	1455.4045	1463.7896	1492.3451	1662.3512	2344.6362	3063.1318	3070.5989	3077.6783	3124.8247	3140.2942	3187.468	3495.7542	3575.8543
NC(C#N)C12CCC1O2	N[C@@H](C#N)[C@]12CC[C@H]1O2	
InChI=1S/C6H8N2O/c7-3-4(8)6-2-1-5(6)9-6/h4-5H,1-2,8H2	InChI=1S/C6H8N2O/c7-3-4(8)6-2-1-5(6)9-6/h4-5H,1-2,8H2/t4-,5+,6+/m0/s1
