20
gdb 106430	2.58619	1.30246	1.03801	4.146	84.05	-0.2966	0.0259	0.3225	1227.8471	0.171691	-365.989904	-365.981354	-365.980409	-366.023274	32.686	
C	 0.0335164964	 1.5243319326	 0.0003195078	-0.383189
C	-0.06588462	-0.0052773326	-0.0197710024	-0.315154
C	-1.4879174014	-0.5057929856	 0.0022775291	 0.356294
C	-2.5714103181	-0.3130917778	 1.1131853519	-0.271241
C	-3.2555112984	-1.1820667637	 0.0230436244	-0.050372
C	-2.6290418802	-0.2315743595	-1.0334957094	-0.276681
C	-1.9350650388	-2.018160496	-0.0167379921	-0.185896
C	-1.6338686806	-2.8205685356	-1.1908637836	 0.26341
N	-1.3797194813	-3.4649733683	-2.1173735114	-0.341511
H	 1.0784443992	 1.8465337087	-0.0189750461	 0.12021
H	-0.468233319	 1.9648337315	-0.8672541661	 0.12358
H	-0.4283162677	 1.941312891	 0.9013045861	 0.119821
H	 0.4310189353	-0.3992323152	-0.9152762291	 0.118123
H	 0.4712583755	-0.4242904295	 0.8410586554	 0.10289
H	-2.3778708974	-0.7872433009	 2.079760897	 0.095362
H	-2.9633421742	 0.6990618906	 1.2339789133	 0.101651
H	-4.2644629986	-1.5923176689	 0.0344540038	 0.091182
H	-3.0248824569	 0.786295089	-1.0559181064	 0.098865
H	-2.48887909	-0.6299494253	-2.0405718979	 0.123483
H	-1.7074880738	-2.5831285345	 0.8917918557	 0.109175
74.3321	114.7651	177.3971	199.0446	216.1298	323.9564	369.6908	447.6297	506.2094	552.1608	611.1893	636.3336	757.1366	792.4495	831.8092	873.7347	918.1687	934.0691	947.3533	984.2753	1017.5435	1034.9444	1054.1011	1064.6177	1097.3726	1110.6969	1137.8109	1160.7706	1186.1782	1219.9578	1224.3523	1233.6623	1302.7786	1309.4939	1364.271	1381.4928	1412.0264	1482.195	1499.8175	1501.1145	1506.9304	1542.5185	2347.5691	3020.8173	3037.5009	3052.5863	3055.2407	3066.1169	3072.5804	3106.0464	3112.0683	3122.3146	3125.732	3132.6595
CCC12CC(C1)C2C#N	CC[C@@]12C[C@@H](C1)[C@H]2C#N	
InChI=1S/C8H11N/c1-2-8-3-6(4-8)7(8)5-9/h6-7H,2-4H2,1H3	InChI=1S/C8H11N/c1-2-8-3-6(4-8)7(8)5-9/h6-7H,2-4H2,1H3/t6-,7-,8+/m1/s1
