19
gdb 117138	2.95425	0.82005	0.76063	2.8346	74.36	-0.254	-0.0345	0.2195	1600.5747	0.15562	-460.213419	-460.202766	-460.201822	-460.251281	35.846	
C	-0.527652321	 1.4363629057	-0.2774851101	-0.392087
C	 0.1063524715	 0.0966985092	 0.0401767632	-0.047545
O	 0.5990331913	-0.458532229	-1.2008897757	-0.241596
C	 1.1809664598	-1.6641377356	-1.1121709083	 0.430331
O	 1.3055042566	-2.2879844684	-0.0856629374	-0.369722
C	 1.6537653116	-2.1641017547	-2.466517046	-0.177426
C	 3.1777993809	-2.4190101209	-2.4248552155	-0.405288
C	 0.958285264	-3.4882037657	-2.775880976	 0.162671
O	 0.4920514968	-3.7647126109	-3.8483125737	-0.245226
H	 0.2020985471	 2.1195159369	-0.7208310294	 0.131818
H	-1.3593482604	 1.31870853	-0.9775546066	 0.134171
H	-0.9113225957	 1.8903051609	 0.6409112513	 0.126647
H	 0.9437677287	 0.1906834151	 0.73841333	 0.125244
H	-0.6089826387	-0.6055602104	 0.4785640626	 0.127508
H	 1.3992385776	-1.4502483532	-3.251114893	 0.115206
H	 3.4232428864	-3.1245095599	-1.6270080641	 0.148426
H	 3.518240974	-2.8258749119	-3.380423737	 0.137376
H	 3.7152845298	-1.4860204359	-2.2344897277	 0.134929
H	 0.9466617297	-4.2003452011	-1.9229027666	 0.104561
19.5662	56.1987	75.9867	122.7865	143.6727	216.3713	230.8691	263.8996	281.2238	291.5888	369.3245	436.5837	478.2873	731.2521	762.7531	808.6299	872.2706	890.5603	930.4144	960.1989	1049.0924	1078.4458	1090.2149	1135.4028	1148.2336	1182.0697	1201.1312	1290.5652	1294.2572	1349.6199	1394.0437	1404.0186	1411.793	1425.2164	1485.999	1493.9752	1496.0999	1500.6204	1518.7382	1799.4536	1839.9323	2910.1822	3047.7265	3048.0285	3055.8993	3094.701	3110.2898	3122.633	3123.7634	3129.1632	3135.6814
CCOC(=O)C(C)C=O	CCOC(=O)[C@@H](C)C=O	
InChI=1S/C6H10O3/c1-3-9-6(8)5(2)4-7/h4-5H,3H2,1-2H3	InChI=1S/C6H10O3/c1-3-9-6(8)5(2)4-7/h4-5H,3H2,1-2H3/t5-/m0/s1
