16
gdb 49704	2.42525	1.35917	1.01317	0.7647	74.28	-0.2462	-0.101	0.1452	1166.7292	0.123131	-437.880988	-437.871908	-437.870963	-437.915716	31.503	
O	 0.0683028265	 0.4213023053	-1.0824022417	-0.245463
C	-0.0862570785	 1.3205703733	-0.2877816097	 0.060203
C	 1.0328269071	 2.0590717166	 0.3082347601	 0.328341
C	 2.5414922509	 1.9411803948	 0.0752834854	-0.258257
C	 3.0798942493	 2.1919348496	-1.3329742681	-0.179453
N	 2.5059939936	 3.4110231822	-1.9065201866	-0.525857
H	 2.9443854874	 4.2297918005	-1.494158222	 0.237068
H	 2.7053358825	 3.4523417303	-2.9001299625	 0.23478
C	 1.0907659682	 3.0521315596	 1.2246241655	-0.338986
C	 2.581499746	 3.1311354382	 1.0967919444	 0.42361
O	 3.4487686434	 3.8366096099	 1.528375501	-0.307178
H	-1.0976988595	 1.6392925278	 0.0412860708	 0.090724
H	 2.9801283026	 1.0233636579	 0.4828744106	 0.108953
H	 4.1809350765	 2.1875279823	-1.2826874972	 0.101115
H	 2.781996869	 1.3475576651	-1.9631009888	 0.131411
H	 0.3470750451	 3.5887485766	 1.8015942888	 0.138989
58.6475	77.0161	139.8616	152.2623	175.752	219.1554	263.413	395.8739	442.2306	514.5959	548.0465	708.2474	723.8594	734.9156	849.3335	878.1098	903.9986	984.7453	1022.1544	1024.7223	1043.9679	1129.6006	1134.166	1160.0723	1222.5566	1299.3982	1306.6427	1365.2992	1408.8146	1420.3325	1496.6621	1631.9481	1661.9521	1781.2008	1870.3085	2912.8836	2969.7062	3054.5108	3075.8463	3210.2402	3497.0277	3578.0513
O=C[C-]1C2C[NH2+]C1C2=O	O=CC1=CC(=O)[C@@H]1CN	
InChI=1S/C6H6NO2/c8-2-4-3-1-7-5(4)6(3)9/h2-3,5,7H,1H2/q-1/p+1	InChI=1S/C6H7NO2/c7-2-5-4(3-8)1-6(5)9/h1,3,5H,2,7H2/t5-/m1/s1
