14
gdb 49279	2.11038	1.72099	1.06894	5.9917	70.19	-0.2771	-0.0856	0.1914	1081.8929	0.100342	-436.701917	-436.693888	-436.692944	-436.735283	28.051	
O	-0.1541973923	 0.0124253569	-0.261019893	-0.252961
C	-0.0761940531	 1.2035623107	-0.0662259172	 0.078992
C	 1.1997330744	 1.9194617841	 0.0137068261	 0.230322
C	 1.3989754558	 3.2296938412	 0.1720191607	-0.193646
C	 2.8657249096	 3.5289650533	 0.1639608414	-0.117844
O	 3.4955686161	 2.2924603449	-0.1739858187	-0.257505
C	 2.5499039923	 1.2304409366	-0.1008181926	-0.112524
C	 2.8278218505	 0.3638975135	 1.0661847943	 0.287671
N	 3.0594683691	-0.2951176522	 1.9858443656	-0.320974
H	-0.9789884003	 1.839139602	 0.0532490869	 0.089025
H	 0.6311467898	 3.9836053996	 0.2968199499	 0.14043
H	 3.1435922163	 4.2826374615	-0.5842379356	 0.137609
H	 3.2106963464	 3.8929077963	 1.1447792696	 0.13766
H	 2.6276409853	 0.6145033316	-1.0044704873	 0.153746
70.7481	112.0209	133.8774	193.6325	249.754	282.9074	413.1606	467.4356	560.5468	580.0527	716.3405	784.4292	822.3286	903.5537	929.273	961.3446	1000.8283	1031.6326	1042.9562	1099.8095	1197.2492	1211.0912	1259.2361	1334.4994	1347.675	1376.0647	1414.9723	1500.85	1696.1834	1787.7471	2360.9615	2910.0183	2986.506	3038.6828	3048.0384	3218.5824
O=CC1=CCOC1C#N	O=CC1=CCO[C@H]1C#N	
InChI=1S/C6H5NO2/c7-3-6-5(4-8)1-2-9-6/h1,4,6H,2H2	InChI=1S/C6H5NO2/c7-3-6-5(4-8)1-2-9-6/h1,4,6H,2H2/t6-/m0/s1
