15
gdb 26722	3.34723	1.209	0.8924	3.4833	72.56	-0.2056	-0.0312	0.1744	1214.8847	0.112817	-453.983438	-453.97458	-453.973635	-454.017154	31.73	
N	 0.1737083471	 1.4297250445	-0.0117726401	-0.61219
C	 0.0188708953	 0.0300094814	-0.0209374987	 0.196636
C	-1.0716700819	-0.8078962602	-0.0186651788	 0.159355
O	-2.3546933784	-0.3500227482	-0.005326995	-0.446004
C	-0.5987676205	-2.1637712801	-0.0323740159	 0.072848
C	-1.3781501773	-3.3825848685	-0.035308738	 0.06583
O	-0.932725264	-4.5124334986	-0.0471457189	-0.296381
C	 0.7944709716	-2.0920622012	-0.0427099593	-0.13743
N	 1.1425233209	-0.7912434891	-0.0357759	-0.256177
H	-0.2489025619	 1.8491875543	 0.8105164354	 0.249937
H	-0.2613561408	 1.8612605799	-0.8212208538	 0.249936
H	-2.9579947788	-1.0991979251	-0.0059301982	 0.302006
H	-2.4870109935	-3.2259567729	-0.0255273141	 0.025332
H	 1.515850407	-2.8918451512	-0.0542427769	 0.155434
H	 2.0781727954	-0.419534375	-0.0402652678	 0.270869
83.2382	111.5109	167.4278	199.5313	220.5311	265.6353	294.0687	345.7765	394.7833	528.2525	549.4291	657.6178	670.4724	710.6401	767.7323	775.2422	795.0054	832.706	1004.4673	1028.0154	1109.6798	1217.1935	1220.9413	1248.5249	1285.3146	1371.4069	1428.528	1471.5753	1497.8159	1529.877	1657.7672	1677.6792	1778.4709	2789.8243	3280.313	3496.8221	3556.4572	3665.4821	3835.1233
NC1=C(O)C(C=O)=CN1	Nc1c(O)c(C=O)c[nH]1	
InChI=1S/C5H6N2O2/c6-5-4(9)3(2-8)1-7-5/h1-2,7,9H,6H2	InChI=1S/C5H6N2O2/c6-5-4(9)3(2-8)1-7-5/h1-2,7,9H,6H2
