16
gdb 56443	2.41628	1.38068	1.01803	2.5125	70.86	-0.2663	-0.0254	0.2409	1172.8923	0.124206	-434.062116	-434.053034	-434.05209	-434.096573	31.947	
N	 0.065407511	 1.4838343633	 0.0041429376	-0.504047
C	-0.0306997321	 0.03550162	 0.055422761	-0.183335
C	 0.6349976628	-0.6618418821	-1.0681904085	 0.256658
N	 1.1580297983	-1.1826689078	-1.9592180177	-0.332078
C	 0.6267571899	-0.4577635433	 1.3722834985	 0.393358
O	 1.4684744864	 0.203176393	 1.9334638116	-0.331601
N	 0.1101022999	-1.634501132	 1.8608825212	-0.077035
C	 0.1189142825	-2.9483101044	 1.2359340559	-0.244287
C	 0.8818613043	-2.6709967475	 2.5007646846	-0.220889
H	 0.9688392118	 1.7542832625	 0.3842895488	 0.258452
H	-0.002776418	 1.8207519707	-0.9493809165	 0.246448
H	-1.0804803581	-0.2802857612	 0.0577009973	 0.145906
H	-0.8184514495	-3.4949805386	 1.2798424053	 0.138899
H	 0.6862900816	-3.0679342212	 0.3178266643	 0.165473
H	 1.9632234495	-2.5885745272	 2.4384877818	 0.149396
H	 0.4944620796	-3.0301694342	 3.4491797147	 0.13868
58.1282	86.7661	144.9193	179.6999	215.1045	247.7822	268.0474	321.1569	416.9996	446.8318	588.9381	605.3207	711.9826	808.1321	822.3563	858.7912	928.2419	953.5298	982.7164	1055.5841	1113.6065	1135.9385	1138.8306	1143.744	1173.2052	1177.7259	1219.8559	1314.3411	1370.118	1424.282	1497.2934	1525.0384	1631.7506	1803.9898	2336.049	3046.675	3120.1019	3123.4375	3207.7801	3220.1987	3499.7798	3595.5458
NC(C#N)C(=O)N1CC1	N[C@@H](C#N)C(=O)N1CC1	
InChI=1S/C5H7N3O/c6-3-4(7)5(9)8-1-2-8/h4H,1-2,7H2	InChI=1S/C5H7N3O/c6-3-4(7)5(9)8-1-2-8/h4H,1-2,7H2/t4-/m0/s1
