19
gdb 94785	2.83389	1.47979	1.10445	1.7391	76.79	-0.2367	-0.0219	0.2148	1138.9265	0.158663	-423.04297	-423.034431	-423.033487	-423.076164	32.418	
C	 0.0084921384	 1.5761785843	 0.003557889	-0.407809
C	 0.0677611646	 0.0528459159	-0.0034261692	-0.106651
C	 0.8329360666	-0.6197279586	-1.1523054014	-0.119228
O	 1.2381814555	-1.8994264862	-0.6496463893	-0.296571
C	 1.5424896573	-1.7266340538	 0.7084829514	 0.335521
C	 1.8165540923	-2.926489245	 1.5621846891	-0.319497
C	 2.9463525765	-1.9899711352	 1.2281183017	-0.315778
C	 0.7886529615	-0.5400291784	 1.2136456582	 0.322586
O	 0.7761858225	-0.1201437328	 2.3449130938	-0.339368
H	 1.0093614835	 2.0078900304	-0.1015471009	 0.122378
H	-0.6131135671	 1.9566167075	-0.8121360091	 0.118209
H	-0.407393989	 1.926553268	 0.9517922896	 0.143754
H	-0.9501484177	-0.3625094858	 0.0254912592	 0.114378
H	 0.234072035	-0.7949904602	-2.0480753664	 0.11681
H	 1.7142004345	-0.0192088687	-1.4291866133	 0.09747
H	 1.4128657616	-2.909309383	 2.5688044362	 0.137129
H	 1.7866016632	-3.8845944342	 1.055754805	 0.132703
H	 3.6682493752	-2.3143909743	 0.4874965169	 0.128827
H	 3.3174606656	-1.3299524397	 2.0044436097	 0.135136
66.8821	159.7945	192.8269	212.5708	222.2277	256.6584	356.2535	437.3688	470.0988	515.3215	616.2743	682.5528	735.8337	774.2889	837.5406	879.7752	903.9784	937.4192	947.2784	966.1636	1021.5583	1044.4759	1056.9299	1083.4523	1105.0245	1144.0971	1158.1943	1201.8834	1230.1545	1268.6115	1296.9328	1327.1324	1349.7178	1393.8985	1411.4092	1441.631	1476.6718	1496.1093	1497.5239	1516.6823	1837.3186	2979.0599	3011.8219	3040.5787	3106.7108	3110.3497	3123.8741	3136.4822	3137.4421	3226.758	3241.2786
CC1COC2(CC2)C1=O	C[C@H]1COC2(CC2)C1=O	
InChI=1S/C7H10O2/c1-5-4-9-7(2-3-7)6(5)8/h5H,2-4H2,1H3	InChI=1S/C7H10O2/c1-5-4-9-7(2-3-7)6(5)8/h5H,2-4H2,1H3/t5-/m0/s1
