17
gdb 83529	2.89533	1.78071	1.61847	1.9023	65.02	-0.2551	0.0719	0.327	884.6072	0.138532	-458.93339	-458.926886	-458.925942	-458.963883	27.311	
O	 0.0623770385	 1.3953869455	 0.0753011572	-0.467032
C	 0.0194188875	-0.008435298	 0.0363275726	 0.174641
C	-1.366492586	-0.6238079412	-0.3195954934	-0.146936
C	-1.5099742684	-0.0858843935	-1.7617431733	-0.098967
O	-0.1481240132	-0.0535700886	-2.2660260598	-0.301355
C	 0.6814824755	-0.6098053767	-1.2161956712	 0.000449
C	 0.3276904842	-2.0930054384	-1.1237219785	 0.034909
O	 0.1230841742	-2.5809499379	 0.2112267721	-0.255871
C	-1.012528437	-2.0992743273	-0.5161772275	 0.048139
H	 0.056452892	 1.7054782667	-0.8388301673	 0.292134
H	 0.4165877477	-0.384833487	 0.9753977727	 0.114123
H	-2.1929620484	-0.3855379486	 0.3486708653	 0.083132
H	-2.1225807351	-0.7306939327	-2.4013736306	 0.109051
H	-1.9238551048	 0.9276836007	-1.7869531331	 0.109432
H	 1.7158973537	-0.3371373184	-1.422141733	 0.085648
H	 0.6722004626	-2.8133246595	-1.8580977443	 0.110859
H	-1.7731325931	-2.8383803252	-0.750658358	 0.107643
230.8384	272.748	322.169	337.6663	394.7508	467.9325	506.1884	611.2312	644.4641	781.1353	810.683	840.4245	862.3402	891.8712	903.9323	921.8079	945.1246	975.4445	996.1242	1021.2623	1024.424	1061.8578	1112.4504	1128.3717	1168.8881	1214.2965	1228.1952	1245.8655	1267.7146	1289.7996	1296.3818	1319.2022	1328.1559	1371.0802	1411.1458	1438.5843	1523.5676	3034.8071	3075.7051	3128.4035	3131.1368	3156.4505	3158.0674	3177.5942	3778.2404
OC1C2COC1C1OC21	O[C@H]1[C@H]2CO[C@@H]1[C@H]1O[C@@H]21	
InChI=1S/C6H8O3/c7-3-2-1-8-5(3)6-4(2)9-6/h2-7H,1H2	InChI=1S/C6H8O3/c7-3-2-1-8-5(3)6-4(2)9-6/h2-7H,1H2/t2-,3+,4+,5+,6+/m1/s1
