21
gdb 98409	2.5333	1.21275	0.94858	3.2199	80.41	-0.235	-0.0197	0.2153	1330.9038	0.179795	-424.242994	-424.232981	-424.232037	-424.277962	37.41	
C	 0.0908077502	 1.5649453793	 0.0141039026	-0.378492
C	 0.3204911301	 0.0557578525	 0.01939908	-0.290853
C	 0.5279923815	-0.5307707757	-1.3672188837	 0.350848
O	 0.5256537034	 0.1978258038	-2.3538795848	-0.375212
C	 0.7612520993	-1.9939939549	-1.4951933426	 0.157527
C	 0.7844790387	-2.8677227557	-0.256669983	-0.486208
C	 0.2353928493	-2.620854754	-2.8015457767	-0.349761
C	 1.6952336256	-2.3836557169	-2.6812242677	 0.132301
O	 2.3636849013	-1.4397847387	-3.4275721026	-0.421356
H	 0.9423439238	 2.0876351438	-0.427994557	 0.133716
H	-0.7906926476	 1.8244351453	-0.5774259561	 0.131403
H	-0.0534796761	 1.9340348571	 1.0332910058	 0.109239
H	 1.1943806151	-0.2071920603	 0.630930526	 0.128492
H	-0.519400197	-0.4721868348	 0.4911128619	 0.124679
H	-0.1870669849	-2.8885867771	 0.2506278786	 0.122382
H	 1.0270110347	-3.8997142371	-0.5274566423	 0.119921
H	 1.53596636	-2.5386744657	 0.46850125	 0.125434
H	-0.1534625962	-3.6310151782	-2.7256547734	 0.116671
H	-0.3175736545	-1.9531034485	-3.4535394628	 0.133978
H	 2.3369169935	-3.2351532418	-2.4747100274	 0.110553
H	 1.7983993798	-0.6468726024	-3.4416290547	 0.304738
59.7597	73.2776	184.1103	192.4852	198.3373	234.3645	277.172	308.6878	326.867	403.1642	461.6207	482.9993	561.0869	574.6579	618.4075	712.013	744.804	815.58	827.0692	907.6569	952.7189	992.3545	1021.5897	1036.1485	1064.5062	1087.066	1100.379	1121.0072	1127.3953	1195.3957	1265.2608	1277.9558	1308.7851	1359.9825	1389.2686	1412.6716	1421.9217	1445.3011	1453.1599	1487.1594	1491.1005	1497.1188	1497.275	1500.5996	1724.7628	3020.3633	3028.1214	3047.5142	3052.5465	3088.3237	3102.6713	3123.6635	3128.3689	3130.0624	3159.4764	3225.3308	3619.2849
CCC(=O)C1(C)CC1O	CCC(=O)[C@@]1(C)C[C@H]1O	
InChI=1S/C7H12O2/c1-3-5(8)7(2)4-6(7)9/h6,9H,3-4H2,1-2H3	InChI=1S/C7H12O2/c1-3-5(8)7(2)4-6(7)9/h6,9H,3-4H2,1-2H3/t6-,7-/m1/s1
