19
gdb 64300	2.3446	1.51834	1.14813	1.1778	86.42	-0.2324	-0.0208	0.2116	1140.1678	0.157449	-385.881591	-385.872355	-385.871411	-385.915133	35.552	
C	 0.3269499591	 1.5170404972	-0.1125960519	-0.436193
C	-0.030668501	 0.0340650454	 0.0523138503	 0.274288
O	-1.4376329731	-0.1140412025	 0.2146717485	-0.468286
C	 0.4056521568	-0.8398916643	-1.1477569972	-0.249712
C	 1.7198195586	-1.5376593058	-0.7236141643	-0.261584
C	 1.6947243287	-1.4411765229	 0.7783127277	-0.189489
C	 0.7514081947	-0.5969867691	 1.2151134185	 0.173389
C	 0.4450107497	-0.2417003548	 2.5492982531	 0.217185
C	 0.1083861696	 0.1133077412	 3.6520894944	-0.437836
H	 1.390176458	 1.6461457044	-0.3400498537	 0.115412
H	-0.2637143593	 1.9503072491	-0.9251530756	 0.122456
H	 0.11254496	 2.0712572761	 0.8077342447	 0.116595
H	-1.6833721585	 0.3286479518	 1.035843858	 0.278803
H	-0.3807546206	-1.5821434531	-1.3049944502	 0.123516
H	 0.5071845958	-0.2586231344	-2.0673559474	 0.099099
H	 1.781699731	-2.5734539466	-1.0760258207	 0.112006
H	 2.6059446496	-1.0278651702	-1.1278834097	 0.114047
H	 2.3842403451	-1.978558532	 1.4195615683	 0.101443
H	-0.1589860043	 0.4046785704	 4.6376147473	 0.194858
77.4914	128.6968	147.3787	244.404	272.4966	297.1093	337.914	361.1107	385.4364	429.7819	518.8474	573.3154	584.1264	644.4761	651.8064	670.1711	717.3389	806.0473	878.4473	918.494	935.5935	960.106	982.5212	1021.3705	1095.0237	1105.0401	1139.7703	1206.9176	1213.7626	1245.6429	1291.7432	1314.9824	1342.5927	1377.6315	1400.7132	1478.4508	1487.3281	1494.9793	1497.7406	1682.2389	2212.7434	3008.012	3030.1016	3053.8682	3070.1429	3100.2868	3113.5857	3117.5472	3198.4215	3500.8566	3787.384
CC1(O)CCC=C1C#C	C[C@@]1(O)CCC=C1C#C	
InChI=1S/C8H10O/c1-3-7-5-4-6-8(7,2)9/h1,5,9H,4,6H2,2H3	InChI=1S/C8H10O/c1-3-7-5-4-6-8(7,2)9/h1,5,9H,4,6H2,2H3/t8-/m1/s1
