15
gdb 26838	3.61439	1.08056	0.8337	4.5901	79.39	-0.1899	-0.0327	0.1573	1285.7018	0.112664	-453.987763	-453.978943	-453.977998	-454.021146	32.008	
N	 0.1145483322	 1.3998125584	-0.1487655006	-0.611731
C	-0.0075046334	 0.0116481618	-0.0689169808	 0.263755
C	-1.1497523153	-0.788809335	-0.0952179896	 0.280246
O	-2.400733359	-0.237177688	-0.1216311995	-0.461459
C	-0.7434925765	-2.130364343	-0.0700169449	-0.353276
C	 0.6496814881	-2.1424304806	-0.0216746527	 0.237999
N	 1.0675806885	-0.8195853105	-0.0236871428	-0.361422
C	 1.5815188858	-3.2359514282	 0.0350728398	 0.06326
O	 1.2880015415	-4.4171754859	 0.021343748	-0.30345
H	 0.5532867696	 1.8149171658	 0.6672019062	 0.252349
H	-0.7974389199	 1.8221033951	-0.2763372143	 0.265662
H	-3.046711926	-0.9364996092	-0.2549784496	 0.303669
H	-1.3634005114	-3.0138837098	-0.0610896401	 0.122423
H	 2.0253518864	-0.5162890934	-0.0853654367	 0.266229
H	 2.6499528994	-2.9113709175	 0.0946542377	 0.035747
119.2898	157.6228	162.812	178.9022	220.8439	256.6145	289.6115	377.3491	429.6498	444.2823	514.5166	638.4853	648.3412	678.2032	734.2431	799.6052	821.7422	840.7168	1011.6037	1012.3903	1114.9133	1137.1616	1189.0107	1235.0374	1310.3401	1394.2268	1415.5258	1466.9843	1512.9802	1573.5889	1644.2204	1669.3317	1764.1373	2817.5694	3252.2633	3504.0232	3603.822	3663.3568	3848.5511
NC1=C(O)C=C(N1)C=O	Nc1c(O)cc([nH]1)C=O	
InChI=1S/C5H6N2O2/c6-5-4(9)1-3(2-8)7-5/h1-2,7,9H,6H2	InChI=1S/C5H6N2O2/c6-5-4(9)1-3(2-8)7-5/h1-2,7,9H,6H2
