21
gdb 115806	3.94502	1.06655	0.94455	2.6469	78.98	-0.245	0.083	0.328	1327.5099	0.181715	-424.219024	-424.209916	-424.208972	-424.252744	34.334	
C	 0.1016078184	 1.306971352	 0.1882354313	-0.233753
O	-0.1705732663	-0.0452948196	-0.0981036378	-0.249251
C	 0.5564615498	-0.555781226	-1.1932240824	 0.145655
C	 2.0695182556	-0.7789174026	-0.9346351384	-0.259756
C	 2.4655890781	-1.9479067559	-1.8631679637	-0.28347
C	 1.1872106538	-2.7671522219	-2.0012180101	 0.41726
C	 1.0976851576	-3.8944542166	-2.9918052155	-0.485185
O	 0.555111157	-2.9829202367	-0.7263448468	-0.294864
C	 0.0554470562	-1.934493183	-1.569255082	-0.051289
H	 1.1389993806	 1.4647510649	 0.5178274149	 0.107743
H	-0.0835899079	 1.9528049895	-0.6855775992	 0.100005
H	-0.5700070252	 1.6077468841	 0.9959935913	 0.12806
H	 0.4151786907	 0.1060767297	-2.0681589632	 0.05918
H	 2.6697400088	 0.1168505964	-1.1078045594	 0.095371
H	 2.1836172151	-1.0734137775	 0.1111383423	 0.128341
H	 2.7674235537	-1.5864719626	-2.8540535207	 0.100525
H	 3.2972150331	-2.5398907011	-1.4665583701	 0.10733
H	 1.8312546818	-4.673368502	-2.7556463448	 0.127251
H	 0.1035141801	-4.3475008308	-2.9726064016	 0.131183
H	 1.3034208223	-3.5386630977	-4.0070201887	 0.11987
H	-0.9605115531	-2.0670191926	-1.9328465854	 0.089794
82.2247	119.5653	186.8978	192.2707	213.8229	239.6156	319.9073	348.6868	409.1607	439.8792	511.7922	578.612	678.6116	705.1879	851.8893	853.7232	868.3	924.5358	973.1935	992.4215	1002.9078	1022.1435	1078.5221	1088.206	1117.8309	1155.9891	1181.3619	1191.6915	1218.1519	1227.7303	1245.2628	1295.995	1313.5692	1339.769	1343.7403	1391.6665	1412.0398	1457.3062	1478.3258	1480.5388	1486.9959	1489.4346	1495.1661	1503.4299	1509.9926	2929.6119	2971.2314	3022.7873	3031.0996	3036.12	3071.0683	3078.1836	3095.5879	3113.584	3123.4375	3124.3392	3148.4561
COC1CCC2(C)OC12	CO[C@H]1CC[C@@]2(C)O[C@@H]12	
InChI=1S/C7H12O2/c1-7-4-3-5(8-2)6(7)9-7/h5-6H,3-4H2,1-2H3	InChI=1S/C7H12O2/c1-7-4-3-5(8-2)6(7)9-7/h5-6H,3-4H2,1-2H3/t5-,6-,7+/m0/s1
