18
gdb 47876	2.243	1.6806	1.1046	4.807	72.23	-0.2271	-0.0592	0.1679	1107.8777	0.148523	-439.10162	-439.093149	-439.092205	-439.135387	31.268	
O	-0.07050487	-0.0105760409	 0.0223560216	-0.28815
C	-0.0606604148	 1.1955530823	 0.047129856	 0.298378
C	-1.3038965584	 2.0538478296	 0.1518812716	-0.295606
C	-1.8212831285	 2.4678860143	-1.2457989895	-0.179866
C	-0.7049786347	 2.9571226322	-2.1896463707	-0.179438
N	 0.3076123956	 3.7488560581	-1.4834612567	-0.297865
C	 1.5063780543	 3.0086488759	-1.106240114	-0.27892
C	 1.2984692052	 1.9442923854	-0.0286594534	 0.33091
O	 2.1818422686	 1.6342611635	 0.7318799809	-0.283616
H	-2.0701528801	 1.4842055149	 0.68369607	 0.125967
H	-1.0664329346	 2.9576261185	 0.7217487772	 0.12682
H	-2.3331392822	 1.6186844803	-1.7107238277	 0.11694
H	-2.5636874842	 3.2600416837	-1.10730269	 0.110279
H	-0.2428916892	 2.0912217251	-2.6943469423	 0.101204
H	-1.1510376086	 3.5689898169	-2.9793934248	 0.106825
H	 0.5836517926	 4.5455125983	-2.0414496532	 0.232291
H	 1.9651049042	 2.4654746968	-1.9586570372	 0.118122
H	 2.2627466248	 3.6991020053	-0.7237865078	 0.135725
43.2496	101.0115	160.0456	244.2047	295.2521	305.6672	338.2522	404.248	499.121	514.3495	621.165	659.9424	720.3079	766.051	834.1837	844.5156	915.2292	951.9039	993.4951	1052.1904	1064.1627	1101.4723	1159.1398	1182.0049	1221.4736	1244.0521	1271.3532	1303.934	1328.5701	1349.6517	1375.4414	1411.4184	1458.7196	1470.9137	1481.0391	1488.0058	1504.0443	1808.2211	1811.7144	2893.2201	2955.6976	3044.608	3054.5358	3074.2194	3092.0116	3096.0289	3116.5924	3567.4702
O=C1CCCNCC1=O	O=C1CCCNCC1=O	
InChI=1S/C6H9NO2/c8-5-2-1-3-7-4-6(5)9/h7H,1-4H2	InChI=1S/C6H9NO2/c8-5-2-1-3-7-4-6(5)9/h7H,1-4H2
