17
gdb 117311	4.68224	0.7475	0.65361	5.2616	68.25	-0.2589	0.0143	0.2732	1683.4001	0.134812	-492.364198	-492.354192	-492.353248	-492.400613	34.499	
C	 0.0164526659	 1.5293282124	 0.3070369522	-0.393142
C	 0.0461288018	 0.0431203635	 0.0074902196	-0.038013
O	 0.6364862428	-0.6166820858	 1.1442635856	-0.286725
C	 0.7459937822	-1.9638338442	 1.0298771108	 0.544133
O	 0.3915430872	-2.6102897925	 0.0847608762	-0.359972
N	 1.3572782027	-2.4288033314	 2.1879638935	-0.450304
C	 1.5107804067	-3.7762873391	 2.5572555823	 0.468602
N	 2.2587226921	-3.8963150197	 3.720084385	-0.568325
O	 1.0169281732	-4.7096687774	 1.9791369512	-0.333231
H	 1.0265004121	 1.9166624499	 0.4684079109	 0.127737
H	-0.4277142732	 2.0669172651	-0.535747639	 0.126567
H	-0.5796040227	 1.7367508704	 1.2002306782	 0.129717
H	-0.9571433749	-0.3621144994	-0.1555500432	 0.12768
H	 0.6404210788	-0.1839662997	-0.8829614019	 0.125496
H	 1.5830339526	-1.7174937794	 2.8656653288	 0.259504
H	 3.0008464548	-3.2329131199	 3.8848056939	 0.252333
H	 2.5047170079	-4.8534650629	 3.9233421961	 0.267941
41.0312	64.128	77.5189	119.4464	154.3906	235.5742	261.6078	339.9992	392.3032	403.6026	436.0466	546.6676	560.5676	613.8033	753.8641	785.1748	797.2958	810.2301	884.4517	961.8464	1031.2001	1099.3119	1130.0481	1137.9454	1185.497	1198.8231	1292.9641	1331.9405	1397.1775	1421.8397	1486.4105	1497.7907	1513.1752	1530.7108	1627.8937	1821.8167	1890.1956	3046.7395	3054.6438	3092.7404	3122.177	3126.3792	3574.4084	3634.0077	3690.094
CCOC(=O)NC(N)=O	CCOC(=O)NC(=O)N	
InChI=1S/C4H8N2O3/c1-2-9-4(8)6-3(5)7/h2H2,1H3,(H3,5,6,7,8)	InChI=1S/C4H8N2O3/c1-2-9-4(8)6-3(5)7/h2H2,1H3,(H3,5,6,7,8)
