19
gdb 43371	2.96162	1.32257	0.96858	3.3203	81.65	-0.2301	-0.0426	0.1874	1222.1124	0.1601	-385.91357	-385.905366	-385.904422	-385.947391	30.977	
O	 0.3060578701	 0.0569274613	-0.0103874397	-0.336302
C	 0.0970264608	 1.2478493869	 0.0091867934	 0.37605
C	-1.216689932	 1.9275497653	-0.0527936501	-0.173742
C	-1.0560388157	 3.2544286412	 0.0075859993	-0.049053
C	 0.3868330576	 3.6752534616	 0.1252228	-0.293851
C	 1.1824692609	 2.3489427918	 0.1021597169	-0.123788
C	 2.1031744058	 2.1408615554	 1.286061847	 0.039243
C	 3.2225006789	 1.139175681	 1.2103809936	-0.254636
C	 3.5368307702	 2.6148469005	 1.241627006	-0.287492
H	-2.1491371612	 1.3833375399	-0.1313252029	 0.115208
H	-1.8613714621	 3.9816563623	-0.0180362371	 0.114214
H	 0.6674018053	 4.3538547378	-0.6892301285	 0.118971
H	 0.5547444522	 4.2362265035	 1.0534265457	 0.121682
H	 1.7786285688	 2.277766118	-0.8158254884	 0.096441
H	 1.6040966233	 2.2248958879	 2.2490733057	 0.082509
H	 3.4388714463	 0.5457937847	 2.0912607763	 0.113258
H	 3.3547942573	 0.6050923319	 0.2766301307	 0.12346
H	 3.8895348451	 3.0798760814	 0.3265107075	 0.107696
H	 3.9688941283	 3.0331240078	 2.1440040548	 0.110132
44.0128	67.5112	153.334	244.8532	291.044	338.85	391.1604	508.3369	611.531	653.7403	752.3538	763.3799	792.2876	823.6818	833.6881	872.1795	919.4048	958.7781	962.4361	987.9503	1010.3189	1055.3993	1057.3065	1073.3257	1112.1037	1134.9035	1137.3208	1175.066	1193.6853	1206.1902	1232.7617	1247.4412	1285.9665	1321.6855	1364.3987	1412.8033	1471.8259	1474.4539	1507.1986	1650.8482	1810.671	3027.8345	3034.1892	3057.8591	3126.7768	3129.6039	3144.1774	3184.886	3209.3013	3225.6483	3229.3295
O=C1C=CCC1C1CC1	O=C1C=CC[C@H]1C1CC1	
InChI=1S/C8H10O/c9-8-3-1-2-7(8)6-4-5-6/h1,3,6-7H,2,4-5H2	InChI=1S/C8H10O/c9-8-3-1-2-7(8)6-4-5-6/h1,3,6-7H,2,4-5H2/t7-/m0/s1
