23
gdb 122356	3.09825	0.95573	0.84622	2.978	83.18	-0.2366	0.0776	0.3142	1493.1633	0.204442	-425.403586	-425.393112	-425.392168	-425.439372	38.117	
C	-0.612752605	 0.8229935375	 1.1355611069	-0.234286
O	-0.7477052601	-0.5141136489	 0.7090069302	-0.22976
C	-1.3365836053	-0.642033201	-0.5781377548	-0.052327
C	-1.4989138764	-2.1220711966	-0.9154749936	-0.253635
C	-2.5295149379	-2.8239689925	-0.0513064804	-0.056239
C	-2.440808856	-4.3040596908	 0.2989519565	-0.05886
C	-1.3179104681	-5.1959542221	-0.1855296596	-0.403706
C	-2.1910035178	-3.2585144284	 1.3588502584	 0.093312
O	-0.8846606497	-3.1027820896	 1.8181568817	-0.432379
H	-0.1495190831	 0.8074233037	 2.1245896312	 0.133893
H	 0.0262059177	 1.4004221816	 0.4506378333	 0.111945
H	-1.5893278253	 1.3254025931	 1.2050628668	 0.111907
H	-2.313914789	-0.1311236181	-0.5904316347	 0.088657
H	-0.6959164595	-0.1450997124	-1.3243788629	 0.089263
H	-1.7896409682	-2.1938992458	-1.9711017779	 0.100341
H	-0.5202871556	-2.6009402199	-0.8273814576	 0.119801
H	-3.5387986575	-2.4413222447	-0.1921854662	 0.072939
H	-3.4044203305	-4.8031249578	 0.3654692628	 0.077354
H	-0.3433999443	-4.7428122575	 0.0047307774	 0.1357
H	-1.3388104468	-6.1517447874	 0.3489456264	 0.113879
H	-1.4035205846	-5.4130959757	-1.2561273731	 0.105534
H	-2.9569475066	-3.1228779461	 2.1237015379	 0.071443
H	-0.6576431805	-2.1698637304	 1.6831571311	 0.295225
60.9537	81.5423	128.9219	138.1351	177.7258	224.9397	229.0892	242.3361	292.6851	319.3528	433.5942	523.6713	557.8285	594.0113	621.544	758.1926	778.0196	842.9048	869.4697	960.425	971.3363	997.3708	1029.5579	1059.2496	1089.6186	1116.1433	1149.8953	1155.0142	1166.0493	1184.582	1190.0572	1216.1788	1250.4777	1267.118	1289.9952	1338.9634	1371.0709	1384.8419	1410.5318	1418.7127	1420.2752	1453.7662	1470.5822	1483.2005	1486.1884	1495.9821	1503.025	1506.3078	1526.7359	2961.1355	2983.2876	2994.1706	3031.2188	3032.7505	3036.5625	3080.412	3087.5275	3097.8552	3117.2606	3121.541	3126.8531	3141.5282	3689.2433
COCCC1C(C)C1O	COCC[C@H]1[C@@H](C)[C@H]1O	
InChI=1S/C7H14O2/c1-5-6(7(5)8)3-4-9-2/h5-8H,3-4H2,1-2H3	InChI=1S/C7H14O2/c1-5-6(7(5)8)3-4-9-2/h5-8H,3-4H2,1-2H3/t5-,6+,7-/m1/s1
