20
gdb 116112	2.47185	1.24922	0.87428	4.8151	76.46	-0.2306	0.0368	0.2674	1324.3649	0.172844	-440.335319	-440.32643	-440.325485	-440.369196	33.399	
O	-0.0906639572	 1.4240130131	 0.1263839683	-0.426372
C	 0.022666077	 0.016610782	-0.0334754374	-0.090191
C	-1.3903107017	-0.5585754113	 0.0053951255	 0.06303
C	-1.4078556482	-2.0731747228	-0.1981976217	-0.210042
C	-2.805871128	-2.6262197651	 0.0903443409	-0.227772
C	-3.1930781839	-2.3387469353	 1.544844812	-0.297027
C	-2.9295411151	-0.9051309182	 1.9995074722	 0.389116
O	-3.472343596	-0.4313587308	 2.9811307328	-0.379613
N	-2.009006778	-0.1994905449	 1.2749961037	-0.310945
H	 0.7846738488	 1.7886702913	 0.2830669343	 0.294953
H	 0.4942295182	-0.2415903491	-0.9942240018	 0.091812
H	 0.6172998421	-0.4319175718	 0.7762677367	 0.09632
H	-1.9487120165	-0.0878813089	-0.820688404	 0.090181
H	-1.0963462351	-2.2996938909	-1.2229183063	 0.102694
H	-0.6800984658	-2.5440145151	 0.4763477594	 0.10141
H	-3.5283279152	-2.1564378005	-0.589377767	 0.106671
H	-2.8445734235	-3.7023493071	-0.106913393	 0.100835
H	-4.2474359709	-2.5464555535	 1.7423811506	 0.127755
H	-2.620399658	-2.9873456575	 2.2207763886	 0.126183
H	-1.870757203	 0.7559457361	 1.5753525463	 0.251001
90.5821	99.7544	128.8167	197.8523	246.1969	276.862	369.8488	433.3318	443.4588	486.0836	530.5189	559.7404	643.0474	697.9352	766.7004	865.7731	903.6149	914.5648	963.6293	991.2917	1049.3517	1071.0872	1088.9775	1103.2246	1162.3286	1175.9765	1200.687	1254.825	1266.7877	1280.0165	1321.7419	1334.3612	1358.5575	1378.7571	1381.1743	1409.8941	1453.6758	1459.5277	1480.1085	1487.1714	1500.1413	1511.6082	1784.9834	2962.6344	2977.8038	3018.0167	3022.8819	3027.5446	3034.5648	3075.5088	3080.9418	3105.4507	3599.2918	3840.6861
OCC1CCCC(=O)N1	OC[C@H]1CCCC(=O)N1	
InChI=1S/C6H11NO2/c8-4-5-2-1-3-6(9)7-5/h5,8H,1-4H2,(H,7,9)	InChI=1S/C6H11NO2/c8-4-5-2-1-3-6(9)7-5/h5,8H,1-4H2,(H,7,9)/t5-/m1/s1
