19
gdb 57083	2.4128	1.40581	1.18109	4.3078	79.47	-0.245	0.0033	0.2483	1137.2996	0.160896	-382.087054	-382.078186	-382.077242	-382.121027	32.847	
N	-0.2113755831	 1.4407969166	 0.1873973143	-0.510529
C	-0.0542243014	 0.0003323122	-0.0275117645	-0.132456
C	-1.3853596018	-0.6302958612	-0.0102415816	 0.308652
N	-2.4192651871	-1.145942918	-0.0176203363	-0.333244
C	 0.7444921198	-0.4222271879	-1.3020872945	-0.044458
C	 0.8723177248	-1.9638790915	-1.4796623054	-0.240843
C	-0.0388867336	-2.3403218159	-2.6796513114	-0.251149
C	-0.336405311	-1.0092081258	-3.3219382547	-0.042033
C	 0.091754166	 0.0191734659	-2.5926730036	-0.082415
H	 0.7064052875	 1.8760804375	 0.2054400592	 0.23523
H	-0.7214025451	 1.8542421818	-0.5876106675	 0.241763
H	 0.4869915269	-0.3964164217	 0.8416856313	 0.131415
H	 1.7318050245	 0.0416991327	-1.1725854686	 0.074655
H	 1.9115873131	-2.216693557	-1.7053423175	 0.107073
H	 0.6026366669	-2.5074743647	-0.5697199592	 0.110943
H	 0.4538721983	-3.0356135363	-3.3686944325	 0.105005
H	-0.9666292158	-2.8279076165	-2.3567865601	 0.134036
H	-0.8624100798	-0.9237655281	-4.2666360329	 0.100199
H	-0.025758379	 1.0636560778	-2.8599672747	 0.088157
69.8916	75.2601	146.2334	191.8722	238.1057	273.9094	307.8117	380.8192	445.3582	592.1714	616.9555	712.6019	730.5014	764.8689	801.8598	836.7542	881.0828	913.3533	924.0071	966.7968	982.5114	1013.447	1056.0571	1071.9081	1120.7239	1138.4445	1185.0645	1195.2222	1228.2887	1261.5357	1276.7291	1315.0851	1329.2973	1347.971	1390.2672	1418.3485	1478.466	1498.3714	1655.1412	1687.4429	2359.8605	3004.7508	3027.8114	3033.6308	3057.9251	3064.1912	3101.4432	3180.3434	3205.8962	3491.7023	3577.1058
NC(C#N)C1CCC=C1	N[C@@H](C#N)[C@H]1CCC=C1	
InChI=1S/C7H10N2/c8-5-7(9)6-3-1-2-4-6/h1,3,6-7H,2,4,9H2	InChI=1S/C7H10N2/c8-5-7(9)6-3-1-2-4-6/h1,3,6-7H,2,4,9H2/t6-,7+/m1/s1
