17
gdb 74380	3.16492	1.18874	0.91741	2.8109	70.88	-0.226	-0.0179	0.2082	1232.5492	0.136732	-455.177967	-455.169545	-455.168601	-455.211508	31.172	
N	 0.0993417892	 1.4039356711	-0.4494373234	-0.553096
C	-0.0409940878	 0.0543684515	-0.2199646651	 0.462981
N	-1.1866967878	-0.4977331144	-0.1457842123	-0.372336
C	-1.2540236248	-1.9296216164	 0.0884891343	-0.050063
C	 0.0351066743	-2.5215480638	 0.6623059193	-0.228274
C	 1.2064426493	-1.9603215259	-0.1280656106	-0.090255
O	 1.1856498438	-0.5241696859	-0.1349622935	-0.259725
C	-2.4663863346	-2.2020742564	 0.9721039044	 0.154958
O	-2.5235656581	-3.0727405412	 1.8014081265	-0.252893
H	 0.975792642	 1.8024638118	-0.1509530567	 0.258316
H	-0.7213640702	 1.9432355321	-0.2231530125	 0.262681
H	-1.4907935957	-2.4360912456	-0.8666547043	 0.099984
H	 0.1296704614	-2.2437296649	 1.717122926	 0.121465
H	 0.0284579593	-3.6133050533	 0.6135993836	 0.119718
H	 2.1702714362	-2.2336926879	 0.3070344647	 0.121416
H	 1.1855386988	-2.312275264	-1.1678755146	 0.11464
H	-3.3148335353	-1.5111725667	 0.7755617542	 0.090482
55.2759	120.2778	180.6815	206.6586	245.2679	356.3422	401.187	437.0987	464.1582	534.6295	549.7141	602.5073	713.7417	740.1488	789.4851	865.7291	927.7564	945.7876	960.9034	1040.0234	1096.5967	1127.9299	1143.8133	1213.2988	1236.5287	1266.1147	1303.949	1312.6251	1360.7589	1370.2572	1401.9611	1429.4678	1476.487	1514.7492	1616.2309	1751.3402	1832.9596	2904.1056	2922.9259	3023.596	3059.4653	3104.6185	3111.7304	3590.6519	3708.8642
NC1=NC(CCO1)C=O	NC1=N[C@@H](CCO1)C=O	
InChI=1S/C5H8N2O2/c6-5-7-4(3-8)1-2-9-5/h3-4H,1-2H2,(H2,6,7)	InChI=1S/C5H8N2O2/c6-5-7-4(3-8)1-2-9-5/h3-4H,1-2H2,(H2,6,7)/t4-/m0/s1
