18
gdb 29275	5.55953	0.97467	0.89147	0.7247	81.68	-0.2052	0.0234	0.2286	1341.1986	0.147843	-401.948973	-401.940656	-401.939711	-401.982546	31.002	
C	 0.2299630528	 1.5442724328	-0.0447087144	-0.49942
C	 0.0288599832	 0.0618918433	 0.0081866791	 0.266288
C	-0.2954024205	-0.7627771614	-1.0212978307	-0.117045
O	-0.3959604638	-2.0588351595	-0.5997593344	-0.190036
C	-0.1262913201	-2.056929698	 0.7440866234	 0.431436
C	 0.1381611311	-0.7923294331	 1.162602188	-0.380927
N	-0.1551613384	-3.2551239353	 1.453802886	-0.190724
C	-1.1438033455	-4.275375357	 1.0673579341	-0.224875
C	 0.2978289036	-4.4818806526	 0.7774556409	-0.224867
H	 1.2402786113	 1.8235451834	 0.2752539958	 0.1298
H	 0.0834706734	 1.9269118218	-1.0587272806	 0.1226
H	-0.4715121182	 2.0679328063	 0.6147230203	 0.129816
H	-0.4814460929	-0.5944647293	-2.0697153883	 0.127067
H	 0.3817126265	-0.5057943464	 2.1733292807	 0.108404
H	-1.6155617064	-4.7872012484	 1.900848241	 0.122438
H	-1.7925023318	-4.0483818321	 0.2268846174	 0.133794
H	 0.6146788689	-4.3932319372	-0.2571822935	 0.133815
H	 0.8931057768	-5.1465696073	 1.3963774853	 0.122434
41.328	133.5817	150.3663	176.3054	273.3775	291.0908	437.8286	454.3694	577.6875	624.9064	690.4459	701.539	728.9892	812.7685	821.5482	849.5926	889.1163	963.4892	982.7304	1016.4212	1039.4144	1064.7522	1104.7056	1131.3799	1131.5203	1151.7867	1181.9713	1183.2017	1217.0006	1270.7111	1341.8348	1391.2379	1420.7473	1482.1992	1485.0433	1497.7885	1511.3749	1596.8993	1670.1398	3028.3686	3079.1534	3108.9105	3116.4354	3119.679	3203.4382	3218.3675	3261.0508	3269.0681
CC1=COC(=C1)N1CC1	Cc1coc(c1)N1CC1	
InChI=1S/C7H9NO/c1-6-4-7(9-5-6)8-2-3-8/h4-5H,2-3H2,1H3	InChI=1S/C7H9NO/c1-6-4-7(9-5-6)8-2-3-8/h4-5H,2-3H2,1H3
