17
gdb 106720	2.5342	1.57647	1.24954	2.0878	68.06	-0.2394	0.066	0.3054	1051.4297	0.133729	-458.875904	-458.867509	-458.866565	-458.908989	31.556	
C	 0.0921098234	 1.2532577097	-0.3083385482	-0.254224
O	-0.0364447125	-0.0620649203	 0.2093547987	-0.27534
C	-1.3149772832	-0.5564320266	 0.1691877195	 0.334516
C	-1.9537160673	-1.0798525697	-1.1120738048	-0.395026
C	-1.7100945166	-2.0407863994	 0.0213322078	 0.30795
O	-0.9138370173	-3.1457968418	-0.1622310868	-0.451804
C	-2.7452400316	-1.8398479606	 1.1083903867	-0.067019
O	-2.083298253	-1.3746878794	 2.2961578668	-0.2503
C	-2.3622889326	-0.421421427	 1.2565370149	-0.065038
H	 1.1507016517	 1.5146702433	-0.2495813436	 0.13248
H	-0.2372218447	 1.3049681621	-1.355068727	 0.114024
H	-0.4872671653	 1.9785362826	 0.2796694217	 0.112945
H	-2.9575697707	-0.7992582114	-1.4193237213	 0.110695
H	-1.2433907549	-1.1982369055	-1.9253787178	 0.131164
H	-0.4357523304	-3.3011571221	 0.6614318845	 0.298236
H	-3.7237791635	-2.2910946858	 1.2240607918	 0.108614
H	-3.0024113016	 0.4145189417	 1.5128858069	 0.108128
73.7657	138.6765	170.3413	220.4434	250.3734	300.9255	370.1962	434.6914	448.9598	583.3567	604.99	654.3355	761.6635	805.9864	825.9692	874.2354	890.3288	932.6956	966.1248	982.9943	1038.5622	1058.4672	1086.2588	1127.1142	1174.7699	1179.4265	1208.9123	1220.9625	1238.3366	1338.2264	1342.5494	1357.8198	1410.624	1476.2384	1488.9093	1502.5086	1507.0562	2994.9927	3050.7774	3111.9571	3125.6895	3182.8802	3196.2645	3204.8282	3785.2311
COC12CC1(O)C1OC21	CO[C@@]12C[C@]1(O)[C@H]1O[C@@H]21	
InChI=1S/C6H8O3/c1-8-6-2-5(6,7)3-4(6)9-3/h3-4,7H,2H2,1H3	InChI=1S/C6H8O3/c1-8-6-2-5(6,7)3-4(6)9-3/h3-4,7H,2H2,1H3/t3-,4+,5-,6+/m0/s1
