23
gdb 118583	1.71912	0.97463	0.69519	2.2291	79.02	-0.2473	0.0703	0.3175	1707.7936	0.203104	-462.548417	-462.536944	-462.536	-462.586323	40.092	
C	-0.1478465515	 1.4771311841	 0.0948615378	-0.385771
C	-0.0439097851	-0.0384861004	 0.112728348	-0.043754
O	-1.3526263389	-0.5776002254	-0.0026310033	-0.271074
C	-1.4260235695	-2.0084871032	 0.0026955889	 0.078868
C	-1.4879786752	-2.4893608683	 1.459262316	-0.066513
O	-2.5503828448	-1.865871998	 2.1537774346	-0.421371
C	-2.6665145978	-2.4094476264	-0.7953902757	-0.203613
C	-2.6391820279	-1.9342168793	-2.2484405329	-0.066058
O	-3.7645722947	-2.3851430116	-2.9883049684	-0.419501
H	 0.8470330845	 1.9270354775	 0.1629284361	 0.119561
H	-0.6217749064	 1.818781556	-0.8296519614	 0.129756
H	-0.7462722269	 1.8339177754	 0.9382598458	 0.124369
H	 0.5769854552	-0.3941990184	-0.7246808549	 0.095215
H	 0.4402248788	-0.3768649361	 1.0413912547	 0.095152
H	-0.5260848598	-2.4242360338	-0.4789065066	 0.067042
H	-1.6616800586	-3.5701465881	 1.4936986842	 0.10761
H	-0.5220311483	-2.2965827044	 1.9541068468	 0.083825
H	-2.4990194171	-0.9322360381	 1.91137757	 0.284646
H	-2.7590223398	-3.501471559	-0.7802576192	 0.105411
H	-3.5502036583	-2.0079481461	-0.2848629761	 0.10331
H	-2.5455494356	-0.8403211669	-2.2798807289	 0.100256
H	-1.7653398857	-2.3507538224	-2.7635340751	 0.10236
H	-4.5482933063	-1.982396037	-2.6009673402	 0.280272
54.5107	73.9008	78.5813	91.2274	102.7354	189.1596	209.481	246.3634	282.8447	294.2469	338.2271	352.7872	431.5164	482.9314	534.6437	675.1799	776.2731	820.4897	855.6064	909.2617	939.3779	974.4572	1025.6345	1076.5681	1083.9832	1094.523	1110.0736	1127.887	1143.1888	1187.8625	1203.1801	1230.5826	1272.9824	1296.9419	1308.3879	1345.6688	1360.0659	1384.7647	1402.7613	1408.9502	1420.6339	1428.3716	1442.9481	1481.1948	1483.6651	1498.6059	1507.4084	1517.765	1531.4319	2964.1715	2971.8166	2984.7363	3007.4843	3012.433	3036.8395	3044.8861	3055.8144	3072.4452	3087.6667	3118.6272	3121.9146	3769.6006	3814.0655
CCOC(CO)CCO	CCO[C@@H](CO)CCO	
InChI=1S/C6H14O3/c1-2-9-6(5-8)3-4-7/h6-8H,2-5H2,1H3	InChI=1S/C6H14O3/c1-2-9-6(5-8)3-4-7/h6-8H,2-5H2,1H3/t6-/m1/s1
