20
gdb 71659	3.0317	1.84399	1.82319	1.8149	79.56	-0.2239	0.0852	0.3091	894.8426	0.174395	-365.990034	-365.983533	-365.982588	-366.020333	28.417	
C	-0.0006729377	 1.5033500214	 0.0178648857	-0.500473
C	-0.0072103596	-0.0125957102	-0.0380450935	 0.299831
C	 0.654853215	-0.6986405607	-1.2649934225	-0.247324
C	 0.557778698	-2.1293345466	-0.7131426639	-0.07957
C	 1.2633946691	-2.0343067764	 0.6488450855	-0.039733
C	 0.6986904506	-0.7514625979	 1.1418645209	-0.076268
N	-0.0100720745	-2.0419089787	 1.4304009569	-0.155648
C	-0.7849646458	-2.1325089325	 0.1275770911	 0.001482
C	-1.379883173	-0.7392323586	-0.0360315894	-0.241686
H	 1.0215353102	 1.8975515587	 0.0184808379	 0.115874
H	-0.5199725353	 1.9322386819	-0.8458102215	 0.11487
H	-0.4999946844	 1.8699362993	 0.9213495166	 0.118224
H	 0.0940501772	-0.5303451338	-2.1914029465	 0.08914
H	 1.6946452912	-0.3891453481	-1.4163851142	 0.092514
H	 0.7724081785	-2.9670072976	-1.3726579622	 0.068739
H	 2.1700466643	-2.520310034	 0.9936297741	 0.085266
H	 1.0890687014	-0.2256436772	 2.0051275994	 0.086001
H	-1.4377823581	-3.0021650161	 0.0815086234	 0.072745
H	-2.0113635285	-0.4713886842	 0.8166060548	 0.103665
H	-1.9391618886	-0.5896969587	-0.9652849526	 0.092352
207.2202	270.224	272.9564	410.1198	474.4743	547.5359	586.8661	641.5689	673.5424	782.9643	793.883	809.6741	839.2235	856.5864	884.9041	898.3475	914.1955	941.542	960.8636	975.771	991.0204	1018.7999	1044.98	1058.3558	1096.8056	1109.8664	1134.2255	1167.255	1197.5723	1211.6603	1241.0105	1249.403	1261.021	1269.7288	1283.8368	1287.2425	1332.9563	1373.1119	1414.6775	1473.7408	1494.3981	1495.7358	1497.8742	3026.4021	3033.6641	3048.3908	3084.678	3092.4353	3094.1845	3102.2477	3131.3156	3143.1461	3162.1095	3184.3081
CC12CC3C4C1N4C3C2	C[C@@]12C[C@H]3[C@H]4[C@@H]1N4[C@H]3C2	
InChI=1S/C8H11N/c1-8-2-4-5(3-8)9-6(4)7(8)9/h4-7H,2-3H2,1H3	InChI=1S/C8H11N/c1-8-2-4-5(3-8)9-6(4)7(8)9/h4-7H,2-3H2,1H3/t4-,5+,6+,7+,8+,9?/m1/s1
