18
gdb 47717	2.50771	1.826	1.19713	2.7598	74.11	-0.241	0.0198	0.2608	1042.2865	0.148781	-439.077811	-439.070034	-439.06909	-439.110276	30.289	
N	-0.0566641887	 1.2452893206	 0.3696748179	-0.53013
C	-0.0238860472	 0.0413462416	-0.0228920443	 0.337634
O	 1.1519840605	-0.5595212787	-0.3653281201	-0.264167
C	 1.1448527003	-1.83813298	-1.0149467177	-0.074207
C	-0.017819823	-2.6889547617	-0.5473695571	-0.117023
O	-1.2166931731	-1.9758433359	-0.7927476296	-0.291072
C	-1.2646795782	-0.7998600006	-0.0292636331	 0.346801
C	-2.0826170116	-0.8434408967	 1.2558365695	-0.307904
C	-2.6033866092	-0.137053788	 0.0309369044	-0.313405
H	 0.8830732399	 1.6441113893	 0.3657352864	 0.219839
H	 1.076495212	-1.683793108	-2.0990346419	 0.120611
H	 2.1089042734	-2.3001201821	-0.7833929921	 0.118699
H	-0.0680524393	-3.6190211856	-1.1202668787	 0.11786
H	 0.0807359475	-2.9335111158	 0.5212852273	 0.105889
H	-2.5169329514	-1.8053871783	 1.5047199278	 0.119408
H	-1.7377025338	-0.2403020633	 2.0865762582	 0.136097
H	-2.6053794409	 0.9453933637	 0.0264388528	 0.150378
H	-3.3890404871	-0.6251769605	-0.5343212197	 0.124691
67.0803	130.9497	258.5009	277.2425	298.0874	408.3631	437.9127	466.7264	524.1554	612.4094	683.7011	695.2756	780.0439	861.6639	884.2377	895.4775	919.5761	938.6205	961.2101	1000.2	1020.387	1056.2624	1091.162	1118.3513	1133.0546	1160.4624	1200.9045	1227.7161	1273.2739	1283.4742	1309.139	1367.549	1405.1448	1435.0257	1437.5321	1475.3492	1492.778	1501.2631	1739.0782	2995.1291	3030.7926	3094.5532	3098.4644	3140.6102	3148.562	3237.8151	3252.3996	3479.6832
N=C1OCCOC11CC1	[NH][C]1OCCOC21CC2	
InChI=1S/C6H9NO2/c7-5-6(1-2-6)9-4-3-8-5/h7H,1-4H2	InChI=1S/C6H9NO2/c7-5-6(1-2-6)9-4-3-8-5/h7H,1-4H2
