15
gdb 123781	4.62039	1.20979	1.03613	3.2744	75.08	-0.2485	-0.0845	0.164	1121.0006	0.113895	-412.956821	-412.949628	-412.948684	-412.989059	26.545	
C	-0.1370985602	 1.4278343897	-0.1205256249	-0.256214
C	 1.258427793	 0.9656771775	 0.1123527902	-0.256215
C	 0.1351782049	-0.0638345505	 0.043876409	-0.092081
C	-0.2958004386	-0.7487620979	 1.267663582	 0.42731
N	-0.7019696525	-2.0200996557	 1.1791384169	-0.274398
C	-1.0678300085	-2.5367643919	 2.3439532158	 0.109377
N	-1.0561896958	-1.9083897278	 3.5231764321	-0.179334
N	-0.6414918891	-0.6495857325	 3.5350386164	-0.052532
N	-0.2606843733	-0.0577031448	 2.4273185933	-0.234332
H	-0.6486801079	 1.9137403487	 0.7016530047	 0.147553
H	-0.425790134	 1.756301131	-1.1121547093	 0.127354
H	 1.9595210817	 0.966336878	-0.7141024497	 0.127354
H	 1.6880139632	 1.1398851749	 1.0915902367	 0.147547
H	 0.0756594138	-0.6882479861	-0.838540183	 0.11256
H	-1.4107197367	-3.5685890325	 2.3574681899	 0.146053
71.8712	121.9786	189.9485	279.4995	315.6896	410.2751	584.494	589.4365	707.7557	783.6355	822.1805	824.8582	842.8256	921.171	939.4055	962.8846	1010.2838	1032.2373	1065.8087	1086.9722	1097.0437	1132.0143	1159.1881	1208.024	1216.6745	1266.5471	1315.7308	1398.9311	1442.7949	1457.1334	1487.8528	1536.0131	1569.653	3145.3424	3146.8776	3171.5394	3197.7849	3233.9598	3247.5975
C1CC1C1=NC=NN=N1	C1CC1c1ncnnn1	
InChI=1S/C5H6N4/c1-2-4(1)5-6-3-7-9-8-5/h3-4H,1-2H2	InChI=1S/C5H6N4/c1-2-4(1)5-6-3-7-9-8-5/h3-4H,1-2H2
