21
gdb 88861	3.46982	1.09341	0.98401	1.1841	78.27	-0.2546	0.0872	0.3417	1286.9841	0.183267	-424.21154	-424.202651	-424.201707	-424.246043	32.869	
C	-0.0812017627	 1.524742464	-0.18388523	-0.417996
C	 0.0443612499	 0.0277281954	 0.0050094045	-0.002424
C	 1.3769838839	-0.6764106468	-0.1184292124	-0.296356
C	 0.6837553572	-0.6021494468	 1.2206860394	-0.029574
C	 1.2741369448	 0.1817143041	 2.3765939769	 0.085198
C	 2.1475159707	-0.6858334361	 3.310005233	-0.12209
O	 3.1715343005	 0.201777698	 3.7305669657	-0.233329
C	 3.4222484863	 0.9951043631	 2.6028968383	 0.022923
O	 2.178155231	 1.2157672321	 1.9616404247	-0.264594
H	 0.7857360084	 2.0527555739	 0.2170845309	 0.145822
H	-0.1719182616	 1.7711200689	-1.2477672951	 0.110577
H	-0.9743663164	 1.9120787139	 0.3200668034	 0.109798
H	-0.8030843214	-0.5325284347	-0.3840874076	 0.079876
H	 1.4286010321	-1.6296910824	-0.6328720429	 0.104487
H	 2.2491433803	-0.0438981592	-0.2419586849	 0.121328
H	 0.2081992908	-1.5180329704	 1.5677454723	 0.082321
H	 0.4706914808	 0.6603702919	 2.953509369	 0.084629
H	 1.6195196484	-1.0495628027	 4.193468049	 0.118872
H	 2.5678957319	-1.5408502561	 2.7580701405	 0.098517
H	 3.8456570976	 1.95129839	 2.925930638	 0.117863
H	 4.1161319475	 0.4868158701	 1.9090907471	 0.084152
46.7018	64.6569	151.0267	202.1697	237.2132	258.807	283.8915	367.6917	474.4935	583.4568	647.4247	742.5921	765.2163	816.2083	859.2656	897.1793	927.9143	965.9213	976.1321	990.022	1036.1132	1066.8944	1084.4426	1105.4634	1117.2346	1124.5772	1150.255	1152.4133	1183.3393	1201.0394	1210.5587	1245.6965	1267.8436	1315.8136	1358.9887	1375.804	1392.9061	1412.9798	1425.4246	1436.4232	1489.2361	1504.2979	1506.7798	1508.7241	1544.147	2936.8118	2986.3583	3004.4566	3030.0525	3077.1494	3082.1247	3112.6577	3114.5196	3124.0956	3135.1118	3143.4838	3222.8973
CC1CC1C1COCO1	C[C@H]1C[C@H]1[C@H]1COCO1	
InChI=1S/C7H12O2/c1-5-2-6(5)7-3-8-4-9-7/h5-7H,2-4H2,1H3	InChI=1S/C7H12O2/c1-5-2-6(5)7-3-8-4-9-7/h5-7H,2-4H2,1H3/t5-,6+,7+/m0/s1
