15
gdb 28914	2.35947	1.85488	1.04384	3.8821	71.04	-0.2215	-0.0027	0.2188	1064.7948	0.114566	-454.002562	-453.994592	-453.993648	-454.03527	30.102	
N	-0.3062842984	 1.3925191737	 0.0831155484	-0.626342
C	-0.0887281033	-0.0257401127	 0.0045700521	 0.086803
C	-1.2373223264	-0.8152645291	-0.0332454871	 0.267859
O	-2.4771942516	-0.2712727603	 0.0042844361	-0.457898
C	-1.1100735672	-2.2052557457	-0.0968769467	 0.261505
O	-2.2010133022	-3.0141074237	-0.132647471	-0.443718
C	 0.1753231607	-2.7378512756	-0.1076554103	-0.066284
N	 1.2851589446	-1.9943848259	-0.0534940492	-0.285179
C	 1.1475087564	-0.6695638504	-0.0023360608	-0.065765
H	 0.3644925977	 1.8348243229	 0.7022851891	 0.253021
H	-0.2078712319	 1.8341130181	-0.8270950909	 0.25465
H	-2.3326863006	 0.6788197242	 0.1623562248	 0.301517
H	-2.9856060753	-2.4531341272	-0.0886474531	 0.31024
H	 0.2956369752	-3.8168741699	-0.1564094189	 0.115129
H	 2.0622504622	-0.0805807585	 0.0391681074	 0.094462
57.5356	161.8001	247.7905	288.7477	300.7746	308.4993	409.3246	501.9644	509.2542	555.8964	605.1466	611.4458	662.7754	697.4738	773.3204	846.6392	870.8042	902.5099	948.9481	1038.1921	1167.8199	1188.9047	1223.545	1271.007	1297.4675	1323.0519	1367.3376	1390.7977	1486.8057	1536.0263	1616.7908	1654.8459	1664.446	3138.34	3166.1576	3493.0619	3573.3705	3641.8033	3788.2413
NC1=C(O)C(O)=CN=C1	Nc1c(O)c(O)cnc1	
InChI=1S/C5H6N2O2/c6-3-1-7-2-4(8)5(3)9/h1-2,8H,6H2,(H,7,9)	InChI=1S/C5H6N2O2/c6-3-1-7-2-4(8)5(3)9/h1-2,8H,6H2,(H,7,9)
