15
gdb 126115	6.83789	0.65923	0.60577	4.4564	80.54	-0.2617	-0.0558	0.2059	1776.1879	0.112108	-416.747671	-416.739261	-416.738317	-416.782518	29.209	
C	 0.0072190507	 1.5585708097	 0.0099894817	-0.368365
C	-0.0297373233	 0.0190602342	 0.0026079807	-0.331327
C	-1.3837911477	-0.5178498939	 0.0120765402	 0.222033
C	-2.5149930785	-0.9353685966	 0.0202419386	-0.053183
C	-3.8251178763	-1.4606004582	 0.0302532157	 0.230872
N	-4.9127774062	-0.717392152	 0.0420371964	-0.168494
O	-5.9571552464	-1.5907030815	 0.0483648048	-0.148351
N	-5.5329517084	-2.8913522852	 0.040780166	-0.054014
C	-4.2339445572	-2.8317085546	 0.0292301568	-0.161716
H	 1.042919703	 1.9091823719	 0.0023703839	 0.122327
H	-0.5022062175	 1.9638337471	-0.8678892333	 0.137362
H	-0.4861915007	 1.9549796452	 0.9009627774	 0.137352
H	 0.4992867538	-0.3618366086	-0.8803971778	 0.140951
H	 0.5150846097	-0.3706493077	 0.8720576551	 0.140946
H	-3.626529105	-3.72263508	 0.0210182736	 0.153607
29.4136	72.2406	103.5088	187.399	220.2451	325.6282	424.3218	486.4191	490.8558	575.0248	642.5092	731.0921	785.5785	884.8479	892.2765	900.3199	939.0627	1003.7616	1038.7653	1075.2059	1095.8536	1102.9002	1218.7262	1283.3426	1344.6819	1384.3298	1412.7494	1469.3451	1472.9361	1495.4337	1505.184	1591.5485	2363.8162	3023.4091	3050.3618	3051.8268	3125.7207	3130.7631	3278.1483
CCC#CC1=NON=C1	CCC#Cc1nonc1	
InChI=1S/C6H6N2O/c1-2-3-4-6-5-7-9-8-6/h5H,2H2,1H3	InChI=1S/C6H6N2O/c1-2-3-4-6-5-7-9-8-6/h5H,2H2,1H3
