21
gdb 118358	2.34196	0.99768	0.74436	3.6416	80.82	-0.2401	-0.0143	0.2259	1568.7934	0.179757	-424.207394	-424.197026	-424.196082	-424.244035	36.042	
C	 0.0804734375	 1.3834603085	 0.0366474564	-0.228798
O	 0.0099069238	-0.0227656641	 0.0074502886	-0.233777
C	 0.7166393719	-0.5914573449	-1.0715352295	-0.071954
C	 0.5334332513	-2.1053048144	-1.010569737	-0.113815
C	-0.9433447582	-2.4616435008	-1.0908698207	 0.183098
O	-1.4885436808	-3.2857415659	-0.4059876795	-0.254111
C	 1.270049606	-2.7979757341	-2.1492700344	 0.00424
C	 2.7112716953	-3.215249773	-1.9766437915	-0.273591
C	 1.6244800314	-4.2583418987	-2.0386450989	-0.270296
H	 1.1187045297	 1.7366892105	 0.1380495241	 0.106072
H	-0.3471073593	 1.8327402709	-0.8736306931	 0.10552
H	-0.4944189315	 1.7214756596	 0.9017793699	 0.132833
H	 0.332647895	-0.2021293208	-2.0323809463	 0.08508
H	 1.7875721012	-0.3359611899	-1.0256963008	 0.09674
H	 0.9043436758	-2.4810009921	-0.0512246915	 0.099901
H	-1.5004705747	-1.9154406844	-1.8901020353	 0.065604
H	 0.9902370407	-2.4476580952	-3.1401893084	 0.087024
H	 3.379681839	-3.1133186922	-2.824369979	 0.115899
H	 3.1795810075	-3.0269004376	-1.0161713083	 0.117607
H	 1.3539774877	-4.769172827	-1.1210016569	 0.130318
H	 1.5488297508	-4.8731350143	-2.9283125077	 0.116405
57.6536	67.6361	93.7527	103.1863	123.5413	203.3138	226.0873	269.234	327.8694	363.2896	411.9919	456.8419	587.6549	776.8986	830.3603	841.8093	891.5524	926.2029	967.4385	989.9833	999.9314	1061.4997	1080.5078	1110.9366	1124.8309	1138.7578	1158.8476	1176.0906	1191.6441	1198.9336	1223.019	1232.9982	1249.7345	1271.8344	1323.4714	1403.7895	1415.2053	1426.532	1472.8673	1479.7503	1485.8623	1501.6706	1505.881	1526.3382	1839.8594	2838.8292	2940.4533	2972.0102	2988.4692	3016.7497	3066.2726	3119.1867	3130.5469	3133.0469	3140.6301	3212.5573	3228.3309
COCC(C=O)C1CC1	COC[C@@H](C=O)C1CC1	
InChI=1S/C7H12O2/c1-9-5-7(4-8)6-2-3-6/h4,6-7H,2-3,5H2,1H3	InChI=1S/C7H12O2/c1-9-5-7(4-8)6-2-3-6/h4,6-7H,2-3,5H2,1H3/t7-/m1/s1
