16
gdb 19431	4.10598	2.00436	1.67196	2.1625	64.68	-0.236	0.0869	0.3229	805.1406	0.130942	-383.703077	-383.696579	-383.695635	-383.733575	25.678	
C	-0.1306399928	 1.4762182274	 0.0410650412	-0.327429
C	 1.2428320106	 0.8328370826	-0.0526123031	-0.338567
C	-0.0098186683	-0.0083160704	-0.0335837836	 0.461499
O	-0.3382913057	-0.7363903427	 1.130121232	-0.297673
C	-0.3606232316	-2.1295611576	 0.8205924109	-0.119988
C	-0.6085200983	-2.2087168339	-0.6718953919	 0.025508
O	-1.7121702754	-1.4054152844	-1.098683478	-0.25077
C	-0.3875447876	-0.8611091804	-1.2010471862	-0.069241
H	-0.4238249499	 1.8871913759	 1.0003364521	 0.131108
H	-0.5200642106	 2.0077460091	-0.8202074228	 0.121148
H	 1.8022702178	 0.9276142965	-0.9780818167	 0.111758
H	 1.845771694	 0.8170596377	 0.8480503887	 0.124887
H	 0.5989397978	-2.6148997726	 1.0603108164	 0.09765
H	-1.1495324317	-2.5909783393	 1.4226911353	 0.12098
H	-0.4228491201	-3.1237294828	-1.2274003607	 0.103491
H	-0.0244369481	-0.6441644451	-2.2011361534	 0.105639
122.8748	215.1819	290.3678	340.3662	394.316	494.153	572.1577	733.3044	765.0962	811.3357	843.5055	869.744	886.8006	907.9482	946.5414	956.8865	981.4127	999.4632	1048.5467	1059.6375	1075.5555	1089.9922	1116.64	1189.5216	1221.3036	1247.9333	1260.5505	1285.8261	1360.268	1388.7998	1442.6743	1451.8757	1498.7007	1507.2446	2982.2922	3079.1377	3128.4395	3138.485	3154.4423	3167.637	3217.5577	3232.229
C1CC11OCC2OC12	C1CC21OC[C@H]1O[C@@H]21	
InChI=1S/C6H8O2/c1-2-6(1)5-4(8-5)3-7-6/h4-5H,1-3H2	InChI=1S/C6H8O2/c1-2-6(1)5-4(8-5)3-7-6/h4-5H,1-3H2/t4-,5-/m1/s1
