14
gdb 128985	3.99191	1.70262	1.19355	0.1364	77.4	-0.2307	-0.05	0.1807	945.8113	0.106879	-395.785418	-395.779674	-395.77873	-395.815409	23.462	
N	 0.0246954812	 1.257383759	 0.0091197596	-0.06633
N	 1.2062331396	 1.8515864408	 0.0010333357	-0.310021
C	 2.0521201383	 0.7985893811	-0.0133352199	 0.304262
C	 3.4630581986	 0.7545074136	-0.0273684841	-0.223464
C	 4.0464153669	-0.4887792575	-0.0402699068	-0.102271
C	 3.273056382	-1.6873596636	-0.0396703383	-0.102269
C	 1.899853891	-1.6682095865	-0.02615581	-0.223465
C	 1.2782274446	-0.4008155255	-0.0127341132	 0.30426
N	-0.0297855495	-0.0640382733	 0.0019856091	-0.310023
H	-0.8232493478	 1.8045076177	 0.0205690538	 0.29824
H	 4.0477968582	 1.6667085697	-0.0277870659	 0.113426
H	 5.1280148897	-0.5723174083	-0.0513108252	 0.102116
H	 3.7949037596	-2.6384226837	-0.0502778064	 0.102116
H	 1.3097014877	-2.5769179437	-0.0256645782	 0.113426
228.8073	272.4546	423.4325	448.1187	547.4595	588.3951	632.391	634.0715	719.0446	776.8716	792.8792	809.5145	887.864	909.6287	949.6993	985.4388	986.2336	1020.2204	1149.595	1167.1306	1186.726	1224.4231	1271.0801	1335.8266	1355.2003	1419.1721	1476.0899	1488.9868	1541.9771	1592.2385	1664.4888	3177.1909	3190.3546	3206.2925	3209.8366	3645.2433
N1N=C2C=CC=CC2=N1	[nH]1nc2ccccc2n1	
InChI=1S/C6H5N3/c1-2-4-6-5(3-1)7-9-8-6/h1-4H,(H,7,8,9)	InChI=1S/C6H5N3/c1-2-4-6-5(3-1)7-9-8-6/h1-4H,(H,7,8,9)
