18
gdb 6811	2.96685	1.72291	1.44388	4.6068	72.08	-0.25	0.0149	0.2649	951.2765	0.153685	-343.98247	-343.97409	-343.973146	-344.014918	31.213	
C	-0.1286339502	 1.5298607003	 0.0013516737	-0.436914
C	-0.0546327393	 0.0045367733	-0.0262280099	 0.305473
C	-1.4032478667	-0.6268546371	-0.3411756214	-0.459632
C	 1.1759223394	-0.5102327136	-0.833658962	-0.202183
N	 1.9482962205	-0.5868040161	 0.4280129027	-0.306039
C	 0.702381769	-0.5978073108	 1.2185455558	-0.160251
C	 0.7357807847	 0.1632883826	 2.467683719	 0.302509
N	 0.7355478819	 0.7640225011	 3.455343243	-0.334586
H	 0.8470282289	 1.9680825376	 0.2278298939	 0.142479
H	-0.4563333269	 1.9066894194	-0.973450291	 0.114634
H	-0.8403204355	 1.8788691212	 0.756245009	 0.131455
H	-1.7675891891	-0.2892070959	-1.3177146455	 0.124073
H	-1.3451512089	-1.7198857348	-0.3652794916	 0.114061
H	-2.1528357788	-0.3437802539	 0.4061333004	 0.129052
H	 0.9823198665	-1.4820763319	-1.3090058592	 0.093088
H	 1.6020205465	 0.1713630724	-1.5768980089	 0.110164
H	 2.5417021339	-1.4001191197	 0.5468127606	 0.228652
H	 0.3176766442	-1.6026911141	 1.4468935315	 0.103966
99.172	137.2965	205.6115	222.0545	265.5383	302.0227	342.1868	373.843	398.6876	546.9921	552.1065	606.7738	719.6811	834.5396	898.0428	925.174	962.6849	997.2064	1001.2196	1025.308	1038.751	1070.4271	1146.7109	1193.7498	1197.0702	1259.866	1281.7924	1334.8363	1361.6664	1388.6399	1407.6912	1426.14	1484.9939	1485.8313	1502.0627	1506.6249	1522.3075	2353.296	2990.5961	3001.2467	3027.6092	3036.89	3068.7629	3095.5888	3099.3622	3104.3177	3120.6809	3536.209
CC1(C)CNC1C#N	CC1(C)CN[C@H]1C#N	
InChI=1S/C6H10N2/c1-6(2)4-8-5(6)3-7/h5,8H,4H2,1-2H3	InChI=1S/C6H10N2/c1-6(2)4-8-5(6)3-7/h5,8H,4H2,1-2H3/t5-/m0/s1
