19
gdb 23383	3.72439	1.10273	0.98103	1.1708	79.58	-0.2306	0.0042	0.2347	1249.3346	0.158905	-419.083368	-419.074737	-419.073793	-419.117319	32.327	
C	-0.1663272964	 1.4817617824	-0.0068996614	-0.484827
C	-0.0236468609	-0.0103483201	 0.1236504064	 0.309197
N	 0.1417115814	-0.6429589159	 1.2222916786	-0.165071
O	 0.1934859522	 0.2257474662	 2.3227357832	-0.394846
C	-0.0199152525	-0.8277219883	-1.1319060293	-0.00256
C	-0.3824850763	-2.3274740898	-1.1794855463	-0.069157
C	-1.8374269276	-1.8579478538	-0.9566194329	-0.167832
N	-1.3250748514	-0.8237806549	-1.9817333438	-0.16506
C	-0.6875389647	-2.0478063982	-2.6673288776	-0.172107
H	 0.8089049433	 1.9730930487	 0.0913199246	 0.141416
H	-0.5928594923	 1.7384899475	-0.9784574634	 0.145061
H	-0.8023252493	 1.8744854683	 0.7897348889	 0.149993
H	 0.2945371561	-0.3867713228	 3.0589430318	 0.306221
H	 0.8320107012	-0.520462347	-1.7533227627	 0.082782
H	 0.1500458891	-3.168712976	-0.7270190547	 0.072492
H	-2.640574418	-2.4843617301	-1.3534280252	 0.097446
H	-2.1027852663	-1.4344457649	 0.0113430078	 0.11612
H	 0.1440119344	-1.7940385754	-3.3312313305	 0.098851
H	-1.419348432	-2.6854442058	-3.1694034834	 0.101883
64.9154	70.056	143.772	152.311	295.115	351.3191	412.6606	421.0959	439.3078	547.0926	608.4506	717.46	766.9478	785.1348	844.5201	868.0895	906.3156	914.5344	941.16	1011.6671	1016.2845	1041.5698	1044.8432	1081.8212	1090.441	1124.9401	1157.4589	1171.412	1199.4271	1225.3383	1242.7124	1263.7311	1291.256	1392.3032	1397.6781	1413.6826	1478.9853	1486.9014	1512.8016	1550.1385	1726.3062	3014.7281	3040.556	3048.7985	3062.0151	3074.5751	3106.9969	3118.4122	3144.3402	3149.0053	3820.0245
CC(=NO)C1C2CN1C2	CC(=NO)[C@H]1[C@H]2CN1C2	
InChI=1S/C6H10N2O/c1-4(7-9)6-5-2-8(6)3-5/h5-6,9H,2-3H2,1H3	InChI=1S/C6H10N2O/c1-4(7-9)6-5-2-8(6)3-5/h5-6,9H,2-3H2,1H3/t6-/m0/s1
