19
gdb 92552	3.36763	1.28573	1.03282	0.6765	76.22	-0.2465	0.0005	0.247	1161.8994	0.161176	-423.013147	-423.005387	-423.004442	-423.045488	30.497	
O	 0.2831396292	 1.3531246309	 0.3477307062	-0.43446
C	 0.082015016	-0.0275492872	 0.0642992689	 0.084149
C	-1.4100479161	-0.3975195333	 0.0673156796	-0.240643
C	-1.6308728711	-1.8656861748	-0.3040096785	-0.08414
C	-2.865476613	-2.1594696215	-1.1843597194	-0.08768
O	-2.0505486147	-2.2811963987	-2.3693383513	-0.299596
C	-0.8405151534	-2.304522225	-1.5597573942	 0.111816
C	 0.2539330693	-1.4017697839	-2.0240256822	-0.09097
C	 0.70859982	-0.4109060404	-1.2573100019	-0.092242
H	-0.1320449059	 1.8570609184	-0.3615207037	 0.277455
H	 0.5932552197	-0.544758523	 0.887432226	 0.100683
H	-1.8505415047	-0.1625170611	 1.040936572	 0.106094
H	-1.9030443111	 0.2428853744	-0.6760739315	 0.095224
H	-1.5041235192	-2.5151113316	 0.5652299927	 0.077496
H	-3.377813183	-3.1015438407	-0.9460496013	 0.09616
H	-3.6091407334	-1.3591762029	-1.2754390487	 0.103028
H	-0.4672577044	-3.3380471066	-1.4891528278	 0.078106
H	 0.7040340283	-1.6187848228	-2.9896470595	 0.09978
H	 1.5548642775	 0.19864075	-1.5655535855	 0.099738
83.9851	142.0723	240.2106	296.5626	331.2114	381.9718	406.8273	431.7696	511.9856	587.2254	722.8959	734.4557	804.8492	836.8483	876.1566	917.2816	979.2766	998.4641	1003.8035	1010.9358	1028.6019	1064.3514	1085.2246	1098.4124	1130.7306	1154.2907	1181.6893	1229.8855	1240.5912	1270.4443	1284.5142	1309.4465	1347.1855	1355.9491	1375.4842	1386.1792	1401.4469	1426.0115	1487.9095	1524.8939	1708.9965	2974.8267	3004.5032	3014.0873	3025.8941	3056.8382	3074.0964	3091.7274	3149.2734	3171.2912	3794.607
OC1CC2COC2C=C1	O[C@H]1C[C@H]2CO[C@H]2C=C1	
InChI=1S/C7H10O2/c8-6-1-2-7-5(3-6)4-9-7/h1-2,5-8H,3-4H2	InChI=1S/C7H10O2/c8-6-1-2-7-5(3-6)4-9-7/h1-2,5-8H,3-4H2/t5-,6+,7-/m0/s1
