16
gdb 10155	2.44686	1.44092	0.95149	1.9722	66.57	-0.2403	-0.0529	0.1874	1190.4729	0.128853	-379.926867	-379.91777	-379.916825	-379.961563	30.525	
C	-0.0736977524	 1.4354347931	 0.2226854396	-0.31433
N	-0.0174771745	-0.0048789552	-0.0021155175	-0.297655
C	-1.3228525655	-0.6378710457	 0.0543291487	-0.130945
C	-1.1874662224	-2.1640601643	-0.0902252978	-0.247489
C	-2.493813819	-2.9123242663	 0.2251556872	 0.159077
O	-3.4198943883	-2.402033518	 0.7907886051	-0.224115
C	-0.6911574481	-2.560610603	-1.4082680441	 0.258828
N	-0.3181799001	-2.864246094	-2.4595147541	-0.314121
H	 0.928787669	 1.8581696978	 0.1152551811	 0.126569
H	-0.7514345398	 1.9735385765	-0.4626354991	 0.102897
H	-0.4117715128	 1.6320973286	 1.2461469711	 0.127456
H	 0.4093045379	-0.1870054288	-0.9056647949	 0.232633
H	-1.7723704265	-0.4436780948	 1.0327511436	 0.133055
H	-2.0399073038	-0.2682210522	-0.6997704473	 0.104907
H	-0.4495451008	-2.5118194417	 0.6495906448	 0.165786
H	-2.5053029231	-3.976253012	-0.0894930864	 0.117447
68.6864	83.2758	101.3994	144.8417	169.9234	245.9287	257.131	310.7622	389.6313	513.4641	572.0506	630.8543	774.8783	818.3006	888.1651	983.2222	1032.2949	1054.2541	1103.2643	1146.2592	1162.1708	1199.4401	1229.4074	1271.8979	1319.7851	1383.3472	1419.7043	1461.416	1488.8827	1496.0823	1511.8425	1521.6654	1840.7575	2354.1882	2925.1096	2950.6897	2957.6011	3007.9153	3061.9714	3085.5656	3112.0941	3509.9204
CNCC(C=O)C#N	CNC[C@@H](C=O)C#N	
InChI=1S/C5H8N2O/c1-7-3-5(2-6)4-8/h4-5,7H,3H2,1H3	InChI=1S/C5H8N2O/c1-7-3-5(2-6)4-8/h4-5,7H,3H2,1H3/t5-/m0/s1
