22
gdb 22165	2.18285	0.9172	0.76864	0.7204	82.18	-0.2459	0.0077	0.2536	1613.3851	0.190787	-441.442051	-441.430754	-441.429809	-441.480141	39.301	
C	 0.4124022413	 0.2125451192	-0.2932139029	-0.382612
C	-0.7108479765	-0.812161617	-0.4791020694	-0.188076
C	-1.9038325179	-0.5143611367	 0.4325574339	-0.049524
O	-3.036231526	-1.3447955839	 0.2170202365	-0.243482
C	-3.0334333936	-2.5872942487	 0.8962534593	-0.161116
C	-2.3162758964	-3.6903144585	 0.1488096234	 0.355535
C	-2.7189293224	-3.9817010036	-1.2685979124	-0.480297
N	-1.4216566699	-4.3164120882	 0.8131408735	-0.167023
O	-0.8472274546	-5.3599258062	 0.069560906	-0.397673
H	 1.259424623	-0.00620348	-0.949749874	 0.117259
H	 0.0684219695	 1.2277446604	-0.5212139194	 0.115331
H	 0.7841573661	 0.2133864247	 0.7375885657	 0.116904
H	-1.0589853495	-0.8072963194	-1.5188316244	 0.102608
H	-0.3324289143	-1.8188181272	-0.273976683	 0.115744
H	-1.5945958612	-0.5687845371	 1.4886907333	 0.090421
H	-2.2557075333	 0.5082573788	 0.2489830035	 0.102879
H	-2.603146283	-2.4991121668	 1.9023951888	 0.108913
H	-4.0914860794	-2.8635094964	 0.9989218995	 0.11096
H	-3.2100659542	-3.1093116513	-1.7031856134	 0.140014
H	-1.8503538585	-4.2582574627	-1.8696010154	 0.147523
H	-3.4164854366	-4.8275014871	-1.3011410281	 0.140309
H	-0.1881908827	-5.7042537421	 0.681501569	 0.305403
36.5242	57.182	71.4089	92.0119	104.9212	189.4365	231.5178	266.6225	297.103	321.1864	382.2973	399.1609	440.4817	504.4664	538.5216	659.4703	759.884	816.2153	882.4148	892.7097	936.3455	961.525	988.2879	1036.1445	1048.5833	1087.4053	1120.8855	1128.7764	1202.3419	1266.8695	1279.5632	1307.2066	1337.3169	1342.6613	1380.0705	1397.4702	1405.2412	1410.9216	1427.2016	1472.4831	1480.5141	1486.228	1489.4582	1497.3472	1500.7358	1513.5125	1732.163	2979.6352	3006.5877	3030.0779	3039.2417	3040.0935	3047.829	3055.4299	3078.8556	3102.3008	3107.7033	3108.9201	3148.9012	3819.6336
CCCOCC(C)=NO	CCCOCC(=NO)C	
InChI=1S/C6H13NO2/c1-3-4-9-5-6(2)7-8/h8H,3-5H2,1-2H3	InChI=1S/C6H13NO2/c1-3-4-9-5-6(2)7-8/h8H,3-5H2,1-2H3
