20
gdb 38585	3.51599	1.64562	1.48599	1.3713	82.32	-0.2275	0.0867	0.3142	959.1025	0.174943	-365.916934	-365.910586	-365.909642	-365.94717	28.048	
C	 0.0932501584	 1.4619016704	 0.1168631459	-0.251065
C	 1.321022627	 0.6410171381	-0.0417082572	-0.184781
N	-0.0404265845	 0.0031128837	-0.0054712391	-0.103863
C	-0.3964124691	-0.4710145743	-1.3881304578	-0.224847
C	 0.5843399265	 0.2317503732	-2.3370294672	-0.006266
C	 1.8115926396	-0.2847848977	-3.1719307279	-0.094577
C	 2.5655647611	 1.0038197675	-2.6714234484	-0.306149
C	 1.8225775011	 0.4143322718	-1.4306123877	 0.372411
C	 2.3348923039	-0.9908876534	-1.901886234	-0.2529
H	-0.1594074891	 1.856006992	 1.097512329	 0.115293
H	-0.2169622234	 2.0957961192	-0.7102829982	 0.107845
H	 1.9556479762	 0.4316476494	 0.8144018539	 0.091706
H	-0.3196394551	-1.5609202755	-1.3835685823	 0.113434
H	-1.4396809402	-0.2145090797	-1.5920439672	 0.103418
H	 0.1665428646	 1.159790949	-2.7383213196	 0.069805
H	 1.8077388956	-0.6696182115	-4.1925767181	 0.073402
H	 3.6572865995	 0.9533637426	-2.6705717169	 0.093833
H	 2.2041335849	 1.9633284599	-3.0509179858	 0.094051
H	 1.7901023905	-1.8665331579	-1.548070645	 0.101111
H	 3.4145319324	-1.1522916367	-1.8427856564	 0.08814
198.6287	296.463	404.15	408.5384	429.093	536.0614	575.5705	661.7731	691.5207	758.3603	777.9045	799.5771	824.0191	867.0725	903.7494	924.869	959.1844	969.7868	995.9857	1020.7188	1033.4023	1066.4718	1077.608	1096.1149	1102.7418	1115.3492	1133.4529	1145.2215	1156.8835	1169.894	1202.8267	1214.5519	1224.0024	1234.9374	1255.005	1272.6692	1319.9741	1378.3762	1405.0512	1489.9545	1502.1243	1509.9167	1545.9697	3048.8841	3053.1199	3060.584	3065.9652	3101.9926	3104.8329	3107.0454	3121.0617	3134.3152	3150.6948	3187.1224
C1C2N1CC1C3CC21C3	C1[C@H]2N1C[C@@H]1[C@H]3C[C@@]21C3	
InChI=1S/C8H11N/c1-5-2-8(1)6(5)3-9-4-7(8)9/h5-7H,1-4H2	InChI=1S/C8H11N/c1-5-2-8(1)6(5)3-9-4-7(8)9/h5-7H,1-4H2/t5-,6-,7-,8-,9?/m1/s1
