21
gdb 81655	2.21344	1.73569	1.60181	1.5915	82.26	-0.2359	0.0099	0.2458	1017.3335	0.18491	-387.084611	-387.07676	-387.075815	-387.116479	31.79	
C	-0.0600725513	 1.6554472835	-0.0460743581	-0.426897
C	 0.0290474687	 0.140799671	-0.0035486554	 0.006498
C	 0.7351108878	-0.6882677582	-1.1094681044	 0.082655
C	 1.8929598634	-0.012743557	-1.8657890844	-0.233968
C	 3.2425417055	-0.0370778829	-1.1110240469	-0.237278
C	 3.2384921465	 0.4098532652	 0.3343566563	-0.066181
C	 2.2921977346	 0.1475004186	 1.2384305471	-0.043236
C	 1.0289917668	-0.6061241629	 0.9319251166	 0.025817
O	 1.2300771782	-1.6078082981	-0.1013595916	-0.290368
H	 0.9242029102	 2.1244727327	-0.1177593419	 0.125547
H	-0.6594287895	 1.9849155882	-0.9023024132	 0.114853
H	-0.5453319085	 2.0391598556	 0.8582948288	 0.114506
H	-0.9668970143	-0.2849921561	 0.1531902924	 0.082326
H	 0.0648762858	-1.1979789121	-1.8101648516	 0.072047
H	 2.0413219232	-0.5180736607	-2.8268180839	 0.09885
H	 1.6111936201	 1.0192844939	-2.1063483531	 0.103953
H	 3.6329089352	-1.0614508103	-1.146470165	 0.13198
H	 3.9571639558	 0.5761042509	-1.6711433747	 0.093509
H	 4.1190026856	 0.9604720096	 0.6589383406	 0.089386
H	 2.4064702642	 0.5136242692	 2.2561242725	 0.082143
H	 0.605367552	-1.0516129302	 1.8384286601	 0.073858
128.3644	191.2657	217.2642	248.3352	321.6146	338.7307	433.8678	442.5028	541.0815	596.8525	673.416	730.8593	752.9021	800.4032	847.1141	879.7988	907.8909	926.2829	933.8233	988.8688	994.4782	1023.6985	1044.5845	1066.8069	1101.5745	1133.312	1164.5791	1174.5154	1222.9897	1230.6537	1259.9913	1281.0922	1311.3384	1351.2849	1356.209	1377.2558	1384.5621	1391.1214	1415.9206	1423.4634	1470.8429	1487.2946	1494.4167	1506.2094	1711.6759	3026.5707	3031.7847	3032.9324	3040.9805	3043.7449	3060.2179	3064.6293	3073.6597	3089.7446	3120.1339	3138.1117	3162.6154
CC1C2CCC=CC1O2	C[C@H]1[C@H]2CCC=C[C@@H]1O2	
InChI=1S/C8H12O/c1-6-7-4-2-3-5-8(6)9-7/h2,4,6-8H,3,5H2,1H3	InChI=1S/C8H12O/c1-6-7-4-2-3-5-8(6)9-7/h2,4,6-8H,3,5H2,1H3/t6-,7+,8-/m1/s1
