14
gdb 128255	4.03496	1.21075	0.9368	4.6474	73.51	-0.2429	-0.0944	0.1485	1183.1444	0.10052	-466.143235	-466.134931	-466.133986	-466.177302	29.021	
C	 0.0274466105	 1.4811713337	 0.0256573046	-0.337023
N	 0.1896937506	 0.0387930811	-0.0045091374	-0.343416
C	 0.6227064318	-0.7203976188	-1.0258648501	 0.502903
N	 0.7140233207	-2.0041103665	-0.8991404466	-0.354947
C	 1.1616524417	-2.7160408649	-1.9771792007	 0.450909
N	 1.3001423701	-3.9699173938	-1.9960057306	-0.526096
O	 1.4891468813	-1.9772932439	-3.1493986017	-0.259905
N	 1.3595446927	-0.593521297	-3.1958372857	 0.075419
N	 0.9509649156	 0.0147880113	-2.1992152615	-0.180751
H	 0.657164599	 1.9226642464	 0.8054091029	 0.142746
H	 0.3171112046	 1.8945493537	-0.9381665571	 0.183804
H	-1.0158502795	 1.7465626969	 0.2270808633	 0.142746
H	-0.040361689	-0.4926878821	 0.8227772708	 0.271939
H	 1.6462875599	-4.2804613061	-2.90270127	 0.231673
54.6559	71.825	113.7436	160.1953	231.4258	403.9752	410.0997	478.8178	561.5979	617.4686	619.8052	710.6083	740.3212	764.9758	789.2325	832.269	875.0692	1000.1489	1053.026	1094.127	1155.634	1191.6054	1285.062	1410.5211	1470.1299	1478.0982	1495.5188	1523.6094	1606.1343	1714.6074	1774.642	3035.7599	3088.2635	3179.2947	3514.2968	3616.6201
CNC1=NC(=N)ON=N1	CNC1=N[N]OC(=N1)[NH]	
InChI=1S/C3H5N5O/c1-5-3-6-2(4)9-8-7-3/h1H3,(H2,4,5,6)	InChI=1S/C3H5N5O/c1-5-3-6-2(4)9-8-7-3/h1H3,(H2,4,5,6)
