14
gdb 131579	7.15847	0.64819	0.59658	4.3415	77.06	-0.2485	-0.031	0.2174	1748.1163	0.100344	-436.636142	-436.627718	-436.626774	-436.671595	28.925	
O	 0.0001306331	 1.4456728461	 0.0095588982	-0.402652
C	-0.0060606926	 0.027045942	 0.0021348407	-0.227423
C	-1.3808482949	-0.4564710198	 0.0123592883	 0.296326
C	-2.5092922452	-0.8776532431	 0.0205751339	-0.096502
C	-3.8216381822	-1.4117031389	 0.0300328304	 0.233839
N	-4.8858972083	-0.6257549146	 0.0408603032	-0.19937
O	-5.9757888534	-1.4797764797	 0.047665033	-0.155515
C	-5.5470134866	-2.7505988886	 0.0408116813	 0.0604
C	-4.1940042198	-2.7932686789	 0.0295725294	-0.335098
H	 0.9197683036	 1.73020553	 0.0023418779	 0.293874
H	 0.5029434904	-0.3753670892	-0.8895831818	 0.123482
H	 0.5194055632	-0.3847036088	 0.8799313724	 0.123468
H	-6.3162684221	-3.5070655423	 0.0451964112	 0.155057
H	-3.5454489952	-3.6520104842	 0.0220213719	 0.130114
14.5171	74.8881	104.9292	202.4277	214.497	291.4147	413.9238	474.3257	517.8398	610.6246	617.2114	727.1182	801.7175	869.9199	912.0247	927.6768	955.822	1023.0523	1034.8739	1069.3604	1097.4802	1156.1733	1245.2914	1251.6793	1310.0727	1407.0302	1452.7035	1489.4382	1499.3696	1587.7674	2369.8802	2960.1684	2977.9767	3265.4951	3296.5309	3820.7767
OCC#CC1=NOC=C1	OCC#Cc1nocc1	
InChI=1S/C6H5NO2/c8-4-1-2-6-3-5-9-7-6/h3,5,8H,4H2	InChI=1S/C6H5NO2/c8-4-1-2-6-3-5-9-7-6/h3,5,8H,4H2
