20
gdb 94923	2.26325	1.47427	1.19788	3.4843	80.43	-0.24	-0.0302	0.2098	1137.853	0.171471	-403.141798	-403.133327	-403.132383	-403.174892	32.375	
C	-0.3647238782	 1.582719334	-0.0372502571	-0.403717
C	-0.1681550117	 0.0728589709	 0.026380508	 0.069437
C	 0.2754813391	-0.5999546193	-1.3005181433	-0.256735
C	 1.1994709561	-1.7616116544	-0.8648380704	-0.239194
C	 1.5882461613	-1.4336858527	 0.5749661426	-0.041466
C	 2.2340984965	-0.1148080436	 0.918628084	-0.103765
C	 2.902147774	 0.7494362264	-0.0901640138	 0.143186
O	 3.8868199929	 1.3980145311	 0.1782286098	-0.270945
N	 0.7728907379	-0.347651245	 1.0917598031	-0.113739
H	 0.5457695882	 2.0973774668	-0.3610207705	 0.124237
H	-1.1586153481	 1.8311850741	-0.7484741838	 0.120678
H	-0.6472326578	 1.9767429618	 0.9426335055	 0.133474
H	-1.1188770131	-0.3790072866	 0.3370707431	 0.092131
H	-0.5856195654	-0.9568578795	-1.8716630015	 0.107158
H	 0.7998123629	 0.1118801117	-1.9443742049	 0.113839
H	 0.6566820012	-2.7122702741	-0.8635351722	 0.115717
H	 2.0614676648	-1.8909994525	-1.5254454295	 0.117122
H	 1.7892031442	-2.2651429685	 1.2465154077	 0.102565
H	 2.7462159334	-0.048496834	 1.8755130471	 0.113263
H	 2.4829225219	 0.7647691933	-1.1145418838	 0.076754
77.6363	157.3908	185.2983	214.0557	235.1621	283.0791	357.4647	398.9934	464.1745	554.2159	651.3058	667.1037	725.4333	821.651	828.2671	876.8535	911.9523	944.8996	953.5649	988.8226	1029.3336	1048.0342	1080.2629	1108.4535	1143.0501	1150.6143	1165.9318	1203.1624	1231.3414	1288.024	1296.7693	1319.8817	1332.4847	1348.0006	1373.1159	1387.8238	1411.6896	1446.9837	1490.6377	1493.9628	1497.091	1515.5412	1793.7165	2941.8569	3018.1352	3041.2162	3052.3841	3059.5591	3087.1821	3103.159	3109.5811	3120.6991	3133.3374	3146.7736
CC1CCC2C(C=O)N12	C[C@H]1CC[C@H]2[C@@H](C=O)N12	
InChI=1S/C7H11NO/c1-5-2-3-6-7(4-9)8(5)6/h4-7H,2-3H2,1H3	InChI=1S/C7H11NO/c1-5-2-3-6-7(4-9)8(5)6/h4-7H,2-3H2,1H3/t5-,6-,7+,8?/m0/s1
