25
gdb 100119	3.49375	0.83014	0.82474	1.2109	89.08	-0.2522	0.0625	0.3147	1596.4319	0.226517	-389.486371	-389.47536	-389.474415	-389.522746	41.398	
C	 0.0976784141	 1.4466576211	 0.2920405674	-0.392529
C	-0.1033578389	-0.0267415833	-0.0735042883	-0.193774
C	 0.6761041719	-0.5057863765	-1.3217632358	 0.35439
C	 0.2609498864	 0.2649732699	-2.5778117522	-0.403443
O	 2.0725505439	-0.2234880267	-1.1597853919	-0.455875
C	 0.4492280232	-2.0290125314	-1.4869303449	-0.243027
C	 1.1404642828	-2.6864546966	-2.6626655603	 0.03814
C	 2.5819222785	-3.1133911468	-2.574937859	-0.239405
C	 1.4915549037	-4.1546774198	-2.6091004732	-0.286185
H	 1.1630769087	 1.6876306728	 0.3397737542	 0.125427
H	-0.3643838313	 2.1163299441	-0.4393227913	 0.11682
H	-0.3500360232	 1.6674595161	 1.265835677	 0.106812
H	 0.2124243556	-0.6524014149	 0.7741410086	 0.079448
H	-1.1704625506	-0.2374295777	-0.2177191038	 0.093065
H	 0.4256339693	 1.3362753875	-2.4440986668	 0.122209
H	 0.8568191733	-0.0550228902	-3.4352494593	 0.12493
H	-0.7971238135	 0.1003764142	-2.8036792172	 0.107426
H	 2.3801370889	-0.7016301183	-0.3820548419	 0.271825
H	 0.7818052393	-2.5213747721	-0.5608521798	 0.075304
H	-0.6321146861	-2.2123411635	-1.5489300226	 0.094623
H	 0.8176247509	-2.3292799186	-3.6361769341	 0.082843
H	 3.2124402963	-2.9918490649	-3.4485719025	 0.109763
H	 3.1003264398	-2.9519278789	-1.6362726172	 0.097733
H	 1.2746714898	-4.6941781003	-1.6923641676	 0.105453
H	 1.3691645271	-4.7478157753	-3.5087116774	 0.108027
31.4929	89.3217	115.3626	143.4616	202.6779	226.6917	274.4001	294.8481	311.1457	336.5055	347.1524	385.3421	426.5308	450.202	590.3757	746.5288	770.8178	783.7296	806.9114	839.5862	886.035	897.4595	934.7145	958.5489	981.8028	1003.6491	1033.3577	1058.5875	1063.4085	1072.9914	1112.8164	1138.6611	1159.9704	1177.6492	1196.8934	1211.9075	1232.8973	1273.1597	1293.2552	1343.4022	1366.7571	1383.3154	1405.8026	1411.7702	1433.0189	1466.4708	1471.752	1483.3127	1486.1651	1495.9965	1507.0985	1510.4586	1515.7707	2990.9164	3001.956	3032.9596	3042.5504	3047.7701	3052.067	3105.4208	3120.6013	3123.8017	3126.5161	3131.4199	3136.6961	3147.5162	3204.7047	3221.666	3801.1677
CCC(C)(O)CC1CC1	CC[C@@](C)(O)CC1CC1	
InChI=1S/C8H16O/c1-3-8(2,9)6-7-4-5-7/h7,9H,3-6H2,1-2H3	InChI=1S/C8H16O/c1-3-8(2,9)6-7-4-5-7/h7,9H,3-6H2,1-2H3/t8-/m1/s1
