15
gdb 7290	4.28589	1.1884	0.98387	5.1427	62.53	-0.2878	-0.0502	0.2377	1129.9368	0.116236	-399.831989	-399.823153	-399.822208	-399.866167	30.412	
C	-0.0240042022	 1.4187338926	 0.0554792525	-0.487884
C	 0.0549257021	-0.0853595959	-0.0463297228	 0.361744
O	 1.1029374225	-0.680109682	-0.1709695507	-0.305221
C	-1.2448091653	-0.9066061993	-0.0031553278	 0.042037
O	-0.9620278412	-2.2604540982	-0.1633250776	-0.422424
C	-2.0033195192	-0.6679929732	 1.3296469919	-0.365288
C	-3.2772428448	-1.3804924822	 1.3642522514	 0.280685
N	-4.2965131945	-1.9231633577	 1.3900208636	-0.297305
H	 0.9032396651	 1.8591978661	-0.3128698353	 0.16081
H	-0.8794702464	 1.8153139933	-0.4992506783	 0.148169
H	-0.1507104391	 1.7108764813	 1.1049168264	 0.159858
H	-1.8856502528	-0.5471625733	-0.8253227238	 0.112731
H	 0.0066635759	-2.3151909361	-0.2270400683	 0.299053
H	-1.3782190858	-1.0153360531	 2.1594610523	 0.163182
H	-2.2012803542	 0.3988514179	 1.4789727666	 0.149851
58.8886	78.9667	118.3027	135.4693	219.7928	319.5721	372.4892	393.3412	420.3524	461.4371	511.9057	592.5497	635.1324	822.4978	881.6935	932.5452	978.3078	1014.1105	1063.4321	1142.2757	1198.6555	1245.4505	1265.4137	1320.3721	1366.8216	1389.7229	1437.6614	1453.6478	1463.5417	1477.7731	1802.8822	2368.3155	2974.6711	3039.7728	3048.6663	3095.5939	3104.9817	3154.8672	3659.8047
CC(=O)C(O)CC#N	CC(=O)[C@@H](O)CC#N	
InChI=1S/C5H7NO2/c1-4(7)5(8)2-3-6/h5,8H,2H2,1H3	InChI=1S/C5H7NO2/c1-4(7)5(8)2-3-6/h5,8H,2H2,1H3/t5-/m0/s1
