16
gdb 42703	3.2652	1.88245	1.79776	1.3472	69.98	-0.2372	-0.0248	0.2124	822.2576	0.126967	-400.679466	-400.673581	-400.672637	-400.709625	24.628	
O	 0.0154305035	 0.0368903025	 0.090376019	-0.322286
C	-0.0105232252	 1.2337202993	 0.0630040052	 0.440826
C	-1.1269729938	 2.2777655221	-0.0386267157	-0.201386
C	-1.0724947631	 3.2283934628	 1.2209522305	-0.00052
C	-0.0078080247	 2.8247146032	 2.2573643269	-0.256877
C	 1.0035751546	 3.2726230427	 1.1863154168	-0.00052
C	 1.0564512949	 2.3242815666	-0.0750547042	-0.201387
C	-0.0655611883	 3.2478084288	-0.6639985531	 0.003266
N	-0.0648461124	 4.158003037	 0.5411602469	-0.157359
H	-2.0989314227	 2.0160259068	-0.4520109044	 0.09258
H	-2.0286493296	 3.6448019879	 1.5391272795	 0.088544
H	-0.0087056555	 3.5243536498	 3.0969554332	 0.120982
H	 0.0202649413	 1.7977284941	 2.6286019637	 0.123293
H	 1.9512100971	 3.7295905288	 1.4727270802	 0.088544
H	 2.0243488439	 2.1038705672	-0.5208019525	 0.09258
H	-0.0909175999	 3.6446387403	-1.6771068721	 0.089719
122.5122	325.1438	394.0109	463.848	536.2157	653.9473	689.1836	774.1302	796.8566	820.3747	826.9941	832.7002	882.7165	925.7964	931.3188	973.7127	984.0916	996.9673	1003.9823	1033.6443	1056.9747	1083.3266	1119.2301	1164.6729	1184.1672	1190.1927	1192.9424	1202.7138	1236.3001	1259.8194	1265.3801	1312.4788	1329.7641	1481.2047	1880.43	3064.4243	3102.9776	3104.2635	3124.0034	3126.0254	3139.162	3143.2767
O=C1C2C3CC4C1C2N34	O=C1[C@H]2[C@H]3C[C@H]4[C@@H]1[C@@H]2N34	
InChI=1S/C7H7NO/c9-7-4-2-1-3-5(7)6(4)8(2)3/h2-6H,1H2	InChI=1S/C7H7NO/c9-7-4-2-1-3-5(7)6(4)8(2)3/h2-6H,1H2/t2-,3+,4+,5-,6-
