25
gdb 105364	2.93568	0.92458	0.83444	0.2886	92.62	-0.26	0.0877	0.3478	1556.4191	0.228458	-352.333935	-352.323793	-352.322849	-352.369781	38.584	
C	-0.0178095955	 1.7250653165	-0.0456124787	-0.404118
C	 0.0030414844	 0.1936096432	-0.0702494857	-0.242505
C	-1.3419089983	-0.5290681449	-0.0072443418	 0.390742
C	-1.2377013259	-2.0346674391	-0.2446931701	-0.296918
C	-0.3780652028	-2.7923158748	 0.7505108626	 0.042395
C	-0.9514588509	-3.2800992378	 2.0577092062	-0.253154
C	-0.5990281737	-4.2675164218	 0.9717631333	-0.279856
C	-2.4093146362	-0.0601157786	 0.9526890093	-0.295487
C	-2.5921265393	 0.1360028296	-0.5348769098	-0.316498
H	 1.005457149	 2.1131856181	-0.0469475167	 0.112886
H	-0.5250254609	 2.1421684022	-0.920777224	 0.119411
H	-0.5114714477	 2.1180017911	 0.8491719787	 0.118542
H	 0.5209993523	-0.1320872993	-0.9837235353	 0.092321
H	 0.6229322607	-0.1576654952	 0.7646202654	 0.101209
H	-2.2467521147	-2.4669949659	-0.2354137189	 0.083246
H	-0.8441411498	-2.2044590089	-1.2578737988	 0.092859
H	 0.6601593011	-2.4745704512	 0.7873769713	 0.082464
H	-0.3292998512	-3.2437794269	 2.9452800399	 0.107459
H	-2.0033342359	-3.0968856569	 2.2496306883	 0.108505
H	-1.4148959941	-4.7426771735	 0.4360739876	 0.107209
H	 0.2661350561	-4.9057664756	 1.1143804971	 0.107674
H	-3.0139868305	-0.8104635951	 1.4505659553	 0.105095
H	-2.2203429684	 0.8194730312	 1.5583878607	 0.1066
H	-2.5301523164	 1.146695387	-0.9210843976	 0.107279
H	-3.3180191314	-0.4854020735	-1.049701538	 0.102642
42.3632	58.7629	98.1603	149.0025	223.2035	267.8198	294.8452	329.5866	343.0356	366.0831	434.7356	518.38	683.4644	771.4228	777.1172	785.3158	803.2393	835.159	875.6411	896.0919	912.2826	918.5072	948.2475	985.0573	1022.7418	1031.804	1049.2554	1057.5278	1074.814	1078.299	1079.4926	1126.7531	1144.9563	1146.7145	1187.2448	1198.9014	1228.1254	1257.5835	1267.9882	1315.3036	1339.0823	1362.6021	1388.6756	1411.7057	1424.1384	1462.9063	1468.6979	1478.1495	1488.7868	1499.6092	1505.9174	1508.8609	1515.684	2994.428	3004.0923	3036.0193	3036.5534	3039.5942	3100.6939	3106.1199	3127.0942	3131.0168	3132.8897	3135.5981	3145.2738	3204.4111	3207.1038	3219.5924	3221.3446
CCC1(CC2CC2)CC1	CCC1(CC2CC2)CC1	
InChI=1S/C9H16/c1-2-9(5-6-9)7-8-3-4-8/h8H,2-7H2,1H3	InChI=1S/C9H16/c1-2-9(5-6-9)7-8-3-4-8/h8H,2-7H2,1H3
