19
gdb 83534	2.2492	1.96316	1.34207	2.4561	70.33	-0.2242	0.0527	0.2769	999.1126	0.159366	-460.129404	-460.121403	-460.120459	-460.161149	32.738	
C	-0.0895333202	 1.6045614247	 0.074914315	-0.476874
C	-0.0049824074	 0.089420952	 0.0292159741	 0.417514
O	-1.3187447984	-0.4756934069	 0.0915299319	-0.494402
C	 0.8070096981	-0.6528582839	-1.0897613047	-0.169039
C	 2.1770699649	-0.0013744542	-0.9166073022	-0.098674
O	 2.2777884065	-0.0001013545	 0.5392795899	-0.275815
C	 1.0547735554	-0.6412718718	 0.9236524484	-0.029241
C	 0.9884144762	-1.8471108328	-0.0696963248	 0.172063
O	-0.0188379543	-2.801037904	 0.0482561777	-0.455689
H	 0.8960013724	 2.0595704438	 0.1801317694	 0.146799
H	-0.5763183726	 1.9945762549	-0.824497307	 0.127219
H	-0.687177002	 1.9198134569	 0.9396983322	 0.105587
H	-1.7371999495	-0.1571345359	 0.899296147	 0.285812
H	 0.4117524519	-0.7859484762	-2.0963869727	 0.080428
H	 2.9924962229	-0.5924870892	-1.3479998498	 0.110692
H	 2.2468999665	 1.024371049	-1.294701757	 0.103329
H	 0.9916453174	-0.7249479046	 2.0090296001	 0.075283
H	 1.9361621028	-2.3848612327	-0.1569973933	 0.08869
H	-0.8533151006	-2.3118591947	 0.0819151158	 0.286318
180.9212	195.2536	268.0301	309.254	322.915	351.1943	364.0486	421.9401	425.5748	479.4107	599.5778	620.4046	649.6294	665.9803	820.6659	883.7105	893.5815	939.9764	951.1217	963.2315	980.6375	1017.7649	1054.1802	1078.0549	1128.9799	1144.9747	1168.0433	1179.6727	1203.7881	1216.8446	1234.5271	1264.1981	1276.9526	1344.3393	1351.2181	1383.9463	1406.4623	1479.9798	1484.1067	1497.2301	1537.0217	3026.9267	3030.7382	3067.2919	3080.943	3091.3796	3121.1627	3129.9002	3144.2834	3723.4329	3797.9922
CC1(O)C2COC1C2O	C[C@@]1(O)[C@H]2CO[C@@H]1[C@H]2O	
InChI=1S/C6H10O3/c1-6(8)3-2-9-5(6)4(3)7/h3-5,7-8H,2H2,1H3	InChI=1S/C6H10O3/c1-6(8)3-2-9-5(6)4(3)7/h3-5,7-8H,2H2,1H3/t3-,4-,5+,6+/m0/s1
