18
gdb 35136	5.45781	0.80309	0.77119	4.6494	77.8	-0.2748	0.0047	0.2795	1484.9914	0.147867	-401.927298	-401.918815	-401.917871	-401.961502	30.999	
N	-0.4485971255	-1.11007973	-0.4834698902	-0.318305
C	-0.1995704534	-0.0111938558	-0.2262760648	 0.272774
C	 0.1012950733	 1.3863411428	 0.1106800724	-0.002846
C	-0.0866010527	 1.7667909874	 1.6005645612	-0.320721
C	 1.4570729074	 1.8749680202	 1.6218108997	 0.14546
O	 1.5116297362	 1.649859298	 0.1774568499	-0.291971
C	 2.081924653	 3.1679492159	 2.0324029024	 0.008911
C	 2.5808511506	 3.3297469036	 3.4513305917	-0.273152
C	 3.5628138411	 3.2291207247	 2.3166157141	-0.265392
H	-0.3991882107	 2.0346449446	-0.6173850033	 0.128485
H	-0.6011251653	 2.7187055937	 1.7384725182	 0.124301
H	-0.5352242357	 1.0071059458	 2.2391823855	 0.13568
H	 1.939293781	 1.0394277433	 2.147108929	 0.086556
H	 1.6391305967	 4.0442690958	 1.5666153788	 0.086649
H	 2.4360372578	 4.2907126667	 3.9310795999	 0.12007
H	 2.4893555051	 2.481542448	 4.1219848261	 0.118022
H	 4.133794844	 2.3122474451	 2.216335072	 0.124104
H	 4.0982619172	 4.1214764103	 2.0141049875	 0.121375
41.4749	84.1943	126.3713	219.0555	230.375	285.1435	365.0627	448.7202	533.8649	588.3069	736.2277	782.7898	796.809	833.3648	884.3328	917.4343	932.3186	970.8671	994.0169	1007.0184	1020.4558	1064.0604	1084.3507	1086.587	1132.9636	1139.0569	1197.5143	1221.6088	1232.5428	1251.932	1256.6454	1304.3375	1329.4758	1362.3836	1447.256	1471.5479	1489.1017	1506.8709	2354.2792	3013.8707	3045.5923	3093.2303	3135.0979	3139.9469	3145.8345	3157.3622	3214.7682	3229.7707
N#CC1CC(O1)C1CC1	N#C[C@H]1C[C@@H](O1)C1CC1	
InChI=1S/C7H9NO/c8-4-6-3-7(9-6)5-1-2-5/h5-7H,1-3H2	InChI=1S/C7H9NO/c8-4-6-3-7(9-6)5-1-2-5/h5-7H,1-3H2/t6-,7-/m1/s1
