17
gdb 70872	2.93213	1.57409	1.22188	2.0769	67.74	-0.2233	0.0565	0.2798	1015.315	0.13401	-458.897334	-458.889113	-458.888168	-458.929227	33.048	
O	 0.0884461837	 1.2956577001	 0.2732448496	-0.472748
C	 0.1203699301	-0.0691897684	 0.0507674505	 0.304288
C	 1.0376485017	-0.884477478	-0.8494995961	-0.362828
C	 0.1026309322	-2.0747920544	-0.4479892861	 0.387281
O	-0.1410456958	-3.1315151673	-1.3088372678	-0.474844
C	 0.3822887601	-2.2935729805	 1.075936366	-0.354898
C	-0.2842846769	-0.9397431314	 1.242872727	 0.404466
O	-0.6703783129	-0.3634689842	 2.4287056245	-0.475575
C	-1.0371125731	-1.0489111348	-0.0765959259	-0.309547
H	-0.331939778	 1.729586539	-0.4767333418	 0.294102
H	 0.9018296737	-0.6332661028	-1.9065312192	 0.09651
H	 2.1037820357	-0.9564999223	-0.6039848126	 0.088889
H	 0.6560750297	-3.6710384493	-1.3600696364	 0.282622
H	-0.2435581148	-3.0987523837	 1.4705884841	 0.110969
H	 1.4229437535	-2.4187688264	 1.3989071734	 0.085436
H	-0.5339404305	 0.5890451687	 2.3345023893	 0.293771
H	-2.0728319283	-0.9553611742	-0.3673117885	 0.102104
201.5404	221.7041	228.9501	266.1831	294.02	324.2455	357.1525	401.795	460.7953	470.3189	491.7649	588.4243	643.7248	674.3368	737.9428	770.9232	847.0001	864.638	893.3943	990.6784	1038.505	1046.7942	1069.7475	1090.179	1104.1259	1147.3544	1172.8582	1195.3782	1216.924	1276.0728	1299.9503	1351.6796	1383.708	1414.6117	1437.4536	1494.1152	1516.3598	3023.0851	3030.4422	3090.6172	3103.4325	3233.4835	3756.5654	3796.6071	3803.958
OC12CC3(O)CC1(O)C23	O[C@@]12C[C@@]3(O)C[C@]1(O)[C@@H]23	
InChI=1S/C6H8O3/c7-4-1-5(8)3(4)6(5,9)2-4/h3,7-9H,1-2H2	InChI=1S/C6H8O3/c7-4-1-5(8)3(4)6(5,9)2-4/h3,7-9H,1-2H2/t3-,4-,5-,6+
