19
gdb 90870	2.79122	1.77583	1.57949	1.6812	73.43	-0.2172	0.0717	0.2889	942.8948	0.160793	-422.982236	-422.974991	-422.974047	-423.013603	29.526	
C	-0.5417068341	 1.5135217897	 0.0526193758	-0.393283
C	-0.0234517542	 0.0748617794	-0.0008329699	 0.145244
C	 0.5903366481	-0.2953969243	-1.370786587	-0.255474
C	 2.0759382881	 0.0268908935	-1.4360365622	 0.0929
O	 2.3777090848	 1.3603757604	-0.9122019898	-0.296955
C	 3.0775929932	 0.7807418821	 0.1865058031	 0.040593
C	 2.226584396	-0.2077293659	 0.9440376315	 0.112929
O	 0.8473036351	-0.1670286913	 1.1204273939	-0.288684
C	 2.8926486036	-0.6440614342	-0.3263638084	-0.209025
H	 0.2537651895	 2.2207399004	-0.1871492153	 0.144237
H	-1.3590463841	 1.6461405764	-0.6653698978	 0.10257
H	-0.9269085417	 1.7288374275	 1.0530884541	 0.116435
H	-0.8713338835	-0.596827942	 0.178767845	 0.080459
H	 0.4776436619	-1.3682262102	-1.5694188168	 0.106628
H	 0.0402425129	 0.2370513683	-2.1534927802	 0.109776
H	 2.4906277608	-0.0799695163	-2.4419032706	 0.08497
H	 3.9290274338	 1.3241639919	 0.5816543562	 0.104383
H	 2.6923994433	-0.5760513784	 1.8542772175	 0.10611
H	 3.5627664865	-1.486084967	-0.4414376191	 0.096187
118.9947	194.4041	246.9658	329.5674	366.1388	396.124	468.0034	537.4133	662.8138	708.8444	729.6599	781.6209	794.106	835.6931	850.0168	906.5353	942.8142	964.0794	988.2022	1022.0907	1042.8848	1050.1771	1056.3882	1095.3811	1108.7262	1116.802	1143.8547	1194.7326	1232.451	1252.3574	1302.5676	1307.5116	1342.6391	1372.1854	1384.5336	1390.5747	1403.9801	1443.1503	1472.7596	1488.0007	1509.3546	3022.6753	3035.4928	3041.9916	3069.6296	3081.7206	3107.8895	3149.2736	3151.7888	3171.1696	3193.11
CC1CC2OC3C(O1)C23	C[C@H]1C[C@H]2O[C@H]3[C@@H](O1)[C@@H]23	
InChI=1S/C7H10O2/c1-3-2-4-5-6(8-3)7(5)9-4/h3-7H,2H2,1H3	InChI=1S/C7H10O2/c1-3-2-4-5-6(8-3)7(5)9-4/h3-7H,2H2,1H3/t3-,4+,5+,6-,7+/m0/s1
