13
gdb 19607	4.82057	1.89968	1.63427	3.7444	57.19	-0.248	-0.0026	0.2454	759.2246	0.095636	-398.542874	-398.536642	-398.535698	-398.573121	23.94	
O	 0.0674236981	 1.3018093971	 0.1480347915	-0.432332
C	 0.051079979	-0.0848070205	-0.0732323225	 0.120039
C	-1.4070163478	-0.5303748044	-0.2040557386	-0.048671
C	-1.3799196647	-0.4063271616	-1.6633049765	-0.028023
C	 0.1911199091	-0.5062792977	-1.5795846964	-0.262298
C	-0.0863823108	-1.9958272016	-1.4735111155	 0.433478
O	 0.4657632332	-3.0122994411	-1.7474833602	-0.311541
N	-1.4704105336	-1.7916971741	-1.0340098147	-0.208416
H	 0.9841237794	 1.5919194004	 0.1924138164	 0.293692
H	 0.6945539041	-0.6201505721	 0.6387482723	 0.089082
H	-2.2138371033	-0.3813435705	 0.5014624497	 0.122632
H	-2.0743885908	-0.0845370802	-2.423704286	 0.130378
H	 0.952278928	-0.0782093838	-2.2258822994	 0.10198
141.1819	236.0648	284.682	312.6027	467.3935	519.8895	614.2139	728.2065	775.4128	797.8393	841.9724	868.8079	901.3804	924.8738	960.0728	1008.6918	1033.119	1064.9892	1099.0298	1148.5205	1155.8874	1183.1958	1214.0974	1222.5544	1316.1799	1340.1839	1438.135	1924.6083	3010.296	3166.1433	3209.6216	3248.1018	3821.2825
OC1C2C3C1C(=O)N23	O[C@H]1[C@H]2[C@H]3[C@@H]1C(=O)N23	
InChI=1S/C5H5NO2/c7-4-1-2-3(4)6(2)5(1)8/h1-4,7H	InChI=1S/C5H5NO2/c7-4-1-2-3(4)6(2)5(1)8/h1-4,7H/t1-,2+,3+,4+,6?/m0/s1
