22
gdb 63031	3.29472	1.22086	1.15686	1.5486	87.07	-0.2183	0.0793	0.2976	1207.9904	0.193461	-367.157934	-367.149024	-367.148079	-367.190783	35.452	
C	-0.0210152442	 1.4304480172	-0.0523473797	-0.443725
C	-0.0358746224	-0.0876820395	-0.0483608631	 0.334211
C	-1.3008480315	-0.6754407588	 0.5449822154	-0.471532
C	 0.7374010481	-0.7353745454	-1.1374439604	-0.166009
N	 1.3184995964	-0.6103989899	 0.2741575653	-0.175856
C	 1.2448614196	-2.1132045743	 0.3893596686	-0.254734
C	 0.7411793496	-2.2423952863	-1.0502569212	 0.373069
C	-0.190417778	-3.2375650016	-1.6835297371	-0.324306
C	 1.2636664107	-3.1798567034	-2.0947346806	-0.341813
H	 0.9328531886	 1.8072322764	-0.4293542288	 0.126098
H	-0.8286420276	 1.8266994421	-0.6776711063	 0.109854
H	-0.1564982917	 1.8172494454	 0.9635401546	 0.118184
H	-2.1755713927	-0.2194087296	 0.0692719333	 0.118017
H	-1.381788543	-1.7541892943	 0.4102258047	 0.129887
H	-1.3579057133	-0.4537300663	 1.6172048957	 0.11983
H	 1.146221598	-0.1680213617	-1.9707724017	 0.08434
H	 2.2519131592	-2.510768959	 0.5404449075	 0.110307
H	 0.5964993977	-2.4741363194	 1.1944899747	 0.100033
H	-0.5162671772	-4.0818151735	-1.0838618091	 0.112737
H	-0.9366466744	-2.8727380481	-2.3820281871	 0.113714
H	 1.5012520341	-2.7724009631	-3.072634555	 0.114606
H	 1.9199768439	-3.9840364168	-1.7764833098	 0.11309
120.9473	172.3759	187.5325	207.3154	239.418	313.4113	335.9212	363.4271	392.636	461.2778	502.008	584.9122	652.2574	771.8796	790.872	846.7655	854.6567	878.1363	924.9475	927.9546	961.9999	974.1917	1014.6986	1021.8878	1039.7508	1056.3579	1067.5355	1076.1037	1092.2868	1145.79	1162.9572	1189.0406	1222.206	1262.1516	1283.6518	1302.8653	1374.0217	1408.5937	1417.3427	1425.4852	1463.1852	1480.2385	1484.7903	1497.0751	1504.6907	1508.391	1515.7536	3030.4927	3035.368	3043.7157	3089.309	3094.4975	3095.6245	3119.7134	3121.4106	3124.4086	3130.5345	3141.8471	3197.8698	3213.2594
CC1(C)C2N1CC21CC1	CC1(C)[C@H]2N1CC12CC1	
InChI=1S/C8H13N/c1-7(2)6-8(3-4-8)5-9(6)7/h6H,3-5H2,1-2H3	InChI=1S/C8H13N/c1-7(2)6-8(3-4-8)5-9(6)7/h6H,3-5H2,1-2H3/t6-,9?/m1/s1
