23
gdb 116439	2.3806	1.25726	0.95155	2.5938	81.17	-0.2385	0.074	0.3124	1320.8977	0.206766	-425.430659	-425.421178	-425.420234	-425.464605	36.24	
C	-0.2325746876	 1.5819390018	-0.0574743303	-0.400559
C	-0.0011300697	 0.0615647324	-0.0041197329	-0.008715
C	 0.7665860925	-0.4511518545	-1.2411570252	-0.218578
C	 2.2585925041	-0.1165599209	-1.1645156306	-0.069141
O	 2.8480380689	-0.6243667882	 0.0194098392	-0.246864
C	 2.2435530712	-0.0946316008	 1.1866262772	-0.082423
C	 0.7456098191	-0.4278578279	 1.2614241958	 0.02676
C	 0.128997041	 0.0701976339	 2.5647490912	-0.109471
O	 0.7249123611	-0.6560567562	 3.6328005613	-0.424403
H	 0.6991898562	 2.1536027123	-0.012098911	 0.119489
H	-0.7374186231	 1.8540657663	-0.9905782903	 0.112336
H	-0.8671891314	 1.9221194248	 0.7663853632	 0.114864
H	-0.9923026132	-0.4112423309	-0.0048409877	 0.067796
H	 0.6649339291	-1.5411628093	-1.3034589231	 0.100726
H	 0.3398016896	-0.0315430804	-2.1602411711	 0.087544
H	 2.8020423298	-0.5734460994	-1.997121413	 0.102987
H	 2.4153435841	 0.9741642783	-1.2265736481	 0.083179
H	 2.7663207312	-0.5353186677	 2.0376163377	 0.122619
H	 2.3948166416	 0.9990640775	 1.2287537577	 0.076266
H	 0.6713251231	-1.5233631318	 1.2800964939	 0.088191
H	 0.3022219305	 1.15125647	 2.6835262752	 0.086612
H	-0.962389157	-0.0854291466	 2.5392771912	 0.084033
H	 0.4105315387	-0.2857174626	 4.4623981697	 0.286751
99.4158	130.7651	169.2146	205.9459	211.9943	254.6572	296.7723	323.1722	353.0955	412.7089	441.916	507.4316	544.1417	640.6094	780.9363	832.8301	865.9283	901.174	964.165	980.3944	995.607	1029.0534	1040.5526	1056.6785	1091.0861	1103.2126	1141.202	1170.7873	1175.2938	1228.2514	1236.8055	1259.9558	1271.7331	1307.6993	1331.9646	1345.179	1353.1471	1369.0226	1382.6008	1402.3692	1416.7778	1427.1751	1456.4992	1476.0486	1491.5421	1497.5158	1505.9265	1510.4534	1521.0716	2944.6948	2958.0654	2959.9541	2989.755	3004.5948	3024.1424	3030.7957	3036.9992	3068.3013	3078.928	3098.1406	3107.4858	3112.0302	3833.2494
CC1CCOCC1CO	C[C@H]1CCOC[C@H]1CO	
InChI=1S/C7H14O2/c1-6-2-3-9-5-7(6)4-8/h6-8H,2-5H2,1H3	InChI=1S/C7H14O2/c1-6-2-3-9-5-7(6)4-8/h6-8H,2-5H2,1H3/t6-,7+/m0/s1
