16
gdb 127597	2.41707	1.70779	1.008	1.4489	78.32	-0.2065	-0.0494	0.1571	1120.094	0.125463	-434.101208	-434.092767	-434.091823	-434.134192	30.969	
C	-0.0255666451	 1.4416340923	-0.0042964851	-0.335406
N	-0.0178717059	-0.0050643297	 0.0306690239	-0.039447
N	-0.0200353306	-0.6971751336	-1.102916916	-0.241927
C	-0.018296669	-1.9897778827	-0.7591069257	-0.07326
C	-0.0156332183	-2.1448575318	 0.6421150372	 0.172538
N	-0.0704566625	-3.2815307795	 1.4035830355	-0.609965
C	-0.0088662556	-0.8304970742	 1.1388749394	 0.218017
C	 0.053026967	-0.4218093034	 2.5123977545	 0.064386
O	 0.0867455999	-1.2141812414	 3.4463067831	-0.322464
H	 0.8671380565	 1.8522426004	 0.4786782991	 0.143127
H	-0.0355317599	 1.7346073533	-1.0534220526	 0.165312
H	-0.9143824264	 1.8421852275	 0.4936186789	 0.144357
H	-0.0221347203	-2.7513680593	-1.5240739591	 0.11366
H	 0.30210703	-4.1262239116	 1.001124649	 0.252905
H	 0.1307185666	-3.1308481375	 2.383644462	 0.275609
H	 0.0806330334	 0.6718340012	 2.7028351859	 0.072556
100.4044	152.8363	174.1782	196.053	264.2064	289.2107	343.8804	404.0857	427.1945	522.2919	583.8116	632.4896	639.3476	723.3034	767.2497	833.7591	837.7264	1017.5328	1033.2766	1077.1081	1132.8889	1149.2313	1230.9516	1284.0766	1382.6226	1397.7802	1404.7794	1444.5368	1459.9474	1483.5803	1509.5044	1542.8406	1567.2048	1649.9012	1732.6845	2902.8341	3037.5702	3095.5144	3166.0149	3251.5947	3545.0424	3680.758
CN1N=CC(N)=C1C=O	Cn1ncc(N)c1C=O	
InChI=1S/C5H7N3O/c1-8-5(3-9)4(6)2-7-8/h2-3H,6H2,1H3	InChI=1S/C5H7N3O/c1-8-5(3-9)4(6)2-7-8/h2-3H,6H2,1H3
