19
gdb 57951	3.20822	1.01625	0.89957	3.2131	75.69	-0.242	0.0151	0.2571	1389.9481	0.156472	-456.388888	-456.378097	-456.377153	-456.426575	36.295	
C	-0.2023888476	 1.3649316117	 0.144363967	-0.336711
N	-0.0482928552	-0.0651226288	-0.0608304961	-0.128589
C	 0.6023143627	-0.8016748927	 1.0065983382	-0.333095
C	-0.4557139773	-0.5951658812	-1.2437809004	 0.533805
O	-0.9347121792	 0.0091332271	-2.1677215454	-0.391176
O	-0.3577665573	-1.9897745114	-1.2380724917	-0.281984
C	 0.1873375428	-2.6126876141	-2.3354829057	 0.387252
C	-0.441583532	-3.9654870934	-2.5222624645	-0.461707
N	 1.1063853374	-2.0498989835	-2.9909715252	-0.472628
H	 0.777191866	 1.8467016741	 0.2554888858	 0.12627
H	-0.71530705	 1.7880755393	-0.7170864751	 0.171999
H	-0.7852798814	 1.5589348209	 1.053146484	 0.1217
H	 0.0350267634	-0.6993530394	 1.940590883	 0.123869
H	 0.6704613111	-1.8548219231	 0.7495604563	 0.156996
H	 1.6130223834	-0.4102400384	 1.1806593528	 0.127277
H	-1.4964017243	-3.8484091196	-2.790759054	 0.15607
H	 0.0683156741	-4.5310268746	-3.3037016235	 0.128964
H	-0.407002403	-4.5322788965	-1.5868277544	 0.145318
H	 1.4128848364	-2.6414667565	-3.7606890711	 0.226368
24.4399	55.9212	93.3596	98.245	143.6439	149.2184	195.26	237.3785	294.6962	355.5243	410.4508	512.6335	547.5869	550.5907	637.9691	736.6166	813.1138	880.3834	910.7674	998.0404	1052.1577	1068.9866	1078.426	1084.4035	1135.622	1159.8868	1184.2885	1285.4253	1342.2974	1406.98	1429.2774	1439.2763	1467.05	1471.3148	1479.9922	1488.4592	1500.6672	1502.8561	1543.5086	1745.1822	1842.0691	3011.1907	3019.2337	3046.9561	3055.5998	3064.7789	3110.4788	3143.8285	3174.2652	3190.9736	3512.0827
CN(C)C(=O)OC(C)=N	CN(C)C(=O)O[C](C)[NH]	
InChI=1S/C5H10N2O2/c1-4(6)9-5(8)7(2)3/h6H,1-3H3	InChI=1S/C5H10N2O2/c1-4(6)9-5(8)7(2)3/h6H,1-3H3
