18
gdb 44624	4.09342	1.3881	1.33659	3.9372	75.12	-0.235	0.0223	0.2573	1000.2187	0.151774	-401.974795	-401.968303	-401.967359	-402.005394	27.236	
O	 0.0248879577	 0.0345241747	 0.0604011984	-0.375127
C	 0.0292984419	 1.2367006114	-0.0289933778	 0.405558
N	-1.0665939145	 2.0966918366	-0.1352065838	-0.328514
C	-0.4585394841	 3.4248959296	 0.0197396081	-0.012122
C	 0.7342778326	 3.3723765909	-0.9814448905	-0.004413
C	 1.6171609095	 4.5736421952	-0.6421681615	-0.237391
C	 1.5760003225	 4.4971218596	 0.9163861916	-0.237339
C	 0.6824398785	 3.2692298585	 1.0838091856	-0.023164
C	 1.1868720063	 2.2307355038	 0.0016328169	-0.167526
H	-1.9226506448	 1.8530038387	 0.3418313278	 0.246986
H	-1.1723688852	 4.2488317322	 0.0319606661	 0.078713
H	 0.5413549388	 3.1444203803	-2.0302842878	 0.078501
H	 2.6285092639	 4.4683906983	-1.0445328212	 0.106981
H	 1.2022080633	 5.5091827716	-1.0296542734	 0.102658
H	 2.5649546617	 4.3563258189	 1.3614219489	 0.107322
H	 1.1342543588	 5.390007116	 1.3701064381	 0.102459
H	 0.4462987939	 2.9318885173	 2.0948227248	 0.073002
H	 2.1943988594	 1.8192156963	 0.0073029594	 0.083416
169.7889	260.8133	281.723	397.2664	425.3032	500.2323	577.3234	677.3479	695.3896	710.0072	822.372	830.5287	859.8138	910.7418	916.6452	937.2659	955.8743	959.3678	1013.5817	1024.6414	1027.9825	1041.986	1079.2545	1112.9148	1177.6566	1189.0088	1201.4644	1207.4737	1247.3872	1255.9939	1266.1509	1276.6504	1309.2869	1319.5852	1340.0298	1395.1667	1490.2896	1511.1356	1862.9467	3047.9364	3057.1408	3084.1824	3101.6716	3103.1099	3112.8738	3120.5682	3143.2093	3611.9064
O=C1NC2C3CCC2C13	O=C1N[C@@H]2[C@H]3CC[C@@H]2[C@@H]13	
InChI=1S/C7H9NO/c9-7-5-3-1-2-4(5)6(3)8-7/h3-6H,1-2H2,(H,8,9)	InChI=1S/C7H9NO/c9-7-5-3-1-2-4(5)6(3)8-7/h3-6H,1-2H2,(H,8,9)/t3-,4+,5-,6+
