17
gdb 55510	3.0753	1.00013	0.83738	3.6699	73.21	-0.2456	-0.0666	0.179	1381.5834	0.133361	-455.190182	-455.180217	-455.179272	-455.226737	35.087	
C	 0.4791560615	 0.6419315521	-0.5260516959	-0.483476
C	-0.3237935102	-0.0059253817	 0.5801639205	 0.38355
O	 0.0050773681	 0.0227282701	 1.7398604556	-0.282574
C	-1.6202858775	-0.7211056015	 0.1529670049	-0.395305
C	-1.3228128887	-2.0622754061	-0.4925200604	 0.372729
O	-0.5767706787	-2.1944985808	-1.4413223506	-0.329811
C	-2.0117058924	-3.2936756643	 0.0884975134	 0.274953
N	-1.5688396132	-4.4454449	-0.4899060605	-0.535405
N	-2.8806026428	-3.124744619	 1.0138440903	-0.498539
H	 1.4222930716	 1.0217077069	-0.131762892	 0.138682
H	 0.6513103935	-0.0795271563	-1.3304366457	 0.16724
H	-0.0970463391	 1.4694736324	-0.9576634091	 0.137865
H	-2.2644340013	-0.8612419128	 1.0181783473	 0.172357
H	-2.1315683724	-0.1130258395	-0.6028835637	 0.13597
H	-0.99227692	-4.3449415773	-1.3111567941	 0.273257
H	-2.074887287	-5.3042649561	-0.3606688911	 0.256595
H	-3.2898821813	-4.0104947561	 1.3183869511	 0.211913
23.3638	50.416	85.1848	166.4641	172.7546	258.2342	292.9134	360.2149	404.5873	422.6158	492.1613	512.2865	539.7603	555.3102	612.7177	711.3111	782.2789	833.7866	880.6175	903.7536	1016.6541	1050.1554	1072.7469	1105.0428	1135.8987	1169.7948	1223.4166	1297.4968	1381.08	1426.8056	1456.4625	1470.3226	1475.7432	1599.6864	1715.7022	1771.8611	1826.6896	3036.4706	3049.1707	3105.5256	3157.3714	3171.4917	3450.8101	3589.1456	3722.5294
CC(=O)CC(=O)C(N)=N	CC(=O)CC(=O)C(=N)N	
InChI=1S/C5H8N2O2/c1-3(8)2-4(9)5(6)7/h2H2,1H3,(H3,6,7)	InChI=1S/C5H8N2O2/c1-3(8)2-4(9)5(6)7/h2H2,1H3,(H3,6,7)
