18
gdb 109481	2.09567	1.79512	1.05139	3.2073	75.02	-0.2399	0.0063	0.2462	1145.0557	0.149476	-435.339329	-435.33052	-435.329575	-435.373343	32.114	
C	-0.1174011578	 1.5646555821	-0.0213622211	-0.3838
C	 0.055600237	 0.0447787346	-0.0199170784	-0.150879
N	 0.7151437787	-0.450422645	-1.2194680498	-0.12774
C	 0.0879561239	-0.6615824757	-2.4300787266	 0.364107
N	-1.14620827	-0.4303206703	-2.6310498878	-0.542218
C	 1.1635262274	-1.2063517368	-3.3718430627	-0.270971
N	 2.3649833926	-1.0959706494	-2.5693654426	-0.368143
C	 2.0811654311	-0.7619209916	-1.2610167856	 0.47212
O	 2.846100313	-0.7273609097	-0.3261734067	-0.406587
H	 0.8534860946	 2.0660673861	-0.0730349314	 0.127942
H	-0.7267537288	 1.8813508995	-0.8712146372	 0.143064
H	-0.6173175889	 1.883145827	 0.8985646058	 0.118203
H	 0.6739345168	-0.2764798902	 0.8214382789	 0.137894
H	-0.9179960437	-0.4488459706	 0.0430679553	 0.131562
H	-1.4088136238	-0.666228411	-3.5867975231	 0.219028
H	 0.9283767047	-2.242054302	-3.6509559081	 0.13651
H	 1.2136737994	-0.6088915865	-4.2891366175	 0.13793
H	 3.2032975539	-1.6193489506	-2.7571207614	 0.261979
54.6259	110.7696	135.2034	177.2904	216.4316	306.2808	343.2441	415.4535	425.8332	574.5437	581.5912	600.7138	709.8178	745.6066	768.3864	788.0976	826.0373	945.6893	996.5055	1024.3012	1066.0249	1095.6512	1106.8676	1188.7116	1204.8327	1225.6854	1271.5591	1324.7293	1386.9133	1392.9938	1409.7012	1422.3785	1458.665	1484.6069	1493.3026	1506.019	1510.3437	1740.2197	1855.6383	3017.2722	3044.7924	3058.4709	3067.9597	3112.9021	3119.0874	3138.4945	3494.3498	3667.5733
CCN1C(=N)CNC1=O	CCN1[C]([NH])CNC1=O	
InChI=1S/C5H9N3O/c1-2-8-4(6)3-7-5(8)9/h6H,2-3H2,1H3,(H,7,9)	InChI=1S/C5H9N3O/c1-2-8-4(6)3-7-5(8)9/h6H,2-3H2,1H3,(H,7,9)
