19
gdb 108912	3.57753	1.11368	0.98119	0.7588	76.71	-0.2284	0.005	0.2334	1258.9079	0.158299	-422.979801	-422.971261	-422.970317	-423.012907	32.894	
C	 0.025364234	 1.5281478575	 0.0812751043	-0.507911
C	-0.0164551943	 0.03031243	-0.0208704109	 0.379937
C	 0.65779984	-0.8095958509	-1.1566612909	-0.252936
C	 0.6013696364	-1.8165868585	 0.024443249	-0.050732
O	 0.8601024063	-0.6945502096	 0.9243616257	-0.315578
C	-0.9252442058	-2.0106941526	 0.1944327034	 0.335702
C	-1.6569180284	-3.2970076113	 0.3682021866	-0.19913
O	-3.0337618857	-3.1299229709	 0.6507080783	-0.405206
C	-1.343337987	-0.7428866285	 0.1614219967	-0.268819
H	 1.0459370122	 1.89802845	-0.0472829241	 0.129141
H	-0.6084648834	 1.9798488882	-0.6886428189	 0.124448
H	-0.3393991229	 1.8559205696	 1.0599315509	 0.132377
H	 0.0869011091	-1.02253272	-2.0630204632	 0.096191
H	 1.6754595491	-0.4761653958	-1.3767854647	 0.10256
H	 1.2785946827	-2.6622279968	 0.1435512691	 0.077083
H	-1.6110626473	-3.8907690581	-0.5550433505	 0.125895
H	-1.1543134861	-3.9044951094	 1.1417468079	 0.101787
H	-3.0962725877	-2.5917228978	 1.447233177	 0.28552
H	-2.3381180611	-0.327021545	 0.2259074542	 0.109672
84.6382	152.4517	168.0862	188.7112	296.862	307.3219	336.0531	391.5298	507.6845	563.2233	598.9433	628.7476	700.6533	772.4585	815.4836	822.7642	861.8176	875.8268	929.6722	979.5327	994.3337	1031.4937	1046.8288	1078.8268	1107.2688	1124.2462	1170.0705	1197.63	1212.5773	1215.8138	1244.3712	1284.469	1339.3933	1380.5729	1415.3634	1420.2886	1478.782	1484.4087	1490.0459	1493.7307	1686.5982	2947.9981	3027.4503	3040.2968	3057.0649	3109.5517	3120.5457	3125.2193	3130.0335	3240.3962	3806.8837
CC12CC(O1)C(CO)=C2	C[C@@]12C[C@@H](O1)C(=C2)CO	
InChI=1S/C7H10O2/c1-7-2-5(4-8)6(3-7)9-7/h2,6,8H,3-4H2,1H3	InChI=1S/C7H10O2/c1-7-2-5(4-8)6(3-7)9-7/h2,6,8H,3-4H2,1H3/t6-,7-/m1/s1
