19
gdb 87651	2.79054	1.19038	1.01015	2.213	76.31	-0.2408	-0.0264	0.2144	1250.0984	0.155908	-423.023346	-423.013988	-423.013044	-423.057639	34.456	
C	 0.0639423313	 1.5384920103	-0.2573646224	-0.418413
C	 0.0533894102	 0.048780901	-0.0386490309	-0.018135
O	 1.3345244345	-0.6106030151	 0.0166795022	-0.295298
C	 0.5425427726	-0.5848332669	 1.1888562191	 0.409897
C	 0.9858755958	 0.0662699977	 2.5106775924	-0.446742
C	 0.2621303413	-1.0945332421	 3.221923883	 0.39488
O	-0.0786561902	-1.2922593907	 4.3516183244	-0.296855
C	 0.0381940559	-1.8590116295	 1.9005402638	-0.185199
C	-1.3468139609	-2.4279487548	 1.6224223176	-0.413894
H	 0.8162525891	 2.0219382549	 0.3709146214	 0.129899
H	 0.2910983865	 1.7702987034	-1.3029602811	 0.134316
H	-0.9169943492	 1.9671175772	-0.0245505771	 0.124794
H	-0.6876467405	-0.5014448025	-0.6215177875	 0.093894
H	 2.0710873374	 0.040559408	 2.6575647281	 0.145075
H	 0.6216428809	 1.0706099881	 2.7425469793	 0.135338
H	 0.8037502195	-2.6428251603	 1.8122100068	 0.118732
H	-2.1132651165	-1.6486052518	 1.6771954022	 0.121262
H	-1.3945384654	-2.8859507119	 0.6297302135	 0.127254
H	-1.5951660723	-3.193760855	 2.362955715	 0.139196
56.9245	132.5268	175.6732	179.2112	193.6041	203.6899	273.9785	379.93	424.9244	454.7136	481.0148	547.4669	570.7161	723.3807	753.2643	790.3427	843.9897	916.5616	926.3523	1005.6429	1018.2084	1025.3164	1076.2113	1121.6727	1127.4095	1141.4391	1164.8548	1186.6899	1203.2699	1239.8325	1327.7598	1349.0694	1405.149	1409.7176	1426.6675	1473.5802	1489.8652	1493.9466	1495.8945	1522.6019	1896.161	3020.5357	3037.7067	3038.5406	3054.0163	3091.8387	3101.9825	3108.5698	3110.8174	3114.9623	3127.3135
CC1OC11CC(=O)C1C	C[C@H]1O[C@]21CC(=O)[C@H]2C	
InChI=1S/C7H10O2/c1-4-6(8)3-7(4)5(2)9-7/h4-5H,3H2,1-2H3	InChI=1S/C7H10O2/c1-4-6(8)3-7(4)5(2)9-7/h4-5H,3H2,1-2H3/t4-,5-,7-/m1/s1
