20
gdb 59283	2.48794	1.49229	0.98832	3.4658	82.23	-0.2315	-0.0055	0.226	1219.892	0.171634	-399.36184	-399.352687	-399.351743	-399.39582	34.401	
C	-0.0039520438	 1.509758189	-0.124748926	-0.384733
C	 0.0428842756	-0.0112716204	 0.0728398687	 0.035732
C	 0.7693395723	-0.3707154572	 1.3751741464	-0.396161
C	-1.3874961581	-0.6108411999	 0.0363010524	-0.051725
N	-2.1395691727	-0.1446517995	-1.1478950937	-0.247118
C	-2.501307809	-1.1893534927	-1.7799744537	 0.055276
N	-2.1305250879	-2.398845767	-1.2106358531	-0.340712
C	-1.4330602016	-2.1457301327	-0.0284676659	 0.379171
N	-0.9536342236	-2.967564706	 0.8149866476	-0.539271
H	 1.0106701367	 1.9211629713	-0.116618696	 0.103478
H	-0.4873755185	 1.7776493077	-1.0653958197	 0.133539
H	-0.5624588793	 1.9893058646	 0.6881853976	 0.108277
H	 0.5946133344	-0.4507568924	-0.7699077147	 0.071993
H	 0.2659520939	 0.0898700612	 2.2341271321	 0.105576
H	 0.7954224984	-1.4487477752	 1.5408153305	 0.153363
H	 1.7950709461	 0.0115795675	 1.3493719895	 0.102609
H	-1.9186872785	-0.2744226716	 0.9366304976	 0.114952
H	-3.0678307584	-1.1846159651	-2.7061928896	 0.134578
H	-2.3397247126	-3.3130410914	-1.5750178652	 0.256412
H	-1.1194007937	-3.9372339805	 0.5396035951	 0.204763
62.8705	88.859	198.1353	230.9344	232.0033	259.305	332.869	345.675	384.6394	429.4082	493.258	565.4441	647.9767	680.9638	850.5092	855.5041	874.3302	897.8818	935.7267	941.4422	955.4655	973.9938	1027.0126	1086.4532	1090.4226	1136.6618	1148.1907	1195.0173	1256.0889	1270.572	1300.0145	1343.1275	1354.1682	1366.9544	1398.5162	1416.9996	1421.7147	1487.1439	1493.3085	1500.4329	1517.5879	1688.3882	1750.2918	3004.4919	3026.0079	3027.5031	3034.3679	3087.6748	3095.1746	3138.279	3142.1451	3187.8255	3448.8825	3659.8913
CC(C)C1N=CNC1=N	CC(C)[C@H]1N=CN[C]1[NH]	
InChI=1S/C6H11N3/c1-4(2)5-6(7)9-3-8-5/h3-5H,1-2H3,(H2,7,8,9)	InChI=1S/C6H11N3/c1-4(2)5-6(7)9-3-8-5/h3-5H,1-2H3,(H2,7,8,9)/t5-/m1/s1
