18
gdb 111020	2.68866	1.2164	0.98237	4.7101	77.5	-0.2617	-0.0069	0.2548	1251.5844	0.14702	-401.891486	-401.883031	-401.882087	-401.924961	31.696	
C	-0.0228052834	 1.6370577825	 0.0233596793	-0.37657
C	-0.2036907639	 0.1143297406	-0.0338879968	-0.243622
C	 0.5783207575	-0.5076753277	-1.1788507181	 0.014192
C	 2.1099163947	-0.7975286673	-1.1416900176	 0.01195
C	 1.8940934326	-1.9889283621	-0.1786379158	-0.266618
C	 0.8381464278	-2.0449554424	-1.3153031889	 0.302312
O	 1.9139256197	-1.7355007328	-2.2808006376	-0.325688
C	-0.1046897	-3.0922301365	-1.6268122956	 0.173381
N	-0.8872771646	-3.9154859289	-1.8402482709	-0.34262
H	 1.0229969288	 1.9083209795	 0.2028041146	 0.119811
H	-0.3313063225	 2.1082578746	-0.9157082634	 0.124997
H	-0.6225752339	 2.0715322063	 0.828008078	 0.123066
H	 0.0783887249	-0.3242322792	 0.9285600812	 0.10531
H	-1.2652004348	-0.122625525	-0.1777367035	 0.120637
H	 0.2858879788	-0.0884702492	-2.1456065065	 0.101676
H	 2.9499212989	-0.1090521793	-1.2088469505	 0.111961
H	 2.6524082644	-2.7689248025	-0.2385542629	 0.129535
H	 1.554153785	-1.8001641305	 0.839589485	 0.11629
68.4953	110.066	175.2203	208.1752	216.9651	327.1781	359.4334	503.8805	521.2466	551.6146	586.1382	625.1966	727.7535	764.0439	838.5232	882.0583	919.215	948.0181	963.7441	981.6699	1021.1089	1084.5167	1093.9936	1099.8414	1162.3502	1179.098	1213.6954	1226.2246	1242.5454	1270.7741	1292.2983	1343.1393	1407.1777	1418.434	1481.9591	1496.2824	1501.3801	1509.5464	2357.8317	3034.2383	3037.3944	3068.4427	3085.3754	3092.8519	3106.2382	3113.3624	3145.4757	3170.0094
CCC1C2CC1(O2)C#N	CC[C@H]1[C@H]2C[C@@]1(O2)C#N	
InChI=1S/C7H9NO/c1-2-5-6-3-7(5,4-8)9-6/h5-6H,2-3H2,1H3	InChI=1S/C7H9NO/c1-2-5-6-3-7(5,4-8)9-6/h5-6H,2-3H2,1H3/t5-,6+,7+/m0/s1
