17
gdb 20843	4.88828	1.35285	1.13518	2.6814	70.63	-0.2449	0.0169	0.2618	1086.5386	0.1433	-360.092238	-360.083877	-360.082933	-360.126995	29.052	
C	-0.1942236728	 1.4875015468	 0.1082895359	-0.373215
C	 0.2031081444	 0.0103949991	-0.0380853824	-0.279827
C	 0.8348652561	-0.541598083	 1.1996418996	 0.336399
N	 2.0818813686	-0.9855339464	 1.2311105799	-0.268548
N	 2.2156319835	-1.3692373684	 2.5279814917	-0.235203
C	 1.0727480955	-1.1473535009	 3.2142422331	 0.350456
C	 0.8845168853	-1.4615588024	 4.660210385	-0.503126
N	 0.1767166824	-0.6216775687	 2.398559049	-0.339014
H	 0.6857896609	 2.1138425361	 0.2851449404	 0.118585
H	-0.6908175841	 1.8467527931	-0.7980906707	 0.109513
H	-0.8773433103	 1.619029908	 0.9516852143	 0.135906
H	-0.6902389312	-0.5816456358	-0.270456414	 0.114668
H	 0.9045932389	-0.1202669511	-0.8668681366	 0.116762
H	 3.0874203395	-1.7592204926	 2.8457409159	 0.273202
H	 1.6089964597	-0.9301467854	 5.2865127654	 0.13959
H	-0.1196887811	-1.1575204451	 4.9567461101	 0.163063
H	 0.9957045348	-2.5331700835	 4.8580377334	 0.14079
16.7114	50.9625	137.3743	200.6267	254.0833	298.4475	394.6807	437.9215	526.8535	613.5412	697.8404	730.6805	772.2088	804.1992	975.7224	989.0505	1023.958	1064.8253	1064.9597	1086.9895	1093.2576	1160.4692	1265.6463	1301.9935	1346.0019	1387.8818	1405.2454	1413.2516	1438.2501	1476.237	1484.6023	1496.1796	1498.1716	1508.0447	1540.0908	1592.7069	3036.8829	3039.6705	3040.2318	3091.4538	3093.0349	3109.4949	3124.1821	3152.7863	3663.8545
CCC1=NNC(C)=N1	CCc1n[nH]c(C)n1	
InChI=1S/C5H9N3/c1-3-5-6-4(2)7-8-5/h3H2,1-2H3,(H,6,7,8)	InChI=1S/C5H9N3/c1-3-5-6-4(2)7-8-5/h3H2,1-2H3,(H,6,7,8)
