18
gdb 100742	2.9755	1.03104	0.80607	3.5472	64.98	-0.2581	0.0244	0.2825	1372.4083	0.146264	-513.387713	-513.37783	-513.376886	-513.422662	36.382	
N	 0.0190945102	 1.2947736071	 0.1155986469	-0.516036
C	 0.0725012856	-0.044197852	-0.0383784238	 0.367378
O	 1.0974021523	-0.6768045611	-0.2516703851	-0.387514
C	-1.2702643218	-0.8037282383	 0.0228944787	 0.033043
O	-0.9976168517	-2.1757227355	-0.0468437777	-0.443032
C	-2.0760870946	-0.4885186626	 1.2919582096	 0.101504
O	-2.5135953443	 0.8652294791	 1.2047255232	-0.451419
C	-3.2898367489	-1.4001767951	 1.4325208225	-0.102522
O	-4.022714376	-0.8861518701	 2.5455332597	-0.439636
H	 0.8878749006	 1.8034523188	 0.1483542634	 0.26142
H	-0.8310539507	 1.7144882215	 0.4664367164	 0.281892
H	-1.8791593571	-0.4759784534	-0.836980843	 0.095505
H	-0.0339310507	-2.2171729611	-0.1937996853	 0.296187
H	-1.4347575986	-0.6267895631	 2.1766967423	 0.08542
H	-3.2151283581	 0.9539125984	 1.8634040538	 0.29851
H	-3.8888671864	-1.3560241192	 0.5112331219	 0.097504
H	-2.965562002	-2.4334122733	 1.5950040859	 0.124467
H	-4.8864127577	-1.3066633703	 2.5672948406	 0.297328
73.372	73.8443	137.0311	163.0655	247.6325	279.7735	311.2436	339.0782	392.333	406.264	447.7047	460.4049	512.0616	545.6892	559.2311	629.2456	666.7428	738.7719	870.4702	905.0455	1044.4341	1071.265	1078.5234	1113.1848	1134.9579	1164.1107	1214.1377	1242.5424	1270.9067	1284.583	1337.4723	1365.2662	1372.3754	1423.9737	1445.6193	1478.9608	1512.462	1625.3906	1781.9678	2961.8136	2985.8098	3003.7817	3077.8965	3546.3546	3597.4981	3697.3649	3765.3715	3845.4712
NC(=O)C(O)C(O)CO	NC(=O)[C@@H](O)[C@@H](O)CO	
InChI=1S/C4H9NO4/c5-4(9)3(8)2(7)1-6/h2-3,6-8H,1H2,(H2,5,9)	InChI=1S/C4H9NO4/c5-4(9)3(8)2(7)1-6/h2-3,6-8H,1H2,(H2,5,9)/t2-,3-/m0/s1
