16
gdb 86486	2.14313	1.48485	1.03579	3.3599	70.52	-0.2704	-0.0635	0.2069	1168.7042	0.121749	-437.885843	-437.876819	-437.875875	-437.92042	31.78	
C	 0.3769423185	 1.5228440401	-0.0885042018	-0.400426
C	-0.0228601866	 0.0659308008	-0.1339504	 0.153262
C	 0.5650616407	-0.8198012463	-1.2560676529	-0.357719
C	 1.1711078639	-1.643217523	-0.1020819498	 0.200747
O	 0.6708087788	-0.723213913	 0.8931371247	-0.327491
C	 0.488092596	-2.9994816703	 0.1618133419	 0.127614
O	-0.291876628	-3.5080620863	-0.5934728961	-0.228512
C	 2.6268818915	-1.7925207793	-0.0572425396	 0.240295
N	 3.7724241061	-1.9449236621	-0.0299875743	-0.31691
H	 1.4578405668	 1.635777893	-0.2138407392	 0.133461
H	-0.1291875422	 2.0753018521	-0.8875967006	 0.128584
H	 0.0905650615	 1.9677497395	 0.8690567955	 0.138803
H	-1.1055081981	-0.0479808653	-0.0095271452	 0.100128
H	-0.1427798292	-1.3861877251	-1.8599461197	 0.151371
H	 1.2992412554	-0.3223856122	-1.8890605556	 0.136055
H	 0.735990795	-3.4277097725	 1.1539792928	 0.120738
47.0151	77.1071	170.5023	187.1386	204.1416	239.2682	286.3699	360.2701	442.1618	495.2039	528.0315	564.7265	667.8261	784.4727	884.156	889.1871	905.6334	956.896	982.6915	1040.528	1079.7182	1107.5807	1182.7838	1188.6711	1223.5984	1262.3715	1306.2833	1386.8155	1403.3851	1412.5629	1480.8879	1486.3694	1493.4298	1840.6016	2349.8649	2938.6585	3037.727	3044.9393	3102.1812	3111.7471	3121.052	3167.0534
CC1CC(O1)(C=O)C#N	C[C@H]1C[C@@](O1)(C=O)C#N	
InChI=1S/C6H7NO2/c1-5-2-6(3-7,4-8)9-5/h4-5H,2H2,1H3	InChI=1S/C6H7NO2/c1-5-2-6(3-7,4-8)9-5/h4-5H,2H2,1H3/t5-,6-/m0/s1
