17
gdb 26974	3.05616	1.2494	0.95348	3.5725	80.19	-0.2123	0.0301	0.2424	1219.246	0.135907	-380.884031	-380.875161	-380.874217	-380.918165	32.498	
C	 0.4636786577	 1.4204862756	-0.0261604301	-0.514989
C	 0.1681913556	-0.0417076595	-0.0528907244	 0.239747
C	 0.0231522548	-0.9555328834	-1.0714145344	 0.203516
C	 0.1101969478	-0.7572776833	-2.5647430181	-0.457675
C	 1.2706406106	 0.0046528416	-3.0219254637	 0.31151
C	 2.2177372483	 0.6355474481	-3.4100637313	-0.469718
N	-0.2734230348	-2.2052777075	-0.5678651529	-0.308656
C	-0.3086321552	-2.0607648021	 0.7347733935	-0.000672
N	-0.0499724385	-0.7737475912	 1.0992999148	-0.289465
H	 1.2728962319	 1.6575099841	 0.675127922	 0.125305
H	 0.7794991552	 1.7533888499	-1.0160447474	 0.159081
H	-0.4113874762	 2.0133698852	 0.2689544124	 0.127763
H	 0.1266437525	-1.7555290055	-3.0157115186	 0.155105
H	-0.8016493194	-0.2731262126	-2.942586138	 0.13617
H	 3.0615246074	 1.1803134673	-3.7540306302	 0.193851
H	-0.5089063488	-2.838465862	 1.4565156103	 0.127633
H	-0.0052918791	-0.4155471949	 2.039004256	 0.261494
42.4502	107.796	122.3707	230.7274	245.7333	291.5433	330.9393	396.8297	453.3645	526.1667	610.556	629.0131	654.6301	673.131	698.8709	766.6497	798.5534	933.7928	956.2348	963.8289	992.3136	1064.9528	1111.2461	1149.0901	1218.065	1260.8657	1268.5657	1345.7225	1382.882	1422.8942	1455.1718	1465.1246	1488.9149	1490.4417	1526.8724	1632.6003	2235.8125	3005.0468	3018.7074	3065.2288	3068.826	3139.4673	3251.2115	3505.7954	3657.1051
CC1=C(CC#C)N=CN1	Cc1c(CC#C)nc[nH]1	
InChI=1S/C7H8N2/c1-3-4-7-6(2)8-5-9-7/h1,5H,4H2,2H3,(H,8,9)	InChI=1S/C7H8N2/c1-3-4-7-6(2)8-5-9-7/h1,5H,4H2,2H3,(H,8,9)
