21
gdb 41826	2.31724	1.94664	1.43026	1.0732	76.88	-0.2446	0.0777	0.3223	1007.1465	0.186384	-424.249	-424.241546	-424.240602	-424.28088	30.08	
C	 0.1537927391	 1.6998961256	 0.1340836287	-0.090537
O	 1.4933410393	 1.9396371145	-0.2750834139	-0.272993
C	 1.9313226932	 0.8082357966	-1.0188755084	 0.21136
C	 3.2146723619	 0.2542862847	-0.4094482587	-0.214856
C	 3.0811518016	-0.1226905149	 1.0729231193	-0.195833
C	 1.9509509653	-1.1214222802	 1.3822089331	-0.180253
C	 0.5345546257	-0.5215720924	 1.4342825899	-0.227827
C	 0.0554220741	 0.1704363689	 0.1295636459	 0.081971
O	 0.8769093481	-0.1433065141	-0.9961243218	-0.265532
H	 0.0008952433	 2.1548156088	 1.116480625	 0.108916
H	-0.5576591886	 2.1392503194	-0.5803724872	 0.095632
H	 2.0847736421	 1.0885578558	-2.071114845	 0.076001
H	 3.5041694593	-0.6227074758	-1.0014442348	 0.10161
H	 4.0065826246	 1.0020850585	-0.5368216882	 0.1012
H	 4.0346061459	-0.5531923819	 1.3993394272	 0.09148
H	 2.9362849396	 0.789075807	 1.6643943607	 0.104521
H	 1.9726421453	-1.9343664859	 0.6475520911	 0.105374
H	 2.14312142	-1.5815215058	 2.3586651835	 0.089783
H	-0.1667488644	-1.3252116455	 1.6850460289	 0.097551
H	 0.4778346496	 0.1976708624	 2.2608789718	 0.097576
H	-0.9556882251	-0.1601041957	-0.122647497	 0.084856
81.8134	174.6635	269.9485	311.7834	346.9886	371.9748	409.6847	549.7175	594.877	734.9577	750.8996	764.4353	816.7061	838.612	882.5108	892.3651	948.1863	961.4984	966.2719	1016.653	1036.6932	1046.4485	1091.544	1103.6375	1128.902	1161.8838	1180.1309	1222.7943	1232.9142	1261.1135	1291.6741	1320.0105	1344.7459	1357.3121	1367.0791	1372.2642	1389.0299	1394.8859	1402.7944	1414.2508	1468.409	1483.0392	1485.3273	1494.332	1520.0998	2994.1633	2998.7517	3023.1344	3028.3671	3031.887	3035.6133	3057.0524	3065.6989	3071.3552	3077.8854	3081.5535	3091.6164
C1OC2CCCCC1O2	C1O[C@H]2CCCC[C@@H]1O2	
InChI=1S/C7H12O2/c1-2-4-7-8-5-6(3-1)9-7/h6-7H,1-5H2	InChI=1S/C7H12O2/c1-2-4-7-8-5-6(3-1)9-7/h6-7H,1-5H2/t6-,7+/m0/s1
