23
gdb 58576	2.2861	1.45758	1.24036	1.3731	86.46	-0.2407	0.0172	0.2579	1177.1211	0.205281	-388.30971	-388.300051	-388.299106	-388.343536	37.717	
C	 0.1388929489	 1.4744544693	 0.1675162339	-0.415583
C	-0.0970628956	-0.0380922302	 0.1130471264	 0.11248
O	 0.4355700589	-0.6609147968	 1.2784103618	-0.442537
C	-1.5786687606	-0.4696454777	-0.1188025859	 0.254646
C	-2.1038639043	 0.0987782672	-1.4470875385	-0.451652
C	-1.6860393827	-2.0298401971	-0.0748637077	-0.243817
C	-2.2139306996	-2.4036794354	 1.3333417772	-0.254668
C	-2.7606790587	-1.0951848007	 1.8512441464	-0.081114
C	-2.440134129	-0.0661798952	 1.0664313555	-0.119756
H	 1.192673264	 1.663384373	 0.3888402734	 0.123754
H	-0.1051844797	 1.965458723	-0.7786686538	 0.115119
H	-0.4585071967	 1.9426672299	 0.9580153419	 0.108518
H	 0.4925700984	-0.4545412884	-0.7139428373	 0.081849
H	-0.142001709	-0.4170283965	 2.0125311803	 0.275449
H	-1.4691076073	-0.2103552364	-2.2859149039	 0.112726
H	-3.1174484183	-0.2643167208	-1.6428354302	 0.115242
H	-2.1413482613	 1.1922620847	-1.4422542249	 0.114138
H	-2.4025525877	-2.3592282589	-0.833987818	 0.09153
H	-0.7296291664	-2.5079722064	-0.2967032976	 0.106161
H	-2.9795343278	-3.1877356007	 1.3001363121	 0.099722
H	-1.4134185989	-2.7788918147	 1.98267672	 0.114528
H	-3.3445528949	-1.0237441736	 2.7635668266	 0.09286
H	-2.7298039718	 0.9644105422	 1.2458409324	 0.090406
87.5802	106.4504	203.8466	219.7264	231.6115	252.6195	305.8893	349.8815	371.5394	380.9472	425.2407	484.3452	567.9521	592.7687	706.7732	772.4933	783.8321	839.9537	866.6479	913.1161	930.7693	948.6075	979.6385	995.9812	1021.0555	1026.5617	1084.8065	1103.2818	1120.2467	1131.7942	1175.0638	1207.6422	1217.5083	1263.1297	1296.7076	1315.9249	1322.4239	1350.0725	1387.5352	1401.6226	1410.8859	1426.1403	1473.541	1490.7256	1491.7523	1495.2231	1497.9561	1508.7335	1678.2066	3023.6073	3027.3998	3028.1835	3037.2257	3046.411	3060.1496	3094.1138	3102.6294	3106.937	3110.2278	3121.8716	3169.1571	3194.9618	3768.3869
CC(O)C1(C)CCC=C1	C[C@@H](O)[C@@]1(C)CCC=C1	
InChI=1S/C8H14O/c1-7(9)8(2)5-3-4-6-8/h3,5,7,9H,4,6H2,1-2H3	InChI=1S/C8H14O/c1-7(9)8(2)5-3-4-6-8/h3,5,7,9H,4,6H2,1-2H3/t7-,8-/m1/s1
