20
gdb 18081	4.36798	1.28181	1.22136	0.9986	75.26	-0.2373	0.0866	0.3239	1105.6431	0.177057	-348.967784	-348.959591	-348.958647	-349.000812	30.521	
C	 0.0845396901	 1.447614341	-0.1869801719	-0.387155
C	-0.1096621446	-0.0391269576	-0.4298618706	-0.033041
O	 1.121030142	-0.5851202337	-0.8785756428	-0.251077
C	 1.0474818273	-1.9483027687	-1.1550771418	 0.144045
C	 0.5126967562	-2.4868093124	-2.4528306169	-0.110788
C	 0.8389771494	-1.5279172649	-3.6055087505	-0.221829
C	 2.35480204	-1.6104367922	-3.241905092	-0.215766
C	 2.0208205369	-2.5700323077	-2.0923540137	-0.115451
H	 0.8623793478	 1.6157347006	 0.563353893	 0.126778
H	 0.3859013592	 1.9517326111	-1.1097813758	 0.125739
H	-0.8455600614	 1.901168024	 0.1685927445	 0.113541
H	-0.4277913994	-0.5440886486	 0.4974738883	 0.085099
H	-0.8966694912	-0.2156054749	-1.179387353	 0.092546
H	 0.7995930104	-2.5608179691	-0.2849484699	 0.078829
H	-0.2319132184	-3.2743892491	-2.4825260475	 0.079923
H	 0.6248329187	-1.9606944723	-4.5848048852	 0.099939
H	 0.3757673468	-0.5386144339	-3.5496450725	 0.098627
H	 2.9419078129	-2.0883322381	-4.0287058939	 0.098354
H	 2.8404276569	-0.6765766457	-2.9492435163	 0.108614
H	 2.6153281705	-3.4289395978	-1.8025880112	 0.083075
68.2682	96.0451	140.7698	222.7678	253.1169	271.5932	381.2223	488.2839	602.4682	735.03	758.2976	789.9003	813.2032	820.4768	892.5425	938.2173	958.9872	969.3066	1011.493	1020.8635	1024.8208	1076.4805	1089.7456	1130.5012	1142.2125	1162.8976	1189.1142	1221.3235	1228.9847	1248.5239	1265.887	1292.4198	1301.9378	1345.4088	1391.1655	1410.874	1458.4985	1474.1034	1483.2061	1499.3909	1500.2763	1529.2265	2964.6399	2998.5603	3043.9353	3056.5707	3068.0669	3077.4714	3104.0541	3117.9959	3120.313	3123.8458	3165.943	3177.6997
CCOC1C2CCC12	CCO[C@H]1[C@H]2CC[C@@H]12	
InChI=1S/C7H12O/c1-2-8-7-5-3-4-6(5)7/h5-7H,2-4H2,1H3	InChI=1S/C7H12O/c1-2-8-7-5-3-4-6(5)7/h5-7H,2-4H2,1H3/t5-,6+,7-
