15
gdb 130149	4.68972	0.87535	0.80391	2.4745	69.21	-0.218	-0.0351	0.1829	1378.9688	0.11371	-450.164655	-450.156202	-450.155258	-450.199491	29.947	
N	-0.2242793985	 1.375057788	-0.078306636	-0.582733
C	-0.0666013953	 0.0060434051	-0.0468864249	 0.391479
N	-1.0571719206	-0.8411020871	-0.2974956402	-0.292363
N	-0.4089556996	-2.0416523535	-0.2240061988	-0.241286
C	 0.8895781769	-1.865056403	 0.0776645194	 0.346164
C	 1.8875087493	-2.9693558793	 0.1877129971	-0.39196
C	 2.7693609	-3.0529230048	-1.0587449455	 0.158271
O	 3.0194731007	-4.0783035103	-1.6321495706	-0.227006
N	 1.1482727802	-0.5717306917	 0.1947532657	-0.356517
H	 0.4436001089	 1.8666675682	 0.4965112252	 0.25939
H	-1.175219123	 1.6810061214	 0.0658464365	 0.258867
H	-0.9205649077	-2.8952050595	-0.3727780991	 0.279536
H	 2.5472939503	-2.7545334628	 1.0376016444	 0.158925
H	 1.4169154438	-3.9421632089	 0.3488895473	 0.129583
H	 3.1695947747	-2.0727106018	-1.3936068006	 0.10965
22.1288	61.9094	136.0355	248.1302	300.7234	319.1434	389.9667	432.6022	471.0022	498.2856	611.0048	658.8482	722.9268	765.0705	790.306	841.547	1008.0506	1028.8212	1043.2488	1076.6247	1099.5396	1174.3898	1188.3581	1271.8607	1323.5281	1410.308	1416.7722	1449.8713	1492.7672	1568.6947	1591.926	1651.1286	1838.595	2918.2168	3041.7179	3116.5604	3577.0452	3671.4386	3683.7779
NC1=NNC(CC=O)=N1	Nc1n[nH]c(CC=O)n1	
InChI=1S/C4H6N4O/c5-4-6-3(1-2-9)7-8-4/h2H,1H2,(H3,5,6,7,8)	InChI=1S/C4H6N4O/c5-4-6-3(1-2-9)7-8-4/h2H,1H2,(H3,5,6,7,8)
