19
gdb 41280	2.81766	2.05609	1.84082	1.4508	77.81	-0.2171	0.0823	0.2993	863.0781	0.161682	-385.811554	-385.805235	-385.804291	-385.841717	27.701	
C	 0.0257350654	 1.5501059377	-0.1259629318	-0.327226
C	 1.5838590609	 1.5781074295	 0.1233919767	-0.351383
C	 1.5228572664	 0.1183065814	 0.6146574192	 0.434166
O	 1.6008814083	-0.2929046776	 1.9754667686	-0.323313
C	 0.9171622573	-1.4865211774	 1.468924597	 0.065286
C	-0.5135270245	-0.9134684838	 1.1936575217	-0.296196
C	 0.0285325313	 0.0208195233	 0.1085801415	 0.246423
C	 0.5305989366	-0.9719876339	-0.982480508	-0.295783
C	 1.6240640045	-1.3074646362	 0.0480763774	-0.15029
H	-0.5241258315	 2.0951728333	 0.6460037231	 0.11223
H	-0.3175099194	 1.8967731096	-1.1043596794	 0.10101
H	 2.189840737	 1.7275506192	-0.7736935409	 0.11387
H	 1.9257986826	 2.2770822623	 0.8895251581	 0.123283
H	 1.056285658	-2.3672178801	 2.0951721829	 0.081271
H	-1.2439213125	-1.648814015	 0.843766499	 0.093259
H	-0.8886188676	-0.4182579427	 2.0913214406	 0.108074
H	-0.1578343577	-1.7558086398	-1.3118698426	 0.094191
H	 0.9536380332	-0.4697661859	-1.857066594	 0.101585
H	 2.5368901518	-1.876504954	-0.1385861591	 0.069543
187.2311	290.3167	379.8807	411.7728	482.9116	555.7255	606.8962	664.8381	691.0487	725.2571	771.3744	816.5922	848.8379	865.4995	879.2776	890.0777	919.7389	942.6974	958.6158	982.4251	1002.4994	1027.8444	1053.7798	1084.1039	1144.0108	1162.3484	1189.0538	1203.6089	1215.9629	1222.2419	1225.6133	1250.7946	1268.898	1281.9923	1297.783	1315.1191	1332.3123	1452.6988	1474.9639	1478.8289	1501.582	3047.5615	3055.2953	3059.9633	3068.6421	3094.4057	3102.3764	3104.8991	3121.8449	3127.3598	3131.0039
C1CC23OC4CC12CC34	C1C[C@@]23O[C@H]4C[C@@]12C[C@@H]34	
InChI=1S/C8H10O/c1-2-8-5-3-7(1,8)4-6(5)9-8/h5-6H,1-4H2	InChI=1S/C8H10O/c1-2-8-5-3-7(1,8)4-6(5)9-8/h5-6H,1-4H2/t5-,6+,7+,8+/m1/s1
