17
gdb 78142	1.96472	1.86103	1.02448	5.8713	79.	-0.2149	-0.0249	0.1901	1150.1269	0.136425	-418.009797	-418.001622	-418.000677	-418.042139	31.77	
C	-0.1127801148	 1.3721960476	 0.0130639312	-0.315876
N	 0.0584872441	-0.0768432362	-0.0729909668	-0.104535
C	 0.7702444842	-0.5453212458	-1.2833940829	-0.146935
C	 1.4639532849	-0.5279946234	 0.0230564961	-0.161042
C	 1.6020577973	-1.9900143206	 0.4597473633	 0.428332
O	 2.1606721533	-2.3645465016	 1.4693359161	-0.363785
C	 0.9491587143	-2.7873823266	-0.5788369217	-0.342572
C	 0.4911234143	-1.99021697	-1.5807311619	 0.4149
N	-0.1242846737	-2.3406708064	-2.7416441397	-0.593772
H	 0.7108153794	 1.9491896089	-0.4390571731	 0.102137
H	-1.0466912056	 1.6516814714	-0.4850097452	 0.123411
H	-0.1901748041	 1.6532867198	 1.0675040306	 0.137633
H	 0.9873708008	 0.1591621509	-2.0807312759	 0.097237
H	 2.2309889286	 0.1951824105	 0.2784119173	 0.102433
H	 0.8223208141	-3.8591785658	-0.5037500512	 0.094628
H	-0.4704732171	-3.2820105289	-2.8394148766	 0.265239
H	-0.6511262298	-1.638355594	-3.2346197096	 0.262566
156.378	162.8782	217.8841	236.9359	282.3706	310.3869	379.7421	424.648	479.9246	500.3669	589.9298	615.34	664.5104	724.3382	818.1346	842.1261	854.2154	874.6149	904.5347	965.6599	1051.8564	1082.2753	1131.4803	1136.5076	1152.6055	1188.1169	1227.0909	1272.6557	1305.5841	1363.545	1426.2129	1450.2955	1492.5976	1494.7552	1629.0247	1676.9525	1800.5816	2966.5177	3071.4187	3109.2589	3158.1632	3179.5572	3220.2918	3589.5737	3701.6561
CN1C2C1C(=O)C=C2N	CN1[C@H]2[C@@H]1C(=O)C=C2N	
InChI=1S/C6H8N2O/c1-8-5-3(7)2-4(9)6(5)8/h2,5-6H,7H2,1H3	InChI=1S/C6H8N2O/c1-8-5-3(7)2-4(9)6(5)8/h2,5-6H,7H2,1H3/t5-,6+,8?/m1/s1
