15
gdb 77061	3.27425	1.05769	0.86671	2.8711	67.31	-0.2699	-0.0094	0.2606	1282.1808	0.11003	-457.743614	-457.734621	-457.733677	-457.778131	31.75	
O	 0.1131563711	 1.3993370531	 0.1932570557	-0.416187
C	 0.0987679052	 0.0017120022	 0.0841909707	-0.087518
C	-1.2963795556	-0.651546525	 0.2000362542	 0.109563
C	-2.4899543324	 0.2935697569	 0.2742816029	-0.362646
C	-3.76336949	-0.4082179551	 0.1808662978	 0.283226
C	-4.8034619296	-1.0046495478	 0.1101232542	-0.415499
O	-1.1268720007	-1.2329822418	-1.1446457054	-0.243311
C	 0.0648022663	-0.589518929	-1.3359526532	 0.418933
O	 0.7394625883	-0.5497206417	-2.3140886129	-0.324416
H	 0.8637357378	 1.7312803361	-0.3123078059	 0.308233
H	 0.8568158699	-0.4764478527	 0.7194097392	 0.113057
H	-1.3755081156	-1.456876654	 0.932299234	 0.115156
H	-2.4248161602	 0.8405636945	 1.2234588398	 0.15009
H	-2.3999482759	 1.0451005717	-0.5165880609	 0.150397
H	-5.7277730885	-1.5225411074	 0.0394315597	 0.200923
56.9305	96.9118	118.4043	144.4598	224.4225	263.4878	333.536	359.646	457.0226	519.8061	560.2779	629.1915	655.0999	711.4528	772.0404	841.4978	886.9951	931.7289	976.5741	996.5608	1097.2295	1132.1487	1170.6085	1182.8265	1231.1467	1281.0178	1318.0358	1348.9492	1396.5791	1407.6278	1452.0372	1936.8291	2246.0309	3016.5228	3037.7875	3080.9873	3108.5489	3506.7896	3809.936
OC1C(CC#C)OC1=O	O[C@H]1[C@@H](CC#C)OC1=O	
InChI=1S/C6H6O3/c1-2-3-4-5(7)6(8)9-4/h1,4-5,7H,3H2	InChI=1S/C6H6O3/c1-2-3-4-5(7)6(8)9-4/h1,4-5,7H,3H2/t4-,5+/m1/s1
