14
gdb 42610	2.7213	1.8998	1.42624	4.0386	65.02	-0.2571	-0.0486	0.2085	890.3354	0.101678	-436.68788	-436.681318	-436.680374	-436.71904	25.62	
O	-0.0856280688	 0.0367061085	-0.0345191638	-0.289702
C	-0.0726688056	 1.2220099639	 0.0393299912	 0.415857
C	-1.1545274204	 2.3333242354	-0.0053349191	-0.298113
C	 0.0554370233	 3.2326677772	-0.3397048398	-0.053692
C	 0.7711588797	 3.2806508884	 0.9400946465	-0.02709
C	-0.1738011339	 3.0979037915	 2.1114215119	-0.36593
C	-1.4905296225	 2.6411790669	 1.4574925212	 0.428816
O	-2.5578093944	 2.5223309165	 1.9888025776	-0.300594
N	 1.0616647149	 2.1223022386	 0.0049738826	-0.201144
H	-2.0061181442	 2.2021627252	-0.6665594115	 0.123396
H	 0.193030501	 3.8464941863	-1.2185358307	 0.133004
H	 1.6560900793	 3.8941059777	 1.0578114646	 0.129982
H	 0.1606092861	 2.3594813341	 2.8474842682	 0.157128
H	-0.3267480146	 4.0442066499	 2.6394905711	 0.148082
108.4101	136.2544	344.3764	420.0566	465.0541	481.4316	580.4632	637.5327	697.2393	714.955	759.7106	804.9873	824.3771	861.687	918.7396	957.4683	966.8473	1005.1357	1052.0217	1067.4135	1126.03	1143.4875	1172.4084	1206.5554	1247.364	1271.864	1293.3124	1383.1424	1447.6765	1859.7254	1920.0489	3059.0242	3102.6061	3174.4016	3194.3831	3225.1799
O=C1C2C3C(CC2=O)N13	O=C1[C@@H]2[C@H]3[C@@H](CC2=O)N13	
InChI=1S/C6H5NO2/c8-3-1-2-5-4(3)6(9)7(2)5/h2,4-5H,1H2	InChI=1S/C6H5NO2/c8-3-1-2-5-4(3)6(9)7(2)5/h2,4-5H,1H2/t2-,4+,5-,7?/m1/s1
