22
gdb 95642	2.04684	1.75514	1.01028	2.9026	83.08	-0.217	-0.0129	0.2041	1224.8213	0.194686	-404.373591	-404.364441	-404.363497	-404.407351	35.082	
C	-0.0361978705	 1.5552400639	 0.0132849889	-0.414041
C	 0.0708735493	 0.0313772145	 0.0013013784	-0.034975
N	 0.7236309475	-0.4911281312	-1.213257401	-0.074669
C	 0.079397733	-0.0351023768	-2.4378368427	-0.323253
C	 0.8367535796	-1.9475302245	-1.2028907314	-0.129439
C	 1.7160704973	-2.424320964	-0.0508448867	-0.218287
C	 1.1401800219	-1.9480121139	 1.2886394295	-0.297709
C	 0.8250644479	-0.4642987376	 1.2534207781	 0.392311
O	 1.1031263988	 0.2763687242	 2.1668126195	-0.305914
H	 0.9281366051	 2.0056055088	-0.2392945237	 0.128348
H	-0.7903454465	 1.9150945187	-0.6892485	 0.111163
H	-0.3077370659	 1.8879281852	 1.0158981698	 0.138913
H	-0.9551192681	-0.3956295094	 0.0915706703	 0.064151
H	 0.1324845102	 1.0512517259	-2.5244891489	 0.127575
H	 0.6034976449	-0.4622391006	-3.2978383237	 0.118619
H	-0.9848022415	-0.3345194435	-2.5055065242	 0.090338
H	-0.1601064571	-2.4333907175	-1.1378210872	 0.071522
H	 1.2751158475	-2.2578878865	-2.1568835909	 0.100745
H	 1.7939117248	-3.5163507594	-0.0651345352	 0.100841
H	 2.7254064195	-2.0199549517	-0.1845474471	 0.115901
H	 0.1916589042	-2.4722002768	 1.4778758992	 0.118007
H	 1.8021203482	-2.145806468	 2.134677069	 0.119851
64.6649	111.7447	198.0247	229.149	236.7886	311.7336	349.0054	380.565	385.5783	407.8453	466.0994	525.1435	566.7276	634.7839	764.2932	809.6346	850.5762	894.9932	926.841	997.4476	1023.2096	1059.9776	1074.3916	1095.2592	1125.9304	1145.4824	1160.0583	1184.1832	1197.1621	1253.4382	1277.9095	1299.3206	1334.2234	1347.6956	1364.0358	1377.9977	1405.5291	1408.5267	1459.7869	1465.751	1484.2531	1487.7196	1492.7328	1503.8263	1504.5064	1511.0637	1817.5913	2830.3	2878.9723	2921.5911	3010.2183	3041.6752	3056.7197	3065.1538	3077.9133	3086.756	3108.2271	3125.4193	3132.8856	3148.2473
CC1N(C)CCCC1=O	C[C@H]1N(C)CCCC1=O	
InChI=1S/C7H13NO/c1-6-7(9)4-3-5-8(6)2/h6H,3-5H2,1-2H3	InChI=1S/C7H13NO/c1-6-7(9)4-3-5-8(6)2/h6H,3-5H2,1-2H3/t6-/m1/s1
