15
gdb 131193	3.35564	1.65363	1.11535	1.3567	75.44	-0.2014	-0.0124	0.189	1015.1391	0.115236	-416.825634	-416.818706	-416.817762	-416.856823	27.135	
O	 0.0891070682	 1.414673391	-0.045162234	-0.443378
C	 0.0700816088	 0.0526395342	-0.0437509204	 0.057696
C	 0.0374155961	-0.7538190092	-1.161306111	 0.355195
C	 0.0079108718	-0.8274612513	-2.6591889459	-0.424329
C	-0.0173726644	-2.3366463302	-2.8830823202	-0.128972
C	-0.0039785187	-2.9782688135	-1.7074601436	-0.007249
N	 0.0288695418	-2.0323146163	-0.6735103105	 0.043108
N	 0.0530355857	-2.1300545739	 0.6571756694	-0.29606
C	 0.0783641716	-0.849609255	 1.0532509806	-0.10157
H	 0.110887092	 1.7226948691	 0.8657420701	 0.300319
H	-0.872268907	-0.3353925389	-3.0929763707	 0.141276
H	 0.8843199788	-0.3598342926	-3.1263584985	 0.14128
H	-0.042383686	-2.8018674694	-3.8566775568	 0.114992
H	-0.0140813862	-4.0301420351	-1.4676554624	 0.143464
H	 0.1018062374	-0.6106033392	 2.1074502041	 0.104229
149.154	222.3799	241.6475	270.9579	358.0723	465.6488	538.5652	614.5697	658.8264	668.459	686.5724	722.7784	800.2103	821.1048	878.767	912.1021	934.349	949.1766	1060.2045	1102.9518	1143.1965	1154.7505	1214.2852	1246.5634	1313.1614	1317.4601	1377.1805	1397.4502	1430.5448	1457.7349	1487.1647	1639.8106	1681.8263	3024.5806	3046.9813	3230.5447	3249.2833	3275.0504	3838.8244
OC1=C2CC=CN2N=C1	Oc1c2CC=Cn2nc1	
InChI=1S/C6H6N2O/c9-6-4-7-8-3-1-2-5(6)8/h1,3-4,9H,2H2	InChI=1S/C6H6N2O/c9-6-4-7-8-3-1-2-5(6)8/h1,3-4,9H,2H2
