14
gdb 74349	3.28444	1.19812	0.96407	3.8555	69.39	-0.2627	-0.0763	0.1864	1161.7174	0.10157	-432.917939	-432.909713	-432.908769	-432.951346	29.727	
N	 0.0182919901	 1.3341462379	-0.0633441177	-0.566581
C	-0.053100211	-0.00917706	-0.0155427799	 0.30754
N	-1.1182775776	-0.727434609	 0.0318665334	-0.277754
C	-0.735189748	-2.154389696	 0.0198501281	-0.125009
C	 0.8153443146	-2.2500996249	-0.0062375148	-0.372587
C	 1.2374859372	-0.7912510717	-0.0482885189	 0.357032
O	 2.3409802847	-0.3119737264	-0.0922035941	-0.308856
C	-1.3161232629	-2.8451879087	 1.1804190188	 0.285309
N	-1.7537796571	-3.4056076765	 2.0908020056	-0.319941
H	 0.9289778682	 1.7553281418	 0.0198292328	 0.278866
H	-0.8029413266	 1.8946775498	 0.0856456019	 0.275923
H	-1.1678718611	-2.6188650928	-0.8746421727	 0.139647
H	 1.2301059143	-2.735452732	 0.8805570823	 0.170124
H	 1.1935311452	-2.7841824016	-0.8815313948	 0.156286
48.9541	115.539	189.0115	235.7252	285.6995	300.6942	391.1589	468.8438	498.5574	544.845	605.9077	622.1535	656.7789	745.1124	751.4426	834.287	961.0976	1005.9181	1037.2082	1107.5883	1151.6724	1159.9093	1255.3838	1279.7786	1339.8516	1428.7452	1446.2432	1605.8203	1726.0174	1842.6916	2362.9396	3033.8603	3078.5922	3124.7256	3605.8159	3735.5231
NC1=NC(CC1=O)C#N	NC1=N[C@@H](CC1=O)C#N	
InChI=1S/C5H5N3O/c6-2-3-1-4(9)5(7)8-3/h3H,1H2,(H2,7,8)	InChI=1S/C5H5N3O/c6-2-3-1-4(9)5(7)8-3/h3H,1H2,(H2,7,8)/t3-/m0/s1
