14
gdb 24455	3.57512	1.73715	1.20785	2.581	62.55	-0.2004	0.008	0.2084	944.0488	0.103935	-473.833334	-473.827007	-473.826062	-473.864118	24.669	
C	-0.0030447292	 1.3691065102	 0.0241312663	-0.111565
C	 1.438526515	 1.907898861	 0.0407302611	-0.109476
O	 2.1610713869	 1.5041158702	 1.2080279961	-0.260814
C	 1.9089291018	 0.1867315759	 1.4299064322	 0.228627
C	 0.9064528252	-0.5050857549	 0.8435283888	 0.308778
O	 0.9471209591	-1.7860193607	 1.2785703128	-0.182306
C	 2.0160885385	-1.78777483	 2.1356387157	 0.038154
N	 2.6183833936	-0.6466853637	 2.260419998	-0.321928
O	-0.0374739037	-0.0737006212	-0.008208409	-0.2653
H	-0.5413531974	 1.7147564184	 0.9147736371	 0.13227
H	-0.5240782172	 1.7079409221	-0.8729907195	 0.133466
H	 1.9670007116	 1.5560358138	-0.8554358733	 0.125554
H	 1.4227064327	 2.9999947384	 0.0422062045	 0.130314
H	 2.2490797831	-2.7282658296	 2.6053486391	 0.154227
125.5449	242.6275	353.0071	375.2537	440.4218	477.3398	543.9939	642.0867	703.3694	713.7426	739.8044	754.0335	875.2733	913.1095	943.8126	1054.9697	1073.3744	1096.1669	1113.8061	1173.016	1267.147	1287.9125	1296.9102	1335.3622	1373.2586	1396.1163	1453.4976	1487.5523	1504.8097	1533.5433	1725.586	3022.3126	3043.2062	3116.5359	3128.2359	3295.4012
C1COC2=C(OC=N2)O1	C1COc2c(ocn2)O1	
InChI=1S/C5H5NO3/c1-2-8-5-4(7-1)6-3-9-5/h3H,1-2H2	InChI=1S/C5H5NO3/c1-2-8-5-4(7-1)6-3-9-5/h3H,1-2H2
