18
gdb 66980	2.64276	1.68416	1.27402	3.6724	75.72	-0.2296	-0.0284	0.2012	1027.6487	0.147009	-401.875927	-401.868042	-401.867098	-401.908298	30.267	
C	-0.0018300667	 1.4895117776	 0.0995286881	-0.514263
C	-0.0445079627	-0.0042704149	-0.0237830623	 0.296271
C	-1.0091816399	-0.8995413535	 0.7895113752	-0.131759
C	-1.0626251282	-2.2388394064	 0.0762976472	-0.18847
N	 0.4178005517	-2.0838311986	-0.2504521563	-0.180522
C	 0.4788584163	-1.0593960931	 0.9075952254	-0.070934
C	 0.4300658176	-0.8951396935	-1.1815244109	-0.10546
C	-0.3023872227	-0.9187240327	-2.4988925236	 0.146384
O	-0.9496957644	-1.8290325447	-2.9502109614	-0.246212
H	 0.9739276343	 1.8847424899	-0.2047864105	 0.124497
H	-0.7675534438	 1.9693174315	-0.5201271611	 0.128925
H	-0.1757324666	 1.8005479845	 1.1350242082	 0.128283
H	-1.6950898276	-0.4587214577	 1.5029282106	 0.092151
H	-1.1689159695	-3.072188373	 0.7756137017	 0.110638
H	-1.7102319611	-2.3879480507	-0.7874946695	 0.13386
H	 1.1954601815	-1.0649231372	 1.7169292778	 0.101712
H	 1.4777897151	-0.6529622281	-1.4143911335	 0.100189
H	-0.1805108833	 0.0339565908	-3.0697116552	 0.074711
86.9825	176.5558	199.137	227.8197	259.0776	299.6229	410.3619	488.0048	581.3896	685.354	719.7947	765.8828	825.3348	839.087	849.5698	897.6158	912.4352	954.3981	983.4875	1009.6528	1028.8991	1073.1776	1096.4604	1103.1981	1121.8803	1144.6482	1164.8451	1213.2524	1232.8838	1250.2699	1304.2111	1356.7382	1409.5819	1421.7847	1434.6112	1488.339	1499.1573	1520.095	1827.1363	2836.4864	3003.3274	3026.1089	3070.5188	3087.3907	3096.3353	3144.3389	3186.0831	3216.1719
CC12C3CN(C13)C2C=O	C[C@]12[C@H]3CN([C@@H]13)[C@H]2C=O	
InChI=1S/C7H9NO/c1-7-4-2-8(6(4)7)5(7)3-9/h3-6H,2H2,1H3	InChI=1S/C7H9NO/c1-7-4-2-8(6(4)7)5(7)3-9/h3-6H,2H2,1H3/t4-,5-,6+,7+/m0/s1
