22
gdb 9428	5.73086	0.78956	0.73431	0.2702	76.74	-0.2485	0.0896	0.3381	1627.5292	0.196931	-387.32887	-387.318164	-387.31722	-387.365469	36.58	
C	 0.7056634537	 0.9857208332	-1.004176891	-0.385722
C	-0.049790599	 0.1214467862	-0.0089416996	-0.023254
O	 0.8813635863	-0.4687899672	 0.8745640659	-0.247487
C	 0.2833949072	-1.2929975973	 1.8486498509	-0.067711
C	 1.379946947	-1.8534636979	 2.7532179844	 0.119393
C	 2.1388482146	-0.748402292	 3.4878329187	-0.399497
O	 0.7096335928	-2.7435375354	 3.6338127432	-0.249017
C	 1.5499303001	-3.6477362069	 4.3101166433	-0.233302
H	 1.4176043541	 0.381838746	-1.5740206486	 0.126085
H	 0.0103415471	 1.4571753055	-1.7050839719	 0.11446
H	 1.2619775704	 1.771549161	-0.4851659322	 0.125538
H	-0.7778529556	 0.7274487235	 0.5566862225	 0.086037
H	-0.6239674963	-0.6614578754	-0.5329482804	 0.085972
H	-0.4405558095	-0.7257045603	 2.4578667	 0.090076
H	-0.2610047703	-2.1292214346	 1.3826900037	 0.091148
H	 2.0841066683	-2.4198890666	 2.1207900695	 0.070524
H	 2.9736051718	-1.1467194358	 4.0713070091	 0.110824
H	 2.5370559999	-0.0352689576	 2.7621881272	 0.134865
H	 1.4638899242	-0.2174601599	 4.1676025655	 0.11672
H	 2.1637131347	-4.234916138	 3.6085422694	 0.102102
H	 2.2241814316	-3.1497909343	 5.021828734	 0.106984
H	 0.9042824771	-4.3312113862	 4.8677151563	 0.12526
50.1949	64.0982	86.4098	110.9987	143.6747	197.1649	237.1137	243.7478	275.3652	312.317	340.8122	448.6058	486.9015	537.9092	819.6131	837.1957	903.1936	928.6293	934.6541	1041.4808	1078.9521	1128.5271	1146.3714	1156.4267	1172.1025	1178.8895	1184.238	1198.6504	1229.0544	1258.4873	1294.5549	1339.6447	1378.4518	1391.7212	1399.3959	1407.7364	1448.1407	1478.702	1483.2511	1484.4015	1494.0688	1499.6283	1502.4062	1512.6127	1515.9425	1536.8498	2951.3714	2960.8509	2968.1378	2976.5311	2978.5042	3003.9715	3025.8346	3042.3081	3044.5846	3108.0792	3111.9406	3119.1376	3120.5442	3131.6931
CCOCC(C)OC	CCOC[C@@H](C)OC	
InChI=1S/C6H14O2/c1-4-8-5-6(2)7-3/h6H,4-5H2,1-3H3	InChI=1S/C6H14O2/c1-4-8-5-6(2)7-3/h6H,4-5H2,1-3H3/t6-/m1/s1
