14
gdb 132107	3.10179	1.37875	0.95561	4.3245	71.17	-0.1966	-0.0323	0.1643	1113.1046	0.101953	-478.03613	-478.028567	-478.027623	-478.068	29.255	
N	 0.0390574111	 1.4091829425	 0.1619627104	-0.579769
C	-0.0147839645	 0.0320646323	 0.0551615789	 0.32296
C	-1.1855950152	-0.6809676345	 0.0295737088	 0.161545
F	-2.3515637501	 0.0010044655	 0.0318307396	-0.102315
C	-1.1634375952	-2.0842736881	-0.0124185409	-0.144225
C	 0.0185808361	-2.7730091455	-0.0377099069	-0.276035
C	 1.2886634873	-2.0862201131	-0.0138028557	 0.424384
O	 2.4079542354	-2.5723692048	-0.0229288146	-0.406106
N	 1.1523276083	-0.6716512976	 0.0330135227	-0.43129
H	 0.7690113383	 1.8583732861	-0.3745369379	 0.26136
H	-0.8611632603	 1.8443639023	 0.0155623975	 0.271219
H	-2.1149709451	-2.606308595	-0.032198119	 0.122981
H	 0.0502058965	-3.853564547	-0.0690951942	 0.117876
H	 2.0330406474	-0.180423223	 0.1081280611	 0.257416
130.9177	196.6929	272.8923	289.8508	333.6743	358.9846	433.3116	467.957	510.7509	589.9181	609.4104	636.8743	698.4837	743.7559	757.7403	783.5528	827.4904	932.7292	972.5325	1093.7708	1125.9301	1202.6427	1262.2426	1280.7228	1333.976	1464.9665	1494.3944	1602.528	1647.6093	1688.1051	1783.1148	3185.9032	3230.3277	3553.5257	3599.0818	3655.7682
NC1=C(F)C=CC(=O)N1	Nc1c(F)ccc(=O)[nH]1	
InChI=1S/C5H5FN2O/c6-3-1-2-4(9)8-5(3)7/h1-2H,(H3,7,8,9)	InChI=1S/C5H5FN2O/c6-3-1-2-4(9)8-5(3)7/h1-2H,(H3,7,8,9)
