17
gdb 64653	3.46332	1.22478	1.09374	3.367	72.49	-0.2466	0.027	0.2736	1121.4095	0.135987	-417.941351	-417.933256	-417.932312	-417.974156	31.066	
N	-0.0770127568	 1.5327990458	-0.0400318788	-0.5781
C	-0.0111533165	 0.0865346393	-0.0262194645	 0.305341
C	 0.9967951702	-0.5303284655	-1.0227223222	-0.410169
C	 2.3434927301	-0.0136202466	-0.7978883713	 0.254822
N	 3.3905742064	 0.4296585753	-0.5879953328	-0.316045
C	-0.0924249268	-0.616760076	 1.3696606777	 0.028557
C	-1.5505636674	-0.131355158	 1.5349263631	-0.226783
C	-1.3604656455	-0.6925780783	 0.1072078281	 0.010392
O	-0.6082655369	-1.8290212744	 0.6876510718	-0.314223
H	 0.8393680701	 1.9251256704	 0.1621395394	 0.250702
H	-0.3338310247	 1.8672296846	-0.9650703345	 0.23331
H	 0.9947875165	-1.6180869574	-0.9234209515	 0.175415
H	 0.6981478778	-0.2847713656	-2.0494044519	 0.139652
H	 0.6930586942	-0.7542151558	 2.1132297551	 0.10799
H	-2.1571917422	-0.7658062923	 2.180183526	 0.112122
H	-1.7285703229	 0.9347516339	 1.6513186801	 0.130941
H	-2.0989160557	-0.9208771992	-0.6631721839	 0.096075
67.7182	122.8265	202.1444	267.4305	313.4501	389.5764	397.319	410.3744	469.2304	577.3241	621.2897	704.8179	771.7558	808.7441	868.1256	880.286	888.1484	918.2393	934.3513	957.7002	1018.4484	1047.6244	1095.7984	1131.9088	1156.2028	1174.8527	1179.4435	1208.5832	1238.3209	1268.4111	1275.6278	1326.4211	1333.231	1467.7997	1470.1433	1658.7882	2355.2841	3039.8149	3099.9812	3109.4189	3114.4471	3123.3944	3191.1497	3480.6019	3555.0586
NC1(CC#N)C2CC1O2	N[C@@]1(CC#N)[C@H]2C[C@@H]1O2	
InChI=1S/C6H8N2O/c7-2-1-6(8)4-3-5(6)9-4/h4-5H,1,3,8H2	InChI=1S/C6H8N2O/c7-2-1-6(8)4-3-5(6)9-4/h4-5H,1,3,8H2/t4-,5+,6+
