17
gdb 127393	4.76301	1.22468	0.99991	3.3174	75.14	-0.219	-0.0096	0.2094	1155.8173	0.137942	-417.982756	-417.975364	-417.974419	-418.014651	28.066	
C	-0.0626995247	 1.4418311896	 0.0451973493	-0.31687
N	-0.0693374688	-0.0004427806	 0.1484617169	-0.079012
C	-1.4108966709	-0.6207918814	 0.1416928481	-0.296832
C	-1.122573455	-1.8647887336	 0.9082316984	 0.388759
C	 0.0790732427	-1.852259675	 1.5241410505	 0.16704
C	 0.7727067685	-0.5576051644	 1.2374192956	-0.301384
C	 0.1008947669	-3.0949628627	 2.2015324723	-0.128668
N	-1.0034232448	-3.7818262163	 1.9920597764	-0.14383
O	-1.8046320615	-2.9785231618	 1.1506778215	-0.226452
H	 0.9674690771	 1.800448319	-0.0475880478	 0.124949
H	-0.6039539951	 1.754186651	-0.8538335965	 0.124401
H	-0.523364221	 1.9502908872	 0.9142240322	 0.09513
H	-2.1771273322	-0.0082382446	 0.653468361	 0.108427
H	-1.7617892156	-0.7919961571	-0.8835699662	 0.131068
H	 1.8089641074	-0.6621738998	 0.8928894249	 0.119932
H	 0.7911998148	 0.0974702745	 2.1277265825	 0.098905
H	 0.8609797425	-3.536767654	 2.8307175209	 0.134437
94.5335	215.2924	227.916	264.5304	288.7387	306.3326	455.9766	507.4513	633.6992	662.0217	724.6693	779.4578	843.4058	864.4265	906.8329	978.8085	1014.8374	1022.4562	1059.6178	1137.2926	1139.0321	1185.3319	1192.7441	1194.7865	1207.773	1232.2191	1325.5127	1340.0696	1402.5471	1431.387	1461.805	1489.4207	1502.2634	1512.065	1519.7923	1526.8181	1660.5718	2918.3491	2921.2931	2931.7398	3030.2981	3033.9105	3058.2845	3101.5322	3241.8311
CN1CC2=C(C1)C=NO2	CN1Cc2c(C1)cno2	
InChI=1S/C6H8N2O/c1-8-3-5-2-7-9-6(5)4-8/h2H,3-4H2,1H3	InChI=1S/C6H8N2O/c1-8-3-5-2-7-9-6(5)4-8/h2H,3-4H2,1H3
