16
gdb 56694	2.58613	1.29966	1.1413	4.025	64.41	-0.2737	0.012	0.2857	1108.137	0.122502	-474.996607	-474.987621	-474.986677	-475.030515	32.432	
O	-0.25024788	 1.3292622031	-0.0010327566	-0.418114
C	-0.0059052591	-0.0560245005	-0.0053902814	-0.029633
C	 0.6717079105	-0.492668819	-1.2492676829	 0.268725
N	 1.1941978304	-0.836714381	-2.2202669565	-0.320132
C	 0.8111938066	-0.4759000491	 1.2241696924	 0.316062
O	 1.9845132311	 0.290802183	 1.1659732765	-0.481414
C	-0.0289383975	-0.4858535488	 2.5226465831	-0.143737
O	-0.1449587424	-1.9206877	 2.4543221634	-0.267468
C	 0.8868333831	-2.0040098345	 1.4495790371	-0.135297
H	 0.6061329479	 1.755041027	 0.1405339776	 0.30367
H	-0.9803685808	-0.5533183873	 0.036383036	 0.150839
H	 2.5012698367	 0.1484795919	 1.9656051117	 0.295717
H	 0.543909838	-0.1563808919	 3.4027364191	 0.094999
H	-0.9976513089	 0.0225880198	 2.5097568545	 0.131511
H	 0.6158627188	-2.6624568464	 0.617774003	 0.131077
H	 1.8526436157	-2.3252225262	 1.8655752229	 0.103196
76.8451	105.894	131.7979	224.1993	235.4338	266.2962	322.4629	354.6559	396.8796	453.0433	495.909	528.9605	605.158	767.1481	828.596	884.0403	940.4778	975.8407	1008.3559	1021.979	1080.0038	1107.6415	1131.7541	1140.2676	1163.5361	1188.5999	1291.3348	1293.7457	1332.4524	1370.1507	1398.3972	1435.6465	1502.4473	1528.5521	2358.638	2988.9576	3004.3996	3073.8021	3078.5086	3084.9257	3772.0601	3822.4273
OC(C#N)C1(O)COC1	O[C@@H](C#N)C1(O)COC1	
InChI=1S/C5H7NO3/c6-1-4(7)5(8)2-9-3-5/h4,7-8H,2-3H2	InChI=1S/C5H7NO3/c6-1-4(7)5(8)2-9-3-5/h4,7-8H,2-3H2/t4-/m0/s1
