25
gdb 104849	1.8042	1.36938	1.16698	1.6504	88.04	-0.2371	0.0727	0.3098	1317.0023	0.227361	-389.49021	-389.479497	-389.478552	-389.525785	39.929	
C	 0.953386518	 1.3927816753	 0.1493941954	-0.396403
C	 0.3845326932	-0.0159159717	-0.0561755355	-0.217321
C	 0.5761921932	-0.5534843617	-1.4792404706	 0.433259
C	-0.0786483362	 0.3003938467	-2.5665437857	-0.23356
C	-1.6038335474	 0.4058525022	-2.45976536	-0.393788
O	 2.0050038502	-0.688507361	-1.7626522634	-0.330733
C	 1.9259394249	-2.1249373405	-1.7487682769	-0.089348
C	 0.3879215797	-2.0983865745	-1.6578983387	-0.072745
C	-0.2949405214	-2.9508785465	-0.5979180332	-0.42238
H	 1.9923730322	 1.4325597231	-0.1898035214	 0.137666
H	 0.3869222787	 2.1520127939	-0.3983418284	 0.114988
H	 0.9294895167	 1.6672072925	 1.2083196294	 0.10802
H	 0.8875373706	-0.6987621958	 0.6369854326	 0.09549
H	-0.680122462	-0.0403103834	 0.2064311434	 0.094664
H	 0.3700882387	 1.299948278	-2.5501798365	 0.105244
H	 0.1961873243	-0.1367300739	-3.5334052108	 0.095721
H	-2.0135452819	 0.953462134	-3.3137626297	 0.116567
H	-2.0748285804	-0.5836435965	-2.4480102932	 0.115895
H	-1.9153805069	 0.9321187078	-1.5521897127	 0.120636
H	 2.3663934807	-2.571402106	-2.6480601746	 0.097722
H	 2.4211153616	-2.5554224634	-0.8658992674	 0.090108
H	-0.0668247137	-2.3028853986	-2.6322686346	 0.074705
H	 0.1431001523	-2.8055821912	 0.3936328374	 0.119776
H	-1.3649370835	-2.7280102442	-0.5292470047	 0.119589
H	-0.1979746118	-4.0136289249	-0.84656179	 0.116228
64.6596	87.5573	121.8119	178.6559	189.2882	215.7274	236.6975	258.6448	307.6746	324.2489	383.4376	403.1253	479.0177	510.4282	650.4574	720.9061	780.2125	801.0659	894.8918	912.8716	927.6789	934.7528	965.0912	1022.0467	1032.428	1039.7905	1057.2421	1084.5249	1131.1376	1146.1162	1153.8499	1176.1796	1213.241	1226.8384	1278.5088	1297.3049	1315.9639	1333.2254	1365.3471	1380.6116	1390.8807	1408.2378	1411.4396	1417.3684	1476.3612	1489.2104	1497.9014	1501.2009	1503.3646	1504.095	1508.2376	1517.6962	1525.5664	2990.5735	3030.4753	3032.9356	3035.9996	3036.7809	3039.9829	3042.7107	3057.0939	3067.5958	3070.0865	3092.8635	3099.3791	3106.6153	3108.4528	3112.5583	3121.142
CCC1(CC)OCC1C	CCC1(CC)OC[C@H]1C	
InChI=1S/C8H16O/c1-4-8(5-2)7(3)6-9-8/h7H,4-6H2,1-3H3	InChI=1S/C8H16O/c1-4-8(5-2)7(3)6-9-8/h7H,4-6H2,1-3H3/t7-/m1/s1
