16
gdb 44553	3.65952	1.49617	1.42036	5.1053	66.97	-0.257	0.0602	0.3171	940.4906	0.126947	-437.905449	-437.898687	-437.897743	-437.936878	26.742	
O	 0.0360629476	-0.0466656866	-0.0210324109	-0.390242
C	-0.0162501238	 1.1505764364	-0.0052474603	 0.463492
N	-1.1396155575	 1.9479107699	 0.0138431352	-0.357595
C	-0.8431751075	 3.3516059594	 0.0894426839	-0.039198
C	-0.7834334492	 4.0724705294	 1.4557404514	-0.063313
C	-0.0092222003	 3.2670873564	 2.4524657523	-0.307125
C	 0.761341791	 4.0281626265	 1.4135836527	-0.061343
C	 0.7088238399	 3.3278951432	 0.0542358999	 0.088049
O	 1.1003700958	 1.9566013624	-0.0146613401	-0.248103
H	-2.0457975852	 1.522513821	 0.1031928938	 0.262134
H	-1.332482507	 3.9363391578	-0.6930686838	 0.094958
H	-1.4265256495	 4.8953244791	 1.7418046113	 0.09528
H	 0.0380213364	 3.6971820683	 3.4472886895	 0.123234
H	-0.0410577407	 2.182287617	 2.4457137138	 0.140995
H	 1.4734542395	 4.7994750862	 1.6777171521	 0.096752
H	 1.1878038108	 3.8765751336	-0.7573715607	 0.102026
76.8138	158.1799	298.8002	380.4692	411.8174	527.4579	565.551	658.4078	717.8309	765.1065	768.3824	770.6584	835.6046	883.3663	918.7139	931.8765	975.9882	988.002	1013.0281	1037.5243	1064.7475	1090.6648	1093.1435	1112.9943	1182.3519	1199.6409	1217.3622	1271.2196	1309.1762	1344.1412	1374.8476	1383.0823	1408.1703	1499.1448	1890.1056	3075.1282	3107.3299	3134.1471	3188.259	3197.257	3216.314	3680.6584
O=C1NC2C3CC3C2O1	O=C1N[C@H]2[C@H]3C[C@H]3[C@H]2O1	
InChI=1S/C6H7NO2/c8-6-7-4-2-1-3(2)5(4)9-6/h2-5H,1H2,(H,7,8)	InChI=1S/C6H7NO2/c8-6-7-4-2-1-3(2)5(4)9-6/h2-5H,1H2,(H,7,8)/t2-,3+,4-,5+/m0/s1
