21
gdb 38983	2.85793	1.62509	1.19167	2.0063	81.55	-0.2397	0.0833	0.323	1087.3933	0.185213	-387.078973	-387.071588	-387.070644	-387.110484	30.667	
C	-0.0076992866	 1.5792900713	-0.0611306468	-0.274196
C	 1.5213535187	 1.547436333	 0.0847204816	-0.068691
O	 2.0295305399	 0.8068266535	-1.0385935516	-0.310954
C	 1.54628268	 0.0717638679	 0.0883642835	 0.482243
C	 2.3830691368	-0.9946684404	 0.7201455007	-0.327937
C	 1.6583458553	-1.5907008215	 1.9443898977	-0.194849
C	 0.180808843	-1.8985379443	 1.6458443934	-0.192061
C	-0.5850919525	-0.6225903884	 1.2565628649	-0.216555
C	 0.0089079014	 0.008355459	-0.0090983136	-0.058224
H	-0.5259746167	 2.0230038594	 0.7930821974	 0.10111
H	-0.364410306	 2.040589359	-0.9850895569	 0.108053
H	 2.18904271	 2.2761617872	 0.5315262517	 0.096599
H	 2.5435278473	-1.7866271716	-0.0250950111	 0.108851
H	 3.3726593367	-0.607859777	 0.9855197696	 0.106107
H	 2.179646568	-2.4959519159	 2.2727310816	 0.095446
H	 1.7094373703	-0.8796550419	 2.7796603563	 0.097364
H	 0.114551484	-2.6348887743	 0.8327912089	 0.095539
H	-0.2849008496	-2.360803276	 2.5232131436	 0.093876
H	-1.6520136252	-0.8299476199	 1.119219183	 0.095556
H	-0.5117260761	 0.0890149605	 2.0904746534	 0.091331
H	-0.3547728286	-0.4974453895	-0.9093616875	 0.07139
146.5794	148.9938	295.5713	337.8418	364.8321	424.2742	454.7216	472.9422	538.7886	635.1999	739.8356	794.656	818.0607	851.1281	858.5188	888.4588	914.1538	942.4067	950.9228	984.8669	999.2311	1024.6773	1061.4403	1076.16	1108.696	1128.7873	1148.5632	1190.1721	1224.3873	1225.3069	1258.4403	1274.0338	1276.344	1284.5508	1335.6667	1356.8481	1366.6501	1372.8717	1376.5923	1460.7349	1479.1757	1479.8658	1488.3575	1489.2661	1502.0481	3009.4503	3011.3149	3014.8393	3022.4655	3050.0236	3062.5662	3066.5728	3068.5799	3070.7886	3075.4877	3118.6296	3176.7871
C1C2OC22CCCCC12	C1[C@@H]2O[C@]32CCCC[C@@H]13	
InChI=1S/C8H12O/c1-2-4-8-6(3-1)5-7(8)9-8/h6-7H,1-5H2	InChI=1S/C8H12O/c1-2-4-8-6(3-1)5-7(8)9-8/h6-7H,1-5H2/t6-,7-,8+/m0/s1
