20
gdb 22551	2.28509	1.01601	0.85927	2.1779	75.52	-0.2484	-0.0015	0.2469	1432.2534	0.167357	-477.368097	-477.357139	-477.356195	-477.404696	38.399	
C	-0.0898139874	 1.2538818988	 0.0435700352	-0.239717
O	 0.1987581079	-0.1313858034	 0.04942067	-0.260255
C	 0.7116782192	-0.6257701041	-1.1863213004	 0.007735
C	 1.3520702841	-1.9759612476	-0.8395534669	-0.075023
O	 2.3265057112	-1.8259630675	 0.1686878723	-0.42226
C	-0.3738510047	-0.7462083778	-2.2347017122	 0.349649
C	-1.6435254907	-1.4840871833	-1.9129395148	-0.482947
N	-0.1100168106	-0.1927299278	-3.3573006464	-0.17432
O	-1.1343054442	-0.3895137693	-4.2923660908	-0.393699
H	 0.8089389059	 1.8490232112	-0.1733724518	 0.116717
H	-0.859923895	 1.5087633276	-0.6967590935	 0.119622
H	-0.456268109	 1.5085610705	 1.0406931801	 0.129173
H	 1.4916850544	 0.0465694208	-1.5684802519	 0.09086
H	 0.5655848177	-2.6865338162	-0.5388863733	 0.090614
H	 1.8507303744	-2.3775418551	-1.726695018	 0.118439
H	 1.9029128572	-1.2955984312	 0.8550282316	 0.287368
H	-2.503694992	-0.9598408366	-2.3360368091	 0.147063
H	-1.6334867261	-2.4862117451	-2.357203391	 0.145393
H	-1.7637360966	-1.5796753003	-0.8327914443	 0.137583
H	-0.8094222158	 0.0998589363	-5.0557881948	 0.308002
53.0981	93.7928	103.5234	124.9641	144.5533	170.4894	242.4267	262.1575	298.8623	323.4343	375.5863	414.746	465.3387	474.285	538.8322	582.104	694.1787	816.648	866.796	983.5712	1017.0643	1027.1921	1059.2255	1083.0767	1104.8591	1136.1344	1184.9681	1199.4232	1257.6594	1269.3028	1291.5363	1355.182	1388.7639	1397.6104	1404.021	1436.6545	1477.5868	1480.5424	1485.1692	1485.9388	1503.1108	1510.067	1723.9079	2978.6853	2994.1237	3024.5487	3042.3045	3049.8119	3089.5796	3106.4083	3120.4947	3147.1267	3783.2451	3816.6757
COC(CO)C(C)=NO	CO[C@@H](CO)C(=NO)C	
InChI=1S/C5H11NO3/c1-4(6-8)5(3-7)9-2/h5,7-8H,3H2,1-2H3	InChI=1S/C5H11NO3/c1-4(6-8)5(3-7)9-2/h5,7-8H,3H2,1-2H3/t5-/m0/s1
