13
gdb 43233	3.69954	1.25568	0.98819	3.6259	76.61	-0.2516	-0.0931	0.1585	1113.6009	0.088191	-419.391494	-419.384185	-419.383241	-419.423415	27.611	
O	 0.1233724054	-0.0371861234	-0.0800768638	-0.316302
C	 0.0309005644	 1.1637246354	-0.006299754	 0.429121
C	-1.2131222625	 1.9725502554	 0.0967446461	-0.332873
C	-0.9324321443	 3.2925728082	 0.0265628472	 0.213062
C	-1.8343193031	 4.3735335093	 0.0530175788	 0.22269
C	-2.5705539386	 5.3279159026	 0.0593516899	-0.383574
C	 0.5695990213	 3.4957193383	-0.0431276324	-0.086393
O	 1.2366802698	 2.9943331866	 1.1226808404	-0.238713
C	 1.1827189549	 2.1675683561	-0.0560559913	-0.09639
H	-2.1921067196	 1.5289160133	 0.2164012649	 0.135175
H	-3.2313893697	 6.1598301367	 0.0734427398	 0.211071
H	 0.9959982594	 4.3788402767	-0.5058835446	 0.119969
H	 2.1285625026	 1.9136885547	-0.5225265709	 0.123157
111.5618	142.1697	187.5367	316.6944	379.4094	426.2479	498.4848	538.4488	614.9147	641.8492	647.1557	684.031	744.3786	833.4065	843.5014	872.2745	898.8967	926.5705	1022.9113	1079.8832	1149.6214	1183.4074	1235.3245	1267.8096	1306.3833	1393.4829	1622.4275	1822.0009	2219.233	3178.7885	3189.7988	3235.0854	3497.7896
O=C1C=C(C#C)C2OC12	O=C1C=C(C#C)[C@H]2O[C@@H]12	
InChI=1S/C7H4O2/c1-2-4-3-5(8)7-6(4)9-7/h1,3,6-7H	InChI=1S/C7H4O2/c1-2-4-3-5(8)7-6(4)9-7/h1,3,6-7H/t6-,7+/m1/s1
