13
gdb 131966	4.5312	1.16387	0.93147	7.2675	64.55	-0.2867	-0.0815	0.2051	1164.6902	0.089987	-485.996811	-485.989191	-485.988247	-486.030246	26.041	
C	-0.1326751753	 1.3728820138	 0.0879819054	-0.323295
N	-0.0521086577	-0.0738859422	 0.0047371204	 0.058684
C	-0.0288847655	-0.8734451095	-1.0879823049	 0.02296
N	 0.0503585643	-2.1408893576	-0.7311967964	-0.286776
C	 0.0720270658	-2.0419922349	 0.6126277454	 0.452583
N	 0.013078188	-0.8227822225	 1.1200242874	-0.274052
N	 0.1562191472	-3.212475069	 1.485029972	 0.369876
O	 0.2067535516	-4.3004403405	 0.9363248536	-0.336532
O	 0.168831259	-3.0027423512	 2.6880572095	-0.34515
H	 0.7476912387	 1.7639053095	 0.6018795006	 0.171695
H	-0.1762754157	 1.7764498753	-0.9245247748	 0.154427
H	-1.0300580174	 1.6628179093	 0.6381447791	 0.171699
H	-0.0709837128	-0.4926711405	-2.0974234874	 0.16388
43.2403	92.1508	161.308	199.4206	285.7627	364.7799	429.2017	552.5089	657.8105	675.1309	714.3147	811.345	851.0198	865.4999	1026.8606	1056.2925	1078.3225	1153.6942	1229.2994	1316.9574	1358.7556	1400.4712	1438.1856	1442.2173	1471.4896	1473.6145	1518.156	1544.1179	1659.2302	3064.8141	3142.8636	3159.244	3261.6593
CN1C=NC(=N1)N(=O)=O	Cn1cnc(n1)N(=O)=O	
InChI=1S/C3H4N4O2/c1-6-2-4-3(5-6)7(8)9/h2H,1H3	InChI=1S/C3H4N4O2/c1-6-2-4-3(5-6)7(8)9/h2H,1H3
