16
gdb 37304	2.94874	2.32127	1.93147	3.5387	69.83	-0.2316	0.0051	0.2367	775.376	0.128385	-396.864601	-396.85893	-396.857986	-396.894294	24.44	
N	 0.0249658735	 1.5088016921	-0.1286760649	-0.309312
C	 1.2870674955	 0.7848923635	 0.0165332444	-0.037241
C	 0.0002148442	 0.0358284692	-0.0253077122	-0.037535
C	-0.0680512679	-0.7142292131	-1.3945592234	-0.060081
N	-0.8180945057	 0.1553542945	-2.3269608215	-0.18365
C	 0.0601160033	 0.9490350481	-2.7908912464	 0.058186
N	 1.4499002769	 0.6070211339	-2.6343844239	-0.152894
C	 2.0457440797	 0.4645246565	-1.2558456892	-0.03608
C	 1.3879374347	-0.6830160077	-1.9265429105	-0.06299
H	-0.252092733	 1.9223549945	 0.7585581461	 0.236922
H	 1.8774751198	 0.9073830878	 0.9202510872	 0.089967
H	-0.4473511167	-0.414967704	 0.8537584067	 0.09543
H	-0.5169997576	-1.7023623178	-1.2990357555	 0.076593
H	-0.1720975417	 1.8184531342	-3.3962379352	 0.122165
H	 3.121649081	 0.6069819198	-1.2531556819	 0.103325
H	 1.8901577042	-1.5392155013	-2.3667014199	 0.097194
206.5861	309.7418	480.3304	501.7578	583.4564	660.4422	673.179	729.6388	776.5609	805.5541	844.1511	852.8195	869.1382	907.3261	925.3901	936.6712	939.9152	968.5599	984.2045	1010.6368	1037.4349	1075.5644	1102.2897	1142.5851	1156.886	1214.4111	1241.2442	1266.8569	1281.3642	1294.1157	1306.7446	1358.9128	1370.8528	1423.8255	1658.4142	3119.3392	3143.7761	3152.2808	3165.5505	3171.8761	3205.4275	3498.6179
N1C2C1C1N=CN3C2C13	N1[C@H]2[C@@H]1[C@H]1[N][CH]N3[C@@H]2[C@@H]13	
InChI=1S/C6H7N3/c1-7-3-2-4(8-2)6-5(3)9(1)6/h1-6,8H	InChI=1S/C6H7N3/c1-7-3-2-4(8-2)6-5(3)9(1)6/h1-6,8H/t2-,3+,4-,5+,6-,9?/m0/s1
