16
gdb 24332	3.779	1.57538	1.12305	3.9803	77.12	-0.1826	0.0321	0.2147	1019.4484	0.128815	-396.974038	-396.966967	-396.966023	-397.005445	27.967	
C	 0.0258434268	 1.5134777478	-0.0158642044	-0.283025
N	 1.3793039312	 2.0831182641	-0.0119924915	-0.261658
C	 2.3822593878	 1.3327769334	 0.2099783857	 0.075713
N	 2.3875110199	-0.0290811857	 0.4674127486	-0.430584
C	 1.195425865	-0.7223536876	 0.2443364256	 0.275244
C	 0.9116908323	-2.0668046023	 0.2027566442	-0.209772
N	-0.4352910136	-2.1695534863	-0.0809893728	-0.246081
C	-0.9897274826	-0.9212736041	-0.2096559202	-0.19
C	 0.0040235066	 0.0084034663	-0.0102431112	 0.205607
H	-0.505354241	 1.9227477206	 0.8577165664	 0.111417
H	-0.504257979	 1.9175698016	-0.8887932856	 0.110676
H	 3.3777888699	 1.7781182774	 0.2278533593	 0.103389
H	 3.265860442	-0.516524313	 0.4031664243	 0.244999
H	 1.5305657689	-2.9386871476	 0.333686805	 0.113143
H	-0.9378962132	-3.03482019	-0.1584817696	 0.261485
H	-2.038988331	-0.8001783845	-0.4270720537	 0.119445
85.078	225.4649	299.1681	362.3339	400.4236	403.8997	503.6558	538.57	615.2644	620.0054	628.2166	703.0377	742.6681	746.1595	904.5005	921.3925	937.7265	958.0271	1024.0189	1075.2828	1098.4075	1150.2272	1211.5386	1243.2315	1251.2382	1311.7989	1353.1926	1405.365	1430.9741	1468.1166	1484.629	1497.8089	1573.7377	1657.2679	1734.3183	2973.8059	3012.1303	3121.9193	3259.1827	3268.935	3641.1911	3699.4379
C1N=CNC2=CNC=C12	C1N=CNc2c[nH]cc12	
InChI=1S/C6H7N3/c1-5-2-8-4-9-6(5)3-7-1/h1,3-4,7H,2H2,(H,8,9)	InChI=1S/C6H7N3/c1-5-2-8-4-9-6(5)3-7-1/h1,3-4,7H,2H2,(H,8,9)
