16
gdb 71468	4.01575	1.29692	1.1457	5.1493	74.74	-0.2537	-0.0023	0.2514	1073.673	0.123668	-400.70152	-400.693985	-400.693041	-400.733307	29.374	
C	 0.1021728334	 1.4858165895	-0.0530950202	-0.507039
C	 0.0306241927	 0.0026811379	 0.1117305391	 0.395438
C	-1.2883310455	-0.8104504334	 0.2671759049	-0.265895
C	-0.4012305101	-1.9084590643	 0.8457146563	-0.156915
C	 0.6778171385	-0.9159499562	 1.2299207009	-0.243179
C	 0.9140770845	-1.7765135161	 0.027764657	 0.394746
O	 0.7380552414	-0.747123847	-0.9355689358	-0.35048
C	 1.8248571004	-2.8480616469	-0.1979019917	 0.193176
N	 2.5600531853	-3.7262575288	-0.3612288931	-0.345385
H	 1.1414536766	 1.8244956697	-0.0714175821	 0.141743
H	-0.3727317809	 1.7792758768	-0.9952551977	 0.143205
H	-0.4192117981	 1.9878344761	 0.7670738181	 0.130369
H	-1.9352348435	-0.3844295879	 1.0381774993	 0.114755
H	-1.8487481383	-1.0035888103	-0.6515942857	 0.11454
H	-0.6711738207	-2.8325022222	 1.3390409535	 0.118489
H	 1.2561861042	-0.7450195868	 2.1268592573	 0.122429
133.0937	151.7392	202.2543	278.7076	305.7682	431.1448	499.3083	517.3979	533.7933	601.5849	633.949	757.3092	790.1967	816.1026	855.3834	869.9353	910.6309	955.2304	979.0908	1001.3233	1036.7798	1076.8576	1122.4397	1128.2066	1145.2453	1215.0024	1230.5636	1241.9559	1342.6435	1392.5365	1425.4537	1477.8339	1484.9611	1488.2967	2353.3489	3042.177	3059.1505	3113.4129	3122.1918	3125.3964	3212.2189	3223.1941
CC12CC3C1C3(O2)C#N	C[C@]12C[C@@H]3[C@H]1[C@@]3(O2)C#N	
InChI=1S/C7H7NO/c1-6-2-4-5(6)7(4,3-8)9-6/h4-5H,2H2,1H3	InChI=1S/C7H7NO/c1-6-2-4-5(6)7(4,3-8)9-6/h4-5H,2H2,1H3/t4-,5-,6+,7-/m1/s1
