22
gdb 79582	2.06888	1.6849	1.48736	1.8144	86.01	-0.2197	0.0837	0.3035	1091.0439	0.192944	-367.164423	-367.155148	-367.154204	-367.197527	36.15	
C	-0.1137874771	 1.5583919203	-0.0488889775	-0.427535
C	 0.0476973565	 0.064683156	 0.1157815722	-0.018107
N	 1.3042998062	-0.6705460351	-0.1715745444	-0.190735
C	 2.4112003633	 0.1421492494	 0.3760040055	-0.046107
C	 3.1362793197	-0.6556503486	 1.4130351028	-0.337012
C	 1.8780471234	 0.1013693988	 1.8035218648	 0.273797
C	 1.8417337211	 1.1024845362	 2.9265531095	-0.501713
C	 0.6908225723	-0.6590063251	 1.2463707207	 0.255484
C	 0.091208396	-1.8822450543	 1.8816473316	-0.4935
H	 0.7068916082	 2.1244958703	 0.3933319261	 0.126492
H	-0.1695175972	 1.8160188789	-1.1126167845	 0.122854
H	-1.0464090142	 1.8904346267	 0.4201170697	 0.118711
H	-0.7882306204	-0.4908414956	-0.3097683355	 0.087417
H	 2.8592541531	 0.9486610353	-0.1938256518	 0.087644
H	 3.1413323753	-1.7403757668	 1.3415788453	 0.11185
H	 4.0616151937	-0.2207644153	 1.7810334566	 0.104977
H	 2.7812130858	 1.6618878168	 2.9840469975	 0.118402
H	 1.0278434052	 1.8249022548	 2.8047031544	 0.118123
H	 1.7004157349	 0.6056147496	 3.8943128417	 0.120027
H	-0.5417287561	-1.6044766899	 2.7331538815	 0.11897
H	-0.528290173	-2.4328191459	 1.168125852	 0.128046
H	 0.8697431333	-2.5591016765	 2.2490265417	 0.121914
157.9886	173.4209	176.0995	201.034	205.6074	230.5818	256.3025	324.6427	371.6775	442.898	523.543	596.2736	612.7651	656.4411	703.4011	799.2575	819.0957	861.2191	906.9079	944.131	975.4984	992.2474	1024.4494	1042.7112	1065.6384	1078.4498	1108.108	1115.283	1127.1324	1134.1718	1170.4657	1193.923	1261.1242	1312.6912	1324.169	1380.7896	1404.4306	1411.3613	1420.3912	1456.712	1483.5555	1485.2644	1490.8509	1493.6785	1494.4976	1501.5431	1504.6763	3021.472	3027.9112	3035.5178	3079.3789	3088.9436	3090.3772	3097.5413	3106.1011	3108.3479	3113.1335	3140.1258	3170.7111	3195.9315
CC1N2C3CC3(C)C12C	C[C@H]1N2[C@@H]3C[C@]3(C)[C@@]12C	
InChI=1S/C8H13N/c1-5-8(3)7(2)4-6(7)9(5)8/h5-6H,4H2,1-3H3	InChI=1S/C8H13N/c1-5-8(3)7(2)4-6(7)9(5)8/h5-6H,4H2,1-3H3/t5-,6-,7+,8-,9?/m1/s1
