14
gdb 29254	3.29481	1.43225	0.99949	2.7627	69.06	-0.2152	-0.0313	0.184	1089.7857	0.10331	-470.066177	-470.058622	-470.057678	-470.098171	28.988	
N	 0.0497677192	 1.4146772752	-0.019382398	-0.591394
C	-0.0074908976	 0.0286779627	 0.0311956694	 0.203871
C	-1.1261816637	-0.7093721891	 0.1126645586	-0.021354
O	-1.139606992	-2.0835831445	 0.2224466489	-0.217136
C	 0.0106922338	-2.7996613557	 0.2763956634	 0.48088
O	 0.0003953726	-3.9945491316	 0.385840472	-0.374092
N	 1.1702169585	-2.0491191483	 0.1918746757	-0.452949
C	 1.2854518039	-0.6680126184	 0.0427546656	 0.380223
N	 2.3722131218	-0.0098379602	-0.0833027001	-0.548576
H	 0.9599106566	 1.7316070194	-0.3307668419	 0.270988
H	-0.7154453335	 1.8670772682	-0.4966273706	 0.24983
H	-2.132011539	-0.3133363022	 0.1048387101	 0.133753
H	 2.0130603446	-2.6050374151	 0.2179148102	 0.268627
H	 3.201054675	-0.6030708704	-0.0679534332	 0.21733
109.2213	145.16	275.1553	324.6186	358.7054	389.8336	398.2624	458.4883	549.0117	616.2771	618.5144	657.8349	750.5069	755.3444	766.0174	819.2479	831.9633	840.5708	924.0959	1102.7045	1127.3719	1213.1461	1252.7499	1299.0101	1389.2432	1421.1639	1480.3205	1624.7405	1706.3075	1733.7136	1868.3691	3234.3537	3488.0653	3541.3533	3618.9626	3657.3255
NC1=COC(=O)NC1=N	NC1=C(NC(=O)O[CH]1)[NH]	
InChI=1S/C4H5N3O2/c5-2-1-9-4(8)7-3(2)6/h1H,5H2,(H2,6,7,8)	InChI=1S/C4H5N3O2/c5-2-1-9-4(8)7-3(2)6/h1H,5H2,(H2,6,7,8)
