14
gdb 73744	2.16611	1.81182	0.99288	7.6945	74.98	-0.2338	-0.0378	0.196	1101.6497	0.102168	-432.914393	-432.906142	-432.905197	-432.947344	29.864	
N	 0.0170383493	 1.3043659842	 0.0626374763	-0.595864
C	-0.0320264625	-0.038489734	 0.0170436968	 0.268709
C	-1.1142913993	-0.8638321688	 0.0104287697	 0.015237
C	-2.4568302319	-0.429125888	 0.0184260617	 0.21172
N	-3.5296170191	 0.0105970814	 0.0237786133	-0.361073
C	-0.6509231658	-2.2534693119	-0.0114384326	 0.350432
N	-1.3520865952	-3.3009986842	-0.0229012128	-0.544174
O	 0.7359052504	-2.2310478242	-0.0205075476	-0.25335
C	 1.2084209283	-0.8932757487	 0.0002710467	-0.162701
H	 0.8816389908	 1.7973281272	-0.0748804641	 0.275715
H	-0.8357611853	 1.8369946554	-0.0052933845	 0.289828
H	-0.7651117477	-4.1346790198	-0.0399434491	 0.227267
H	 1.8262986411	-0.7016108046	-0.8877545841	 0.136878
H	 1.8284066469	-0.728420554	 0.8916961702	 0.141377
117.7203	122.5933	178.5787	191.7784	208.2342	303.6697	433.9479	451.4441	510.7039	535.3213	593.7755	619.9818	652.3366	740.4424	744.4086	846.7878	961.5033	975.1407	1029.8258	1089.0061	1161.5876	1202.87	1204.6952	1292.306	1384.8294	1459.0681	1501.9488	1637.2816	1700.1649	1778.5222	2335.306	3009.5213	3042.4494	3501.1865	3601.886	3725.7866
NC1=C(C#N)C(=N)OC1	N[C]1C(=C([NH])OC1)C#N	
InChI=1S/C5H5N3O/c6-1-3-4(7)2-9-5(3)8/h8H,2,7H2	InChI=1S/C5H5N3O/c6-1-3-4(7)2-9-5(3)8/h8H,2,7H2
