21
gdb 40884	3.27473	1.45794	1.30833	1.7071	81.09	-0.239	0.083	0.322	1068.3855	0.184839	-387.060416	-387.052976	-387.052032	-387.092236	30.43	
C	 0.0815319036	 1.4202773483	-0.5364091765	-0.21311
C	 1.3688209289	 1.7182703559	 0.2838162246	-0.324442
C	 1.3444426955	 0.2554661046	 0.7813349865	 0.428957
C	-0.113616429	 0.114640218	 0.2858077654	-0.298651
C	 2.3531215765	-0.8409778747	 0.360758675	 0.011716
C	 3.7171033901	-0.3105431207	 0.8459986888	-0.226001
C	 3.2597120483	 0.1269761272	 2.276006449	-0.222514
C	 1.7844007807	-0.3046342424	 2.1474663143	-0.008183
O	 1.9009689461	-1.6198700686	 1.5131497924	-0.309864
H	-0.7188102399	 2.1617433812	-0.4905513395	 0.098355
H	 0.3024459289	 1.2173725066	-1.5877283185	 0.103061
H	 2.2529795341	 2.0482106019	-0.26871518	 0.098572
H	 1.1894179347	 2.4297634106	 1.0967483756	 0.101943
H	-0.836810001	 0.2414625838	 1.0975943801	 0.098831
H	-0.3674987426	-0.7966805144	-0.259948022	 0.106559
H	 2.2943882951	-1.3741362125	-0.5895093648	 0.073108
H	 4.4661347793	-1.104713694	 0.8651794325	 0.107324
H	 4.0995506017	 0.5141983024	 0.2386099186	 0.098104
H	 3.7697377626	-0.4205194626	 3.0710886511	 0.106202
H	 3.3739096641	 1.1989029307	 2.4603867029	 0.09915
H	 1.1433512125	-0.2892628613	 3.0303341344	 0.070885
91.7554	178.5491	209.191	276.4316	352.4267	405.9502	521.6402	579.0191	685.6784	722.3445	791.9719	812.7189	831.315	868.4919	872.8255	889.7342	921.2928	931.3744	938.1148	953.4027	969.0883	1005.5534	1028.0112	1052.3501	1061.6459	1152.9294	1177.007	1180.6461	1191.3771	1204.6743	1230.1755	1239.2667	1249.0008	1255.1122	1261.3155	1277.2966	1291.8322	1302.5475	1321.4252	1364.0859	1471.2367	1478.7583	1482.9088	1498.1754	1504.8763	3043.407	3051.9149	3060.515	3062.0634	3069.1841	3090.3197	3103.5232	3104.9114	3108.6344	3111.255	3119.8543	3123.729
C1CC2(C1)C1CCC2O1	C1CC2(C1)[C@H]1CC[C@@H]2O1	
InChI=1S/C8H12O/c1-4-8(5-1)6-2-3-7(8)9-6/h6-7H,1-5H2	InChI=1S/C8H12O/c1-4-8(5-1)6-2-3-7(8)9-6/h6-7H,1-5H2/t6-,7+
