22
gdb 101568	3.14715	0.79459	0.71914	3.894	80.67	-0.2356	0.0407	0.2763	1687.7681	0.19212	-441.526281	-441.515017	-441.514073	-441.564242	39.466	
C	 0.1493928584	 1.3433603712	-0.4964860505	-0.365724
C	-0.0421098934	-0.0569453273	 0.0886347677	-0.295546
C	-1.512076679	-0.4765817676	 0.0955372094	 0.427068
O	-2.4178456343	 0.3226241422	 0.2743258493	-0.391044
N	-1.7331952964	-1.8090479071	-0.0750609085	-0.324971
C	-3.0678286618	-2.3934573846	-0.0862047699	 0.056993
C	-3.6585518181	-2.4400213305	-1.5022776486	-0.389585
C	-2.9937999509	-3.7746836793	 0.5610098627	-0.097434
O	-2.0437075347	-4.5422162818	-0.1738049794	-0.426654
H	 1.1825441234	 1.6805006391	-0.37427787	 0.105943
H	-0.0905878518	 1.3609597136	-1.5641274344	 0.118815
H	-0.5174832577	 2.0479156657	 0.0044355487	 0.145064
H	 0.5669023937	-0.7960984311	-0.444756839	 0.09504
H	 0.297783667	-0.0720583647	 1.1326743953	 0.125795
H	-0.9693137554	-2.432123418	-0.2838231574	 0.248477
H	-3.6929093494	-1.7483409646	 0.5377977101	 0.112821
H	-3.6784425907	-1.43405606	-1.9278652868	 0.134968
H	-3.0631252611	-3.0896695024	-2.1493657293	 0.125987
H	-4.6840916324	-2.8239132685	-1.4794946473	 0.109557
H	-2.6848705542	-3.6707924719	 1.6112272345	 0.095911
H	-3.9882109927	-4.2443150018	 0.5387545239	 0.094641
H	-1.9276699885	-5.3888711807	 0.2658402096	 0.293876
28.3223	44.1508	82.2384	114.2124	164.6702	217.2261	230.5549	252.0195	262.1205	288.5817	323.9952	433.7274	447.6375	513.268	607.0371	617.7292	707.3026	806.7766	835.6998	912.9168	945.009	955.1825	1002.5126	1030.395	1085.6548	1095.8699	1118.5821	1139.9213	1176.8348	1210.6192	1246.5591	1274.104	1288.0894	1340.0578	1374.3818	1389.4304	1401.2286	1405.2502	1452.0646	1467.4248	1491.6563	1494.1934	1495.9408	1506.634	1515.3394	1528.1624	1764.7249	2986.4015	3024.166	3024.5698	3041.4546	3046.4669	3061.7736	3081.8889	3111.9808	3113.2321	3133.197	3138.6249	3639.3805	3841.7293
CCC(=O)NC(C)CO	CCC(=O)N[C@@H](C)CO	
InChI=1S/C6H13NO2/c1-3-6(9)7-5(2)4-8/h5,8H,3-4H2,1-2H3,(H,7,9)	InChI=1S/C6H13NO2/c1-3-6(9)7-5(2)4-8/h5,8H,3-4H2,1-2H3,(H,7,9)/t5-/m0/s1
