23
gdb 74950	2.81588	1.45223	1.28182	0.231	90.43	-0.2235	0.0324	0.2558	1137.3612	0.209511	-351.196804	-351.188874	-351.18793	-351.228846	32.657	
C	 0.0173435191	 1.5741036132	 0.0688344046	-0.47616
C	 0.0100509392	 0.0730083983	-0.0143600379	 0.33073
C	-0.0301507621	-0.5921250041	-1.1729844326	-0.163142
C	-0.0352471999	-2.1054669278	-1.2364445229	-0.036362
C	-1.4506207996	-2.6538380084	-0.9168532234	-0.200093
C	-1.5338574065	-2.580386971	 0.6389549269	-0.202733
C	-0.1038257788	-2.2011409522	 1.1209454644	-0.003158
C	 0.7817152469	-2.6574747228	-0.054145894	-0.22228
C	 0.0567788129	-0.6788486564	 1.3008397701	-0.29484
H	 0.9055889765	 1.9372225424	 0.6029286649	 0.118488
H	 0.0061788224	 2.0349080041	-0.9227978468	 0.116969
H	-0.8512324504	 1.9470366052	 0.6276262794	 0.11828
H	-0.0880426741	-0.0435306079	-2.1108747434	 0.070201
H	 0.3269808995	-2.4478412467	-2.2098742961	 0.054738
H	-2.2396166396	-2.0784126149	-1.4079139186	 0.093099
H	-1.5388191626	-3.690082728	-1.2622104038	 0.088485
H	-2.2731584991	-1.8474933079	 0.9751981666	 0.094289
H	-1.8366260124	-3.5462666909	 1.0541761976	 0.093341
H	 0.1462088888	-2.7026215404	 2.0604623733	 0.056011
H	 0.8434423562	-3.7510325885	-0.099884935	 0.083919
H	 1.7988497722	-2.2567423589	-0.0106624145	 0.089693
H	 1.004556576	-0.4534541164	 1.8140096304	 0.095419
H	-0.7302713146	-0.29791408	 1.9682407606	 0.095104
116.5307	152.9639	200.2891	316.1143	345.0522	371.9047	407.074	461.6253	507.3234	546.3121	721.0552	761.3655	796.3698	812.5819	839.8412	852.1321	891.3303	904.6005	944.9246	962.1863	977.2843	1001.6657	1012.9068	1047.7398	1060.5384	1075.9975	1104.9565	1149.4782	1167.588	1184.1459	1201.037	1211.1597	1254.0492	1269.9106	1308.0407	1317.3514	1339.2272	1345.3344	1357.2756	1368.9411	1396.9303	1413.2078	1472.4637	1478.9238	1486.1701	1489.511	1491.7906	1512.3997	1730.1023	2985.5636	3010.3576	3012.0917	3031.7953	3035.0791	3048.8757	3054.3246	3061.1681	3068.5779	3081.5148	3087.7131	3100.753	3106.4274	3142.6872
CC1=CC2CCC(C2)C1	CC1=C[C@@H]2CC[C@@H](C2)C1	
InChI=1S/C9H14/c1-7-4-8-2-3-9(5-7)6-8/h4,8-9H,2-3,5-6H2,1H3	InChI=1S/C9H14/c1-7-4-8-2-3-9(5-7)6-8/h4,8-9H,2-3,5-6H2,1H3/t8-,9+/m0/s1
