12
gdb 129151	3.70107	0.7741	0.6402	4.5424	61.68	-0.259	-0.0911	0.1678	1561.7812	0.073764	-468.863742	-468.854114	-468.85317	-468.903523	29.528	
N	-0.0521972759	 0.7308887058	 0.3527005246	-0.480216
C	-0.635836694	-0.1525388479	-0.3169209423	 0.312764
N	 3.2096931134	-0.5365209544	-0.220087183	-0.001645
N	 3.9816068213	-1.2104760128	-0.6156615242	 0.009709
O	 0.0062268623	-1.1997612937	-0.9844701649	-0.209955
C	-0.9695085072	-1.9415320424	-1.5926682048	 0.067656
C	-2.2257583095	-1.506396989	-1.4089288433	-0.296455
C	-2.1412203323	-0.3091071977	-0.5682661276	 0.33353
O	-3.0008935413	 0.4215063377	-0.1415085797	-0.297136
H	 0.9615540987	 0.5950804158	 0.3541793361	 0.260081
H	-0.5931101633	-2.7905515784	-2.1475049109	 0.160559
H	-3.1282700021	-1.9466117029	-1.8004815801	 0.14111
12.9615	18.0202	51.1227	52.6971	77.055	154.4289	324.5353	325.4657	509.3634	538.6875	618.4685	755.5066	767.3112	813.5242	840.6127	938.312	939.0857	962.2802	1043.8523	1118.4196	1208.7147	1271.3003	1372.8864	1627.5728	1791.1557	1824.5983	2435.417	3234.3323	3276.6259	3474.1671	12.9593	18.0206	51.1254	52.6971	77.0568	154.4284	324.535	325.4657	509.3638	538.6876	618.4687	755.5066	767.311	813.5248	840.6141	938.3117	939.0863	962.2805	1043.8528	1118.4208	1208.7149	1271.3008	1372.8874	1627.5726	1791.1563	1824.5993	2435.4169	3234.3324	3276.6261	3474.1676
N=C1N=NOC=CC1=O	[NH][C]1OC=CC1=O.N#N	
InChI=1S/C4H3N3O2/c5-4-3(8)1-2-9-7-6-4/h1-2,5H	InChI=1S/C4H3NO2.N2/c5-4-3(6)1-2-7-4;1-2/h1-2,5H;
