15
gdb 128401	6.55715	0.82678	0.73758	2.7379	75.65	-0.2189	-0.0093	0.2095	1463.3889	0.114348	-446.298006	-446.289383	-446.288438	-446.333326	28.956	
C	-0.0060456166	 1.4771405154	 0.0102345571	-0.312966
N	-0.074389625	 0.0272639944	 0.0031199969	-0.285352
C	-1.2400694218	-0.64537555	 0.009990351	 0.121651
N	-2.3710252028	-0.026638483	 0.0233598768	-0.368078
C	-3.510474159	-0.7913246805	 0.0298526719	 0.485154
N	-4.7281412931	-0.2419731879	 0.0424454793	-0.300974
N	-5.4942361502	-1.3268805607	 0.0443032932	-0.06689
N	-4.8415171839	-2.4782077829	 0.0347360849	-0.112907
N	-3.5758092771	-2.1614313732	 0.0262140247	-0.278771
H	 1.0419213006	 1.7811538569	 0.0021939532	 0.124707
H	-0.5116438317	 1.8939999112	-0.8663911397	 0.15032
H	-0.495349642	 1.8846067537	 0.900423877	 0.150294
H	 0.7779656906	-0.5034241095	-0.0073171683	 0.259731
H	-1.1430461426	-1.7341226717	 0.0034249751	 0.137683
H	-6.5013799555	-1.2821232723	 0.0526929069	 0.296398
32.0715	43.6854	117.1339	132.4722	230.8629	240.5643	391.7187	461.5372	497.1234	544.6487	593.7084	730.0778	800.6315	876.7466	985.2029	1018.2139	1021.329	1067.6686	1132.8909	1160.1629	1177.6977	1204.98	1258.0193	1279.7132	1346.6433	1372.6965	1455.6519	1472.4737	1490.0945	1508.1456	1532.3741	1583.8825	1705.7956	3041.7176	3098.7071	3100.9744	3141.0212	3658.1972	3685.6015
CNC=NC1=NNN=N1	CNC=Nc1n[nH]nn1	
InChI=1S/C3H6N6/c1-4-2-5-3-6-8-9-7-3/h2H,1H3,(H2,4,5,6,7,8,9)	InChI=1S/C3H6N6/c1-4-2-5-3-6-8-9-7-3/h2H,1H3,(H2,4,5,6,7,8,9)
