19
gdb 85531	2.57031	1.63159	1.19451	3.6622	76.29	-0.2481	0.0336	0.2817	1075.5735	0.161347	-419.200703	-419.192684	-419.19174	-419.23333	31.297	
C	 0.5643172135	 1.307102491	-0.3056083666	-0.390334
C	-0.0735927084	 0.0138209185	 0.1906880245	 0.117222
O	-0.2351154083	-0.9268825156	-0.9044402035	-0.268472
C	 0.7517082984	-1.7988453985	-1.2488334217	 0.391866
N	 0.6252947223	-2.5803045473	-2.2395317726	-0.516996
C	 2.0056971075	-1.8172942568	-0.4023366592	-0.30221
C	 1.6972047401	-1.6159890022	 1.070527519	-0.036841
N	 2.0371093089	-0.2971978483	 1.624895059	-0.329515
C	 0.6241026839	-0.638238086	 1.3790811819	-0.06273
H	 1.6103445673	 1.1624874751	-0.5803307622	 0.138724
H	 0.0113560349	 1.6799792805	-1.1714778587	 0.122935
H	 0.5348802238	 2.0624300363	 0.485548647	 0.122071
H	-1.1097259204	 0.2213140551	 0.4730234938	 0.094667
H	-0.2713661772	-2.4122345805	-2.7015936656	 0.213443
H	 2.5145755032	-2.7612956971	-0.5976951545	 0.13635
H	 2.6713208821	-1.0119607055	-0.7328025731	 0.140635
H	 1.7956869637	-2.4845391082	 1.7151966072	 0.098749
H	 2.2372409713	-0.3715054068	 2.6187440295	 0.235845
H	-0.0069847665	-0.8279468435	 2.2422951658	 0.094591
86.5048	106.1844	212.9226	243.3187	345.7009	396.6882	428.9442	451.2112	503.3147	535.7607	613.3435	720.4969	771.695	835.6147	841.7191	896.5222	910.394	927.4684	936.4141	982.8336	997.8807	1049.3593	1083.9165	1099.1155	1124.9892	1141.0591	1165.3801	1218.0355	1240.7911	1263.2856	1311.0206	1327.3948	1368.7656	1394.356	1409.8707	1414.7987	1453.6843	1463.9976	1487.0494	1488.4003	1741.5114	3050.9031	3053.0066	3063.7954	3122.6173	3131.5293	3144.4356	3146.4113	3154.7256	3456.1141	3507.9098
CC1OC(=N)CC2NC12	C[C@H]1O[C]([NH])C[C@H]2N[C@@H]12	
InChI=1S/C6H10N2O/c1-3-6-4(8-6)2-5(7)9-3/h3-4,6-8H,2H2,1H3	InChI=1S/C6H10N2O/c1-3-6-4(8-6)2-5(7)9-3/h3-4,6-8H,2H2,1H3/t3-,4-,6+/m1/s1
