27
gdb 58580	2.64849	1.16006	1.02888	0.0907	94.46	-0.2934	0.0701	0.3635	1374.672	0.252767	-353.584762	-353.574339	-353.573395	-353.619628	40.526	
C	-0.0226619273	 1.5947926401	-0.100001915	-0.405656
C	 0.0943584404	 0.0620948483	-0.1113965016	 0.005435
C	 0.8635854862	-0.3946081881	-1.3614777602	-0.405665
C	 0.6527613255	-0.5294936912	 1.2138780445	 0.330841
C	 2.0960886035	-0.0669642391	 1.4975326598	-0.437341
C	-0.258586733	-0.1859155901	 2.4214956266	-0.231903
C	 0.0150586956	-1.2708326767	 3.4875459018	-0.215691
C	 0.5627668532	-2.5004717387	 2.7080256951	-0.215696
C	 0.5840502459	-2.0793781592	 1.2212510415	-0.231892
H	 0.9605560674	 2.0761690955	-0.0652198431	 0.113301
H	-0.5206728773	 1.9444929915	-1.0106634988	 0.107418
H	-0.6035263108	 1.9556995423	 0.7534513791	 0.112457
H	-0.9272274174	-0.3365503226	-0.2004056717	 0.063868
H	 1.8832851461	 0.0048661336	-1.3784361382	 0.113308
H	 0.9287701154	-1.4842733184	-1.4279304597	 0.112453
H	 0.3623995179	-0.0373851344	-2.2674657719	 0.107419
H	 2.1604230391	 1.021514805	 1.5911010881	 0.111497
H	 2.471838947	-0.4927452849	 2.4331561092	 0.112322
H	 2.7830823397	-0.3776200558	 0.704300132	 0.111499
H	-0.0904115903	 0.8245290162	 2.8060391054	 0.090727
H	-1.3068505053	-0.2342593902	 2.1003504713	 0.08782
H	 0.7501373362	-0.9201770839	 4.2182238635	 0.098015
H	-0.8892947323	-1.5101758326	 4.0538674212	 0.094463
H	 1.5688774675	-2.7573695961	 3.0529058881	 0.098021
H	-0.0503630481	-3.392989784	 2.860809877	 0.094451
H	-0.3450066134	-2.3959592417	 0.7303641161	 0.087812
H	 1.4081572384	-2.5433033447	 0.6710011797	 0.090719
73.1947	84.2756	158.7843	201.7453	215.912	248.5144	265.2517	301.5271	329.5061	337.1594	381.2321	442.9885	460.8579	588.7487	641.7972	706.4579	807.3777	815.3361	858.2586	896.7154	923.933	927.7889	938.2566	939.3844	966.8103	984.283	1012.1026	1050.2847	1055.7801	1120.8637	1124.4474	1146.3222	1189.6794	1203.8213	1241.6538	1242.6146	1261.726	1273.9513	1315.9287	1329.373	1337.2816	1357.0292	1358.9104	1378.1839	1401.5567	1413.0851	1424.6461	1485.4785	1486.6269	1488.2142	1490.1234	1498.4197	1506.225	1512.5076	1513.5825	1513.6521	1521.3207	2987.6005	3021.4185	3027.0768	3031.7509	3034.9481	3040.7171	3045.576	3057.2919	3070.5144	3080.2097	3084.4596	3090.6234	3096.2298	3100.8709	3104.0955	3106.8761	3109.3308	3110.8391
CC(C)C1(C)CCCC1	CC(C)C1(C)CCCC1	
InChI=1S/C9H18/c1-8(2)9(3)6-4-5-7-9/h8H,4-7H2,1-3H3	InChI=1S/C9H18/c1-8(2)9(3)6-4-5-7-9/h8H,4-7H2,1-3H3
