17
gdb 71720	2.36933	2.07912	1.80928	2.0892	70.26	-0.233	0.0618	0.2948	863.5804	0.135568	-421.746001	-421.738643	-421.737699	-421.777292	29.974	
O	-0.1443412564	 1.3351642949	-0.0907525738	-0.493992
C	 0.0133801518	-0.0464973836	-0.0953411537	 0.319294
C	 0.6124818693	-0.8581838603	-1.2775452941	-0.32166
C	-0.2837603124	-1.9966601294	-0.7243555592	-0.111206
C	 0.1265937256	-2.2360760405	 0.7521564472	-0.057598
C	 0.3488034269	-0.8013486698	 1.2179936545	-0.146731
C	-1.0189825736	-1.4422886321	 1.3459642203	-0.201581
C	-1.2771053763	-0.9397761644	-0.1236819579	 0.387238
O	-2.4444195943	-0.5744074487	-0.7454642602	-0.481634
H	 0.6953605195	 1.7498681489	 0.1342243017	 0.283309
H	 0.2394587237	-0.4812548391	-2.2340187776	 0.109278
H	 1.6940376294	-1.0165191687	-1.3233425923	 0.086771
H	-0.6073113413	-2.8434283767	-1.3258553727	 0.075527
H	 0.6504392871	-3.0836040707	 1.1739071089	 0.086982
H	 1.049081162	-0.5207258398	 1.994865771	 0.081207
H	-1.6401022365	-1.6342157772	 2.2106144181	 0.089511
H	-2.6091512245	 0.3539566472	-0.53769567	 0.295287
148.2783	162.0265	256.1473	320.4887	348.3411	399.2223	457.0357	562.7917	591.9554	651.8209	735.8599	760.355	795.3872	805.8267	845.0944	866.0724	925.7971	933.0449	969.2129	987.303	1003.2374	1014.2151	1034.8179	1051.3886	1075.3685	1104.1539	1159.307	1184.3537	1205.6908	1229.7569	1255.6164	1277.5022	1301.5517	1332.5358	1376.0622	1418.2875	1486.1522	3050.149	3113.5284	3141.5546	3186.0112	3195.2622	3209.652	3775.7501	3803.4513
OC12CC3C4C1C4C23O	O[C@@]12C[C@H]3[C@H]4[C@@H]1[C@H]4[C@@]23O	
InChI=1S/C7H8O2/c8-6-1-2-3-4(6)5(3)7(2,6)9/h2-5,8-9H,1H2	InChI=1S/C7H8O2/c8-6-1-2-3-4(6)5(3)7(2,6)9/h2-5,8-9H,1H2/t2-,3-,4+,5-,6-,7+/m0/s1
