18
gdb 55416	2.66965	1.53992	1.00123	4.3656	75.55	-0.237	0.0065	0.2436	1159.7113	0.14946	-435.324222	-435.315593	-435.314649	-435.357776	31.845	
C	 0.0870580667	 1.4912385316	 0.1432408346	-0.462458
C	 0.0324367817	-0.0115154424	 0.0308488352	 0.39146
O	 1.0290668348	-0.7076760797	-0.0121407846	-0.357072
N	-1.21315258	-0.6354164654	-0.0119394154	-0.136882
C	-1.2602630382	-2.0950691038	-0.1388763822	-0.149679
C	-2.7311542537	-2.4078872892	 0.1629193448	-0.192244
N	-3.3764175817	-1.1580691463	-0.2261011808	-0.349641
C	-2.5022113673	-0.0818854921	-0.0879344902	 0.438745
N	-2.7581227425	 1.166078026	-0.0628264368	-0.583314
H	 1.1381978008	 1.7735795687	 0.2046139406	 0.128543
H	-0.3933444231	 1.9633865215	-0.7161696588	 0.159332
H	-0.4633409188	 1.8418194825	 1.0186501414	 0.152877
H	-0.9785935908	-2.3973397241	-1.1537099791	 0.128739
H	-0.5612196313	-2.5604047694	 0.5552145116	 0.143524
H	-3.1039427578	-3.2515622081	-0.4234027737	 0.121648
H	-2.8753431351	-2.6355243586	 1.2288402903	 0.112214
H	-4.327610234	-0.9939689158	 0.0657373806	 0.244678
H	-3.7605202699	 1.3298106945	-0.1283608477	 0.209531
77.2906	102.5616	168.4521	194.3167	230.1005	250.4827	382.4923	401.9986	496.4325	596.6863	598.9535	623.1748	717.771	722.8781	744.6528	780.7799	900.6719	958.012	993.3535	1048.0125	1062.2833	1080.3332	1130.6672	1131.5781	1186.739	1224.1575	1255.1421	1297.6756	1350.11	1352.5623	1406.9345	1435.6197	1443.1999	1450.1545	1468.2976	1521.0691	1532.5825	1745.5984	1768.2523	2998.8387	3047.3834	3067.314	3088.5435	3136.2805	3138.2569	3166.1729	3506.8293	3623.6691
CC(=O)N1CCNC1=N	CC(=O)N1CCN[C]1[NH]	
InChI=1S/C5H9N3O/c1-4(9)8-3-2-7-5(8)6/h2-3H2,1H3,(H2,6,7)	InChI=1S/C5H9N3O/c1-4(9)8-3-2-7-5(8)6/h2-3H2,1H3,(H2,6,7)
