19
gdb 15668	3.28052	1.7188	1.24083	1.7569	71.39	-0.2439	0.0253	0.2692	1020.2906	0.166041	-365.089042	-365.080722	-365.079778	-365.122488	30.376	
C	 0.0220555113	 1.6913946416	-0.0241303403	-0.388557
C	-0.2244271151	 0.18468897	-0.1468704575	-0.188375
C	 0.7111445526	-0.4880577629	-1.1423172767	 0.10324
O	 2.091174984	-0.3155796391	-0.6969701646	-0.234539
C	 2.6668502058	-1.5316080299	-0.8235218275	 0.114468
N	 1.9806346437	-2.5294200293	-1.1921969177	-0.271635
C	 0.5940551906	-2.0361588293	-1.3526648433	 0.000935
C	-0.3369684694	-2.7964871431	-0.4049231124	-0.386665
H	 1.0437970439	 1.8912289676	 0.3093102334	 0.136089
H	-0.1208988961	 2.1952778816	-0.9865809814	 0.114491
H	-0.6670886286	 2.1433090274	 0.6952898526	 0.113453
H	-0.1137742142	-0.2933937178	 0.8324129596	 0.107986
H	-1.255588352	 0.0011979167	-0.4724103498	 0.103582
H	 0.6400852258	 0.0269127172	-2.1086820079	 0.086931
H	 3.7238651023	-1.5527049783	-0.5791522976	 0.136387
H	 0.2745372589	-2.239735342	-2.380514066	 0.08821
H	-0.0490629819	-2.6520761842	 0.6404308658	 0.121589
H	-1.3777199977	-2.4813349572	-0.5263276332	 0.111966
H	-0.2734007238	-3.865451539	-0.6231241255	 0.130443
34.6114	108.9589	186.5425	225.7368	249.4578	302.034	323.2273	431.9404	472.5139	573.6051	723.3275	755.8908	814.3143	855.3811	878.9555	941.2601	965.9553	967.4455	1040.8193	1062.6163	1086.6957	1105.557	1136.8876	1156.4729	1177.4982	1286.5469	1302.9352	1315.8583	1326.9952	1363.1585	1376.8415	1404.8548	1408.0738	1414.768	1472.3899	1491.9506	1497.2081	1499.7175	1508.4355	1708.9006	3015.9481	3034.1365	3037.4391	3043.6937	3044.8124	3075.4396	3104.6087	3116.4368	3123.274	3124.1099	3207.2883
CCC1OC=NC1C	CC[C@H]1OC=N[C@H]1C	
InChI=1S/C6H11NO/c1-3-6-5(2)7-4-8-6/h4-6H,3H2,1-2H3	InChI=1S/C6H11NO/c1-3-6-5(2)7-4-8-6/h4-6H,3H2,1-2H3/t5-,6+/m0/s1
