21
gdb 68604	2.29443	1.8359	1.45821	1.5643	81.86	-0.2379	0.087	0.3249	1029.4106	0.183021	-387.063029	-387.054946	-387.054002	-387.09502	32.841	
C	 0.0416140547	 1.5254584765	 0.1164528423	-0.503112
C	-0.0181359368	 0.0294720423	 0.0117514677	 0.326971
C	 0.8103122096	-0.7071984804	-1.0723965078	-0.247259
C	 0.5628526783	-2.1693692876	-0.5791441782	-0.220017
C	-0.3326672968	-1.8152613875	 0.6274407689	-0.017562
O	 0.3972933998	-0.6976988528	 1.2238962361	-0.336879
C	-1.3137787737	-0.7991099534	 0.0488898074	 0.413728
C	-2.6535275427	-0.4040511923	 0.5591428657	-0.360625
C	-2.4836979889	-0.9119343256	-0.8680788355	-0.359999
H	 1.0730919665	 1.8549713812	 0.2780985788	 0.130195
H	-0.3201188165	 1.988742814	-0.8076357471	 0.120075
H	-0.5683120017	 1.8829418219	 0.9505116384	 0.129724
H	 0.4375061354	-0.5219186274	-2.0835542505	 0.095484
H	 1.8628236478	-0.4170151072	-1.0273557813	 0.100773
H	 0.0549706746	-2.7976656686	-1.3158276923	 0.096756
H	 1.4804139233	-2.6693365091	-0.2618441034	 0.103963
H	-0.6176485588	-2.5946911609	 1.3345681048	 0.075321
H	-3.1476691431	-1.0531609397	 1.2751077074	 0.114915
H	-2.8675775228	 0.6512876291	 0.6973569111	 0.113742
H	-2.5818258498	-0.1931039607	-1.6761457134	 0.111532
H	-2.8644222485	-1.9004411221	-1.1065946392	 0.112276
166.2574	173.8401	215.4347	221.1212	250.3627	322.1967	396.5547	444.4876	575.3673	609.5428	627.2857	725.1279	774.2407	802.3951	834.5641	869.0857	878.2913	908.398	931.7458	946.9699	959.9534	983.9576	1001.3231	1015.8958	1050.6624	1079.7057	1097.951	1136.2926	1169.8034	1179.6414	1194.4199	1222.2509	1246.3738	1263.6262	1277.1267	1301.8238	1339.6884	1410.0234	1428.3337	1463.2175	1473.2892	1481.1025	1493.8008	1495.5763	1519.7666	3037.2571	3057.8581	3067.6757	3102.7046	3106.0117	3117.2166	3118.919	3119.6077	3122.0498	3123.647	3195.3161	3209.9227
CC12CCC(O1)C21CC1	C[C@@]12CC[C@@H](O1)C12CC1	
InChI=1S/C8H12O/c1-7-3-2-6(9-7)8(7)4-5-8/h6H,2-5H2,1H3	InChI=1S/C8H12O/c1-7-3-2-6(9-7)8(7)4-5-8/h6H,2-5H2,1H3/t6-,7+/m1/s1
