21
gdb 87133	2.05915	1.57675	1.35535	2.6553	77.69	-0.2291	0.0855	0.3146	1109.9783	0.179913	-424.19469	-424.185017	-424.184073	-424.228616	37.18	
C	 0.0932673487	 1.1204432141	-1.088008833	-0.469295
C	-0.048197021	 0.0017196892	-0.0780498452	 0.342216
C	 1.1403608054	-0.7514488882	 0.3544657365	-0.225773
O	 0.5952855034	 0.2824755521	 1.1849812207	-0.294857
C	-1.4210906266	-0.6239900798	 0.0341084142	 0.225042
C	-1.9455788965	-1.2726007783	-1.2335976618	-0.47424
C	-1.8097257953	-1.2488878498	 1.3685979599	-0.390573
C	-2.3983909134	 0.0741890012	 0.9577533324	 0.106677
O	-2.0709936419	 1.2612865069	 1.6150942252	-0.435247
H	 1.0961557906	 1.5513607243	-1.0392067575	 0.124358
H	-0.0801906055	 0.762757613	-2.1071295818	 0.124114
H	-0.6358576681	 1.9069036145	-0.8702197885	 0.144916
H	 1.0231319083	-1.7631512688	 0.7387328603	 0.116757
H	 2.114498817	-0.5231743496	-0.0749726226	 0.116067
H	-1.2945055146	-2.0922875843	-1.5611622144	 0.115916
H	-2.941665327	-1.6928134879	-1.0644804426	 0.119171
H	-2.028549097	-0.5577718034	-2.0590025353	 0.122068
H	-2.4344877447	-2.1360833592	 1.354374694	 0.106535
H	-1.0722645909	-1.2220157515	 2.1638065804	 0.123165
H	-3.4411364207	 0.100604683	 0.6556029957	 0.100147
H	-1.1703509304	 1.1749156522	 1.9506720935	 0.302834
62.4413	165.6298	194.7815	199.8932	223.7364	245.9846	290.8621	354.7832	364.1161	410.8992	436.5156	461.8193	495.9804	593.0518	605.6062	784.6971	813.7198	849.5811	881.6618	916.8766	926.8354	959.3513	1023.375	1036.9688	1049.3111	1099.8545	1109.2824	1125.315	1132.7369	1160.9131	1166.3829	1199.6212	1258.9952	1338.9238	1349.1886	1392.7049	1406.911	1413.8545	1446.0568	1480.0601	1482.5998	1493.3085	1497.4264	1504.1268	1521.4946	3023.0543	3043.4345	3084.5466	3087.2061	3101.1582	3115.0425	3125.533	3126.616	3155.6898	3176.3158	3216.6398	3789.1058
CC1(CO1)C1(C)CC1O	C[C@]1(CO1)[C@@]1(C)C[C@H]1O	
InChI=1S/C7H12O2/c1-6(3-5(6)8)7(2)4-9-7/h5,8H,3-4H2,1-2H3	InChI=1S/C7H12O2/c1-6(3-5(6)8)7(2)4-9-7/h5,8H,3-4H2,1-2H3/t5-,6+,7+/m1/s1
