15
gdb 44345	3.99675	1.61647	1.32386	3.8473	73.7	-0.234	-0.0607	0.1734	926.7058	0.113975	-416.688309	-416.681847	-416.680903	-416.719061	26.321	
N	-0.012254209	 1.401155276	-0.0165151104	-0.487573
C	 0.0458907874	 0.145408976	 0.1071795773	 0.375908
O	-1.1596288986	-0.5480311971	 0.126376706	-0.235957
C	-1.1996808322	-1.7311569878	 0.9016952625	 0.129354
C	-0.5045076499	-3.1373796901	 0.7976004073	-0.048705
N	 0.851299621	-3.2465674348	 0.1183231281	-0.36301
C	 1.0427761826	-1.9249052248	 0.7489142363	 0.141554
C	 1.1724294046	-0.8226820686	 0.0095744144	-0.215409
C	-0.0685764116	-2.0707415388	 1.7833865636	-0.23547
H	 0.9316795739	 1.780786311	-0.0796119634	 0.230855
H	-2.2075979635	-1.8370850196	 1.2953353528	 0.122485
H	-1.102460628	-4.0329783816	 0.9364561972	 0.111494
H	 1.3350865948	-3.9651076227	 0.6649399119	 0.229546
H	 1.7143953192	-0.8509785989	-0.931548547	 0.135844
H	 0.0045956492	-2.0260911281	 2.8641315432	 0.109085
112.2204	213.9203	376.5846	423.8279	476.3429	502.0193	572.5137	633.8237	674.0568	763.5448	776.966	803.9595	833.0543	863.8766	885.3873	893.6419	938.2792	979.4727	1010.539	1023.3939	1042.7821	1060.369	1072.6493	1130.0746	1169.4777	1238.1217	1261.5999	1277.1559	1302.6815	1346.6357	1408.0044	1679.6575	1741.3236	3147.525	3160.5053	3170.4218	3172.7569	3390.5382	3499.3478
N=C1OC2C3NC(=C1)C23	[NH][C]1O[C@H]2[C@H]3N[C]([CH]1)[C@@H]23	
InChI=1S/C6H6N2O/c7-3-1-2-4-5(8-2)6(4)9-3/h1,4-8H	InChI=1S/C6H6N2O/c7-3-1-2-4-5(8-2)6(4)9-3/h1,4-8H/t4-,5+,6-/m1/s1
