17
gdb 126939	6.53478	0.81116	0.733	3.0201	73.38	-0.2126	0.0302	0.2428	1534.6921	0.137166	-451.340883	-451.331947	-451.331003	-451.375153	32.388	
C	 0.0008611269	 1.460761551	 0.147863138	-0.396445
C	-0.0327066426	-0.0165548602	-0.228995061	-0.128067
N	-1.3806421765	-0.5519158901	-0.0802718908	-0.410047
C	-1.6483547547	-1.8725785942	-0.0086935753	 0.566152
N	-2.8249603335	-2.4407897373	-0.0995067892	-0.429495
C	-2.496713634	-3.7590529162	 0.0975543973	 0.418769
N	-3.4687857562	-4.7274719004	 0.1482383986	-0.586828
N	-1.2220634979	-4.0237714922	 0.279843117	-0.239065
O	-0.6367126717	-2.7136818407	 0.2111819265	-0.226435
H	 1.0133318236	 1.8565266132	 0.032241446	 0.130454
H	-0.6603657072	 2.0500470728	-0.4977743242	 0.120276
H	-0.3145663322	 1.6074322209	 1.1846388509	 0.135545
H	 0.3364917214	-0.1548233949	-1.25586804	 0.113852
H	 0.6259786526	-0.5930671525	 0.4253444636	 0.145723
H	-2.1532467292	 0.0099047313	-0.4025380857	 0.260818
H	-4.2942698379	-4.5000552288	-0.384720043	 0.262181
H	-3.1324451909	-5.6672499516	 0.0004030214	 0.262611
47.6586	81.8608	139.3883	217.1153	264.4639	313.0346	340.0951	359.5665	390.3266	469.1538	536.0192	579.4188	706.5062	727.0518	784.5023	797.1415	816.6751	906.113	931.8547	1024.4879	1054.6407	1088.2121	1130.4313	1150.6166	1189.3485	1299.8187	1361.877	1395.1232	1419.0195	1457.3149	1486.6285	1495.2433	1499.611	1525.3698	1603.8708	1655.2288	1689.3503	2997.8674	3037.9188	3091.9478	3112.9814	3127.2085	3581.4351	3634.8622	3690.5332
CCNC1=NC(N)=NO1	CCNc1nc(N)no1	
InChI=1S/C4H8N4O/c1-2-6-4-7-3(5)8-9-4/h2H2,1H3,(H3,5,6,7,8)	InChI=1S/C4H8N4O/c1-2-6-4-7-3(5)8-9-4/h2H2,1H3,(H3,5,6,7,8)
