20
gdb 26246	3.65899	1.11161	0.8792	0.9384	86.2	-0.1705	0.0403	0.2108	1364.6201	0.170142	-403.176838	-403.167277	-403.166333	-403.211259	34.906	
C	 0.0894363473	 1.3613391691	 0.0538263881	-0.327595
N	 0.3322684996	-0.065261132	-0.0362602581	-0.163075
C	-0.0445027567	-0.8289730278	 1.1472490476	-0.341186
C	 0.0437387984	-0.6254308471	-1.2673938539	 0.43292
C	-0.356663829	-0.1040820422	-2.4646378216	-0.296189
C	-0.3802199888	-1.2123879502	-3.3813014529	-0.258655
C	-0.0146029083	-2.3180988732	-2.6884414313	 0.346677
C	 0.1368109688	-3.7555129427	-3.0275704084	-0.491317
O	 0.2544155539	-1.9646839802	-1.3812991288	-0.232757
H	 0.4915615274	 1.7322386364	 1.0003704915	 0.123039
H	 0.6033567283	 1.8743630209	-0.7636616094	 0.135222
H	-0.9820899105	 1.6215691908	 0.0066363425	 0.10774
H	-1.1284263925	-0.7932157476	 1.3493445062	 0.10715
H	 0.2497989201	-1.8705089255	 1.0199889864	 0.149377
H	 0.4813282721	-0.421654797	 2.0156268812	 0.1206
H	-0.6147655154	 0.9207751844	-2.6711623551	 0.096874
H	-0.6490542657	-1.1823988177	-4.4262776802	 0.098687
H	 1.1591886006	-4.1125361396	-2.8532183395	 0.131116
H	-0.5336307757	-4.3888488141	-2.4335411349	 0.129454
H	-0.1000882138	-3.9092641045	-4.0830309895	 0.131921
60.4564	131.747	152.1377	178.6952	195.943	231.9043	246.0224	318.9972	362.6437	373.4009	513.8768	594.5369	619.9387	680.8179	697.5318	736.4481	810.4695	924.2011	968.2203	991.3352	1027.3982	1050.1537	1065.5587	1081.401	1126.3208	1176.723	1209.9104	1220.4167	1241.5292	1267.6899	1353.7514	1407.34	1416.98	1444.1639	1468.81	1470.7344	1484.7059	1493.9635	1496.3425	1503.576	1515.0548	1634.1531	1661.3067	2957.359	2964.8625	3019.2457	3063.9907	3073.6592	3081.6273	3118.7811	3123.3723	3151.8257	3247.3788	3274.1051
CN(C)C1=CC=C(C)O1	CN(C)c1ccc(C)o1	
InChI=1S/C7H11NO/c1-6-4-5-7(9-6)8(2)3/h4-5H,1-3H3	InChI=1S/C7H11NO/c1-6-4-5-7(9-6)8(2)3/h4-5H,1-3H3
