16
gdb 74234	3.14375	1.21368	0.88214	6.291	81.62	-0.1973	0.0108	0.2081	1266.024	0.125805	-396.995713	-396.986903	-396.985959	-397.029083	32.32	
C	-0.0334716541	 1.5028790922	 0.0693464902	-0.504066
C	 0.007137904	 0.0170573338	-0.0449751885	 0.328124
C	-0.0190475025	-0.80873154	-1.1315761977	-0.349713
C	 0.0277361068	-2.1670929159	-0.657751183	 0.136157
C	-0.0074957804	-3.3659262786	-1.398619718	 0.175176
N	-0.0369515529	-4.3730236475	-1.9755797464	-0.37546
C	 0.0950626224	-2.1123383196	 0.7289558553	 0.244578
N	 0.243173864	-3.1225898075	 1.6726770914	-0.613714
H	 0.2511700067	-4.0359227289	 1.2348411884	 0.271672
H	-0.4566907054	-3.1059863975	 2.4060820399	 0.253421
N	 0.0782396659	-0.7967992259	 1.0846044298	-0.346567
H	 0.8587326914	 1.9063640564	 0.5649917437	 0.129682
H	-0.0859058803	 1.9474691395	-0.9267306647	 0.145136
H	-0.9070871371	 1.8509458266	 0.6348952303	 0.130013
H	-0.082798475	-0.5025921766	-2.1635752935	 0.112993
H	 0.2080222164	-0.4671008905	 2.0263628127	 0.262568
117.8955	127.2157	141.4913	208.3028	219.2432	263.4781	310.6369	407.388	473.84	515.1443	532.0417	591.4759	634.5804	649.8141	693.7567	764.0481	803.4872	813.6478	990.0492	1018.9277	1064.8159	1109.717	1169.5246	1198.2966	1260.785	1351.9315	1396.7589	1420.9479	1478.267	1494.322	1524.3815	1586.734	1638.7748	1664.1559	2323.912	3015.777	3059.3959	3126.9142	3263.4313	3518.3887	3611.8018	3666.6587
CC1=C[C-](C#N)C(=[NH2+])N1	Cc1cc(C#N)c(N)[nH]1	
InChI=1S/C6H6N3/c1-4-2-5(3-7)6(8)9-4/h2H,1H3,(H2,8,9)/q-1/p+1	InChI=1S/C6H7N3/c1-4-2-5(3-7)6(8)9-4/h2,9H,8H2,1H3
