18
gdb 74324	5.1579	0.85227	0.77235	5.9455	79.98	-0.2469	0.0025	0.2493	1465.4986	0.147008	-401.975302	-401.966289	-401.965345	-402.009811	32.202	
C	 0.0530608173	 1.4891013407	 0.0667501297	-0.493517
C	 0.0238316956	-0.0009351281	-0.0272435969	 0.29906
C	-0.142062675	-0.774978133	-1.0970981406	-0.226125
C	-0.0999622506	-2.226543369	-0.7051790042	 0.093301
C	 1.045873292	-3.0047777404	-1.3976529621	-0.346852
C	 1.0932737677	-4.4100671401	-1.0027199233	 0.269979
N	 1.121598831	-5.5250681496	-0.7013626931	-0.306353
O	 0.1041104307	-2.2212703647	 0.7032116457	-0.269519
C	 0.1776869297	-0.8834389279	 1.1857810475	-0.152447
H	 1.0038938276	 1.8384985331	 0.4876543128	 0.135937
H	-0.0799159468	 1.9575136218	-0.9112936324	 0.133258
H	-0.7371687004	 1.8571209396	 0.7326367122	 0.136856
H	-0.2915318274	-0.4431828834	-2.1172973366	 0.104877
H	-1.0447926298	-2.7455319462	-0.9309566033	 0.103078
H	 0.918429986	-2.951359585	-2.4851604706	 0.146115
H	 2.0001014234	-2.5274454825	-1.1523032361	 0.151387
H	 1.1365904506	-0.7213452436	 1.7025820015	 0.109846
H	-0.6199114217	-0.7088347317	 1.9252750399	 0.11112
55.0594	80.4715	124.9189	166.2476	196.8665	279.4497	359.9325	378.9944	395.4777	460.7088	551.318	613.955	763.9114	831.1523	840.904	905.5625	945.95	983.9726	993.4856	999.4335	1028.6097	1053.8801	1094.2955	1109.9064	1198.0737	1212.8356	1235.9634	1273.4424	1304.5168	1349.6362	1376.5559	1391.3013	1415.9746	1452.4457	1479.5074	1488.3587	1521.9275	1732.0866	2364.4016	2974.9219	2979.7632	2995.3396	3024.7	3045.9649	3072.2881	3093.8935	3120.7198	3210.0786
CC1=CC(CC#N)OC1	CC1=C[C@@H](CC#N)OC1	
InChI=1S/C7H9NO/c1-6-4-7(2-3-8)9-5-6/h4,7H,2,5H2,1H3	InChI=1S/C7H9NO/c1-6-4-7(2-3-8)9-5-6/h4,7H,2,5H2,1H3/t7-/m1/s1
