17
gdb 47281	3.07146	1.25538	0.92329	1.6351	77.91	-0.2591	-0.0952	0.164	1211.1163	0.136913	-421.874834	-421.866798	-421.865854	-421.908551	29.78	
O	-0.03317818	 0.5554064251	 1.3783912842	-0.308181
C	-0.0795597683	 1.3374591447	 0.4483425594	 0.365949
C	-1.4063679171	 1.9496781479	 0.03334636	-0.304374
C	-1.6283501502	 2.1879491576	-1.4637717501	-0.23917
C	-0.8553974576	 3.3817175598	-2.0337282099	-0.304371
C	 0.638327088	 3.2033572666	-2.24454935	 0.365946
O	 1.1864354669	 3.7253981176	-3.1962852581	-0.308183
C	 1.4925137514	 2.4212823759	-1.3061397731	-0.137931
C	 1.2051747094	 1.6744311125	-0.2282638737	-0.137939
H	-2.1764328259	 1.2930329421	 0.4464622438	 0.131965
H	-1.4972327664	 2.9069805471	 0.5679798462	 0.127872
H	-1.3978105639	 1.2788114906	-2.0321564401	 0.115949
H	-2.6956661113	 2.3777435089	-1.6167792425	 0.119051
H	-1.2564638462	 3.6837822519	-3.0046830246	 0.131969
H	-0.9822872797	 4.2458528817	-1.3646334543	 0.12788
H	 2.5347625757	 2.48262935	-1.6110312189	 0.126782
H	 2.0325167151	 1.17718786	 0.2729930118	 0.126784
39.0867	65.0838	250.2843	252.9122	327.0406	337.789	417.1254	459.6372	521.9932	587.3532	634.8653	669.4932	738.5631	829.3754	850.543	892.0286	907.2112	931.366	1062.6296	1064.3783	1084.4588	1155.6837	1166.2809	1202.2776	1271.2906	1272.739	1329.944	1358.9127	1370.6771	1381.0585	1399.3152	1452.5278	1466.6305	1492.4231	1676.4935	1755.6388	1756.878	3010.7304	3011.3008	3038.8911	3078.7724	3098.283	3100.089	3154.3479	3173.3686
O=C1CCCC(=O)C=C1	O=C1CCCC(=O)C=C1	
InChI=1S/C7H8O2/c8-6-2-1-3-7(9)5-4-6/h4-5H,1-3H2	InChI=1S/C7H8O2/c8-6-2-1-3-7(9)5-4-6/h4-5H,1-3H2
