16
gdb 85593	2.97512	1.41819	1.00301	2.6371	65.96	-0.2557	-0.044	0.2117	1127.9211	0.12404	-475.077063	-475.068617	-475.067673	-475.110861	29.973	
C	-0.0956514899	 1.3986855334	 0.3026150366	-0.333151
N	 0.0219388967	-0.0361362191	 0.0802103309	-0.160173
C	-1.1259740707	-0.6931618743	-0.5270742655	-0.273633
C	-1.0853287838	-2.2027882927	-0.3412989282	 0.370767
O	-2.0376823894	-2.9140351245	-0.5280621613	-0.285598
C	 0.2692830159	-2.7132649936	 0.115453705	-0.188374
O	 1.334373736	-1.8897835966	-0.3491416166	-0.24003
C	 1.2907222138	-0.5504222758	-0.0761929137	 0.463431
O	 2.3099778653	 0.0841896995	 0.0102557989	-0.378285
H	 0.8032761665	 1.7470003035	 0.8080100728	 0.170647
H	-0.2003629216	 1.9508009354	-0.6412426248	 0.128364
H	-0.9735424501	 1.5990608014	 0.9245356521	 0.126407
H	-2.0453556978	-0.3192464083	-0.0658370849	 0.150638
H	-1.2052310309	-0.481452688	-1.6065468086	 0.146432
H	 0.2718286274	-2.7626152311	 1.2143524655	 0.144807
H	 0.4453665026	-3.7165753493	-0.2752196982	 0.157752
53.3851	119.2109	133.6915	176.2486	232.8892	328.9745	378.5705	424.2064	455.2186	513.6736	615.1417	642.2859	767.539	784.8946	820.1018	905.1594	1018.2148	1044.3711	1109.6209	1134.9576	1155.2784	1219.9122	1226.4437	1257.9519	1281.5483	1309.9941	1368.2303	1411.3771	1444.9369	1467.219	1478.8585	1497.0466	1522.248	1837.309	1847.38	2973.9565	3008.8491	3014.8438	3080.5096	3083.6822	3129.8273	3171.3771
CN1CC(=O)COC1=O	CN1CC(=O)COC1=O	
InChI=1S/C5H7NO3/c1-6-2-4(7)3-9-5(6)8/h2-3H2,1H3	InChI=1S/C5H7NO3/c1-6-2-4(7)3-9-5(6)8/h2-3H2,1H3
