14
gdb 130179	3.49734	1.6752	1.13477	3.9693	69.76	-0.1952	0.0223	0.2175	983.9534	0.105436	-429.06639	-429.059362	-429.058418	-429.097441	27.552	
N	-0.0401536665	 1.3759539809	 0.1660737607	-0.590156
C	 0.0374345636	-0.0023718544	 0.0497782035	 0.263053
N	-1.0507005538	-0.7595820706	 0.0271014741	-0.319136
N	-0.6159137682	-2.0894681277	 0.0631973806	-0.373818
C	 0.7364527809	-2.1031044761	-0.0293147019	 0.439785
C	 1.2144785802	-0.8100613859	 0.0114814295	 0.18325
N	 2.5973595777	-0.7956805389	 0.0277277748	-0.351135
C	 2.926930542	-2.0605008208	-0.0020656804	-0.013214
N	 1.8296501315	-2.9260494675	-0.0233417724	-0.40879
H	 0.7157320095	 1.864119245	-0.2925436615	 0.256341
H	-0.9455188552	 1.7421253851	-0.0956240945	 0.25094
H	-1.2637654027	-2.774451071	-0.2861857406	 0.26357
H	 3.9335799742	-2.4520706448	-0.0172672932	 0.13053
H	 1.8643478166	-3.9292314234	-0.0727516286	 0.268781
189.7662	249.3253	253.9276	321.6693	333.1197	384.76	443.705	548.2832	621.4348	641.8088	650.5944	693.0415	705.7872	773.1394	798.4751	846.8869	953.3926	1014.2062	1057.2965	1141.5896	1156.5922	1257.2449	1327.9785	1336.9157	1375.5924	1481.0282	1511.7442	1533.0081	1582.428	1631.7947	1653.56	3248.5882	3555.1373	3659.4213	3667.8713	3679.9619
NC1=NNC2=C1N=CN2	Nc1n[nH]c2c1nc[nH]2	
InChI=1S/C4H5N5/c5-3-2-4(9-8-3)7-1-6-2/h1H,(H4,5,6,7,8,9)	InChI=1S/C4H5N5/c5-3-2-4(9-8-3)7-1-6-2/h1H,(H4,5,6,7,8,9)
