23
gdb 103466	2.2696	1.48499	1.1172	1.3138	85.66	-0.2259	0.074	0.2998	1220.1548	0.204656	-388.266014	-388.256295	-388.255351	-388.299804	37.957	
C	 0.2855415262	 1.3851068942	 0.3086309208	-0.377933
C	-0.1803991897	-0.0039269447	-0.1484725768	-0.25694
C	 0.6225738178	-0.5714272229	-1.3148152734	 0.308424
C	 0.4129364094	 0.1750792468	-2.62650388	-0.453658
C	 2.0468436427	-1.0966563035	-1.1514722091	-0.185085
C	 2.2324752355	-1.8249200862	 0.1841754448	-0.243101
C	 1.0693725364	-2.8020801079	-0.1866573233	-0.302023
C	 0.8724477752	-2.0408064414	-1.5009618531	 0.335181
O	 0.487686643	-2.6510702324	-2.6829984832	-0.454825
H	 1.3428626477	 1.3695571744	 0.5943286472	 0.11766
H	 0.1672993406	 2.1358288206	-0.4785970478	 0.117034
H	-0.2912209374	 1.7245610166	 1.1747782173	 0.108481
H	-0.1433528292	-0.684127639	 0.7077236261	 0.095965
H	-1.2370758843	 0.0432982112	-0.4436460112	 0.093592
H	 0.7065602737	 1.225229598	-2.5315225111	 0.110447
H	 0.9937476581	-0.269374633	-3.4368971558	 0.121067
H	-0.6405833256	 0.14506445	-2.9255576478	 0.116365
H	 2.8481239695	-0.714133483	-1.7738333531	 0.079077
H	 3.195328961	-2.3349354095	 0.2625771777	 0.098827
H	 2.0884848777	-1.2262970148	 1.0888432238	 0.099739
H	 1.4417322734	-3.8156409465	-0.3673926842	 0.090359
H	 0.2122243139	-2.8709080866	 0.490962042	 0.099768
H	 1.0887871642	-3.3847918104	-2.8528673799	 0.281579
83.6414	155.5787	187.1578	210.5485	238.3968	276.04	292.0677	316.5561	327.0949	372.5682	420.0094	463.2347	547.5541	650.002	672.6904	737.2042	790.0247	802.6535	889.3306	918.0213	938.4399	957.0001	994.316	1009.5247	1020.4774	1040.6498	1078.1973	1102.2276	1117.182	1142.8187	1203.2424	1212.9716	1216.6995	1247.3869	1275.0612	1292.8244	1311.6635	1330.9987	1367.3947	1409.1826	1417.767	1454.4649	1479.0208	1486.3629	1492.8303	1502.6478	1506.7988	1511.1666	1516.6323	3022.0715	3034.2889	3038.1638	3039.6339	3053.6237	3074.437	3080.8714	3095.1489	3101.8453	3104.5651	3108.8153	3129.1208	3172.4573	3792.3384
CCC1(C)C2CCC12O	CC[C@@]1(C)[C@H]2CC[C@@]12O	
InChI=1S/C8H14O/c1-3-7(2)6-4-5-8(6,7)9/h6,9H,3-5H2,1-2H3	InChI=1S/C8H14O/c1-3-7(2)6-4-5-8(6,7)9/h6,9H,3-5H2,1-2H3/t6-,7+,8+/m1/s1
