16
gdb 36337	5.36848	0.75873	0.7162	2.8383	74.97	-0.2628	0.0031	0.266	1503.2714	0.124851	-396.924223	-396.915717	-396.914773	-396.958375	30.066	
N	 0.0911100576	-1.1725153133	-0.1617749099	-0.294872
C	 0.0474024318	-0.0203473274	-0.0988625984	 0.279572
C	-0.0057086556	 1.4418285377	 0.007845035	-0.291002
N	 1.3255575917	 2.0093141627	 0.0818400306	-0.081386
C	 2.1249921436	 1.7937719687	 1.305581759	-0.180973
C	 2.676082248	 3.2407738635	 1.1357428082	-0.153998
C	 1.4387940068	 3.4739563036	 0.2191945981	-0.184109
C	 2.8182783458	 4.0676213373	 2.3181124395	 0.270281
N	 2.9198103974	 4.7263953941	 3.2625172216	-0.316111
H	-0.5103534308	 1.837773398	-0.8812911293	 0.16319
H	-0.6365557005	 1.6992784579	 0.880357305	 0.135128
H	 1.5167928771	 1.6986549323	 2.2174875811	 0.119758
H	 2.8407994969	 0.9709411911	 1.2542848869	 0.141991
H	 3.6036313425	 3.2477517019	 0.5604470734	 0.144124
H	 1.5973778314	 4.0183701052	-0.715161272	 0.131745
H	 0.6081750461	 3.9321499366	 0.7773956013	 0.116661
51.4909	77.3107	144.0375	181.6643	262.51	330.6555	344.4553	388.4125	462.7177	546.1098	559.8779	645.6969	791.3484	896.5837	937.9138	951.9818	986.9918	995.1178	1067.1774	1112.9094	1120.7619	1132.4116	1184.9893	1219.6066	1241.113	1264.4797	1298.6682	1331.8002	1363.4668	1391.4819	1472.3021	1504.0011	1528.734	2361.1119	2369.9363	2925.3621	2991.5948	3001.3543	3061.6081	3090.1178	3101.5232	3111.6603
N#CCN1CC(C1)C#N	N#CCN1CC(C1)C#N	
InChI=1S/C6H7N3/c7-1-2-9-4-6(3-8)5-9/h6H,2,4-5H2	InChI=1S/C6H7N3/c7-1-2-9-4-6(3-8)5-9/h6H,2,4-5H2
