21
gdb 100336	2.4334	1.12558	0.93703	2.3924	79.7	-0.2546	0.0454	0.3001	1339.745	0.178888	-424.190347	-424.179547	-424.178603	-424.225887	40.21	
C	 0.7141020009	 0.1179632968	-1.2543437296	-0.402113
C	-0.0590829215	 0.014258017	 0.0652238477	-0.21757
C	 0.6698678166	-0.6649058816	 1.2453079517	 0.332136
O	-0.1268067718	-0.5293305354	 2.4157200394	-0.469045
C	 0.8910810793	-2.1728237574	 1.0051675494	-0.111127
O	-0.3449727966	-2.8810027487	 1.0438916679	-0.430477
C	 2.036063692	-0.0139182162	 1.5608419654	-0.382732
C	 2.0013022577	 1.4365359081	 1.6954329033	 0.321422
C	 1.9874497943	 2.6343565938	 1.7935528467	-0.449046
H	 1.0270279946	-0.8593607915	-1.6385471226	 0.107265
H	 0.0901094528	 0.5824635074	-2.0240474292	 0.119107
H	 1.6084949292	 0.7380769944	-1.1440012631	 0.133557
H	-0.3396622404	 1.0144960835	 0.4066761892	 0.128493
H	-1.0045390352	-0.5213463929	-0.0969005513	 0.071619
H	-0.7758054532	-1.2448163431	 2.3685518455	 0.28256
H	 1.4310930152	-2.3581478074	 0.0676778058	 0.09879
H	 1.4875383021	-2.5800665235	 1.8275671499	 0.116034
H	-0.8001734952	-2.7400025556	 0.2078769511	 0.293158
H	 2.3961915683	-0.4576211013	 2.496035016	 0.138795
H	 2.757061723	-0.2879746678	 0.7801620072	 0.125347
H	 1.9710518079	 3.6911891316	 1.8934679399	 0.193826
64.818	85.2976	122.8884	156.18	222.9095	240.3868	270.7907	319.8709	335.0851	340.7189	360.4845	416.2797	441.0898	471.618	505.9629	616.1594	633.802	653.2211	749.3053	784.5155	886.277	921.122	933.6699	988.2957	1002.9677	1060.079	1069.1161	1108.5667	1143.6598	1188.2022	1224.4869	1285.2003	1286.1351	1323.0962	1360.2986	1376.3034	1406.8675	1413.5313	1429.7236	1457.353	1486.3332	1492.6609	1504.0797	1510.3312	2238.9352	3015.5822	3020.2491	3027.1195	3035.8618	3066.751	3084.3712	3087.1965	3102.4991	3112.1551	3506.2958	3749.3745	3826.5265
CCC(O)(CO)CC#C	CC[C@@](O)(CO)CC#C	
InChI=1S/C7H12O2/c1-3-5-7(9,4-2)6-8/h1,8-9H,4-6H2,2H3	InChI=1S/C7H12O2/c1-3-5-7(9,4-2)6-8/h1,8-9H,4-6H2,2H3/t7-/m0/s1
