21
gdb 62990	2.06764	1.65431	1.27037	2.6794	82.19	-0.2399	-0.0197	0.2202	1117.4331	0.180283	-387.075587	-387.066245	-387.065301	-387.110671	35.288	
C	-0.1108014473	 1.5581905386	 0.065853566	-0.43563
C	 0.0432780525	 0.0389915506	 0.0157466937	 0.303489
C	-1.2927031522	-0.641415606	 0.3248093144	-0.443487
C	 0.6793706197	-0.5534576363	-1.2615607502	-0.057448
C	 2.1121840664	-0.1428874941	-1.4316952379	-0.307078
C	 1.7799396234	-1.2385624492	-0.4538213215	-0.07526
C	 1.2163514823	-0.6394779099	 0.8416961578	-0.145881
C	 2.1751049439	 0.1644035536	 1.6846066184	 0.140051
O	 1.9072289016	 1.1722459169	 2.2894957565	-0.254325
H	 0.8159599457	 2.0818078801	-0.1790352812	 0.115506
H	-0.8750011843	 1.8733753686	-0.6544578506	 0.103448
H	-0.4152944728	 1.8906575631	 1.0613750136	 0.131217
H	-2.0622086081	-0.3235610364	-0.3880822841	 0.113163
H	-1.2097229544	-1.7318498653	 0.2624300714	 0.111233
H	-1.6407146684	-0.3818158542	 1.3304677067	 0.119295
H	 0.1044526243	-0.9627248423	-2.0845820602	 0.085132
H	 2.5818777589	-0.4752077699	-2.3518556764	 0.115785
H	 2.4647129627	 0.8257921234	-1.0862572279	 0.115395
H	 2.174647026	-2.2414540093	-0.5594852359	 0.089307
H	 0.8106159457	-1.4166291753	 1.5025373159	 0.101314
H	 3.2032043141	-0.2701179468	 1.7275138216	 0.074774
13.9036	128.2835	184.0981	220.6663	240.9962	247.1623	274.7838	344.6285	383.9761	457.3905	492.5811	591.4983	664.8308	692.9448	779.6704	803.4212	881.7727	934.2335	943.3167	959.4946	988.3356	993.6856	1008.3573	1028.2418	1048.2451	1071.1404	1088.2533	1108.9659	1167.1436	1183.1158	1206.0907	1219.247	1266.1178	1298.9952	1322.8071	1355.8292	1399.9848	1416.018	1425.9171	1477.6138	1482.6076	1495.1372	1501.7807	1506.1964	1820.8306	2838.5109	3021.5677	3027.6661	3035.0078	3089.7399	3096.532	3106.2116	3114.3795	3126.7123	3171.4778	3184.218	3202.6869
CC1(C)C2CC2C1C=O	CC1(C)[C@H]2C[C@H]2[C@H]1C=O	
InChI=1S/C8H12O/c1-8(2)6-3-5(6)7(8)4-9/h4-7H,3H2,1-2H3	InChI=1S/C8H12O/c1-8(2)6-3-5(6)7(8)4-9/h4-7H,3H2,1-2H3/t5-,6+,7-/m1/s1
