19
gdb 59676	2.54211	1.37752	0.99264	0.7698	71.59	-0.251	0.0575	0.3085	1214.1903	0.156987	-460.115258	-460.106071	-460.105127	-460.149315	33.96	
C	-0.0928884387	 1.5482351277	-0.0917674171	-0.410673
C	 0.0131062933	 0.0312965276	 0.0237714501	 0.109044
O	 0.8529183043	-0.3819045096	 1.0995233382	-0.426961
C	-1.3568158804	-0.6273880651	 0.1694380731	 0.034031
O	-2.2062021226	-0.4204141138	-0.9875537718	-0.301534
C	-2.4131474556	-1.8413918243	-1.1779273191	-0.152832
C	-1.456261377	-2.1380034155	-0.0285303909	 0.358866
C	-0.4879913259	-3.2061120712	 0.2035581382	-0.258214
O	-1.6859236422	-3.0738074324	 0.9952508295	-0.265171
H	 0.8971790954	 1.9923859457	-0.2245939095	 0.123951
H	-0.7240282324	 1.8200560047	-0.9424399287	 0.14322
H	-0.5447122132	 1.9752036581	 0.8127130591	 0.106742
H	 0.4901771323	-0.3713156469	-0.8771222923	 0.091506
H	 0.513284548	 0.014579002	 1.9100512508	 0.283528
H	-1.8466805026	-0.2830748057	 1.0946002866	 0.07711
H	-3.4507850708	-2.140198716	-0.9850115906	 0.116992
H	-2.1138420335	-2.1718699773	-2.1792170789	 0.112367
H	-0.4669217933	-4.0693967696	-0.4601800539	 0.115896
H	 0.438500405	-2.9740232883	 0.722598877	 0.142134
80.3871	91.9756	145.0942	219.9854	252.7109	271.9624	315.8339	320.75	369.8491	438.7216	458.3188	512.8136	601.8358	824.2564	866.2617	882.4507	910.9221	928.8665	969.1877	1010.296	1027.4048	1054.9128	1084.2212	1118.7894	1129.9308	1150.8056	1163.9565	1178.2769	1194.3253	1253.932	1266.2825	1320.6479	1333.3296	1399.0091	1401.0418	1413.0302	1454.2861	1491.3129	1493.7306	1512.8157	1538.3978	2978.052	3021.3322	3025.6092	3051.8296	3069.8884	3091.8809	3101.4841	3128.6266	3192.0172	3795.7614
CC(O)C1OCC11CO1	C[C@@H](O)[C@H]1OC[C@]21CO2	
InChI=1S/C6H10O3/c1-4(7)5-6(2-8-5)3-9-6/h4-5,7H,2-3H2,1H3	InChI=1S/C6H10O3/c1-4(7)5-6(2-8-5)3-9-6/h4-5,7H,2-3H2,1H3/t4-,5-,6-/m1/s1
