19
gdb 77480	1.97566	1.54744	1.42978	0.9794	71.71	-0.2248	0.0715	0.2963	1088.6485	0.156379	-460.119823	-460.110311	-460.109367	-460.153284	36.013	
C	-0.1088931935	 1.5611925987	-0.0414540222	-0.434248
C	 0.1630209391	 0.0714645818	 0.0153725333	 0.093384
O	 1.347064481	-0.3658186846	-0.7380698214	-0.360339
C	 1.7791244739	-1.2016377067	 0.3584373579	 0.338128
C	 2.2725606388	-2.5739414267	 0.0430222559	-0.496926
C	 2.181221483	-0.2794389598	 1.4679805023	-0.003461
O	 2.7781553979	 0.9588845828	 1.2304766258	-0.435696
C	 0.7068168879	-0.6047809494	 1.2712638117	 0.184287
O	-0.0831110205	-1.2283924558	 2.2178464585	-0.454839
H	 0.7114373816	 2.1360266919	 0.3917848101	 0.135588
H	-0.267889367	 1.881742518	-1.0762664397	 0.127022
H	-1.0227838986	 1.78542589	 0.5197460441	 0.122012
H	-0.7015881676	-0.4928391836	-0.3581451233	 0.092546
H	 3.203706754	-2.5311505633	-0.5330062474	 0.132322
H	 2.4694531293	-3.1246948536	 0.9671604204	 0.132299
H	 1.5335337387	-3.1297808834	-0.5423626281	 0.13258
H	 2.5982369911	-0.7761285143	 2.341525565	 0.108229
H	 2.7403288663	 1.0802656019	 0.2714526969	 0.294212
H	-0.1223262855	-0.6673684638	 3.0002401303	 0.2929
154.092	163.787	182.7973	203.5783	217.159	237.2482	257.6389	287.3085	346.493	369.3364	466.5263	483.9694	573.617	610.5921	665.1966	739.2315	753.2002	823.073	856.9731	926.2451	982.6618	1025.2209	1077.26	1100.9747	1118.9611	1139.6837	1177.1327	1211.0204	1233.7517	1276.8579	1319.5705	1339.5903	1381.6512	1397.1078	1409.0805	1413.475	1473.7896	1488.1599	1491.8738	1501.8836	1523.8114	3020.6901	3033.7578	3039.9601	3098.295	3101.6199	3118.0842	3140.8812	3144.5446	3747.7777	3795.072
CC1OC2(C)C(O)C12O	C[C@H]1O[C@@]2(C)[C@@H](O)[C@@]12O	
InChI=1S/C6H10O3/c1-3-6(8)4(7)5(6,2)9-3/h3-4,7-8H,1-2H3	InChI=1S/C6H10O3/c1-3-6(8)4(7)5(6,2)9-3/h3-4,7-8H,1-2H3/t3-,4-,5+,6+/m1/s1
