17
gdb 69621	3.57611	1.20286	1.14612	1.6416	80.45	-0.2213	0.029	0.2503	1135.775	0.133199	-384.588095	-384.579852	-384.578908	-384.620459	32.528	
C	-0.1319469604	 1.5180303494	 0.0449063314	-0.50485
C	 0.1155666222	 0.0483119942	 0.0064456749	 0.42329
O	-0.7981917418	-0.8368737235	 0.6844468814	-0.280255
C	 0.5994871987	-0.9221369674	 0.981530498	-0.131212
C	 1.3237400838	-1.7592232129	-0.1348989326	 0.164335
C	 0.340184522	-2.1721382755	-1.2126756598	-0.330733
C	 0.7852753478	-0.7432259636	-1.1666754155	-0.193638
C	 2.6360339551	-2.2750814009	 0.0080193621	 0.18913
C	 3.7505863522	-2.7036522828	 0.1673254408	-0.413781
H	 0.7757093984	 2.0676686426	-0.2249448571	 0.131577
H	-0.9189945937	 1.798767512	-0.6641522676	 0.134537
H	-0.4443986514	 1.824415286	 1.0463862623	 0.138358
H	 0.9148290924	-0.8367880229	 2.0147246748	 0.108472
H	 0.7804226828	-2.7653596248	-2.0066202005	 0.128216
H	-0.6706606992	-2.4363115545	-0.9298289699	 0.141952
H	 1.35758547	-0.2716289655	-1.9543287748	 0.109432
H	 4.7320370511	-3.0859150098	 0.2988419121	 0.185171
109.8736	147.8915	196.3895	247.5055	289.8917	396.6191	446.866	473.2425	506.7127	532.7681	548.2891	589.1072	647.2284	652.7486	759.8839	794.9187	829.7701	875.4459	918.6729	946.7441	981.1392	1001.5601	1006.9351	1060.254	1100.0105	1110.7366	1171.6792	1176.2263	1213.2847	1283.5703	1352.7801	1406.3016	1454.4213	1472.238	1485.6069	1503.3505	2227.4391	3034.468	3096.9875	3124.7494	3147.2522	3191.1616	3208.8692	3241.8618	3504.0164
CC12OC1C1(CC21)C#C	C[C@]12O[C@H]1[C@]1(C[C@@H]21)C#C	
InChI=1S/C8H8O/c1-3-8-4-5(8)7(2)6(8)9-7/h1,5-6H,4H2,2H3	InChI=1S/C8H8O/c1-3-8-4-5(8)7(2)6(8)9-7/h1,5-6H,4H2,2H3/t5-,6+,7+,8-/m0/s1
