14
gdb 21524	3.53946	1.9046	1.2978	4.445	60.07	-0.2153	0.0129	0.2282	884.2355	0.109337	-412.029119	-412.021764	-412.02082	-412.060712	27.213	
N	-0.0885942887	 1.3806912568	-0.1303034414	-0.606182
C	-0.0859387003	-0.0021502677	-0.0641420779	 0.288473
C	-1.1339803956	-0.903422202	 0.0277844267	 0.225135
C	-2.5945749221	-0.5922675348	 0.0184152519	-0.192329
O	-2.9124830529	 0.4319654486	-0.9345813008	-0.417845
N	-0.6100060661	-2.1583746794	 0.1267228403	-0.249544
N	 0.6843385706	-2.1052086278	 0.1120141537	-0.138833
N	 1.0158343153	-0.7831421581	-0.0024857539	-0.238373
H	 0.6574530673	 1.7840488069	-0.6815674481	 0.250315
H	-0.9942640717	 1.7132879404	-0.443349603	 0.269953
H	-3.1615928498	-1.5139655164	-0.1635915211	 0.124218
H	-2.9299858374	-0.1848977551	 0.9789900266	 0.12576
H	-2.7008993016	 0.0797932764	-1.8063055816	 0.286129
H	 1.9869467629	-0.5172676978	-0.0213243912	 0.273124
94.3429	173.1596	232.2045	296.3316	332.8878	391.7063	410.8731	457.4873	510.8663	671.3366	707.3551	736.1343	751.5846	792.8269	970.5371	1010.0093	1013.3143	1030.7685	1107.0671	1183.4851	1261.0408	1299.8394	1313.6964	1377.2514	1401.5563	1420.1214	1502.9807	1543.3745	1630.4438	1670.2335	3026.4836	3066.8156	3522.4303	3620.5068	3659.6923	3802.505
NC1=C(CO)N=NN1	Nc1c(CO)nn[nH]1	
InChI=1S/C3H6N4O/c4-3-2(1-8)5-7-6-3/h8H,1H2,(H3,4,5,6,7)	InChI=1S/C3H6N4O/c4-3-2(1-8)5-7-6-3/h8H,1H2,(H3,4,5,6,7)
