21
gdb 74038	2.71529	1.52713	1.00759	0.3562	96.56	-0.1874	0.0059	0.1933	1221.7368	0.18429	-349.999122	-349.990653	-349.989709	-350.0324	32.411	
C	 0.0234299237	 1.5094841505	 0.0259334021	-0.493062
C	-0.0260852771	 0.0161087546	 0.0259918165	 0.118678
C	-1.1005317255	-0.7862021566	-0.0134189072	 0.269306
C	-2.6045812485	-0.6702256117	-0.0693464147	-0.369625
C	-3.0915868452	-2.1610472951	-0.0858679329	-0.249847
C	-1.8165549296	-2.9858438114	-0.0366947321	-0.256857
C	-0.7379610617	-2.1944350583	 0.0021934405	 0.337882
C	 0.7650056463	-2.3094178027	 0.0592340882	-0.368098
C	 1.2458911957	-0.8210134861	 0.0747292673	-0.299062
H	 0.5933425178	 1.8916881822	-0.8320602141	 0.122373
H	-0.9771568518	 1.9490314029	-0.0122624837	 0.120385
H	 0.5271896108	 1.8939476314	 0.9234093443	 0.122368
H	-3.0064001948	-0.1276161293	 0.792950081	 0.112619
H	-2.9419115714	-0.1291088554	-0.959744077	 0.112579
H	-3.7498666426	-2.379709906	 0.7652015755	 0.102837
H	-3.683686356	-2.3818926978	-0.9837236304	 0.102851
H	-1.82778566	-4.0697453625	-0.0355240085	 0.083348
H	 1.0986732456	-2.8506726835	 0.9504614753	 0.11524
H	 1.1654031458	-2.8540432848	-0.8019411416	 0.115198
H	 1.9029667212	-0.5959931295	-0.7767239557	 0.100448
H	 1.8379407876	-0.5931312011	 0.9718708971	 0.10044
67.5101	133.3594	160.3988	191.7741	236.3964	258.7914	424.2889	467.7839	571.6611	597.0103	610.3642	688.2946	789.6979	791.675	808.6968	847.5796	903.1082	917.5143	956.8311	986.064	997.0156	1028.9405	1037.3385	1069.9981	1102.4215	1159.2642	1166.211	1187.203	1233.2378	1237.6863	1239.7695	1266.5486	1294.225	1311.881	1341.2801	1380.1705	1412.7448	1472.4558	1474.0641	1479.2825	1487.4361	1496.8207	1499.4996	1703.2399	1736.138	3002.211	3007.5436	3012.0475	3023.6691	3030.9609	3043.6219	3045.3912	3048.4342	3075.0235	3080.6023	3105.2942	3195.6504
CC1=C2CCC=C2CC1	CC1=C2CCC=C2CC1	
InChI=1S/C9H12/c1-7-5-6-8-3-2-4-9(7)8/h3H,2,4-6H2,1H3	InChI=1S/C9H12/c1-7-5-6-8-3-2-4-9(7)8/h3H,2,4-6H2,1H3
