19
gdb 50642	3.0319	1.12047	0.87379	1.0517	76.6	-0.2425	-0.0299	0.2126	1302.0532	0.15935	-423.077235	-423.068684	-423.067739	-423.111061	31.684	
O	-0.7236642718	 0.8897023413	-0.6054511605	-0.238694
C	 0.1226052398	 1.0119645474	 0.2423206004	 0.140342
C	 1.3528779341	 1.8886820427	 0.1173382701	-0.089308
C	 1.4514045082	 2.6028748036	-1.2334196967	-0.188765
C	 2.7123570188	 3.4721211402	-1.3099872121	-0.229508
C	 2.7767235081	 4.4921858226	-0.1545347984	-0.287399
C	 2.5997999277	 3.8174114147	 1.1972035831	 0.383766
O	 3.355798049	 3.9855993245	 2.124096449	-0.298788
C	 1.386472115	 2.8959242499	 1.2973016632	-0.313771
H	 0.0415284441	 0.4736872016	 1.2153761939	 0.081474
H	 2.2170274157	 1.2159478987	 0.2440918151	 0.104714
H	 1.4411747004	 1.8661046927	-2.0419187597	 0.11486
H	 0.5556464242	 3.2201703739	-1.3750918516	 0.111455
H	 3.602929194	 2.8314873978	-1.2717471766	 0.109538
H	 2.7513280211	 4.0004588609	-2.2679064494	 0.108819
H	 3.7174429267	 5.0472407722	-0.1466285418	 0.121617
H	 1.9588653801	 5.2175304855	-0.2725151401	 0.11893
H	 0.4820016762	 3.5192693896	 1.2553858109	 0.126847
H	 1.4081830384	 2.3945259901	 2.2681241113	 0.123871
67.4862	98.3968	121.8967	218.5761	241.2746	332.7268	378.7282	415.7016	469.9071	505.4339	623.9118	701.6643	757.9522	810.7399	822.9242	871.0844	903.1253	937.716	958.1867	1041.0781	1054.604	1059.9757	1110.3681	1129.1074	1208.0729	1230.1764	1240.3876	1269.8187	1286.6187	1324.8566	1325.7875	1341.1526	1373.8679	1387.5543	1428.632	1462.3064	1469.8427	1487.8674	1499.9108	1820.826	1828.8988	2862.8529	2980.6668	3013.0834	3020.1251	3027.1551	3040.6589	3077.7593	3091.0339	3104.3503	3109.7673
O=CC1CCCC(=O)C1	O=C[C@H]1CCCC(=O)C1	
InChI=1S/C7H10O2/c8-5-6-2-1-3-7(9)4-6/h5-6H,1-4H2	InChI=1S/C7H10O2/c8-5-6-2-1-3-7(9)4-6/h5-6H,1-4H2/t6-/m0/s1
