19
gdb 56810	2.46656	1.22764	0.95596	2.191	77.45	-0.2353	0.0458	0.2811	1272.571	0.156262	-422.963204	-422.953228	-422.952284	-422.998203	37.123	
C	 0.1839798468	 1.2969182192	 0.256068318	-0.395581
C	-0.1696921705	-0.1858061717	 0.0162454646	-0.169183
C	-1.6163038309	-0.3806812131	-0.0875908832	 0.329302
C	-2.8067444415	-0.513955544	-0.1908332604	-0.468759
C	 0.5327631241	-0.7120043743	-1.2322541442	-0.07762
C	 2.0157149844	-1.0428957721	-1.2073812223	 0.061502
O	 2.7173982507	-0.9785251761	-0.0023235876	-0.426032
C	 0.9886120896	-2.144978665	-1.3465851405	 0.014318
O	 0.8156704513	-2.9422026309	-0.1987943745	-0.421762
H	 1.2630959568	 1.3945887259	 0.3974613145	 0.135571
H	-0.1187222181	 1.9105803845	-0.5978733394	 0.118587
H	-0.3278758938	 1.6771056058	 1.1440770746	 0.120462
H	 0.1846008281	-0.7607591355	 0.8778814863	 0.111977
H	-3.8574334488	-0.6447859221	-0.2677760797	 0.189613
H	 0.161669493	-0.2787945545	-2.1573840066	 0.097771
H	 2.6324599182	-0.7573824749	-2.0543474621	 0.100298
H	 2.3897692777	-1.7134460485	 0.535832487	 0.285257
H	 0.8507426568	-2.6669179353	-2.2906803535	 0.095379
H	 1.3416033362	-3.7411006975	-0.313961641	 0.298898
43.7833	102.5132	154.7538	180.643	227.6507	250.94	269.0357	293.8683	299.1045	473.2654	498.3239	519.0313	580.8824	594.9142	621.7735	632.6164	669.8924	768.8327	792.179	854.0869	913.5997	992.6951	1042.4126	1051.2129	1086.4023	1102.43	1123.3673	1151.3799	1170.9387	1231.5662	1251.9305	1291.8952	1313.7059	1327.364	1383.3287	1402.4059	1411.0146	1469.8762	1497.7337	1498.6982	2234.0905	3043.5647	3058.3409	3117.3718	3124.3215	3131.8731	3142.1566	3155.6731	3506.3361	3727.3346	3808.0501
CC(C#C)C1C(O)C1O	C[C@@H](C#C)[C@H]1[C@@H](O)[C@H]1O	
InChI=1S/C7H10O2/c1-3-4(2)5-6(8)7(5)9/h1,4-9H,2H3	InChI=1S/C7H10O2/c1-3-4(2)5-6(8)7(5)9/h1,4-9H,2H3/t4-,5-,6+,7-/m0/s1
