19
gdb 78531	2.38842	1.60317	1.263	3.2228	75.39	-0.2271	0.0568	0.2839	1090.9814	0.156989	-422.955388	-422.946771	-422.945826	-422.987935	33.954	
C	-0.121796852	 1.4976417225	 0.0119376749	-0.500982
C	 0.1087074886	 0.0253233313	-0.0318479461	 0.432185
O	-0.8394192076	-0.8406253554	 0.6496303905	-0.318318
C	 0.5738476692	-0.9514886406	 0.9471246487	-0.108059
C	 1.3015009774	-1.7908115459	-0.1451172962	 0.219848
C	 2.6935387036	-2.3081129133	 0.0752834159	-0.493004
C	 0.3740675421	-2.2254657516	-1.2500185267	 0.105887
O	-0.8946744655	-2.7743234661	-1.1529723198	-0.430762
C	 0.7678749558	-0.7657975543	-1.19764196	-0.272026
H	 0.7996771638	 2.0371142845	-0.2299439693	 0.130756
H	-0.8846236809	 1.7924049622	-0.7176166527	 0.136472
H	-0.4576043165	 1.80140669	 1.0067528584	 0.136817
H	 0.8646472907	-0.8558407045	 1.9876335343	 0.107155
H	 2.6963180991	-3.1432028105	 0.786855915	 0.126819
H	 3.1292154758	-2.6697629616	-0.8613873543	 0.124745
H	 3.3593506479	-1.5320352968	 0.4725967258	 0.116616
H	 0.9246886196	-2.7443100456	-2.0339926618	 0.104136
H	-1.3409267415	-2.2689136822	-0.4594560913	 0.293515
H	 1.3156811003	-0.2719697819	-1.9925810255	 0.0882
142.9081	194.2061	199.5435	212.1863	265.6573	280.2864	319.8312	365.1818	466.3334	529.4909	564.7666	590.7699	647.3004	667.3148	731.8153	802.9856	857.068	874.8912	905.5062	917.9034	963.4854	980.9222	1011.6032	1076.2177	1101.7042	1106.3172	1156.4523	1171.0435	1190.1993	1250.7636	1271.3119	1314.6517	1384.1381	1408.8798	1416.7989	1469.0999	1482.4932	1483.6588	1488.2352	1496.7916	1504.3447	3015.4163	3034.4461	3070.2495	3097.4772	3097.7541	3120.6606	3124.2562	3173.3395	3177.4799	3733.9582
CC12OC1C1(C)C(O)C21	C[C@]12O[C@H]1[C@@]1(C)[C@@H](O)[C@@H]21	
InChI=1S/C7H10O2/c1-6-3(4(6)8)7(2)5(6)9-7/h3-5,8H,1-2H3	InChI=1S/C7H10O2/c1-6-3(4(6)8)7(2)5(6)9-7/h3-5,8H,1-2H3/t3-,4+,5+,6-,7-/m1/s1
