17
gdb 43732	4.55955	1.09665	1.05072	4.6212	74.8	-0.2585	-0.0055	0.253	1166.4556	0.136799	-421.873214	-421.865704	-421.864759	-421.905697	28.86	
O	 0.1611624392	 0.1612741426	-0.7342481074	-0.322719
C	 0.0101253053	 1.1846338718	-0.1465841391	 0.440787
C	-1.1406384935	 2.1134116302	 0.2281184366	-0.495038
C	-0.0462167906	 2.9639520938	 0.9084057125	 0.422157
C	 0.2587702577	 4.375208328	 0.3766872772	-0.288686
C	 0.794330598	 5.1793129487	 1.5872757862	-0.266864
C	 0.431144849	 4.3107128048	 2.7651456853	-0.062196
C	-0.0303213115	 3.1163463389	 2.3972099864	-0.122572
O	 0.9656513321	 1.9499689733	 0.4599481054	-0.281073
H	-1.6437445258	 2.5743093362	-0.6240450184	 0.140065
H	-1.8834589266	 1.6674313289	 0.8924122366	 0.141011
H	 0.9583119504	 4.3294070109	-0.4605172489	 0.126278
H	-0.6680863604	 4.8258270338	 0.0091743591	 0.115466
H	 1.88037407	 5.3303159751	 1.540483269	 0.125253
H	 0.3488333653	 6.1780962496	 1.6511079736	 0.113976
H	 0.5641462508	 4.6363740928	 3.7910936803	 0.108111
H	-0.3225343994	 2.3094329305	 3.0591611854	 0.106045
69.8203	92.6636	235.2919	284.5599	399.8318	428.4275	449.023	523.8457	556.1581	695.5562	768.6996	781.197	804.7005	843.2639	864.6494	900.7174	935.5951	965.9221	981.5341	996.4525	1044.3624	1085.1533	1110.3422	1152.6463	1166.4063	1218.8868	1224.0746	1250.9078	1263.2589	1308.6922	1329.5095	1393.7055	1453.9062	1469.1552	1490.9822	1681.7037	1933.7427	3029.6058	3056.4309	3068.4613	3082.3671	3117.0535	3138.745	3187.4048	3212.2612
O=C1CC2(CCC=C2)O1	O=C1C[C@]2(CCC=C2)O1	
InChI=1S/C7H8O2/c8-6-5-7(9-6)3-1-2-4-7/h1,3H,2,4-5H2	InChI=1S/C7H8O2/c8-6-5-7(9-6)3-1-2-4-7/h1,3H,2,4-5H2/t7-/m0/s1
