21
gdb 58535	2.23172	1.42309	1.1777	1.0618	78.79	-0.2495	-0.0283	0.2212	1185.8006	0.179322	-424.23737	-424.227295	-424.226351	-424.272023	37.177	
C	-0.3355159438	 1.4217392043	 0.1579609918	-0.4103
C	 0.0846991727	-0.0464051282	 0.0060009978	 0.013016
C	 0.7810234329	-0.3177365299	-1.3356293862	-0.412446
C	 0.9358207844	-0.5185644253	 1.2029049798	 0.285862
C	 2.3016086517	 0.1410789426	 1.3506639602	-0.443169
O	 0.1685765419	-0.4254897587	 2.4504438782	-0.331783
C	 0.1339670833	-1.8478167461	 2.6639912904	-0.196125
C	 0.942343859	-2.0487986123	 1.3798155059	 0.312387
O	 1.3813466468	-2.9775172793	 0.7706685527	-0.290422
H	 0.5198775029	 2.0986777649	 0.0608994798	 0.115027
H	-1.0554883872	 1.6906666311	-0.6215432049	 0.113576
H	-0.8026896745	 1.593395776	 1.1310687056	 0.136015
H	-0.8312387877	-0.6524396092	 0.0369230106	 0.076444
H	 1.6483816686	 0.3359220255	-1.4754392506	 0.117053
H	 1.121192002	-1.3548955696	-1.407731957	 0.140323
H	 0.090968201	-0.1268875052	-2.1634104903	 0.115946
H	 2.1966775639	 1.2236393174	 1.4627586318	 0.134407
H	 2.8131623782	-0.2411980947	 2.2380709606	 0.124627
H	 2.9285135964	-0.0625813488	 0.4786250977	 0.137031
H	 0.6383268222	-2.1592333565	 3.5878530955	 0.131071
H	-0.8808565848	-2.2658448779	 2.6507627307	 0.131462
80.3299	99.2033	140.8581	186.8356	219.232	256.4935	266.9657	272.631	296.7955	352.4481	401.6127	458.7626	531.1506	557.8478	668.0758	720.7077	854.8658	864.8227	929.3068	937.4987	960.239	972.7688	1011.7058	1040.7074	1057.0708	1108.7845	1137.6071	1153.7046	1181.9675	1230.4595	1243.1346	1294.5722	1343.0758	1380.7811	1397.2507	1402.3412	1420.8794	1480.1816	1481.771	1487.9058	1494.6512	1502.4371	1509.1958	1515.8905	1911.2623	3006.5185	3014.3976	3035.4813	3038.6276	3049.5802	3058.4496	3098.8809	3104.5889	3116.1568	3120.3316	3123.2972	3130.0486
CC(C)C1(C)OCC1=O	CC(C)[C@@]1(C)OCC1=O	
InChI=1S/C7H12O2/c1-5(2)7(3)6(8)4-9-7/h5H,4H2,1-3H3	InChI=1S/C7H12O2/c1-5(2)7(3)6(8)4-9-7/h5H,4H2,1-3H3/t7-/m1/s1
