17
gdb 23865	2.51472	1.78829	1.7882	2.0279	56.64	-0.337	0.0811	0.418	875.4424	0.13639	-495.395501	-495.386615	-495.385671	-495.42844	32.893	
C	-0.0233331627	 1.5474194441	 0.0185698368	-0.421466
C	-0.0156020739	 0.0081631977	 0.0333959361	 0.108759
C	 0.7467741766	-0.5137075779	 1.2646309732	-0.421364
C	-1.4551393791	-0.5372185954	 0.0211148954	-0.421396
C	 0.7014319476	-0.4859136045	-1.2272273145	 0.296305
F	 1.9714525377	-0.0473335401	-1.2857665953	-0.089117
F	 0.747307281	-1.8287936128	-1.2842018223	-0.089048
F	 0.0896441074	-0.0663073735	-2.3490070203	-0.089126
H	 0.9937219031	 1.9480459502	 0.0109915097	 0.128939
H	-0.54943928	 1.9321750688	-0.858968182	 0.128915
H	-0.5307983528	 1.9219380514	 0.9121887738	 0.117639
H	 0.2509929036	-0.1708348528	 2.1773203549	 0.117632
H	 0.7726325688	-1.6064060349	 1.2802665737	 0.12891
H	 1.7763470136	-0.1465785759	 1.2774488774	 0.128923
H	-2.0037059729	-0.1866620145	-0.8570482342	 0.128926
H	-1.4642120558	-1.630325407	 0.0163437563	 0.12892
H	-1.9863443922	-0.195471063	 0.9141121413	 0.117651
74.2496	193.9705	229.9693	231.4586	251.4841	254.9157	329.6967	336.744	337.6942	437.6032	438.6323	566.2533	577.0461	578.0228	749.0742	852.7071	946.6657	947.014	966.842	1037.6975	1038.5528	1174.0863	1184.3388	1185.2121	1258.117	1259.1628	1334.8152	1397.4064	1398.3545	1435.0214	1476.209	1491.18	1493.0646	1500.9286	1502.001	1528.9134	3044.5549	3044.6055	3051.0884	3116.7531	3116.7956	3122.4771	3123.1168	3126.5997	3127.1887
CC(C)(C)C(F)(F)F	CC(C)(C)C(F)(F)F	
InChI=1S/C5H9F3/c1-4(2,3)5(6,7)8/h1-3H3	InChI=1S/C5H9F3/c1-4(2,3)5(6,7)8/h1-3H3
