16
gdb 131212	5.80072	0.94097	0.8591	3.8709	72.01	-0.2151	0.0265	0.2416	1304.2085	0.126614	-434.056138	-434.048188	-434.047244	-434.089127	29.692	
O	 0.0270206544	 1.3073910105	 0.2579731153	-0.428103
C	 0.0529795052	-0.0140910339	-0.0133994477	 0.472187
C	 0.0547538404	-0.7554328836	-1.1775205812	-0.477223
C	 0.0873833253	-2.0998547009	-0.727279319	 0.404938
N	 0.0977053457	-2.1796749085	 0.5999923626	-0.333785
N	 0.083499726	-0.8851045986	 1.0164436895	-0.249972
C	 0.1118196388	-3.3287294205	-1.5511127697	-0.101551
C	 1.0933167561	-4.4092787168	-1.2389660473	-0.228399
N	-0.3332903198	-4.6016733566	-0.960149012	-0.319186
H	 0.0009224209	 1.7934545283	-0.5719709566	 0.315238
H	 0.0389107489	-0.3893279027	-2.1911595622	 0.101936
H	 0.0639126392	-0.666275463	 1.9976638824	 0.278308
H	-0.1886919192	-3.1861132764	-2.5859587248	 0.086056
H	 1.4947516915	-5.024019477	-2.0406429945	 0.112661
H	 1.7667530912	-4.2284560553	-0.4060593154	 0.121063
H	-0.5031504046	-4.4338625952	 0.0305379708	 0.245831
49.1534	150.0527	175.2612	263.5094	293.5785	341.8556	412.8423	463.6449	497.3875	651.5056	685.6748	724.3337	746.601	760.6182	831.9614	884.3694	973.5295	988.5399	1018.7045	1052.8534	1102.2414	1136.5702	1155.4813	1168.5532	1176.3414	1206.0119	1268.3662	1314.0065	1326.5108	1383.9131	1451.1486	1497.5347	1517.5255	1567.0225	1626.4841	3105.0764	3138.9411	3197.9154	3260.1233	3485.1161	3680.8406	3845.4031
OC1=CC(=NN1)C1CN1	Oc1cc(n[nH]1)[C@H]1CN1	
InChI=1S/C5H7N3O/c9-5-1-3(7-8-5)4-2-6-4/h1,4,6H,2H2,(H2,7,8,9)	InChI=1S/C5H7N3O/c9-5-1-3(7-8-5)4-2-6-4/h1,4,6H,2H2,(H2,7,8,9)/t4-/m1/s1
