18
gdb 53111	2.49577	1.08452	0.83074	2.8093	82.45	-0.251	0.025	0.276	1425.6573	0.145707	-401.93128	-401.921491	-401.920547	-401.967945	34.101	
C	 0.0571662339	 1.5579526038	-0.1703486143	-0.498602
C	 0.075506148	 0.103879355	-0.1119607457	 0.056528
C	 0.0804534164	-1.0994705175	-0.0738887628	 0.117933
C	 0.0892772096	-2.5454858673	-0.0259271724	-0.355925
C	 0.3308422145	-3.2688802588	 1.3411625364	 0.138885
C	 0.416410531	-2.4399393202	 2.5994756163	-0.40321
O	-0.9716531659	-3.9347721438	 1.2036608277	-0.265439
C	-1.2516305363	-3.2792398102	 0.0279251938	 0.440897
N	-2.259296088	-3.3117821621	-0.713267888	-0.541306
H	 0.6799419036	 1.9310588408	-0.990636361	 0.151395
H	-0.9600289301	 1.9329867699	-0.3270281779	 0.155869
H	 0.4339067786	 1.9977459623	 0.7596123903	 0.149027
H	 0.7221255458	-2.9562669783	-0.8196028611	 0.130819
H	 1.1235570976	-4.021345711	 1.2965234937	 0.096448
H	-0.3704961843	-1.6822000018	 2.6223881483	 0.138446
H	 0.3179740592	-3.0818859205	 3.4797267612	 0.13009
H	 1.3845201214	-1.9317309934	 2.6477691964	 0.129373
H	-2.972078755	-3.9434828069	-0.3438073111	 0.228772
17.1813	75.3758	79.9726	118.5178	212.8708	246.4545	256.4577	341.0631	400.6786	425.8532	459.3201	506.6381	622.0165	724.6937	792.1012	862.8907	867.175	884.635	949.4376	1017.8221	1043.1783	1051.8665	1054.708	1072.5614	1143.9123	1192.3917	1203.7838	1226.2535	1328.6938	1339.6773	1383.0788	1414.356	1415.7081	1476.4979	1477.841	1482.1435	1488.4769	1825.3646	2373.8073	3028.5362	3045.0017	3052.4798	3069.3139	3089.8532	3091.6218	3116.8083	3132.3459	3476.4536	17.1807	75.3761	79.9724	118.5178	212.8708	246.4547	256.458	341.064	400.6799	425.8546	459.3204	506.6384	622.0167	724.6938	792.1013	862.8907	867.1749	884.635	949.4376	1017.8221	1043.1782	1051.8667	1054.7082	1072.5613	1143.9123	1192.3918	1203.7839	1226.2534	1328.6936	1339.6772	1383.0785	1414.356	1415.708	1476.4979	1477.8411	1482.1433	1488.4768	1825.3646	2373.8078	3028.5362	3045.0018	3052.4798	3069.3139	3089.8532	3091.6217	3116.8083	3132.3459	3476.4536
CC#CC1C(C)OC1=N	CC#C[C@H]1[C@@H](C)O[C]1[NH]	
InChI=1S/C7H9NO/c1-3-4-6-5(2)9-7(6)8/h5-6,8H,1-2H3	InChI=1S/C7H9NO/c1-3-4-6-5(2)9-7(6)8/h5-6,8H,1-2H3/t5-,6+/m1/s1
