22
gdb 102716	2.79625	0.86997	0.74064	3.7862	86.76	-0.2856	0.036	0.3216	1633.1369	0.19364	-367.226534	-367.216382	-367.215438	-367.262439	36.751	
C	 0.0538947043	 1.505331093	-0.1079972013	-0.398726
C	 0.0113538817	-0.0157860125	 0.0486820125	-0.181976
C	-1.4158298608	-0.6092757812	 0.0324967803	-0.121921
C	-1.406884101	-2.1561238525	 0.0926174154	-0.227289
C	-2.7792905082	-2.7810256124	-0.0249023445	 0.019259
C	-3.40111908	-2.9962683114	-1.3838754311	-0.258693
C	-2.931906754	-4.1772828461	-0.5694893208	-0.27918
C	-2.2174411459	-0.0584004981	 1.1314330233	 0.28831
N	-2.8375266479	 0.3674841705	 2.0096846082	-0.345182
H	 1.0864448811	 1.8660434956	-0.0996463777	 0.120308
H	-0.4019770659	 1.8198120246	-1.0532516042	 0.117911
H	-0.4832765307	 2.0030363257	 0.7049042268	 0.144907
H	 0.5699766771	-0.4919288345	-0.7655078036	 0.104197
H	 0.5045096171	-0.311775069	 0.981917777	 0.115818
H	-1.9097484007	-0.3076100012	-0.9010157625	 0.124458
H	-0.7698121091	-2.5120535946	-0.7261370769	 0.099504
H	-0.924779497	-2.4701464216	 1.0267026476	 0.114841
H	-3.4647029022	-2.5044664566	 0.7713860363	 0.109361
H	-4.467401736	-2.8360376431	-1.496110636	 0.118321
H	-2.8182373568	-2.7250473699	-2.2589091963	 0.10738
H	-2.0362906742	-4.6944792591	-0.8984534315	 0.110852
H	-3.6776239408	-4.8247924156	-0.122291231	 0.11754
61.0879	70.0072	103.9911	127.0014	158.4386	220.9382	270.7118	289.3134	314.6239	406.681	425.0235	553.9537	608.1614	752.7951	777.2795	801.5632	827.0781	847.4223	890.2875	944.5479	958.7609	992.5616	1027.0372	1051.1139	1063.1515	1082.8875	1120.5295	1132.6081	1143.9735	1165.8596	1199.3931	1229.555	1248.9105	1275.2708	1294.6847	1347.3226	1367.9575	1372.4785	1415.4725	1423.727	1470.6857	1479.8473	1489.3884	1499.0134	1507.1751	1510.6071	2350.3552	3021.2323	3025.8086	3035.2995	3037.8397	3064.979	3074.239	3106.5702	3117.1108	3128.2107	3134.4197	3150.2786	3207.8519	3223.122
CCC(CC1CC1)C#N	CC[C@@H](CC1CC1)C#N	
InChI=1S/C8H13N/c1-2-7(6-9)5-8-3-4-8/h7-8H,2-5H2,1H3	InChI=1S/C8H13N/c1-2-7(6-9)5-8-3-4-8/h7-8H,2-5H2,1H3/t7-/m0/s1
