20
gdb 52547	3.38246	0.72715	0.65545	2.0694	89.	-0.2484	-0.0112	0.2371	1815.8666	0.167374	-403.137769	-403.126727	-403.125783	-403.176176	38.115	
C	 0.3429703679	 1.3881472117	 0.3479252741	-0.505738
C	 0.170017658	-0.0402798452	 0.143771737	 0.202204
C	 0.0159387094	-1.2219782103	-0.0279536642	 0.031368
C	-0.1691124972	-2.6307407962	-0.235264052	 0.182191
N	-1.2971571632	-3.0864058531	-0.6097438173	-0.530269
O	 0.989772734	-3.2949917961	 0.0343640927	-0.25212
C	 1.0452422865	-4.7242845649	-0.1253333174	 0.12483
C	 1.2458455613	-5.0880384518	-1.5962914902	-0.394724
C	 2.1894230415	-5.197517326	 0.7622396799	-0.395391
H	 1.342587378	 1.6179227516	 0.7315684351	 0.154069
H	 0.2081169545	 1.9368946398	-0.590610806	 0.157404
H	-0.3903298334	 1.7730697451	 1.0649453229	 0.157739
H	-1.292351466	-4.0985141179	-0.7227227308	 0.22129
H	 0.1057155839	-5.1564508572	 0.2452644908	 0.085505
H	 0.4348789492	-4.7025362746	-2.2192144976	 0.132677
H	 2.1873978773	-4.6666175984	-1.9613497114	 0.130296
H	 1.2835341901	-6.175224469	-1.7158333436	 0.120574
H	 2.0141869494	-4.9103626489	 1.8020060195	 0.129291
H	 2.2826370987	-6.2862253018	 0.7110238263	 0.118654
H	 3.1342881002	-4.7525586665	 0.4361939921	 0.130149
12.5562	55.7985	79.5979	103.2622	170.7905	208.1909	212.4461	261.541	293.2757	354.9711	376.8568	405.9035	457.7464	481.9506	584.473	715.9011	786.184	828.9005	840.9247	922.3096	935.2113	951.586	1048.4917	1054.131	1080.2595	1126.586	1143.1909	1160.6557	1204.6977	1331.4581	1372.3214	1385.177	1401.7133	1411.8236	1418.4898	1473.5673	1474.7888	1480.1151	1487.6245	1493.5042	1511.2793	1687.5442	2372.4819	3009.3813	3029.8972	3041.858	3046.4038	3092.2111	3095.2549	3113.7793	3121.6089	3124.0752	3126.7006	3507.2008	12.5902	55.7973	79.5979	103.2616	170.7916	208.1905	212.4468	261.5413	293.276	354.9713	376.858	405.9038	457.7464	481.9505	584.4729	715.9024	786.1844	828.9002	840.9242	922.3091	935.2115	951.5863	1048.4916	1054.1309	1080.2584	1126.5855	1143.1909	1160.6557	1204.6979	1331.4586	1372.3222	1385.1782	1401.7135	1411.8235	1418.49	1473.5668	1474.7883	1480.1154	1487.6248	1493.5046	1511.2795	1687.5456	2372.4821	3009.3811	3029.8972	3041.858	3046.4037	3092.2111	3095.2549	3113.7792	3121.6089	3124.0751	3126.7005	3507.2022
CC#CC(=N)OC(C)C	CC#C[C]([NH])OC(C)C	
InChI=1S/C7H11NO/c1-4-5-7(8)9-6(2)3/h6,8H,1-3H3	InChI=1S/C7H11NO/c1-4-5-7(8)9-6(2)3/h6,8H,1-3H3
