14
gdb 128371	2.25292	1.5682	0.93083	1.5846	71.47	-0.2418	-0.0426	0.1992	1174.318	0.101738	-432.873231	-432.864992	-432.864047	-432.906544	29.083	
C	 0.0074812096	 1.3878683245	-0.0373947591	-0.326358
N	-0.031899194	-0.0569033047	 0.1166363734	-0.39235
C	-1.2087860154	-0.7283836886	 0.0430950358	 0.41666
N	-2.3789548212	-0.1205120992	 0.0295981491	-0.236272
O	-3.336297821	-1.159668109	 0.0100173732	-0.16614
C	-2.7190085446	-2.3296792047	-0.0044522102	 0.017054
C	-1.3656060463	-2.1645858619	 0.0130748685	-0.034781
C	-0.3369552812	-3.1288874264	 0.0036158504	 0.198909
N	 0.5479395319	-3.8770461457	-0.0089675687	-0.351374
H	 1.0266402066	 1.7320566039	 0.1460946687	 0.133507
H	-0.3100707191	 1.7136268635	-1.0364908736	 0.135615
H	-0.6580271835	 1.8509344362	 0.6955005954	 0.160267
H	 0.7887372622	-0.5779895725	-0.1465323737	 0.265226
H	-3.340914164	-3.2116473154	-0.0256984894	 0.180037
106.3496	114.1236	130.8148	179.3293	222.1449	328.746	378.5671	445.2849	542.929	550.3881	583.3952	624.4958	744.0654	749.8793	870.537	911.8622	924.2129	1077.0407	1151.7719	1177.7941	1192.1085	1234.452	1318.3983	1372.7695	1454.8509	1480.1806	1505.0072	1522.1068	1600.8783	1652.2337	2344.2867	3020.5139	3097.989	3141.9297	3265.5849	3640.8667
CNC1=NOC=C1C#N	CNc1nocc1C#N	
InChI=1S/C5H5N3O/c1-7-5-4(2-6)3-9-8-5/h3H,1H3,(H,7,8)	InChI=1S/C5H5N3O/c1-7-5-4(2-6)3-9-8-5/h3H,1H3,(H,7,8)
