16
gdb 81741	3.21606	1.28253	1.07577	2.7558	70.07	-0.2758	-0.0102	0.2656	1113.5635	0.123094	-437.85633	-437.847904	-437.84696	-437.889374	31.25	
C	-0.1848189442	 1.545090992	 0.031194402	-0.416826
C	-0.0405069719	 0.0353229172	-0.0563381134	-0.125197
C	 1.0938212321	-0.5700732999	-0.9955288508	 0.116494
O	 1.9422851445	 0.3078122261	-1.6708170786	-0.420769
C	 1.6825313544	-1.2797651141	 0.2348441206	-0.09554
O	 2.0152321375	-0.2356209106	 1.1584056814	-0.283408
C	 0.6491671232	-0.6876502258	 1.1148831955	 0.320919
C	 0.0648736442	-1.1930943272	 2.3183264105	 0.200788
N	-0.4560786294	-1.5906078825	 3.2710869765	-0.333143
H	 0.7434371625	 2.0133003508	 0.3688596362	 0.127054
H	-0.4368611747	 1.959502652	-0.948977011	 0.136935
H	-0.9770429408	 1.8216225937	 0.733501959	 0.13305
H	-0.9970123891	-0.4432803857	-0.2848943055	 0.101203
H	 0.6816859112	-1.2594036998	-1.7351755101	 0.108955
H	 2.4235733309	 0.8089529977	-1.0006231608	 0.296749
H	 2.2251887096	-2.2134970138	 0.3270873084	 0.132736
95.1452	135.7557	168.7346	201.3473	227.4493	280.3082	396.7591	459.422	474.5349	556.8878	582.7637	615.1682	665.8969	724.8416	785.4442	872.7356	888.6561	952.3762	1010.5191	1040.5638	1056.1804	1110.8261	1138.5636	1174.3123	1196.8108	1247.3223	1265.9862	1305.4936	1351.2286	1402.4717	1415.8413	1442.7247	1489.0638	1502.0961	2358.2918	3045.8566	3073.497	3102.1151	3115.7417	3123.9614	3194.2674	3784.172
CC1C(O)C2OC12C#N	C[C@H]1[C@@H](O)[C@H]2O[C@@]12C#N	
InChI=1S/C6H7NO2/c1-3-4(8)5-6(3,2-7)9-5/h3-5,8H,1H3	InChI=1S/C6H7NO2/c1-3-4(8)5-6(3,2-7)9-5/h3-5,8H,1H3/t3-,4+,5+,6-/m0/s1
