16
gdb 88928	3.35242	0.92979	0.77021	4.2884	75.54	-0.2397	-0.0211	0.2185	1431.4895	0.122002	-437.851059	-437.84174	-437.840796	-437.886137	33.663	
O	-0.1785358079	 1.4665444689	 0.0758198951	-0.424129
C	-0.0119565774	 0.0771996172	 0.0138771233	 0.051888
C	-0.4744496537	-0.7739698935	 1.1727901453	-0.333068
C	-1.2861598021	-0.7033394515	-0.1098523734	 0.048622
N	-2.4924880273	 0.0563583862	-0.1444358982	-0.330519
C	-3.7104599351	-0.5280228365	-0.3168290521	 0.293094
O	-3.8820177748	-1.730955971	-0.4061810772	-0.369658
C	-4.806200381	 0.4321843417	-0.3911050276	 0.207333
C	-5.7339773486	 1.1944763119	-0.4525831111	-0.396277
H	 0.4027057622	 1.8135872952	 0.7600829681	 0.297425
H	 0.8489144279	-0.2526791712	-0.5651392775	 0.102053
H	 0.0617257317	-1.6891724652	 1.3979171635	 0.125095
H	-0.8845439994	-0.2498627742	 2.0293201564	 0.122124
H	-1.3153235957	-1.5802206172	-0.7450763716	 0.131698
H	-2.4080470241	 1.0617724736	-0.1236354476	 0.267664
H	-6.5618679645	 1.8581187658	-0.5102874755	 0.206655
39.7724	82.1005	98.6493	200.3223	244.3487	268.8813	297.6234	345.6698	455.124	529.251	538.4534	561.6517	622.6612	655.7458	670.627	760.2989	770.2385	828.624	910.3842	950.6289	1002.1672	1019.5802	1061.4093	1123.8396	1159.4309	1187.2825	1232.9499	1254.1519	1301.5967	1367.2295	1414.5826	1475.7978	1532.1072	1753.9182	2226.1471	3116.2004	3135.7402	3191.9932	3230.6506	3497.7666	3621.6943	3815.5591
OC1CC1NC(=O)C#C	O[C@H]1C[C@H]1NC(=O)C#C	
InChI=1S/C6H7NO2/c1-2-6(9)7-4-3-5(4)8/h1,4-5,8H,3H2,(H,7,9)	InChI=1S/C6H7NO2/c1-2-6(9)7-4-3-5(4)8/h1,4-5,8H,3H2,(H,7,9)/t4-,5+/m1/s1
