15
gdb 69686	3.42048	1.33648	1.20887	2.8249	69.54	-0.2444	-0.0023	0.2421	1026.5322	0.111853	-416.710189	-416.702633	-416.701689	-416.742072	29.383	
O	-0.0512382887	 1.4499171884	 0.1522852554	-0.449963
C	-0.0261382227	 0.0828050717	-0.007354324	 0.38259
C	-0.4210792686	-0.6448959178	-1.2566098187	-0.385934
C	-1.1666337938	-0.8963464962	 0.0384105623	-0.06562
N	-0.5029242401	-1.7361628412	 1.1220194349	-0.150027
C	 0.8348015526	-2.2663380736	 0.7387066441	-0.139542
C	 1.2110169004	-2.9099254005	-0.4952799098	 0.298826
N	 1.5648926362	-3.5032157084	-1.4236363107	-0.344794
C	 0.6767064045	-0.8158314129	 1.0381173315	-0.137705
H	 0.619089081	 1.8379302481	-0.4217882228	 0.295262
H	-1.0145975143	-0.0146280288	-1.9142118841	 0.130329
H	 0.1923670174	-1.3677367226	-1.7752837561	 0.1642
H	-2.2347529944	-0.7610757133	 0.1368555267	 0.126578
H	 1.2327559938	-2.8293794275	 1.5826434173	 0.154159
H	 1.1102240768	-0.3877243753	 1.9376064941	 0.121641
96.753	173.4762	263.5339	302.5284	319.0301	383.4653	424.6518	457.2685	599.6027	609.4294	633.8852	676.3034	748.2561	822.6469	829.3956	895.7234	934.2441	972.7886	995.883	1017.5068	1054.7266	1072.0917	1076.6014	1108.3102	1194.0682	1225.8322	1245.1261	1306.716	1327.3431	1394.9027	1426.2967	1504.951	2344.6064	3118.3912	3139.0408	3156.2149	3215.5681	3242.3872	3788.106
OC12CC1N1C(C#N)C21	O[C@]12C[C@H]1N1[C@@H](C#N)[C@@H]21	
InChI=1S/C6H6N2O/c7-2-3-5-6(9)1-4(6)8(3)5/h3-5,9H,1H2	InChI=1S/C6H6N2O/c7-2-3-5-6(9)1-4(6)8(3)5/h3-5,9H,1H2/t3-,4+,5-,6+,8?/m0/s1
