21
gdb 101128	2.56035	1.36218	1.07918	1.6082	78.88	-0.2355	0.0732	0.3087	1213.8466	0.180729	-424.17212	-424.162658	-424.161714	-424.206754	35.023	
C	 0.8277551665	 1.0487727773	-2.0342214995	-0.239088
O	 0.4511986707	 0.6664859289	-0.7254116547	-0.242649
C	 0.6942077571	-0.6985750712	-0.417357972	-0.001794
C	 0.5301148735	-0.8369376708	 1.0932129203	-0.410376
C	-0.2092625959	-1.6260207604	-1.1919114769	 0.489979
C	-1.6920738622	-1.774859999	-1.0539015409	-0.325171
C	-0.8041344114	-3.0000569757	-0.9467576301	-0.191596
C	-0.2733154768	-3.3405993578	-2.3319786562	-0.092018
O	 0.1843276801	-1.9768054825	-2.5346438063	-0.33385
H	 1.895816092	 0.8540106439	-2.2180817157	 0.101867
H	 0.2491704097	 0.5261798448	-2.8060341358	 0.130266
H	 0.6461279023	 2.1236680581	-2.1134013411	 0.119042
H	 1.729219165	-0.9559934975	-0.6999208555	 0.072204
H	 1.2165714149	-0.1512256071	 1.5949432397	 0.128506
H	-0.4870344604	-0.5742583622	 1.3979972447	 0.127597
H	 0.7474777873	-1.8568000669	 1.4206926335	 0.116963
H	-2.1182302997	-1.4399697679	-0.114261449	 0.121018
H	-2.323737861	-1.6268323206	-1.9257252889	 0.114568
H	-0.7753198634	-3.6367519526	-0.072784021	 0.101838
H	 0.5764417939	-4.0327845922	-2.3257730473	 0.108346
H	-1.0000519022	-3.6545218085	-3.0909662474	 0.104348
43.5805	101.5494	157.552	203.6168	215.3564	222.5491	275.2544	344.9169	353.4619	447.0622	458.1769	531.2965	700.5606	750.3466	841.4427	868.1927	888.0219	956.7022	972.3519	977.5785	999.1108	1019.3835	1041.3652	1069.7506	1073.0881	1115.512	1134.4049	1143.7195	1161.2627	1173.8348	1188.3517	1236.1303	1269.6967	1331.2782	1363.5987	1382.4739	1390.5269	1405.6503	1479.0335	1480.4185	1487.4859	1494.016	1502.7735	1511.8328	1519.7603	2962.2266	2985.0714	3021.3065	3049.6609	3053.8897	3069.2516	3112.9557	3119.0377	3123.5385	3132.5254	3200.7737	3216.4279
COC(C)C12CC1CO2	CO[C@@H](C)[C@]12C[C@H]1CO2	
InChI=1S/C7H12O2/c1-5(8-2)7-3-6(7)4-9-7/h5-6H,3-4H2,1-2H3	InChI=1S/C7H12O2/c1-5(8-2)7-3-6(7)4-9-7/h5-6H,3-4H2,1-2H3/t5-,6-,7+/m0/s1
