22
gdb 121992	2.14449	0.88996	0.67935	2.7851	80.83	-0.2486	0.0304	0.279	1715.0012	0.191957	-441.505763	-441.494596	-441.493652	-441.543627	38.35	
C	-0.3434907305	 1.3829937796	-0.0270831117	-0.228123
O	-0.210717413	-0.0172498676	-0.0057492732	-0.233817
C	-1.4555634655	-0.6847948129	-0.0027243922	-0.058365
C	-1.1829683851	-2.1834735718	 0.0331949804	-0.190376
C	-2.4531772353	-3.0488965955	 0.018411987	 0.029331
C	-2.1214109741	-4.5378782424	-0.1166710096	-0.404138
N	-3.2780704692	-2.8334446688	 1.2081874827	-0.271066
C	-4.4093187763	-2.0817846152	 1.214108759	 0.1572
O	-4.8534698004	-1.4746261567	 0.261118929	-0.332482
H	 0.663246622	 1.8085030153	-0.0234492311	 0.123401
H	-0.8732634226	 1.7312761423	-0.9280990421	 0.105124
H	-0.8905375658	 1.7564053774	 0.8535393744	 0.102568
H	-2.0544919913	-0.3751025762	 0.8686582771	 0.091749
H	-2.0410344285	-0.4214949062	-0.8992987295	 0.099021
H	-0.5672039458	-2.4442213746	-0.8352537825	 0.108842
H	-0.5836969935	-2.4163234487	 0.9229790125	 0.09593
H	-3.083879565	-2.7388701765	-0.8203466542	 0.122896
H	-1.510655156	-4.8841731115	 0.7261245372	 0.112829
H	-3.034245147	-5.1390110765	-0.147906106	 0.125089
H	-1.5534332308	-4.7237014479	-1.0325086119	 0.127195
H	-3.0023008019	-3.2818931298	 2.0686157887	 0.243187
H	-4.8977106443	-2.0822683355	 2.2093887661	 0.074006
34.7839	63.0592	76.0356	121.3095	140.2677	194.8632	207.7707	234.8308	239.8772	316.2798	326.6998	408.1123	497.1722	503.9602	538.4087	757.1326	801.0513	875.9052	934.4529	981.6441	987.0039	1029.0953	1051.1763	1119.0806	1150.6769	1153.7439	1171.0149	1185.6216	1210.8936	1230.4529	1246.3522	1301.6338	1311.9934	1359.8856	1391.8333	1410.3001	1428.963	1431.8442	1481.95	1483.2688	1485.9328	1492.9385	1496.5075	1505.1027	1527.1641	1529.6061	1798.6065	2929.6701	2961.557	2973.4202	2995.1139	3011.2818	3025.897	3031.0405	3069.1412	3080.3749	3103.792	3110.5482	3122.0403	3619.3176
COCCC(C)NC=O	COCC[C@@H](C)NC=O	
InChI=1S/C6H13NO2/c1-6(7-5-8)3-4-9-2/h5-6H,3-4H2,1-2H3,(H,7,8)	InChI=1S/C6H13NO2/c1-6(7-5-8)3-4-9-2/h5-6H,3-4H2,1-2H3,(H,7,8)/t6-/m1/s1
