20
gdb 75794	3.03026	1.30077	1.08202	2.8318	80.49	-0.2552	0.0313	0.2865	1188.2208	0.171042	-403.150108	-403.141513	-403.140569	-403.183438	32.942	
C	-0.2661658335	 1.4598862466	-0.0558134667	-0.408984
C	-0.0249387101	-0.0436051008	-0.0773474358	-0.212637
C	 1.2054052309	-0.5228583191	-0.8206857831	 0.422841
N	 1.6271975294	-0.3991173667	-1.9954824995	-0.55289
O	 1.7580357176	-1.1536293377	 0.2729410281	-0.289879
C	 0.6481631841	-0.7470176607	 1.1344259136	 0.450387
C	 0.9766173375	-0.0127140355	 2.448488664	-0.288668
C	-0.141147469	-0.8477668261	 3.1350637034	-0.215772
C	-0.0827051353	-1.8380602324	 1.9375299236	-0.289867
H	 0.6289294534	 2.0050264922	 0.2570131192	 0.127559
H	-0.5310155508	 1.8053546609	-1.05887623	 0.142808
H	-1.0845094917	 1.7211364163	 0.622898759	 0.117925
H	-0.9265675143	-0.5712312214	-0.404191906	 0.104374
H	 2.5304006767	-0.8612468979	-2.1160890012	 0.224755
H	 1.9726469856	-0.2992081238	 2.7969860005	 0.120141
H	 0.8965808126	 1.0761339948	 2.4631501683	 0.106272
H	 0.0764190144	-1.2510912854	 4.1251115462	 0.108235
H	-1.0904522348	-0.3081389284	 3.1787766582	 0.109367
H	-1.0208606129	-2.2226861839	 1.5295993889	 0.103595
H	 0.5897580503	-2.677255091	 2.1356526295	 0.120439
74.0769	104.6658	198.3913	210.047	238.5298	302.4594	342.1835	433.8161	460.4816	523.0574	653.7601	694.8769	767.0833	782.5279	825.1921	846.2169	869.9493	904.2106	926.288	952.103	996.3928	1024.4878	1037.3974	1076.2204	1108.4699	1130.53	1158.2967	1188.1184	1202.4368	1232.6955	1247.3388	1263.5367	1275.5824	1308.8001	1312.5461	1362.0618	1411.2335	1468.4517	1483.2487	1494.0673	1497.7575	1504.3484	1823.2227	3040.0399	3059.2565	3061.4027	3066.6975	3071.4672	3109.8726	3110.5295	3117.229	3121.5611	3132.1076	3471.38
CC1C(=N)OC11CCC1	C[C@H]1[C]([NH])OC21CCC2	
InChI=1S/C7H11NO/c1-5-6(8)9-7(5)3-2-4-7/h5,8H,2-4H2,1H3	InChI=1S/C7H11NO/c1-5-6(8)9-7(5)3-2-4-7/h5,8H,2-4H2,1H3/t5-/m0/s1
