23
gdb 105102	2.60414	1.15951	0.99516	1.7383	84.77	-0.2419	0.0831	0.325	1329.6231	0.205668	-388.253863	-388.244305	-388.243361	-388.289349	35.639	
C	 0.0900132969	 1.5181522327	 0.2725862035	-0.40496
C	-0.0267638349	 0.0267211192	-0.0571877199	-0.258871
C	 0.7049271884	-0.4647696127	-1.3088382752	 0.367319
C	 0.5011079769	 0.2691766797	-2.6155206558	-0.314481
C	 1.8341039272	 0.34494329	-1.9120724543	-0.305164
C	 0.8716688064	-1.9711819309	-1.4184715899	-0.097683
C	 1.5793512247	-2.7036524534	-0.2513216311	-0.087869
O	 0.3719733415	-3.4080686221	 0.1026076808	-0.276021
C	-0.3242399804	-2.8856436012	-1.0472122013	-0.091086
H	 1.1173172533	 1.8012275638	 0.5210919631	 0.120815
H	-0.2444482878	 2.15451051	-0.5533218975	 0.118461
H	-0.5337890572	 1.7579225787	 1.138953708	 0.116181
H	 0.3246824799	-0.5455245341	 0.8098780808	 0.112253
H	-1.0904637089	-0.2225410924	-0.1612982198	 0.102777
H	 0.430011567	-0.3164970076	-3.5263011509	 0.107939
H	-0.1199269533	 1.1584495336	-2.617382302	 0.111067
H	 2.1090516	 1.2865886311	-1.4522915747	 0.112501
H	 2.6728060717	-0.1931807928	-2.3416747141	 0.105957
H	 1.3037570873	-2.2072256625	-2.394302579	 0.070243
H	 2.379671555	-3.3911951112	-0.5555430205	 0.094055
H	 1.9488680668	-2.0757072311	 0.5683514152	 0.100909
H	-1.2613618731	-2.3905335815	-0.7699650009	 0.102144
H	-0.5448403172	-3.6707384154	-1.7825212045	 0.093514
40.8048	57.486	79.0755	214.6227	222.468	272.4216	297.4302	334.7596	349.9426	476.787	497.4263	641.5728	772.5333	775.8879	825.628	864.4788	875.7387	904.8945	930.0177	932.6866	974.3497	1031.884	1038.2911	1049.7531	1053.2511	1061.0416	1080.0473	1081.6619	1109.3361	1139.8803	1159.089	1164.1755	1188.685	1252.4963	1268.3334	1303.8317	1306.4241	1320.7552	1373.1653	1391.3737	1403.1486	1420.5102	1466.9766	1485.0372	1499.6186	1508.9361	1511.6693	1516.4188	1538.2329	3002.7015	3012.9652	3020.1445	3038.1066	3046.5061	3052.7417	3062.2205	3073.291	3104.1081	3108.0381	3128.6722	3135.3126	3206.0666	3221.7657
CCC1(CC1)C1COC1	CCC1(CC1)C1COC1	
InChI=1S/C8H14O/c1-2-8(3-4-8)7-5-9-6-7/h7H,2-6H2,1H3	InChI=1S/C8H14O/c1-2-8(3-4-8)7-5-9-6-7/h7H,2-6H2,1H3
