18
gdb 56281	5.1746	0.65402	0.6382	4.4489	69.18	-0.2522	0.0177	0.2698	1722.8779	0.147376	-476.221042	-476.211955	-476.21101	-476.256626	32.06	
O	-0.4665321825	-0.0049100683	 0.4243261655	-0.362088
C	-0.2302765827	 1.2964545053	 0.1964738749	 0.421214
O	 0.7181234846	 1.8840793746	 0.6379714424	-0.328939
C	-1.2813407349	 1.9474623212	-0.7181831696	-0.306311
N	-2.4998629116	 1.1428443012	-0.781399343	-0.323279
H	-2.9377874279	 1.2133634078	-1.6930856876	 0.24866
H	-1.3040262512	-0.194748261	-0.051494718	 0.300494
C	-3.4941667366	 1.4718817703	 0.2446574518	-0.173577
C	-4.7052653243	 0.5925094371	 0.0764019755	 0.079303
C	-6.0671734294	 1.1110900947	 0.2374390701	-0.175719
O	-5.5190371823	 0.8930105834	-1.0644044009	-0.238408
H	-1.4395552163	 2.9785210156	-0.375341189	 0.130537
H	-0.8364947016	 2.0046469966	-1.7172263356	 0.143283
H	-3.0473497462	 1.2996993246	 1.2318189334	 0.128335
H	-3.7991611064	 2.5297649483	 0.1998225216	 0.104821
H	-4.5339044912	-0.4737470866	 0.2274676295	 0.1053
H	-6.8688040906	 0.4338841192	 0.5264332148	 0.125362
H	-6.2169400087	 2.1540207461	 0.5126031941	 0.121012
50.4477	57.8116	83.0323	112.5063	195.2115	310.1125	331.8499	409.1021	457.8584	552.9337	561.601	667.9901	771.9121	807.7476	855.8038	870.0966	880.4694	932.2686	973.8423	982.3898	1070.3324	1109.4582	1130.8302	1146.5818	1164.0586	1171.939	1211.8396	1250.923	1275.9862	1293.7261	1350.3377	1362.2815	1415.6883	1453.2868	1468.4041	1485.7277	1497.8487	1530.5917	1881.3841	2978.1181	3024.0738	3053.8957	3084.3796	3089.5353	3112.1041	3177.8967	3492.9338	3541.5026
[O-]C(=O)C[NH2+]CC1CO1	OC(=O)CNC[C@H]1CO1	
InChI=1S/C5H9NO3/c7-5(8)2-6-1-4-3-9-4/h4,6H,1-3H2,(H,7,8)	InChI=1S/C5H9NO3/c7-5(8)2-6-1-4-3-9-4/h4,6H,1-3H2,(H,7,8)/t4-/m0/s1
