17
gdb 34568	4.38885	1.09767	0.99954	1.5244	84.32	-0.2315	-0.0238	0.2077	1197.1218	0.136498	-384.654569	-384.646957	-384.646013	-384.68676	29.607	
C	 0.0532757977	-1.2155896641	-0.0827513574	-0.415572
C	-0.030470888	-0.0141945167	-0.0349256956	 0.207369
C	-0.0661609247	 1.3996142102	 0.0259968077	 0.200909
C	-1.1615300442	 2.1730181517	-0.0719844982	-0.192857
C	-0.8527928173	 3.6332853407	 0.057289287	-0.112953
C	-0.9840077586	 4.2190349911	 1.4867058427	-0.075766
O	 0.42201394	 4.0174505754	 1.7348871737	-0.288654
C	 0.6714441886	 3.6555955427	 0.3570061498	 0.107785
C	 1.2024401163	 2.2263326111	 0.1997482081	-0.335285
H	 0.1109358369	-2.2749056063	-0.1255727182	 0.193546
H	-2.1662124908	 1.7895910317	-0.2069563473	 0.102556
H	-1.2521516841	 4.2503708151	-0.7510735639	 0.085895
H	-1.2543707256	 5.2831466342	 1.5138510419	 0.097932
H	-1.6132775844	 3.6649069741	 2.1920796123	 0.106616
H	 1.2827156139	 4.4116634535	-0.1471663694	 0.072983
H	 1.7707271247	 1.9320339964	 1.0884286732	 0.132485
H	 1.8676222898	 2.1151837591	-0.6652387964	 0.113013
96.4003	145.1089	160.075	276.1228	367.8887	436.4401	525.9634	538.3722	549.2033	602.3471	634.8944	672.6053	815.3974	860.3426	870.3996	876.1294	890.8435	906.6645	1001.7113	1013.4595	1040.5087	1062.0379	1078.1741	1145.6554	1166.7415	1181.588	1229.2593	1253.2719	1277.9057	1309.9043	1324.9776	1354.7547	1358.7321	1466.1349	1521.8719	1660.4974	2221.114	3007.2729	3031.2071	3049.8516	3064.2646	3081.0415	3082.4527	3202.6725	3503.4274
C#CC1=CC2COC2C1	C#CC1=C[C@H]2CO[C@H]2C1	
InChI=1S/C8H8O/c1-2-6-3-7-5-9-8(7)4-6/h1,3,7-8H,4-5H2	InChI=1S/C8H8O/c1-2-6-3-7-5-9-8(7)4-6/h1,3,7-8H,4-5H2/t7-,8-/m0/s1
