25
gdb 122167	3.02394	0.79118	0.71408	0.9143	91.24	-0.2478	0.0851	0.3329	1762.6765	0.226313	-389.481994	-389.47073	-389.469786	-389.518801	40.806	
C	-0.0717172039	 1.4759062569	-0.3770520478	-0.384557
C	-0.0454525813	 0.0231544213	 0.0679858088	-0.021041
O	-1.3377301473	-0.5207590339	-0.0911311117	-0.247128
C	-1.4269786814	-1.8778611338	 0.3020999697	-0.129007
C	-2.8622568935	-2.329721318	 0.1619996778	 0.34344
C	-3.8283515045	-1.5679350582	 1.0515242083	-0.458051
C	-3.3419615514	-2.7528836865	-1.209173505	-0.319485
C	-3.1707705074	-3.787850216	-0.1221632328	-0.037772
C	-2.1329373078	-4.8864298922	-0.2262556271	-0.414847
H	 0.9187287487	 1.9277943623	-0.2671980331	 0.112392
H	-0.3736212206	 1.5499722528	-1.4256682641	 0.125986
H	-0.7836728498	 2.0481774051	 0.2245805583	 0.12522
H	 0.6862689936	-0.549821975	-0.528061035	 0.081192
H	 0.2744392194	-0.0528282038	 1.1218214117	 0.0823
H	-0.7509617773	-2.4902486094	-0.3138973012	 0.078489
H	-1.0950555879	-1.9855131434	 1.350673919	 0.07903
H	-3.7760281824	-0.4950240918	 0.8457842173	 0.131583
H	-4.8588737454	-1.8989889195	 0.8901786191	 0.106472
H	-3.591429601	-1.7187611644	 2.1121079916	 0.106739
H	-4.3432087502	-2.4690989938	-1.5161006959	 0.105136
H	-2.6156237876	-2.7498030461	-2.0163297024	 0.106227
H	-4.0977467978	-4.124793131	 0.3374140184	 0.078876
H	-1.2414199692	-4.5660102548	-0.7720653619	 0.116928
H	-1.8123829965	-5.2359021245	 0.7619715733	 0.11494
H	-2.5455139073	-5.7484030922	-0.7625433554	 0.116938
51.4383	77.4038	102.0854	138.2106	181.109	197.1563	222.661	228.5464	250.7249	288.2972	368.8713	405.7977	421.3995	446.851	538.0406	731.0753	778.5941	821.6452	878.192	900.4208	915.4738	943.5021	995.501	999.0581	1021.4786	1046.0755	1057.0329	1118.8026	1131.7203	1140.5518	1144.3972	1165.0803	1187.5113	1193.5402	1250.5535	1295.485	1313.1579	1339.0087	1388.3728	1406.0958	1410.5521	1411.6285	1430.0635	1455.2028	1483.8118	1484.8289	1490.4063	1495.835	1499.4054	1503.3345	1512.2845	1513.5711	1535.1479	2937.4503	2950.1164	2968.912	2996.1374	3024.3633	3028.6717	3044.1186	3084.0982	3088.188	3102.7201	3112.7037	3118.1252	3120.8138	3123.1575	3127.3282	3206.005
CCOCC1(C)CC1C	CCOC[C@@]1(C)C[C@H]1C	
InChI=1S/C8H16O/c1-4-9-6-8(3)5-7(8)2/h7H,4-6H2,1-3H3	InChI=1S/C8H16O/c1-4-9-6-8(3)5-7(8)2/h7H,4-6H2,1-3H3/t7-,8-/m1/s1
