20
gdb 56311	6.41895	0.49513	0.47006	3.3577	79.15	-0.2526	-0.0224	0.2302	2263.2343	0.167933	-440.308908	-440.29817	-440.297225	-440.346857	36.112	
C	-0.191800266	 1.4480695854	-0.1344315224	-0.460529
C	-0.0643948948	-0.035381006	 0.1008295624	 0.394779
N	 0.0099459679	-0.6640600518	 1.2014556768	-0.520133
O	-0.0347685829	-0.6906124657	-1.0792583406	-0.241898
C	 0.0752333392	-2.1168329477	-1.0187751588	-0.04439
C	 0.0900128361	-2.6316409572	-2.4503257497	-0.216431
C	 0.1939764108	-4.1647814426	-2.5010976106	-0.276049
C	 0.3411009244	-4.6693980307	-3.918905674	 0.160781
O	-0.3665787506	-5.4924504277	-4.437921295	-0.234412
H	 0.6468106811	 1.8076726081	-0.7384113699	 0.146436
H	-1.1076257794	 1.663388381	-0.6932651832	 0.147289
H	-0.2124253972	 1.9934723925	 0.8102420052	 0.1275
H	-0.0272768735	-0.0175770326	 1.9859926976	 0.220289
H	 0.9896157152	-2.3903681554	-0.4800076802	 0.118843
H	-0.7669459014	-2.5235167282	-0.448172346	 0.122427
H	-0.8210675291	-2.3016515722	-2.961984659	 0.121866
H	 0.934462432	-2.1796607569	-2.98480997	 0.112531
H	 1.0890372077	-4.4848785633	-1.9466712586	 0.123126
H	-0.6752723944	-4.6484918427	-2.0462705603	 0.1268
H	 1.1869119548	-4.2054165161	-4.4804890338	 0.071172
40.5955	52.825	81.7917	96.6433	107.7133	123.823	188.0909	241.8822	274.3746	403.619	453.1405	531.2122	574.0419	619.4632	755.2044	809.6797	859.0021	908.6425	930.7653	976.7941	1008.4081	1051.8935	1068.1074	1075.9708	1112.7734	1127.7421	1153.6195	1217.6659	1261.5313	1288.203	1313.4522	1349.085	1371.2346	1401.5581	1430.593	1437.4065	1465.4865	1471.3399	1482.5347	1496.9877	1518.9631	1727.8412	1839.6287	2849.5939	3008.0726	3033.0112	3041.6141	3049.091	3066.4485	3087.3182	3102.9874	3112.2776	3145.0102	3517.4153
CC(=N)OCCCC=O	C[C]([NH])OCCCC=O	
InChI=1S/C6H11NO2/c1-6(7)9-5-3-2-4-8/h4,7H,2-3,5H2,1H3	InChI=1S/C6H11NO2/c1-6(7)9-5-3-2-4-8/h4,7H,2-3,5H2,1H3
