18
gdb 69701	3.95355	1.32916	1.22389	3.0198	76.76	-0.2515	0.0242	0.2758	1068.8456	0.148049	-401.909492	-401.901879	-401.900935	-401.941334	30.209	
C	-0.0436336305	 1.514885258	-0.0104069172	-0.506694
C	 0.0381285752	 0.0153225659	 0.0146412756	 0.34663
C	-0.8524832361	-0.8608202808	 0.850371182	-0.347757
C	 0.6318365934	-0.955302028	 1.0571850177	-0.109975
C	 1.3254512262	-1.7734523991	-0.0665670328	-0.154205
C	 0.7096765424	-0.8215400838	-1.0997420563	 0.037703
O	-0.0701590094	-1.928512706	-1.6696713555	-0.276384
C	 0.5021017763	-2.8323866091	-0.7775493705	 0.42004
N	 0.3530478786	-4.0729177136	-0.6803258227	-0.553109
H	 0.9117591947	 1.9682741993	-0.2984939072	 0.119346
H	-0.8034207895	 1.8573053375	-0.7233573418	 0.128671
H	-0.3140078291	 1.9081324938	 0.9746676827	 0.123917
H	-1.3817856981	-0.330003523	 1.6357634241	 0.1148
H	-1.4156508347	-1.6777885899	 0.4113447656	 0.135812
H	 1.0974572105	-0.736842945	 2.0099169377	 0.097575
H	 2.3955260856	-1.9366405782	 0.0356427317	 0.103339
H	 1.2734254822	-0.2884179999	-1.8646459387	 0.093213
H	-0.3025066277	-4.4248177282	-1.3809300243	 0.227078
115.6963	175.1249	191.0381	283.9622	298.7504	393.4413	441.3449	498.1806	610.8508	665.3805	729.4527	770.8639	794.4526	862.2306	879.5092	892.1388	912.7969	925.3651	943.9648	975.5277	990.269	1000.6561	1049.5564	1078.8713	1097.1816	1110.8457	1181.2437	1195.0534	1227.7475	1243.4402	1254.6283	1282.2624	1325.2388	1395.6519	1421.1083	1484.8525	1497.2164	1499.398	1818.5143	3021.5127	3079.9495	3099.3011	3122.1829	3128.244	3150.2462	3191.2888	3210.6754	3468.6807
CC12CC1C1C2OC1=N	C[C@]12C[C@H]1[C@@H]1[C@H]2O[C]1[NH]	
InChI=1S/C7H9NO/c1-7-2-3(7)4-5(7)9-6(4)8/h3-5,8H,2H2,1H3	InChI=1S/C7H9NO/c1-7-2-3(7)4-5(7)9-6(4)8/h3-5,8H,2H2,1H3/t3-,4+,5+,7-/m0/s1
