16
gdb 25558	4.2616	0.92881	0.82534	5.7162	72.93	-0.2299	0.0107	0.2407	1355.9826	0.125989	-434.090763	-434.082492	-434.081547	-434.125484	29.082	
N	-0.2573557032	 1.048783585	-0.1171035548	-0.436736
C	-0.3903573013	-0.2010415601	-0.2047445093	 0.138945
O	-0.5707564004	-0.9358791207	 0.9169016187	-0.170151
C	-0.7927601568	-2.3272732311	 0.7250571769	-0.214751
C	-2.2033829264	-2.6078730335	 0.3104827185	 0.275764
C	-3.3456249524	-1.8497461197	 0.3565886565	-0.149503
N	-4.4228680456	-2.5583533692	-0.1280410088	-0.247918
C	-3.9455216861	-3.7326130545	-0.4596403283	 0.013499
N	-2.6031293194	-3.8192627175	-0.21838561	-0.313047
H	-0.1105351153	 1.4495112386	-1.0410790515	 0.232182
H	-0.3654459386	-0.8032024099	-1.1230267953	 0.090708
H	-0.079969711	-2.7338139358	-0.0101196347	 0.108486
H	-0.5537528144	-2.7856409726	 1.6911309908	 0.141333
H	-3.4448312477	-0.835263469	 0.7091325058	 0.132741
H	-4.5072516431	-4.5553531164	-0.8764322501	 0.133357
H	-2.0165727385	-4.6183027838	-0.3940619645	 0.26509
31.875	59.4234	106.5369	200.2227	232.1392	337.4352	404.1138	503.9415	646.8271	650.0436	681.0592	721.9027	810.5657	819.0372	864.5383	930.9917	965.7993	1020.1876	1036.0369	1044.0748	1111.1108	1135.8923	1149.4051	1232.0755	1238.8819	1277.2456	1324.893	1363.0669	1412.1365	1425.192	1439.452	1499.0824	1508.6209	1612.0183	1750.5252	2976.967	3027.6969	3057.5505	3250.9835	3264.1648	3521.7478	3657.2784	31.8745	59.4235	106.5368	200.2227	232.1393	337.4353	404.1138	503.941	646.8271	650.0436	681.0591	721.9027	810.5655	819.0371	864.5391	930.9916	965.7992	1020.1876	1036.0369	1044.0747	1111.1106	1135.8923	1149.405	1232.0752	1238.8817	1277.2459	1324.8927	1363.0667	1412.1363	1425.1918	1439.452	1499.0819	1508.6204	1612.018	1750.5253	2976.967	3027.6969	3057.5506	3250.9835	3264.1649	3521.7479	3657.2786
N=COCC1=CN=CN1	[NH][CH]OCc1cnc[nH]1	
InChI=1S/C5H7N3O/c6-3-9-2-5-1-7-4-8-5/h1,3-4,6H,2H2,(H,7,8)	InChI=1S/C5H7N3O/c6-3-9-2-5-1-7-4-8-5/h1,3-4,6H,2H2,(H,7,8)
