19
gdb 106432	2.64677	1.34692	1.0651	1.8175	82.38	-0.2395	0.0394	0.2789	1199.3635	0.156986	-385.794979	-385.786098	-385.785154	-385.828613	33.911	
C	-0.1123153464	 1.5128435643	 0.0629648349	-0.382353
C	 0.046654992	-0.0113412138	 0.0506930036	-0.316335
C	 0.8555857428	-0.5223265468	 1.2039589709	 0.428474
C	 2.2939180604	-0.1788980824	 1.6836903657	-0.277713
C	 1.596074632	-1.0384908071	 2.7579240824	 0.046916
O	 0.3771112688	-0.2285399228	 2.5854244549	-0.339657
C	 1.0980377776	-2.0115827847	 1.6475405472	-0.257825
C	-0.051438128	-2.8472599641	 1.9076254901	 0.321276
C	-0.9935360143	-3.5711351498	 2.0925402394	-0.430316
H	 0.8548994033	 2.0146282969	-0.0426389796	 0.117387
H	-0.7528302242	 1.8421106099	-0.759986075	 0.114839
H	-0.5613238963	 1.8437466547	 1.003117181	 0.142409
H	-0.934706106	-0.4987157328	 0.0896629995	 0.125299
H	 0.5280985858	-0.3431398685	-0.8777991276	 0.106519
H	 3.1401013571	-0.6042276445	 1.1375310457	 0.095015
H	 2.4445298149	 0.8624197443	 1.9669219422	 0.112878
H	 1.9035883542	-1.2758687476	 3.7756982965	 0.102948
H	 1.8812305244	-2.5428887895	 1.0977470618	 0.097334
H	-1.8307378482	-4.1995807858	 2.2703533165	 0.192905
69.0304	110.8691	165.6554	186.4101	214.4558	321.5157	354.3838	409.4941	495.4793	533.0739	620.8903	629.343	636.9116	683.7458	731.6388	769.4744	802.6683	896.1136	901.8746	936.6088	965.1949	989.9145	1040.4809	1059.7817	1087.8342	1106.094	1128.8775	1147.527	1193.0318	1212.8609	1236.735	1283.6796	1318.7275	1364.1041	1393.8478	1412.0839	1471.1791	1493.7363	1497.2854	1507.7765	2236.7562	3030.9646	3043.1539	3056.1651	3067.8073	3069.152	3110.806	3125.3406	3128.7537	3155.3996	3504.336
CCC12CC(O1)C2C#C	CC[C@@]12C[C@@H](O1)[C@H]2C#C	
InChI=1S/C8H10O/c1-3-6-7-5-8(6,4-2)9-7/h1,6-7H,4-5H2,2H3	InChI=1S/C8H10O/c1-3-6-7-5-8(6,4-2)9-7/h1,6-7H,4-5H2,2H3/t6-,7-,8+/m1/s1
