20
gdb 82046	2.73313	1.45262	1.23392	2.8311	78.2	-0.2334	0.0727	0.3061	1097.902	0.171405	-403.077178	-403.068932	-403.067988	-403.110185	31.687	
C	-0.1002741389	 1.5596960181	-0.2045168573	-0.414347
C	 0.0356492583	 0.0493714789	-0.0844079513	-0.067873
C	 1.1193630657	-0.6532370268	-0.918793876	-0.050836
N	 2.4246854471	-0.1673907337	-0.4077435662	-0.34061
C	 1.7142671061	-1.2657912847	 0.2970404894	-0.146994
C	 0.6976869155	-0.5746773242	 1.2021218262	 0.325255
C	 1.1522096718	 0.2154022657	 2.4403643243	-0.12652
O	 0.4062690475	-0.6557809195	 3.3223261935	-0.278325
C	-0.136999289	-1.3878817131	 2.2081868639	-0.14939
H	 0.8745169256	 2.041891914	-0.0940613685	 0.13823
H	-0.5084398752	 1.83540661	-1.1831906017	 0.111534
H	-0.7749366498	 1.9612214065	 0.5592848208	 0.115549
H	-0.9314414948	-0.4409808402	-0.2453499239	 0.073165
H	 1.0317736064	-1.0439799198	-1.9254377756	 0.09169
H	 3.1505540243	-0.5975108911	-0.9804563312	 0.229383
H	 2.1834145013	-2.2317485821	 0.4448927422	 0.094133
H	 2.2291511907	 0.1947691051	 2.6436983885	 0.10592
H	 0.79785228	 1.2524648587	 2.4986407872	 0.099196
H	-1.2249021863	-1.2571682567	 2.1186664136	 0.093801
H	 0.0858721739	-2.4618564751	 2.2681294119	 0.097038
69.2573	121.3085	205.2073	236.5868	244.317	269.2812	386.0355	451.6953	546.5485	583.2624	706.1336	815.6653	839.4055	845.3109	857.3026	874.9107	930.8288	959.5566	979.1442	1008.3752	1019.5111	1034.3388	1060.8256	1085.7252	1114.7915	1126.9467	1147.1477	1155.4638	1174.8445	1196.1707	1215.7179	1241.8585	1298.2291	1306.4091	1333.7538	1362.6853	1380.379	1389.3508	1406.3605	1490.9836	1503.849	1507.7547	1532.1998	2989.0907	3015.9117	3031.2363	3032.383	3041.3709	3061.3896	3093.0176	3121.3032	3174.5653	3189.4975	3473.0352
CC1C2NC2C11COC1	C[C@H]1[C@H]2N[C@H]2C21COC2	
InChI=1S/C7H11NO/c1-4-5-6(8-5)7(4)2-9-3-7/h4-6,8H,2-3H2,1H3	InChI=1S/C7H11NO/c1-4-5-6(8-5)7(4)2-9-3-7/h4-6,8H,2-3H2,1H3/t4-,5+,6+/m0/s1
