12
gdb 131372	3.63197	1.65986	1.13944	5.1105	61.83	-0.2325	-0.0171	0.2154	944.7433	0.080537	-464.958927	-464.952171	-464.951227	-464.989988	25.498	
O	 0.1001168245	 1.3264761865	 0.0793001715	-0.41073
C	 0.0730854636	-0.0132518655	 0.0795716038	 0.330293
N	 0.0678735497	-0.7175211012	-1.0354149729	-0.329426
N	 0.0802971968	-2.0585292716	-0.6564521261	-0.376882
C	 0.0234654036	-2.1426395309	 0.6879072699	 0.494047
C	 0.0477929109	-0.8638507913	 1.2242402417	 0.185781
N	 0.043454602	-0.9550970481	 2.5884910421	-0.2875
N	 0.0151081498	-2.2019343654	 2.9137818378	-0.111949
N	 0.0091173529	-2.9703910901	 1.7489609443	-0.363902
H	 0.1146593345	 1.6141527094	-0.8433143293	 0.308853
H	-0.1175702162	-2.7494835743	-1.3570680055	 0.279206
H	-0.0280765521	-3.9719869676	 1.8261517128	 0.282208
165.0721	208.1762	265.5086	296.3031	389.6773	429.3099	480.5133	562.5302	655.9393	658.3446	691.8716	698.1341	783.2064	844.4652	902.5815	1019.8149	1050.0443	1180.9937	1223.7866	1269.3472	1341.4198	1374.2203	1398.1895	1481.8643	1542.2438	1603.3194	1667.2766	3686.539	3697.4215	3783.4568
OC1=NNC2=C1N=NN2	Oc1n[nH]c2c1nn[nH]2	
InChI=1S/C3H3N5O/c9-3-1-2(5-7-3)6-8-4-1/h(H3,4,5,6,7,8,9)	InChI=1S/C3H3N5O/c9-3-1-2(5-7-3)6-8-4-1/h(H3,4,5,6,7,8,9)
