19
gdb 108054	3.70193	1.32071	1.20164	2.9764	74.55	-0.2353	0.0654	0.3008	1074.4732	0.159918	-422.968506	-422.960866	-422.959922	-423.000622	30.28	
O	-0.1349772551	 1.4743349922	-0.0360989782	-0.423218
C	 0.0062954653	 0.059927677	 0.0023914543	-0.196968
C	-1.3752694524	-0.5359968677	 0.0179733446	 0.35837
C	-2.2439699367	-0.3671669672	 1.2977527874	-0.277158
C	-2.8069324183	-1.7914002155	 1.0870781805	 0.106962
O	-3.8151458783	-1.8232577867	 0.0517368588	-0.305557
C	-2.8059893192	-1.8474775269	-0.9828878776	 0.106957
C	-2.2428160767	-0.4367116151	-1.2698391535	-0.277145
C	-1.6776991629	-2.0893213077	 0.0599236709	-0.171182
H	 0.7434196959	 1.865705764	-0.0484187924	 0.288768
H	 0.5614859299	-0.3099312579	-0.8762989674	 0.080459
H	 0.560725356	-0.2616216729	 0.9003772401	 0.080449
H	-1.6090112467	-0.3318336484	 2.1903923976	 0.09515
H	-2.9643365057	 0.4533883116	 1.3312720638	 0.108201
H	-3.0882168712	-2.3979372671	 1.9501206099	 0.075902
H	-3.0864956225	-2.4998602879	-1.8120829857	 0.075899
H	-2.9631507079	 0.3807924336	-1.3483637748	 0.108199
H	-1.607063427	-0.4497092877	-2.1625190417	 0.095122
H	-0.9563091963	-2.9025918998	 0.0822918035	 0.07079
84.275	151.6564	246.1964	293.4811	322.7241	359.7423	393.5478	464.1434	658.1538	658.703	753.7113	820.173	830.2576	854.9491	875.8223	929.205	945.0475	961.6161	978.2642	985.1106	991.4238	1038.8469	1076.2065	1102.1929	1146.7086	1155.0477	1162.733	1176.0765	1206.8753	1210.7557	1256.0859	1264.8895	1269.5089	1280.5641	1309.4776	1329.4292	1356.5613	1462.2443	1462.3152	1474.7333	1517.3066	2948.7494	2976.4901	3040.8038	3042.5747	3086.942	3090.3327	3108.909	3112.6514	3144.2089	3827.6274
OCC12CC3OC(C1)C23	OC[C@@]12C[C@H]3O[C@@H](C1)[C@@H]23	
InChI=1S/C7H10O2/c8-3-7-1-4-6(7)5(2-7)9-4/h4-6,8H,1-3H2	InChI=1S/C7H10O2/c8-3-7-1-4-6(7)5(2-7)9-4/h4-6,8H,1-3H2/t4-,5+,6+,7-
