25
gdb 119147	2.57654	1.0449	0.85882	0.8259	89.48	-0.227	0.0865	0.3135	1517.4736	0.226121	-389.475311	-389.464292	-389.463348	-389.511679	41.068	
C	-0.2405415644	 1.5610958421	 0.2269879907	-0.382799
C	-0.0126612719	 0.0582301214	 0.2841719525	-0.051619
O	-1.2456935515	-0.5709061618	 0.0058097496	-0.304434
C	-1.3028918336	-1.972778957	-0.1430478229	 0.467345
C	-0.382304066	-2.6707302547	-1.1102229566	-0.323226
C	-0.2098149692	-2.8630280859	 0.3887777039	-0.352753
C	-2.7817458643	-2.3575031739	-0.0624620379	-0.012855
C	-3.5437549685	-1.7655468873	-1.2598103452	-0.383309
C	-3.0528289342	-3.8605418638	 0.067597855	-0.414631
H	 0.6852807593	 2.0956359998	 0.4603593075	 0.112303
H	-0.5758071589	 1.8616189751	-0.7696481522	 0.125362
H	-1.0059831031	 1.8587651446	 0.9492142313	 0.126637
H	 0.7599512741	-0.2297800262	-0.4456137947	 0.089382
H	 0.3534663262	-0.2303732854	 1.281187912	 0.0921
H	-0.7751810275	-3.4928742206	-1.6983304638	 0.113037
H	 0.3660196318	-2.0805679	-1.6276518729	 0.113028
H	 0.6581833422	-2.4045498661	 0.8467473949	 0.112349
H	-0.475008336	-3.8196374997	 0.8225154759	 0.112606
H	-3.1567789963	-1.8698053309	 0.8470882128	 0.079232
H	-3.2307007337	-2.244034068	-2.195048348	 0.106769
H	-4.6220205243	-1.9202051707	-1.1493161403	 0.101846
H	-3.3542582924	-0.6938981052	-1.3474082405	 0.129003
H	-2.6626703539	-4.4251735168	-0.7867470411	 0.11498
H	-2.6225790813	-4.2816885929	 0.9804556055	 0.115526
H	-4.1323676728	-4.0374610662	 0.1031510545	 0.114124
54.427	59.0475	89.6324	155.3429	226.3369	243.4463	253.0136	264.7017	292.2607	339.2113	352.3583	383.0028	445.2738	482.9718	563.8112	672.2492	764.9211	825.9759	827.351	873.7462	901.8859	928.6827	933.7157	946.8734	969.7334	992.8392	1043.6114	1072.6131	1097.7937	1118.2374	1129.6473	1154.3609	1183.7992	1187.39	1192.0896	1243.8954	1299.0037	1339.3681	1350.5242	1365.9816	1395.1466	1400.1049	1419.4683	1425.3466	1457.7584	1483.1939	1489.8336	1494.8264	1499.0441	1504.1931	1508.3755	1518.3787	1530.095	2972.377	3003.104	3016.906	3031.0938	3036.1563	3044.148	3092.4349	3099.7232	3109.6399	3118.5308	3121.8783	3130.9346	3134.9675	3150.8758	3213.4319	3232.6638
CCOC1(CC1)C(C)C	CCOC1(CC1)C(C)C	
InChI=1S/C8H16O/c1-4-9-8(5-6-8)7(2)3/h7H,4-6H2,1-3H3	InChI=1S/C8H16O/c1-4-9-8(5-6-8)7(2)3/h7H,4-6H2,1-3H3
