21
gdb 76769	2.21058	1.57875	1.08039	2.8581	84.05	-0.2306	-0.0155	0.2151	1200.8057	0.180974	-387.097362	-387.087823	-387.086879	-387.131855	35.606	
C	-0.8082491033	 1.1831016374	 0.1092123602	-0.408336
C	 0.0318172496	-0.0822771291	-0.0243036186	-0.113993
C	 0.9105693955	-0.3543105077	-1.3114761422	-0.125308
C	 1.0234525226	 0.7779701361	-2.3278127002	-0.396837
C	 2.1340244874	-0.5550046233	-0.3897494546	 0.244393
C	 3.1846305875	-1.646092563	-0.3959406292	-0.311686
C	 3.5940772642	-0.224349033	-0.6063586874	-0.313294
C	 1.3256156565	-0.1657308492	 0.8105129661	 0.340371
O	 1.5896292915	 0.0388860435	 1.9646213606	-0.327379
H	-0.2239555917	 2.0852829785	-0.0928240622	 0.12156
H	-1.6608053538	 1.1709257335	-0.5773083334	 0.117846
H	-1.1953755414	 1.2636599258	 1.1292938417	 0.135238
H	-0.5897964284	-0.9581756628	 0.1997570421	 0.101916
H	 0.606639411	-1.2732289445	-1.8221483256	 0.073215
H	 1.3696913194	 1.7076158975	-1.8650239329	 0.11982
H	 1.7373839044	 0.5196297958	-3.1174152888	 0.114281
H	 0.060187734	 0.9779738928	-2.8082612301	 0.117715
H	 3.4084469601	-2.1141788647	 0.5569992483	 0.133001
H	 3.1891266415	-2.3157430768	-1.2499878659	 0.120809
H	 3.8877046008	 0.0862367786	-1.6035061413	 0.121531
H	 4.0956352726	 0.2946107845	 0.2037958134	 0.135136
39.6294	168.5282	181.1981	189.9947	208.9039	213.2904	233.0332	262.8123	359.0949	462.2302	535.7495	546.4256	690.9143	726.4554	768.8526	781.5871	823.7348	870.3268	933.3941	939.0335	990.4519	1005.1902	1043.8979	1048.8034	1065.7394	1075.1009	1098.7518	1145.6095	1169.1652	1193.4444	1200.5697	1255.3239	1258.9334	1325.3762	1353.5107	1373.6704	1404.7504	1413.5525	1457.9154	1485.7092	1490.9826	1492.1684	1502.4151	1505.654	1869.9288	3030.257	3031.2791	3040.5193	3054.328	3095.2556	3103.8693	3108.9797	3116.8381	3127.3029	3131.2266	3210.7925	3226.0599
CC1C(C)C2(CC2)C1=O	C[C@H]1[C@@H](C)C2(CC2)C1=O	
InChI=1S/C8H12O/c1-5-6(2)8(3-4-8)7(5)9/h5-6H,3-4H2,1-2H3	InChI=1S/C8H12O/c1-5-6(2)8(3-4-8)7(5)9/h5-6H,3-4H2,1-2H3/t5-,6+/m0/s1
