21
gdb 57975	3.98101	0.67565	0.64239	2.3393	85.6	-0.2428	-0.0151	0.2277	1821.0549	0.178391	-387.088151	-387.077089	-387.076145	-387.125593	39.066	
C	 0.0749159868	 1.4974992362	-0.1674526611	-0.385008
C	-0.0041193188	-0.019283163	 0.0389208018	-0.062687
C	 0.6942382262	-0.4473365977	 1.3465541537	-0.386214
C	-1.4605878614	-0.4879008321	 0.1001976875	 0.385344
O	-2.31270158	 0.1573526508	 0.6694908497	-0.318467
C	-1.7765839592	-1.8180504065	-0.5669615601	-0.303908
C	-3.2155904735	-2.2928681596	-0.3125850159	-0.358304
C	-3.5165427481	-3.5451962724	-0.9940410966	 0.28513
C	-3.7389075135	-4.5783262109	-1.5669722231	-0.430684
H	 1.1153727557	 1.835319167	-0.1436066637	 0.110431
H	-0.3564230209	 1.793004211	-1.1288714229	 0.115619
H	-0.4807112278	 2.0132839479	 0.6196302142	 0.140466
H	 0.4885357991	-0.5335973835	-0.7957250781	 0.077974
H	 0.6488894438	-1.5305149888	 1.5000122794	 0.117212
H	 1.7487464249	-0.1563045149	 1.3258042602	 0.121415
H	 0.2202937212	 0.037885587	 2.2052930145	 0.136876
H	-1.5946795615	-1.7053207731	-1.6443747783	 0.137907
H	-1.0498295943	-2.5691622008	-0.2328110211	 0.133084
H	-3.3747317267	-2.4026745381	 0.7662423336	 0.142471
H	-3.9114584549	-1.509110444	-0.630913715	 0.148322
H	-3.953284327	-5.4900668145	-2.0667781286	 0.19302
30.8293	56.1564	86.1653	101.5137	200.2678	209.9192	234.5759	247.5615	292.0558	308.9242	344.2652	423.0649	511.1339	569.6105	619.5701	639.8386	652.1617	782.2378	802.2493	889.1095	935.1055	962.8079	972.047	1006.9888	1022.7267	1083.3231	1107.8219	1123.2886	1178.6874	1198.319	1286.8723	1299.1036	1331.2401	1366.8537	1386.4627	1396.341	1416.993	1447.9032	1469.4292	1486.2169	1489.2176	1501.4564	1511.2679	1801.968	2239.7505	3024.1125	3031.2857	3034.9629	3042.3684	3046.5122	3056.5929	3081.8259	3104.0579	3108.079	3114.6034	3128.9016	3507.7742
CC(C)C(=O)CCC#C	CC(C)C(=O)CCC#C	
InChI=1S/C8H12O/c1-4-5-6-8(9)7(2)3/h1,7H,5-6H2,2-3H3	InChI=1S/C8H12O/c1-4-5-6-8(9)7(2)3/h1,7H,5-6H2,2-3H3
