21
gdb 108552	3.24746	1.36986	1.20714	1.7304	80.9	-0.2193	0.0888	0.3081	1129.8773	0.183825	-387.065139	-387.057186	-387.056242	-387.09749	31.783	
C	 0.2351843035	 1.4706163603	 0.2136550343	-0.377214
C	-0.0820158172	 0.0077472307	-0.1247741663	-0.287645
C	 0.6209080669	-0.4883594342	-1.3688087926	 0.326471
C	 0.3406725345	 0.1614942572	-2.7313388439	-0.282579
C	 0.6518602992	-0.9497218249	-3.7729897669	-0.213089
C	 1.4880869828	-1.9365919808	-2.9677535954	 0.08593
O	 2.6685937388	-1.2163621178	-2.468048275	-0.316225
C	 2.0154046037	-1.0737211567	-1.2065599249	 0.066285
C	 0.874840845	-1.9782266386	-1.5518250011	-0.21594
H	 1.3094043525	 1.6154841122	 0.3681962333	 0.118627
H	-0.0761737522	 2.1420410989	-0.5930127463	 0.120571
H	-0.2827562162	 1.7838222748	 1.1253309834	 0.111159
H	 0.1955285374	-0.6303132556	 0.724505616	 0.09432
H	-1.1669663297	-0.1119318657	-0.2498711017	 0.096071
H	-0.7009599372	 0.4939971854	-2.7910961418	 0.094591
H	 0.9721592197	 1.0399506995	-2.8928326295	 0.110463
H	-0.2649025458	-1.4380478715	-4.1243811711	 0.096778
H	 1.1944236441	-0.5764930689	-4.6460231739	 0.10659
H	 1.7705231704	-2.868675245	-3.4602615764	 0.078097
H	 2.6330560503	-0.9718384306	-0.3205578339	 0.096315
H	 0.3972252296	-2.7975063187	-1.0316591863	 0.090424
91.644	151.7257	199.2425	227.046	322.9848	367.021	383.7107	482.3536	584.3878	667.3863	745.3443	762.005	786.8344	828.8827	846.3497	872.0418	902.2309	913.3955	934.9703	976.0828	1004.21	1014.3137	1022.6887	1050.4056	1056.7963	1100.8409	1117.3316	1149.0028	1171.9013	1214.4748	1234.2253	1263.3168	1268.0336	1294.3824	1314.5501	1330.2861	1348.6786	1363.2801	1411.6394	1415.811	1473.5159	1484.3906	1497.2499	1500.5962	1507.7374	3008.6043	3035.5606	3036.1211	3040.8234	3048.592	3082.0061	3099.377	3102.6966	3105.6826	3106.7923	3167.5105	3200.7439
CCC12CCC3OC1C23	CC[C@@]12CC[C@H]3O[C@@H]1[C@@H]23	
InChI=1S/C8H12O/c1-2-8-4-3-5-6(8)7(8)9-5/h5-7H,2-4H2,1H3	InChI=1S/C8H12O/c1-2-8-4-3-5-6(8)7(8)9-5/h5-7H,2-4H2,1H3/t5-,6+,7-,8+/m1/s1
