19
gdb 103586	3.40369	1.08069	1.04566	4.03	78.84	-0.2395	-0.0502	0.1893	1240.2549	0.157581	-423.051977	-423.042851	-423.041907	-423.086257	33.883	
C	-0.1258242309	 1.406265108	-0.045995578	-0.248407
O	 0.0114705792	 0.0022086728	 0.0113781659	-0.281596
C	 0.6910676524	-0.5506540017	 1.1446000303	 0.35914
C	 0.0263476829	-0.1409409076	 2.4675136476	-0.449508
C	 0.703425341	-2.0800232877	 0.9413895971	-0.388229
C	 2.1748124704	-2.5069686018	 1.0099637792	 0.377835
O	 2.5904046611	-3.6411099357	 1.0093234102	-0.325988
C	 2.977544052	-1.2601879206	 1.0792609408	-0.188261
C	 2.1748649939	-0.1946523451	 1.1403045781	-0.091452
H	 0.8404113888	 1.930042253	-0.0255714175	 0.105243
H	-0.6117116136	 1.6266396609	-0.9995986494	 0.134088
H	-0.7543348807	 1.8040584824	 0.7620031639	 0.111097
H	-1.0457333769	-0.3574157839	 2.4269331983	 0.131085
H	 0.4645001377	-0.7028713704	 3.2971282273	 0.128703
H	 0.1579979589	 0.9233167451	 2.6841285082	 0.118027
H	 0.1100109662	-2.6282962894	 1.6768053653	 0.124633
H	 0.3072680887	-2.3149693883	-0.0501081971	 0.148532
H	 4.0605597092	-1.2667626562	 1.0837312185	 0.119187
H	 2.5091260595	 0.8351925961	 1.2061897914	 0.115872
45.847	81.4357	174.9007	213.629	255.4098	287.8809	344.3639	357.2113	386.0964	422.8983	514.7825	594.9141	615.872	683.2062	807.8874	825.988	838.9293	869.4115	928.7623	963.2676	1008.5186	1070.9036	1084.3798	1108.6293	1142.0998	1178.4064	1195.2627	1204.8044	1230.6245	1267.8317	1279.2461	1363.6186	1402.4877	1445.1157	1475.6959	1487.5441	1488.9115	1506.1204	1510.7281	1654.3295	1821.1441	2994.1587	3038.8278	3047.6238	3073.5757	3111.6753	3115.1684	3118.3953	3122.1582	3188.4984	3221.1008
COC1(C)CC(=O)C=C1	CO[C@@]1(C)CC(=O)C=C1	
InChI=1S/C7H10O2/c1-7(9-2)4-3-6(8)5-7/h3-4H,5H2,1-2H3	InChI=1S/C7H10O2/c1-7(9-2)4-3-6(8)5-7/h3-4H,5H2,1-2H3/t7-/m1/s1
