12
gdb 11184	4.20575	1.6283	1.42259	2.7972	55.7	-0.2822	-0.0063	0.276	853.4151	0.08291	-418.467533	-418.46064	-418.459696	-418.499117	24.719	
O	 0.028784147	 0.0096592876	-0.0322719821	-0.312517
C	-0.045923577	 1.1969349386	 0.0331311662	 0.412242
C	-1.2762335799	 2.0901106496	 0.1352059046	-0.230743
O	-0.7569027324	 3.366928606	 0.4620997116	-0.230064
C	 0.5811572658	 3.3842427136	 0.006188078	-0.011403
O	 1.0392941829	 2.0268491511	 0.0335216454	-0.204726
C	 0.708219809	 3.9361822525	-1.3467590054	 0.355514
C	 0.8036777753	 4.4065974489	-2.4471118345	-0.438088
H	-1.8174419919	 2.0883493712	-0.8212601316	 0.146177
H	-1.9461199478	 1.7534378299	 0.9285049929	 0.15722
H	 1.1767184218	 3.9569514054	 0.722314809	 0.140528
H	 0.8924525073	 4.8218232056	-3.4214576841	 0.215861
80.0928	123.9514	210.6532	263.667	462.7077	511.9136	542.9669	568.3685	675.3281	681.6437	689.153	796.0942	866.2406	935.641	974.264	1019.8696	1049.4745	1097.7789	1202.6053	1214.8245	1327.555	1355.3682	1378.2133	1488.1472	1911.6699	2243.2305	3019.973	3082.7877	3120.2408	3498.6698
O=C1COC(O1)C#C	O=C1CO[C@@H](O1)C#C	
InChI=1S/C5H4O3/c1-2-5-7-3-4(6)8-5/h1,5H,3H2	InChI=1S/C5H4O3/c1-2-5-7-3-4(6)8-5/h1,5H,3H2/t5-/m0/s1
