19
gdb 47931	2.14476	1.69635	1.1896	1.7249	71.51	-0.2458	-0.0229	0.2229	1085.2352	0.160373	-460.172195	-460.164013	-460.163069	-460.204999	31.204	
O	-0.0243804936	-0.0549362228	 0.3251003766	-0.316304
C	 0.0046515651	 1.1385519931	 0.1242127736	 0.369111
C	-1.28149803	 1.943459532	-0.0393382245	-0.30782
C	-1.2589339495	 3.0977760457	-1.0501359658	-0.084157
O	-1.1773439028	 2.7081136459	-2.4114719623	-0.238818
C	-0.0422204812	 1.9771886499	-2.7860513089	 0.013094
O	 1.1616152756	 2.5702688539	-2.3588608407	-0.242913
C	 1.911587382	 1.8388848348	-1.4019140213	-0.086138
C	 1.3366262352	 1.8792513872	 0.029679924	-0.29764
H	-2.0932128087	 1.2417864675	-0.2506113245	 0.132509
H	-1.4874769773	 2.3903808851	 0.944990739	 0.12961
H	-2.1989018564	 3.6509016822	-0.9758292522	 0.117685
H	-0.446238309	 3.795286964	-0.8137918159	 0.108765
H	-0.0950165679	 0.9384016301	-2.4217766979	 0.104753
H	-0.0619947036	 1.9755063624	-3.8806788919	 0.11707
H	 2.0182499503	 0.7899348042	-1.7127971945	 0.119222
H	 2.9066008152	 2.292118869	-1.4003075394	 0.120789
H	 1.249344608	 2.9205908019	 0.3542346539	 0.113249
H	 2.0430521885	 1.3616335238	 0.6854939428	 0.127933
89.7227	140.6217	194.8596	226.5203	261.3685	352.4358	399.5574	453.5116	497.5749	516.9727	568.6016	614.1876	736.2345	833.4918	861.5763	897.759	958.4694	991.5743	1000.8708	1023.7628	1068.5951	1091.214	1136.632	1162.5006	1205.0749	1211.4658	1260.3994	1271.7379	1295.7515	1316.3866	1346.284	1356.7771	1403.5843	1414.3161	1440.2004	1453.1489	1468.0039	1497.3867	1501.0315	1519.6788	1798.6132	2970.2356	3011.0139	3012.7702	3035.3574	3053.9206	3072.1877	3092.7446	3094.3478	3103.2771	3111.3018
O=C1CCOCOCC1	O=C1CCOCOCC1	
InChI=1S/C6H10O3/c7-6-1-3-8-5-9-4-2-6/h1-5H2	InChI=1S/C6H10O3/c7-6-1-3-8-5-9-4-2-6/h1-5H2
