16
gdb 49156	4.01504	1.38038	1.19381	2.5137	76.49	-0.2402	-0.0587	0.1815	1019.6824	0.125588	-400.713241	-400.706501	-400.705557	-400.744513	26.649	
O	-0.0987543732	-0.0698900513	-0.004354613	-0.284764
C	-0.0391754125	 1.1426968397	 0.0021667001	 0.05716
C	 1.1989933593	 1.9039968789	-0.0485626098	 0.222351
C	 1.3304869847	 3.2370017671	 0.0849303901	-0.105908
N	 2.6763703424	 3.6830499546	-0.0175990041	-0.142464
C	 3.6865546098	 2.9544551309	 0.8622486492	-0.034407
C	 3.1934143978	 1.6030934316	 1.374399808	-0.239273
C	 2.6002724702	 1.3330791632	-0.0637308048	-0.177082
C	 3.4558838762	 2.5459673171	-0.5448622853	-0.040443
H	-0.9615382039	 1.7636879161	 0.0443946038	 0.068163
H	 0.5550995213	 3.9739214666	 0.2574095169	 0.130218
H	 4.441466165	 3.5929124702	 1.3030247702	 0.110846
H	 4.0565401904	 0.9598641855	 1.5617684221	 0.121918
H	 2.5052891277	 1.5625798736	 2.223070056	 0.108173
H	 2.7252598695	 0.3408499742	-0.4868933453	 0.101523
H	 4.0435028954	 2.6746563821	-1.4470298443	 0.103988
102.4228	173.4612	243.7786	367.4185	453.9727	500.4695	543.7738	670.4978	693.993	777.4314	794.3586	828.8376	841.8858	884.5042	915.1148	928.4915	951.1356	973.5004	1024.9855	1033.7453	1041.8248	1082.4006	1123.3992	1161.8951	1211.2618	1215.7025	1232.4448	1265.5311	1277.434	1315.8498	1362.5524	1419.6794	1482.5584	1644.949	1770.379	2881.9211	3059.6352	3119.4737	3165.8496	3175.7298	3201.461	3210.909
O=CC1=CN2C3CC1C23	O=CC1=CN2[C@H]3C[C@@H]1[C@@H]23	
InChI=1S/C7H7NO/c9-3-4-2-8-6-1-5(4)7(6)8/h2-3,5-7H,1H2	InChI=1S/C7H7NO/c9-3-4-2-8-6-1-5(4)7(6)8/h2-3,5-7H,1H2/t5-,6-,7+,8?/m0/s1
