16
gdb 18488	4.97536	1.35229	1.20394	5.266	68.3	-0.2473	0.031	0.2783	995.6672	0.131707	-342.748744	-342.741575	-342.740631	-342.780626	26.705	
N	-0.0072750848	-1.2567662607	-0.2412836984	-0.30249
C	-0.0335050218	-0.1079381011	-0.1223366708	 0.270592
C	-0.0665272059	 1.347187639	 0.0153394193	-0.359524
C	 1.3324936176	 1.9633863736	 0.1288343589	 0.069718
C	 1.4668088111	 3.4911162206	 0.379955679	-0.295795
C	 2.2859072266	 3.1108637954	 1.6122416675	-0.002072
C	 1.5011547688	 2.2539793912	 2.5152641011	-0.241865
N	 2.1461928268	 1.6158580627	 1.3501238631	-0.1302
H	-0.56804706	 1.7687816664	-0.8641941778	 0.15614
H	-0.6872648207	 1.6044843418	 0.8798355995	 0.149192
H	 1.9182956091	 1.6534483798	-0.7394408608	 0.110754
H	 2.0332675824	 3.9992136471	-0.4014483786	 0.121199
H	 0.5504632075	 4.0577581044	 0.575007525	 0.106836
H	 3.2388884986	 3.5462748538	 1.8922934732	 0.104702
H	 1.9576766443	 1.9439448589	 3.449554797	 0.132711
H	 0.4194836407	 2.3592625471	 2.5618827826	 0.110103
60.4439	131.1824	221.4752	294.2191	390.2564	397.4183	461.8239	560.1157	710.4877	756.3475	763.9172	826.872	890.219	934.9374	953.6522	975.7415	1027.2117	1058.9574	1083.1905	1099.0613	1109.6245	1131.0132	1175.1772	1222.7266	1242.4768	1271.5196	1288.7963	1321.7072	1366.5401	1395.1455	1460.1385	1488.2459	1505.8572	2365.0226	3044.5949	3050.7984	3074.1726	3091.2357	3110.3652	3124.3839	3173.0919	3202.5441
N#CCC1CC2CN12	N#CC[C@H]1C[C@H]2CN12	
InChI=1S/C6H8N2/c7-2-1-5-3-6-4-8(5)6/h5-6H,1,3-4H2	InChI=1S/C6H8N2/c7-2-1-5-3-6-4-8(5)6/h5-6H,1,3-4H2/t5-,6-,8?/m0/s1
