17
gdb 85372	2.18299	1.74592	1.13196	3.6789	79.38	-0.245	-0.0811	0.1639	1080.6613	0.137024	-421.850621	-421.842496	-421.841552	-421.883887	30.628	
O	 0.4380489712	 1.1772761363	 0.6484444504	-0.423659
C	 0.0443225216	-0.0864947929	 0.1128821866	 0.065118
C	-1.4755765209	-0.2989201524	 0.1520810191	-0.32714
C	-2.338144109	 0.689649095	-0.6185371047	 0.330359
O	-3.2198360524	 1.3123737766	-0.0556969476	-0.31442
C	-2.1555141423	 0.8395217474	-2.0761002076	-0.165593
C	-1.092501934	 0.4870563688	-2.8258556498	-0.066861
C	 0.196261676	-0.0777858314	-2.4464636122	-0.069889
C	 0.7001498132	-0.3191020325	-1.2251399129	-0.108209
H	 0.199435663	 1.8590116157	 0.0101232221	 0.290189
H	 0.4707479972	-0.8118086204	 0.8148187097	 0.104024
H	-1.6864242005	-1.304009869	-0.239972241	 0.122484
H	-1.8114350168	-0.2599051467	 1.1909318525	 0.130598
H	-2.9951501098	 1.3323363285	-2.557981345	 0.113093
H	-1.174320062	 0.6959888533	-3.8907991549	 0.109345
H	 0.8524357938	-0.2754443101	-3.2909092335	 0.101265
H	 1.7288220817	-0.6663798961	-1.169045831	 0.109294
43.3777	105.4339	219.1052	289.175	313.2082	335.2334	415.0257	438.5524	488.7365	497.9145	650.9827	683.579	735.0036	813.9177	851.7112	867.9843	897.0163	904.3264	964.3555	1017.3538	1037.7519	1047.1148	1100.6515	1186.4093	1218.135	1262.4248	1265.803	1296.7301	1330.7655	1395.8172	1414.9119	1429.7598	1449.4247	1459.3601	1648.6274	1698.1704	1754.2058	3020.6837	3047.3188	3110.6664	3137.7237	3151.3184	3169.8399	3179.5496	3801.2755
OC1CC(=O)C=CC=C1	O[C@H]1CC(=O)C=CC=C1	
InChI=1S/C7H8O2/c8-6-3-1-2-4-7(9)5-6/h1-4,6,8H,5H2	InChI=1S/C7H8O2/c8-6-3-1-2-4-7(9)5-6/h1-4,6,8H,5H2/t6-/m1/s1
