13
gdb 25238	3.41385	1.6733	1.13103	5.2573	64.42	-0.2539	-0.0241	0.2298	969.8961	0.092156	-452.797402	-452.790677	-452.789733	-452.829219	24.679	
O	-0.0542314236	-0.0676418248	 0.0218841515	-0.361735
C	 0.0320224099	 1.1363110911	 0.0019214766	 0.349399
N	-1.045759711	 2.0277911625	-0.0185705317	-0.355222
C	-0.711979462	 3.452100045	 0.0222610124	-0.287708
C	 0.7706164627	 3.3229766548	 0.0102977218	 0.314631
C	 1.205532181	 2.0499584529	-0.0061486819	 0.115044
N	 2.5929397908	 2.0332772526	-0.0248012542	-0.3277
C	 2.8963415078	 3.2897534054	-0.019955432	 0.039423
O	 1.8242691614	 4.1627167996	 0.0001036474	-0.194765
H	-1.9863911088	 1.6845915539	 0.0788328522	 0.25973
H	-1.1052343507	 3.9951136879	-0.8474367601	 0.144162
H	-1.093048148	 3.9436636982	 0.9276833987	 0.143125
H	 3.8720605305	 3.7490062509	-0.0282828908	 0.161616
55.9678	186.5995	239.1092	310.0708	380.2805	534.1603	629.4414	635.4709	658.2082	663.6064	782.5189	790.073	826.207	933.715	1016.2994	1040.7557	1046.9314	1091.163	1136.9898	1170.8343	1283.4027	1293.4276	1366.2423	1408.8815	1453.8743	1500.4717	1532.4944	1639.2808	1842.7648	3010.5335	3038.8551	3283.5709	3669.7315
O=C1NCC2=C1N=CO2	O=C1NCc2c1nco2	
InChI=1S/C5H4N2O2/c8-5-4-3(1-6-5)9-2-7-4/h2H,1H2,(H,6,8)	InChI=1S/C5H4N2O2/c8-5-4-3(1-6-5)9-2-7-4/h2H,1H2,(H,6,8)
