16
gdb 125029	2.30051	1.87983	1.04189	4.6309	76.32	-0.2172	-0.0402	0.177	1086.8752	0.126134	-434.120883	-434.11266	-434.111716	-434.153456	31.184	
C	-0.0066372287	 1.5426688944	 0.0348017448	-0.525293
C	-0.0248808725	 0.04188796	 0.0177053261	 0.093689
C	-1.1854938224	-0.6936334119	 0.0513370502	 0.237151
N	-2.4330831173	-0.1128621426	 0.1462487674	-0.589049
C	-1.10623744	-2.1289713521	 0.0383769182	-0.036172
N	 0.0132726254	-2.7850523629	-0.0051339757	-0.19429
N	 1.1260292056	-2.0515768435	-0.0362432424	-0.273763
C	 1.2458525057	-0.6531063102	-0.0276555473	 0.374443
O	 2.3582780415	-0.144465068	-0.0611997154	-0.406507
H	 1.0282484815	 1.886134855	 0.0058468748	 0.167697
H	-0.5330447794	 1.9694976414	-0.8302413122	 0.119164
H	-0.4838075191	 1.9442308296	 0.9376897857	 0.130351
H	-2.5065757891	 0.855021769	-0.1246513738	 0.260922
H	-3.2199705559	-0.6733756632	-0.1410529716	 0.257902
H	-2.0091945448	-2.7311356511	 0.0693998615	 0.113445
H	 1.9922432295	-2.571645594	-0.0688145601	 0.270311
109.6178	137.7822	193.8876	260.9567	286.1789	344.0725	382.7878	473.6535	494.3099	524.9259	527.1808	571.8387	663.5982	683.1072	734.7961	771.635	857.3261	876.3512	944.7527	1054.7808	1059.1279	1146.4734	1178.0662	1227.5945	1295.3588	1357.8394	1395.8878	1437.0071	1451.6932	1492.4997	1496.6589	1593.7469	1647.7124	1670.78	1758.5023	3006.6871	3054.3386	3144.1237	3174.9594	3586.8311	3603.7694	3693.065
CC1=C(N)C=NNC1=O	Cc1c(N)cn[nH]c1=O	
InChI=1S/C5H7N3O/c1-3-4(6)2-7-8-5(3)9/h2H,1H3,(H3,6,8,9)	InChI=1S/C5H7N3O/c1-3-4(6)2-7-8-5(3)9/h2H,1H3,(H3,6,8,9)
