19
gdb 104020	3.19613	1.35272	1.24704	1.4744	70.18	-0.2409	0.0578	0.2987	1068.2347	0.159809	-460.132686	-460.124613	-460.123669	-460.164971	32.16	
O	-0.1359939098	 1.4295474085	 0.0074556793	-0.440912
C	-0.0105860461	 0.0070796901	 0.0200252636	-0.156734
C	-1.4299519971	-0.541671193	-0.0236083628	 0.450729
O	-2.1640904714	-0.0391800964	 1.0779321199	-0.50576
C	-2.1460949804	-0.3382855043	-1.4085871654	-0.280489
C	-2.3797426383	-1.8268826135	-1.7225992584	 0.074895
C	-2.9301759963	-2.4094190723	-0.4014630317	-0.236617
C	-1.4744393965	-2.0885542628	-0.0151365147	 0.027578
O	-1.0712456935	-2.4065858572	-1.382566606	-0.307062
H	 0.7258414145	 1.8160549239	 0.1846324342	 0.294694
H	 0.5623592792	-0.3614661469	-0.8392051195	 0.110672
H	 0.4782789094	-0.3317555399	 0.9458182241	 0.090469
H	-1.9173399922	 0.891801825	 1.1515910822	 0.286828
H	-3.0689171627	 0.2345518691	-1.2935325712	 0.104086
H	-1.5119579296	 0.1433345614	-2.1551185053	 0.10904
H	-2.7511009138	-2.1139934476	-2.7062156346	 0.07786
H	-3.7384651939	-1.8925500007	 0.1173234533	 0.116873
H	-3.1008847943	-3.4840949228	-0.4680135074	 0.107639
H	-0.9165673773	-2.6150312206	 0.7596362402	 0.076209
112.1779	157.7972	202.9876	265.197	314.6146	377.7524	417.2442	441.0988	465.3913	512.1349	570.9183	668.7547	777.463	830.3724	846.0282	880.661	902.9501	934.2015	945.3907	976.7045	1013.6578	1029.8694	1045.0087	1060.7841	1107.9592	1117.4197	1149.2202	1199.6745	1207.4061	1228.702	1243.9099	1260.5866	1272.5162	1274.493	1314.4072	1331.8767	1413.5308	1448.3635	1472.2925	1490.2854	1517.1228	2989.5727	3055.9059	3073.6324	3085.5523	3119.7794	3124.3129	3128.9217	3157.5174	3771.3793	3842.3386
OCC1(O)CC2CC1O2	OC[C@@]1(O)C[C@@H]2C[C@H]1O2	
InChI=1S/C6H10O3/c7-3-6(8)2-4-1-5(6)9-4/h4-5,7-8H,1-3H2	InChI=1S/C6H10O3/c7-3-6(8)2-4-1-5(6)9-4/h4-5,7-8H,1-3H2/t4-,5+,6-/m0/s1
