19
gdb 98869	4.17214	1.02858	0.84269	3.0903	81.96	-0.1989	0.0148	0.2137	1377.1497	0.160338	-419.254477	-419.245129	-419.244184	-419.289532	33.016	
C	 0.0707947239	 1.4767115495	 0.0352012571	-0.315205
N	 0.002030243	 0.0246209361	 0.0005591024	-0.368196
C	 0.5525251645	-0.6338374973	-1.0849842885	 0.489107
O	 0.9671281658	-0.0560339173	-2.0768791715	-0.416465
N	 0.5881281213	-2.0097934048	-0.9847983688	-0.143014
C	 1.1746769679	-2.8215409225	-2.0670666197	-0.15107
C	 1.0451328249	-4.2808057502	-1.5519995232	-0.280812
C	 0.0978441277	-4.145144552	-0.3777412681	-0.162355
C	-0.0985262483	-2.8543059524	-0.1043697147	 0.002369
H	 1.0674534678	 1.8534926558	 0.3015418358	 0.121073
H	-0.1768788388	 1.8591810564	-0.9550237855	 0.161102
H	-0.656156187	 1.8532431466	 0.759552129	 0.117435
H	 0.0719286355	-0.4384251263	 0.8927058103	 0.240348
H	 0.6092382174	-2.6599568528	-2.9910183752	 0.125682
H	 2.2038793706	-2.5114984631	-2.254715648	 0.129018
H	 0.6655596101	-4.9491090912	-2.3313354093	 0.11494
H	 2.0156547398	-4.6871464401	-1.2373783678	 0.113147
H	-0.3254474739	-4.9726012849	 0.1719958823	 0.101063
H	-0.7221613623	-2.4244599596	 0.6663656336	 0.121833
64.4108	79.5076	100.5236	129.5657	155.853	195.1822	304.5423	380.1666	461.4087	493.9121	539.0933	709.7953	721.1731	759.3308	803.3125	843.015	885.3767	915.9273	933.3551	976.1847	1032.2921	1068.733	1125.7289	1150.0588	1167.4957	1193.1861	1200.1343	1228.7685	1266.158	1310.0792	1326.5338	1369.3499	1426.0123	1445.3336	1485.2915	1494.1333	1505.7731	1520.485	1547.1199	1681.9439	1765.3494	3014.0701	3014.7824	3045.7901	3068.4837	3093.7941	3112.9972	3155.2299	3231.3824	3255.0207	3626.8949
CNC(=O)N1CCC=C1	CNC(=O)N1CCC=C1	
InChI=1S/C6H10N2O/c1-7-6(9)8-4-2-3-5-8/h2,4H,3,5H2,1H3,(H,7,9)	InChI=1S/C6H10N2O/c1-7-6(9)8-4-2-3-5-8/h2,4H,3,5H2,1H3,(H,7,9)
