20
gdb 96276	2.08788	1.86131	1.15257	3.7899	76.14	-0.2528	0.0405	0.2934	1117.0071	0.172278	-440.305645	-440.297092	-440.296148	-440.33899	32.69	
C	 0.3698303429	 1.3682890656	 0.4333242915	-0.386098
C	-0.1806960141	 0.0752338055	-0.1576573718	 0.118947
C	 0.7904154898	-0.5933216751	-1.1325579062	-0.214635
C	 0.3182200389	-1.9523386253	-1.6739601654	-0.226512
C	-0.1659170665	-2.9012444582	-0.5652303591	-0.069066
O	 0.6049692616	-2.7638897248	 0.6382477639	-0.254166
C	 0.3759066394	-1.6620416406	 1.4063790893	 0.438655
N	 0.9474666651	-1.4578378926	 2.5136830589	-0.543512
O	-0.56503786	-0.8161415794	 0.9269787127	-0.251995
H	 1.2798553179	 1.1686257828	 1.0063490748	 0.143097
H	 0.6026494536	 2.0845474012	-0.3614710564	 0.110915
H	-0.3631816942	 1.8185056604	 1.1066829339	 0.131752
H	-1.1312012153	 0.2729193705	-0.6660495525	 0.090565
H	 0.9646044819	 0.0952427767	-1.9660636759	 0.106267
H	 1.7584432571	-0.7175756874	-0.6330058367	 0.125181
H	-0.5006260063	-1.8181495292	-2.3909133343	 0.106194
H	 1.1459042345	-2.4114222286	-2.2245511556	 0.11
H	-1.2206750851	-2.7304295303	-0.3375106812	 0.125993
H	-0.0396632191	-3.9457051156	-0.8584340429	 0.114932
H	 1.5532777876	-2.2484771057	 2.7341387429	 0.223484
69.8589	96.9759	207.4905	224.7171	274.1308	291.442	382.2002	390.9133	483.6368	505.9047	597.0585	644.1021	730.7635	783.3401	830.5904	855.6096	873.9778	888.6499	939.6955	966.1843	1022.62	1039.4049	1064.7822	1086.9006	1117.4934	1147.5922	1165.4421	1246.4627	1263.5004	1294.2167	1315.2118	1338.8217	1377.3404	1396.5921	1399.2649	1411.3243	1429.117	1478.3618	1486.5581	1492.609	1496.0111	1504.3362	1752.1849	3035.4376	3037.0853	3042.9737	3047.4093	3067.9248	3075.3631	3086.8498	3117.3213	3121.5398	3131.1534	3494.7852
CC1CCCOC(=N)O1	C[C@H]1CCCO[C]([NH])O1	
InChI=1S/C6H11NO2/c1-5-3-2-4-8-6(7)9-5/h5,7H,2-4H2,1H3	InChI=1S/C6H11NO2/c1-5-3-2-4-8-6(7)9-5/h5,7H,2-4H2,1H3/t5-/m0/s1
