15
gdb 18000	4.3863	1.63897	1.4053	4.2463	61.14	-0.239	-0.0288	0.2102	878.3588	0.118862	-399.745728	-399.738756	-399.737812	-399.777628	25.427	
O	-0.7038936383	 0.7043416302	 0.4130402143	-0.249405
C	 0.3008506083	 0.7156810006	-0.2502000922	 0.174254
C	 1.4240197376	 1.7144931638	-0.0545129384	-0.091119
N	 2.7534089667	 1.2675505692	-0.5500817688	-0.336028
C	 2.9344372355	 2.5034297555	-1.3511174677	-0.052326
C	 2.4550292986	 2.3145461399	-2.7998635624	-0.061964
O	 1.0774251364	 2.5667138155	-2.4032723332	-0.291327
C	 1.468804838	 2.9046101422	-1.0633167805	 0.093862
H	 0.4796350455	-0.0057673538	-1.0751255876	 0.089142
H	 1.4059826427	 2.0773610901	 0.9802548452	 0.092634
H	 3.4423042829	 1.1315288153	 0.1788411266	 0.230253
H	 3.8195673054	 3.1071266385	-1.1495426539	 0.086158
H	 2.8010451553	 3.0758576453	-3.5099294784	 0.104497
H	 2.5960227469	 1.3119766199	-3.2146915168	 0.116389
H	 1.0832510787	 3.8711252178	-0.734920966	 0.094981
60.1294	106.5553	207.0422	291.7075	408.5057	467.9364	494.3967	633.9342	756.2385	792.3982	809.9139	911.8944	947.1026	961.6877	993.1315	1023.4754	1039.4554	1054.8479	1086.0399	1113.3923	1156.0523	1182.3307	1197.9874	1242.7593	1264.596	1297.6748	1348.6485	1352.335	1394.2936	1406.8795	1505.3697	1828.5733	2915.9601	3022.725	3037.8905	3091.4894	3096.6257	3111.5324	3561.0096
O=CC1NC2COC12	O=C[C@H]1N[C@H]2CO[C@@H]12	
InChI=1S/C5H7NO2/c7-1-3-5-4(6-3)2-8-5/h1,3-6H,2H2	InChI=1S/C5H7NO2/c7-1-3-5-4(6-3)2-8-5/h1,3-6H,2H2/t3-,4+,5+/m1/s1
