19
gdb 66232	4.47418	0.6711	0.65365	5.3167	77.56	-0.2451	0.0248	0.2699	1726.9097	0.158219	-419.186267	-419.176623	-419.175679	-419.221632	34.972	
O	-0.0737134668	 1.4069019826	 0.0102422092	-0.463846
C	-0.0008715287	 0.0002424655	 0.0172442449	 0.396738
C	 1.0987706809	-0.5403547715	-0.8680435222	-0.194476
N	 2.388447935	-0.0171261209	-0.429863982	-0.295021
C	 3.4543838686	-0.2693179135	-1.3864951539	-0.258009
C	 4.72094406	 0.3178332338	-0.9395059125	 0.258495
N	 5.7170067107	 0.7961994498	-0.603672735	-0.298288
C	-0.2848125175	-0.6288917871	 1.3436876266	-0.279058
C	-1.2780342338	-0.7748241559	 0.2052123557	-0.33408
H	-0.4688641134	 1.6797818534	-0.8260959539	 0.284068
H	 1.1163113181	-1.6361923854	-0.8158872517	 0.106938
H	 0.8723424349	-0.2783486897	-1.9225238481	 0.070868
H	 2.2894740439	 0.9803786227	-0.2666554149	 0.239614
H	 3.5968783353	-1.3534366533	-1.4851566709	 0.153491
H	 3.2478858598	 0.1075700773	-2.4068114069	 0.126563
H	 0.3031222883	-1.4903455508	 1.6382666291	 0.123945
H	-0.5495003691	 0.0445462211	 2.1498993635	 0.129208
H	-2.1928805895	-0.196474647	 0.2707505586	 0.118401
H	-1.3817614667	-1.7406401412	-0.2780727958	 0.114449
46.509	88.3058	97.6035	149.3283	214.6528	278.4608	325.4181	363.5438	378.6551	394.0888	430.6472	487.5838	590.4956	751.8022	775.8513	802.9668	902.3103	915.6932	934.6166	958.5946	978.27	995.3478	1044.3484	1052.1763	1079.3195	1109.7778	1152.7548	1186.755	1206.3534	1269.2298	1276.2534	1300.1105	1350.5203	1388.5432	1419.239	1454.7998	1489.6126	1497.9778	1502.7341	1511.1678	2369.2887	2885.3539	2920.0936	3038.4504	3040.7606	3131.6364	3146.6001	3218.6658	3239.2799	3523.8427	3783.8808
OC1(CNCC#N)CC1	OC1(CNCC#N)CC1	
InChI=1S/C6H10N2O/c7-3-4-8-5-6(9)1-2-6/h8-9H,1-2,4-5H2	InChI=1S/C6H10N2O/c7-3-4-8-5-6(9)1-2-6/h8-9H,1-2,4-5H2
