12
gdb 128004	4.00051	1.24698	0.97476	2.3843	63.91	-0.2867	-0.1251	0.1616	1121.3731	0.074086	-505.898475	-505.890217	-505.889273	-505.932425	27.96	
C	 0.0428217534	 1.4692945382	 0.2699122893	-0.33503
N	 0.0165612489	 0.031917941	 0.0622284089	-0.28934
C	-1.0554251402	-0.5680288853	-0.1319978081	 0.507952
O	-2.3041600675	-0.050597768	-0.1204381109	-0.284692
N	-3.3082163924	-0.67418358	-1.0640512468	 0.075254
N	-3.1297395961	-1.830401782	-1.3627120213	-0.10726
C	-2.0487655318	-2.6314745417	-0.790178495	 0.498372
O	-2.1185085543	-3.8147686634	-0.7947740592	-0.277585
O	-0.9988591733	-1.9461946788	-0.3178984577	-0.213388
H	 0.8636272695	 1.8878205555	-0.3190167113	 0.143867
H	-0.8907434727	 1.9752792386	 0.0029433114	 0.135553
H	 0.2642897465	 1.6732879359	 1.3231226408	 0.146296
67.3334	72.3269	99.354	185.9968	250.8789	345.7983	386.0932	417.2369	517.2066	547.2546	634.1295	685.9696	769.7729	806.7777	902.4731	937.9334	1068.6632	1136.0782	1136.5582	1186.947	1257.9527	1443.552	1491.2089	1500.1741	1706.9922	1817.879	1911.2116	3029.8736	3095.8767	3110.5881
CN=C1ON=NC(=O)O1	CN=c1onnc(=O)o1	
InChI=1S/C3H3N3O3/c1-4-3-8-2(7)5-6-9-3/h1H3	InChI=1S/C3H3N3O3/c1-4-3-8-2(7)5-6-9-3/h1H3
