15
gdb 13575	4.14749	1.30064	1.22619	3.9644	70.68	-0.2559	-0.0616	0.1942	1029.8841	0.116874	-362.612324	-362.604061	-362.603116	-362.645359	29.688	
C	 0.0681382048	 1.5128377702	-0.5707341933	-0.404635
C	-0.0397394233	 0.0966648459	-0.0654743642	 0.01103
N	 1.1935020975	-0.6665058935	 0.0610962276	-0.310777
C	 0.4547907059	-0.3431345773	 1.2938769038	-0.158336
C	 1.0946208162	 0.6195061017	 2.2471007899	 0.283351
O	 1.9491346395	 1.4220962482	 1.9378297194	-0.296587
C	 0.5760607773	 0.5467428527	 3.6060249255	 0.242548
C	 0.1478874293	 0.4716104211	 4.7288244353	-0.41764
H	 0.9632229645	 1.9942863679	-0.1754476893	 0.166606
H	 0.126908246	 1.5114070585	-1.6643534618	 0.122145
H	-0.81200978	 2.095964982	-0.2802108558	 0.116822
H	-0.9273310501	-0.4430484605	-0.3966513261	 0.093276
H	 1.0500233405	-1.6461687288	-0.1692420968	 0.239376
H	-0.1191694547	-1.1298697861	 1.7772068893	 0.097557
H	-0.2192540435	 0.422955098	 5.7252864666	 0.215263
49.278	140.7075	171.4262	218.6235	239.4184	275.7058	366.0993	440.7972	483.3173	602.5114	648.0282	700.1212	722.5474	797.1667	825.1748	863.7817	934.665	996.8557	1019.8247	1078.7355	1104.387	1150.0513	1191.5878	1236.3174	1256.3448	1396.921	1426.8338	1458.8641	1494.4766	1500.7986	1762.3313	2209.3632	3039.9959	3099.9544	3101.3909	3141.3979	3154.2534	3494.2901	3507.3101
CC1NC1C(=O)C#C	C[C@H]1N[C@H]1C(=O)C#C	
InChI=1S/C6H7NO/c1-3-5(8)6-4(2)7-6/h1,4,6-7H,2H3	InChI=1S/C6H7NO/c1-3-5(8)6-4(2)7-6/h1,4,6-7H,2H3/t4-,6-/m1/s1
