20
gdb 106040	2.5997	1.54872	1.23592	2.4305	78.5	-0.2181	0.0654	0.2835	1090.1115	0.17099	-403.064469	-403.055928	-403.054984	-403.097625	32.786	
C	-0.1162182944	 1.5737619972	-0.1364366798	-0.421208
C	 0.0734879217	 0.0746281902	 0.0095165912	 0.016425
N	 1.1185757729	-0.6342256744	-0.8543448072	-0.190437
C	 2.4143571357	 0.0344545332	-0.4309415605	-0.184432
C	 2.2387777672	-0.5666455342	 0.9509946636	-0.125667
C	 1.3263245579	-1.5917573791	 0.3433587741	-0.101209
C	 0.717777226	-0.5537636992	 1.2380051413	 0.356443
C	 0.1689458238	-0.7047912515	 2.6174983888	-0.225289
O	 0.2303906177	 0.5628260954	 3.2643947392	-0.418867
H	 0.7456887441	 2.1457018537	 0.2136893218	 0.124873
H	-0.3091790896	 1.832973332	-1.1833879754	 0.120723
H	-0.9779845384	 1.892595762	 0.4583584933	 0.121961
H	-0.8740894792	-0.4346411657	-0.2039910937	 0.072754
H	 3.2375181789	-0.4288096208	-0.9818283118	 0.10706
H	 2.4533398443	 1.118892276	-0.5676833899	 0.09934
H	 2.9506934941	-0.6914550502	 1.7577743981	 0.090049
H	 1.2992266758	-2.6716863931	 0.3037356187	 0.096148
H	-0.870451972	-1.0675332218	 2.562464946	 0.088726
H	 0.7479053771	-1.4647615532	 3.1685327026	 0.085901
H	-0.2231283936	 0.4881317834	 4.1095653495	 0.286707
74.7756	129.6944	164.5653	223.9862	252.8078	291.518	335.0237	394.2124	491.6443	572.2734	662.2599	694.7251	779.5008	794.624	840.3476	843.8444	897.921	917.2585	960.2375	977.6992	1004.8033	1034.0248	1056.7283	1092.1539	1098.3303	1119.1056	1133.7089	1140.7873	1175.012	1211.1794	1226.3431	1250.1083	1267.9247	1290.1752	1330.777	1380.7316	1403.6253	1422.1957	1479.156	1484.9971	1495.0723	1513.151	1528.885	2956.0378	2982.519	3028.8118	3038.7699	3053.1413	3100.2746	3104.5204	3127.3826	3188.3595	3214.91	3823.2103
CC1N2CC3C2C13CO	C[C@H]1N2C[C@@H]3[C@H]2[C@]13CO	
InChI=1S/C7H11NO/c1-4-7(3-9)5-2-8(4)6(5)7/h4-6,9H,2-3H2,1H3	InChI=1S/C7H11NO/c1-4-7(3-9)5-2-8(4)6(5)7/h4-6,9H,2-3H2,1H3/t4-,5-,6+,7-/m1/s1
