23
gdb 118509	1.9214	1.17952	0.81253	1.9142	83.71	-0.2461	0.0766	0.3227	1521.8563	0.203123	-425.385593	-425.374738	-425.373793	-425.422982	37.996	
C	 0.3294433678	 1.485820893	-0.7597020424	-0.221674
O	 0.3091838946	 0.1277268077	-0.3963001558	-0.226954
C	 0.7145435303	-0.7265409007	-1.439469398	-0.084668
C	 0.6038908954	-2.1829568649	-0.9743464898	 0.095236
O	 1.4008732021	-2.4680969367	 0.1632951378	-0.239661
C	 2.7896658872	-2.3534033825	-0.0293796779	-0.234665
C	-0.817871779	-2.5484820602	-0.6206130995	 0.033949
C	-1.7539850532	-3.0436854913	-1.6947385951	-0.275398
C	-1.2434557878	-3.9897739391	-0.6358964114	-0.270586
H	 1.3392116879	 1.8168763485	-1.0517959063	 0.101102
H	-0.3533182125	 1.6960712248	-1.5987413549	 0.102397
H	 0.0080997461	 2.0632454985	 0.1106695266	 0.127518
H	 0.0740931715	-0.5984023235	-2.3288654703	 0.088922
H	 1.7462255637	-0.49132956	-1.750681588	 0.081416
H	 0.9374558197	-2.8097882186	-1.8231350094	 0.051162
H	 3.1285575275	-2.9137399885	-0.9162507781	 0.095854
H	 3.1205854267	-1.3100045109	-0.1328611131	 0.109388
H	 3.2705495237	-2.7785895694	 0.8555755069	 0.125676
H	-1.2448631829	-1.9134293337	 0.1474834712	 0.102682
H	-2.7907857591	-2.7288502146	-1.655201795	 0.110599
H	-1.3655247543	-3.154995468	-2.7024136101	 0.105476
H	-0.5056446415	-4.7292297857	-0.9293184192	 0.110914
H	-1.9312384442	-4.3301366842	 0.1298973616	 0.111314
33.8944	62.796	84.4315	112.5855	151.9752	179.6838	224.1734	239.4244	297.8011	320.3852	352.1785	448.4977	462.496	687.2348	766.9683	832.4984	839.0383	872.9235	942.0648	954.5527	972.8239	1054.7041	1061.1952	1071.291	1077.8837	1136.004	1145.0168	1168.3579	1178.2174	1180.2182	1196.7116	1198.6005	1221.5694	1228.3316	1242.2599	1271.3576	1312.7651	1368.2808	1408.6399	1435.7795	1472.1704	1475.56	1478.476	1485.2415	1491.9942	1500.2619	1507.7053	1510.706	1526.5891	2922.9948	2954.0686	2967.0942	2971.4463	2981.838	3007.8481	3024.6583	3105.787	3112.571	3127.588	3135.3641	3176.3897	3206.1392	3222.7967
COCC(OC)C1CC1	COC[C@@H](OC)C1CC1	
InChI=1S/C7H14O2/c1-8-5-7(9-2)6-3-4-6/h6-7H,3-5H2,1-2H3	InChI=1S/C7H14O2/c1-8-5-7(9-2)6-3-4-6/h6-7H,3-5H2,1-2H3/t7-/m1/s1
