18
gdb 125216	2.98383	1.38694	0.95804	2.6971	86.07	-0.2025	-0.0429	0.1596	1218.9281	0.148735	-398.158735	-398.15021	-398.149266	-398.191585	32.584	
C	-0.0351351165	 1.5311720271	-0.0147132411	-0.498071
C	-0.0060014009	 0.0271126392	-0.0370392581	 0.259576
C	-0.0199936566	-0.6682049078	-1.1975675721	-0.192747
C	 0.0080023948	-2.1180606684	-1.2281493191	 0.381875
N	-0.0052822937	-2.7838536007	-2.3278230803	-0.565696
N	 0.0497502718	-2.6673866202	 0.0569425882	-0.313208
N	 0.0649610451	-2.0178674777	 1.23531131	-0.251471
C	 0.0386469686	-0.71837255	 1.2130547395	 0.274285
C	 0.0566005699	-0.0225674125	 2.5460581138	-0.478315
H	 0.8492268404	 1.9404109699	 0.4869705865	 0.137883
H	-0.0686756978	 1.9355907685	-1.0286312158	 0.133671
H	-0.9084275805	 1.9058070008	 0.5313820484	 0.137843
H	-0.0528897457	-0.1762029236	-2.1629875829	 0.118496
H	 0.0186862126	-3.7910659822	-2.1576118044	 0.192729
H	 0.0717884539	-3.6720126393	 0.1508587124	 0.259775
H	 0.0910778856	-0.7663296908	 3.3432057806	 0.143239
H	 0.9264254559	 0.6373375547	 2.6448084466	 0.130055
H	-0.8337654468	 0.601237023	 2.6873449978	 0.130081
98.156	155.305	196.9854	216.4431	290.9116	317.1888	329.3194	405.4794	466.3023	503.8477	554.3742	572.2491	646.2945	719.0425	738.2542	769.7788	787.6496	927.7652	934.3263	1016.8889	1026.4986	1052.6041	1074.4043	1134.0069	1153.4165	1237.7744	1248.0823	1354.6032	1408.2064	1411.537	1423.0359	1451.2054	1474.2855	1477.315	1490.621	1492.2391	1590.9396	1664.8611	1717.7534	3028.4901	3032.6293	3077.5012	3083.6462	3125.3107	3144.0188	3202.5002	3450.1904	3612.7259
CC1=CC(=N)NN=C1C	C[C@H]1C=C([NH])NN=C1C	
InChI=1S/C6H9N3/c1-4-3-6(7)9-8-5(4)2/h3H,1-2H3,(H2,7,9)	InChI=1S/C6H10N3/c1-4-3-6(7)9-8-5(4)2/h3-4,7,9H,1-2H3/t4-/m0/s1
