20
gdb 124457	3.13149	1.2935	1.14857	3.403	79.65	-0.258	0.0145	0.2725	1159.7387	0.171726	-399.368329	-399.359461	-399.358517	-399.401764	33.693	
C	-0.2493755666	 1.5061506819	-0.1685350237	-0.394206
C	 0.0064036437	 0.000362459	 0.0099649229	 0.243107
C	 0.8638988176	-0.2517090596	 1.2556659503	-0.42462
C	-1.3228698625	-0.7661754545	 0.1106165614	-0.394208
N	 0.7305531865	-0.4885752055	-1.1853143878	 0.04036
C	 1.940175363	-1.0757981318	-1.3154938021	 0.016644
N	 2.195781377	-1.3522928306	-2.5833658557	-0.291069
C	 1.077028675	-0.9007246031	-3.2077440079	 0.036089
N	 0.1625519533	-0.3709813663	-2.4117097707	-0.252254
H	 0.6947408759	 2.0554696222	-0.2323811263	 0.120444
H	-0.8169237625	 1.688684407	-1.0827840247	 0.148611
H	-0.8166054111	 1.8922905052	 0.6834265279	 0.116449
H	 0.3246477701	 0.110968864	 2.1343987325	 0.127799
H	 1.0624259139	-1.317566137	 1.402550432	 0.127641
H	 1.8178975861	 0.2816503275	 1.2061284957	 0.127639
H	-1.9108089972	-0.6268180377	-0.7983310414	 0.148614
H	-1.1442156382	-1.8371484422	 0.2458295879	 0.120444
H	-1.9004023413	-0.401840869	 0.965255708	 0.116448
H	 2.5930173559	-1.2818838544	-0.4835907859	 0.141387
H	 0.9292644715	-0.9621606451	-4.2758121724	 0.124683
55.6184	140.6443	222.2233	229.1507	273.147	301.7571	335.016	339.4324	349.624	451.7465	481.9976	594.5614	681.7283	704.7078	823.6369	857.7927	907.937	927.9208	937.1944	966.6561	976.4471	1023.4838	1049.7641	1053.2441	1156.5268	1204.7383	1228.238	1247.3846	1251.6548	1299.4233	1320.3485	1378.6466	1396.2729	1398.4671	1429.0295	1442.8066	1471.8244	1489.1947	1490.0789	1497.9265	1502.3711	1523.6806	1543.9365	3040.3583	3043.2983	3049.2941	3111.3576	3115.5327	3115.6906	3123.9901	3139.3185	3143.517	3256.9483	3281.5662
CC(C)(C)N1C=NC=N1	CC(C)(C)n1cncn1	
InChI=1S/C6H11N3/c1-6(2,3)9-5-7-4-8-9/h4-5H,1-3H3	InChI=1S/C6H11N3/c1-6(2,3)9-5-7-4-8-9/h4-5H,1-3H3
