18
gdb 97570	2.87881	0.78321	0.68268	4.4783	77.79	-0.2462	0.0135	0.2597	1691.9245	0.145473	-439.094334	-439.083897	-439.082952	-439.131921	36.608	
C	 0.1801579313	 1.3057738614	 0.6341629656	-0.365084
C	-0.2249823369	 0.3556816513	-0.507346554	-0.317133
C	-1.4540878745	-0.3831132085	-0.236362448	 0.056601
C	-2.4562260902	-1.0038106413	 0.0155294281	 0.064996
C	-3.6842681011	-1.7521482273	 0.291922349	-0.1205
O	-3.4431814342	-2.9415025491	 0.9956633026	-0.419551
C	-4.7127274465	-0.9071895937	 1.0941045565	 0.393479
N	-4.9120777917	 0.3575211889	 0.660970157	-0.516038
O	-5.3190877748	-1.4288499923	 2.0125918335	-0.37435
H	 1.108414154	 1.8273459721	 0.3834305141	 0.118234
H	-0.5965962123	 2.0542995899	 0.8140376015	 0.121646
H	 0.3351298959	 0.751237121	 1.5632683812	 0.135964
H	-0.3407299296	 0.9242163563	-1.4390505377	 0.12973
H	 0.5846127975	-0.3613250669	-0.6937406637	 0.139994
H	-4.1750366085	-1.9749118651	-0.6733662105	 0.118197
H	-4.1078710176	-2.9327962875	 1.7075049388	 0.296039
H	-4.2335648033	 0.7837400513	 0.0509865765	 0.268872
H	-5.5263626975	 0.9521318194	 1.1938659695	 0.268905
17.4879	48.7693	74.7274	113.3137	198.166	236.4575	302.4319	345.1891	366.2914	386.7247	427.0305	463.6142	511.5203	548.4567	565.5374	627.265	690.4208	783.3533	811.8201	874.2676	965.6942	1077.8701	1102.1758	1104.3568	1114.6755	1172.672	1243.6593	1286.17	1334.1618	1349.9702	1367.594	1409.7013	1451.0119	1471.9428	1494.6714	1504.6789	1615.235	1799.6437	2357.5944	2933.3616	3022.8616	3045.4769	3050.9847	3118.3324	3125.8081	3589.1978	3633.9431	3719.0007
CCC#CC(O)C(N)=O	CCC#C[C@@H](O)C(=O)N	
InChI=1S/C6H9NO2/c1-2-3-4-5(8)6(7)9/h5,8H,2H2,1H3,(H2,7,9)	InChI=1S/C6H9NO2/c1-2-3-4-5(8)6(7)9/h5,8H,2H2,1H3,(H2,7,9)/t5-/m1/s1
