21
gdb 64436	2.50299	1.44602	1.16659	0.2795	79.8	-0.2427	0.0157	0.2584	1148.2449	0.182207	-424.226157	-424.217062	-424.216118	-424.25965	35.286	
C	-0.2506322725	 1.585121658	-0.1844786924	-0.420263
C	-0.0511382389	 0.0812413062	 0.0200133047	 0.310444
O	-1.3150251676	-0.5950888358	 0.0596440995	-0.460872
C	 0.7559006359	-0.5279923796	-1.1440185958	-0.107059
O	 1.9452482039	 0.1697560963	-1.4439707131	-0.232931
C	 3.0755310007	-0.189580905	-0.6776353958	-0.129504
C	 3.0441855563	 0.1568392393	 0.7914058076	-0.060791
C	 2.0092381695	 0.1521846809	 1.6321147168	-0.065917
C	 0.571972814	-0.2304212579	 1.3889244699	-0.262538
H	 0.7054927359	 2.1113329759	-0.1763150537	 0.138108
H	-0.7276334488	 1.7836943005	-1.1522717052	 0.100976
H	-0.8912659548	 1.9888083119	 0.6050113126	 0.115543
H	-1.8367875882	-0.2860593699	-0.6887677801	 0.276824
H	 0.9556720977	-1.5910821308	-0.9368264384	 0.091212
H	 0.1385858317	-0.4779610268	-2.0500447908	 0.087831
H	 3.2738825213	-1.2723780376	-0.7891084625	 0.099831
H	 3.9162669542	 0.3306119899	-1.1486245939	 0.112885
H	 4.0221875817	 0.404275284	 1.2011341494	 0.088132
H	 2.2254239812	 0.4090212419	 2.6674303184	 0.089388
H	-0.0593590369	 0.2380829791	 2.1516843781	 0.107017
H	 0.4623698538	-1.3129666207	 1.5500117146	 0.121683
66.0555	122.5152	212.3864	266.4788	284.7891	297.8949	316.8701	376.7739	409.4333	423.3893	449.8969	454.864	570.8258	670.495	748.5486	805.3392	852.4696	912.12	930.4783	943.9964	983.3831	1001.2346	1006.9921	1040.5852	1053.432	1128.3296	1131.6558	1166.0734	1189.5324	1262.2007	1273.988	1305.0451	1320.4637	1358.7034	1378.1622	1400.3304	1407.4523	1419.5704	1429.5322	1471.6673	1477.3374	1483.2799	1494.8346	1501.1778	1733.4627	2928.4568	2982.7081	3006.6805	3029.0555	3045.3502	3062.7862	3065.6561	3098.1454	3127.6915	3140.3409	3151.779	3806.8336
CC1(O)COCC=CC1	C[C@@]1(O)COCC=CC1	
InChI=1S/C7H12O2/c1-7(8)4-2-3-5-9-6-7/h2-3,8H,4-6H2,1H3	InChI=1S/C7H12O2/c1-7(8)4-2-3-5-9-6-7/h2-3,8H,4-6H2,1H3/t7-/m0/s1
