19
gdb 11304	5.38499	1.22411	1.04193	4.3265	73.29	-0.2353	0.0306	0.2658	1139.3589	0.166887	-365.109258	-365.101093	-365.100149	-365.142257	29.733	
C	-0.1595096472	 1.5227350424	 0.0088930339	-0.409154
C	 0.1247112309	 0.0242467111	 0.0451611203	 0.02944
C	 0.8816310818	-0.524339222	-1.180907875	-0.232754
C	 1.4351725226	-1.8763321249	-0.7054364204	-0.158562
N	 1.5708783518	-1.6973789565	 0.7443790999	-0.038007
C	 1.0315911525	-0.4207654326	 1.2061628936	-0.172761
C	 2.079803039	-2.6676860979	 1.5381549623	 0.135321
O	 2.4984622208	-3.7372451163	 1.1391767784	-0.343592
H	 0.7700721696	 2.0962273328	-0.0818697648	 0.118586
H	-0.7957538152	 1.781225373	-0.8433490901	 0.121194
H	-0.6715810051	 1.8560327679	 0.9176343505	 0.118942
H	-0.8242259527	-0.5210062546	 0.1340040529	 0.085714
H	 0.247908954	-0.620060485	-2.0658115697	 0.108163
H	 1.704872957	 0.1540238436	-1.435787351	 0.106221
H	 0.7471583938	-2.7041143402	-0.9155039955	 0.120166
H	 2.3976529928	-2.1370285689	-1.1544334399	 0.126527
H	 1.8309398742	 0.3190111005	 1.3665548481	 0.103801
H	 0.4915483793	-0.5382183747	 2.1506425148	 0.116586
H	 2.0736396801	-2.3811006776	 2.6097742917	 0.064169
46.6433	155.444	190.4156	201.585	234.462	310.9438	333.8025	415.6324	476.0339	571.473	742.1986	807.3129	853.7713	879.8406	934.1707	953.7437	971.7326	1007.1716	1035.0536	1095.011	1154.3186	1156.6092	1181.6281	1216.7007	1238.39	1266.6295	1307.7244	1322.4329	1351.0968	1364.6884	1390.5058	1407.1327	1417.0837	1448.2598	1494.338	1497.7294	1499.7983	1516.9144	1526.9685	1788.14	2921.744	2982.9654	3018.4299	3029.6674	3033.5258	3040.4909	3074.5642	3084.0706	3096.7012	3103.041	3106.1924
CC1CCN(C1)C=O	C[C@H]1CCN(C1)C=O	
InChI=1S/C6H11NO/c1-6-2-3-7(4-6)5-8/h5-6H,2-4H2,1H3	InChI=1S/C6H11NO/c1-6-2-3-7(4-6)5-8/h5-6H,2-4H2,1H3/t6-/m0/s1
