20
gdb 80718	3.31623	1.00538	0.92395	4.3174	83.08	-0.2657	0.0376	0.3033	1333.068	0.17159	-366.000798	-365.99205	-365.991106	-366.034585	33.115	
C	 0.3719039451	 1.7063783385	-0.613303372	-0.426224
C	 0.4241368928	 0.2103049848	-0.3722588381	 0.016031
C	 1.646107967	-0.6564660366	-0.4669051013	-0.069809
C	 2.8760982935	 0.0206207521	 0.1579847771	-0.263309
C	 2.1376037125	 0.0389329988	 1.5366482251	 0.033473
C	 2.0341806271	 1.3321083869	 2.3663195807	-0.366848
C	 3.3344603859	 1.7618840851	 2.8783600809	 0.257333
N	 4.374703196	 2.0811031192	 3.2682811603	-0.310031
C	 0.8808197234	-0.5275110073	 0.8649302014	-0.121675
H	 1.310345852	 2.2115670732	-0.3745506939	 0.122151
H	 0.1639637332	 1.9073920977	-1.6699221704	 0.120834
H	-0.4238265162	 2.1780829575	-0.0260741568	 0.118783
H	-0.4436986721	-0.2974304203	-0.7918628287	 0.091249
H	 1.6941351066	-1.5114682323	-1.1303582211	 0.089841
H	 3.7648944765	-0.6117017431	 0.1718235395	 0.116079
H	 3.1580583874	 0.9910074691	-0.2622381007	 0.107044
H	 2.5770599507	-0.7309800052	 2.1769968263	 0.099154
H	 1.6051804598	 2.1493809024	 1.7804741792	 0.150901
H	 1.361610221	 1.1700316974	 3.2173136517	 0.149206
H	 0.2294665278	-1.2532187477	 1.3396497908	 0.085816
57.1408	106.4625	157.6314	229.9929	236.5634	297.295	348.9364	394.4843	439.2704	509.3239	581.5927	707.2209	714.948	789.3873	825.9025	865.9024	890.4494	939.8914	975.5073	984.0921	995.0945	1031.1648	1059.5336	1072.4608	1082.341	1110.0438	1136.8118	1163.8085	1217.7353	1239.8325	1243.9295	1271.3995	1295.7409	1319.9675	1357.052	1386.2912	1414.3541	1448.5286	1464.6532	1491.1407	1501.9488	1506.6311	2358.7455	3034.0994	3046.3426	3055.9952	3062.2902	3089.2089	3103.6158	3109.6482	3119.6325	3127.4824	3165.104	3184.6303
CC1C2CC(CC#N)C12	C[C@H]1[C@H]2C[C@@H](CC#N)[C@@H]12	
InChI=1S/C8H11N/c1-5-7-4-6(2-3-9)8(5)7/h5-8H,2,4H2,1H3	InChI=1S/C8H11N/c1-5-7-4-6(2-3-9)8(5)7/h5-8H,2,4H2,1H3/t5-,6+,7+,8+/m0/s1
