22
gdb 120684	2.35419	0.80961	0.6392	1.422	93.52	-0.2183	0.0428	0.2611	1840.5079	0.191913	-367.164839	-367.153929	-367.152985	-367.203273	38.003	
C	-0.2926519079	 1.4610737118	 0.2598282807	-0.380835
C	-0.2610091102	-0.0351715852	-0.0616597568	-0.166006
C	 0.8994925568	-0.4109676234	-0.9832251588	-0.116028
N	 0.9159679734	-1.8528754134	-1.2188015282	-0.085207
C	 0.15864999	-2.3451637149	-2.3565312665	-0.245283
C	 1.6592626227	-2.3624867506	-2.387731917	-0.184732
C	 2.3812660776	-1.4913769558	-3.2759052445	 0.11121
C	 3.0324989614	-0.7862126013	-4.0052844589	 0.040457
C	 3.8078246595	 0.0657929208	-4.8950435145	-0.499059
H	 0.6294325441	 1.779359392	 0.7589560691	 0.115064
H	-0.3996855049	 2.0627971268	-0.6496695819	 0.113505
H	-1.1294180176	 1.7066240794	 0.9206001736	 0.113296
H	-0.1809262192	-0.6211072839	 0.8609204322	 0.107032
H	-1.2050381938	-0.3334207548	-0.5353899268	 0.096013
H	 0.8368784271	 0.1646543068	-1.9216077799	 0.09059
H	 1.852665711	-0.1421922436	-0.5115496865	 0.102594
H	-0.390143113	-3.2716727356	-2.2087484162	 0.116034
H	-0.327853752	-1.6168482195	-3.0038430539	 0.114014
H	 2.1554453967	-3.3099577436	-2.1870726862	 0.109951
H	 4.880323706	-0.0044660251	-4.6820659854	 0.149099
H	 3.6587774874	-0.2119818751	-5.9445463713	 0.148954
H	 3.5179522049	 1.1169017982	-4.7874455521	 0.149336
13.3821	62.6576	81.0297	99.3772	138.67	166.2802	244.8787	267.3308	300.0371	349.1514	390.7036	421.9929	512.2772	586.7774	719.7128	758.5592	790.8481	871.2704	900.0638	916.4928	981.0021	1028.2155	1051.8948	1052.8352	1055.4393	1073.7843	1112.6156	1132.0525	1138.1329	1198.2835	1204.6709	1279.1832	1315.5806	1324.567	1328.428	1380.1016	1403.0237	1414.5062	1415.7503	1476.5168	1479.0535	1486.0118	1494.9353	1502.0882	1506.4936	1517.8011	2362.8512	2967.7518	3025.703	3026.6078	3030.5387	3046.7123	3068.5094	3085.2696	3087.6469	3091.2975	3097.91	3104.5022	3120.0933	3180.428
CCCN1CC1C#CC	CCCN1C[C@H]1C#CC	
InChI=1S/C8H13N/c1-3-5-8-7-9(8)6-4-2/h8H,4,6-7H2,1-2H3	InChI=1S/C8H13N/c1-3-5-8-7-9(8)6-4-2/h8H,4,6-7H2,1-2H3/t8-,9?/m1/s1
