15
gdb 33287	6.45895	0.72353	0.72155	1.9613	92.06	-0.242	-0.0358	0.2062	1553.4637	0.110617	-383.362348	-383.354342	-383.353398	-383.395277	30.484	
C	 0.0319314733	-3.6962353397	-0.0543786562	-0.599304
C	 0.0233593341	-2.4887845559	-0.0331811446	 0.19388
C	 0.0147766543	-1.1303794266	-0.0072823666	 0.342717
C	 0.0053316409	 0.0805353491	 0.0127688417	-0.081422
C	 0.0158843405	 1.5064136417	 0.0745585905	 0.218599
C	-0.6769147111	 2.4565340107	 1.0993768404	-0.249394
C	-0.0885745857	 3.2979121758	-0.054901245	 0.006742
C	 1.2256943439	 2.4893127595	 0.0177834421	-0.249393
O	-0.619405927	 2.3038511062	-1.0188012425	-0.332707
H	 0.0379752413	-4.7578773054	-0.0756406672	 0.194411
H	-1.7641481031	 2.3846343297	 1.1179455977	 0.120348
H	-0.2278703394	 2.5425098476	 2.0914183878	 0.104065
H	-0.2405398483	 4.3493641613	-0.2903535025	 0.107047
H	 1.8461506634	 2.5782414525	 0.9123808342	 0.104065
H	 1.7992948231	 2.4460245134	-0.9077970397	 0.120348
79.9158	80.6161	220.2316	231.2865	415.3252	443.8246	446.7358	480.8818	509.9629	533.418	588.6246	602.6171	613.1318	721.2514	792.0612	869.8012	913.5992	937.815	943.1729	985.3113	1056.1814	1074.8366	1088.0652	1111.6655	1164.6754	1218.0442	1234.5926	1235.3156	1344.184	1465.748	1506.8742	2182.0622	2353.142	3067.5131	3075.3745	3143.4499	3158.2271	3162.472	3503.4089
C#CC#CC12CC(C1)O2	C#CC#C[C@@]12C[C@@H](C1)O2	
InChI=1S/C8H6O/c1-2-3-4-8-5-7(6-8)9-8/h1,7H,5-6H2	InChI=1S/C8H6O/c1-2-3-4-8-5-7(6-8)9-8/h1,7H,5-6H2/t7-,8+
