19
gdb 36712	4.2964	0.78209	0.75269	4.3946	81.51	-0.2421	0.015	0.257	1533.6494	0.160646	-382.080896	-382.07221	-382.071266	-382.115339	31.923	
N	 0.4595486032	-1.1482968778	 0.2430322816	-0.299436
C	 0.3032661842	-0.0042462892	 0.2172809489	 0.259206
C	 0.1071019848	 1.448789509	 0.215377887	-0.268474
N	 1.3330375553	 2.1372143189	-0.1651708834	-0.294747
C	 1.216045852	 3.5986913598	-0.2086088998	 0.043517
C	 1.0673553366	 4.2806338715	 1.1893945621	-0.27467
C	 2.4739223907	 4.7286005783	 1.5095231542	-0.060073
C	 3.2654159818	 4.6813999494	 0.4389744606	-0.059702
C	 2.531342736	 4.1892664759	-0.784632079	-0.275953
H	-0.6706721585	 1.6889922466	-0.5208820573	 0.154878
H	-0.3042686482	 1.7280397533	 1.2020112137	 0.131929
H	 2.0890360534	 1.8697862562	 0.4590433545	 0.231475
H	 0.3602533917	 3.8235515023	-0.8532551681	 0.078551
H	 0.3832338794	 5.1396658821	 1.1465002208	 0.11117
H	 0.6500511187	 3.5993930547	 1.9407973172	 0.100394
H	 2.7693719974	 5.0699124742	 2.4953271584	 0.09567
H	 4.306128657	 4.9840947987	 0.4131749258	 0.096376
H	 3.0751982713	 3.428969764	-1.3545483302	 0.118576
H	 2.328115563	 5.0163588424	-1.4780583769	 0.111313
50.9106	72.0423	128.1986	151.2659	263.0135	354.8448	380.282	392.3931	445.0194	550.9009	698.1838	726.2025	771.8773	790.6024	869.9641	889.4857	936.0147	951.2445	961.0444	978.3658	979.9409	1002.4558	1057.976	1100.7262	1126.954	1133.5289	1172.7836	1216.777	1235.0507	1266.9222	1306.8653	1323.6188	1343.0032	1376.4112	1402.1514	1473.4537	1485.2255	1492.9379	1500.3467	1683.9069	2368.0838	2943.184	3010.4463	3018.7253	3043.253	3049.5284	3058.6436	3074.7732	3185.4829	3210.5935	3509.8537
N#CCNC1CC=CC1	N#CCN[C@H]1CC=CC1	
InChI=1S/C7H10N2/c8-5-6-9-7-3-1-2-4-7/h1-2,7,9H,3-4,6H2	InChI=1S/C7H10N2/c8-5-6-9-7-3-1-2-4-7/h1-2,7,9H,3-4,6H2
