16
gdb 9537	2.89882	1.93119	1.53155	2.2531	60.92	-0.234	-0.0377	0.1963	876.3436	0.128937	-420.8768	-420.868642	-420.867698	-420.910148	29.827	
O	 0.0320208455	 1.3738923962	 0.0189622002	-0.431447
C	 0.0444566859	-0.0465368204	-0.0451570833	-0.13409
C	-1.3994330477	-0.5408602057	-0.0729762155	 0.305161
O	-2.0994983801	 0.0510608808	-1.1444779555	-0.474277
C	-1.699555086	-2.0614091623	 0.0481399375	-0.291292
C	-2.5175091942	-1.8309189612	 1.3610119623	-0.344673
C	-2.0940994756	-0.3582813498	 1.3069715521	 0.353616
O	-2.1552249517	 0.5763330821	 2.059716505	-0.31464
H	-0.4062550432	 1.6122403985	 0.8481338736	 0.301955
H	 0.5524234347	-0.3167362412	-0.9772278428	 0.121093
H	 0.5995342037	-0.4917013292	 0.7937482563	 0.096222
H	-1.779265787	 0.9642191458	-1.1839094297	 0.289945
H	-2.2755845542	-2.4400008805	-0.7959051792	 0.129175
H	-0.8073226064	-2.676587678	 0.1837416432	 0.112823
H	-3.5976089387	-1.960009622	 1.2414150899	 0.146391
H	-2.204708555	-2.3698010932	 2.2592136059	 0.134039
27.8781	122.2748	164.1079	232.7392	299.2316	339.2193	431.9494	468.2151	518.5507	523.4772	591.7472	699.3325	730.9372	753.3542	900.3777	923.6424	928.9312	1031.2881	1050.0973	1057.5799	1076.2383	1135.5361	1191.5015	1197.9311	1231.7864	1252.627	1286.634	1359.4541	1410.2917	1430.5618	1434.9033	1474.1467	1493.4163	1865.9155	2997.4462	3062.0894	3076.1207	3081.1607	3113.4521	3148.0951	3733.9236	3748.724
OCC1(O)CCC1=O	OC[C@@]1(O)CCC1=O	
InChI=1S/C5H8O3/c6-3-5(8)2-1-4(5)7/h6,8H,1-3H2	InChI=1S/C5H8O3/c6-3-5(8)2-1-4(5)7/h6,8H,1-3H2/t5-/m0/s1
