14
gdb 128177	2.93354	1.2724	0.89388	5.6951	72.54	-0.2387	-0.0852	0.1535	1219.4299	0.099828	-469.979202	-469.970755	-469.969811	-470.012982	29.022	
C	-0.0977904492	 1.4949964062	 0.0726023937	-0.330357
N	-0.0312408891	 0.0537089506	-0.1292178573	-0.393944
C	-1.1381816835	-0.7255921024	-0.0452213195	 0.29054
C	-1.3074494711	-2.0961884094	 0.0096874214	 0.232916
O	-2.6472505618	-2.3196423123	 0.0349106552	-0.188159
N	-3.2729084623	-1.0964060461	-0.0009075298	 0.020111
N	-2.4027487025	-0.1721297441	-0.0453133788	-0.19659
C	-0.3681970002	-3.1972085482	 0.0436209792	 0.070034
O	-0.6547060963	-4.3720686818	 0.0946434689	-0.271943
H	 0.8647704245	 1.9266631802	-0.2072663705	 0.136998
H	-0.8722920374	 1.9198332545	-0.5680423175	 0.168777
H	-0.3237204151	 1.7673687572	 1.1116413819	 0.137359
H	 0.8466938131	-0.3923509338	 0.079100328	 0.259897
H	 0.6927789508	-2.8582001305	 0.017346565	 0.064362
77.3407	120.1602	146.4237	155.9908	217.8085	241.7958	356.5514	369.9511	436.2696	586.1723	659.6686	704.1642	750.9852	794.5964	884.6183	1003.8804	1024.8056	1067.7816	1120.2309	1153.856	1208.8635	1240.4471	1399.4543	1432.9265	1449.2775	1468.6992	1485.5253	1498.9189	1519.8443	1677.4484	1779.8237	2859.2338	3022.2182	3108.8037	3149.5389	3645.5136
CNC1=C(ON=N1)C=O	CNc1c(onn1)C=O	
InChI=1S/C4H5N3O2/c1-5-4-3(2-8)9-7-6-4/h2,5H,1H3	InChI=1S/C4H5N3O2/c1-5-4-3(2-8)9-7-6-4/h2,5H,1H3
