20
gdb 98845	3.16729	1.03845	0.95081	4.4387	76.65	-0.2425	0.0194	0.2619	1337.8803	0.170183	-440.301282	-440.291333	-440.290389	-440.337321	34.894	
C	 1.2262228031	 1.7037514357	-0.5542805309	-0.335018
N	 1.1862178685	 0.2544876046	-0.525092405	-0.322876
C	 0.3901708713	-0.4786513322	-1.3565239298	 0.425682
O	-0.3559063961	 0.0283787006	-2.179199597	-0.37769
C	 0.5275943028	-1.9827112269	-1.2053507023	-0.201241
C	-0.6893116901	-2.8111180865	-1.6597858501	-0.075003
O	 0.073321204	-3.4904469744	-2.6764093251	-0.288147
C	 1.2678497748	-2.74569236	-2.3584343521	 0.160604
C	 1.7989126389	-1.9669282808	-3.5452744246	-0.411235
H	 2.228687417	 2.0710559127	-0.8008012684	 0.126732
H	 0.5268625449	 2.0303843993	-1.3245105179	 0.174048
H	 0.9237894261	 2.130209148	 0.4085675169	 0.127014
H	 1.7671545444	-0.2318500025	 0.1371188283	 0.245564
H	 0.9074095181	-2.2494989456	-0.2163047529	 0.07086
H	-1.0922988613	-3.5054606114	-0.913320133	 0.094767
H	-1.4940997614	-2.2049139231	-2.0868347731	 0.127734
H	 2.0455530208	-3.4172733813	-1.9684314304	 0.073863
H	 1.0546025505	-1.2559589719	-3.9097137566	 0.152849
H	 2.7089216872	-1.4202842436	-3.2727533399	 0.10693
H	 2.0489054467	-2.6636050207	-4.3514289562	 0.124563
42.3887	71.4119	76.3355	124.3677	190.7986	220.1065	255.3102	329.8142	354.1053	393.3152	438.5637	491.9084	660.5801	745.5662	767.7871	843.783	890.3944	905.0591	964.8983	1010.5154	1037.4641	1094.741	1099.2042	1112.4675	1151.5812	1156.9716	1170.3276	1181.8698	1225.2373	1228.3154	1288.6435	1361.6616	1372.5936	1390.6959	1411.1011	1439.1162	1483.6809	1493.2669	1498.9163	1500.1372	1516.1178	1560.4369	1767.4798	2996.529	3026.4069	3028.6012	3037.1866	3073.2253	3080.6601	3091.0338	3104.1889	3139.5294	3155.7448	3649.6139
CNC(=O)C1COC1C	CNC(=O)[C@H]1CO[C@H]1C	
InChI=1S/C6H11NO2/c1-4-5(3-9-4)6(8)7-2/h4-5H,3H2,1-2H3,(H,7,8)	InChI=1S/C6H11NO2/c1-4-5(3-9-4)6(8)7-2/h4-5H,3H2,1-2H3,(H,7,8)/t4-,5-/m0/s1
