21
gdb 107673	3.10968	1.29671	1.08669	1.9461	78.48	-0.2369	0.0877	0.3246	1192.682	0.182966	-424.204016	-424.195403	-424.194459	-424.237039	33.377	
C	 0.1861089591	 1.2784937782	-0.2702819822	-0.248779
O	-0.2236973194	 0.021048668	 0.2327675653	-0.282459
C	 0.6129198486	-0.4990253281	 1.2311762023	 0.391205
C	 1.9022836363	-1.1351591582	 0.7521596236	-0.364446
C	 0.7312294096	-1.995239239	 1.1843144351	 0.039454
O	 0.857317274	-2.7441797741	 2.3580879104	-0.260182
C	 0.2972185682	-2.1339415163	 3.5130661602	-0.059909
C	 0.8904357675	-0.7460463471	 3.7436815072	-0.225874
C	 0.5061503072	 0.1879343779	 2.5838561739	-0.278351
H	 1.2171783015	 1.2480211115	-0.6505921244	 0.107475
H	-0.4893656835	 1.5256601195	-1.0926577989	 0.126698
H	 0.119463981	 2.0712514069	 0.4879657384	 0.108401
H	 2.1217267284	-1.0766509462	-0.3080545005	 0.11393
H	 2.7660532717	-1.1240300799	 1.4084628383	 0.115334
H	 0.1659396793	-2.5016396601	 0.4058387409	 0.102668
H	-0.7993241983	-2.0655688545	 3.4220667823	 0.091361
H	 0.526727671	-2.810237094	 4.341238371	 0.106589
H	 0.5293121639	-0.3324074166	 4.691399227	 0.100028
H	 1.979359017	-0.8414347598	 3.8274348877	 0.107967
H	 1.1014679359	 1.1077379249	 2.6140712974	 0.098634
H	-0.544940689	 0.4819170671	 2.6971881949	 0.110258
106.0934	128.5559	177.1581	190.3388	279.7001	337.2637	372.4971	393.9367	419.313	484.1707	529.3445	616.4943	688.2751	797.9003	879.5096	882.8936	906.3172	947.7781	965.3826	971.6194	1015.5063	1040.9276	1056.8596	1082.346	1113.0011	1136.32	1182.2093	1182.5583	1188.5444	1217.169	1251.2104	1256.2014	1302.0357	1318.1849	1361.9058	1374.037	1392.8586	1415.7898	1465.6888	1477.6862	1484.4803	1489.8096	1501.1035	1504.4224	1510.1113	2973.4261	2990.9707	3023.3061	3037.858	3042.0418	3061.7011	3083.639	3089.0583	3116.7059	3133.2149	3138.6607	3226.7956
COC12CC1OCCC2	CO[C@]12C[C@H]1OCCC2	
InChI=1S/C7H12O2/c1-8-7-3-2-4-9-6(7)5-7/h6H,2-5H2,1H3	InChI=1S/C7H12O2/c1-8-7-3-2-4-9-6(7)5-7/h6H,2-5H2,1H3/t6-,7-/m1/s1
