17
gdb 65241	2.60134	1.53218	1.17983	1.9917	68.52	-0.2573	-0.0339	0.2234	1073.657	0.133334	-458.936514	-458.927928	-458.926984	-458.970087	31.404	
C	 0.1742457786	 1.5359235534	-0.5086228978	-0.474915
C	-0.0562532663	 0.0943547022	-0.1189126458	 0.373974
C	 1.0214984482	-0.9032552983	-0.1380624982	-0.216125
O	 0.5646944378	-0.3376762587	 1.0980299183	-0.277211
C	-1.4910673857	-0.3806604884	-0.2643618302	-0.071986
O	-1.686726964	-1.7709563171	 0.0665600219	-0.286332
C	-2.4622414603	-1.4921436586	 1.2538157589	-0.18751
C	-2.4024765897	 0.0012817573	 0.9216077977	 0.367296
O	-2.8518910651	 1.0112301701	 1.3653380401	-0.277087
H	 1.2038618196	 1.8242957327	-0.2857902057	 0.135067
H	-0.0099807259	 1.6867685921	-1.5776073256	 0.125288
H	-0.4994006107	 2.1950579322	 0.048535724	 0.151515
H	 0.773419532	-1.9516809727	-0.2801266145	 0.133277
H	 2.0201491312	-0.5975341172	-0.4472913925	 0.114205
H	-1.885559836	-0.1289961253	-1.2578080023	 0.109119
H	-3.4573796677	-1.951345538	 1.2320531579	 0.133341
H	-1.9363562359	-1.7692789858	 2.1750515638	 0.148083
72.5873	108.0212	127.6553	201.5411	248.3097	332.5212	344.9999	395.3162	427.4078	518.4438	571.7616	715.8055	727.617	812.2773	857.4464	911.5569	932.0042	994.6425	1008.7739	1015.8443	1057.5725	1079.0424	1103.7423	1134.654	1142.5164	1177.138	1226.1051	1239.4161	1298.0071	1336.0216	1392.5135	1417.2513	1469.9911	1482.483	1497.5021	1519.6781	1925.6686	3024.36	3031.8958	3040.1581	3083.3649	3092.6975	3105.8804	3131.8393	3192.6485
CC1(CO1)C1OCC1=O	C[C@]1(CO1)[C@H]1OCC1=O	
InChI=1S/C6H8O3/c1-6(3-9-6)5-4(7)2-8-5/h5H,2-3H2,1H3	InChI=1S/C6H8O3/c1-6(3-9-6)5-4(7)2-8-5/h5H,2-3H2,1H3/t5-,6-/m0/s1
