14
gdb 26056	3.31859	1.148	1.0613	4.0828	68.71	-0.2456	-0.0204	0.2253	1141.2818	0.101372	-436.712401	-436.704471	-436.703527	-436.745752	28.533	
O	-0.230612881	 1.3473748743	 0.0825108073	-0.398515
C	 0.0106889818	-0.0465805508	-0.0051934447	-0.138885
C	 0.8038867739	-0.3653324876	-1.217623887	 0.264761
N	 1.4253985136	-0.5991076738	-2.1629543138	-0.320147
C	 0.6492484457	-0.6171812988	 1.2193242471	 0.384354
C	 0.2441709783	-1.5092235603	 2.1609850709	-0.28149
C	 1.3106145338	-1.5971879276	 3.1139196551	-0.165062
C	 2.2760027063	-0.748143975	 2.6772580819	-0.010937
O	 1.8920296339	-0.1433593334	 1.5218100602	-0.187483
H	 0.6125889585	 1.7781984414	 0.26797873	 0.302102
H	-0.971778501	-0.5151873609	-0.1182759776	 0.155675
H	-0.6951758735	-2.039333732	 2.1770502822	 0.124891
H	 1.346857958	-2.2097310536	 4.0006087849	 0.124441
H	 3.2484172416	-0.4700703718	 3.0483409536	 0.146295
50.5804	99.9296	164.4613	211.5711	295.7158	369.9104	411.5917	472.3807	596.8746	612.5837	710.2307	763.4423	772.7322	822.2858	865.008	898.8585	913.9277	967.0247	1037.0506	1045.9164	1103.3945	1186.8707	1224.7135	1252.8895	1275.426	1315.4244	1413.6194	1417.9059	1533.3611	1639.029	2357.0605	3081.6177	3256.5058	3267.3235	3290.3449	3799.4264
OC(C#N)C1=CC=CO1	O[C@@H](C#N)c1ccco1	
InChI=1S/C6H5NO2/c7-4-5(8)6-2-1-3-9-6/h1-3,5,8H	InChI=1S/C6H5NO2/c7-4-5(8)6-2-1-3-9-6/h1-3,5,8H/t5-/m0/s1
