20
gdb 119808	4.67623	0.74903	0.67751	3.4378	83.49	-0.207	0.0023	0.2093	1683.647	0.170827	-403.207722	-403.198356	-403.197412	-403.242579	34.365	
C	 0.0606773155	 1.5790197821	 0.0610350932	-0.379554
C	 0.1189030278	 0.0497443455	 0.0670984503	-0.158252
C	 0.5860261756	-0.5332330488	-1.281378289	-0.297028
C	 0.6579303098	-2.0267867323	-1.3101588692	 0.271225
C	-0.0679887464	-2.8640556413	-2.0620452567	-0.122238
N	 0.2723641212	-4.2071731002	-1.8260554231	-0.320127
C	 1.2772280442	-4.3187702139	-0.8830936673	 0.421058
O	 1.7747113474	-5.3468712955	-0.4863516916	-0.370696
C	 1.5967897838	-2.8696643943	-0.4733582993	-0.45185
H	 1.0446117191	 2.0123420522	-0.1506719202	 0.115189
H	-0.6324781658	 1.9460742024	-0.7041798107	 0.114418
H	-0.2736626965	 1.9688720272	 1.0273071597	 0.114072
H	 0.7938980448	-0.287912905	 0.8633403278	 0.099901
H	-0.8687250144	-0.3620340816	 0.3081924232	 0.099682
H	-0.0919567601	-0.1913638377	-2.0738582644	 0.097222
H	 1.5726009179	-0.1073994218	-1.5192151456	 0.099386
H	-0.8344553105	-2.6299769569	-2.7880405551	 0.121878
H	-0.1327147725	-5.0064610485	-2.2833776636	 0.259096
H	 2.6562923496	-2.6606967497	-0.66487269	 0.141858
H	 1.4489808896	-2.7594509117	 0.6070434515	 0.144759
69.6016	81.0632	89.6665	149.1985	246.6612	284.49	301.2931	346.7293	429.6001	489.4521	495.2514	582.089	624.375	746.0916	757.6064	843.2265	851.4153	875.6455	895.5584	923.8742	952.2003	1041.2901	1064.5461	1106.4299	1109.074	1151.9288	1183.7732	1209.9127	1257.4544	1295.5058	1314.1763	1326.2294	1363.3731	1387.4512	1400.9042	1413.0902	1433.6106	1476.451	1492.6369	1500.2198	1509.9783	1707.6513	1837.1402	2990.7381	3025.8326	3029.9247	3039.3708	3042.1634	3063.3387	3075.3361	3097.2072	3103.8289	3230.1486	3668.6684
CCCC1=CNC(=O)C1	CCCC1=CNC(=O)C1	
InChI=1S/C7H11NO/c1-2-3-6-4-7(9)8-5-6/h5H,2-4H2,1H3,(H,8,9)	InChI=1S/C7H11NO/c1-2-3-6-4-7(9)8-5-6/h5H,2-4H2,1H3,(H,8,9)
