15
gdb 43213	2.63305	1.45635	1.06007	11.875	79.08	-0.1855	-0.0203	0.1653	1099.7067	0.114811	-416.754086	-416.746547	-416.745603	-416.786714	27.942	
O	-0.1888287377	-0.0472649321	 0.0817342226	-0.401922
C	-0.034157938	 1.154386858	-0.0471791545	 0.269708
C	-1.11497552	 2.2893568081	-0.1042447857	-0.143036
N	-1.4994176864	 2.676391607	 1.3664544901	-0.28153
H	-2.4493576984	 3.0082530339	 1.5235328711	 0.298358
H	-1.3083634198	 1.9031553369	 2.0059341138	 0.31687
C	-0.4464584122	 3.7886624702	 1.3413650947	-0.194895
C	 0.0365766481	 3.3225987409	-0.0728312558	-0.144223
C	 0.9813202435	 2.1454604448	-0.0753213074	-0.000695
C	 2.377142189	 2.1204264079	 0.0438889646	 0.146293
N	 3.5362971401	 2.133630797	 0.1490938275	-0.386869
H	-1.9864128554	 2.288127668	-0.7564668391	 0.115478
H	-0.9673726981	 4.7481813528	 1.3794267806	 0.139271
H	 0.2591277299	 3.6965316183	 2.1660546196	 0.167551
H	 0.1314828653	 4.1210779683	-0.8098354122	 0.099641
81.4236	124.6661	143.8781	218.8939	371.8433	402.2612	534.657	577.1811	616.4707	677.6209	704.9547	739.7257	806.5227	840.7746	872.4899	894.2458	910.4466	940.0651	1010.7798	1067.536	1118.4594	1168.0805	1200.1109	1209.2267	1256.8832	1270.9141	1281.8667	1312.4813	1389.353	1482.7823	1624.0418	1805.7558	2290.7943	3078.1354	3097.4706	3143.4825	3162.9698	3441.386	3525.4418
O=C1C2[NH2+]CC2[C-]1C#N	O=C1[C@H]2[NH2]C[C@H]2[C]1C#N	
InChI=1S/C6H5N2O/c7-1-3-4-2-8-5(4)6(3)9/h4-5,8H,2H2/q-1/p+1	InChI=1S/C6H6N2O/c7-1-3-4-2-8-5(4)6(3)9/h4-5H,2,8H2/t4-,5-/m0/s1
