15
gdb 19002	5.15866	1.96837	1.70973	2.3026	65.06	-0.224	-0.0185	0.2056	761.5524	0.120908	-362.615769	-362.61009	-362.609146	-362.645414	23.093	
O	-0.0148782114	 0.0072773509	-0.0456461101	-0.323514
C	-0.0080068934	 1.2090329991	-0.0029958278	 0.403133
C	-1.1889423776	 2.1927738858	 0.0327048644	-0.293061
N	-0.512107136	 3.5040518676	 0.0811249359	-0.128935
C	 0.7146900959	 3.3993873662	-0.8333416837	-0.024046
C	 1.4550451619	 4.3580065467	 0.1143664481	-0.229003
C	 0.7128104748	 3.3327227393	 0.9879320541	-0.024041
C	 1.1554841263	 2.1665595806	 0.0338133427	-0.14414
H	-1.8191282358	 2.1075659981	-0.8582810483	 0.13209
H	-1.8199807518	 2.0425617637	 0.9144603286	 0.132179
H	 0.6164160607	 3.4383904491	-1.919809008	 0.094148
H	 2.544372268	 4.3103518162	 0.1137515455	 0.105749
H	 1.0716071766	 5.3789601756	 0.1513197647	 0.114608
H	 0.6123258197	 3.2921874391	 2.074140362	 0.094155
H	 2.1689918821	 1.7691372019	 0.020404622	 0.090676
145.4718	331.684	363.323	501.7501	595.0182	603.7323	693.6755	699.2847	803.7722	834.1998	856.9388	880.1614	921.4756	939.6057	1004.2244	1021.4592	1052.6181	1077.0369	1102.8831	1112.2071	1129.7275	1163.345	1175.4062	1218.4766	1223.9459	1239.2578	1243.901	1289.6203	1298.4546	1462.343	1495.9674	1863.299	3054.4101	3078.1924	3097.945	3101.1152	3103.4407	3138.9311	3154.0893
O=C1CN2C3CC2C13	O=C1CN2[C@H]3C[C@@H]2[C@@H]13	
InChI=1S/C6H7NO/c8-5-2-7-3-1-4(7)6(3)5/h3-4,6H,1-2H2	InChI=1S/C6H7NO/c8-5-2-7-3-1-4(7)6(3)5/h3-4,6H,1-2H2/t3-,4+,6-
