23
gdb 83365	2.05227	1.85359	1.50445	1.2334	83.31	-0.2514	0.0732	0.3246	1053.3883	0.208328	-388.320077	-388.311651	-388.310707	-388.352229	34.624	
C	-0.142829773	 1.5280078479	 0.0275068985	-0.438976
C	 0.0606157007	 0.0156461834	 0.0112940118	 0.01865
C	 1.0519326864	-0.5762337717	-1.0194164675	-0.014639
C	 2.4194804462	-0.0480556277	-0.5184388482	-0.21463
C	 2.2524963861	-0.0585600411	 1.0316079457	-0.271761
C	 0.8101165691	-0.5899607613	 1.2237877123	 0.433041
O	 0.2081161036	-0.2601981461	 2.4557244482	-0.510384
C	 0.797531786	-2.0951017502	 0.8654533488	-0.267575
C	 0.9668692691	-2.0858182591	-0.6867971666	-0.218083
H	 0.7988926319	 2.0830889567	 0.0642837077	 0.113103
H	-0.6833621882	 1.8559428441	-0.866634347	 0.10773
H	-0.7303429321	 1.8180447071	 0.9037222388	 0.130543
H	-0.9210541626	-0.4649069449	-0.0831095344	 0.064104
H	 0.848113805	-0.3455803971	-2.067306337	 0.053107
H	 3.2455779199	-0.6779535365	-0.8611810008	 0.091603
H	 2.6155952726	 0.9621799905	-0.8880748615	 0.097539
H	 2.9885732444	-0.6950588592	 1.5343375078	 0.083703
H	 2.3387235209	 0.9433278461	 1.4608195705	 0.100849
H	 0.7415381027	-0.6388899686	 3.1619484105	 0.2735
H	 1.5915119665	-2.6491222079	 1.3777849605	 0.082555
H	-0.1589185783	-2.5304741566	 1.1687696352	 0.099454
H	 0.1036294224	-2.5445428075	-1.1779570891	 0.095593
H	 1.8552598707	-2.6307336902	-1.0194365441	 0.090971
164.6709	193.7925	229.2147	233.4131	241.0559	315.8081	384.6466	397.7592	431.4166	538.0798	558.7759	605.9594	723.4125	759.8571	805.1154	820.3076	845.2789	906.0977	924.939	958.6288	967.1034	981.4659	1002.3257	1025.6805	1060.0855	1083.0869	1096.3972	1128.793	1163.9123	1177.2223	1207.4053	1229.0355	1236.0273	1246.1031	1269.4241	1293.0028	1303.6192	1315.3313	1331.4798	1351.9492	1377.2425	1410.4732	1416.0868	1483.6105	1493.0262	1494.1777	1506.1294	1510.1581	1522.4968	3027.8057	3037.3121	3038.0312	3042.16	3050.808	3055.1705	3077.5817	3081.6479	3087.6952	3095.5496	3101.4805	3103.5424	3113.2488	3812.2485
CC1C2CCC1(O)CC2	C[C@H]1[C@H]2CC[C@]1(O)CC2	
InChI=1S/C8H14O/c1-6-7-2-4-8(6,9)5-3-7/h6-7,9H,2-5H2,1H3	InChI=1S/C8H14O/c1-6-7-2-4-8(6,9)5-3-7/h6-7,9H,2-5H2,1H3/t6-,7-,8-/m0/s1
