17
gdb 33534	2.08663	1.66654	1.12271	2.6537	73.6	-0.2533	0.034	0.2873	1107.4537	0.134092	-421.735932	-421.727293	-421.726348	-421.76981	31.561	
C	 0.2502426364	-1.3355519693	-0.1626802007	-0.450349
C	 0.1219543254	-0.1432821805	-0.0746758407	 0.286133
C	-0.0435650971	 1.2966515136	 0.0102052384	 0.05109
C	-0.2654385873	 1.8709103825	 1.4431311649	-0.114065
O	 0.9985780274	 2.5527454313	 1.424006919	-0.265058
C	 1.2850980299	 2.1174371314	 0.0873936299	-0.102436
C	-1.0086216989	 1.7698851939	-1.0646438807	-0.005927
C	-2.4436766505	 1.940382401	-0.8265412526	-0.178328
O	-1.5652190711	 3.0703681384	-0.9045291906	-0.231824
H	 0.3685084681	-2.3888427335	-0.2305443574	 0.200093
H	-1.1030382843	 2.5721654575	 1.518557331	 0.118794
H	-0.3231000709	 1.118720508	 2.2360983815	 0.111345
H	 2.2026905543	 1.5232356499	 0.0267317219	 0.112645
H	 1.3325607332	 2.9544724529	-0.6197831846	 0.114907
H	-0.6808334518	 1.5401738122	-2.0794849051	 0.107407
H	-3.1438983102	 1.8363269869	-1.6529554934	 0.125698
H	-2.8557009426	 1.7382174638	 0.1609168992	 0.119876
67.2488	84.836	141.3014	180.5458	219.7779	265.3144	405.3218	471.4359	510.968	540.1107	611.1018	633.318	641.9307	840.4852	848.5436	876.8253	931.7346	945.5667	994.1232	996.5457	1056.6363	1072.9686	1096.3244	1154.1856	1161.025	1170.6795	1176.1842	1201.7623	1252.3061	1301.352	1315.5836	1374.8862	1427.9021	1497.9597	1523.1153	1533.0726	2234.3721	3020.036	3037.5141	3079.2229	3091.0786	3091.2338	3103.3183	3179.3238	3500.5679
C#CC1(COC1)C1CO1	C#CC1(COC1)[C@H]1CO1	
InChI=1S/C7H8O2/c1-2-7(4-8-5-7)6-3-9-6/h1,6H,3-5H2	InChI=1S/C7H8O2/c1-2-7(4-8-5-7)6-3-9-6/h1,6H,3-5H2/t6-/m1/s1
