17
gdb 51841	3.37221	1.01154	0.81765	2.7769	69.	-0.2476	-0.0402	0.2074	1345.087	0.134423	-458.98685	-458.978132	-458.977188	-459.021557	30.639	
O	-0.7682668252	 0.9958235182	 0.96784903	-0.23828
C	-0.086976247	 1.043495247	-0.0243641599	 0.144665
C	 1.2728350318	 1.7207214183	-0.0738845828	-0.300011
C	 1.3871027255	 2.7623491381	-1.1965846985	-0.127002
C	 2.633875692	 3.6591814772	-1.1578594961	-0.109851
O	 2.7914852678	 4.1409362221	-2.4912657303	-0.245556
C	 2.4750437973	 3.0789469285	-3.3690511293	-0.176061
C	 1.501292615	 2.1756385895	-2.6084561832	 0.358709
O	 0.9735504952	 1.1796587844	-3.0299510318	-0.30142
H	-0.4135696522	 0.5873304967	-0.9804623765	 0.11281
H	 1.4542157799	 2.1795622951	 0.9028582546	 0.126287
H	 2.030256997	 0.9399278433	-0.2293626189	 0.127899
H	 0.5015334359	 3.4140677791	-1.200374255	 0.12676
H	 2.5365415565	 4.5252069166	-0.5006886271	 0.128608
H	 3.516010956	 3.0770287965	-0.8424459319	 0.100352
H	 2.0327828048	 3.4759689644	-4.287547035	 0.145495
H	 3.3627487396	 2.4852476551	-3.6447969482	 0.126597
50.4496	78.3013	96.3983	175.8555	209.3701	280.2723	333.7354	420.3124	502.1009	572.605	607.6605	659.0237	737.2675	815.3377	929.747	956.4667	974.5037	989.1664	1047.2638	1091.0091	1111.898	1123.1404	1161.9029	1203.1065	1216.4164	1244.1601	1275.7919	1311.335	1322.1948	1343.5038	1392.3769	1421.2724	1460.802	1473.9686	1516.6251	1829.3207	1851.2094	2942.9169	2967.9497	2976.234	3013.1388	3024.6638	3087.8829	3092.9705	3113.0399
O=CCC1COCC1=O	O=CC[C@H]1COCC1=O	
InChI=1S/C6H8O3/c7-2-1-5-3-9-4-6(5)8/h2,5H,1,3-4H2	InChI=1S/C6H8O3/c7-2-1-5-3-9-4-6(5)8/h2,5H,1,3-4H2/t5-/m0/s1
