20
gdb 70008	3.51551	1.40969	1.18695	1.5426	85.66	-0.2243	0.009	0.2333	1112.0881	0.171993	-365.956076	-365.948245	-365.947301	-365.987974	31.455	
C	 0.1025236159	 1.5726276639	 0.0908180959	-0.495284
C	 0.0022880272	 0.085320321	-0.0585268857	 0.235418
C	-0.9502526378	-0.7880183276	 0.6789299098	-0.269813
N	 0.4805839372	-0.9103925576	 1.017629611	-0.214616
C	 1.1820330738	-1.68403816	-0.1119341929	 0.029692
C	 0.9277865731	-3.0947664071	-0.662767577	-0.258103
C	 0.9508561021	-2.8173032945	-2.2095644179	-0.236111
C	 0.4197088993	-1.3822605413	-2.324025637	-0.24758
C	 0.5727882769	-0.7957286388	-1.142245448	 0.239552
H	 1.1297157897	 1.918833317	-0.0623081766	 0.126503
H	-0.5365741606	 2.0787935118	-0.6419541733	 0.124518
H	-0.2168447023	 1.8793062165	 1.0907124652	 0.130795
H	-1.5237093562	-0.3393608617	 1.4862019017	 0.117422
H	-1.4625870477	-1.5900132907	 0.1534697159	 0.112543
H	 2.2507255562	-1.5021010135	 0.0517939197	 0.090801
H	 1.6592298708	-3.8443458401	-0.3492986619	 0.097213
H	-0.0680951772	-3.4513960027	-0.377441747	 0.108122
H	 1.9689683704	-2.9180157769	-2.6115867028	 0.108379
H	 0.3283200538	-3.5256739977	-2.7667993507	 0.104718
H	-0.0607225846	-0.9979683001	-3.2161618382	 0.095829
147.6932	172.5452	183.4546	238.2618	306.9002	337.9842	458.3191	502.44	572.2252	610.8429	669.4091	704.5462	797.0321	814.7389	832.0487	879.0479	887.7338	913.8881	948.7236	953.8052	994.8539	1043.1762	1056.3732	1082.2938	1105.2766	1121.2874	1133.5315	1164.8576	1191.0612	1231.188	1256.4944	1272.3148	1306.7232	1324.7532	1335.4867	1367.358	1416.2664	1478.9576	1481.3701	1490.6255	1492.0877	1499.494	1732.6918	3008.6212	3031.024	3032.4031	3045.7617	3066.5172	3093.3641	3102.5459	3103.6148	3115.757	3188.7554	3197.5307
CC12CN1C1CCC=C21	C[C@]12CN1[C@H]1CC[CH][C]21	
InChI=1S/C8H11N/c1-8-5-9(8)7-4-2-3-6(7)8/h3,7H,2,4-5H2,1H3	InChI=1S/C8H11N/c1-8-5-9(8)7-4-2-3-6(7)8/h3,7H,2,4-5H2,1H3/t7-,8+,9?/m0/s1
