23
gdb 101756	2.87338	0.65668	0.56288	0.763	92.64	-0.2398	0.0433	0.2831	2073.7559	0.201636	-388.267209	-388.255258	-388.254314	-388.306699	40.778	
C	-0.0246644202	 1.6056556674	 0.1297072817	-0.386052
C	-0.033116809	 0.0801632918	 0.0113991341	-0.176461
C	-1.4406012054	-0.5190501319	-0.0150585808	 0.174685
C	-1.4173109068	-2.0346691315	-0.2327786985	-0.406453
O	-2.0515899927	-0.1741284432	 1.2266279684	-0.258366
C	-3.4660040995	-0.2441443372	 1.2293219071	-0.216264
C	-3.9860898314	 0.2816629634	 2.4848784978	 0.009198
C	-4.4365312859	 0.7093176845	 3.5153735752	 0.128652
C	-4.9721492627	 1.2295362056	 4.7645421225	-0.498491
H	 0.9979747212	 1.9914362052	 0.1815487193	 0.107466
H	-0.5125353842	 2.0723608031	-0.7338176176	 0.106392
H	-0.5588487322	 1.9214724076	 1.0288709764	 0.136795
H	 0.4912086768	-0.233498719	-0.8993272489	 0.091129
H	 0.5084192244	-0.3645200402	 0.8556879262	 0.104213
H	-2.0121211746	-0.0466741781	-0.8342508275	 0.058996
H	-2.425017907	-2.4598558895	-0.2526905339	 0.11505
H	-0.9390260672	-2.2765236838	-1.1873372566	 0.113993
H	-0.856156625	-2.5233238008	 0.5700604438	 0.124461
H	-3.8756054184	 0.3345629175	 0.3829539575	 0.110206
H	-3.8141386794	-1.281220538	 1.0958399745	 0.113531
H	-5.667549402	 2.057438066	 4.5876336133	 0.147504
H	-5.5098238109	 0.4557754235	 5.3235314681	 0.147383
H	-4.1687861276	 1.6046724376	 5.4080731777	 0.152433
27.7146	30.5541	70.1733	96.7341	112.5721	192.9981	203.2033	212.4113	248.7912	254.535	313.7937	376.8315	390.5403	439.9935	484.5846	532.6099	762.5052	793.2943	845.0771	912.1724	977.8801	997.175	1027.633	1033.7165	1051.7064	1058.2657	1093.268	1128.2083	1159.9171	1177.8257	1199.6852	1255.6224	1299.0288	1329.8653	1366.5811	1394.1302	1404.0813	1404.5534	1414.4444	1432.9346	1474.4736	1476.9855	1479.2878	1491.7655	1494.6393	1495.8563	1507.5623	1511.1507	2380.0274	2940.3494	2951.3798	2977.0456	3026.8252	3027.7016	3034.8043	3039.1362	3064.5212	3088.0217	3089.9265	3098.7717	3108.675	3113.7072	3127.831
CCC(C)OCC#CC	CC[C@@H](C)OCC#CC	
InChI=1S/C8H14O/c1-4-6-7-9-8(3)5-2/h8H,5,7H2,1-3H3	InChI=1S/C8H14O/c1-4-6-7-9-8(3)5-2/h8H,5,7H2,1-3H3/t8-/m1/s1
