18
gdb 113296	2.6009	1.15012	0.92042	2.5425	75.67	-0.2427	-0.0503	0.1924	1309.6021	0.144335	-439.073371	-439.063762	-439.062817	-439.108154	33.968	
C	 0.0370649531	 1.444209875	-0.178524511	-0.379592
C	 0.0441953241	-0.0155483246	 0.2683790849	-0.136432
N	-1.3036546945	-0.5757681377	 0.0942912827	-0.11602
C	-1.6439015551	-1.2012035852	-1.1430980253	-0.259946
C	-1.5105931186	-2.0490097606	 0.1113476371	 0.094276
C	-0.3693187179	-3.0186806391	 0.1666198744	 0.086327
O	 0.6670874057	-2.892668981	-0.4438515069	-0.269214
C	-2.7614299035	-2.4455977544	 0.8273023575	 0.123438
O	-2.9704408029	-3.5489947682	 1.266075959	-0.259512
H	 1.0195397211	 1.8936753655	-0.0075032045	 0.122732
H	-0.1891156644	 1.5275958607	-1.2464946527	 0.121792
H	-0.7114143776	 2.0188349988	 0.3739098148	 0.129014
H	 0.8037732769	-0.5858171351	-0.2780563971	 0.135925
H	 0.2834021383	-0.082088848	 1.3351930384	 0.111717
H	-2.6394651962	-1.0071400405	-1.5361103537	 0.13234
H	-0.859967879	-1.3746270214	-1.8795355128	 0.148956
H	-0.5524549506	-3.8816206257	 0.8337321158	 0.121058
H	-3.4938335289	-1.6152590685	 0.9245076095	 0.093139
71.7799	100.4114	148.0588	157.8352	198.4089	213.4719	259.9562	299.739	311.7168	417.3108	431.8392	517.0211	684.9896	714.4683	769.6194	819.7867	893.7519	934.0366	977.7959	1022.6351	1053.1293	1067.1357	1108.1534	1115.7404	1147.8887	1204.0252	1276.5478	1308.4532	1342.1409	1385.0984	1407.879	1414.6538	1425.0456	1488.3863	1489.4747	1499.6309	1519.7775	1796.8071	1818.937	2906.2854	2967.5187	3037.8611	3042.032	3079.7477	3088.5177	3113.1225	3124.0036	3183.1553
CCN1CC1(C=O)C=O	CCN1CC1(C=O)C=O	
InChI=1S/C6H9NO2/c1-2-7-3-6(7,4-8)5-9/h4-5H,2-3H2,1H3	InChI=1S/C6H9NO2/c1-2-7-3-6(7,4-8)5-9/h4-5H,2-3H2,1H3
