20
gdb 77068	2.90487	1.17774	1.04356	4.046	79.82	-0.247	0.0185	0.2655	1235.6978	0.170665	-399.322204	-399.312491	-399.311546	-399.356485	36.542	
C	-0.8521836645	 1.4971853892	 0.0882672158	-0.418609
C	-0.1337257106	 0.1547158668	 0.0596551193	 0.319408
C	-1.0880295205	-0.9717914914	-0.3499641256	-0.441947
N	 1.1283039612	 0.1850488815	-0.7425149783	-0.3375
C	 1.8644239777	-0.5866458623	 0.2742398075	-0.171476
C	 3.2012793171	-0.0887616141	 0.5868455252	 0.293395
N	 4.2429957016	 0.3136363766	 0.8869268356	-0.330352
C	 0.7200649196	-0.2370039642	 1.3176107235	-0.025046
N	 0.9374271674	 0.8122549023	 2.2781214701	-0.505465
H	-0.1695749406	 2.3106373177	 0.3394501704	 0.119044
H	-1.278696026	 1.7119184669	-0.89797811	 0.111931
H	-1.6660179369	 1.4907653611	 0.8193224185	 0.123568
H	-1.493645269	-0.7879592934	-1.3513508936	 0.119036
H	-0.5834016293	-1.9440013291	-0.361674782	 0.113067
H	-1.933004021	-1.0399913822	 0.3433590392	 0.127155
H	 1.0845593255	-0.2447065008	-1.661139349	 0.219259
H	 1.9301609138	-1.6671920017	 0.0889108898	 0.105287
H	 0.3506408794	-1.1180296588	 1.8461413299	 0.089398
H	 1.5193414162	 0.4831813048	 3.0420019961	 0.242105
H	 1.4244884988	 1.6002259411	 1.8618709777	 0.24774
53.3708	132.3437	185.9668	194.2081	252.6754	263.1353	281.1745	322.8054	343.8066	378.9651	402.8862	511.9304	527.7464	575.7062	678.2424	733.1303	795.2938	846.2126	875.9306	936.019	954.8641	971.4142	985.1159	1003.8665	1071.1449	1119.4245	1135.8532	1194.959	1218.6688	1248.775	1253.8697	1289.1134	1348.185	1394.4432	1403.5497	1417.307	1435.6885	1473.826	1482.6459	1501.2623	1504.2805	1664.2617	2349.9059	3007.6722	3023.9031	3040.41	3088.783	3094.2504	3098.2772	3107.7215	3137.4022	3502.6017	3519.0624	3579.0245
CC1(C)NC(C#N)C1N	CC1(C)N[C@@H](C#N)[C@H]1N	
InChI=1S/C6H11N3/c1-6(2)5(8)4(3-7)9-6/h4-5,9H,8H2,1-2H3	InChI=1S/C6H11N3/c1-6(2)5(8)4(3-7)9-6/h4-5,9H,8H2,1-2H3/t4-,5+/m0/s1
