19
gdb 83591	2.16235	1.91136	1.7806	1.0491	69.02	-0.245	0.0771	0.3221	921.6613	0.162646	-460.165902	-460.158804	-460.157859	-460.196982	29.33	
O	 0.1043635057	 1.3710113687	 0.1290740534	-0.45015
C	-0.0010843232	-0.0234307289	-0.0039427496	 0.135418
C	-1.4224002225	-0.5836806919	-0.2461699516	 0.071756
C	-2.0838590861	 0.2194135368	-1.3731037232	-0.24237
C	-1.2205858597	 0.1190585091	-2.6417515659	-0.082958
O	 0.1841323835	 0.2444535636	-2.3730663323	-0.294499
C	 0.6416637569	-0.5732108091	-1.2888665045	 0.04189
C	 0.0994473784	-2.0008003243	-1.3013812259	-0.110334
O	-1.1808142784	-1.9387672556	-0.651418989	-0.283431
H	 0.1933678641	 1.7161345371	-0.7698629168	 0.288087
H	 0.4365566941	-0.4850844075	 0.8871916192	 0.088463
H	-2.0442930872	-0.6141637724	 0.6510715478	 0.081544
H	-3.0863551311	-0.1653527869	-1.5841377732	 0.1073
H	-2.1837619207	 1.2596152342	-1.0465400537	 0.11317
H	-1.4138642923	-0.8387755951	-3.1414594632	 0.112642
H	-1.4524882592	 0.915732874	-3.3530920759	 0.1129
H	 1.7315906322	-0.5192047113	-1.3131356682	 0.090566
H	-0.0089414697	-2.4016627488	-2.3155443261	 0.113081
H	 0.7648649151	-2.6683115717	-0.7388379615	 0.106925
185.5857	206.7801	288.9711	303.4542	392.0007	412.3046	494.8996	512.3625	553.937	596.6782	744.1266	762.2794	811.5719	833.1375	868.56	909.7484	934.1246	991.9329	1004.7447	1045.5192	1054.891	1076.8422	1115.1291	1124.9781	1138.5663	1200.5465	1210.2326	1252.1645	1267.176	1278.1062	1304.1313	1331.8283	1354.1322	1359.8418	1378.6364	1380.8347	1411.9268	1439.2615	1475.7994	1504.978	1524.2328	3018.3065	3023.9361	3050.9509	3059.0018	3062.8263	3089.8899	3093.2849	3102.8882	3104.8556	3750.4762
OC1C2CCOC1CO2	O[C@H]1[C@H]2CCO[C@@H]1CO2	
InChI=1S/C6H10O3/c7-6-4-1-2-8-5(6)3-9-4/h4-7H,1-3H2	InChI=1S/C6H10O3/c7-6-4-1-2-8-5(6)3-9-4/h4-7H,1-3H2/t4-,5-,6+/m1/s1
