16
gdb 47038	3.19131	1.58993	1.33432	3.1744	65.56	-0.2552	0.039	0.2942	963.4376	0.126171	-475.011255	-475.004183	-475.003239	-475.043216	26.951	
N	-0.2171567203	 1.1436306167	 0.4463110212	-0.548255
C	-0.0803525126	 0.0043758496	-0.0726725866	 0.453779
O	 1.0530370114	-0.7437431852	 0.01205526	-0.257293
C	 1.2727943691	-1.7393613972	-0.9982338814	-0.112485
C	 0.1110944941	-2.7064508333	-1.0494388571	 0.093947
O	-0.0552753876	-3.4577013529	 0.1688680059	-0.28973
C	-1.2613544856	-2.7379353351	 0.5161210081	-0.104994
C	-1.2131722585	-1.9550886299	-0.8135287232	 0.059183
O	-1.1118181352	-0.5414773822	-0.7660323831	-0.238228
H	 0.6700843727	 1.4437425644	 0.8459985507	 0.229841
H	 1.4106898102	-1.2605496786	-1.9768580434	 0.12144
H	 2.1972792341	-2.2456466474	-0.7135009405	 0.139233
H	 0.1755325074	-3.3557871122	-1.9304140686	 0.090404
H	-2.1179763806	-3.4080083223	 0.6445618585	 0.114942
H	-1.137191527	-2.1209660593	 1.4131514466	 0.132435
H	-2.0237949116	-2.1601924452	-1.5104483869	 0.11578
73.4254	138.6026	207.7785	330.2637	399.6912	435.6775	522.4707	570.0806	723.5162	750.2977	785.0672	834.586	849.2659	878.1305	886.31	968.209	972.723	1010.6937	1052.8523	1066.9792	1090.9779	1129.8209	1151.3705	1196.9415	1243.9644	1256.2553	1284.2773	1297.6495	1349.9432	1358.8485	1408.0595	1420.5425	1484.8038	1515.8304	1771.5217	3023.0763	3033.1532	3047.0625	3084.488	3119.8928	3134.7587	3522.7324
N=C1OCC2OCC2O1	[NH][C]1OC[C@H]2OC[C@H]2O1	
InChI=1S/C5H7NO3/c6-5-8-1-3-4(9-5)2-7-3/h3-4,6H,1-2H2	InChI=1S/C5H7NO3/c6-5-8-1-3-4(9-5)2-7-3/h3-4,6H,1-2H2/t3-,4-/m1/s1
