17
gdb 45107	2.76029	1.8107	1.27912	4.5074	71.47	-0.2509	0.0096	0.2605	980.8224	0.13787	-421.835157	-421.82816	-421.827215	-421.866671	28.063	
O	 0.0293611614	 0.0249323125	 0.2914348349	-0.328874
C	 0.0367869023	 1.1817167805	-0.0288490579	 0.417902
O	-1.1605235951	 1.8333979629	-0.1759170311	-0.241864
C	-1.3138161071	 2.9577483732	-1.0144602751	 0.103997
C	-1.2605890048	 4.3351237102	-0.4229479517	-0.321656
C	-0.1296936189	 3.8347170356	-1.3005822679	-0.069087
C	 1.2006834574	 3.3914418876	-0.7567190444	-0.047882
C	 1.4585355446	 3.199170731	 0.7037130735	-0.305161
C	 1.2790562344	 1.9820336051	-0.1952538892	-0.157175
H	-2.0359838461	 2.748473161	-1.7970293054	 0.113137
H	-1.9287509042	 5.0878055114	-0.8260357169	 0.12192
H	-1.086452995	 4.4128372956	 0.6437480875	 0.129106
H	-0.0772384756	 4.2475044849	-2.3021971528	 0.101075
H	 2.0528420674	 3.7035319561	-1.3502929705	 0.101783
H	 2.4599021792	 3.3843207375	 1.0741648239	 0.130138
H	 0.6725086145	 3.4149035996	 1.4175480538	 0.134575
H	 2.1496766254	 1.3690998654	-0.3883590709	 0.118064
82.6663	199.0136	246.4843	369.0285	420.3533	468.5424	502.8482	554.0401	682.8023	723.1801	745.5063	794.9978	815.8672	839.9022	871.616	940.8402	950.3277	994.3499	1002.5169	1036.5829	1055.7251	1070.1696	1092.7711	1120.5261	1124.1252	1129.3349	1168.6202	1209.2155	1227.2815	1261.8967	1360.7576	1378.5827	1405.2711	1410.5132	1479.8889	1493.6876	1843.3177	3141.452	3148.1176	3154.1801	3160.9104	3172.9574	3201.5827	3230.1723	3235.3076
O=C1OC2CC2C2CC12	O=C1O[C@H]2C[C@H]2[C@H]2C[C@@H]12	
InChI=1S/C7H8O2/c8-7-5-1-3(5)4-2-6(4)9-7/h3-6H,1-2H2	InChI=1S/C7H8O2/c8-7-5-1-3(5)4-2-6(4)9-7/h3-6H,1-2H2/t3-,4+,5-,6+/m1/s1
