18
gdb 66103	2.62822	1.48202	1.32558	4.1014	74.71	-0.2506	0.0347	0.2853	1044.9882	0.148242	-401.950137	-401.942039	-401.941095	-401.982512	31.3	
C	-0.0266704934	 1.52774929	-0.022119082	-0.43149
C	 0.0104053693	-0.0102954055	 0.0156821349	 0.07596
C	 0.8390669383	-0.610671278	-1.1693926375	-0.124009
O	 1.4113724402	-1.8223913838	-0.7106274429	-0.247645
C	 1.5684355817	-1.7336391263	 0.6823400191	 0.122568
C	 2.2462332373	-0.5161013716	 1.2531630682	-0.357779
C	 0.7293193002	-0.6163781482	 1.2284559186	-0.084998
C	-1.3633544013	-0.5347057286	-0.0149106309	 0.266979
N	-2.4485395211	-0.932297386	-0.0377188107	-0.341375
H	 0.9888210249	 1.9231468871	 0.0631144767	 0.127055
H	-0.4655353119	 1.8873840114	-0.9574394232	 0.137322
H	-0.6219690422	 1.9233811795	 0.804356476	 0.140776
H	 0.2315391172	-0.8274008819	-2.050395476	 0.13698
H	 1.6159546097	 0.1128279614	-1.4534228937	 0.102791
H	 1.6656829782	-2.7084818539	 1.1428927435	 0.115276
H	 2.7182905139	-0.6191785914	 2.2239552256	 0.125812
H	 2.7549641	 0.1703119171	 0.5850330435	 0.123389
H	 0.1794477289	-0.6979489514	 2.1575185911	 0.112389
114.0698	151.7993	211.4656	227.767	266.3316	323.4963	385.2369	458.2724	492.9311	550.0508	624.1884	710.4652	741.685	796.9756	828.5921	888.7951	910.2049	961.0254	982.1579	1009.5995	1036.5028	1056.0897	1067.4302	1102.9126	1133.1846	1172.7638	1192.7385	1199.0151	1207.1494	1259.5543	1325.4506	1369.3193	1396.7302	1414.3043	1477.7894	1487.1402	1497.9759	1523.1182	2352.6275	3005.6273	3047.2113	3108.8969	3121.3074	3129.6235	3137.3475	3190.1383	3200.8484	3222.9741
CC1(COC2CC12)C#N	C[C@]1(CO[C@H]2C[C@@H]12)C#N	
InChI=1S/C7H9NO/c1-7(3-8)4-9-6-2-5(6)7/h5-6H,2,4H2,1H3	InChI=1S/C7H9NO/c1-7(3-8)4-9-6-2-5(6)7/h5-6H,2,4H2,1H3/t5-,6+,7-/m1/s1
