12
gdb 5345	6.2481	1.58338	1.26325	2.3272	71.58	-0.2597	-0.0652	0.1945	880.1414	0.085689	-340.40165	-340.395413	-340.394468	-340.432031	23.273	
C	 0.0172635581	-1.1920811923	-0.0035440443	-0.354196
C	-0.0165535874	 0.0103352724	 0.0034709892	 0.224642
C	-0.0179401301	 1.4391244401	 0.0110074713	 0.180296
N	-1.2065340038	 2.0688731666	 0.0302631244	-0.296593
C	-1.1648764285	 3.3987769584	 0.0367715316	 0.068425
N	-0.0823140636	 4.1809804329	 0.0264421319	-0.24497
C	 1.0890529464	 3.5394761775	 0.0073752254	 0.024402
C	 1.1840702179	 2.1553359604	-0.0012431595	-0.178552
H	 0.0308688551	-2.2544129245	-0.0096656221	 0.205675
H	-2.1264027009	 3.9066156816	 0.0523214433	 0.124645
H	 1.9833333992	 4.1583406598	-0.0012877992	 0.125081
H	 2.1393435477	 1.646023827	-0.016706912	 0.121144
133.3423	159.3313	333.8793	384.2295	485.1906	542.9638	582.8653	651.1759	655.3086	690.1459	809.5582	810.3567	872.4049	990.6427	1002.9521	1025.1678	1095.6867	1191.6387	1229.7414	1263.4658	1329.8213	1419.5095	1490.321	1575.1008	1611.7776	2234.8974	3158.6999	3166.6547	3215.8948	3500.2255
C#CC1=NC=NC=C1	C#Cc1ncncc1	
InChI=1S/C6H4N2/c1-2-6-3-4-7-5-8-6/h1,3-5H	InChI=1S/C6H4N2/c1-2-6-3-4-7-5-8-6/h1,3-5H
