19
gdb 64157	3.60706	0.96969	0.91401	3.6009	80.91	-0.2496	-0.0577	0.1919	1336.3475	0.157759	-423.05759	-423.048436	-423.047492	-423.09145	34.248	
C	 0.2461976582	 1.4595944726	 0.0089629928	-0.444043
C	-0.1015919299	-0.0352841666	 0.0244534815	 0.378301
O	-1.5189812821	-0.2122659267	 0.0091053012	-0.465951
C	 0.4833990519	-0.8111698409	-1.1852214652	-0.262559
C	 1.7668476097	-1.5076050446	-0.6748252717	-0.321026
C	 1.5647273984	-1.5305540255	 0.8237866122	 0.240317
C	 2.3970768505	-2.3104744916	 1.7448667865	 0.074981
O	 3.3325633746	-2.9979700374	 1.3991340825	-0.268949
C	 0.5522185428	-0.7390117529	 1.1997672477	-0.215807
H	 1.326274307	 1.615317887	-0.0714179772	 0.128184
H	-0.242365046	 1.9428516085	-0.842851991	 0.130455
H	-0.0916383424	 1.9533111964	 0.9284946591	 0.108026
H	-1.9077846955	 0.4009147321	 0.6422435831	 0.276894
H	-0.2613173115	-1.5575540516	-1.4736626149	 0.125314
H	 0.6566522691	-0.1633084356	-2.0478092857	 0.101326
H	 1.9098108069	-2.5105785321	-1.0862534331	 0.126376
H	 2.6730137993	-0.9430856899	-0.9273727012	 0.118973
H	 2.1052448871	-2.2308701575	 2.8162710859	 0.066924
H	 0.230123052	-0.5772773537	 2.2248132775	 0.102264
73.6505	115.3015	178.6403	193.5343	258.7776	268.495	321.5619	340.4498	399.6618	413.972	492.1937	530.1741	602.774	719.8589	757.3567	846.3106	880.7409	898.1241	943.9686	953.4069	983.7515	1004.0335	1037.0535	1084.47	1117.8985	1174.325	1177.2764	1217.1631	1267.9704	1289.3753	1313.281	1362.9203	1375.5544	1401.9203	1422.0048	1480.2286	1488.2936	1493.2589	1499.3056	1684.813	1785.4581	2877.6959	3023.8234	3036.2849	3067.1895	3088.2711	3092.8574	3114.9056	3116.71	3175.5362	3805.5011
CC1(O)CCC(C=O)=C1	C[C@@]1(O)CCC(=C1)C=O	
InChI=1S/C7H10O2/c1-7(9)3-2-6(4-7)5-8/h4-5,9H,2-3H2,1H3	InChI=1S/C7H10O2/c1-7(9)3-2-6(4-7)5-8/h4-5,9H,2-3H2,1H3/t7-/m1/s1
