20
gdb 65663	3.22577	1.23692	1.09236	3.6022	79.78	-0.2314	-0.0216	0.2098	1171.7785	0.17049	-403.067171	-403.058575	-403.057631	-403.10108	32.571	
C	-0.1353962352	 1.560514379	-0.4524020369	-0.484988
C	-0.0204621757	 0.0698694742	-0.1284261342	 0.384076
C	-1.4581661354	-0.4263066459	 0.1817556598	-0.375461
C	-1.8327334363	-0.1016213067	 1.6160985178	 0.174447
O	-2.5070490468	 0.8425974229	 1.941601542	-0.243973
C	 0.9531899707	-0.8605546871	-0.9190849344	-0.117291
C	 2.0854030512	-0.1062311974	-0.188706683	-0.180261
N	 1.0603366187	-0.3177606851	 0.9448987495	-0.181514
C	 0.9691765512	-1.7379921924	 0.3510457383	-0.176348
H	 0.8140018708	 2.0906809324	-0.504957094	 0.12359
H	-0.6405457177	 1.6827884312	-1.4169755002	 0.123614
H	-0.7533366373	 2.0551351725	 0.3026062071	 0.153356
H	-2.1590889823	 0.0913872992	-0.477678444	 0.121022
H	-1.5738453348	-1.5009173226	 0.0216740642	 0.111996
H	-1.4189656024	-0.7975545405	 2.3770449902	 0.091767
H	 0.8971639974	-1.1687362663	-1.9701446086	 0.064532
H	 3.0155503269	-0.6524405829	-0.0159246721	 0.103602
H	 2.2975934234	 0.9307067226	-0.4369920151	 0.10615
H	 0.0840298912	-2.3011957227	 0.6426462062	 0.097901
H	 1.8682066125	-2.3301191944	 0.5359850973	 0.103783
52.0448	73.5346	154.9212	177.8866	259.1931	360.6659	421.7907	434.4885	520.4286	545.6653	615.9728	673.3757	751.8223	784.8776	817.9127	871.036	900.5868	915.8983	944.0057	980.2524	1008.9473	1030.7896	1062.5234	1065.6292	1106.0104	1122.2896	1151.8077	1171.5332	1194.8762	1203.3431	1223.4915	1236.3472	1266.5055	1290.0857	1309.348	1420.7495	1428.663	1477.9267	1496.8176	1498.6548	1537.7016	1571.9663	1823.8815	2902.093	3026.931	3045.3511	3063.9651	3075.3252	3084.7679	3107.4298	3114.317	3144.371	3146.314	3169.154	52.0513	73.5365	154.9232	177.8887	259.1933	360.666	421.7907	434.4883	520.4288	545.6654	615.9728	673.3757	751.8221	784.8773	817.9121	871.036	900.5866	915.8982	944.0055	980.2524	1008.9472	1030.7892	1062.5232	1065.6293	1106.0099	1122.2889	1151.8074	1171.5335	1194.876	1203.3427	1223.4906	1236.3468	1266.5054	1290.0851	1309.3479	1420.7484	1428.6625	1477.9258	1496.8163	1498.6533	1537.7014	1571.9661	1823.882	2902.0931	3026.9309	3045.3512	3063.9652	3075.3252	3084.7678	3107.4298	3114.317	3144.371	3146.314	3169.154
CC1(CC=O)C2CN1C2	C[C@@]1(CC=O)[C@H]2CN1C2	
InChI=1S/C7H11NO/c1-7(2-3-9)6-4-8(7)5-6/h3,6H,2,4-5H2,1H3	InChI=1S/C7H11NO/c1-7(2-3-9)6-4-8(7)5-6/h3,6H,2,4-5H2,1H3/t7-/m1/s1
