17
gdb 49998	3.53094	1.08856	1.0112	2.4084	74.66	-0.2385	-0.0308	0.2078	1202.9803	0.135655	-417.932903	-417.925088	-417.924144	-417.965656	29.624	
O	-0.339346743	 0.6163946671	 0.8571964081	-0.260851
C	 0.2581130826	 0.910536992	-0.1479577814	 0.180437
C	 1.437158182	 1.8147770876	-0.1822690011	-0.210329
N	 2.2997227571	 1.6816965226	-1.3852823226	-0.381696
C	 1.5355203601	 2.8909612654	-1.2256418215	 0.348858
C	 0.5777662489	 3.4237994667	-2.2981203071	-0.24429
N	 1.185784966	 4.8029609655	-2.1937082236	-0.119053
C	 0.9584131753	 5.2348815185	-0.8051499686	-0.236789
C	 2.0686988477	 4.2923429819	-1.0638082898	-0.123017
H	-0.0397081859	 0.5286493979	-1.1499580029	 0.083942
H	 1.8889344185	 2.0249542009	 0.784277306	 0.108488
H	 3.2763089873	 1.8167653982	-1.1334075313	 0.245467
H	 0.7773919143	 2.9913249991	-3.2803010343	 0.133696
H	-0.4968388542	 3.4023343625	-2.0917036962	 0.116636
H	 1.2139527447	 6.2768187094	-0.6380611846	 0.129878
H	 0.07088499	 4.8906979901	-0.2778913787	 0.123105
H	 3.1171194386	 4.5635842847	-0.9785253205	 0.105519
76.751	124.3333	172.3316	228.7448	366.7721	372.0954	443.854	488.252	497.7503	572.0865	746.567	776.4544	797.748	872.8834	927.152	960.9747	974.5374	981.7648	1019.7804	1037.3342	1059.7071	1067.3738	1086.1701	1115.024	1120.1507	1197.8385	1201.9801	1211.9801	1265.2059	1273.5312	1313.8336	1339.6601	1404.0414	1466.7635	1486.8985	1504.4183	1821.2077	2890.0496	3054.2928	3103.659	3124.3986	3148.2532	3153.6025	3198.9884	3498.6752
O=CC1NC11CN2CC12	O=C[C@H]1N[C@]21CN1C[C@@H]21	
InChI=1S/C6H8N2O/c9-2-4-6(7-4)3-8-1-5(6)8/h2,4-5,7H,1,3H2	InChI=1S/C6H8N2O/c9-2-4-6(7-4)3-8-1-5(6)8/h2,4-5,7H,1,3H2/t4-,5+,6+,8?/m1/s1
