17
gdb 13663	3.95643	1.24918	1.14506	3.1681	68.73	-0.266	0.0114	0.2775	1093.8218	0.140951	-363.847715	-363.839187	-363.838242	-363.881454	30.295	
C	-0.3845528922	 1.4813781806	 0.1366960731	-0.397908
C	 0.3297698647	 0.1507814224	 0.0442124512	-0.033689
C	 1.7680925526	 0.0183149464	 0.5077416199	-0.316399
C	 0.6488779458	-0.640426604	 1.2763217863	 0.111217
O	 0.2281385452	-0.0988908474	 2.5020667621	-0.228474
C	 0.940979303	-0.5719412551	 3.6169363494	-0.194012
C	 2.3028538112	-0.0118957866	 3.737494598	 0.262646
N	 3.3639271307	 0.4312160316	 3.8489709716	-0.308809
H	-0.1018952429	 2.0168228512	 1.04574933	 0.130494
H	-0.1380669436	 2.1120493018	-0.72360914	 0.119028
H	-1.471150651	 1.3458111867	 0.155054782	 0.119604
H	 0.0542059023	-0.4512637826	-0.817621207	 0.090615
H	 2.4569058131	-0.6089596666	-0.0471958942	 0.116752
H	 2.2180061443	 0.894325839	 0.9610062912	 0.138737
H	 0.5602040454	-1.7266444921	 1.237812686	 0.089314
H	 0.3706697817	-0.2801084523	 4.5041364597	 0.160399
H	 1.0197183294	-1.6695045631	 3.6138756408	 0.140482
42.7965	90.7039	165.3944	194.8438	229.2789	287.7598	351.015	373.1734	453.1199	517.0134	637.9474	749.5092	823.752	856.9976	902.6494	922.9406	973.2835	1023.3228	1052.1915	1064.252	1101.2862	1111.6499	1148.3544	1177.879	1195.1138	1244.1915	1304.7484	1368.0441	1393.7323	1419.3615	1421.73	1469.3959	1484.9586	1495.0565	1505.267	2357.8812	3001.6035	3038.4627	3088.5906	3094.0638	3097.2928	3124.0395	3139.7409	3146.1083	3229.7837
CC1CC1OCC#N	C[C@H]1C[C@H]1OCC#N	
InChI=1S/C6H9NO/c1-5-4-6(5)8-3-2-7/h5-6H,3-4H2,1H3	InChI=1S/C6H9NO/c1-5-4-6(5)8-3-2-7/h5-6H,3-4H2,1H3/t5-,6+/m0/s1
