22
gdb 78506	2.44474	1.57598	1.28951	0.8684	87.2	-0.1981	0.091	0.2891	1133.9927	0.19334	-367.154922	-367.145836	-367.144892	-367.187953	35.332	
C	-0.0758463912	 1.5371853737	 0.0637536277	-0.326415
N	 0.0927638569	 0.0912751295	 0.0264218728	-0.074511
C	 0.7819314518	-0.5194326626	-1.1028885235	-0.124768
C	 2.3197861738	-0.5560609162	-0.8345219822	 0.275913
C	 3.3353437266	-0.6983301149	-1.9282670451	-0.507802
C	 2.4989680172	 0.0770967851	 0.5445124927	-0.303771
C	 1.1176576913	-0.5547207562	 0.894418171	-0.07621
C	 1.3724207896	-1.6071333836	-0.2622532374	 0.28775
C	 1.3078893758	-3.0971948895	-0.3209260237	-0.533018
H	 0.8329989998	 2.118302631	-0.1588631914	 0.098408
H	-0.84035952	 1.8216891837	-0.6675132076	 0.11675
H	-0.4380489902	 1.8308238067	 1.055042019	 0.115443
H	 0.3652694211	-0.5630367053	-2.103735118	 0.083237
H	 3.6230295444	 0.279286826	-2.3332524419	 0.119762
H	 4.248818967	-1.1914019494	-1.5742856617	 0.115439
H	 2.9429203058	-1.2934788793	-2.7608313232	 0.115327
H	 3.2971416667	-0.424180599	 1.1008878623	 0.094759
H	 2.6205124634	 1.1619985405	 0.6395521029	 0.084934
H	 0.829071762	-0.7564518708	 1.9261438175	 0.069061
H	 0.3111329924	-3.4644110684	-0.0513391361	 0.128944
H	 1.5302582064	-3.4545829395	-1.3324021924	 0.121912
H	 2.0311815694	-3.5629254316	 0.3587236184	 0.11886
155.7233	168.2526	188.4598	193.559	198.3433	226.1014	282.5589	336.1912	372.354	484.4911	583.9747	594.1336	640.478	695.3762	737.3368	793.1059	883.9891	896.1011	918.1704	942.8637	977.3311	990.539	1022.5022	1088.1545	1103.7261	1120.8553	1136.749	1153.4045	1158.1995	1174.0968	1197.4297	1229.6297	1233.678	1248.9349	1298.7962	1345.9024	1410.9225	1416.2485	1442.8652	1464.6577	1482.8051	1483.5317	1487.6141	1495.3072	1496.0886	1505.9836	1518.0088	2974.5863	3015.2237	3020.7365	3035.2007	3058.1556	3072.9614	3079.8363	3082.8372	3086.6258	3090.1902	3094.1534	3111.921	3168.3424
CN1C2C3(C)CC1C23C	CN1[C@H]2[C@@]3(C)C[C@@H]1[C@@]23C	
InChI=1S/C8H13N/c1-7-4-5-8(7,2)6(7)9(5)3/h5-6H,4H2,1-3H3	InChI=1S/C8H13N/c1-7-4-5-8(7,2)6(7)9(5)3/h5-6H,4H2,1-3H3/t5-,6+,7-,8+/m1/s1
