21
gdb 117590	2.06118	1.08384	0.90907	0.6733	90.76	-0.2598	0.0339	0.2937	1447.7816	0.178081	-349.891674	-349.880647	-349.879703	-349.927476	40.673	
C	-0.0357519172	 1.6259220253	-0.0498246087	-0.384623
C	 0.0206000615	 0.097072987	 0.032867218	-0.188667
C	 0.716035956	-0.5172857414	-1.1856063063	-0.176629
C	 0.7285492051	-2.0811523237	-1.2375915186	-0.148018
C	 1.4870651783	-2.6813675251	-0.0222185323	-0.405326
C	-0.6494045379	-2.597681791	-1.2578014181	 0.370515
C	-1.7768520395	-3.013306777	-1.2509657253	-0.498887
C	 1.4146016924	-2.4902487343	-2.4735946466	 0.340354
C	 2.0064049464	-2.8004393567	-3.4720655867	-0.464921
H	 0.9687966677	 2.0598009309	-0.107187615	 0.114484
H	-0.5882884668	 1.9546017362	-0.9368196105	 0.117427
H	-0.5317211967	 2.0507864276	 0.8282446627	 0.113288
H	 0.5430023791	-0.1939559091	 0.9515675615	 0.09849
H	-0.9950883863	-0.3068709777	 0.11063238	 0.113731
H	 0.2314869748	-0.1609185131	-2.1009398822	 0.113231
H	 1.7596451752	-0.1842838702	-1.2328409512	 0.104443
H	 0.9679032364	-2.4446442433	 0.908637414	 0.129161
H	 1.5500057197	-3.7671550362	-0.1165998045	 0.135318
H	 2.5012668068	-2.2742578662	 0.0180503705	 0.12342
H	-2.7707542561	-3.3873539024	-1.2593293206	 0.197947
H	 2.5158590612	-3.0834924097	-4.3597637401	 0.195263
75.7426	96.4065	118.2641	131.9603	179.3032	213.4741	241.0999	254.6549	292.2192	321.0219	384.0307	465.2488	491.436	564.2882	585.8547	631.936	633.732	637.9099	642.5493	705.8478	748.0011	864.2674	898.1455	941.7549	953.2862	1022.7147	1050.5978	1106.4313	1142.1198	1184.9556	1215.2303	1285.5937	1319.8045	1338.5766	1391.9014	1403.7506	1413.8225	1476.4032	1487.5899	1494.1936	1498.0419	1500.2294	1511.4176	2232.6785	2238.7743	3029.6302	3031.2837	3038.7797	3051.9072	3064.2248	3083.1644	3101.5851	3104.035	3131.2598	3140.8032	3501.5564	3502.8889
CCCC(C)(C#C)C#C	CCCC(C)(C#C)C#C	
InChI=1S/C9H12/c1-5-8-9(4,6-2)7-3/h2-3H,5,8H2,1,4H3	InChI=1S/C9H12/c1-5-8-9(4,6-2)7-3/h2-3H,5,8H2,1,4H3
