16
gdb 44948	2.70678	1.84739	1.63652	2.1465	64.61	-0.2577	0.0179	0.2756	883.4929	0.127297	-475.033509	-475.026953	-475.026009	-475.064363	26.226	
N	-0.0451432336	 1.2750257453	-0.0207283676	-0.551107
C	-0.0079623387	 0.0182442318	-0.0124451771	 0.446874
O	 1.1072048606	-0.7767487021	-0.0358887171	-0.245404
C	 0.6346328384	-2.132255646	 0.0507045193	 0.167486
C	 0.4691509362	-2.5341392535	 1.5188614754	-0.099483
O	-0.3621096112	-1.6070571715	 2.1983092813	-0.260089
C	-1.5461898143	-1.2640114759	 1.4843905843	-0.08209
C	-1.1970647899	-0.9303136495	 0.0321403509	-0.052145
O	-0.6353977382	-2.1132381096	-0.561725566	-0.259317
H	 0.8957229925	 1.6721869403	-0.0244208903	 0.229916
H	 1.3105466837	-2.7827011391	-0.5074990414	 0.109347
H	 0.0495008729	-3.552065337	 1.546105269	 0.105338
H	 1.4304569438	-2.5291617002	 2.0395211148	 0.126255
H	-2.2695733134	-2.0932855023	 1.4925831623	 0.106594
H	-1.9751342193	-0.4001773527	 1.9982683836	 0.137051
H	-2.0508002397	-0.592513748	-0.5534078014	 0.120772
136.9631	238.92	281.9246	374.6332	429.8502	453.3739	496.1532	656.1116	682.6834	746.2908	826.4602	853.4425	868.335	895.9578	904.709	924.0591	983.9871	1023.2849	1035.9818	1052.2602	1098.8975	1137.3747	1157.7101	1228.2216	1258.8739	1272.6778	1305.1062	1322.7732	1362.9111	1368.1852	1387.0081	1412.7302	1478.868	1489.6135	1807.9527	2989.8962	2998.3188	3099.0542	3107.1818	3110.9704	3139.5605	3477.571
N=C1OC2COCC1O2	[NH][C]1O[C@H]2COC[C@@H]1O2	
InChI=1S/C5H7NO3/c6-5-3-1-7-2-4(8-3)9-5/h3-4,6H,1-2H2	InChI=1S/C5H7NO3/c6-5-3-1-7-2-4(8-3)9-5/h3-4,6H,1-2H2/t3-,4-/m0/s1
