15
gdb 16364	2.75459	2.23153	1.40964	4.4662	62.98	-0.2346	-0.0282	0.2064	866.5411	0.117926	-399.767023	-399.759483	-399.758539	-399.7989	27.971	
O	 0.1613896049	 1.123830175	-0.5788984006	-0.428952
C	 0.050924453	-0.1275058849	 0.0559262819	 0.017229
C	 0.0174216105	-0.170187018	 1.6207269175	-0.394673
C	-1.3046419637	-0.9658203875	 1.5225277736	 0.358872
O	-1.9789724071	-1.5683876343	 2.3054643906	-0.299115
C	-1.3784717725	-0.687293053	 0.0393174949	 0.22475
C	-2.5240521284	-0.0699161822	-0.6917755848	-0.274418
N	-2.0947686148	-1.437029148	-0.9883990499	-0.365705
H	 1.0863865368	 1.3894734338	-0.5751488343	 0.29142
H	 0.7751510487	-0.8480014093	-0.3501067211	 0.082142
H	 0.841466405	-0.6678306439	 2.1365127696	 0.127966
H	-0.1377932533	 0.8254856723	 2.0477993771	 0.139053
H	-3.4832631493	 0.0093742233	-0.1889187832	 0.139415
H	-2.2751818529	 0.7321188462	-1.3802448698	 0.141307
H	-1.536032147	-1.4517173497	-1.8400168715	 0.240707
79.744	186.5821	210.2628	247.1137	280.047	321.2561	471.6919	498.2879	564.5827	622.5972	687.9904	790.0188	827.1315	898.455	950.0474	978.1456	998.3226	1014.6581	1052.075	1101.5368	1121.5161	1152.9295	1173.9241	1211.0588	1258.752	1289.2639	1298.1732	1389.0725	1418.8991	1445.5648	1501.9187	1894.8782	3000.1882	3063.0555	3117.9917	3127.4399	3214.5659	3483.4843	3820.3028
OC1CC(=O)C11CN1	O[C@H]1CC(=O)[C@]21CN2	
InChI=1S/C5H7NO2/c7-3-1-4(8)5(3)2-6-5/h3,6-7H,1-2H2	InChI=1S/C5H7NO2/c7-3-1-4(8)5(3)2-6-5/h3,6-7H,1-2H2/t3-,5+/m0/s1
