21
gdb 114898	3.55014	1.12958	0.98865	2.4638	78.23	-0.2402	0.071	0.3113	1269.365	0.18389	-424.20511	-424.196611	-424.195667	-424.238718	31.918	
C	-0.6808249249	 1.7918547168	 0.0664738838	-0.238492
O	-0.4643267157	 0.5339490147	 0.6647405082	-0.239568
C	-1.2646238782	-0.4847389579	 0.1241420903	 0.150239
C	-0.9149786095	-1.0557751549	-1.2832799614	-0.287793
C	-1.0345094015	-2.4931441819	-0.6909247618	-0.026648
C	 0.1997674055	-3.4164627537	-0.7307318664	-0.091111
O	 0.7287127329	-3.4378726027	 0.5894658308	-0.248287
C	 0.3993815909	-2.2000655536	 1.2104199545	-0.09627
C	-1.0310973075	-1.8793547529	 0.7432855388	-0.08289
H	-0.030815539	 2.5098458052	 0.5721508847	 0.12817
H	-0.4348233201	 1.7866398287	-1.0060164869	 0.108911
H	-1.7269555832	 2.1187326131	 0.1775009195	 0.103955
H	-2.3261730568	-0.1966621577	 0.1775999017	 0.064959
H	-1.5869026365	-0.7987214167	-2.1048126492	 0.099338
H	 0.1114717312	-0.8133921288	-1.5754930905	 0.106746
H	-1.9548679721	-3.0037179075	-0.9764535918	 0.075877
H	-0.0391012987	-4.4487088078	-1.0053681429	 0.103628
H	 0.948089701	-3.0372650663	-1.4454308134	 0.086331
H	 0.484276856	-2.3407300245	 2.2902958289	 0.109008
H	 1.0959948599	-1.4046275459	 0.9099690674	 0.102715
H	-1.7799728738	-2.2295799156	 1.4554314558	 0.071183
74.3421	100.9363	144.3797	188.7464	209.8749	315.672	372.4729	430.5606	478.4336	660.9726	674.23	678.3947	804.2218	865.6034	886.2242	922.2085	944.8088	955.484	1008.3978	1017.3207	1062.6703	1087.8341	1096.1946	1110.2949	1143.438	1168.4538	1184.9115	1197.8625	1218.7598	1240.5043	1246.5067	1255.6718	1270.8718	1302.2717	1318.768	1327.9031	1364.5578	1390.6643	1396.2979	1478.0112	1484.1203	1487.7378	1509.7788	1514.2415	1527.8537	2969.5049	2970.6417	2978.2268	3009.6864	3022.3315	3055.6313	3067.7923	3085.8837	3098.5691	3106.2728	3115.3726	3118.9285
COC1CC2COCC12	CO[C@H]1C[C@H]2COC[C@@H]12	
InChI=1S/C7H12O2/c1-8-7-2-5-3-9-4-6(5)7/h5-7H,2-4H2,1H3	InChI=1S/C7H12O2/c1-8-7-2-5-3-9-4-6(5)7/h5-7H,2-4H2,1H3/t5-,6+,7-/m0/s1
