14
gdb 8998	6.35056	0.97243	0.88647	4.638	61.66	-0.2455	-0.0818	0.1637	1214.2123	0.104689	-415.869328	-415.860662	-415.859718	-415.903652	29.002	
N	-0.5810483564	 0.8994794585	-0.7088793287	-0.503859
C	-0.169381255	-0.0810947673	-0.0012751296	 0.279352
N	-1.01326463	-0.798583772	 0.8034274446	-0.320357
C	-2.3731198836	-0.3463474231	 1.0043184923	-0.251232
C	-3.2297125818	-0.502042188	-0.2542142771	 0.187115
O	-4.3196038304	-0.0124094946	-0.3639755547	-0.236477
C	 1.2645992428	-0.5662801608	-0.0005382026	 0.10988
O	 2.1220241751	-0.0435090598	-0.6599608018	-0.228045
H	 0.2013956382	 1.264236263	-1.2544968796	 0.241643
H	-0.6074704467	-1.4201082406	 1.4824837949	 0.253319
H	-2.8310123195	-0.9511975487	 1.7938455236	 0.137087
H	-2.4156549218	 0.7061164448	 1.3101736153	 0.157301
H	-2.7762895919	-1.1410572251	-1.04277755	 0.090617
H	 1.4839254811	-1.4425898664	 0.6512993035	 0.083656
44.5413	68.0458	135.4473	165.1618	208.194	280.8192	316.9541	354.533	410.8259	573.8939	605.4475	672.8934	762.5256	869.1533	930.1961	1024.0941	1027.1356	1047.2369	1108.3819	1178.463	1274.2073	1319.9851	1335.7391	1405.6448	1428.6454	1440.0833	1545.4369	1701.1581	1836.6349	1846.8017	2872.9238	2901.4555	3036.566	3093.9942	3477.9053	3651.9642
N=C(NCC=O)C=O	N=C(NCC=O)C=O	
InChI=1S/C4H6N2O2/c5-4(3-8)6-1-2-7/h2-3H,1H2,(H2,5,6)	InChI=1S/C4H6N2O2/c5-4(3-8)6-1-2-7/h2-3H,1H2,(H2,5,6)
