18
gdb 117594	2.12589	1.10069	0.92205	5.4382	76.89	-0.2886	-0.0201	0.2685	1369.5636	0.146117	-398.141813	-398.131523	-398.130578	-398.177247	36.302	
C	 0.0211535962	 1.6154446378	 0.0049595278	-0.387889
C	-0.0101638445	 0.0838479303	 0.0113303298	-0.20386
C	 0.6892707159	-0.5075584912	-1.2154620027	-0.188638
C	 0.6987769826	-2.071498093	-1.2560885744	-0.090426
N	-0.6160394701	-2.7262155947	-1.2712456445	-0.514606
C	 1.418813215	-2.4856208277	-2.4821463234	 0.328466
N	 1.9576523221	-2.752219785	-3.467491012	-0.319093
C	 1.4430848366	-2.5821223931	-0.0820783277	 0.334371
N	 2.0055438019	-2.9335400571	 0.8627257098	-0.325391
H	 1.0499405579	 1.9899894566	 0.0089423983	 0.128096
H	-0.4776526778	 2.0209301461	-0.8818242657	 0.121532
H	-0.4845666847	 2.0187977157	 0.8866512158	 0.125754
H	 0.4710186939	-0.2911900381	 0.922056517	 0.133031
H	-1.0527046887	-0.2557589786	 0.0432917224	 0.095987
H	 0.1973745552	-0.1736004717	-2.1368031876	 0.119675
H	 1.7261301599	-0.1567235422	-1.2646042771	 0.135851
H	-1.11622913	-2.5085166251	-0.4153016356	 0.255595
H	-1.1598551517	-2.3697065592	-2.0520036803	 0.251544
78.4332	96.6511	120.5987	135.655	194.2999	208.5868	243.1224	257.8626	306.7364	327.0269	404.7496	492.7644	535.268	575.2707	619.4518	724.1694	752.3815	827.9315	872.388	910.3116	976.4962	1033.3093	1045.3645	1073.5941	1126.9074	1195.5941	1266.5656	1306.9434	1336.3003	1351.5841	1397.4273	1417.1786	1474.9212	1493.3098	1499.8841	1510.0446	1646.6947	2366.9969	2371.6977	3027.2331	3035.4525	3039.078	3063.6677	3086.6976	3106.9677	3114.37	3498.4106	3591.5569
CCCC(N)(C#N)C#N	CCCC(N)(C#N)C#N	
InChI=1S/C6H9N3/c1-2-3-6(9,4-7)5-8/h2-3,9H2,1H3	InChI=1S/C6H9N3/c1-2-3-6(9,4-7)5-8/h2-3,9H2,1H3
