17
gdb 77872	2.1673	1.71823	1.2777	2.5583	69.4	-0.2347	-0.0214	0.2133	1043.4054	0.134182	-458.947778	-458.938988	-458.938044	-458.98097	32.947	
C	-0.0269113327	 1.5807840861	 0.0261837969	-0.499472
C	 0.0490628736	 0.0822971111	-0.0005625412	 0.136196
C	-0.8350600275	-0.8268101717	 0.8648075035	 0.098019
O	-1.6864176619	-1.8068805219	 0.3754893221	-0.431172
C	 0.6280924903	-0.9880581498	 1.0332146493	-0.185531
C	 1.1872204448	-1.8162483746	-0.1161327349	-0.033295
O	 0.6944790939	-3.1506928447	-0.1747896681	-0.432151
C	 0.6184351548	-0.7488738401	-1.0974768954	 0.341555
O	 0.7623203241	-0.5916734858	-2.2794361717	-0.326248
H	 0.9394375932	 2.0383754621	-0.2092702237	 0.13091
H	-0.7512854069	 1.9349187048	-0.7148515536	 0.147853
H	-0.3476824479	 1.9447237586	 1.006977776	 0.125189
H	-1.3216966506	-0.2508062374	 1.6500045631	 0.111714
H	-1.1417422189	-2.5718525474	 0.1355724971	 0.297294
H	 1.1563041752	-0.7873649776	 1.9571461076	 0.108113
H	 2.2850847008	-1.8007471002	-0.1589256755	 0.107419
H	 0.8937812857	-3.4973989816	-1.0527891215	 0.303607
94.1048	141.1008	192.5847	212.0059	226.2368	251.0676	331.5552	395.1671	415.2397	503.138	541.3731	592.826	651.3572	672.7942	770.2901	821.3076	845.5268	901.159	955.1105	970.6622	1018.2787	1051.1905	1091.8593	1115.9833	1158.7624	1169.0577	1247.8471	1290.5956	1314.6262	1328.4756	1383.6661	1412.9493	1427.6189	1479.5346	1483.4163	1493.8797	1870.2197	3016.6998	3034.1325	3099.3514	3107.0125	3130.955	3192.7299	3698.0842	3797.5075
CC12C(O)C1C(O)C2=O	C[C@]12[C@@H](O)[C@H]1[C@@H](O)C2=O	
InChI=1S/C6H8O3/c1-6-2(4(6)8)3(7)5(6)9/h2-4,7-8H,1H3	InChI=1S/C6H8O3/c1-6-2(4(6)8)3(7)5(6)9/h2-4,7-8H,1H3/t2-,3-,4+,6-/m1/s1
