15
gdb 98131	2.99648	0.99929	0.75295	3.1275	67.4	-0.2679	-0.0659	0.202	1437.5631	0.110747	-491.13306	-491.123357	-491.122412	-491.169355	32.09	
C	-0.5233697963	 1.1557381853	-0.9532371881	-0.338429
N	-0.0457237702	-0.2029793958	-1.1271968416	-0.310231
C	 0.9706371949	-0.7104586836	-0.3902923856	 0.280997
O	 1.5898285977	-0.1274076298	 0.4729643394	-0.341569
C	 1.3351400389	-2.1754156281	-0.7217794183	 0.417857
O	 2.201466119	-2.7875174369	-0.1769480733	-0.305736
O	 0.5328512181	-2.6767365669	-1.7224149678	-0.229814
C	 0.7327494704	-3.9758419628	-2.1343821172	 0.117845
N	-0.0087662169	-4.4145738882	-3.0478741128	-0.419285
H	 0.0735095238	 1.6191846382	-0.1673368895	 0.175881
H	-0.4116891651	 1.7317642734	-1.8778130697	 0.137482
H	-1.5778915528	 1.16568035	-0.6582622618	 0.137484
H	-0.4745171761	-0.8008690942	-1.8151027573	 0.275828
H	 1.5388253042	-4.4694122705	-1.5920746813	 0.154473
H	 0.2357900305	-5.3803602302	-3.2622935751	 0.247218
47.5998	60.7706	100.2916	117.6392	130.9879	158.7514	265.9449	343.4035	392.6466	439.3938	492.1287	569.9971	592.4047	790.2652	819.3969	853.9642	900.6592	1004.0127	1057.5808	1071.1634	1137.4793	1151.1318	1188.456	1248.3298	1278.6174	1387.2009	1442.7988	1491.5812	1498.1039	1566.8401	1747.4703	1807.2352	1867.3365	3035.8428	3091.4044	3146.7224	3158.6356	3510.214	3647.9575
CNC(=O)C(=O)OC=N	CNC(=O)C(=O)O[CH][NH]	
InChI=1S/C4H6N2O3/c1-6-3(7)4(8)9-2-5/h2,5H,1H3,(H,6,7)	InChI=1S/C4H6N2O3/c1-6-3(7)4(8)9-2-5/h2,5H,1H3,(H,6,7)
