15
gdb 55204	2.93015	1.77571	1.44721	2.7472	59.56	-0.2542	0.0054	0.2595	903.9027	0.114741	-491.115193	-491.108086	-491.107142	-491.146528	28.047	
N	 0.6886801172	 0.8265834461	 0.485471112	-0.605012
C	 0.4747699584	-0.5144308445	 0.1875333779	 0.528606
N	-0.9071907904	-0.9562874451	 0.2518621812	-0.335339
H	-1.1624042997	-1.1383815211	 1.2167924329	 0.238384
C	-0.8969835565	-2.2123408778	-0.5470879281	-0.185224
C	 0.6065881377	-2.3019720043	-0.912537832	-0.122982
O	 0.9100584902	-0.9099451174	-1.083779392	-0.231499
C	 1.3613494084	-2.5938103261	 0.3922687807	 0.447149
O	 1.860800565	-3.6049845566	 0.7901376643	-0.347541
O	 1.2978328956	-1.4231174213	 1.0765703267	-0.290672
H	 1.6053634938	 0.9955071702	 0.8774696748	 0.26081
H	-0.0431642009	 1.2171936536	 1.0607356385	 0.255142
H	-1.2573482692	-3.0748564135	 0.0185541695	 0.131969
H	-1.5014464729	-2.094560978	-1.450391882	 0.132678
H	 0.8890842333	-2.9000304242	-1.7735646142	 0.123533
148.4497	160.6761	256.5024	322.4679	368.0102	451.4234	506.8288	547.5773	637.4566	662.2498	679.186	702.3624	787.6504	813.1815	838.0375	881.3356	901.4975	926.4514	1002.859	1029.1181	1032.8777	1068.6097	1196.0984	1214.7093	1250.8203	1273.9409	1316.2772	1373.0036	1380.7015	1455.6517	1508.2586	1642.5298	1897.7491	3061.5622	3114.6482	3182.0792	3539.2984	3567.0632	3666.4526
NC1=[NH+]CC(O1)C([O-])=O	N[C@@]12NC[C@@H](O1)C(=O)O2	
InChI=1S/C4H6N2O3/c5-4-6-1-2(9-4)3(7)8/h2H,1H2,(H2,5,6)(H,7,8)	InChI=1S/C4H6N2O3/c5-4-6-1-2(8-4)3(7)9-4/h2,6H,1,5H2/t2-,4-/m1/s1
