15
gdb 64640	2.31709	1.61876	1.38673	2.759	73.06	-0.2261	-0.0186	0.2075	996.2209	0.112182	-416.798472	-416.789955	-416.789011	-416.831375	32.159	
N	-0.048410595	 1.4900628126	 0.0347830038	-0.543579
C	 0.0650523003	 0.0229437372	 0.0171119378	-0.039791
C	 0.6183197051	-0.5436640464	 1.3141010043	-0.154814
C	-0.3245294984	-1.280923266	 1.9012889591	-0.021929
N	-1.5143248566	-1.2970079081	 1.1530587552	-0.336337
C	-1.4097943262	-0.5122697493	 0.0300150771	 0.427641
O	-2.2746471539	-0.2470153105	-0.766835116	-0.369241
C	 0.7843780531	-0.5101181025	-1.1453696313	 0.341094
C	 1.3975986756	-0.9114744639	-2.0992520112	-0.505471
H	 0.8639696392	 1.8973204127	-0.1512962914	 0.234147
H	-0.6529443345	 1.7573272064	-0.7403856033	 0.246721
H	 1.6282335324	-0.3889367184	 1.6593126505	 0.115989
H	-0.2783634171	-1.8401410483	 2.8247499972	 0.137543
H	-2.3858268115	-1.7061597203	 1.4465779029	 0.267269
H	 1.9279864174	-1.2687964652	-2.9471711148	 0.200759
83.5771	129.482	179.982	241.103	257.3567	312.3441	393.3435	444.9443	484.5753	562.5803	578.5005	626.5743	633.7323	643.7087	709.1856	720.0813	770.4424	800.5699	904.4854	911.4343	993.0202	1066.1842	1086.1044	1120.7362	1196.1325	1205.3318	1317.4651	1376.825	1409.5361	1640.7596	1674.5997	1849.9907	2221.5721	3237.8758	3266.4122	3471.2558	3500.1822	3557.4927	3662.6409
NC1(C=CNC1=O)C#C	N[C@]1(C=CNC1=O)C#C	
InChI=1S/C6H6N2O/c1-2-6(7)3-4-8-5(6)9/h1,3-4H,7H2,(H,8,9)	InChI=1S/C6H6N2O/c1-2-6(7)3-4-8-5(6)9/h1,3-4H,7H2,(H,8,9)/t6-/m0/s1
