16
gdb 44374	3.38782	1.66813	1.39536	4.3625	67.9	-0.229	0.0287	0.2577	922.261	0.12696	-437.883115	-437.876577	-437.875633	-437.914054	26.582	
O	 0.0025844109	-0.1032225827	-0.0754661542	-0.373573
C	-0.0310072197	 1.1090811353	-0.0113574768	 0.401693
C	-1.3478833878	 1.8855760969	 0.0603220803	-0.335408
C	-1.1717169291	 3.2555186422	 0.6859425876	 0.083421
O	-0.4507971276	 3.1617400791	 1.9606465462	-0.295784
C	 0.6100364375	 3.9459982585	 1.4322297208	 0.074641
C	 1.1868691101	 3.2788433305	 0.1986870616	-0.010174
N	 1.1148610538	 1.8661701088	-0.0205755856	-0.306101
C	-0.0557331261	 4.1117178731	 0.0807019175	-0.183751
H	-1.7624354089	 1.9806869479	-0.9511220316	 0.130735
H	-2.0437420273	 1.2694891462	 0.6357187083	 0.143161
H	-2.1161669918	 3.7864166766	 0.8351141425	 0.094382
H	 1.1300432716	 4.6275382266	 2.0955483376	 0.111872
H	 2.0869404088	 3.7371368973	-0.1990433481	 0.111432
H	 1.9610349068	 1.3226000755	 0.073780203	 0.247532
H	-0.175390051	 4.9551362181	-0.585513869	 0.105922
95.7823	240.6901	335.7213	429.6315	470.6337	505.0354	523.0104	635.1426	666.91	737.7117	738.9857	797.4156	800.4432	853.9725	909.4668	931.0122	985.4655	1007.507	1024.4459	1039.0421	1049.4687	1066.2405	1121.3796	1161.7226	1182.0446	1246.674	1273.5428	1306.5128	1320.131	1356.4535	1391.2534	1431.3746	1449.7035	1472.4394	1799.8068	3043.6029	3068.7785	3106.7146	3162.8257	3181.9513	3204.3191	3604.1052
O=C1CC2OC3C(N1)C23	O=C1C[C@H]2O[C@H]3[C@@H](N1)[C@@H]23	
InChI=1S/C6H7NO2/c8-3-1-2-4-5(7-3)6(4)9-2/h2,4-6H,1H2,(H,7,8)	InChI=1S/C6H7NO2/c8-3-1-2-4-5(7-3)6(4)9-2/h2,4-6H,1H2,(H,7,8)/t2-,4-,5+,6-/m1/s1
