14
gdb 127207	3.46619	1.37301	0.9896	2.6824	73.48	-0.2233	-0.0356	0.1877	1107.3739	0.101094	-432.877872	-432.869503	-432.868559	-432.911049	29.992	
C	-0.0111031048	 1.4566981945	 0.0411054546	-0.351579
N	 0.0145739831	 0.0097027395	 0.0353467035	-0.178553
C	 0.0067101667	-0.7531506647	-1.137640823	 0.453345
O	-0.022905036	-0.3674095578	-2.2863838813	-0.431211
N	 0.0415900647	-2.0381537003	-0.6310268163	-0.305963
N	 0.0690286782	-2.1081860031	 0.7315959209	-0.263915
C	 0.0523240284	-0.8563743454	 1.112094171	 0.236195
C	 0.0698475729	-0.4183419292	 2.4540800908	 0.288058
C	 0.0837262072	 0.0021635338	 3.5810674781	-0.412069
H	 0.8815567231	 1.8623388101	 0.5251601292	 0.147093
H	-0.0366105334	 1.7728716266	-1.0032237948	 0.174954
H	-0.8985908636	 1.8306635125	 0.5589883834	 0.147087
H	 0.0458033666	-2.8808051559	-1.1790935857	 0.28625
H	 0.0966283569	 0.3562994695	 4.5826566195	 0.210307
92.4927	118.0887	137.5613	188.4241	256.0229	285.3819	422.5745	431.9461	513.7183	553.5042	603.6729	620.7014	699.4237	718.1198	734.0327	755.0584	805.8488	975.3722	1099.0658	1161.211	1192.5729	1219.4309	1339.9569	1392.6689	1417.0717	1480.8492	1493.01	1508.1698	1574.3529	1843.4597	2242.4665	3047.3161	3113.2862	3150.1716	3498.6918	3689.6404
CN1C(=O)NN=C1C#C	Cn1c(=O)[nH]nc1C#C	
InChI=1S/C5H5N3O/c1-3-4-6-7-5(9)8(4)2/h1H,2H3,(H,7,9)	InChI=1S/C5H5N3O/c1-3-4-6-7-5(9)8(4)2/h1H,2H3,(H,7,9)
