14
gdb 43238	4.31121	1.71055	1.5109	2.2027	72.53	-0.2314	-0.0867	0.1447	837.7149	0.102052	-399.431501	-399.425753	-399.424808	-399.461453	23.974	
O	-0.041959911	-0.038704371	 0.2116905655	-0.320132
C	-0.0634224023	 1.1391191622	-0.0323449478	 0.380659
C	-1.2595996744	 2.0644371779	-0.0954482174	-0.281898
C	-0.6967907203	 3.2872018989	-0.2467392343	 0.13189
C	-0.0194877347	 4.2123102375	 0.7141523252	-0.100701
C	 1.2165408723	 3.3145707093	 0.9583276879	-0.043533
C	 1.1563249558	 2.1135125377	-0.0520198053	-0.150069
C	 0.646715758	 3.25288924	-0.9633800344	-0.037652
N	 1.2159640381	 4.3816254028	-0.0928545796	-0.162864
H	-2.144446112	 1.8157284468	 0.4782482992	 0.126261
H	-0.3546245805	 4.9311018245	 1.4525961773	 0.121452
H	 1.8167892157	 3.4006645866	 1.8579431887	 0.119269
H	 2.1275730852	 1.649015954	-0.2260941163	 0.101735
H	 0.7513277	 3.2818502026	-2.0444562887	 0.115584
145.2321	359.1146	402.2119	516.5063	584.7094	617.2174	697.6702	734.326	768.0964	775.4959	795.9689	817.0215	834.4468	885.7109	920.4409	932.7803	969.2761	1003.1593	1023.2627	1041.0041	1079.1934	1102.1443	1123.4293	1174.1512	1197.0053	1229.1783	1254.6222	1274.4782	1306.6009	1561.1199	1812.1679	3120.0324	3162.9803	3176.2922	3192.8528	3205.7293
O=C1C=C2C3C4C1C2N34	O=C1[CH][C]2[C@H]3[C@H]4[C@@H]1[C@@H]2N34	
InChI=1S/C7H5NO/c9-3-1-2-5-4(3)7-6(2)8(5)7/h1,4-7H	InChI=1S/C7H5NO/c9-3-1-2-5-4(3)7-6(2)8(5)7/h1,4-7H/t4-,5+,6-,7+,8?/m0/s1
