19
gdb 43046	2.36083	2.18205	1.60734	3.1158	77.68	-0.2272	-0.0025	0.2247	914.8886	0.163304	-385.912815	-385.906287	-385.905343	-385.943502	27.48	
O	 0.0149093538	 0.0518338723	 0.1470688189	-0.355843
C	-0.0392829388	 1.2502985181	 0.0652570284	 0.449526
C	-1.2458959761	 2.1701163735	 0.0119665776	-0.147714
C	-0.8598144618	 3.1236363894	 1.1939444253	-0.252148
C	 0.2814582237	 3.5478522509	 0.239388321	-0.037566
C	-0.6942056895	 3.3016125817	-0.9496453807	 0.000502
C	 0.1148552809	 2.85248318	-2.174503201	-0.253813
C	 1.4498390467	 2.3448241947	-1.5488062346	-0.220706
C	 1.1162360808	 2.2670846109	-0.0391716894	-0.132667
H	-2.2276179411	 1.7115956964	-0.090926521	 0.078761
H	-1.5997431225	 3.9146096741	 1.3362749369	 0.10707
H	-0.6099629625	 2.6690058363	 2.1568224219	 0.106257
H	 0.8299482945	 4.4822723932	 0.360892625	 0.068184
H	-1.4356712971	 4.0840993703	-1.1187576281	 0.075056
H	-0.4008898578	 2.0681373678	-2.7377777138	 0.112353
H	 0.2824785973	 3.6849324693	-2.8638919457	 0.102835
H	 1.7717540891	 1.3785135804	-1.9446729379	 0.118338
H	 2.260952796	 3.0606004188	-1.7183125345	 0.101555
H	 1.9639110843	 2.0532992918	 0.6125902617	 0.080022
136.5616	219.2479	319.4823	382.3881	458.2667	531.0697	637.6966	657.2152	760.4929	784.1076	789.7493	809.2984	836.5892	882.8582	901.2815	903.8053	936.0331	967.0105	1002.2458	1009.9747	1045.684	1047.8262	1077.2606	1088.3685	1116.0819	1158.0445	1179.4367	1193.9305	1227.5112	1238.4425	1243.5725	1259.9201	1282.0242	1300.9826	1312.7519	1335.2254	1355.0674	1486.4987	1504.215	1507.9568	1865.4355	3045.7817	3052.6553	3056.1312	3086.0104	3101.0162	3106.7153	3108.7574	3115.593	3117.7749	3140.3207
O=C1C2CC3C2CCC13	O=C1[C@H]2C[C@@H]3[C@H]2CC[C@H]13	
InChI=1S/C8H10O/c9-8-5-2-1-4-6(5)3-7(4)8/h4-7H,1-3H2	InChI=1S/C8H10O/c9-8-5-2-1-4-6(5)3-7(4)8/h4-7H,1-3H2/t4-,5+,6-,7+/m1/s1
