16
gdb 46097	4.43401	0.88145	0.80041	2.8625	77.16	-0.2485	-0.0588	0.1898	1381.6955	0.12459	-400.805863	-400.797556	-400.796612	-400.839962	29.77	
O	-0.18753132	-0.0504870087	 0.3272203655	-0.325423
C	-0.0621939087	 1.1342982192	 0.1303038917	 0.399666
C	-1.1944726212	 2.1276512119	-0.1812373385	-0.33559
C	-0.507460181	 3.4979312183	-0.328975921	-0.318617
C	 0.9610149815	 3.2050067218	-0.1070484911	 0.34031
C	 1.9955976416	 4.3022467675	-0.1413756704	-0.436995
C	 1.943773432	 5.0872816	-1.377907591	 0.268807
N	 1.8876789368	 5.6997078834	-2.3557030137	-0.302419
C	 1.2003803429	 1.9115011182	 0.1407778495	-0.300187
H	-1.7121944959	 1.8098822589	-1.0905351427	 0.143241
H	-1.9304044569	 2.1018275645	 0.6271003107	 0.139304
H	-0.6638796694	 3.9508151986	-1.3146055494	 0.146789
H	-0.8677135392	 4.2330388453	 0.401753011	 0.123894
H	 1.8306383174	 4.991350159	 0.6986889024	 0.170713
H	 3.0022414135	 3.8898523488	-0.0229575455	 0.168161
H	 2.1635930066	 1.4532267532	 0.3277652724	 0.118347
43.1931	94.378	103.6304	188.2666	279.5823	381.198	419.8518	456.1825	504.5093	551.0549	630.1615	680.7563	828.5763	834.5661	859.1932	876.4783	951.9186	958.1324	1006.3942	1017.1716	1135.3327	1159.1359	1178.5615	1207.9855	1236.199	1259.1483	1302.747	1322.3138	1354.6774	1450.25	1451.3505	1482.2171	1685.8051	1820.1937	2365.6665	3022.5278	3033.0906	3066.042	3071.2165	3089.3058	3112.3844	3217.1817
O=C1CCC(CC#N)=C1	O=C1CCC(=C1)CC#N	
InChI=1S/C7H7NO/c8-4-3-6-1-2-7(9)5-6/h5H,1-3H2	InChI=1S/C7H7NO/c8-4-3-6-1-2-7(9)5-6/h5H,1-3H2
