21
gdb 58997	3.51932	1.02003	1.01238	2.0302	83.91	-0.2341	0.0076	0.2417	1315.6362	0.182113	-387.08857	-387.079693	-387.078749	-387.122312	34.1	
C	 0.0326316144	 1.5585026334	 0.0734148848	-0.39065
C	-0.0307300367	 0.0203380514	 0.0331034736	-0.072319
C	 0.7437967855	-0.5900218174	 1.2178970239	-0.387601
C	-1.4499501764	-0.4817502554	-0.0192380128	 0.34643
C	-1.9712492867	-1.2898354302	-0.9522994183	-0.22948
C	-3.3721579619	-1.6676663252	-0.6126166481	 0.011525
O	-3.4820540989	-2.3862372102	 0.6429501304	-0.261737
C	-3.7000295977	-0.9751802717	 0.644538942	 0.04029
C	-2.4863349104	-0.1497436936	 1.0521922423	-0.34555
H	 1.072237214	 1.9005145281	 0.0446155489	 0.113169
H	-0.4945592735	 2.0006164807	-0.7775826307	 0.11652
H	-0.418081218	 1.9519200592	 0.9911090824	 0.116804
H	 0.4605865516	-0.3123880895	-0.8902349932	 0.076671
H	 0.3233473075	-0.2686885422	 2.1769026808	 0.116177
H	 0.7151777163	-1.6829283155	 1.1871090462	 0.124087
H	 1.7914936566	-0.2725802242	 1.1940248012	 0.112171
H	-1.4421836874	-1.6662124047	-1.8200060479	 0.092588
H	-4.1045532338	-1.9467961925	-1.3638533535	 0.093221
H	-4.7039426893	-0.656716685	 0.9129272832	 0.09234
H	-2.1433277673	-0.4100324913	 2.060285818	 0.124492
H	-2.727750808	 0.9207561257	 1.0650316068	 0.11085
51.996	113.9256	205.42	226.6819	253.6578	262.8565	310.4907	368.3038	462.42	523.4829	538.0487	611.6255	718.17	813.0139	835.0123	851.2984	874.4515	894.7758	926.6144	928.2008	962.8547	968.5572	1015.7591	1018.9663	1051.5652	1104.7457	1120.2068	1167.5967	1189.7899	1216.0974	1255.963	1274.2459	1308.5497	1338.5923	1342.0525	1369.5157	1392.5571	1412.4841	1415.8417	1458.664	1487.5465	1491.3223	1500.8581	1511.0235	1684.7103	3019.9732	3028.3055	3030.3365	3034.8792	3066.9572	3096.6982	3102.7167	3105.9831	3112.7532	3144.8604	3164.4172	3199.8341
CC(C)C1=CC2OC2C1	CC(C)C1=C[C@H]2O[C@H]2C1	
InChI=1S/C8H12O/c1-5(2)6-3-7-8(4-6)9-7/h3,5,7-8H,4H2,1-2H3	InChI=1S/C8H12O/c1-5(2)6-3-7-8(4-6)9-7/h3,5,7-8H,4H2,1-2H3/t7-,8+/m1/s1
