17
gdb 42359	2.5442	1.26976	0.92325	3.0225	73.59	-0.2509	-0.0301	0.2208	1243.2184	0.133473	-421.779881	-421.770678	-421.769734	-421.815373	32.271	
O	-0.4639616939	 0.6640931427	 1.9908672208	-0.291865
C	-0.1087069708	 1.2447960444	 0.9947120729	 0.377958
C	 1.381910689	 1.5918830581	 0.7962759695	-0.448796
C	 1.8406772381	 1.5892422973	-0.5847159538	 0.298246
C	 2.2073487256	 1.5794898639	-1.7295246145	-0.447477
C	-1.0621716976	 1.6757231282	-0.0963927483	-0.148042
C	-1.2547135622	 0.6395022095	-1.2454426612	-0.068026
O	-2.6496599695	 0.4975802839	-0.9392013056	-0.268787
C	-2.5607709737	 1.4335043615	 0.157465725	-0.090784
H	 1.5230945173	 2.5923606977	 1.2316182948	 0.160208
H	 1.9617488929	 0.9008836539	 1.4154856328	 0.162403
H	 2.5430967497	 1.5692332264	-2.7371769736	 0.207223
H	-0.7943393973	 2.6691669722	-0.4615938237	 0.102055
H	-1.079027601	 1.0353499621	-2.2517429307	 0.111899
H	-0.7041555282	-0.3014496965	-1.1286276006	 0.113565
H	-2.7769282516	 0.962807345	 1.1215585182	 0.128728
H	-3.2113995667	 2.3026318499	 0.0083368681	 0.101492
43.379	60.2639	82.1192	118.6164	215.0213	269.7594	330.8839	345.3478	462.7684	551.3021	629.3612	649.9976	663.3436	700.7333	833.8382	883.7838	900.006	949.7446	984.0295	1023.4775	1038.6372	1054.7622	1102.2516	1136.0343	1158.3205	1174.3022	1216.257	1226.0529	1292.2042	1308.4657	1363.217	1379.0124	1440.5158	1507.5907	1531.952	1814.1526	2237.2786	3011.5972	3021.3594	3033.3915	3068.2148	3086.0323	3087.576	3097.889	3502.8919
O=C(CC#C)C1COC1	O=C(CC#C)C1COC1	
InChI=1S/C7H8O2/c1-2-3-7(8)6-4-9-5-6/h1,6H,3-5H2	InChI=1S/C7H8O2/c1-2-3-7(8)6-4-9-5-6/h1,6H,3-5H2
