19
gdb 77865	2.06506	1.56005	1.51716	3.2957	79.19	-0.2505	0.0094	0.2598	1049.1678	0.159254	-382.038393	-382.029586	-382.028642	-382.071446	33.167	
C	-0.3951001567	 1.5731412594	 0.384122518	-0.432118
C	-0.0633021214	 0.0968592116	 0.1960047986	-0.027902
C	 0.4609586739	-0.4208760906	-1.1447273814	-0.052502
C	 1.8360596319	 0.0160276264	-1.4941340484	-0.146914
C	 2.4104185591	 1.3133375787	-1.2353019188	 0.310019
N	 2.9074121122	 2.3509043299	-1.108562839	-0.355279
N	 1.6697363956	-1.0949102289	-0.5244089918	-0.162413
C	 1.2098323879	-0.5678579924	 0.8259884198	 0.046208
C	 2.2045362038	 0.1917266215	 1.6850568267	-0.425705
H	 0.4389269575	 2.2316125286	 0.1366491111	 0.152822
H	-1.2443056049	 1.855254447	-0.2476374134	 0.121541
H	-0.6803037676	 1.7674480537	 1.4234166835	 0.120334
H	-0.9403995252	-0.4938654432	 0.476299952	 0.091853
H	-0.1416548621	-0.9211066157	-1.8975460341	 0.107899
H	 2.2029178249	-0.3840684844	-2.4371518389	 0.145244
H	 0.908027286	-1.4671318219	 1.3698818348	 0.098507
H	 2.5086918106	 1.1496778934	 1.2636335238	 0.155291
H	 1.7641785857	 0.3808171056	 2.6699711633	 0.120894
H	 3.1026734687	-0.4168658987	 1.8334141644	 0.13222
124.3921	147.9775	192.6503	197.3737	209.4349	215.9021	288.56	378.2428	442.7215	517.1703	570.7046	623.0942	725.9799	732.1772	754.4749	781.0318	868.1636	933.2157	939.7611	1024.7253	1041.6823	1055.1434	1070.6219	1100.2061	1105.045	1178.5815	1193.561	1240.7945	1263.422	1298.6985	1350.9936	1376.5852	1383.8932	1411.9415	1414.0595	1421.7243	1488.4909	1497.7241	1500.539	1509.5207	2342.7176	3039.4294	3043.0909	3051.7212	3069.9888	3097.4207	3102.5269	3134.7639	3142.1124	3153.896	3155.5861
CC1C2C(C#N)N2C1C	C[C@H]1[C@H]2[C@@H](C#N)N2[C@H]1C	
InChI=1S/C7H10N2/c1-4-5(2)9-6(3-8)7(4)9/h4-7H,1-2H3	InChI=1S/C7H10N2/c1-4-5(2)9-6(3-8)7(4)9/h4-7H,1-2H3/t4-,5+,6-,7+,9?/m1/s1
