21
gdb 12005	3.12214	1.95181	1.71506	1.5086	76.86	-0.2261	0.0786	0.3047	900.9191	0.189789	-329.11961	-329.111764	-329.110819	-329.150958	31.593	
C	 0.0210076042	 1.5443451943	-0.0061156731	-0.431925
C	 0.0114536918	 0.0102472697	-0.0090436192	 0.307275
C	-1.4401381853	-0.5051491467	-0.0167719061	-0.427736
C	 0.810393727	-0.5892180828	-1.1994565178	-0.27697
C	 1.374895952	-1.9194690649	-0.6501713326	-0.159779
N	 1.5071579462	-1.7911162352	 0.8149447386	-0.098818
C	 2.2246400542	-0.573863274	 1.2231765252	-0.268825
C	 0.7396925879	-0.5889373826	 1.1969315737	-0.022055
H	 1.0428030539	 1.9358512851	 0.0220928957	 0.11086
H	-0.4682925524	 1.9418629766	-0.9023526512	 0.111485
H	-0.5138702449	 1.9418315193	 0.8637364716	 0.111565
H	-1.9826967528	-0.1272375048	-0.8899953353	 0.10958
H	-1.4774068437	-1.5988818722	-0.042454255	 0.120626
H	-1.9782210312	-0.1761287864	 0.8791052679	 0.111849
H	 0.183339251	-0.739252515	-2.0828573184	 0.097216
H	 1.6164751464	 0.0888160064	-1.4966865808	 0.097837
H	 0.6810284985	-2.7455522837	-0.8405227518	 0.106812
H	 2.3372006796	-2.1929578829	-1.094688248	 0.102551
H	 2.7486429172	-0.6560922818	 2.1710695026	 0.112946
H	 2.756836032	 0.0010448929	 0.4687876872	 0.105451
H	 0.1901873985	-0.647044711	 2.1340911968	 0.080055
151.4777	215.4647	221.5276	264.5473	322.8706	328.752	375.4116	398.724	479.9185	577.2731	657.2443	712.2109	796.3733	824.2651	852.3936	915.8405	946.7914	949.8293	961.2298	991.3957	1011.6411	1026.0587	1054.4826	1096.2909	1111.3921	1150.3403	1185.6491	1215.3992	1236.119	1244.8119	1267.003	1276.4192	1321.7933	1346.1801	1385.9577	1400.6093	1424.0943	1482.6995	1485.1164	1491.5605	1500.1968	1504.7422	1507.9947	1516.7684	3024.1371	3028.5501	3039.2815	3048.9201	3078.2239	3087.8564	3093.0003	3096.7271	3100.1816	3103.1841	3106.1093	3127.872	3186.9546
CC1(C)CCN2CC12	CC1(C)CCN2C[C@@H]12	
InChI=1S/C7H13N/c1-7(2)3-4-8-5-6(7)8/h6H,3-5H2,1-2H3	InChI=1S/C7H13N/c1-7(2)3-4-8-5-6(7)8/h6H,3-5H2,1-2H3/t6-,8?/m0/s1
