20
gdb 65070	2.62245	1.30818	1.16021	3.295	79.37	-0.2478	-0.0214	0.2264	1164.0906	0.169512	-403.125453	-403.116222	-403.115278	-403.159428	34.706	
C	-0.060841826	 1.3784328209	-0.6617992407	-0.467931
C	 0.027264907	-0.0029538849	-0.0401641744	 0.199472
C	 1.3067735885	-0.7573959556	-0.1481487509	-0.273745
N	 0.8897313856	-0.1744447704	 1.1414510003	-0.349455
C	-1.2809516325	-0.7564107454	 0.0035544136	 0.221169
C	-1.5725620223	-1.7263087798	 1.1490678502	-0.292889
C	-2.2981144615	-0.4286902725	 1.0901558242	-0.295111
C	-1.8381393262	-1.1676682369	-1.313705943	 0.093177
O	-2.9333445404	-1.652232234	-1.4793320622	-0.277577
H	 0.9242613998	 1.8534871134	-0.7135085676	 0.11353
H	-0.4623198016	 1.3359116691	-1.6802173455	 0.128769
H	-0.724259732	 2.0238865937	-0.0754571013	 0.129807
H	 1.2941675557	-1.8433056066	-0.1775846962	 0.121339
H	 2.131889998	-0.2967926752	-0.6850048161	 0.113675
H	 1.4061283723	 0.6842595643	 1.3153156329	 0.230084
H	-2.1175930144	-2.6228965723	 0.8775925199	 0.131203
H	-0.7784095942	-1.8338662436	 1.877499572	 0.146551
H	-2.0109535117	 0.3451994524	 1.7933201394	 0.121303
H	-3.3380285989	-0.4369489144	 0.7844548596	 0.136841
H	-1.1499117453	-1.0169286422	-2.1764782244	 0.069787
60.2362	112.2274	181.5435	211.892	223.4108	254.2839	300.8128	333.338	368.5195	448.341	505.141	538.1767	713.3247	801.3559	810.9555	834.8601	857.5064	917.8041	933.9603	959.6553	972.7961	1009.2579	1020.2905	1056.9655	1062.217	1070.8444	1107.2316	1119.2301	1151.1346	1212.6239	1224.0154	1270.9874	1297.4013	1343.1441	1393.0672	1417.7485	1436.2018	1439.7234	1475.1048	1484.4826	1500.6888	1513.4364	1805.3423	2867.5364	3027.3765	3092.4871	3100.9448	3109.1758	3137.8104	3145.3711	3195.4198	3231.2944	3249.4544	3499.209
CC1(CN1)C1(CC1)C=O	C[C@]1(CN1)C1(CC1)C=O	
InChI=1S/C7H11NO/c1-6(4-8-6)7(5-9)2-3-7/h5,8H,2-4H2,1H3	InChI=1S/C7H11NO/c1-6(4-8-6)7(5-9)2-3-7/h5,8H,2-4H2,1H3/t6-/m0/s1
