13
gdb 42238	2.89592	1.28163	1.0152	1.7378	65.03	-0.284	-0.0832	0.2008	1116.9774	0.08686	-456.558276	-456.550062	-456.549118	-456.592268	28.846	
O	 1.4675890669	 2.3373877109	-1.695447544	-0.274521
C	 0.5324317208	 2.0790107205	-0.9722755814	 0.240254
C	 0.6930589305	 1.6343266136	 0.3970899384	 0.27606
C	 0.8253393708	 1.2493607755	 1.5296836206	-0.427716
C	-0.898117488	 2.1629950251	-1.4846997536	 0.028346
C	-1.6651036932	 0.8236897542	-1.5924721359	-0.438247
C	-2.5788050523	 1.4599314825	-0.5441638805	 0.453868
O	-3.5616894007	 1.1850465232	 0.0567889422	-0.299877
O	-1.8468162057	 2.6272366218	-0.4759032794	-0.240205
H	 0.947855041	 0.9158719819	 2.5322240692	 0.22881
H	-0.9190502179	 2.7973467939	-2.3717128438	 0.131267
H	-2.1370532026	 0.6198456444	-2.5539497869	 0.160937
H	-1.1363024495	-0.0636176375	-1.240262175	 0.161024
43.9643	73.2579	154.302	182.4878	279.5175	314.8402	413.4537	499.3267	521.4128	650.0107	666.1635	686.9667	722.3314	742.8481	787.1205	899.1163	954.436	965.9057	1034.5329	1107.2629	1116.7267	1220.8686	1225.6442	1276.8526	1329.9576	1450.9185	1773.822	1956.6121	2214.4839	3095.6912	3118.1513	3157.5508	3490.4252
O=C(C#C)C1CC(=O)O1	O=C(C#C)[C@H]1CC(=O)O1	
InChI=1S/C6H4O3/c1-2-4(7)5-3-6(8)9-5/h1,5H,3H2	InChI=1S/C6H4O3/c1-2-4(7)5-3-6(8)9-5/h1,5H,3H2/t5-/m1/s1
