17
gdb 13798	3.14451	1.62363	1.29112	6.2858	65.34	-0.2475	0.0255	0.2729	983.8007	0.142913	-401.017157	-401.009238	-401.008293	-401.049647	29.165	
C	 0.6150679175	 1.0189467423	-0.4155071409	-0.330067
N	-0.3132697897	 0.2191735488	 0.3903541449	-0.314872
H	-1.0958825888	 0.789007127	 0.6944695463	 0.238798
H	-0.5818663425	-1.3072088178	-0.4778234318	 0.308753
C	 0.3057412966	-0.4131641334	 1.5326508419	 0.010339
C	-0.4567843601	-1.4937900733	 2.2266271942	-0.325944
C	 0.7654200372	-1.859193452	 1.3956435765	-0.14799
C	 0.5984384139	-2.6705290361	 0.1378337606	 0.414516
O	 1.2328379628	-3.6755672254	-0.0536548815	-0.346344
O	-0.3118431234	-2.2239407562	-0.7433510758	-0.391512
H	 1.3605584723	 0.3576795518	-0.8657773901	 0.151755
H	 0.0643731538	 1.5109078452	-1.2208548377	 0.133915
H	 1.1430325129	 1.7852085675	 0.1716231794	 0.116943
H	 0.9460300584	 0.2237598092	 2.1453614132	 0.095231
H	-0.3810755547	-1.5780008095	 3.304132134	 0.131941
H	-1.4229262916	-1.7636994517	 1.8139181009	 0.136651
H	 1.6558957352	-2.1424456366	 1.9424695559	 0.117887
81.497	131.0731	197.4884	210.3091	275.1972	289.0619	409.6158	453.0783	523.4692	655.9708	751.2775	778.7795	813.5225	824.5337	866.652	966.8624	973.859	989.5507	1041.3867	1075.8489	1095.9566	1132.9619	1142.5293	1179.2351	1205.756	1240.6635	1277.6681	1362.3463	1400.8064	1451.2817	1459.0495	1484.5577	1489.8855	1498.5984	1514.3981	1849.9555	2994.9638	3082.7685	3089.2654	3128.9458	3142.6782	3197.7715	3233.0327	3247.5709	3520.0214
C[NH2+]C1CC1C([O-])=O	CN[C@H]1C[C@H]1C(=O)O	
InChI=1S/C5H9NO2/c1-6-4-2-3(4)5(7)8/h3-4,6H,2H2,1H3,(H,7,8)	InChI=1S/C5H9NO2/c1-6-4-2-3(4)5(7)8/h3-4,6H,2H2,1H3,(H,7,8)/t3-,4+/m1/s1
