17
gdb 51366	4.20977	0.97118	0.90255	4.2211	72.12	-0.2348	-0.0173	0.2175	1285.7679	0.133903	-421.740397	-421.732419	-421.731475	-421.774533	29.663	
O	-0.6337703045	 0.4145626725	 0.470682641	-0.242089
C	 0.1161998762	 0.9450226821	-0.3061414507	 0.146794
C	 1.1727052426	 1.9660982327	 0.0645123762	-0.289868
C	 1.2630624905	 3.0809668959	-0.9787912731	-0.023971
C	 1.3235078408	 4.5705642951	-0.7557747989	-0.124539
C	 2.3385340849	 4.9992614542	 0.3502066583	 0.02044
O	 2.9462865615	 3.8358969139	 0.9302501882	-0.236059
C	 3.428324265	 4.3143356068	-0.3325970352	 0.019836
C	 2.4709624737	 3.8439805083	-1.4695980964	-0.133359
H	 0.0822859535	 0.6906081823	-1.3947330741	 0.066047
H	 0.9662556155	 2.3360694188	 1.0682532714	 0.140799
H	 2.1255363334	 1.4235985745	 0.1191438699	 0.135726
H	 0.6161516177	 2.8825724133	-1.8356589505	 0.096158
H	 0.6030302431	 5.2583539984	-1.1796826867	 0.098577
H	 2.3094188002	 5.9027333556	 0.9462777894	 0.114666
H	 4.4845782752	 4.536908655	-0.41888246	 0.113628
H	 2.7399726107	 3.8938901606	-2.517091229	 0.097214
27.0359	65.9465	165.3028	223.5098	296.8408	397.7424	487.8954	514.1975	676.4267	713.278	726.731	753.957	781.9755	824.8258	867.1706	891.5244	934.8664	947.4898	986.4651	1004.566	1026.4926	1048.2889	1061.2446	1067.5585	1097.2952	1189.631	1223.7123	1235.535	1243.0189	1274.4076	1279.3926	1321.5711	1393.6855	1428.5777	1438.3127	1450.7651	1838.6518	2824.7351	3036.4857	3087.3691	3139.0624	3184.9206	3194.2875	3196.2895	3207.7008
O=CCC1C2C3OC3C12	O=CC[C@H]1[C@H]2[C@H]3O[C@H]3[C@@H]12	
InChI=1S/C7H8O2/c8-2-1-3-4-5(3)7-6(4)9-7/h2-7H,1H2	InChI=1S/C7H8O2/c8-2-1-3-4-5(3)7-6(4)9-7/h2-7H,1H2/t3-,4+,5-,6+,7-
