17
gdb 90573	2.88833	1.21691	1.0564	4.3597	68.91	-0.2642	-0.0085	0.2557	1165.0125	0.135545	-458.94667	-458.938464	-458.93752	-458.980294	30.385	
O	 0.0947128819	 1.4492456458	-0.1765943098	-0.435733
C	-0.0020714353	 0.0812612929	 0.0933304307	 0.155749
C	-0.0093600824	-0.438675215	 1.5759085564	-0.287002
C	-1.3090193144	-1.1940481625	 1.2850434472	-0.106748
C	-2.3670617704	-0.2479712898	 0.8216252404	 0.098508
O	-2.415208988	 1.1097694482	 1.2623030131	-0.208278
C	-3.0467452384	 1.3451211855	 2.4358410123	 0.176898
O	-3.1335567654	 2.4375843577	 2.9063278675	-0.267482
C	-1.3342475734	-0.6414714485	-0.1698318765	-0.15436
H	-0.646899866	 1.8843684953	 0.2611879577	 0.296973
H	 0.8048075184	-0.3966959947	-0.4670866011	 0.099853
H	 0.8340564753	-1.0955610146	 1.7951821535	 0.113067
H	-0.0662154862	 0.3328793598	 2.348461324	 0.111952
H	-1.5567963377	-2.1873951692	 1.6387033815	 0.099559
H	-3.3564182526	-0.6661096264	 0.6594622772	 0.120061
H	-3.4638784463	 0.4255814151	 2.8864368037	 0.088257
H	-1.6124282391	-1.1259333796	-1.0984867278	 0.098726
48.9546	114.3501	130.8589	230.842	246.9926	362.1008	428.7972	488.62	501.958	563.3812	705.6298	731.4485	753.2795	812.512	869.3561	938.2678	969.8986	988.3299	1010.6443	1042.4399	1048.2742	1062.2277	1099.623	1124.0803	1160.9317	1170.351	1193.0983	1230.0933	1269.9626	1294.283	1322.8045	1350.017	1407.9407	1439.1293	1456.6259	1491.7892	1870.7979	2972.0846	3066.8086	3084.742	3124.7499	3153.3224	3179.7897	3193.0257	3792.2751
OC1CC2C(OC=O)C12	O[C@H]1C[C@H]2[C@@H](OC=O)[C@@H]12	
InChI=1S/C6H8O3/c7-2-9-6-3-1-4(8)5(3)6/h2-6,8H,1H2	InChI=1S/C6H8O3/c7-2-9-6-3-1-4(8)5(3)6/h2-6,8H,1H2/t3-,4+,5-,6-/m1/s1
