16
gdb 27315	3.33576	1.3878	0.98609	5.1544	78.03	-0.1982	-0.0104	0.1878	1150.4338	0.126149	-434.123935	-434.115843	-434.114899	-434.156984	30.545	
C	-0.0211518337	 1.4946334596	 0.0276828495	-0.491085
C	 0.0030933273	-0.0086683061	-0.0248312507	 0.386801
N	-0.0239081182	-0.6225618216	-1.1703653268	-0.367708
C	-0.0010491062	-2.0104940811	-1.1930947674	 0.269921
N	-0.0227555536	-2.7497360322	-2.2473952858	-0.593868
C	 0.0530329022	-2.7387272252	 0.0806755576	 0.33128
O	 0.0729365315	-4.0755342241	-0.0055944672	-0.430512
C	 0.0791712317	-2.0492098215	 1.237503131	-0.136168
N	 0.0532123341	-0.6572237318	 1.168775193	-0.331849
H	 0.8723315582	 1.8871961476	 0.5260182046	 0.138913
H	-0.0582024307	 1.8807772885	-0.9896737499	 0.163904
H	-0.8964493495	 1.8566480119	 0.5786643237	 0.139107
H	-0.0599625235	-2.1826103651	-3.0925368696	 0.218587
H	 0.0437772119	-4.2312198968	-0.9762665734	 0.305085
H	 0.1189420214	-2.4990323505	 2.2188907424	 0.133096
H	 0.0721825072	-0.1237432116	 2.0220249792	 0.264496
48.3063	121.7887	204.8988	309.3806	324.2303	352.3547	410.3517	479.5031	481.3351	526.2211	595.7857	640.6608	694.122	751.6037	793.9264	796.9304	823.8642	851.0811	950.5321	1024.5428	1058.7102	1119.7643	1172.5504	1232.9993	1305.2566	1318.9061	1379.6559	1404.4386	1469.5693	1484.6597	1487.0245	1552.2503	1636.5873	1664.3011	1734.9846	3037.2304	3092.293	3169.0475	3238.6017	3475.546	3505.5758	3651.4525
CC1=NC(=N)C(O)=CN1	C[C@@H]1N=C([NH])C(=CN1)O	
InChI=1S/C5H7N3O/c1-3-7-2-4(9)5(6)8-3/h2,9H,1H3,(H2,6,7,8)	InChI=1S/C5H8N3O/c1-3-7-2-4(9)5(6)8-3/h2-3,6-7,9H,1H3/t3-/m0/s1
