17
gdb 131874	5.46923	0.81033	0.73882	3.2767	71.2	-0.2232	0.0245	0.2477	1498.2707	0.137273	-455.151154	-455.142627	-455.141683	-455.185408	30.947	
O	-0.0480709159	 1.4150363035	-0.0549626728	-0.421196
C	-0.0263729036	 0.0025685741	 0.0093769336	-0.067984
C	-1.4252350462	-0.5858046677	 0.037569106	-0.070317
O	-2.047664214	-0.1832511209	-1.189493882	-0.293901
C	-3.3377477766	-0.531150334	-1.3516655496	 0.460046
N	-4.0091746471	-1.2467281162	-0.4590344276	-0.317587
N	-5.2423545064	-1.3679235956	-1.01174489	-0.207966
C	-5.3479699541	-0.75235303	-2.2108137958	 0.002364
C	-4.1209025895	-0.1869978843	-2.4788378366	-0.334946
H	-0.6245009121	 1.639980559	-0.7940553835	 0.290468
H	 0.5318513405	-0.4316102526	-0.835495246	 0.09371
H	 0.4972722025	-0.269668046	 0.9316262478	 0.111182
H	-1.4044288427	-1.6800356939	 0.1075724356	 0.111569
H	-2.0006245367	-0.195266174	 0.8842915403	 0.12248
H	-5.9475947257	-1.8786194626	-0.5111083959	 0.275406
H	-6.2681948627	-0.7610657432	-2.7736330351	 0.137307
H	-3.8244587897	 0.3827871846	-3.3426781686	 0.109364
47.1753	70.0043	138.6832	181.4898	291.0831	337.7049	404.8006	411.6943	465.6804	495.4802	650.3528	718.9904	748.6624	763.7768	831.8754	890.1022	904.5678	938.0898	1006.9124	1054.9149	1069.3145	1095.8757	1120.0033	1130.5527	1219.6282	1239.347	1260.4866	1313.1175	1382.8554	1390.1259	1412.1492	1438.61	1492.635	1494.1059	1499.1841	1533.863	1592.8559	2981.6366	3031.648	3078.687	3084.8049	3259.1522	3286.3328	3692.6068	3804.2712
OCCOC1=NNC=C1	OCCOc1n[nH]cc1	
InChI=1S/C5H8N2O2/c8-3-4-9-5-1-2-6-7-5/h1-2,8H,3-4H2,(H,6,7)	InChI=1S/C5H8N2O2/c8-3-4-9-5-1-2-6-7-5/h1-2,8H,3-4H2,(H,6,7)
