16
gdb 15329	3.31703	1.14488	0.91002	3.1403	76.03	-0.2381	-0.0191	0.219	1267.2891	0.128177	-346.580797	-346.571921	-346.570976	-346.616176	30.307	
C	 0.1190710016	 1.5344713404	 0.052103251	-0.498546
C	 0.0739286465	 0.0797465089	 0.0698601977	 0.072564
C	 0.0319552095	-1.124339116	 0.0825967645	 0.076991
C	 0.0205510302	-2.5605245772	 0.089001177	-0.187647
C	-0.5585875476	-3.3270650023	 1.2444408562	-0.296439
C	-1.2868803777	-3.3584210812	-0.0852291097	-0.103757
C	-2.5750931112	-2.6365618684	-0.2062830783	 0.165347
O	-3.5009105033	-3.0133289779	-0.8816644121	-0.268609
H	 0.9737579103	 1.8942883845	-0.5311632125	 0.152143
H	-0.7876314296	 1.9553847837	-0.3963094352	 0.152709
H	 0.2119819792	 1.9448882013	 1.0636825499	 0.149504
H	 0.8686551938	-3.024019204	-0.4072136851	 0.124076
H	-0.0646490588	-4.2377443043	 1.5618796986	 0.133052
H	-1.0096803427	-2.7476598208	 2.0425279649	 0.135495
H	-1.2240025798	-4.2630417513	-0.6793330763	 0.11282
H	-2.6346155803	-1.6999298851	 0.3910048894	 0.080297
18.6439	68.5884	121.0335	136.3887	233.3133	274.8607	330.0292	355.8628	461.5378	495.9557	569.9983	700.6492	816.3672	860.6039	878.7589	948.7041	1043.6094	1048.9815	1053.2608	1059.6301	1080.8219	1123.7482	1159.6128	1185.3708	1233.7405	1337.8343	1390.3113	1415.1278	1440.7708	1476.5757	1478.2965	1479.5294	1819.1538	2369.4539	2890.5359	3026.9836	3087.5677	3089.5289	3140.8716	3143.4678	3183.9482	3233.035
CC#CC1CC1C=O	CC#C[C@H]1C[C@H]1C=O	
InChI=1S/C7H8O/c1-2-3-6-4-7(6)5-8/h5-7H,4H2,1H3	InChI=1S/C7H8O/c1-2-3-6-4-7(6)5-8/h5-7H,4H2,1H3/t6-,7-/m0/s1
