15
gdb 8569	4.19592	2.08954	1.77035	3.5384	60.2	-0.2293	0.0035	0.2328	754.275	0.121318	-399.796388	-399.790454	-399.789509	-399.826357	23.706	
O	 0.0491835994	 0.0940286591	 0.5640330667	-0.325603
C	-0.0140742258	 1.1866888948	 0.0776137293	 0.40168
C	-1.33107645	 1.9485243408	-0.1629724511	-0.314904
N	-1.1685508159	 3.2752625566	-0.7721408279	-0.122825
C	-0.1898721699	 3.110100494	-1.914835181	-0.195667
C	 0.9448854192	 3.1497716219	-0.8793714466	 0.108671
C	-0.0435882271	 3.9595392047	-0.025772627	-0.195667
O	 1.1201313985	 1.8397522063	-0.3038763711	-0.232921
H	-1.9655616662	 1.3221105189	-0.7983295869	 0.145986
H	-1.8417142954	 2.0412780512	 0.801024473	 0.145986
H	-0.3041094937	 2.201620182	-2.511881303	 0.122213
H	-0.2182758359	 3.990697734	-2.5613013174	 0.12226
H	 1.9447079029	 3.5143204537	-1.1207192135	 0.096317
H	-0.0395999398	 5.0282309557	-0.2539366308	 0.12226
H	-0.0277919404	 3.8061328963	 1.0563860974	 0.122213
123.6681	336.7554	408.2487	442.6893	469.4982	500.0789	562.6908	633.7979	773.0352	822.4741	839.3118	894.8405	928.8915	939.3839	988.5373	1012.6003	1044.8668	1097.5657	1115.6699	1145.148	1171.0516	1249.9375	1256.0915	1258.6491	1271.2348	1303.3195	1334.55	1384.7595	1459.9767	1484.4211	1512.8726	1863.394	3054.5052	3058.4385	3064.7067	3097.8811	3100.7877	3122.4119	3123.6147
O=C1CN2CC(C2)O1	O=C1CN2C[C@@H](C2)O1	
InChI=1S/C5H7NO2/c7-5-3-6-1-4(2-6)8-5/h4H,1-3H2	InChI=1S/C5H7NO2/c7-5-3-6-1-4(2-6)8-5/h4H,1-3H2
