14
gdb 5594	3.51517	1.92948	1.25555	1.4819	60.28	-0.1761	0.0412	0.2173	910.9478	0.107507	-415.876406	-415.86849	-415.867545	-415.909689	27.776	
C	-0.024252043	 1.3901603172	 0.0381301198	-0.233599
O	 0.0030517994	-0.0302868472	 0.0714005033	-0.294639
C	-1.2122237365	-0.6372474651	 0.0479356544	 0.248888
C	-1.3897921835	-1.9965468601	 0.0733144667	 0.270685
O	-0.5472120894	-3.0592507111	 0.1232333121	-0.443782
N	-2.7499008696	-2.1857198074	 0.0360816205	-0.296937
C	-3.3262423995	-0.9463806732	-0.0097506053	-0.006898
N	-2.4159932036	 0.0052104884	-0.0034732156	-0.33948
H	 1.0186323863	 1.7115149344	 0.0628968054	 0.120423
H	-0.5073161451	 1.7577742408	-0.8738242762	 0.129106
H	-0.5619610292	 1.7982884352	 0.9009408782	 0.129128
H	 0.3499098284	-2.7077891166	 0.1423900435	 0.31433
H	-3.2109429596	-3.0799562276	 0.0416793294	 0.272716
H	-4.3944014149	-0.8055325676	-0.0455573864	 0.13006
23.253	162.8052	190.4619	218.6082	271.1313	322.6103	339.4809	470.7469	557.2431	626.57	651.8306	696.859	717.4054	775.1687	947.1111	1061.3735	1105.979	1150.4538	1181.5309	1197.6424	1238.147	1289.0946	1352.8494	1417.5151	1478.2193	1478.552	1501.4642	1508.4264	1554.1417	1693.4732	3025.7867	3088.5647	3134.4547	3267.1244	3668.9918	3824.843
COC1=C(O)NC=N1	COc1c(O)[nH]cn1	
InChI=1S/C4H6N2O2/c1-8-4-3(7)5-2-6-4/h2,7H,1H3,(H,5,6)	InChI=1S/C4H6N2O2/c1-8-4-3(7)5-2-6-4/h2,7H,1H3,(H,5,6)
