19
gdb 80792	1.92658	1.65211	1.20865	1.6772	83.36	-0.2432	0.0413	0.2844	1134.416	0.157792	-385.806117	-385.79723	-385.796285	-385.839203	34.648	
C	-0.1570564187	 1.5583731555	-0.0347892976	-0.448578
C	 0.0358843637	 0.0501290311	-0.0148008858	-0.00002
C	 1.2190089127	-0.6581375279	-0.7550187794	-0.140787
C	 2.1586269421	-0.1654841846	 0.3799119635	-0.271816
C	 0.8731111692	-0.657309444	 1.1208988251	 0.207525
C	 0.6062818352	-0.649269039	 2.5277715422	 0.048673
C	 0.3663068724	-0.644597169	 3.7073193274	-0.369569
C	 0.9635490338	-1.9041230241	 0.1513358717	 0.154327
O	-0.1046186093	-2.7734945128	-0.0438109694	-0.443011
H	 0.770072041	 2.1217674387	 0.0911395482	 0.123434
H	-0.6058061232	 1.8682850413	-0.9848384516	 0.120281
H	-0.8401437501	 1.860692379	 0.7661596901	 0.129942
H	-0.9441034617	-0.4139401087	-0.1826420114	 0.044749
H	 1.4235096455	-0.6532250629	-1.8256348446	 0.077514
H	 3.0642573941	-0.7513601869	 0.5567575172	 0.101538
H	 2.3689186224	 0.9007684451	 0.4288843096	 0.108367
H	 0.1595447329	-0.6457036515	 4.7487183965	 0.177779
H	 1.8366606463	-2.5369363972	 0.3253604433	 0.090962
H	-0.9116506682	-2.272667302	-0.1998404251	 0.288689
112.899	132.2358	177.4199	218.5204	254.1981	266.9238	350.5078	398.0698	492.1785	511.9538	560.2504	573.1718	619.4757	635.7933	658.1481	765.9334	785.1137	811.0324	887.298	935.1283	945.2635	1015.9916	1039.2739	1085.3258	1096.4354	1108.7779	1148.999	1163.2681	1170.3386	1216.7813	1233.0847	1239.9646	1277.0019	1289.7357	1413.0518	1430.9791	1457.2225	1495.3425	1498.2992	1531.2176	2228.0803	3011.0959	3038.8632	3073.0991	3093.5274	3095.999	3119.051	3122.3669	3158.5015	3502.034	3817.3804
CC1C2CC1(C#C)C2O	C[C@H]1[C@H]2C[C@]1(C#C)[C@H]2O	
InChI=1S/C8H10O/c1-3-8-4-6(5(8)2)7(8)9/h1,5-7,9H,4H2,2H3	InChI=1S/C8H10O/c1-3-8-4-6(5(8)2)7(8)9/h1,5-7,9H,4H2,2H3/t5-,6+,7-,8-/m0/s1
