15
gdb 67735	3.03387	1.91427	1.35305	3.1719	64.5	-0.2265	-0.0156	0.2109	901.9321	0.110322	-457.664833	-457.657435	-457.656491	-457.69602	29.88	
O	-0.0646834178	 1.3961792379	 0.0836587688	-0.475167
C	 0.0262281809	 0.0178430605	 0.0660728974	 0.364312
C	 0.9313918829	-0.721604457	 1.0409802353	-0.191829
C	 0.7118940836	-2.0111364686	 0.7819475211	-0.19183
C	-0.3190727667	-2.0002906159	-0.3376675386	 0.364312
O	-0.7504853601	-3.1762133324	-0.9203102834	-0.475167
C	-1.3074092956	-0.7873623876	-0.0653094187	-0.0345
O	-1.4048740019	-0.5035433225	-1.4971979928	-0.318266
C	 0.0115541058	-0.8063965519	-1.2913482463	-0.034501
H	 0.7917824275	 1.7662395816	-0.1549329079	 0.287035
H	 1.5827591711	-0.2571050496	 1.768939918	 0.114878
H	 1.1455382557	-2.8961017875	 1.2277656381	 0.114878
H	-1.2148056836	-3.6982428114	-0.2575160702	 0.287035
H	-2.2157725547	-0.7290352884	 0.5398527208	 0.094406
H	 0.6817785828	-0.7724386472	-2.1541304919	 0.094406
199.2675	222.8724	245.434	311.1307	331.5183	372.2041	401.7779	534.1267	534.6941	595.1328	653.7395	710.3595	717.9715	760.7847	799.8363	816.8834	896.866	915.4995	947.2339	1031.5621	1057.5887	1068.0726	1080.8639	1106.7906	1145.062	1165.3584	1229.4101	1274.4097	1296.8089	1330.9523	1374.0929	1400.4245	1641.0976	3089.3388	3096.5919	3211.4293	3238.0268	3810.0496	3810.3103
OC12C=CC3(O)C1OC23	O[C@@]12C=C[C@@]3(O)[C@@H]1O[C@@H]23	
InChI=1S/C6H6O3/c7-5-1-2-6(8)3(5)9-4(5)6/h1-4,7-8H	InChI=1S/C6H6O3/c7-5-1-2-6(8)3(5)9-4(5)6/h1-4,7-8H/t3-,4+,5+,6-
