20
gdb 57667	2.16154	1.16911	0.92562	3.7554	83.2	-0.2567	0.0258	0.2824	1359.1816	0.166653	-403.11852	-403.10787	-403.106926	-403.154278	38.701	
C	-0.0463527261	 1.5520525529	 0.007385866	-0.416799
C	 0.0592804776	 0.0228475946	 0.06355238	 0.330235
C	 0.7822053879	-0.4572430296	 1.3265882678	-0.418446
C	-1.3637692867	-0.5818042937	-0.0257333225	-0.374062
C	-1.4124600666	-2.0352878912	 0.0600985011	 0.316225
C	-1.4664908798	-3.2327644001	 0.1419943445	-0.439847
O	 0.7038208597	-0.4768303323	-1.1341062161	-0.218878
C	 1.9836879258	-0.1552250973	-1.3888933532	 0.123012
N	 2.5267212127	-0.5513978038	-2.4596102241	-0.443713
H	 0.9389174096	 2.0241228873	 0.0508920652	 0.118284
H	-0.5369543733	 1.86762005	-0.9177574999	 0.133827
H	-0.628252394	 1.9247941696	 0.8556501359	 0.123076
H	 0.2049887665	-0.1776876691	 2.2133760537	 0.122374
H	 0.8869960979	-1.5439287009	 1.3118287596	 0.150604
H	 1.7730895261	-0.0061105535	 1.4244294282	 0.115204
H	-1.9719828207	-0.1444634391	 0.7752040316	 0.12772
H	-1.8043325512	-0.25565874	-0.9747806771	 0.143222
H	-1.5108092223	-4.2920972021	 0.1989472218	 0.197365
H	 2.469133782	 0.4473445358	-0.6129488328	 0.085857
H	 3.4918137549	-0.2290122874	-2.4936355697	 0.224739
60.8873	86.4581	101.8488	149.2702	204.4583	224.6357	243.3678	317.9751	333.2622	350.8576	361.3338	406.7765	451.5189	553.5825	601.8883	618.2679	650.5611	788.867	820.1082	885.2657	893.9211	931.9984	968.7004	1012.1134	1025.8807	1042.7393	1112.2846	1162.452	1196.1056	1249.8793	1276.3768	1308.1731	1351.6274	1400.9388	1411.5683	1429.6418	1456.4246	1480.5761	1487.6167	1501.4239	1504.6239	1735.714	2241.9538	3032.2394	3042.9456	3045.0042	3055.2264	3072.3637	3111.5688	3118.4785	3122.0037	3139.9466	3506.0769	3512.6045
CC(C)(CC#C)OC=N	CC(C)(CC#C)O[CH][NH]	
InChI=1S/C7H11NO/c1-4-5-7(2,3)9-6-8/h1,6,8H,5H2,2-3H3	InChI=1S/C7H11NO/c1-4-5-7(2,3)9-6-8/h1,6,8H,5H2,2-3H3
