19
gdb 108682	1.79139	1.6033	0.90087	1.6507	88.56	-0.2231	-0.02	0.2031	1312.5053	0.157747	-385.872364	-385.862827	-385.861883	-385.90747	34.247	
C	-0.331351277	 1.5740414849	-0.1277157632	-0.376865
C	 0.0739422647	 0.0950359503	 0.0183894608	-0.316452
C	 0.7714595873	-0.4530466939	-1.1857793967	 0.183212
C	 2.0385650525	-0.8862557674	-1.2853261559	 0.079191
C	 2.3033134835	-1.3652088855	-2.696980157	-0.171095
O	 1.0873255201	-1.1479520134	-3.3999733755	-0.265366
C	 0.1023779482	-0.6143308252	-2.5256954944	-0.144282
C	 3.0224054749	-0.9319731403	-0.2733001178	 0.209882
C	 3.8913576724	-0.9903174369	 0.5604261833	-0.431105
H	 0.5467465612	 2.2034012363	-0.3005057925	 0.128225
H	-1.0218939572	 1.7232873603	-0.9633983995	 0.121585
H	-0.8280221056	 1.924842657	 0.781600137	 0.119459
H	 0.7249216312	-0.024043781	 0.8899795196	 0.121645
H	-0.8287088689	-0.5012962773	 0.2127615679	 0.109956
H	 3.1206903492	-0.8064526878	-3.1765590697	 0.112699
H	 2.575078472	-2.4316362618	-2.7221070077	 0.111503
H	-0.7641285945	-1.2949964767	-2.4646874787	 0.105086
H	-0.271517859	 0.3406844422	-2.9276592279	 0.10974
H	 4.6501571049	-1.0370147037	 1.3015413179	 0.192981
52.714	82.3594	130.6697	141.0267	168.0387	219.1575	294.2402	337.193	447.15	505.3864	567.4191	576.5538	604.348	644.5727	647.5146	788.8768	819.9731	949.9571	957.1301	991.654	1001.7271	1059.6073	1079.034	1103.8243	1125.8354	1173.0447	1196.0663	1225.6286	1264.5769	1308.8635	1351.7598	1376.3201	1393.6664	1411.1299	1480.7362	1499.5329	1505.7501	1517.2266	1531.1087	1701.2335	2220.4068	2956.7083	2980.6399	2984.3778	3006.2036	3011.2535	3040.8217	3078.1653	3113.0482	3115.96	3502.7439
CCC1=C(COC1)C#C	CCC1=C(COC1)C#C	
InChI=1S/C8H10O/c1-3-7-5-9-6-8(7)4-2/h1H,4-6H2,2H3	InChI=1S/C8H10O/c1-3-7-5-9-6-8(7)4-2/h1H,4-6H2,2H3
