19
gdb 124744	2.48847	1.40071	0.95031	3.4229	77.54	-0.2268	0.0237	0.2505	1240.0188	0.159572	-419.233421	-419.224005	-419.22306	-419.268977	34.278	
C	 0.2402412953	 1.352833067	-0.2899036654	-0.40005
C	 0.053114223	-0.0877653257	 0.2010057712	 0.004256
O	 0.5185058629	-0.2228163544	 1.5413880873	-0.419926
C	-1.3665468298	-0.58693351	 0.0732486412	 0.104994
C	-2.2040861165	-0.5996977841	-1.0349167135	 0.270586
C	-2.030110691	-0.1458089705	-2.4495321894	-0.504801
N	-3.3632172149	-1.1677486409	-0.6080581564	-0.242773
N	-3.351456682	-1.5313295795	 0.6869868685	-0.237749
C	-2.1363614159	-1.1830211215	 1.0994778296	-0.08939
H	 1.2761927918	 1.6648256169	-0.1306295585	 0.123152
H	 0.0087519518	 1.4515285094	-1.3544123507	 0.114545
H	-0.4204603234	 2.0336439743	 0.2595129526	 0.110449
H	 0.7240021644	-0.7388086914	-0.3756561861	 0.098172
H	-0.0075713062	 0.372180102	 2.0880755092	 0.277605
H	-1.0329622652	-0.3950188722	-2.8239350654	 0.144491
H	-2.7575652256	-0.6307921139	-3.1083199352	 0.124464
H	-2.160106131	 0.9372474406	-2.5560973576	 0.143922
H	-4.1899354409	-1.3396255438	-1.1562263301	 0.266231
H	-1.8336184569	-1.3814403524	 2.1162570086	 0.111821
14.3179	94.3941	167.5788	183.6896	246.6937	260.341	300.6275	334.6066	354.0616	472.9384	504.6546	521.1499	622.6777	686.8362	698.292	732.8679	898.4509	902.1209	955.5539	1001.576	1026.5978	1055.2305	1068.1577	1103.5462	1140.5443	1175.9769	1239.5961	1289.9325	1304.0684	1335.2903	1378.2755	1399.148	1414.0495	1416.8218	1444.2555	1479.0246	1486.0169	1493.4009	1495.8681	1526.5356	1611.5224	3013.5738	3030.4106	3032.6371	3087.4823	3104.1814	3108.1013	3121.1687	3256.4173	3659.8773	3792.9508
CC(O)C1=C(C)NN=C1	C[C@@H](O)c1c(C)[nH]nc1	
InChI=1S/C6H10N2O/c1-4-6(5(2)9)3-7-8-4/h3,5,9H,1-2H3,(H,7,8)	InChI=1S/C6H10N2O/c1-4-6(5(2)9)3-7-8-4/h3,5,9H,1-2H3,(H,7,8)/t5-/m1/s1
