18
gdb 51660	3.36232	1.23274	1.05285	4.0182	73.8	-0.2455	0.0267	0.2722	1168.496	0.147832	-439.036657	-439.02844	-439.027495	-439.071326	29.784	
N	-0.5403332482	 1.1413281174	 0.2227508423	-0.446419
C	-0.564274351	-0.0849610289	-0.0722166351	 0.143477
O	-0.7407159423	-1.0029603632	 0.901977844	-0.188396
C	-0.6461830304	-2.3628490901	 0.5228159685	 0.100679
C	-1.3140217103	-3.2925176254	 1.5690723006	-0.270801
C	-2.3412200989	-3.7624991973	 0.508299179	-0.084448
C	-3.5365727964	-2.8066442709	 0.3058761499	-0.077666
O	-2.8168540397	-2.0341594416	-0.6915788477	-0.27704
C	-1.662186352	-2.8657947126	-0.5639189445	 0.078184
H	-0.4149705241	 1.6966024358	-0.6210948781	 0.227748
H	-0.4544845315	-0.5179309244	-1.0742260421	 0.089712
H	 0.3941785603	-2.6239874804	 0.2920893047	 0.084629
H	-0.6506730154	-4.0844527215	 1.9225812128	 0.112193
H	-1.7263366681	-2.76363269	 2.4312027134	 0.122643
H	-2.5240578449	-4.829173363	 0.3933406279	 0.083825
H	-4.4331582681	-3.2632334042	-0.128605561	 0.109349
H	-3.8203901661	-2.1998504416	 1.1736122824	 0.116239
H	-1.2624661829	-3.1942210284	-1.5270840868	 0.07609
19.0472	88.0664	118.2025	173.0453	270.1585	347.9584	395.4121	509.1112	667.0303	678.1537	764.7409	816.7245	824.2075	858.917	892.3118	915.5506	974.2683	990.521	1019.8792	1027.2747	1040.7812	1077.7325	1106.903	1141.7171	1148.1566	1177.1315	1201.0824	1221.7327	1262.1601	1281.4183	1293.8677	1301.8937	1325.9445	1356.7884	1365.993	1424.8706	1472.7739	1517.6595	1746.8155	3020.4128	3023.2019	3041.9526	3069.548	3071.8477	3073.696	3123.8198	3133.0996	3517.3176
N=COC1CC2COC12	[NH][CH]O[C@H]1C[C@H]2CO[C@@H]12	
InChI=1S/C6H9NO2/c7-3-9-5-1-4-2-8-6(4)5/h3-7H,1-2H2	InChI=1S/C6H9NO2/c7-3-9-5-1-4-2-8-6(4)5/h3-7H,1-2H2/t4-,5-,6+/m0/s1
