18
gdb 86023	3.09947	1.16675	1.09875	5.8552	78.71	-0.2307	0.0061	0.2368	1195.4435	0.147841	-398.154424	-398.145371	-398.144427	-398.188324	32.749	
C	-0.0354020132	 1.3674428197	 0.0730625797	-0.334641
N	-0.0181779257	-0.0554172089	-0.181747213	-0.050573
C	-1.1910435739	-0.8820371277	 0.0894246127	-0.234191
C	-0.5684692315	-2.322629039	 0.0391538431	 0.134996
C	-0.8834899441	-3.0453438677	-1.2831416076	-0.412333
N	 0.9010869801	-2.1163346878	 0.1425741497	-0.295311
C	 1.0810481026	-0.8565276338	 0.0036250142	 0.066781
C	-1.040351084	-3.1334581547	 1.1723071469	 0.279259
N	-1.4431143352	-3.7579654843	 2.0570449925	-0.346605
H	 0.9597347705	 1.7800863034	-0.1113226982	 0.14035
H	-0.7396038477	 1.8686626952	-0.5989724504	 0.137002
H	-0.323721578	 1.6022513877	 1.109160102	 0.127211
H	-1.6143023203	-0.6494361486	 1.0761950861	 0.124617
H	-1.972356945	-0.7424135901	-0.6639622608	 0.123649
H	-0.5680979516	-2.4143620352	-2.1186505124	 0.12929
H	-0.3356544449	-3.9882449294	-1.3315260128	 0.149763
H	-1.9545530169	-3.2487044303	-1.3728868254	 0.12843
H	 2.0674067785	-0.4003555184	-0.0115124762	 0.132306
63.8917	126.9351	176.1267	187.2158	202.3248	249.6592	285.7024	355.4741	368.89	491.64	529.4597	580.1874	625.1717	706.7529	805.8942	887.404	935.8128	949.1402	968.0865	980.2185	1071.3191	1127.0693	1146.6911	1164.6274	1203.2548	1240.3152	1252.676	1307.5182	1335.2468	1398.4388	1423.9076	1463.9336	1479.9854	1482.1978	1490.4395	1511.4463	1531.3355	1673.8325	2359.6387	2988.9767	3009.3589	3046.2655	3069.5867	3074.6516	3119.6825	3123.0098	3142.5199	3180.8107
CN1CC(C)(N=C1)C#N	CN1C[C@@](C)([N][CH]1)C#N	
InChI=1S/C6H9N3/c1-6(3-7)4-9(2)5-8-6/h5H,4H2,1-2H3	InChI=1S/C6H9N3/c1-6(3-7)4-9(2)5-8-6/h5H,4H2,1-2H3/t6-/m0/s1
