17
gdb 105332	2.39824	1.58365	1.18322	5.0948	72.22	-0.2494	0.011	0.2604	1078.7587	0.13584	-417.958971	-417.950519	-417.949575	-417.991969	31.772	
N	-0.1192889835	 1.3987959464	 0.0743464559	-0.502624
C	 0.2371079869	 0.0094757849	-0.182470903	-0.215158
C	 0.8822174029	-0.5776203988	 1.0699489105	 0.247058
O	-0.0131876246	-0.5380929213	 2.2253396265	-0.322017
C	 0.218748039	-1.9336933883	 2.4758066275	 0.114943
C	-0.3136381027	-2.7615090082	 1.3567695794	-0.319481
C	 1.0455123666	-2.1001105137	 1.2237194072	-0.172874
C	 2.1364092058	 0.1199773932	 1.4008086434	 0.309774
N	 3.1533476024	 0.6085372859	 1.6486784633	-0.340403
H	-0.4836244748	 1.8351159093	-0.7648450574	 0.236408
H	-0.8485344852	 1.4367367363	 0.7794831344	 0.244506
H	-0.6029504667	-0.6426700913	-0.4660454689	 0.094127
H	 0.9704795647	-0.0271457776	-0.9962656729	 0.124944
H	 0.3670649179	-2.2426560572	 3.5025886714	 0.12202
H	-0.2536829693	-3.8358975664	 1.5022109386	 0.128331
H	-1.1771297828	-2.4223026626	 0.7942987105	 0.125112
H	 1.9638281136	-2.6410411607	 1.0479008235	 0.125334
99.9481	141.7444	167.948	185.6784	228.7969	298.0071	380.338	435.9361	498.2754	506.8958	573.3707	662.3126	765.9674	801.2748	836.5963	875.4467	910.734	952.2375	974.5361	999.7512	1022.3745	1050.0406	1064.7687	1083.6136	1088.9617	1130.5257	1161.3378	1222.7497	1223.407	1274.4239	1330.9206	1350.3181	1423.1302	1472.2363	1496.8265	1653.2306	2359.6125	2986.4298	3065.3989	3127.5943	3199.5059	3215.0026	3225.6631	3509.2316	3593.6526
NCC1(OC2CC12)C#N	NC[C@]1(O[C@H]2C[C@@H]12)C#N	
InChI=1S/C6H8N2O/c7-2-6(3-8)4-1-5(4)9-6/h4-5H,1-2,7H2	InChI=1S/C6H8N2O/c7-2-6(3-8)4-1-5(4)9-6/h4-5H,1-2,7H2/t4-,5+,6+/m1/s1
