16
gdb 25672	5.6754	0.83123	0.72833	2.4918	93.53	-0.2314	-0.0348	0.1966	1524.9843	0.125831	-363.655166	-363.646921	-363.645977	-363.69	29.353	
C	-0.0024392259	 1.4815429304	 0.0105608234	-0.50681
C	-0.0006844848	 0.0274013307	 0.0029561014	 0.213679
C	-0.0006063374	-1.1793884226	-0.0033281769	-0.113352
C	 0.0102336358	-2.6016131082	-0.0111011445	 0.11126
C	 1.2224699162	-3.3159034687	-0.0221846311	-0.06737
N	 1.3084446757	-4.6432915994	-0.0298552255	-0.256724
C	 0.1653565951	-5.3363640919	-0.0267682679	 0.002266
C	-1.0924780953	-4.7389022522	-0.0160297362	-0.107269
C	-1.1732051692	-3.3538766433	-0.0080841736	-0.173039
H	 1.0182483802	 1.8787627357	 0.0029107317	 0.154114
H	-0.5225023245	 1.8828518855	-0.8665633772	 0.153163
H	-0.5056322724	 1.873606363	 0.9016004786	 0.15317
H	 2.1602657502	-2.7661543929	-0.0248111685	 0.11257
H	 0.2609242405	-6.4194116697	-0.0331809229	 0.110174
H	-1.9888211339	-5.3491644162	-0.0139621697	 0.10374
H	-2.1318368405	-2.8472424101	 0.0003811388	 0.110427
15.5608	89.833	94.7715	247.597	301.857	387.6181	411.1023	415.9457	527.2509	557.9273	633.1613	732.5134	739.8299	836.8551	954.1107	981.342	987.4217	998.5986	1036.5736	1049.1874	1052.9714	1069.377	1138.4584	1225.1254	1281.8651	1302.5188	1357.3755	1413.4577	1442.0842	1475.224	1475.7029	1509.4355	1593.6416	1627.2205	2353.8677	3026.7259	3085.7748	3091.896	3157.0739	3163.1282	3187.7529	3203.753
CC#CC1=CN=CC=C1	CC#Cc1cnccc1	
InChI=1S/C8H7N/c1-2-4-8-5-3-6-9-7-8/h3,5-7H,1H3	InChI=1S/C8H7N/c1-2-4-8-5-3-6-9-7-8/h3,5-7H,1H3
