15
gdb 20115	4.06215	1.47625	1.26781	2.8411	62.81	-0.2587	-0.0423	0.2165	962.4243	0.11874	-399.759035	-399.75157	-399.750626	-399.791512	26.546	
O	 1.0502145722	 0.7475880009	-1.2166747498	-0.342314
C	 0.3238046282	 1.511535323	-0.6115096445	 0.36786
C	 0.7394911737	 2.1376277673	 0.679533833	-0.120344
C	 1.2949802393	 1.2007810392	 1.714903346	-0.222904
N	 2.1760339089	 2.104312093	 0.9941880878	-0.30202
C	-1.0376975715	 1.8402332479	-1.153407584	-0.014904
C	-2.2276632291	 1.7755316569	-0.277607172	-0.1753
O	-1.6822357758	 3.0232922661	-0.6750452205	-0.213749
H	 0.2022539305	 3.0262747245	 0.9883815887	 0.123526
H	 1.1360469762	 1.4348539111	 2.7636330949	 0.129229
H	 1.3115590833	 0.1438492699	 1.4627762315	 0.13175
H	 2.6268769059	 1.5829287338	 0.2404035916	 0.249317
H	-1.1556886663	 1.6285704648	-2.2142074422	 0.122572
H	-3.185837474	 1.5126754977	-0.722013817	 0.135952
H	-2.1073003614	 1.522175754	 0.7742356366	 0.131328
72.7291	89.6022	181.3952	234.3608	293.1589	311.9941	482.2059	569.461	747.7068	768.9125	843.8731	872.023	884.2232	912.0273	940.0207	999.7704	1019.3746	1088.0574	1118.4201	1143.55	1152.2908	1166.4033	1175.7904	1209.0633	1261.6834	1291.3965	1321.8758	1386.4722	1404.7222	1498.7841	1521.3579	1775.8303	3091.483	3111.2854	3144.0932	3184.3862	3189.8497	3205.648	3455.7012
O=C(C1CN1)C1CO1	O=C([C@H]1CN1)[C@H]1CO1	
InChI=1S/C5H7NO2/c7-5(3-1-6-3)4-2-8-4/h3-4,6H,1-2H2	InChI=1S/C5H7NO2/c7-5(3-1-6-3)4-2-8-4/h3-4,6H,1-2H2/t3-,4-/m1/s1
