19
gdb 84352	2.58239	1.31361	1.06018	4.5095	81.96	-0.2279	-0.0041	0.2238	1204.9264	0.158852	-382.08246	-382.073406	-382.072462	-382.116312	33.473	
C	 0.186137822	 1.5475401872	 0.1055293421	-0.386375
C	 0.0526382082	 0.0279982284	-0.0415557666	 0.00361
C	 0.8239227205	-0.5505704497	-1.1991181428	-0.079828
C	 1.5542250836	-1.593681012	-0.8273288068	-0.090884
C	 1.3425106377	-1.8713935189	 0.6464515721	-0.154872
C	 2.6012877045	-2.069727807	 1.3944692825	 0.291027
N	 3.5804573109	-2.2457719043	 1.9820680612	-0.33045
N	 0.6180498416	-0.690633797	 1.1129626654	-0.064775
C	-0.2664414904	-0.9125491227	 2.2382343479	-0.340691
H	 1.2383602883	 1.8285164443	 0.1998086107	 0.130968
H	-0.2433653176	 2.0587676305	-0.7625100489	 0.113098
H	-0.3447404818	 1.900116451	 0.9950898328	 0.120411
H	-1.0217956651	-0.2129793175	-0.167661282	 0.072318
H	 0.7552804323	-0.1455977075	-2.20130513	 0.114724
H	 2.1975985001	-2.2078348834	-1.4425910094	 0.126883
H	 0.7584816094	-2.8053647161	 0.7724220654	 0.109898
H	 0.2989036749	-1.324354243	 3.0799262834	 0.138528
H	-0.6956267923	 0.0385291247	 2.565462348	 0.128554
H	-1.0991577369	-1.6041902369	 2.009744075	 0.097855
59.8311	130.9705	170.4786	211.9117	235.8509	252.9804	276.5658	354.9632	388.402	475.7731	554.6772	558.6298	621.0547	738.8798	765.5812	833.7507	894.9456	930.7846	963.1719	1005.0334	1031.9388	1071.6655	1101.4947	1119.8394	1143.3572	1156.4214	1199.3984	1243.1803	1293.815	1335.428	1345.0002	1368.4402	1377.1734	1404.981	1462.8935	1489.9916	1492.2524	1498.361	1502.407	1696.3898	2356.9646	2889.4568	2896.4262	2932.0358	3037.6778	3069.045	3105.6331	3111.4636	3124.6085	3208.2675	3237.9234
CC1C=CC(C#N)N1C	C[C@H]1C=C[C@@H](C#N)N1C	
InChI=1S/C7H10N2/c1-6-3-4-7(5-8)9(6)2/h3-4,6-7H,1-2H3	InChI=1S/C7H10N2/c1-6-3-4-7(5-8)9(6)2/h3-4,6-7H,1-2H3/t6-,7-/m0/s1
