20
gdb 11861	5.78365	1.06329	1.00871	1.3341	76.08	-0.2594	0.0772	0.3365	1217.6943	0.176781	-348.973464	-348.965066	-348.964121	-349.006696	31.687	
O	-0.0071343882	 1.363257368	-0.26695929	-0.422704
C	 0.0187612538	-0.0277512759	 0.021451349	-0.094947
C	-1.4103719738	-0.5236443894	 0.0667736353	 0.063546
C	-2.2071782956	-0.5627443838	-1.2719613186	-0.302595
C	-2.6687224146	-1.9794079111	-0.903463944	 0.389776
C	-4.0958344199	-2.4341637319	-0.8001176788	-0.31539
C	-3.1584230763	-3.0725457558	-1.8025505622	-0.32951
C	-1.6280836588	-2.0588965453	 0.2229488516	-0.332348
H	 0.9001515829	 1.6750034729	-0.3319725168	 0.285602
H	 0.574726952	-0.5846726965	-0.7519169692	 0.078188
H	 0.5133558932	-0.2278815166	 0.9869966156	 0.082352
H	-1.9570889412	 0.0363374086	 0.8309528224	 0.07963
H	-2.9828436348	 0.1950729981	-1.4068519927	 0.100411
H	-1.5450231193	-0.5404893945	-2.1447454696	 0.095426
H	-4.3877097806	-3.0171758114	 0.068175757	 0.107535
H	-4.8724794526	-1.7744839529	-1.1750520752	 0.109239
H	-3.3027062682	-2.8445295972	-2.8542795309	 0.108564
H	-2.8192831281	-4.0860823935	-1.610685332	 0.107004
H	-0.7393859205	-2.6355071417	-0.0606013791	 0.093102
H	-1.9737902792	-2.4127548202	 1.1982138483	 0.09712
45.6676	103.6689	185.3117	263.0851	276.9306	310.9148	315.3187	408.2667	438.2203	553.5964	733.0691	774.7086	819.4471	850.8229	895.7469	904.8334	920.6267	935.996	990.9619	1022.4905	1050.7653	1069.8426	1074.2035	1085.2666	1090.5192	1148.7666	1187.1475	1201.7231	1231.6598	1238.768	1245.6108	1254.8411	1287.2405	1295.473	1360.4592	1385.7559	1460.761	1463.6303	1474.6807	1494.3427	1504.548	1519.7345	2950.0187	2976.8557	3030.0083	3041.2231	3064.7894	3089.6928	3100.3015	3116.6332	3120.9427	3193.8232	3209.1133	3829.2329
OCC1CC2(CC2)C1	OCC1CC2(CC2)C1	
InChI=1S/C7H12O/c8-5-6-3-7(4-6)1-2-7/h6,8H,1-5H2	InChI=1S/C7H12O/c8-5-6-3-7(4-6)1-2-7/h6,8H,1-5H2
