14
gdb 5754	5.67033	2.06524	1.73397	3.9886	67.08	-0.2166	0.0144	0.2309	736.7453	0.110426	-341.547911	-341.542368	-341.541424	-341.577471	22.079	
C	-0.0951829013	 1.3908309372	-0.0776083734	-0.271935
C	 1.2887905319	 0.8341734739	 0.1233613874	-0.01642
C	 0.0844027151	-0.1070647532	 0.134964079	-0.213307
C	 0.6557600174	-0.6889942681	-1.1443148161	 0.234195
C	 0.6192262682	-1.2080567816	-2.4123951858	-0.191316
N	 1.6921297885	-0.6991797035	-3.12722562	-0.258594
C	 2.3108749291	 0.1661816083	-2.3459198473	-0.025999
N	 1.748225888	 0.1497554915	-1.1026524544	-0.005732
H	-0.4980468129	 1.9425040304	 0.7684632943	 0.125742
H	-0.3888604507	 1.7662616496	-1.0525725446	 0.138875
H	 1.9757323051	 1.1071306043	 0.9118695332	 0.125613
H	-0.3382623568	-0.6379084367	 0.9754849895	 0.116577
H	-0.055298929	-1.9231648103	-2.8557443156	 0.109921
H	 3.1907716273	 0.7334814684	-2.6073140164	 0.13238
127.3119	293.8106	453.7309	482.8041	654.4922	697.9346	709.0103	774.7058	798.3738	804.2116	836.7491	860.5455	925.1477	973.8708	1000.6623	1011.2551	1043.1255	1088.1873	1102.5228	1108.0536	1178.2422	1215.2185	1238.4532	1264.3093	1292.4874	1354.2017	1393.4444	1459.7662	1471.943	1568.3059	3117.0042	3208.7723	3217.0704	3228.0081	3257.1264	3260.6256
C1C2C1C1=CN=CN21	C1[C@H]2[C@@H]1c1cncn21	
InChI=1S/C6H6N2/c1-4-5(1)8-3-7-2-6(4)8/h2-5H,1H2	InChI=1S/C6H6N2/c1-4-5(1)8-3-7-2-6(4)8/h2-5H,1H2/t4-,5+/m1/s1
