17
gdb 80416	2.51608	1.79172	1.30951	1.3825	67.95	-0.245	-0.0272	0.2178	980.5941	0.13625	-458.965414	-458.957625	-458.956681	-458.997359	30.778	
O	 0.0129091879	 1.3766295434	 0.0967766204	-0.442908
C	-0.0316731545	-0.0314286913	 0.0095442403	 0.052277
C	-1.4533597314	-0.5687741973	-0.2346867111	-0.058264
C	-1.1584896399	-2.023113176	-0.7050315781	-0.300949
C	-0.5608008376	-1.2897764685	-1.9562201643	 0.334617
O	-0.2934556048	-1.8973458606	-3.1591397819	-0.484322
C	-1.6979781596	-0.2194413206	-1.7290467372	-0.291608
C	 0.5816027225	-0.5527758524	-1.3063440345	 0.331856
O	 1.6797392652	-0.3646606458	-1.769986045	-0.37042
H	 0.9142012098	 1.6498789191	-0.1122894146	 0.296342
H	 0.4408532365	-0.5061523921	 0.8837803518	 0.089164
H	-2.1970996447	-0.3584896979	 0.5295532709	 0.087913
H	-0.4967469576	-2.6523189064	-0.102515445	 0.105371
H	-2.0679877575	-2.5660596108	-0.9680380102	 0.12179
H	 0.621445556	-1.6699018213	-3.3853833159	 0.293155
H	-2.6538912483	-0.5929449102	-2.1006315466	 0.115968
H	-1.5233189218	 0.8079464787	-2.0524383891	 0.120019
105.4635	212.565	248.4879	256.1017	333.4156	353.2669	423.5512	461.2211	484.9836	528.5911	600.6107	658.9968	741.838	803.5872	875.0503	894.1921	913.9339	943.3048	977.8406	987.6596	1025.298	1051.9342	1084.0868	1142.761	1152.9388	1158.0423	1199.3231	1223.9625	1244.8771	1300.6138	1337.5332	1373.6555	1391.9625	1413.7403	1482.3926	1518.9092	1853.0246	2982.0086	3058.2659	3077.4264	3129.6407	3144.5871	3152.4893	3711.1823	3791.3982
OC1C2CC(O)(C2)C1=O	O[C@H]1[C@@H]2C[C@@](O)(C2)C1=O	
InChI=1S/C6H8O3/c7-4-3-1-6(9,2-3)5(4)8/h3-4,7,9H,1-2H2	InChI=1S/C6H8O3/c7-4-3-1-6(9,2-3)5(4)8/h3-4,7,9H,1-2H2/t3-,4-,6-/m0/s1
