21
gdb 118740	3.38465	0.9021	0.83514	3.1145	80.04	-0.2399	-0.0188	0.2211	1476.6039	0.178924	-424.235992	-424.226036	-424.225092	-424.271321	36.853	
C	 0.0427685774	 1.5483058126	 0.1190811452	-0.382146
C	 0.0028341945	 0.0288264574	 0.0983292769	-0.056336
O	 0.8020630341	-0.4149521314	-0.986152927	-0.296696
C	 0.7223999456	-1.7884827182	-1.3021949672	 0.416538
C	 1.2105453396	-2.6962348229	-0.1753211952	-0.451024
C	-0.641321949	-2.2507644667	-1.938880563	-0.402042
C	 0.1644204244	-2.7495034813	-3.1467012253	 0.408563
O	-0.0872069863	-3.4713280558	-4.0674981244	-0.292522
C	 1.4382557786	-2.0487317291	-2.6614368279	-0.394287
H	 1.0718565087	 1.9014910363	 0.2305638074	 0.128791
H	-0.3595416491	 1.9573555405	-0.8119638063	 0.125113
H	-0.5489443694	 1.9339626205	 0.9546481625	 0.115739
H	 0.3781780811	-0.3729742687	 1.0510912928	 0.094115
H	-1.0332217177	-0.3270694875	-0.0197544548	 0.089943
H	 0.5529426655	-2.6506610875	 0.6977231472	 0.122252
H	 1.2404277382	-3.7381827412	-0.5092539646	 0.123604
H	 2.2196734511	-2.4059116215	 0.1333743259	 0.127234
H	-1.24734861	-2.9931656617	-1.4136646814	 0.122981
H	-1.2699203232	-1.3966285448	-2.2116264233	 0.133959
H	 1.6111116542	-1.108839543	-3.1950904363	 0.140987
H	 2.3587554817	-2.6372718761	-2.6574934614	 0.125234
48.773	74.6416	109.3892	173.7688	246.1519	262.0591	309.7716	327.6695	364.0662	385.6359	420.8317	437.944	529.8009	651.2609	681.6876	736.3003	823.0772	854.5827	879.7204	887.185	945.0871	982.6479	1007.244	1070.5576	1094.1377	1123.2981	1137.8101	1164.7182	1172.9658	1188.9433	1219.1596	1269.5515	1285.6397	1302.5361	1399.4855	1406.9353	1416.1269	1425.6635	1439.1353	1483.3119	1489.0526	1499.1137	1500.8822	1528.778	1894.1211	2974.2656	3008.2186	3038.0025	3044.9448	3054.4957	3062.847	3108.4108	3113.1907	3117.8328	3119.8671	3122.1243	3122.9415
CCOC1(C)CC(=O)C1	CCOC1(C)CC(=O)C1	
InChI=1S/C7H12O2/c1-3-9-7(2)4-6(8)5-7/h3-5H2,1-2H3	InChI=1S/C7H12O2/c1-3-9-7(2)4-6(8)5-7/h3-5H2,1-2H3
