16
gdb 12039	3.85499	1.72194	1.54062	2.9298	68.75	-0.2657	0.0283	0.294	867.6635	0.131675	-342.761235	-342.75387	-342.752926	-342.792545	28.267	
N	-0.1024045779	 1.4862028581	-0.01024727	-0.540215
C	-0.0518478689	 0.0277522139	 0.0043677261	 0.132718
C	 0.2387158611	-0.6108267981	 1.4167840841	-0.267836
C	-1.1292249918	-1.2978306005	 1.3704034321	-0.027761
C	-2.2168632204	-0.2777778838	 1.2083230939	-0.290655
C	-1.4217139497	-0.6855684722	 0.0003813704	-0.059432
C	 0.8386095882	-0.5199581069	-1.031494825	 0.228034
N	 1.5460649241	-0.9054147322	-1.8619646694	-0.345822
H	 0.8351606784	 1.8670716133	 0.0900671824	 0.241113
H	-0.4533195485	 1.8135094673	-0.9069190852	 0.240333
H	 1.0820038744	-1.301554744	 1.3890792125	 0.129783
H	 0.388844578	 0.1231560908	 2.2134338166	 0.111093
H	-1.3253065947	-2.3073840801	 1.7070713126	 0.096294
H	-3.2287167384	-0.6689538629	 1.2291318989	 0.118019
H	-2.1032231926	 0.7215401747	 1.6162264005	 0.130823
H	-1.8658174014	-1.1339158474	-0.8789542505	 0.10351
129.5975	160.7507	218.8979	233.9521	340.5442	409.7549	462.185	518.3815	574.0892	648.8425	746.0145	795.589	841.9847	881.6613	893.3835	926.6573	948.1617	976.2259	1001.1118	1057.4955	1070.5144	1088.1664	1140.3869	1161.2976	1191.2746	1242.002	1256.4602	1277.55	1314.8036	1359.8706	1472.7053	1490.578	1651.4657	2338.2951	3062.7753	3128.4228	3133.577	3192.9302	3200.9965	3218.65	3480.0555	3560.6741
NC1(CC2CC12)C#N	N[C@]1(C[C@H]2C[C@@H]12)C#N	
InChI=1S/C6H8N2/c7-3-6(8)2-4-1-5(4)6/h4-5H,1-2,8H2	InChI=1S/C6H8N2/c7-3-6(8)2-4-1-5(4)6/h4-5H,1-2,8H2/t4-,5-,6-/m1/s1
