20
gdb 16172	4.14612	1.52132	1.32913	1.4673	73.88	-0.2238	0.0859	0.3097	1007.1539	0.178104	-348.999415	-348.991593	-348.990649	-349.031413	30.234	
C	-0.3724294475	 1.5561187771	-0.1708794306	-0.37323
C	 0.0040735864	 0.082803633	 0.033264565	-0.27836
C	 0.8485115154	-0.4861737086	-1.0855318478	 0.337272
C	 0.1854737035	-1.0088972375	-2.3561423734	-0.375532
C	 0.9065459285	-1.9496377989	-1.420782783	 0.070856
O	 2.2155850142	-2.3464897387	-1.734761299	-0.25921
C	 2.9708369245	-1.1676047382	-2.0129010123	-0.092596
C	 2.2902405857	-0.0105192758	-1.2490651746	-0.296461
H	 0.5174612705	 2.19304177	-0.2098971264	 0.116879
H	-0.9199981112	 1.6940778139	-1.1091146694	 0.11808
H	-1.0046133522	 1.9187033989	 0.6455989645	 0.11061
H	 0.5429070215	-0.0291550033	 0.9842158986	 0.095569
H	-0.9119385342	-0.5136354535	 0.1284700045	 0.093601
H	-0.8993011308	-1.0521329064	-2.3587242359	 0.108675
H	 0.6217756932	-0.7895710918	-3.3250147961	 0.111731
H	 0.3691038144	-2.7173220231	-0.8754626483	 0.097735
H	 4.0033896998	-1.3485548011	-1.7015578811	 0.109159
H	 2.9772046813	-0.9694708195	-3.0939085371	 0.097886
H	 2.3912523786	 0.938169787	-1.7849608469	 0.103695
H	 2.7349553388	 0.1182872365	-0.2551692505	 0.103641
89.9444	154.9891	205.579	230.9309	290.8487	350.4811	378.2123	459.1146	599.8501	693.1385	699.1491	784.7293	832.908	860.13	899.2178	923.2257	957.2215	974.1332	1004.5596	1007.8983	1036.4784	1059.3826	1082.0072	1091.1746	1137.2445	1167.3131	1217.2928	1232.4686	1256.4226	1263.7204	1312.7521	1336.4836	1360.9716	1390.2245	1409.1888	1414.8031	1477.7724	1484.5334	1498.0593	1499.0598	1507.2616	1530.6919	3002.2257	3010.2745	3033.6362	3034.8968	3046.51	3079.0349	3089.6722	3103.0775	3104.6666	3126.0675	3176.2158	3210.9025
CCC12CC1OCC2	CC[C@]12C[C@H]1OCC2	
InChI=1S/C7H12O/c1-2-7-3-4-8-6(7)5-7/h6H,2-5H2,1H3	InChI=1S/C7H12O/c1-2-7-3-4-8-6(7)5-7/h6H,2-5H2,1H3/t6-,7+/m1/s1
