23
gdb 100724	2.01893	1.2142	1.05697	3.5063	82.69	-0.2274	0.062	0.2894	1342.2186	0.204402	-421.65451	-421.64324	-421.642295	-421.691311	40.563	
C	 0.0194860023	 1.5520462802	-0.0675721242	-0.38284
C	-0.0165664742	 0.0223601921	-0.0960694178	-0.174782
C	-1.4257690168	-0.5712626122	 0.0830863388	 0.031921
C	-1.4211673037	-2.1004158267	-0.040790281	-0.400417
N	-2.0662548372	-0.135729064	 1.3333949797	-0.095133
C	-1.5528111272	-0.6079010042	 2.6064862941	-0.35849
C	-3.1689111652	 0.6857950382	 1.2523883221	 0.453546
N	-3.7786500046	 0.985000352	 2.4705450352	-0.574395
O	-3.575526103	 1.1721889057	 0.208032749	-0.416752
H	 1.0308844437	 1.9237842153	-0.2588120587	 0.105212
H	-0.6497280404	 1.9751342301	-0.8228808266	 0.133638
H	-0.3016441662	 1.9389638979	 0.9041235068	 0.12052
H	 0.3689456603	-0.3395057218	-1.0573266785	 0.097654
H	 0.6647101237	-0.3837319295	 0.6648590929	 0.085673
H	-2.0658744013	-0.1576102339	-0.6987155854	 0.127854
H	-1.0283674766	-2.3976664415	-1.0179136294	 0.119323
H	-0.7920680715	-2.5728654834	 0.7219485692	 0.108546
H	-2.4340560457	-2.5028210939	 0.0549248528	 0.118138
H	-1.5648967601	 0.1953262328	 3.3485976491	 0.142253
H	-2.1143956509	-1.4650759949	 3.0084049718	 0.11608
H	-0.515669816	-0.9269513111	 2.4869681054	 0.137397
H	-3.8011804375	 0.2728170375	 3.1841846665	 0.247737
H	-4.6672205218	 1.4401763252	 2.3242115983	 0.257318
44.8303	66.9137	92.4148	152.7102	175.8231	203.3852	221.3251	227.5042	268.0925	334.1524	367.1484	434.1113	446.5498	493.2737	538.1076	574.1863	614.7183	714.51	779.971	806.6873	849.3042	959.8832	988.144	1009.5041	1044.5069	1098.524	1108.4533	1124.6086	1146.3594	1176.5565	1225.4174	1269.7164	1306.1677	1333.7783	1380.9608	1395.6195	1407.7077	1412.6032	1430.8401	1478.0913	1480.6563	1493.201	1494.4123	1500.2421	1502.7104	1505.3603	1524.6537	1623.0442	1771.8631	2984.4457	3010.919	3032.8208	3040.3478	3047.8066	3078.7566	3090.4855	3107.8243	3110.5847	3112.5406	3115.2857	3127.8915	3576.0595	3687.2391
CCC(C)N(C)C(N)=O	CC[C@@H](C)N(C)C(=O)N	
InChI=1S/C6H14N2O/c1-4-5(2)8(3)6(7)9/h5H,4H2,1-3H3,(H2,7,9)	InChI=1S/C6H14N2O/c1-4-5(2)8(3)6(7)9/h5H,4H2,1-3H3,(H2,7,9)/t5-/m1/s1
