18
gdb 110228	2.08846	1.56544	1.05508	3.5478	72.55	-0.245	0.0034	0.2484	1168.7895	0.146977	-439.07667	-439.067817	-439.066872	-439.110463	33.097	
C	-0.1035740625	 1.5661569506	 0.1477601129	-0.482567
C	 0.0240971252	 0.0771787391	 0.0419111601	 0.338876
N	-1.1743145875	-0.7755463356	 0.1599016457	-0.385324
C	-0.4917387832	-1.7442973126	 0.9164466133	 0.42272
O	-0.8328661717	-2.8138179416	 1.3381572749	-0.350426
C	 0.7819294234	-0.9152839798	 0.9196218318	-0.315166
C	 1.1857172469	-0.6721796042	-0.5479024688	-0.075763
C	 1.1162413248	-1.7483117472	-1.6113779675	-0.096341
O	 2.1076454035	-2.7437366285	-1.4284905603	-0.416067
H	 0.8805637827	 2.0301025776	 0.2590849626	 0.129656
H	-0.5674235425	 1.9867139468	-0.7519275074	 0.128477
H	-0.7223816867	 1.8403113708	 1.007247401	 0.137434
H	-1.7943801996	-1.0081977551	-0.6085291682	 0.240274
H	 1.4552244185	-0.7382668781	 1.7465596934	 0.117995
H	 2.0952593054	-0.0753801896	-0.6047188907	 0.105376
H	 0.1094133825	-2.1879147689	-1.6532206235	 0.093472
H	 1.3159948712	-1.3049007406	-2.59280231	 0.113991
H	 1.9239911797	-3.1808806232	-0.5894386995	 0.293383
53.9303	138.8478	163.043	212.52	241.0614	298.2005	304.4626	367.041	479.4906	496.8697	533.2605	572.5243	677.1292	715.5249	779.8242	819.8669	882.26	923.4306	942.2287	973.9834	1021.8118	1067.12	1077.4886	1099.1099	1126.1383	1129.984	1184.1932	1241.0519	1270.7449	1305.1917	1334.1051	1384.6982	1416.4005	1420.3999	1469.1357	1480.6323	1499.061	1505.5601	1891.8227	3002.3767	3034.0605	3070.2139	3096.7521	3119.8219	3127.7456	3221.106	3538.9784	3804.1575
CC12NC(=O)C1C2CO	C[C@]12NC(=O)[C@H]1[C@H]2CO	
InChI=1S/C6H9NO2/c1-6-3(2-8)4(6)5(9)7-6/h3-4,8H,2H2,1H3,(H,7,9)	InChI=1S/C6H9NO2/c1-6-3(2-8)4(6)5(9)7-6/h3-4,8H,2H2,1H3,(H,7,9)/t3-,4-,6-/m1/s1
