13
gdb 11160	6.43302	1.30226	1.09041	4.132	71.61	-0.2486	-0.0578	0.1909	1001.2701	0.09565	-361.481296	-361.47407	-361.473125	-361.512925	26.454	
O	-0.0675064314	-0.0596569774	 0.0046910176	-0.388643
C	-0.0095444666	 1.1510712929	 0.009595928	 0.448865
N	-1.0776509583	 2.0259344315	 0.0285744251	-0.350886
C	-0.6895108789	 3.4127017281	 0.0302548818	-0.260843
C	 0.8277322548	 3.3191256558	 0.0091442172	 0.195537
C	 1.1971798619	 2.0269712478	-0.0025653877	-0.347226
C	 1.6398790397	 4.4722238442	 0.003693071	 0.234766
C	 2.3016808661	 5.4789236698	-0.0003365265	-0.399089
H	-2.0288228469	 1.7003331644	 0.04059101	 0.25844
H	-1.0592316183	 3.9603503958	-0.8476656347	 0.136954
H	-1.0350248581	 3.9514120016	 0.9234307618	 0.136941
H	 2.2015743607	 1.631168374	-0.0183954504	 0.131033
H	 2.8995005251	 6.3569428115	-0.003760863	 0.204151
94.3979	139.5711	147.837	343.1264	405.3846	435.0446	511.7299	545.6568	563.7635	627.2173	648.5254	703.936	736.5739	894.5797	905.7085	931.6847	1009.5912	1084.947	1140.7946	1184.8403	1207.1306	1302.761	1328.0284	1420.0514	1500.3232	1647.923	1822.9347	2226.4288	3008.0503	3034.4826	3256.4758	3500.647	3675.1884
O=C1NCC(=C1)C#C	O=C1NCC(=C1)C#C	
InChI=1S/C6H5NO/c1-2-5-3-6(8)7-4-5/h1,3H,4H2,(H,7,8)	InChI=1S/C6H5NO/c1-2-5-3-6(8)7-4-5/h1,3H,4H2,(H,7,8)
