17
gdb 88901	4.28034	0.68266	0.62784	5.3771	87.21	-0.2437	-0.0406	0.2031	1730.6132	0.135062	-380.823662	-380.814412	-380.813468	-380.858807	32.798	
C	-0.4335058596	 1.3589146471	 0.4318340429	-0.322131
N	-0.0024348352	-0.0123490193	 0.2031598267	-0.063078
C	 1.3410016909	-0.2396219966	-0.3120053978	-0.261039
C	 0.9779908782	-0.6405772964	 1.0777415796	 0.027126
C	 1.6222016754	 0.0704256789	 2.2676536347	-0.414437
C	 0.7779241406	 0.0680047035	 3.4533207678	 0.111837
C	 0.0669868684	 0.0502245632	 4.4302087727	 0.030231
C	-0.7331868415	 0.0348512366	 5.5361001073	 0.2112
N	-1.4140016308	 0.0226606711	 6.4774368655	-0.33717
H	 0.3753645637	 2.0590150568	 0.6957022464	 0.098408
H	-0.9045158454	 1.7296187886	-0.4833677854	 0.133911
H	-1.180309446	 1.3758522621	 1.2310066217	 0.139022
H	 1.4399431737	-0.9811310015	-1.1002608123	 0.123585
H	 1.999260398	 0.6239370365	-0.4173463372	 0.107497
H	 0.7629353997	-1.6879839437	 1.281252662	 0.109609
H	 2.5675190534	-0.4352175201	 2.5050410954	 0.156258
H	 1.8861565164	 1.1025813831	 2.01394585	 0.14917
39.5273	71.2521	142.0001	174.1466	212.2718	280.6214	305.0527	367.2125	404.8006	424.7468	524.7584	576.8799	580.6383	728.4993	751.944	785.0747	901.9475	957.7345	1035.8397	1074.1046	1112.0417	1130.938	1142.2339	1168.8681	1172.572	1201.7093	1231.4504	1307.0086	1344.7168	1410.9814	1445.6688	1458.2115	1488.6715	1505.3755	1515.9584	2265.7298	2402.0456	2973.3866	3029.5061	3072.5249	3076.5356	3080.3997	3113.7781	3123.0668	3172.9938
CN1CC1CC#CC#N	CN1C[C@H]1CC#CC#N	
InChI=1S/C7H8N2/c1-9-6-7(9)4-2-3-5-8/h7H,4,6H2,1H3	InChI=1S/C7H8N2/c1-9-6-7(9)4-2-3-5-8/h7H,4,6H2,1H3/t7-,9?/m1/s1
