17
gdb 94492	4.00336	0.77691	0.69861	1.0148	91.33	-0.2457	-0.0207	0.225	1591.3855	0.133705	-384.619826	-384.610506	-384.609562	-384.654949	33.506	
C	-0.2951143176	 1.484197743	-0.1121624157	-0.401757
C	 0.095781971	 0.0234097487	-0.0729268409	 0.159492
O	 1.3266716961	-0.2447697222	-0.7819057817	-0.283691
C	 1.9695838125	-0.7759970093	 0.3860057386	-0.071952
C	 0.6951325444	-0.5664311278	 1.2541560305	-0.317201
C	 0.8052469121	 0.291363736	 2.4085056564	 0.509276
C	 0.9038485853	 1.009295237	 3.3793780637	-0.338106
C	 1.0175678753	 1.8180743935	 4.467006344	 0.307532
C	 1.1181314285	 2.5359300466	 5.4330627196	-0.56509
H	 0.4884656095	 2.1145158187	 0.3160668782	 0.132684
H	-0.4615823058	 1.7898004404	-1.1496887295	 0.128529
H	-1.2201035249	 1.649713075	 0.4498034819	 0.123698
H	-0.7163777911	-0.6016987615	-0.4667135265	 0.0829
H	 2.2708263125	-1.8223166839	 0.2584576746	 0.108623
H	 2.8370448594	-0.1812464104	 0.6920886462	 0.115766
H	 0.2184917501	-1.5096433111	 1.5352845908	 0.116697
H	 1.2075658527	 3.1677898472	 6.2815212898	 0.192599
41.5598	72.5397	105.4593	193.5886	221.8624	246.4366	328.0028	407.9211	436.4159	496.7261	525.9709	551.8729	590.7326	603.5798	696.9773	752.9769	868.4999	885.2355	932.3827	1003.2759	1048.1553	1070.8964	1094.5929	1144.1769	1165.3788	1205.8773	1217.8124	1282.4291	1351.2573	1354.4416	1385.82	1411.1151	1481.026	1488.0537	1525.9005	2180.4867	2355.793	3012.6624	3024.8344	3041.2147	3062.9235	3078.5362	3112.7684	3126.582	3504.8397
CC1OCC1C#CC#C	C[C@H]1OC[C@H]1C#CC#C	
InChI=1S/C8H8O/c1-3-4-5-8-6-9-7(8)2/h1,7-8H,6H2,2H3	InChI=1S/C8H8O/c1-3-4-5-8-6-9-7(8)2/h1,7-8H,6H2,2H3/t7-,8-/m1/s1
