16
gdb 30595	4.60118	1.02935	0.84988	2.4534	74.28	-0.2591	-0.0643	0.1948	1323.2524	0.124013	-437.939781	-437.931389	-437.930444	-437.973973	29.52	
C	 0.0186889117	 1.5328115697	 0.0106237228	-0.382698
C	-0.0499913453	 0.0082706803	 0.0032914008	-0.281678
C	-1.4740468111	-0.5158993949	 0.0126457315	 0.283846
O	-2.4550410048	 0.194094331	 0.0240355753	-0.309481
C	-1.611154005	-1.9959171008	 0.0072691318	 0.328143
N	-0.6657435364	-2.8919543483	-0.0043077096	-0.294784
C	-1.3289855918	-4.1017034953	-0.0042331268	-0.116532
C	-2.6679599695	-3.8653406397	 0.0075975109	-0.026473
O	-2.8619725781	-2.5256022972	 0.0150441568	-0.145921
H	 1.059327529	 1.8678625471	 0.0031976617	 0.11212
H	-0.486806598	 1.9525015321	-0.8628567585	 0.131736
H	-0.4712627236	 1.9433540862	 0.8972179953	 0.131703
H	 0.4584483337	-0.4184711532	-0.8705628153	 0.138009
H	 0.4733642996	-0.4275804124	 0.86371788	 0.138033
H	-0.8055745402	-5.0443220324	-0.0125715785	 0.134885
H	-3.5492066302	-4.4840451422	 0.0119808517	 0.15909
46.7862	74.07	148.1702	167.1458	207.9308	283.431	361.2602	503.6311	539.1055	637.0976	719.1289	723.9007	796.6404	816.1112	874.9491	929.8306	945.2526	973.7378	1022.9684	1089.4444	1110.0229	1126.5141	1150.9673	1169.7851	1270.9331	1280.5297	1362.8671	1408.7208	1414.7105	1444.3146	1492.0693	1498.1724	1511.3517	1577.7668	1788.2329	3037.9175	3052.1357	3063.0236	3124.2977	3126.632	3266.4407	3297.613
CCC(=O)C1=NC=CO1	CCC(=O)c1ncco1	
InChI=1S/C6H7NO2/c1-2-5(8)6-7-3-4-9-6/h3-4H,2H2,1H3	InChI=1S/C6H7NO2/c1-2-5(8)6-7-3-4-9-6/h3-4H,2H2,1H3
