18
gdb 7322	4.55818	1.02913	0.85711	0.2305	69.21	-0.2382	-0.0805	0.1577	1354.4395	0.149809	-384.984265	-384.974386	-384.973442	-385.020418	33.287	
C	-0.0072071322	 1.5798492772	-0.0118784375	-0.386493
C	-0.0034309413	 0.0495364997	 0.009871598	-0.169364
C	 0.6906541601	-0.5511311381	-1.2116475124	-0.277269
C	 0.7098186814	-2.0623296785	-1.2179617784	 0.262766
O	 0.2279245106	-2.7543537389	-0.350086196	-0.283254
C	 1.400657024	-2.736444995	-2.4320725934	 0.306944
C	 1.4166300596	-4.2449529805	-2.4313245682	-0.473612
O	 1.883760717	-2.0512000681	-3.3031828144	-0.27506
H	 1.0123312033	 1.9809196799	-0.0293928522	 0.11574
H	-0.5272689517	 1.9647989851	-0.8961702077	 0.115742
H	-0.5089728059	 1.9853412573	 0.8718362504	 0.116291
H	 0.4907125825	-0.3139147258	 0.9177253095	 0.111106
H	-1.0300144833	-0.3298493066	 0.0614596117	 0.111124
H	 0.2227536508	-0.2204297182	-2.1491930528	 0.136497
H	 1.7295953543	-0.2048005273	-1.3007095555	 0.136469
H	 0.39332028	-4.6307549344	-2.3844540828	 0.155961
H	 1.9212336601	-4.6085048065	-3.3265834539	 0.14048
H	 1.9196787407	-4.6137573413	-1.5317274543	 0.155932
40.8717	57.9928	85.2179	100.7093	126.5111	242.2078	266.395	307.949	356.2874	369.5036	527.5573	582.9715	601.937	740.8605	790.0958	862.2885	882.6849	942.9575	1002.866	1050.3786	1057.8904	1108.9303	1132.7448	1239.0469	1239.9343	1316.9868	1329.5334	1383.1248	1398.9271	1415.1525	1435.1197	1451.704	1459.1628	1487.6776	1499.7601	1508.2759	1799.0481	1808.1118	3025.5726	3030.2664	3045.3836	3045.9981	3049.642	3074.1558	3100.1059	3105.2212	3110.7445	3161.9193
CCCC(=O)C(C)=O	CCCC(=O)C(=O)C	
InChI=1S/C6H10O2/c1-3-4-6(8)5(2)7/h3-4H2,1-2H3	InChI=1S/C6H10O2/c1-3-4-6(8)5(2)7/h3-4H2,1-2H3
