21
gdb 119432	3.15745	0.92395	0.82824	2.2432	79.48	-0.2408	0.0803	0.3211	1459.2641	0.181196	-424.18971	-424.180014	-424.17907	-424.224557	36.176	
O	-0.0980637551	 1.4899464452	 0.0898751964	-0.419443
C	-0.0193288218	 0.0762963523	 0.1966773236	-0.068425
C	-1.3715856298	-0.4994311345	-0.215804172	-0.298854
C	-1.4078893223	-2.000656927	-0.1770254901	 0.312231
C	-1.5989846689	-2.7891069564	 1.1090423205	-0.394721
C	-2.5831606205	-2.957788541	-0.0156008541	 0.341979
O	-3.9202891513	-2.6216280452	 0.1135009873	-0.46439
C	-2.028144213	-3.893089117	-1.0931460157	-0.284597
C	-0.7914616442	-2.9415622507	-1.2277113509	-0.281179
H	 0.7533950143	 1.8586398307	 0.3418102274	 0.283975
H	 0.772144389	-0.3287655854	-0.4550098325	 0.085072
H	 0.2157874723	-0.2367591404	 1.2264932556	 0.08622
H	-2.1448473836	-0.0905033952	 0.4446241416	 0.112319
H	-1.6033231385	-0.1426743449	-1.2273228799	 0.104865
H	-0.9117602811	-3.5855443112	 1.3903505694	 0.097039
H	-1.9761911804	-2.1999135661	 1.9399751187	 0.109811
H	-4.3175764669	-3.1963925503	 0.7767051463	 0.284473
H	-1.8377121005	-4.9313028821	-0.7992394045	 0.087793
H	-2.6477532287	-3.8857175237	-1.9926946445	 0.109609
H	-0.7194229265	-2.4868942477	-2.2191416959	 0.103542
H	 0.1802016976	-3.3749236892	-0.9689535068	 0.09268
67.7936	90.4591	104.828	204.979	234.4783	258.3232	266.4748	332.638	360.3033	377.9132	447.7504	546.5723	611.0842	707.2221	781.393	797.8295	800.4101	869.359	929.5535	937.8277	981.3957	1006.3149	1014.3717	1032.8712	1067.3016	1081.1326	1118.4257	1173.0959	1205.0753	1217.7527	1231.3823	1239.7785	1242.8249	1262.7245	1297.4689	1321.1916	1327.6017	1358.6728	1417.4265	1460.0267	1479.9468	1480.6816	1487.4443	1523.0873	1527.1907	2962.6142	2989.4183	3029.3808	3036.7237	3046.4422	3074.7508	3091.4744	3092.7695	3113.5831	3190.2849	3795.1314	3830.8586
OCCC12CC1(O)CC2	OCC[C@@]12C[C@]1(O)CC2	
InChI=1S/C7H12O2/c8-4-3-6-1-2-7(6,9)5-6/h8-9H,1-5H2	InChI=1S/C7H12O2/c8-4-3-6-1-2-7(6,9)5-6/h8-9H,1-5H2/t6-,7+/m0/s1
