21
gdb 104015	3.05546	1.34486	1.22826	1.7083	77.23	-0.2426	0.0639	0.3065	1128.4845	0.182743	-424.208365	-424.199857	-424.198913	-424.241002	33.907	
C	-0.0254840825	 1.5515120006	 0.0777144549	-0.411964
C	-0.0241860737	 0.024494593	-0.0544322574	-0.228847
C	 0.7391967898	-0.5051638804	-1.2718217056	 0.425091
O	 0.1477531259	-0.0757896077	-2.4929298774	-0.497897
C	 2.2951251476	-0.2759767055	-1.2176181459	-0.28507
C	 2.713983812	-1.7580241113	-1.2486607465	 0.076146
C	 1.8499901714	-2.3747615843	-2.3702172596	-0.238403
C	 0.7895458108	-2.0557019078	-1.2997422915	 0.046992
O	 1.7864569017	-2.3408816722	-0.2709342668	-0.303941
H	 0.989620138	 1.9562065279	 0.1508894433	 0.121127
H	-0.5200443632	 2.0350098317	-0.7735380584	 0.106088
H	-0.5695618856	 1.8621618635	 0.9743244572	 0.122463
H	 0.417038929	-0.4285577322	 0.8389182858	 0.117206
H	-1.0593198515	-0.3332020444	-0.1214160791	 0.097393
H	 0.1185497422	 0.8859073519	-2.4917234985	 0.279208
H	 2.6501498761	 0.2951233714	-2.0795108905	 0.09663
H	 2.6283401863	 0.2110304949	-0.2984437359	 0.103351
H	 3.7592561507	-2.0180969211	-1.0813784689	 0.077066
H	 1.7873700719	-1.876861125	-3.3381798615	 0.112676
H	 2.0156461648	-3.4481048187	-2.4661292868	 0.107461
H	-0.149650682	-2.5971521842	-1.1859526308	 0.077223
110.3987	164.0675	184.0636	241.1088	267.0961	313.5967	366.2894	413.0997	446.398	501.0341	570.5851	626.3843	762.1237	789.9903	829.3395	846.0248	879.084	902.1243	921.1336	943.8143	983.0185	994.9885	1009.5062	1030.4121	1054.9522	1072.2396	1115.4085	1117.6038	1182.3046	1204.6112	1225.832	1235.6726	1252.7179	1266.8695	1302.3097	1314.2068	1322.3793	1358.6944	1393.8992	1412.7694	1469.427	1484.1494	1489.1843	1502.0097	1510.1206	3026.6005	3030.7874	3062.7067	3076.8236	3086.5226	3097.5923	3107.406	3117.3059	3120.5039	3125.4357	3157.9773	3822.0105
CCC1(O)CC2CC1O2	CC[C@@]1(O)C[C@@H]2C[C@H]1O2	
InChI=1S/C7H12O2/c1-2-7(8)4-5-3-6(7)9-5/h5-6,8H,2-4H2,1H3	InChI=1S/C7H12O2/c1-2-7(8)4-5-3-6(7)9-5/h5-6,8H,2-4H2,1H3/t5-,6+,7+/m0/s1
