19
gdb 11539	3.38117	1.35232	1.14792	2.0564	72.45	-0.235	-0.0184	0.2166	1120.843	0.164	-365.045299	-365.036243	-365.035299	-365.08046	31.696	
C	-0.2866620386	 0.9280985331	-1.3467191166	-0.379498
C	 0.1506401035	 0.2001433262	-0.0620720182	-0.274612
C	 1.1888445666	-0.8783685001	-0.3171628813	 0.393602
O	 2.3228013178	-0.8004627752	 0.0974465036	-0.302104
C	 0.7671329801	-2.0956342689	-1.1563049243	-0.237748
N	 1.1033824499	-1.8394153264	-2.5560086759	-0.073282
C	 2.4941733623	-2.095120079	-2.9276506729	-0.211997
C	 1.4107317682	-3.0164862419	-3.3667841076	-0.223302
H	 0.5570164227	 1.4604385923	-1.7951167745	 0.131146
H	-0.6695331197	 0.2310287797	-2.0956323596	 0.142422
H	-1.0675040378	 1.6587960676	-1.1175215984	 0.116944
H	 0.5761561099	 0.9050333823	 0.6570437748	 0.118186
H	-0.7255920741	-0.2722963116	 0.40214048	 0.110434
H	 1.2919840399	-2.9740382775	-0.7457545182	 0.102152
H	-0.312675474	-2.2683860376	-1.0906810672	 0.104596
H	 2.9288099298	-1.38635716	-3.6260902437	 0.119743
H	 3.1679392871	-2.4386708212	-2.146989823	 0.131286
H	 1.3576750718	-3.9914528713	-2.8855353853	 0.112354
H	 1.0421443749	-2.9918609604	-4.3880770519	 0.119679
34.2946	51.7858	90.3425	157.1337	210.7483	244.5767	332.5508	369.5945	422.2142	538.7483	647.228	768.6215	792.8457	809.7618	843.5436	901.8235	938.8935	995.4485	1017.6878	1034.9556	1078.2023	1099.0191	1115.3004	1118.9159	1167.9298	1174.6742	1215.8561	1265.5378	1285.8607	1311.8379	1334.7082	1365.1831	1413.7613	1471.8833	1485.2348	1494.8788	1496.4381	1505.5498	1523.3521	1808.7044	2965.656	3022.3958	3047.4241	3065.2666	3096.8449	3101.0029	3114.7457	3116.9698	3132.9262	3185.4727	3203.3462
CCC(=O)CN1CC1	CCC(=O)CN1CC1	
InChI=1S/C6H11NO/c1-2-6(8)5-7-3-4-7/h2-5H2,1H3	InChI=1S/C6H11NO/c1-2-6(8)5-7-3-4-7/h2-5H2,1H3
