23
gdb 92447	2.26728	1.68837	1.41002	1.633	83.85	-0.2343	0.0798	0.3141	1089.6203	0.208469	-388.311983	-388.303708	-388.302764	-388.344195	33.579	
C	-0.1501983694	 1.5979227049	 0.0256107353	-0.411573
C	 0.0138840804	 0.0798370595	-0.0265821326	 0.039139
C	 0.8746778702	-0.4469837377	-1.2270841846	-0.239498
C	 1.9805687358	-1.2791548634	-0.5316669551	-0.047414
C	 2.8810799888	-0.2944839884	 0.2273509974	-0.081008
O	 2.041581818	 0.1882122741	 1.2970073945	-0.282838
C	 0.7926706274	-0.5115805054	 1.171763938	 0.094053
C	 1.2325065871	-1.9031289711	 0.6764565527	 0.028345
C	 0.1533663079	-2.9417990226	 0.3827309247	-0.435251
H	 0.8212546673	 2.0877902353	 0.1318720211	 0.129644
H	-0.6302926123	 1.9714834667	-0.8849489719	 0.106191
H	-0.7700206827	 1.9005842869	 0.8769377641	 0.108005
H	-0.9826662041	-0.3756826421	-0.0558894235	 0.067141
H	 0.2820871389	-1.05711856	-1.9143407332	 0.094346
H	 1.3020833684	 0.3729080342	-1.8133993456	 0.094795
H	 2.5240976311	-1.9661740358	-1.1830234557	 0.060134
H	 3.7698676395	-0.7802577558	 0.6526939778	 0.092065
H	 3.2122820974	 0.5491556735	-0.3911336578	 0.092463
H	 0.2798830203	-0.4581742442	 2.1345194442	 0.063521
H	 1.9459778474	-2.3266580743	 1.3926873877	 0.073532
H	-0.5750657362	-2.6043627944	-0.3587263183	 0.120747
H	 0.6046823618	-3.8642303688	 0.0022381963	 0.116362
H	-0.3969974831	-3.1991453308	 1.2943023245	 0.1171
138.4855	198.1915	221.856	238.1684	262.4385	280.4927	349.7133	417.8787	491.5696	544.3317	597.5156	709.3195	755.4424	822.5294	837.096	881.7669	907.2183	929.824	943.0251	956.5726	982.6708	1016.6224	1026.4927	1044.6158	1065.6655	1092.7752	1115.3133	1128.7051	1152.0203	1185.8168	1203.8515	1238.9003	1253.9263	1270.3408	1294.101	1316.7075	1332.7498	1337.5565	1370.1513	1377.0553	1401.8089	1409.0076	1418.7084	1493.1944	1496.3185	1501.9924	1503.7081	1510.9568	1534.3973	3002.5465	3029.0551	3033.7622	3036.2692	3039.8856	3043.5125	3050.5315	3088.7679	3093.4277	3093.7619	3096.2021	3101.0644	3118.6386	3120.2185
CC1CC2COC1C2C	C[C@H]1C[C@H]2CO[C@@H]1[C@H]2C	
InChI=1S/C8H14O/c1-5-3-7-4-9-8(5)6(7)2/h5-8H,3-4H2,1-2H3	InChI=1S/C8H14O/c1-5-3-7-4-9-8(5)6(7)2/h5-8H,3-4H2,1-2H3/t5-,6-,7-,8-/m0/s1
