14
gdb 6664	7.89066	0.81794	0.74817	5.5083	59.04	-0.2825	0.0264	0.3089	1391.3475	0.106578	-415.918145	-415.909448	-415.908504	-415.952899	29.19	
N	-0.1770551719	 1.300317481	 0.1077516023	-0.563796
C	 0.0684436466	-0.0380752145	 0.0381629814	 0.499926
O	 1.1562940604	-0.5601477072	 0.0226692103	-0.387364
O	-1.1110166812	-0.7226815511	 0.0203694598	-0.264063
C	-0.9714623853	-2.1441425251	-0.0050735645	-0.050757
C	-2.3978684781	-2.7013504407	 0.019371323	-0.346832
C	-2.4099379846	-4.1609463614	-0.0101094501	 0.250391
N	-2.4074746928	-5.3157755938	-0.0342526794	-0.295209
H	 0.6048209921	 1.9106998783	-0.0540820748	 0.274482
H	-1.1026669547	 1.645213007	-0.0789101371	 0.267636
H	-0.4378374979	-2.4570500377	-0.9068143352	 0.143079
H	-0.3960496416	-2.4839685732	 0.8600751234	 0.145684
H	-2.9142081328	-2.3550012715	 0.9208607025	 0.164207
H	-2.9585164384	-2.3198600902	-0.8405844719	 0.162617
34.926	60.4228	101.8768	169.9278	231.1437	295.243	325.5106	399.0793	457.7602	515.3904	562.1214	676.2107	777.4126	789.6363	902.4427	979.3928	1062.0531	1088.8904	1106.1559	1122.8278	1232.726	1295.5828	1303.6887	1348.0464	1425.9709	1471.8129	1521.0854	1612.4363	1844.2934	2369.3406	3052.3563	3066.5872	3090.172	3118.7727	3620.021	3750.8955
NC(=O)OCCC#N	NC(=O)OCCC#N	
InChI=1S/C4H6N2O2/c5-2-1-3-8-4(6)7/h1,3H2,(H2,6,7)	InChI=1S/C4H6N2O2/c5-2-1-3-8-4(6)7/h1,3H2,(H2,6,7)
