16
gdb 27060	3.29549	1.12429	0.86256	2.7565	75.37	-0.2183	0.0049	0.2232	1294.4124	0.123663	-437.908898	-437.900334	-437.89939	-437.943067	30.446	
C	-0.0759008534	 1.4283658991	-0.025971172	-0.497959
C	-0.100023336	-0.0510368845	 0.0715818187	 0.265499
C	-1.098833953	-0.9502962108	 0.2958853197	 0.21142
O	-2.4041186795	-0.603028301	 0.5411160377	-0.215386
C	-3.3670591841	-1.2557434003	-0.1606515247	 0.106557
N	-4.5781417819	-1.0489762214	 0.1147812433	-0.432084
C	-0.5168761428	-2.2612707757	 0.3058239538	-0.291289
C	 0.8060996299	-2.059165237	 0.0800581121	-0.004192
O	 1.0748265007	-0.7345771674	-0.0578282088	-0.176066
H	 0.319578027	 1.7625045018	-0.9916882137	 0.139059
H	-1.0934814394	 1.80936474	 0.0835032217	 0.153251
H	 0.5450971325	 1.8756307349	 0.7584782553	 0.142028
H	-2.9589196188	-1.9168028101	-0.9343027183	 0.101448
H	-5.1733054481	-1.5939446679	-0.5055650467	 0.234373
H	-1.0146233636	-3.2025288841	 0.4753165751	 0.123176
H	 1.6520287104	-2.7208374257	-0.0030765831	 0.140166
52.2094	103.5839	130.1798	152.6981	227.9314	254.6041	378.8377	459.6882	484.8065	620.862	670.9665	686.8388	736.0059	808.8638	817.2947	828.5959	909.359	962.9351	1037.3689	1048.5522	1065.6744	1085.9337	1150.4071	1184.4433	1256.9362	1274.7559	1308.0661	1408.3715	1410.8687	1452.9298	1475.7441	1487.5694	1547.8291	1677.9627	1750.2731	3031.4633	3053.7078	3082.4434	3135.2181	3260.3748	3287.2292	3521.4016
CC1=C(OC=N)C=CO1	Cc1c(O[CH][NH])cco1	
InChI=1S/C6H7NO2/c1-5-6(9-4-7)2-3-8-5/h2-4,7H,1H3	InChI=1S/C6H7NO2/c1-5-6(9-4-7)2-3-8-5/h2-4,7H,1H3
