19
gdb 108423	2.67726	1.60173	1.23339	2.3923	75.52	-0.2424	0.009	0.2514	1068.1431	0.159356	-423.002293	-422.994146	-422.993202	-423.035028	31.03	
C	-0.2191128245	 1.4096088422	-0.133602988	-0.257479
O	-0.0092027252	 0.01622937	-0.0311246642	-0.292437
C	 0.7613273985	-0.5335982162	-1.0679222382	 0.362248
C	 0.0501395261	-0.6566316258	-2.4437582846	-0.127884
O	 0.0054466056	-2.0949641964	-2.3512469916	-0.295103
C	 0.7333159868	-2.0809074515	-1.0914274515	 0.036711
C	 2.1721491665	-2.4863131576	-1.2195689982	-0.086186
C	 2.9808630431	-1.4253940996	-1.2225211091	-0.064861
C	 2.2498422916	-0.1106729801	-1.0697886293	-0.338545
H	 0.7216873688	 1.9765513956	-0.0852330789	 0.109463
H	-0.7386963614	 1.6799366407	-1.0647257566	 0.108811
H	-0.8459893667	 1.6998555529	 0.7124336326	 0.13161
H	-0.9555694852	-0.2212254235	-2.4747835562	 0.102098
H	 0.6251215026	-0.3157428133	-3.3140284202	 0.095507
H	 0.1679535531	-2.5868029928	-0.3024022154	 0.087724
H	 2.4858265952	-3.519242005	-1.3152063538	 0.10299
H	 4.0615230465	-1.4693605134	-1.313364619	 0.100812
H	 2.4971925915	 0.5952420053	-1.8723788529	 0.106815
H	 2.5064149575	 0.3814910786	-0.1227796147	 0.117705
92.555	131.5743	188.095	202.1766	255.6843	343.9184	389.7064	415.8923	507.6336	614.9027	665.1926	743.1298	792.8863	855.2446	903.1348	938.2775	961.7641	969.334	979.9245	1013.045	1021.8987	1054.3446	1091.9731	1125.2132	1155.2816	1172.4465	1182.9862	1192.845	1218.5687	1250.5477	1264.8349	1300.3058	1329.655	1366.9582	1375.8518	1472.555	1482.2609	1489.4342	1505.694	1510.5601	1677.1679	2987.5004	3011.1826	3020.6283	3036.9456	3051.8473	3062.2775	3063.7615	3119.8523	3179.479	3210.2193
COC12COC1C=CC2	CO[C@]12CO[C@H]1C=CC2	
InChI=1S/C7H10O2/c1-8-7-4-2-3-6(7)9-5-7/h2-3,6H,4-5H2,1H3	InChI=1S/C7H10O2/c1-8-7-4-2-3-6(7)9-5-7/h2-3,6H,4-5H2,1H3/t6-,7+/m0/s1
