23
gdb 70609	2.27076	1.79529	1.28257	0.18	88.77	-0.2376	0.0871	0.3247	1107.9763	0.207345	-351.151597	-351.143225	-351.142281	-351.183859	34.577	
C	-0.4443776369	 1.3894214737	 0.1138218847	-0.498808
C	-0.0673164962	-0.0703137122	 0.0246341476	 0.300665
C	-0.3898678037	-0.9845625891	 1.1903763066	-0.339896
C	 1.0502166729	-0.6672055316	 0.8590957651	-0.069124
C	 1.8164396243	-1.6698450107	 0.0090109389	-0.218761
C	 0.8496847748	-2.016070722	-1.1467712223	-0.314032
C	-0.0149277874	-0.7635836516	-1.3259449494	 0.340921
C	-1.1708458652	-0.7656919335	-2.2896833636	-0.324138
C	 0.0735295574	 0.0316953933	-2.6079233966	-0.31998
H	 0.2500806264	 2.0246305987	-0.4466961583	 0.117804
H	-1.4538942696	 1.5729928068	-0.2743812409	 0.11537
H	-0.4323530625	 1.7275691312	 1.1544438894	 0.112883
H	-0.805064418	-0.5161274349	 2.0768975159	 0.102016
H	-0.7757442491	-1.9814698815	 1.0026865542	 0.105752
H	 1.6068316592	-0.0470449406	 1.5546025028	 0.074495
H	 2.723097784	-1.1922086568	-0.3811995982	 0.098091
H	 2.1326652304	-2.5593932641	 0.5648574345	 0.093276
H	 1.3742875951	-2.2941857838	-2.0651172292	 0.094391
H	 0.2230078544	-2.8723082725	-0.8726360737	 0.102529
H	-1.362697187	-1.6710322624	-2.8572463032	 0.105119
H	-2.0671895997	-0.2157531803	-2.0206909561	 0.108325
H	 0.004304346	 1.1128176556	-2.5660202792	 0.108398
H	 0.7338841803	-0.3380262215	-3.3860394388	 0.104706
105.8271	206.3224	223.0323	241.8801	283.5274	348.4	367.8011	424.3137	441.9088	538.2059	601.2144	635.3448	773.1717	795.4793	813.6115	823.367	882.0585	901.6711	910.6229	940.7564	959.0057	972.8249	975.3099	1007.3506	1049.7727	1056.473	1066.1646	1077.9812	1096.1554	1108.2721	1120.7113	1173.0487	1188.4667	1203.6905	1232.7319	1269.87	1301.6551	1328.5472	1332.5316	1382.9602	1396.6786	1420.1043	1464.7553	1487.3723	1491.0273	1494.1156	1502.8776	1505.3455	1513.7597	3021.6844	3030.4923	3037.9134	3067.5809	3079.9797	3087.1572	3098.3555	3120.7555	3124.5523	3129.8991	3155.9539	3198.8794	3205.5169	3217.068
CC12CC1CCC21CC1	C[C@]12C[C@H]1CCC12CC1	
InChI=1S/C9H14/c1-8-6-7(8)2-3-9(8)4-5-9/h7H,2-6H2,1H3	InChI=1S/C9H14/c1-8-6-7(8)2-3-9(8)4-5-9/h7H,2-6H2,1H3/t7-,8+/m1/s1
