16
gdb 43864	3.73477	1.03715	0.90674	3.3368	77.61	-0.239	0.0299	0.2689	1262.9884	0.122471	-400.718632	-400.710137	-400.709193	-400.752043	32.1	
O	 0.0617431818	-0.0132483452	 0.0720554036	-0.352897
C	-0.0220718496	 1.1820874366	 0.0278899365	 0.438028
C	-1.1645008415	 2.233083761	-0.0257653544	-0.478785
C	-0.0330205655	 3.2696021106	-0.0245353157	 0.417555
C	 0.0890997634	 4.5603815955	-0.7504217081	-0.351832
C	 0.0594432909	 4.5460834678	 0.7882335263	-0.285492
C	-1.0838089645	 5.0287382982	 1.5015024958	 0.339529
C	-2.0554795029	 5.4133919395	 2.0981307284	-0.457753
N	 0.9256199207	 2.1865156191	 0.0011408563	-0.38846
H	-1.7686622718	 2.1920822093	-0.9335787436	 0.137175
H	-1.8084742797	 2.2495054115	 0.854788217	 0.149645
H	 1.0376121908	 4.8096371368	-1.2145373713	 0.124426
H	-0.7857795899	 4.947952086	-1.2602794125	 0.137979
H	 1.0180876489	 4.7257647741	 1.2685176478	 0.117068
H	-2.9082896508	 5.7617430845	 2.6260039659	 0.20048
H	 1.9326233296	 2.1667565246	 0.0665242082	 0.253333
57.7602	113.256	150.5908	283.1327	286.6065	319.6087	398.3936	488.9193	503.2623	514.464	560.8122	577.8974	615.3849	655.5177	774.3918	796.6905	861.9082	895.0823	942.606	980.1308	1018.0375	1048.3139	1074.946	1110.6654	1117.7798	1139.475	1193.2851	1266.5692	1270.8432	1365.1101	1429.8749	1459.8753	1493.6297	1905.3608	2234.5927	3089.9509	3133.1986	3138.6419	3149.6712	3226.2996	3503.8451	3612.0247
O=C1CC2(CC2C#C)N1	O=C1C[C@]2(C[C@H]2C#C)N1	
InChI=1S/C7H7NO/c1-2-5-3-7(5)4-6(9)8-7/h1,5H,3-4H2,(H,8,9)	InChI=1S/C7H7NO/c1-2-5-3-7(5)4-6(9)8-7/h1,5H,3-4H2,(H,8,9)/t5-,7+/m1/s1
