21
gdb 98205	2.02613	0.97992	0.72848	2.5754	88.31	-0.2328	-0.0119	0.2209	1659.6376	0.178256	-387.09855	-387.086885	-387.085941	-387.137877	39.335	
C	-0.411543467	 1.5018043778	-0.6136838837	-0.377438
C	-0.6153629786	-0.0096672016	-0.6784883868	-0.279275
C	-1.3394621882	-0.5779750671	 0.5316312958	 0.381471
O	-1.5880314531	 0.0809974057	 1.5115596276	-0.297389
C	-1.730306792	-2.0779367634	 0.4548251544	-0.22879
C	-2.1807894765	-2.6106920419	 1.8239009349	-0.383538
C	-2.7538654117	-2.2554008434	-0.575198544	 0.094986
C	-3.620891387	-2.3770550194	-1.4030156961	 0.023413
C	-4.6667901812	-2.5380538144	-2.4033752266	-0.497141
H	 0.1485644502	 1.8534914769	-1.4845638634	 0.10931
H	-1.3716418249	 2.0243808961	-0.588252703	 0.129257
H	 0.1349335181	 1.7834288997	 0.2895834935	 0.132723
H	-1.1665437544	-0.3091816037	-1.5773909216	 0.134672
H	 0.3498986628	-0.5331253836	-0.746490718	 0.12062
H	-0.8263869748	-2.6186796581	 0.1357187342	 0.109436
H	-2.4425641225	-3.6687379219	 1.7493234194	 0.117035
H	-1.3812294417	-2.4914874964	 2.5594600105	 0.121093
H	-3.0501302433	-2.0547813868	 2.179249929	 0.140697
H	-5.4479584451	-3.2213670868	-2.0524625657	 0.151029
H	-5.1460389162	-1.5806922703	-2.6360153349	 0.149895
H	-4.266420833	-2.9449456473	-3.3384880352	 0.147934
27.95	31.7931	49.1856	90.7091	135.3101	183.0406	194.2597	210.7341	261.7072	291.5056	317.2196	391.6441	416.9699	511.1194	547.3364	638.8222	715.307	788.5955	818.3419	954.4973	996.5333	1008.9248	1051.3846	1053.0468	1066.0062	1097.7674	1110.9728	1138.9928	1183.1809	1265.3497	1299.2591	1322.3779	1370.7698	1407.0858	1413.6761	1415.4576	1454.5652	1478.3231	1478.631	1486.7547	1490.9606	1492.4842	1499.168	1816.7053	2363.8461	2991.3569	3014.1826	3027.3592	3050.8753	3055.803	3067.5332	3088.1539	3088.7536	3120.3167	3128.5903	3129.9076	3144.1409
CCC(=O)C(C)C#CC	CCC(=O)[C@@H](C)C#CC	
InChI=1S/C8H12O/c1-4-6-7(3)8(9)5-2/h7H,5H2,1-3H3	InChI=1S/C8H12O/c1-4-6-7(3)8(9)5-2/h7H,5H2,1-3H3/t7-/m0/s1
