23
gdb 76488	3.00141	1.00617	0.94559	1.4283	86.98	-0.2397	0.0676	0.3073	1411.8337	0.204093	-388.26938	-388.259309	-388.258365	-388.304262	37.975	
C	 0.1584245115	 1.518127317	-0.7219511939	-0.403283
C	 0.176342564	 0.0371265431	-0.4111298326	-0.120069
C	 1.4638989049	-0.6646590354	-0.0609996956	 0.016943
O	 2.6235164512	 0.1187983314	-0.0438652176	-0.414461
C	 0.4067166256	-0.4592073585	 0.9945248379	 0.32129
C	 0.6187579965	 0.3491629395	 2.278724124	-0.31057
C	 0.2138142316	-0.9219526144	 3.0904120117	 0.063208
C	-0.7574254892	-0.7568334932	 4.2488248585	-0.404676
C	-0.3129468882	-1.5673770475	 1.7701649935	-0.321381
H	 0.9296104611	 2.0470651132	-0.1585693833	 0.131678
H	 0.3465395199	 1.6971005092	-1.7859778457	 0.116544
H	-0.8136287054	 1.9594925057	-0.4755534082	 0.109054
H	-0.5173498675	-0.5583482111	-1.0020268932	 0.078874
H	 1.6065394353	-1.678269686	-0.4408285267	 0.076299
H	 3.1847606236	-0.1943583858	 0.6732867907	 0.286479
H	 1.620453679	 0.7554219937	 2.4484065754	 0.088148
H	-0.1039764527	 1.1645784639	 2.3964378805	 0.097509
H	 1.111457649	-1.4488969594	 3.4319740379	 0.065496
H	-1.6651044104	-0.2329092816	 3.9273012587	 0.11174
H	-1.0608314511	-1.7278107366	 4.6565104746	 0.112844
H	-0.3105352609	-0.1776146491	 5.0648249579	 0.112788
H	-1.4043011777	-1.5010698965	 1.6885167102	 0.093922
H	-0.0133275699	-2.5997203617	 1.5631415653	 0.091626
50.432	147.5638	154.4423	158.3174	219.5155	231.2559	245.1666	280.1567	319.6053	371.9322	437.6249	481.2774	560.1302	581.3106	719.7704	780.1658	833.2915	867.6788	887.9642	894.8077	942.1237	953.0829	999.6331	1041.5273	1062.7049	1077.6082	1112.47	1135.8437	1152.4882	1162.7194	1174.9784	1210.179	1226.7066	1232.0733	1259.0536	1284.9991	1293.4403	1328.7258	1364.5321	1373.2996	1410.5079	1413.2576	1469.4953	1478.0411	1492.4302	1494.7287	1496.3659	1500.6225	1505.1374	3020.8993	3027.5898	3033.2841	3035.8498	3037.1459	3074.0936	3078.606	3081.8407	3089.3857	3089.5237	3092.708	3116.8163	3135.1125	3802.2269
CC1C(O)C11CC(C)C1	C[C@H]1[C@@H](O)[C@]21C[C@@H](C)C2	
InChI=1S/C8H14O/c1-5-3-8(4-5)6(2)7(8)9/h5-7,9H,3-4H2,1-2H3	InChI=1S/C8H14O/c1-5-3-8(4-5)6(2)7(8)9/h5-7,9H,3-4H2,1-2H3/t5-,6-,7+,8-/m0/s1
