17
gdb 81440	3.42643	1.44639	1.33444	1.1196	66.5	-0.2481	0.0737	0.3218	985.9882	0.136697	-458.894905	-458.887821	-458.886877	-458.925876	29.705	
O	 0.0905874877	 1.4459554717	-0.0085285192	-0.456224
C	 0.134264935	 0.0506613913	-0.0702040251	 0.17883
C	 0.1055542304	-0.655379817	 1.312185245	 0.014656
O	-1.3445368555	-0.3027468643	 1.3501783775	-0.343906
C	-1.2621555998	-0.63200263	-0.0966749805	-0.08326
C	-1.020892375	-2.1481536749	-0.0437238336	 0.44363
O	-2.1109642845	-3.0030377987	-0.07699875	-0.462245
C	 0.3302389904	-2.6896161776	-0.3721061373	-0.349301
C	 0.0636685407	-2.1572860563	 1.0316856723	-0.139262
H	-0.5840144476	 1.6551785355	 0.652281602	 0.286441
H	 0.8923117615	-0.2101599887	-0.8069027031	 0.088037
H	 0.6605099172	-0.2822952228	 2.1728303839	 0.087155
H	-2.0997540284	-0.2577738451	-0.6854584863	 0.08868
H	-2.697602197	-2.7479639242	 0.6457471203	 0.289434
H	 0.3643694212	-3.7732324221	-0.4268417188	 0.128588
H	 1.0047027615	-2.1988335416	-1.0629603534	 0.124408
H	 0.0378545821	-2.8550756655	 1.8596978762	 0.104339
195.138	248.2022	290.1295	360.9335	386.7279	422.8127	446.7832	517.2402	557.6659	607.8754	628.7007	746.5328	820.6608	836.1347	849.107	869.9398	891.5205	925.9658	955.1955	964.209	1025.9925	1044.6982	1053.6591	1091.0305	1122.442	1167.5434	1188.9192	1215.7211	1223.4595	1252.4771	1278.0038	1301.5958	1315.691	1338.1717	1412.7828	1469.7371	1505.6604	3124.3521	3127.1958	3131.7166	3142.6136	3190.6479	3221.1363	3756.932	3779.5846
OC1C2OC1C1(O)CC21	O[C@H]1[C@H]2O[C@@H]1[C@@]1(O)C[C@@H]21	
InChI=1S/C6H8O3/c7-3-4-2-1-6(2,8)5(3)9-4/h2-5,7-8H,1H2	InChI=1S/C6H8O3/c7-3-4-2-1-6(2,8)5(3)9-4/h2-5,7-8H,1H2/t2-,3-,4-,5-,6+/m0/s1
