18
gdb 57702	3.36366	0.93231	0.88841	2.816	72.48	-0.2656	-0.0388	0.2268	1348.078	0.143265	-439.095131	-439.084827	-439.083883	-439.131524	35.949	
C	-0.7749726263	 1.312807234	-0.2305715773	-0.428671
C	-0.111546684	-0.0463110084	 0.0474473633	 0.255432
C	 0.914753158	 0.0389319165	 1.1807084614	-0.427062
O	-1.0681328887	-1.1017579223	 0.2584763858	-0.274943
C	-1.9534328392	-0.9951978663	 1.3439163928	-0.2125
C	-3.1963971331	-0.2670647636	 1.0182025678	 0.265045
N	-4.1764563564	 0.2903830956	 0.7665908921	-0.305015
C	 0.5803269231	-0.4878135667	-1.2501212579	 0.14428
O	 1.6397564407	-0.0585667727	-1.6198146065	-0.252892
H	-0.0053512538	 2.0330035091	-0.5204000631	 0.14368
H	-1.5084188147	 1.2374632385	-1.0378012217	 0.144046
H	-1.2836573585	 1.6960314876	 0.6584347892	 0.133114
H	 0.5006527775	 0.5167334392	 2.0733506951	 0.118286
H	 1.2753492815	-0.9587941526	 1.445644444	 0.130511
H	 1.7655394112	 0.6330818395	 0.8396153362	 0.153477
H	-2.229487468	-2.016536316	 1.6272742969	 0.164744
H	-1.4946021342	-0.5274854256	 2.2237284807	 0.146058
H	-0.006001905	-1.2277335558	-1.8351871387	 0.102411
28.7438	54.81	95.9767	202.7151	212.8833	233.8996	273.4584	298.7904	302.1648	366.4657	370.0988	396.2711	439.6285	601.7128	617.5705	752.0005	860.8351	904.7175	914.3529	953.2681	982.5683	1037.3506	1045.8004	1109.7901	1189.8235	1202.8837	1260.1064	1310.8624	1381.2316	1392.4989	1396.3968	1415.896	1470.3705	1479.319	1485.4629	1502.1885	1505.6307	1841.6676	2358.7431	2916.3241	3035.3596	3045.7566	3048.9871	3080.9703	3118.3697	3123.1238	3130.7787	3137.4344
CC(C)(OCC#N)C=O	CC(C)(OCC#N)C=O	
InChI=1S/C6H9NO2/c1-6(2,5-8)9-4-3-7/h5H,4H2,1-2H3	InChI=1S/C6H9NO2/c1-6(2,5-8)9-4-3-7/h5H,4H2,1-2H3
