16
gdb 43086	2.67662	2.06522	1.75721	4.0934	66.66	-0.228	-0.0257	0.2024	834.5041	0.127869	-437.879415	-437.873385	-437.872441	-437.909671	25.18	
O	-0.0516587541	 0.0300281711	-0.0338160057	-0.325988
C	-0.0488999471	 1.228249598	-0.0184529803	 0.482967
C	-1.2542852776	 2.1937203532	-0.0100642411	-0.013694
O	-1.3903262059	 2.6106489194	 1.376435554	-0.300689
C	-0.3764594337	 3.6271572755	 1.1616166359	 0.082279
C	 1.0174448676	 3.0154643884	 1.358554761	-0.242478
C	 1.1509933904	 2.1955586756	 0.0356122499	-0.149403
N	 0.6956234307	 3.1290096562	-1.0213499967	-0.30331
C	-0.5636723486	 3.5230606641	-0.3987547942	-0.0588
H	-2.1785524849	 1.8292301413	-0.4570566314	 0.0997
H	-0.5878997121	 4.5415188536	 1.7175966198	 0.086343
H	 1.7981852313	 3.7851605782	 1.3969508691	 0.100361
H	 1.0670793636	 2.4141791618	 2.2693525327	 0.130086
H	 2.113617148	 1.728001155	-0.1610664368	 0.093818
H	 1.3305867155	 3.9173743508	-1.1199235991	 0.225705
H	-1.1297963234	 4.2854696577	-0.9275054872	 0.093104
151.0223	280.0046	430.1283	440.3456	471.4284	553.9383	634.5701	716.0297	751.2612	810.2467	825.6625	854.8841	864.9311	893.0406	917.0739	934.5888	971.5588	989.565	1006.271	1049.5336	1061.5995	1119.3064	1122.8853	1175.6512	1194.1073	1218.6458	1225.5278	1257.9994	1288.5485	1307.1054	1320.2966	1355.7337	1400.1815	1470.0493	1882.0242	3034.7588	3106.9777	3113.8368	3127.3276	3145.6191	3156.5468	3497.143
O=C1C2OC3CC1NC23	O=C1[C@H]2O[C@H]3C[C@@H]1N[C@@H]23	
InChI=1S/C6H7NO2/c8-5-2-1-3-4(7-2)6(5)9-3/h2-4,6-7H,1H2	InChI=1S/C6H7NO2/c8-5-2-1-3-4(7-2)6(5)9-3/h2-4,6-7H,1H2/t2-,3-,4+,6-/m0/s1
