20
gdb 88565	3.2401	1.18109	1.11862	2.1548	79.52	-0.2363	0.077	0.3134	1189.5602	0.171536	-403.083877	-403.075535	-403.074591	-403.116982	32.712	
O	 0.0139031685	 1.4056983371	 0.079491792	-0.418288
C	 0.0160555536	 0.0107569993	-0.0353791678	 0.103494
C	-0.3703946796	-0.8310101137	 1.1546829325	-0.352574
C	-1.324217812	-0.6715495557	-0.0155603879	-0.130848
C	-2.5881620124	 0.1028068439	 0.096929308	 0.386417
C	-2.9080595059	 1.2718543149	 1.0474504795	-0.293444
C	-4.3925689442	 0.7809573519	 1.1129473113	-0.242736
C	-4.0250813058	-0.357620636	 0.1537332494	-0.093059
N	-3.4492998945	 0.1600486364	-1.0838119663	-0.364922
H	 0.7721939753	 1.6601080851	 0.6155244629	 0.287329
H	 0.7679657722	-0.3868721436	-0.7169723406	 0.087405
H	 0.1139946734	-1.7895850887	 1.3064367459	 0.111176
H	-0.6103473064	-0.2950635595	 2.0670516869	 0.113648
H	-1.4203312332	-1.5235203254	-0.6812776154	 0.09538
H	-2.4107497947	 1.1991564012	 2.0166691156	 0.101572
H	-2.7141459298	 2.2662260449	 0.6361122418	 0.10408
H	-4.6715107966	 0.4361591912	 2.1117622848	 0.103461
H	-5.1664318948	 1.4684072974	 0.7533667879	 0.094202
H	-4.4469301837	-1.3570345666	 0.1373899394	 0.087714
H	-3.7647429395	 1.104379656	-1.3021174899	 0.219993
58.3903	134.0457	177.7284	249.7388	306.441	318.6759	394.7293	447.2678	471.0835	532.5471	675.8631	752.4118	780.8252	797.0407	829.184	848.264	899.9023	930.0491	951.1959	961.9185	1011.0163	1029.6451	1039.7421	1055.7656	1063.23	1097.4844	1130.9203	1146.1925	1171.5043	1182.0361	1208.1135	1226.9678	1235.2457	1249.2039	1282.8388	1289.8841	1315.0562	1344.4168	1417.9902	1457.7865	1477.7829	1490.5522	1505.0431	3039.5519	3064.568	3096.0609	3097.448	3120.8522	3130.9123	3158.9302	3166.9877	3218.9604	3450.1571	3805.269
OC1CC1C12CCC1N2	O[C@H]1C[C@H]1[C@]12CC[C@H]1N2	
InChI=1S/C7H11NO/c9-5-3-4(5)7-2-1-6(7)8-7/h4-6,8-9H,1-3H2	InChI=1S/C7H11NO/c9-5-3-4(5)7-2-1-6(7)8-7/h4-6,8-9H,1-3H2/t4-,5+,6-,7-/m1/s1
