22
gdb 69326	2.78466	1.31109	1.24467	2.9083	81.19	-0.2389	0.0668	0.3057	1162.5323	0.193895	-404.349372	-404.34015	-404.339206	-404.382437	36.62	
C	 0.2015213566	 1.4967442322	 0.0897025202	-0.467655
C	-0.0689221032	 0.0139619098	 0.1194865438	 0.343239
C	-1.5164622267	-0.4711527934	 0.0927352307	-0.275184
C	-1.4504943057	-1.9533757906	 0.5142886578	-0.309395
C	-0.1772850041	-2.0874005717	 1.4004761316	 0.379649
C	-0.4879254873	-1.8919165777	 2.8888099535	-0.434266
O	 0.4913852918	-3.3325661192	 1.1954619674	-0.476333
C	 0.7306040391	-0.9719288028	 0.9019216738	-0.07014
N	 0.9284201026	-0.8385962326	-0.5466073596	-0.382584
H	 1.2756667078	 1.6913405606	 0.1345380283	 0.129513
H	-0.1812330251	 1.9434519671	-0.8354333334	 0.116825
H	-0.2838910966	 2.0038087541	 0.9313163492	 0.109575
H	-2.1014294712	 0.1138840366	 0.8131845902	 0.101437
H	-1.9903774581	-0.3288697244	-0.8858133904	 0.099717
H	-2.3536679841	-2.2816557183	 1.0371580062	 0.094343
H	-1.3324847107	-2.6076396637	-0.3547116526	 0.107858
H	-1.1426525469	-2.6926367137	 3.2536151662	 0.10357
H	 0.4334549455	-1.9091555393	 3.4782301619	 0.125849
H	-0.9974395176	-0.9395987753	 3.0689786115	 0.120127
H	-0.0617586706	-4.0302553457	 1.5629777041	 0.273867
H	 1.5817612855	-0.6941382009	 1.5183019725	 0.080557
H	 0.5094209691	-1.620582921	-1.0433716328	 0.229431
107.0049	180.6645	204.5631	234.8785	259.9428	278.8369	330.3014	334.02	375.014	414.7755	436.5207	534.3292	555.2609	604.9199	708.2028	767.6291	816.933	858.5106	924.4363	931.3076	947.7626	980.5654	999.9518	1026.0673	1045.3123	1057.5169	1099.5323	1121.3875	1129.0159	1172.767	1200.7703	1230.7573	1245.973	1280.7778	1303.3541	1317.4081	1337.3102	1387.0266	1407.0582	1409.379	1445.2334	1484.5027	1487.6473	1490.4102	1496.025	1501.2857	1503.1839	3024.1321	3024.3966	3029.602	3050.5009	3060.9335	3086.1079	3090.7719	3093.8105	3113.6078	3122.4659	3141.0404	3502.1844	3804.343
CC12CCC(C)(O)C1N2	C[C@]12CC[C@@](C)(O)[C@H]1N2	
InChI=1S/C7H13NO/c1-6-3-4-7(2,9)5(6)8-6/h5,8-9H,3-4H2,1-2H3	InChI=1S/C7H13NO/c1-6-3-4-7(2,9)5(6)8-6/h5,8-9H,3-4H2,1-2H3/t5-,6-,7+/m0/s1
