21
gdb 42043	2.78161	1.57851	1.12612	1.569	79.06	-0.2336	0.0733	0.307	1128.7951	0.184679	-424.212556	-424.204731	-424.203787	-424.244963	31.144	
C	-0.0735758869	 1.4899497029	-0.1575316338	-0.253078
C	 1.453580949	 1.5742273563	 0.1225093683	-0.255241
C	 1.4287179553	 0.130639745	 0.6777971642	 0.085474
O	 1.4611619529	 0.1395994235	 2.0839416146	-0.248244
C	 1.3768036085	-1.1521474073	 2.6646273426	-0.073532
C	-0.0512974046	-1.6947893774	 2.7544955516	-0.190667
C	-0.7745273818	-1.8205847131	 1.4111231895	-0.081536
O	-1.0405650823	-0.5513170593	 0.8362582481	-0.249129
C	-0.0030643667	-0.0372440077	 0.0469304312	 0.131859
H	-0.663914708	 1.9447671197	 0.6405035531	 0.119865
H	-0.435577461	 1.8480928633	-1.1230039073	 0.098075
H	 2.0595708764	 1.6636135332	-0.7819884489	 0.102886
H	 1.7806591234	 2.3226285875	 0.8458918954	 0.115641
H	 2.1932872767	-0.5596010015	 0.2899041958	 0.056905
H	 2.0151324258	-1.8554235741	 2.1028142535	 0.083675
H	 1.7982903897	-1.0586060032	 3.6711306704	 0.104406
H	-0.018039084	-2.6804852995	 3.2389817127	 0.090261
H	-0.6445871801	-1.0347833173	 3.3972902699	 0.114809
H	-0.2023296547	-2.4534214114	 0.7128435834	 0.084896
H	-1.7480250691	-2.2997298222	 1.5617103729	 0.105659
H	 0.0705033613	-0.5879106976	-0.9054457874	 0.057017
69.5656	161.285	262.3997	279.0074	322.5927	336.9533	426.2728	435.1476	521.9245	626.5125	687.4881	735.1617	796.2133	840.626	897.3353	916.6404	942.8577	950.8809	954.7131	972.3311	1044.9646	1065.5424	1105.9861	1122.4804	1148.7497	1160.198	1191.6949	1231.125	1244.5143	1253.8214	1262.7055	1283.8542	1286.8801	1307.9878	1323.1668	1366.3665	1379.9557	1392.8513	1413.9354	1424.7236	1460.5741	1467.6102	1486.9417	1493.1075	1501.027	2956.1218	2960.4161	2971.5769	2982.4407	3019.0049	3063.7106	3065.938	3071.5648	3076.087	3078.8939	3123.2901	3138.8553
C1CC2OCCCOC12	C1C[C@H]2OCCCO[C@@H]12	
InChI=1S/C7H12O2/c1-4-8-6-2-3-7(6)9-5-1/h6-7H,1-5H2	InChI=1S/C7H12O2/c1-4-8-6-2-3-7(6)9-5-1/h6-7H,1-5H2/t6-,7+
