19
gdb 71771	3.16976	1.86332	1.63225	1.1991	76.65	-0.2163	0.086	0.3023	909.7671	0.161892	-385.887736	-385.881066	-385.880122	-385.918287	28.406	
C	 0.0231366619	 1.4743051624	-0.0433360908	-0.480128
C	-0.0418963602	-0.0247732005	-0.0054437076	 0.437652
O	 0.896460404	-0.6313595728	-0.8732398617	-0.287433
C	 0.4590561141	-1.9411099845	-1.1296111092	 0.079208
C	 0.1488246766	-2.8121104959	 0.0585784028	-0.114657
C	 0.3269594883	-2.1371472711	 1.4116203526	-0.232781
C	-0.3732157626	-0.7942133592	 1.2506545483	-0.144633
C	-1.3111276029	-0.8528146484	 0.0400152638	-0.152989
C	-0.9820445411	-2.1220940428	-0.7079534736	-0.111441
H	 1.007984011	 1.8288433764	 0.2784514572	 0.127773
H	-0.1583908765	 1.8448793756	-1.057143322	 0.12535
H	-0.7280382469	 1.9056544014	 0.624066588	 0.118002
H	 0.8863442229	-2.352562964	-2.036256163	 0.096049
H	 0.3084606193	-3.8809561107	-0.0337862585	 0.082309
H	-0.1434172521	-2.7273112805	 2.2066223718	 0.09966
H	 1.3864115698	-2.0160957914	 1.6678832855	 0.108153
H	-0.6500517087	-0.2280205718	 2.1340186948	 0.079728
H	-2.3035999445	-0.4224349589	 0.0245437025	 0.083764
H	-1.7213980025	-2.6459849632	-1.2979522712	 0.086418
199.4953	224.9329	268.1668	310.1738	490.433	521.3424	593.3202	697.7188	722.5429	730.1924	746.415	766.7422	784.1925	828.1404	866.014	906.394	950.3368	965.1278	981.9559	990.028	1026.3404	1041.0584	1055.6761	1064.4035	1079.1308	1090.8957	1121.8922	1159.2274	1202.7255	1211.1502	1232.1737	1264.7211	1297.6144	1325.4347	1345.5203	1405.6912	1412.9109	1439.8968	1478.1128	1490.0492	1503.5219	3028.0845	3036.663	3064.0969	3101.7125	3117.5704	3161.4714	3166.9856	3185.1577	3197.4952	3211.328
CC12OC3C4CC1C2C34	C[C@@]12O[C@H]3[C@H]4C[C@@H]1[C@@H]2[C@@H]34	
InChI=1S/C8H10O/c1-8-4-2-3-5(6(4)8)7(3)9-8/h3-7H,2H2,1H3	InChI=1S/C8H10O/c1-8-4-2-3-5(6(4)8)7(3)9-8/h3-7H,2H2,1H3/t3-,4+,5-,6+,7-,8+/m0/s1
