18
gdb 37899	3.14863	2.11486	1.70433	1.2389	74.35	-0.2273	0.0836	0.3109	842.0265	0.151616	-401.860624	-401.85475	-401.853806	-401.890466	25.658	
C	-0.0406597441	 1.5146659744	 0.039036684	-0.262462
N	 1.4877729419	 1.2769573399	 0.0487800842	-0.180268
C	 1.1932318144	 0.0402321979	 0.9212787398	-0.002148
C	 2.2090649068	-1.0403264807	 0.5669715255	-0.249311
C	 1.8163740024	-1.1370789206	-0.9175168161	 0.072885
O	 0.6547740423	-2.0044074841	-1.063475538	-0.300178
C	-0.535546476	-1.3500985372	-0.5366502651	-0.200616
C	 0.0458654774	-0.0136128163	-0.134069414	 0.243666
C	 1.2138043557	 0.2517265488	-1.0924315311	-0.000043
H	-0.419380519	 1.9114961229	 0.9848070101	 0.105244
H	-0.3847248144	 2.1123224222	-0.8091229306	 0.108163
H	 0.974671019	 0.2641633673	 1.966605646	 0.072417
H	 3.2387295158	-0.7005258452	 0.7214659465	 0.110578
H	 2.0528876616	-1.9850385573	 1.0926620536	 0.110353
H	 2.5671943598	-1.5017348443	-1.6166646204	 0.079751
H	-1.2924506785	-1.2907457153	-1.327771838	 0.107773
H	-0.9356114265	-1.9400923375	 0.2960063239	 0.104112
H	 1.0536555115	 0.6712194652	-2.0849294903	 0.080081
228.1158	353.5042	401.1437	434.5831	468.0116	576.4673	698.3916	703.4583	788.364	797.0727	830.6048	851.6933	892.0279	907.3357	922.4609	946.6689	977.2281	983.1883	1006.5367	1015.6346	1037.7092	1079.7821	1105.0363	1114.5564	1139.4621	1173.8777	1196.1776	1215.3696	1233.7996	1243.6126	1270.8852	1280.2741	1312.8008	1324.0719	1359.4061	1370.1364	1473.703	1518.0873	1528.1494	3021.5148	3051.6765	3053.6891	3063.02	3105.5215	3115.3579	3119.3093	3124.2728	3137.8587
C1N2C3CC4OCC13C24	C1N2[C@@H]3C[C@H]4OC[C@@]13[C@@H]24	
InChI=1S/C7H9NO/c1-4-6-7(3-9-4)2-8(6)5(1)7/h4-6H,1-3H2	InChI=1S/C7H9NO/c1-4-6-7(3-9-4)2-8(6)5(1)7/h4-6H,1-3H2/t4-,5-,6+,7+/m1/s1
