18
gdb 115244	4.30308	0.97766	0.82778	6.0914	70.6	-0.2419	0.0453	0.2872	1349.0892	0.148335	-476.225465	-476.216671	-476.215726	-476.259679	31.733	
O	-0.1743695695	 1.4815540999	 0.0799777273	-0.419433
C	-0.0153891868	 0.0740878684	 0.1460145232	-0.099647
C	-1.3956232224	-0.5521175805	-0.0173557546	-0.029581
C	-2.0236966247	-0.2075173416	-1.3602956004	-0.06939
O	-3.2933507935	-0.8432149309	-1.5166030197	-0.237957
C	-3.4693681277	-2.1248742271	-1.1380006475	 0.459645
N	-4.4621179438	-2.761781481	-1.5873662632	-0.543759
O	-2.6197973593	-2.6559297445	-0.2116696665	-0.271054
C	-1.3429480857	-2.0700333362	 0.057169778	-0.088815
H	 0.6921477007	 1.8916428066	 0.1547982261	 0.294516
H	 0.6553927524	-0.2904643449	-0.6497327089	 0.093136
H	 0.4186107698	-0.2377550675	 1.1093490123	 0.097448
H	-2.046549867	-0.1747365387	 0.7800993621	 0.10999
H	-2.2148974026	 0.86085832	-1.456388722	 0.144358
H	-1.3580948955	-0.5149245381	-2.181242319	 0.104742
H	-4.4854524082	-3.688616762	-1.1671722866	 0.223642
H	-0.6114992426	-2.4628415275	-0.664781328	 0.108758
H	-1.0625804138	-2.4279389044	 1.0515025174	 0.123402
60.5211	98.272	122.8029	170.5456	220.0053	269.4563	357.5584	422.1991	426.8207	512.9605	561.667	692.4227	735.8476	808.9399	826.2548	894.5575	920.0271	971.5691	994.3665	1068.393	1088.2837	1123.1691	1135.0752	1160.4809	1184.5217	1239.0561	1245.4854	1258.776	1287.2384	1308.1414	1327.7198	1384.3471	1428.0832	1436.8191	1463.9678	1511.9939	1518.8433	1526.4691	1759.5666	2960.9114	2991.439	2993.7037	3000.2412	3053.5861	3090.5963	3137.5211	3525.5611	3834.7415
OCC1COC(=N)OC1	OC[C@H]1CO[C]([NH])OC1	
InChI=1S/C5H9NO3/c6-5-8-2-4(1-7)3-9-5/h4,6-7H,1-3H2	InChI=1S/C5H9NO3/c6-5-8-2-4(1-7)3-9-5/h4,6-7H,1-3H2/t4-
