18
gdb 46885	2.943	1.49735	1.13808	3.8817	81.12	-0.2125	-0.0487	0.1638	1079.8675	0.150317	-401.948791	-401.941279	-401.940335	-401.980935	29.929	
O	-0.1091040275	 1.0171474124	-1.6897313101	-0.331408
C	-0.0089555494	 1.4261293216	-0.5452658263	 0.337835
C	-1.2750697353	 1.5219824948	 0.3193859945	-0.296353
N	-1.3656353108	 2.6374430781	 1.2446350702	-0.285017
C	-0.5753952161	 2.6496221089	 2.4297028283	 0.017319
C	 0.0370647036	 1.4230551344	 3.0032698159	-0.301923
C	 0.9653464362	 2.4942270675	 2.4248600032	-0.088818
C	 1.7053369566	 2.2829723805	 1.1792309609	-0.036482
C	 1.3099258644	 1.8524299656	-0.0368455669	-0.175133
H	-2.1111141113	 1.5777656385	-0.3837284594	 0.132847
H	-1.4072495469	 0.5845323039	 0.8693910541	 0.133102
H	-1.2903031068	 3.5211120002	 0.7539707139	 0.232041
H	-0.9328261254	 3.382052162	 3.1489810346	 0.105374
H	 0.0308921682	 1.3040750606	 4.0808239278	 0.125189
H	-0.0137790172	 0.4904342129	 2.4556460866	 0.131038
H	 1.5028578124	 3.0777617166	 3.1653294072	 0.090887
H	 2.762097309	 2.5339569706	 1.2590542221	 0.106684
H	 2.0703194763	 1.7622469209	-0.8082638762	 0.102817
58.0355	208.3678	251.2317	307.3859	372.3395	401.0917	470.9675	486.5745	581.6427	643.3612	677.3876	719.4717	730.4779	787.8667	814.5685	842.714	881.112	920.0506	986.8442	1034.1237	1039.4385	1063.9307	1073.436	1116.1222	1130.4587	1183.1432	1218.566	1256.8405	1290.8482	1302.1164	1341.1844	1397.9073	1412.3065	1438.8921	1466.0085	1487.0587	1513.0778	1666.6207	1738.8002	3056.2847	3099.1688	3130.704	3136.6315	3146.4127	3158.3735	3170.0484	3234.4508	3536.9797
O=C1CNC2CC2C=C1	O=C1CN[C@H]2C[C@H]2C=C1	
InChI=1S/C7H9NO/c9-6-2-1-5-3-7(5)8-4-6/h1-2,5,7-8H,3-4H2	InChI=1S/C7H9NO/c9-6-2-1-5-3-7(5)8-4-6/h1-2,5,7-8H,3-4H2/t5-,7+/m1/s1
