19
gdb 61567	3.52706	0.94663	0.80247	2.4088	73.47	-0.2315	0.0616	0.2931	1426.8905	0.158721	-456.35347	-456.343656	-456.342712	-456.38931	34.854	
C	-0.3247617208	 1.308438057	 0.1750849077	-0.36555
N	-0.106490498	-0.1153933403	-0.0300075394	-0.099231
C	-0.0291043707	-0.9827763196	 1.1360668887	-0.206972
C	-1.3749824316	-1.2260401632	 1.7786053703	 0.096944
C	-1.512863751	-1.4066226359	 3.2276186304	-0.179978
O	-1.8925355655	-0.1753677947	 2.60971354	-0.237167
C	 0.0408568294	-0.6847267721	-1.2754211108	 0.449947
N	 0.0221326876	 0.2088613428	-2.3405062355	-0.57058
O	 0.1344822159	-1.8898857117	-1.4517695859	-0.415819
H	 0.6049575961	 1.893105743	 0.0969201615	 0.113351
H	-1.0460156544	 1.6986116078	-0.548833476	 0.141735
H	-0.738493446	 1.4592530915	 1.1725818202	 0.167771
H	 0.3862124139	-1.9340078156	 0.7969313986	 0.152486
H	 0.6489656942	-0.5423245296	 1.8782072878	 0.098874
H	-2.120696561	-1.6796861648	 1.1255850955	 0.109591
H	-2.3326690568	-2.0042359604	 3.6222068781	 0.1198
H	-0.6287710573	-1.357533142	 3.8625796146	 0.11463
H	 0.40021348	 1.1334695236	-2.2055660357	 0.250628
H	 0.3113454564	-0.2347333258	-3.1988516702	 0.259542
36.7921	82.515	86.86	142.5903	165.4726	261.1417	277.2788	354.1076	386.5208	434.9031	458.2831	552.5648	574.4365	596.734	773.1632	789.9841	795.4721	862.9681	948.8024	961.8582	1056.5765	1096.8655	1101.6545	1114.69	1150.5467	1157.7911	1167.2234	1214.9395	1284.1763	1288.1952	1328.7769	1372.4395	1424.4449	1446.3806	1456.8399	1493.4427	1506.4492	1526.8338	1529.435	1623.0207	1775.8439	2982.8753	3025.2602	3081.6467	3084.6571	3115.2713	3125.0321	3146.7124	3171.6635	3582.4378	3695.7097
CN(CC1CO1)C(N)=O	CN(C[C@H]1CO1)C(=O)N	
InChI=1S/C5H10N2O2/c1-7(5(6)8)2-4-3-9-4/h4H,2-3H2,1H3,(H2,6,8)	InChI=1S/C5H10N2O2/c1-7(5(6)8)2-4-3-9-4/h4H,2-3H2,1H3,(H2,6,8)/t4-/m0/s1
