20
gdb 86955	4.28354	0.83608	0.77495	3.7225	83.87	-0.2406	0.0101	0.2507	1519.3819	0.171603	-403.193037	-403.183967	-403.183023	-403.227854	33.463	
C	-0.0803142604	 1.5690118321	-0.2292906014	-0.397144
C	 0.0258155975	 0.0575035192	 0.000959676	-0.011529
C	 0.8457208189	-0.6955105622	-1.0792624836	-0.242932
C	 1.60792532	-1.8234103604	-0.3318519788	 0.006963
N	 2.9472347442	-2.0707398647	-0.8482784818	-0.283931
C	 3.3294278461	-3.2406908921	-1.42664851	 0.153592
O	 2.6215663697	-4.2133292848	-1.5832442211	-0.323689
C	 1.5898425364	-1.341839549	 1.1029519847	-0.105992
C	 0.7384400224	-0.334315362	 1.2783428676	-0.069967
H	 0.9128290842	 2.0312538649	-0.2535070069	 0.113253
H	-0.5775101098	 1.7883336685	-1.1799151542	 0.117103
H	-0.6562559547	 2.0523161205	 0.5670681518	 0.114507
H	-0.9961050093	-0.3497881114	 0.0329608287	 0.086914
H	 0.2339002047	-1.0765226257	-1.9003720779	 0.110771
H	 1.5814326141	-0.0081735434	-1.5145650106	 0.092788
H	 1.0950656159	-2.7862337005	-0.4287023332	 0.129424
H	 3.6286558262	-1.3304271691	-0.7762196066	 0.242226
H	 4.3899456097	-3.2092619322	-1.7482574213	 0.071588
H	 2.1826558711	-1.8227930439	 1.8731272737	 0.100489
H	 0.5246238633	 0.1464269062	 2.2276949751	 0.095565
39.2886	61.3572	168.4728	196.265	234.4426	253.0452	315.164	384.2795	442.3281	544.4086	549.1639	570.0144	718.4654	774.1415	801.2406	847.1755	884.1338	929.5855	963.3381	981.0954	1023.3105	1034.8419	1041.6767	1077.4932	1119.706	1134.4271	1155.8611	1197.6806	1215.9696	1286.2684	1302.7015	1315.0925	1339.3564	1354.15	1385.9644	1410.8333	1431.3434	1488.1447	1497.3611	1498.8743	1524.1056	1685.1157	1803.6575	2929.1922	2986.0241	3027.1164	3035.3288	3064.3907	3096.5894	3099.9447	3104.5749	3176.802	3204.9114	3618.9987
CC1CC(NC=O)C=C1	C[C@H]1C[C@@H](NC=O)C=C1	
InChI=1S/C7H11NO/c1-6-2-3-7(4-6)8-5-9/h2-3,5-7H,4H2,1H3,(H,8,9)	InChI=1S/C7H11NO/c1-6-2-3-7(4-6)8-5-9/h2-3,5-7H,4H2,1H3,(H,8,9)/t6-,7+/m1/s1
