18
gdb 43106	2.59475	2.06436	1.5417	3.7826	74.31	-0.2369	0.0103	0.2472	909.4377	0.1515	-401.961055	-401.954394	-401.95345	-401.992187	26.858	
O	-0.0144701623	 0.1167180847	 0.5726999419	-0.347442
C	-0.0754651508	 1.2419013199	 0.162051017	 0.399297
C	-1.1803808144	 2.2541168784	-0.1406156099	-0.198292
C	-1.4995910666	 3.0174025511	 1.1912388303	-0.242144
C	-0.2423501695	 3.9332092614	 1.0111955821	-0.018108
C	 1.0133508227	 3.6134025685	 1.8599225839	-0.24162
C	 1.8374810787	 2.5698310843	 1.0328848075	-0.192415
N	 0.9528101019	 2.1889397167	-0.0722239552	-0.100263
C	-0.0116770815	 3.2638808827	-0.373106685	-0.011308
H	-1.9964221444	 2.0145786083	-0.8186953918	 0.093829
H	-2.4235084212	 3.5912180696	 1.0947720381	 0.114277
H	-1.5602875084	 2.4060923001	 2.0956508464	 0.115986
H	-0.4833996562	 4.9966349909	 1.0119876572	 0.078384
H	 1.603010548	 4.515703396	 2.0456818539	 0.106007
H	 0.7338282277	 3.2078545154	 2.8369126183	 0.114936
H	 2.760868341	 3.0090765762	 0.644237522	 0.112116
H	 2.0985389842	 1.6739011185	 1.6002293377	 0.13692
H	 0.1699695511	 3.8408063172	-1.2788857942	 0.079841
97.6256	185.1589	248.8536	347.4885	471.5008	601.4127	624.5279	669.2051	727.0129	765.7402	809.7291	823.5563	871.4459	877.787	904.9773	921.0346	924.2989	970.1733	1011.9341	1039.8247	1059.1252	1106.4526	1138.2758	1148.1078	1173.5071	1201.9764	1223.7743	1230.5926	1246.929	1273.3467	1282.1303	1292.2283	1312.9779	1329.4893	1353.2712	1480.8158	1494.348	1509.9516	1879.7959	3052.3885	3059.7678	3061.762	3089.8031	3101.0314	3118.6278	3120.8947	3122.5008	3143.6221
O=C1C2CC3CCN1C23	O=C1[C@H]2C[C@H]3CCN1[C@@H]23	
InChI=1S/C7H9NO/c9-7-5-3-4-1-2-8(7)6(4)5/h4-6H,1-3H2	InChI=1S/C7H9NO/c9-7-5-3-4-1-2-8(7)6(4)5/h4-6H,1-3H2/t4-,5+,6-/m1/s1
