25
gdb 104407	1.95679	1.43856	1.1575	1.3074	87.52	-0.2559	0.07	0.3259	1274.1245	0.228767	-389.516232	-389.505881	-389.504936	-389.551125	39.656	
C	 0.2748915804	 1.5858039342	 0.2285772483	-0.414274
C	 0.4667421029	 0.0665315978	 0.1408768953	-0.199057
C	 0.6490820043	-0.4827640933	-1.2906680445	 0.376458
O	-0.4733816129	-0.1319766506	-2.1002298452	-0.493609
C	 1.9956361831	-0.0578937347	-1.9230397992	-0.265708
C	 3.0413343161	-1.0649198545	-1.3894586548	-0.214341
C	 2.2271889743	-2.3108379478	-0.9324598512	-0.224523
C	 0.7672651767	-2.0274662591	-1.3364808921	 0.045993
C	-0.2869086989	-2.8171366616	-0.5641564608	-0.429385
H	 1.1230690085	 2.1400784242	-0.186180502	 0.119492
H	-0.6310822007	 1.9066639704	-0.2978355325	 0.111952
H	 0.1608357642	 1.898039711	 1.2709477627	 0.118413
H	 1.33117139	-0.2230680798	 0.7506599922	 0.095079
H	-0.4074612398	-0.4181238704	 0.5868147718	 0.104266
H	-0.5150039807	 0.8274262362	-2.1581833829	 0.2752
H	 1.8848093252	-0.1538912742	-3.0081806872	 0.101826
H	 2.2661915753	 0.982099424	-1.7174327699	 0.084778
H	 3.7766037837	-1.3148371108	-2.1589706149	 0.099243
H	 3.6041411585	-0.6421228287	-0.5518230293	 0.097628
H	 2.5950194845	-3.2385328826	-1.3799902707	 0.095256
H	 2.2994967448	-2.44284758	 0.1532317611	 0.094284
H	 0.6511604783	-2.2705202941	-2.4010223388	 0.077395
H	-0.178291597	-2.6968996807	 0.518967468	 0.109724
H	-1.2943090638	-2.4957499779	-0.8460743001	 0.12699
H	-0.2026221972	-3.8871816069	-0.7815828934	 0.10692
69.724	100.7086	130.9451	200.4819	223.7674	228.27	267.1007	288.8541	320.303	337.6677	399.0848	488.0465	518.0738	563.9901	617.8565	702.0672	776.0671	792.9697	835.2088	890.1897	916.6914	938.6905	992.0269	997.297	1013.5089	1029.302	1048.7933	1075.9204	1097.3308	1124.1255	1166.3266	1190.3302	1215.7624	1242.1002	1253.7793	1290.6072	1308.38	1319.993	1333.1798	1339.7576	1356.121	1388.5022	1396.5325	1407.4701	1412.7025	1477.1742	1490.4995	1494.7255	1501.3951	1503.0058	1504.5478	1512.6562	1517.2381	3013.1172	3030.4466	3031.1336	3033.3087	3037.6442	3045.0267	3055.4279	3072.7027	3074.8042	3085.4449	3093.6827	3097.8401	3101.4514	3107.0864	3107.6142	3822.329
CCC1(O)CCCC1C	CC[C@@]1(O)CCC[C@H]1C	
InChI=1S/C8H16O/c1-3-8(9)6-4-5-7(8)2/h7,9H,3-6H2,1-2H3	InChI=1S/C8H16O/c1-3-8(9)6-4-5-7(8)2/h7,9H,3-6H2,1-2H3/t7-,8-/m1/s1
