12
gdb 21635	5.71764	1.50532	1.19257	2.9017	61.22	-0.2361	-0.0514	0.1847	915.9632	0.085935	-410.880435	-410.873811	-410.872867	-410.91131	24.145	
N	-0.0075385187	 1.333347189	 0.1284535383	-0.574555
C	-0.0076164262	-0.0294905576	 0.0425514568	 0.440946
N	-1.1068815499	-0.7606986749	 0.0291910448	-0.304223
N	-0.5947661527	-2.0358431058	 0.0037740092	-0.017728
C	-1.3746888478	-3.1961575546	-0.0183512031	 0.187519
O	-2.5710660442	-3.2225751005	-0.0151431546	-0.256467
C	 0.7706534083	-1.9747510677	-0.006006625	 0.04094
N	 1.1823063175	-0.7379486018	 0.0169815089	-0.317979
H	 0.8301775286	 1.7803130233	-0.2085284424	 0.269147
H	-0.8701926146	 1.7864437422	-0.129578135	 0.270754
H	-0.7246350716	-4.090478888	-0.0404541381	 0.100592
H	 1.3929565112	-2.8575484535	-0.0301107398	 0.161053
121.9304	196.643	233.2274	350.6863	387.9943	440.1687	512.2627	530.7375	624.9412	725.9219	778.507	843.139	870.4221	985.595	1011.0515	1019.5269	1125.2564	1223.355	1301.8039	1390.6767	1413.1659	1455.5174	1536.2467	1603.7779	1666.6099	1847.6406	2967.4853	3253.2903	3594.6725	3708.7282
NC1=NN(C=O)C=N1	Nc1nn(C=O)cn1	
InChI=1S/C3H4N4O/c4-3-5-1-7(2-8)6-3/h1-2H,(H2,4,6)	InChI=1S/C3H4N4O/c4-3-5-1-7(2-8)6-3/h1-2H,(H2,4,6)
