19
gdb 58361	2.20424	1.29636	0.91002	2.5049	71.83	-0.2529	-0.0293	0.2236	1299.2835	0.15589	-460.140254	-460.130325	-460.129381	-460.175751	35.37	
C	 0.0519574443	 1.5210648558	-0.023280035	-0.421163
C	-0.018050198	-0.0044628284	 0.0222566496	 0.118372
O	 0.7411102159	-0.523933869	 1.10839732	-0.427726
C	-1.4736877544	-0.5277611482	 0.0672468436	-0.13251
C	-2.2706250316	-0.0617251312	-1.1455000325	 0.155831
O	-3.4258871746	 0.2757953151	-1.1038588148	-0.261598
C	-1.5044637487	-2.0500463091	 0.1233438203	 0.070459
C	-2.7294701361	-2.81958681	-0.1132201111	-0.192559
O	-1.7190042702	-2.7271945682	-1.124800737	-0.237793
H	 1.0946278053	 1.8486870716	-0.0294197751	 0.133143
H	-0.4412175676	 1.9234886751	-0.9142968184	 0.130549
H	-0.4442454887	 1.958288173	 0.8524393614	 0.116243
H	 0.4668675879	-0.4178095468	-0.8710188668	 0.108548
H	 0.4449406554	-0.0826336512	 1.912759661	 0.280522
H	-1.9717266911	-0.1296568858	 0.9615913356	 0.092262
H	-1.7079452743	-0.0678763962	-2.103618507	 0.095283
H	-0.7229388637	-2.4853140716	 0.7432830137	 0.11587
H	-2.8382934009	-3.8018433341	 0.3431845863	 0.120415
H	-3.657487119	-2.2959179308	-0.335009874	 0.135852
63.5501	71.8003	84.9494	172.627	206.3941	252.343	270.0885	309.5455	332.6298	391.8449	426.2591	457.1814	546.865	576.0133	796.8946	857.5256	868.4004	936.4366	945.3628	992.213	1038.0289	1066.0444	1088.5368	1111.3018	1137.0503	1159.5264	1164.8132	1184.6367	1222.7455	1265.3507	1308.3642	1320.6116	1373.8726	1402.5567	1408.629	1424.001	1437.3366	1488.7289	1495.6791	1527.1275	1825.77	2899.716	3023.289	3025.889	3043.0747	3092.4384	3094.7481	3122.5663	3137.7323	3184.0107	3794.7593
CC(O)C(C=O)C1CO1	C[C@@H](O)[C@@H](C=O)[C@H]1CO1	
InChI=1S/C6H10O3/c1-4(8)5(2-7)6-3-9-6/h2,4-6,8H,3H2,1H3	InChI=1S/C6H10O3/c1-4(8)5(2-7)6-3-9-6/h2,4-6,8H,3H2,1H3/t4-,5-,6-/m1/s1
