19
gdb 122249	2.16708	1.32497	1.03843	3.78	76.64	-0.274	0.0129	0.2869	1238.0264	0.158457	-419.178079	-419.168445	-419.167501	-419.213927	34.279	
C	 0.3262191267	 0.945647712	-1.1554062929	-0.401439
C	 0.0040594877	-0.0942590917	-0.086478003	-0.058559
O	-0.1765243528	-1.4221992747	-0.5804580853	-0.236252
C	 0.9875476205	-2.1699915983	-0.8412873784	-0.178441
C	 1.4801010542	-2.0426940528	-2.2987907818	 0.149016
C	 1.1565554151	-3.1454241849	-3.2620459991	-0.262163
N	 0.4529417561	-1.8708442357	-3.3440649292	-0.316313
C	 2.6955159898	-1.2815255243	-2.4934766972	 0.273703
N	 3.6843012714	-0.6912067381	-2.6022052909	-0.350843
H	 1.3168705909	 0.79961346	-1.5930038033	 0.151938
H	-0.4155567907	 0.9175651193	-1.9587385158	 0.130423
H	 0.3064417482	 1.9440726536	-0.7056062331	 0.119892
H	 0.7806374886	-0.0999895156	 0.6929673329	 0.100972
H	-0.9467258452	 0.1501255462	 0.3978737542	 0.114606
H	 1.7991478517	-1.9016334347	-0.1528534456	 0.120968
H	 0.7187319896	-3.2151400706	-0.6561793566	 0.118834
H	 1.8322832828	-3.350222514	-4.0866602954	 0.143481
H	 0.6508039694	-4.01505951	-2.8495675817	 0.127422
H	-0.4513420439	-1.9113620655	-2.8756316779	 0.252751
32.2468	49.6148	102.574	177.5048	211.3985	260.5219	264.1307	328.4913	401.4652	419.0363	497.6695	571.9528	594.9069	707.8274	805.5571	834.3146	881.3935	900.938	926.4367	981.8841	1004.3044	1024.8836	1093.4775	1105.0471	1143.3383	1146.1234	1198.4128	1254.0992	1274.1311	1299.737	1340.8	1383.1522	1399.8554	1410.294	1422.6257	1481.6843	1488.7375	1497.594	1510.5863	1511.2589	2350.8621	2998.3469	3020.2107	3044.2969	3075.1444	3077.3297	3110.6384	3113.0714	3134.4424	3204.5664	3485.7379
CCOCC1(CN1)C#N	CCOC[C@]1(CN1)C#N	
InChI=1S/C6H10N2O/c1-2-9-5-6(3-7)4-8-6/h8H,2,4-5H2,1H3	InChI=1S/C6H10N2O/c1-2-9-5-6(3-7)4-8-6/h8H,2,4-5H2,1H3/t6-/m1/s1
