15
gdb 49773	2.19553	1.62726	1.00275	2.7693	74.74	-0.2454	-0.0287	0.2167	1131.1808	0.114435	-413.008574	-413.000424	-412.99948	-413.042473	28.523	
N	-0.0313667234	 1.2937534387	 0.0219624587	-0.456575
C	-0.0300363276	 0.0254663463	-0.0563776345	 0.084269
N	-1.2065586503	-0.700760395	-0.0387909801	-0.061353
C	-2.4967478175	-0.1789646024	 0.0497262566	 0.09594
N	-3.4533085085	-1.0158775668	 0.0841302288	-0.252898
C	-2.8708702153	-2.3577285736	 0.0036332923	-0.186593
C	-1.3049786696	-2.1630159615	-0.0365835081	-0.158964
C	-0.6673931281	-2.7737921103	-1.2072861666	 0.284396
N	-0.1600727828	-3.2674807956	-2.1206349535	-0.313523
H	 0.9184488403	 1.654938302	-0.0182647465	 0.237744
H	 0.8522015403	-0.6164241865	-0.1514951902	 0.117703
H	-2.6013833087	 0.897742105	 0.0824751559	 0.179371
H	-3.1665192839	-2.9546523957	 0.8703206096	 0.137555
H	-3.2309454368	-2.8707478051	-0.8923696281	 0.148426
H	-0.832437998	-2.5831795195	 0.8588053357	 0.144501
47.9304	79.1825	153.8429	200.2993	239.3601	261.1813	464.5724	485.9215	514.2254	593.83	727.8684	773.2535	798.2151	863.1909	928.7296	964.4274	977.4916	1025.0463	1049.9734	1058.4952	1152.5036	1210.9101	1229.5618	1273.3074	1310.8447	1326.579	1363.6336	1408.4738	1431.1843	1494.5335	1701.864	1721.2992	2358.3372	3035.2561	3064.122	3068.0082	3104.7758	3243.2871	3525.6061
N=CN1C=NCC1C#N	[NH][CH]N1C=NC[C@H]1C#N	
InChI=1S/C5H6N4/c6-1-5-2-8-4-9(5)3-7/h3-5,7H,2H2	InChI=1S/C5H6N4/c6-1-5-2-8-4-9(5)3-7/h3-5,7H,2H2/t5-/m1/s1
