19
gdb 76250	2.39018	1.37975	1.00926	2.9076	76.99	-0.2435	-0.0335	0.2099	1214.6569	0.156158	-423.048453	-423.038787	-423.037842	-423.083435	34.589	
C	-0.2980694055	 1.4147454479	 0.2683774929	-0.390224
C	 0.0277123747	-0.0623189368	 0.0616041706	-0.051851
C	 0.8546626561	-0.381151859	-1.2444213039	-0.08969
C	 0.9077407468	 0.5698914285	-2.4323607837	-0.415678
C	 2.0937323362	-0.5248437602	-0.3561028285	 0.365931
O	 3.2732638198	-0.4643408933	-0.5422292104	-0.295574
C	 1.2128914803	-0.6207169881	 0.9184674599	-0.213068
C	 1.7178771003	 0.0180264487	 2.1841202576	 0.1438
O	 1.1068121122	 0.8009816437	 2.8664173161	-0.245559
H	 0.5967105134	 2.0439559441	 0.2133309541	 0.12016
H	-0.9961381975	 1.7596161982	-0.5009584808	 0.113251
H	-0.7451482403	 1.5782678243	 1.2496955709	 0.146052
H	-0.8839165645	-0.6570005664	 0.1490486941	 0.081542
H	 0.5921759538	-1.3908411179	-1.589151357	 0.107983
H	 1.1714768555	 1.585582206	-2.126987339	 0.130221
H	 1.6636453905	 0.2318847361	-3.147133406	 0.136844
H	-0.0555032766	 0.608708482	-2.9500809153	 0.123403
H	 1.0841258812	-1.6913356381	 1.1362266155	 0.132401
H	 2.7478422336	-0.3028341597	 2.4559120529	 0.100056
49.4608	85.6184	162.5832	178.4336	198.3253	211.7809	250.051	267.0253	341.7034	443.5922	502.0049	508.5129	654.0558	741.3221	756.1913	771.9232	847.9595	932.0431	954.5624	1001.3907	1018.3385	1046.8576	1054.6906	1093.2801	1143.2103	1167.7687	1176.6329	1218.7918	1265.5395	1289.4815	1346.4461	1367.4962	1405.8637	1416.2829	1423.0117	1486.0288	1489.1998	1499.6116	1503.0077	1817.3773	1883.7851	2890.672	3015.6559	3019.7861	3039.421	3045.689	3079.8084	3103.7762	3113.4922	3123.0788	3142.9791
CC1C(C)C(=O)C1C=O	C[C@H]1[C@@H](C)C(=O)[C@H]1C=O	
InChI=1S/C7H10O2/c1-4-5(2)7(9)6(4)3-8/h3-6H,1-2H3	InChI=1S/C7H10O2/c1-4-5(2)7(9)6(4)3-8/h3-6H,1-2H3/t4-,5+,6-/m0/s1
