19
gdb 38868	2.69971	1.96296	1.85035	1.4329	72.48	-0.2392	0.0799	0.3191	868.0483	0.163988	-423.026563	-423.020372	-423.019428	-423.056776	26.602	
C	-0.0224987173	 1.5299773871	 0.0110564649	-0.057434
O	 1.3011840993	 2.0825386943	 0.0038197754	-0.279949
C	 2.3178167811	 1.1196820886	-0.0100544894	 0.11182
C	 2.2820976871	-0.0557249776	 1.0042559414	 0.052534
C	 0.821095742	-0.4464717413	 1.2550550309	-0.21699
C	 0.0302310142	-0.0013593368	 0.0011751181	-0.063063
C	 0.8011075234	-0.4308924984	-1.2704634843	-0.216992
C	 2.2659532487	-0.0431670444	-1.0380267476	 0.052543
O	 2.8253413577	-0.9256542934	-0.0266315332	-0.301077
H	-0.543736267	 1.899309769	 0.9050146474	 0.095206
H	-0.5579789742	 1.9103040737	-0.869771878	 0.095213
H	 3.2688481104	 1.6517747657	-0.0142800845	 0.095337
H	 2.9090011709	-0.0327500209	 1.8991899402	 0.075205
H	 0.7680340295	-1.5283170578	 1.4129960678	 0.108009
H	 0.424931874	 0.0469348816	 2.1502976001	 0.097765
H	-0.9905264113	-0.3947057296	 0.0068240152	 0.070892
H	 0.7454077924	-1.510707384	-1.4408947585	 0.108009
H	 0.3909010751	 0.0735087278	-2.1531669473	 0.097769
H	 2.878613864	-0.0091540234	-1.9424225686	 0.075204
188.9945	304.1231	384.3997	422.2116	428.4512	527.1793	595.7035	619.07	725.1608	817.4657	834.5298	845.2523	883.8868	884.5438	921.4386	938.2742	964.4945	992.4239	1028.1096	1042.2786	1066.8088	1068.2415	1096.1295	1144.6153	1162.1646	1166.8785	1203.3936	1226.7538	1252.6679	1291.8673	1307.6461	1326.267	1333.2485	1344.0388	1367.8144	1370.3381	1387.375	1421.7057	1471.0047	1482.4679	1528.5786	2996.9377	3027.9102	3035.3474	3035.4153	3064.6397	3078.0976	3080.3905	3085.8401	3087.6869	3122.1406
C1OC2C3CC1CC2O3	C1O[C@H]2[C@H]3C[C@@H]1C[C@@H]2O3	
InChI=1S/C7H10O2/c1-4-2-6-7(8-3-4)5(1)9-6/h4-7H,1-3H2	InChI=1S/C7H10O2/c1-4-2-6-7(8-3-4)5(1)9-6/h4-7H,1-3H2/t4-,5-,6+,7+
