19
gdb 60849	3.2043	1.07076	0.95603	2.2809	72.7	-0.2516	-0.0354	0.2163	1288.2813	0.155842	-460.155612	-460.145795	-460.144851	-460.190226	36.218	
C	 0.0507908918	 1.4601963437	-0.1901965077	-0.426317
C	 0.2118550615	-0.0370314729	-0.050603019	-0.059904
C	 1.5928326614	-0.6651405829	-0.0065007967	-0.326747
C	 0.7444658478	-0.6318194756	 1.2301495953	 0.346957
O	 1.1905180846	 0.2179439104	 2.2558462478	-0.465999
C	 0.1469302968	-1.9332652776	 1.7812590746	-0.014156
O	-0.4396736276	-2.7187839065	 0.7840280383	-0.430382
C	 1.241968563	-2.7191278781	 2.4825517633	 0.143747
O	 1.4865452226	-3.8611098244	 2.1710798047	-0.268576
H	 0.8056081367	 1.9929659482	 0.394527411	 0.125709
H	 0.1555640093	 1.7667980581	-1.2360564683	 0.124536
H	-0.9377428945	 1.7901657863	 0.1505000788	 0.112793
H	-0.5440796345	-0.6403738306	-0.542795465	 0.111626
H	 1.7331041367	-1.6204390805	-0.4995974506	 0.121353
H	 2.4508316725	-0.0017766019	-0.0169763074	 0.119907
H	 0.4222928634	 0.6666473745	 2.628385932	 0.286956
H	-0.5995600185	-1.6554993328	 2.549819466	 0.082484
H	 0.0117776908	-3.5779141261	 0.8373601149	 0.297293
H	 1.8072660162	-2.1843551912	 3.266660698	 0.118722
61.8632	107.6934	171.0192	178.3852	199.9349	249.3335	292.9089	324.2217	336.6774	380.4032	426.7804	478.4204	522.3129	587.9339	680.3141	780.3501	804.1082	862.155	882.2557	932.6478	945.6746	1012.7507	1044.3357	1066.348	1103.403	1133.3606	1160.7845	1188.8011	1236.1418	1249.7907	1266.5176	1319.9658	1368.3473	1381.9775	1402.3711	1418.4538	1436.5744	1481.2275	1497.9222	1505.4477	1806.103	2924.0897	2984.9143	3029.4706	3087.8413	3113.8021	3136.2441	3169.556	3228.9316	3663.3431	3782.556
CC1CC1(O)C(O)C=O	C[C@H]1C[C@]1(O)[C@@H](O)C=O	
InChI=1S/C6H10O3/c1-4-2-6(4,9)5(8)3-7/h3-5,8-9H,2H2,1H3	InChI=1S/C6H10O3/c1-4-2-6(4,9)5(8)3-7/h3-5,8-9H,2H2,1H3/t4-,5-,6+/m0/s1
