17
gdb 121725	5.02623	0.69744	0.63697	3.9913	69.57	-0.2597	-0.0062	0.2535	1710.4305	0.135041	-492.310402	-492.300518	-492.299574	-492.347118	33.592	
O	-0.0576286389	 1.4774078126	-0.2253850102	-0.416644
C	 0.0220124627	 0.0710023029	-0.1048668531	-0.070477
C	-1.3385355671	-0.5673885591	 0.104795256	-0.070699
O	-2.1063777293	-0.2812301156	-1.0808603537	-0.300139
C	-3.3944245615	-0.7267476462	-1.0547422693	 0.548067
O	-3.8965261993	-1.318700754	-0.1424551407	-0.352101
N	-3.9804522204	-0.3713816455	-2.2599535945	-0.376015
C	-5.282585259	-0.6107907637	-2.6886222579	 0.084807
N	-6.1653272152	-1.2033392751	-2.0023568214	-0.397406
H	-0.6864966682	 1.6584569938	-0.9321279586	 0.286767
H	 0.5073107	-0.3848597252	-0.9824758527	 0.095576
H	 0.6489556576	-0.1381348807	 0.7678566387	 0.119765
H	-1.261910206	-1.6510025748	 0.2408002732	 0.123478
H	-1.8472112239	-0.14092574	 0.9738136328	 0.135196
H	-3.3729937299	 0.1108683965	-2.9021387378	 0.260591
H	-5.4208181902	-0.2092059544	-3.7004696299	 0.09797
H	-7.0337005114	-1.2549178115	-2.532045811	 0.231264
25.716	65.0051	85.8245	128.1194	165.6706	203.7325	247.8055	304.2583	364.0259	407.8638	507.4025	560.7992	580.1393	773.632	795.8398	822.8079	889.5114	899.9819	977.2575	1036.075	1062.5125	1093.7683	1127.6977	1146.8958	1201.6753	1235.6792	1260.625	1266.1813	1386.4746	1393.2683	1431.2394	1434.7554	1497.2574	1500.7421	1546.4813	1741.643	1867.479	2984.5037	3036.3023	3054.8868	3084.9371	3111.0567	3504.2882	3651.4224	3813.0277
OCCOC(=O)NC=N	OCCOC(=O)NC=N	
InChI=1S/C4H8N2O3/c5-3-6-4(8)9-2-1-7/h3,7H,1-2H2,(H2,5,6,8)	InChI=1S/C4H8N2O3/c5-3-6-4(8)9-2-1-7/h3,7H,1-2H2,(H2,5,6,8)
