17
gdb 55002	2.68897	1.35647	1.15169	3.1952	70.15	-0.2401	-0.0228	0.2173	1124.2754	0.134207	-455.175192	-455.165788	-455.164844	-455.209917	33.731	
C	-0.7936766529	 0.4893987408	 0.3914384654	-0.490159
C	 0.4393561598	-0.1950625349	-0.1452404135	 0.409643
O	 1.4220604888	-0.4151934011	 0.523554317	-0.308847
C	 0.3761547005	-0.6269754244	-1.6037254604	-0.103583
C	 1.6269481958	-1.209785799	-2.1939282535	-0.26078
N	 0.479841854	-2.0469906069	-1.901165733	-0.1252
C	 0.4160520061	-3.0047427569	-0.8680965834	 0.442757
N	 1.32514819	-4.0183868556	-1.0190070017	-0.535955
O	-0.4020887597	-2.9490234461	 0.0258512759	-0.384302
H	-0.6164834246	 0.8403192229	 1.4083177333	 0.143162
H	-1.0954002273	 1.3242761617	-0.2504172095	 0.13066
H	-1.6107000474	-0.241216741	 0.3898555464	 0.17201
H	-0.3287612623	-0.0893823198	-2.2334140677	 0.100808
H	 1.8483057301	-1.0603805714	-3.2471329267	 0.122683
H	 2.4742222656	-1.2581060796	-1.515289722	 0.156918
H	 1.7704506034	-4.1539841773	-1.9112442458	 0.262417
H	 1.1595078102	-4.8389825214	-0.459499231	 0.267769
50.3813	84.8234	126.6216	156.5087	196.3208	287.2214	294.6454	371.6776	388.1502	459.931	526.6982	564.1556	577.0894	670.7487	721.0631	770.166	785.704	945.5544	961.2055	988.9298	1036.9247	1050.4828	1109.2845	1111.7693	1124.6073	1161.708	1192.2746	1286.4021	1364.9394	1379.2402	1426.0223	1462.9038	1474.3777	1490.2789	1616.5536	1799.576	1815.4646	3037.5151	3102.7198	3109.0703	3137.6341	3157.0406	3209.7443	3600.0347	3726.0129
CC(=O)C1CN1C(N)=O	CC(=O)[C@H]1CN1C(=O)N	
InChI=1S/C5H8N2O2/c1-3(8)4-2-7(4)5(6)9/h4H,2H2,1H3,(H2,6,9)	InChI=1S/C5H8N2O2/c1-3(8)4-2-7(4)5(6)9/h4H,2H2,1H3,(H2,6,9)/t4-,7?/m1/s1
