19
gdb 36073	3.54164	1.21	1.11453	0.4744	84.19	-0.2418	0.0558	0.2976	1161.9601	0.159461	-348.670186	-348.662249	-348.661305	-348.702951	31.337	
C	-0.157387255	-1.2051959164	 0.3054577901	-0.455253
C	-0.1044660844	-0.0204758356	 0.1101786843	 0.308726
C	-0.0119125043	 1.4186908919	-0.1358767699	-0.513399
C	 1.398119298	 1.9324297191	-0.1073620623	 0.389963
C	 2.3653557453	 2.2095871056	 1.0170531676	-0.106317
C	 3.4588304957	 1.3704489313	 0.3612107695	-0.225802
C	 2.6955532893	 1.6101318376	-0.9703080186	-0.107476
C	 2.843581164	 3.1357768884	-1.2239691723	-0.225534
C	 1.977338519	 3.3212122701	 0.0196019727	-0.137215
H	-0.2137836287	-2.2506553252	 0.4813647011	 0.194752
H	-0.4804586411	 1.6490099064	-1.1030734458	 0.132431
H	-0.6021438677	 1.956890471	 0.6183128518	 0.133422
H	 2.1350831939	 2.3117358585	 2.070449222	 0.08333
H	 4.4989130628	 1.7139466723	 0.4131297288	 0.084118
H	 3.3964987612	 0.3264733614	 0.6787765881	 0.106872
H	 2.7612151039	 0.8963381611	-1.7887764462	 0.073266
H	 3.8598677089	 3.547414479	-1.2304770479	 0.086934
H	 2.3146854769	 3.4522329767	-2.1275573892	 0.09599
H	 1.473673812	 4.2170151567	 0.3622104262	 0.081194
62.3556	91.4933	224.2691	269.4246	343.3864	400.6859	443.7576	487.4124	617.3112	631.6807	656.7583	711.4226	741.6722	803.1188	857.1895	893.5862	911.4762	936.5681	955.7679	973.0299	983.2475	998.6758	1016.0964	1024.3946	1077.8069	1104.764	1124.5664	1128.6398	1181.2956	1216.7585	1219.6706	1250.4259	1253.646	1300.0736	1311.6666	1333.2742	1449.2891	1459.3751	1490.9458	1508.16	2238.0637	3003.8052	3025.8622	3032.7686	3034.5267	3091.2361	3101.4349	3137.6717	3183.6173	3194.1813	3506.8577
C#CCC12C3CC1CC23	C#CC[C@@]12[C@H]3C[C@@H]1C[C@@H]23	
InChI=1S/C9H10/c1-2-3-9-6-4-7(9)8(9)5-6/h1,6-8H,3-5H2	InChI=1S/C9H10/c1-2-3-9-6-4-7(9)8(9)5-6/h1,6-8H,3-5H2/t6-,7+,8-,9+
