22
gdb 99757	1.85581	1.35824	1.05255	3.6826	79.17	-0.2366	0.0268	0.2634	1309.769	0.190873	-441.515635	-441.504102	-441.503158	-441.55257	40.502	
C	-0.1492876694	 1.4374910661	-0.2876708227	-0.24361
O	 0.1924392073	 0.0881770231	-0.0410774236	-0.231119
C	 0.6846870704	-0.6085972736	-1.1524145008	 0.036059
C	 1.215540095	-1.9753420968	-0.657637465	 0.019027
C	 2.4342371262	-1.7759685797	 0.253240887	-0.396349
C	 0.118775313	-2.7900898105	 0.043140058	-0.388603
C	-0.3982397344	-0.7974862173	-2.2388060974	 0.36746
N	 0.0984689652	-1.0582314664	-3.4849681414	-0.519078
O	-1.588656753	-0.725549251	-2.0102329488	-0.359777
H	 0.7104731738	 2.0015421377	-0.6834467394	 0.095883
H	-0.9887324561	 1.5208574308	-0.9870775091	 0.134345
H	-0.4397576887	 1.8701260567	 0.6724560806	 0.126474
H	 1.5250769551	-0.0499666951	-1.6063700857	 0.056392
H	 1.5394574766	-2.5252198665	-1.5517875944	 0.064469
H	 2.8234782521	-2.7403365212	 0.5946298881	 0.109856
H	 3.2434020374	-1.2518276476	-0.2674879867	 0.101162
H	 2.1609024723	-1.18621876	 1.1322443625	 0.135652
H	-0.7509400616	-2.9398564007	-0.6018260649	 0.131471
H	 0.5049091226	-3.7717363979	 0.3350544206	 0.102754
H	-0.2232187319	-2.272525201	 0.9427852523	 0.136669
H	 1.0818059562	-1.1654132899	-3.6625228931	 0.259235
H	-0.5515685482	-1.2872241892	-4.219214206	 0.261627
49.7995	76.5742	120.7477	143.814	171.1439	188.4614	189.6296	199.22	236.7266	282.0418	315.0375	345.5172	406.1547	461.9388	539.9061	593.0586	656.5645	708.503	852.1242	869.2466	932.5462	968.2088	973.4766	992.4739	1079.7623	1122.2074	1131.158	1170.2617	1181.3884	1210.0438	1235.5991	1270.862	1315.5445	1354.7597	1362.0804	1397.8724	1402.8926	1421.3548	1480.1022	1484.01	1485.3197	1493.3356	1500.8741	1512.6776	1513.0336	1613.6064	1798.9817	2920.0847	2978.9436	3011.1992	3033.0288	3045.6433	3067.3291	3096.5324	3114.3396	3121.266	3121.3965	3129.8936	3598.8319	3734.4183
COC(C(C)C)C(N)=O	CO[C@@H](C(C)C)C(=O)N	
InChI=1S/C6H13NO2/c1-4(2)5(9-3)6(7)8/h4-5H,1-3H3,(H2,7,8)	InChI=1S/C6H13NO2/c1-4(2)5(9-3)6(7)8/h4-5H,1-3H3,(H2,7,8)/t5-/m0/s1
