19
gdb 62738	2.46058	1.54226	1.24545	4.3539	75.88	-0.267	0.0053	0.2722	1095.9997	0.15695	-423.037915	-423.028651	-423.027706	-423.071403	34.58	
C	 0.0174246205	 1.5287185726	 0.0495868214	-0.466653
C	 0.0532713185	 0.0122907708	 0.029675017	 0.236481
C	-1.1753012415	-0.6240457474	-0.5995367238	-0.461982
C	 1.320911737	-0.7524801793	-0.1695765353	 0.006974
O	 2.4558724558	-0.0113449882	 0.3526539743	-0.265841
C	 1.9280611658	-0.1097972883	 1.6361387832	 0.424438
O	 2.4372493222	 0.2351892782	 2.6529489632	-0.332094
C	 0.6685578938	-0.8179652463	 1.1976143773	 0.052481
C	-0.0193924446	-1.8715564616	 2.0176802351	-0.501582
H	 0.9439627582	 1.9594033619	 0.4319605943	 0.149926
H	-0.1382264375	 1.9154465041	-0.9637624292	 0.120959
H	-0.8105126164	 1.8840707947	 0.672096264	 0.123543
H	-1.3451250788	-0.1945279493	-1.5923053208	 0.129094
H	-1.0714945358	-1.7061769289	-0.7195631052	 0.122874
H	-2.0707884261	-0.435469355	 0.0022054142	 0.130846
H	 1.5334196586	-1.5157395694	-0.9066596547	 0.122739
H	-0.4193883203	-1.4292105089	 2.9361197999	 0.143654
H	-0.8506679128	-2.3329207281	 1.4806463763	 0.127778
H	 0.6778603934	-2.6630710815	 2.310368599	 0.136365
121.2486	130.2447	179.2097	188.9535	213.1359	257.0142	280.2438	303.8998	354.4634	408.9994	523.1905	535.8631	641.6148	677.6753	738.1327	785.9056	857.7899	909.6084	921.9665	973.6763	976.9546	1013.242	1031.8489	1067.9895	1106.334	1140.8077	1168.23	1216.1203	1272.7341	1313.1753	1406.0574	1415.9122	1428.7676	1433.79	1481.4809	1485.4504	1490.4408	1496.5268	1505.089	1515.3214	1932.8019	3033.4007	3037.458	3042.0063	3093.634	3099.2487	3100.0251	3109.7473	3128.9501	3139.7424	3207.1213
CC1(C)C2OC(=O)C12C	CC1(C)[C@H]2OC(=O)[C@@]12C	
InChI=1S/C7H10O2/c1-6(2)4-7(6,3)5(8)9-4/h4H,1-3H3	InChI=1S/C7H10O2/c1-6(2)4-7(6,3)5(8)9-4/h4H,1-3H3/t4-,7+/m1/s1
