21
gdb 65774	2.94475	1.04756	0.96335	2.6936	78.39	-0.2485	-0.0224	0.2261	1316.4895	0.181363	-424.241554	-424.232003	-424.231059	-424.276991	34.559	
C	-0.1393882708	 1.7599454141	 0.0296478908	-0.457009
C	 0.1068787981	 0.2480659993	 0.0279654595	 0.272335
C	-1.2321963808	-0.5359188028	 0.022524301	-0.309824
C	-2.1959990856	-0.1456682902	 1.1201074891	 0.152582
O	-3.3508879126	 0.1483063327	 0.9420068381	-0.243612
C	 0.9791603235	-0.2145212207	-1.1721841355	-0.279007
C	 1.8387524617	-1.37028174	-0.602428862	-0.077676
O	 1.5160910408	-1.4780623421	 0.7844182949	-0.251599
C	 1.0027885248	-0.2242069686	 1.1936038424	-0.112952
H	 0.8068530423	 2.3104949573	 0.010802075	 0.116479
H	-0.7238280648	 2.0648850159	-0.8446563107	 0.127627
H	-0.6944867966	 2.0804691364	 0.9182686807	 0.124731
H	-1.7527435911	-0.4113790094	-0.9318054107	 0.115338
H	-1.0033763856	-1.6032881304	 0.1505640325	 0.133556
H	-1.7714459762	-0.1560100959	 2.1509497336	 0.072835
H	 0.3710269261	-0.5260154401	-2.0250682506	 0.108764
H	 1.6151029913	 0.6090834852	-1.5098687946	 0.103895
H	 1.6277513782	-2.3381703882	-1.0665590598	 0.110946
H	 2.911139316	-1.1627463802	-0.7265373956	 0.097867
H	 1.8135222343	 0.5056728537	 1.362108396	 0.084703
H	 0.4799056169	-0.3733356959	 2.142107446	 0.110022
43.0078	61.0097	98.2818	193.0223	204.7709	232.9882	300.9095	324.1245	366.4617	442.3055	503.3591	599.7074	704.5216	744.9742	816.909	845.5545	900.7464	941.0518	950.0191	976.8278	979.9874	1022.0879	1033.0191	1069.8611	1106.4996	1169.9967	1180.3658	1193.7544	1232.6454	1255.5291	1264.3584	1303.7785	1311.2592	1316.5731	1366.6645	1400.2739	1418.1384	1436.0707	1459.0128	1492.6646	1497.1612	1499.1333	1512.293	1530.7428	1828.8978	2857.1193	2955.743	2999.886	3020.2556	3028.9954	3057.1486	3073.2692	3090.4581	3091.4381	3095.2563	3101.9232	3106.2045
CC1(CC=O)CCOC1	C[C@@]1(CC=O)CCOC1	
InChI=1S/C7H12O2/c1-7(2-4-8)3-5-9-6-7/h4H,2-3,5-6H2,1H3	InChI=1S/C7H12O2/c1-7(2-4-8)3-5-9-6-7/h4H,2-3,5-6H2,1H3/t7-/m1/s1
