25
gdb 121921	3.74408	0.61134	0.5864	2.386	86.68	-0.2487	0.0679	0.3167	2040.6013	0.225679	-426.619962	-426.608013	-426.607069	-426.657851	42.302	
C	-0.1717892983	 1.3759488427	 0.05110622	-0.225677
O	-0.1375519987	-0.0256513563	-0.0457749944	-0.228493
C	 0.7197404163	-0.4855807176	-1.0699533613	-0.066938
C	 0.7005897174	-2.0092301845	-1.0573088468	-0.196934
C	 1.4360054247	-2.6734023151	-2.2345518964	 0.020792
C	 2.9246131024	-2.2908859692	-2.2804255139	-0.417573
C	 1.2275244457	-4.2068106148	-2.1742018794	 0.139953
C	 1.6559279251	-4.9452335507	-3.4435349628	-0.421752
O	 1.8347896194	-4.779243197	-1.0163062487	-0.436886
H	 0.8214212066	 1.7970528513	 0.2775424644	 0.099955
H	-0.5342076862	 1.8437748306	-0.8789327445	 0.099499
H	-0.8560940765	 1.6332306558	 0.8635967456	 0.124939
H	 0.3809985017	-0.1031379396	-2.050543058	 0.077307
H	 1.7380164027	-0.0940955499	-0.9093398478	 0.082724
H	 1.1226447733	-2.3719878368	-0.1140388913	 0.117085
H	-0.3508163202	-2.3214174947	-1.0668304945	 0.101492
H	 0.9664844134	-2.3314113019	-3.1687689012	 0.066967
H	 3.449675886	-2.7853330958	-3.1036116234	 0.111901
H	 3.0572715386	-1.2149597132	-2.4210234242	 0.121783
H	 3.4268357073	-2.5596791221	-1.3438936396	 0.11536
H	 0.1547237812	-4.3826891786	-2.0257679834	 0.084948
H	 2.7311968265	-4.8422795726	-3.6301968027	 0.109886
H	 1.4343448226	-6.0114615776	-3.345285755	 0.124749
H	 1.1278863344	-4.5612213746	-4.3224484822	 0.115952
H	 2.7855849548	-4.805675948	-1.1662375785	 0.278964
55.717	60.7482	89.0484	113.7592	126.5984	215.5536	227.7959	233.7593	242.9906	290.9899	295.0133	304.6332	326.3564	436.5889	458.1622	540.6534	613.0995	777.7743	801.3195	889.6126	938.0052	964.5933	982.0761	1018.7871	1032.9663	1050.3493	1090.9957	1114.4485	1157.794	1170.1267	1174.0965	1195.3327	1225.8549	1246.8351	1280.2007	1303.2333	1313.0581	1342.7266	1363.992	1383.2804	1407.2236	1411.7702	1426.3714	1429.4654	1480.7489	1484.5018	1489.6853	1492.1248	1496.2058	1504.6474	1508.129	1512.2284	1533.2085	2933.469	2962.9433	2973.5806	2996.8951	3003.7088	3028.2358	3031.1231	3035.3334	3038.0688	3085.9024	3095.9321	3101.1539	3109.8333	3110.7144	3116.6201	3812.7911
COCCC(C)C(C)O	COCC[C@@H](C)[C@@H](C)O	
InChI=1S/C7H16O2/c1-6(7(2)8)4-5-9-3/h6-8H,4-5H2,1-3H3	InChI=1S/C7H16O2/c1-6(7(2)8)4-5-9-3/h6-8H,4-5H2,1-3H3/t6-,7-/m1/s1
