18
gdb 20110	5.60731	1.17444	1.14389	2.5041	74.65	-0.242	-0.0127	0.2294	1115.6475	0.153987	-347.804454	-347.796549	-347.795604	-347.837473	29.23	
O	 0.0026996527	-0.041168768	-0.0036188293	-0.367658
C	-0.0138725405	 1.1784655752	 0.003622428	 0.394486
C	 1.2478802202	 1.972312403	 0.038523504	-0.113817
C	 2.4216237054	 1.3796399887	 0.8082028661	-0.247465
C	 2.4577691579	 1.3877233625	-0.6794712503	-0.247467
C	-1.296707366	 1.9381048631	-0.0228561745	-0.113816
C	-2.4541083809	 1.3222290561	-0.7989961598	-0.24745
C	-2.4901478892	 1.3131140071	 0.6886703576	-0.247482
H	 1.14507648	 3.0513194613	 0.0419908071	 0.085547
H	 3.0519088513	 2.0712259543	 1.3552421647	 0.116374
H	 2.2245321552	 0.432511845	 1.2967774813	 0.138509
H	 2.2848124273	 0.4459394435	-1.1871712878	 0.138532
H	 3.1138412127	 2.084785534	-1.1878810603	 0.116371
H	-1.2232276495	 3.0194772924	-0.0145119451	 0.085548
H	-3.1030530357	 2.0023941991	-1.3384869312	 0.116374
H	-2.2315235373	 0.3861733305	-1.2978504635	 0.138524
H	-2.2915850407	 0.3709027785	 1.1861075576	 0.138518
H	-3.1647629429	 1.9865399735	 1.2046128454	 0.116373
54.9878	67.6389	184.4466	242.4289	293.9595	300.0132	350.677	641.1012	749.2288	763.8493	796.7974	820.2521	825.5413	830.1373	861.0025	868.9979	941.0096	949.2381	1048.143	1068.5428	1091.3694	1094.2205	1096.4764	1105.6157	1122.6369	1129.2791	1133.2358	1209.6514	1211.9693	1214.9459	1232.6562	1374.5035	1425.5256	1451.1064	1451.1985	1482.2422	1484.3696	1758.4485	3141.1168	3141.326	3142.5733	3143.0523	3170.2864	3180.5121	3229.2488	3229.3907	3243.6034	3244.0766
O=C(C1CC1)C1CC1	O=C(C1CC1)C1CC1	
InChI=1S/C7H10O/c8-7(5-1-2-5)6-3-4-6/h5-6H,1-4H2	InChI=1S/C7H10O/c8-7(5-1-2-5)6-3-4-6/h5-6H,1-4H2
