20
gdb 105969	4.27322	1.12393	1.11287	1.9626	82.61	-0.2051	0.0737	0.2788	1220.7118	0.169578	-365.903628	-365.89511	-365.894166	-365.936618	32.86	
C	 0.0808667549	 1.510965279	-0.220761965	-0.373403
C	-0.0246712654	 0.0154630618	 0.1107286056	-0.330201
C	-1.4312377179	-0.4903849569	 0.1089888891	 0.377672
C	-2.3678251293	-0.8673304276	-1.0131948802	-0.067963
C	-1.9703131738	-1.9249072248	-0.0134031918	-0.257616
C	-3.218318638	-1.5116322752	 0.817056195	 0.369364
C	-4.2124909585	-2.2885469987	 1.6086912039	-0.523221
C	-2.6970537527	-0.1222367992	 0.9360071285	-0.188708
N	-3.6097098143	-0.4807853289	-0.2141393685	-0.218833
H	 1.1227336045	 1.8448694722	-0.2026621081	 0.111818
H	-0.3283410975	 1.7223213848	-1.2135622663	 0.122113
H	-0.4761166136	 2.1155610483	 0.5026386284	 0.120244
H	 0.5565667291	-0.567234143	-0.6160749849	 0.102475
H	 0.4350632868	-0.1782064883	 1.0895757221	 0.102376
H	-2.2843279866	-0.8126818763	-2.0921184662	 0.093661
H	-1.4217814325	-2.849706668	-0.1305263951	 0.09059
H	-3.7475930733	-2.7492008098	 2.4876412729	 0.121087
H	-5.015331964	-1.6275979667	 1.9502539965	 0.133907
H	-4.6627013501	-3.0837095617	 1.0038546743	 0.126988
H	-2.9324245378	 0.6805391291	 1.6267632198	 0.08765
83.6239	130.4921	178.628	205.8047	246.4738	274.1585	332.8974	391.6713	567.9365	626.7929	670.0482	745.12	769.3535	777.1408	821.3171	846.1911	873.7536	895.9072	911.4386	963.6365	987.1182	988.4768	997.3575	1022.513	1063.534	1085.9609	1098.2053	1135.0757	1153.773	1190.6194	1256.1249	1263.7443	1318.6073	1352.5226	1393.7741	1409.0729	1436.7177	1444.293	1475.412	1477.5766	1491.2734	1498.0507	1506.6761	3009.4227	3026.2898	3036.3416	3042.4026	3089.5282	3105.089	3106.9483	3110.6444	3164.31	3178.3548	3207.8594
CCC12C3C1C1(C)C2N31	CC[C@@]12[C@H]3[C@@H]1[C@@]1(C)[C@@H]2N31	
InChI=1S/C8H11N/c1-3-8-4-5(8)9-6(8)7(4,9)2/h4-6H,3H2,1-2H3	InChI=1S/C8H11N/c1-3-8-4-5(8)9-6(8)7(4,9)2/h4-6H,3H2,1-2H3/t4-,5-,6+,7+,8+,9?/m1/s1
