19
gdb 107257	2.81704	1.53146	1.15867	2.1644	75.13	-0.2104	0.0705	0.2809	1108.0129	0.156588	-422.936196	-422.927435	-422.926491	-422.969519	33.451	
C	-1.3411423594	 1.6877623775	 1.8593125145	-0.256963
O	-0.0747271185	 1.3414477589	 1.3402254615	-0.27957
C	 0.5414004312	 0.2480154566	 1.9107712948	 0.376468
C	-0.0705478609	-1.0111077941	 2.4388521867	-0.360966
C	 0.826774002	-0.1720744507	 3.3502236151	-0.201109
C	 2.3259131078	-0.3329077821	 2.9572422139	-0.048818
O	 2.4437121259	-1.2818455995	 1.8787818356	-0.285787
C	 2.0685226657	 0.0722570813	 1.5792826751	 0.355146
C	 2.8234234838	 0.8484527607	 0.5542937436	-0.507197
H	-1.3008255846	 1.8570253859	 2.9449328	 0.112922
H	-1.6390720175	 2.6153685956	 1.3661639478	 0.132104
H	-2.0946326271	 0.916434435	 1.6494679398	 0.118292
H	-1.1209522007	-0.9365129195	 2.7029237065	 0.110418
H	 0.2461510273	-1.9871664433	 2.0909434918	 0.134875
H	 0.4844546866	 0.2256534378	 4.2957233951	 0.094463
H	 3.1895922543	-0.1956988453	 3.5975374601	 0.104285
H	 2.5710435543	 0.5075096856	-0.4558791666	 0.133402
H	 2.5690076007	 1.9096963221	 0.6219524437	 0.138018
H	 3.899506749	 0.7248870375	 0.7015340111	 0.130016
62.4207	161.8347	180.0667	193.8602	229.7668	298.3815	352.7445	416.4009	434.3024	489.8984	549.5509	631.0299	652.686	761.0872	787.4997	840.4982	871.3761	912.	930.4646	974.5916	989.1115	1012.8989	1057.6734	1079.2792	1097.8629	1107.8417	1158.8724	1178.9624	1204.1468	1230.8322	1253.1143	1279.9913	1355.2063	1401.1974	1460.1042	1471.8387	1483.8078	1489.0043	1491.5413	1504.7174	1509.4891	2992.5477	3039.123	3047.1982	3104.7524	3123.6995	3128.5611	3135.8786	3182.6354	3208.633	3223.1141
COC12CC1C1OC21C	CO[C@]12C[C@H]1[C@H]1O[C@@]21C	
InChI=1S/C7H10O2/c1-6-5(9-6)4-3-7(4,6)8-2/h4-5H,3H2,1-2H3	InChI=1S/C7H10O2/c1-6-5(9-6)4-3-7(4,6)8-2/h4-5H,3H2,1-2H3/t4-,5+,6+,7+/m0/s1
