17
gdb 16935	3.57182	2.15089	1.91368	2.2925	66.37	-0.2169	-0.0141	0.2028	769.9213	0.145831	-363.879261	-363.873146	-363.872201	-363.909361	24.895	
O	 0.0044681088	 0.0026425301	 0.0272422664	-0.326878
C	-0.0033608797	 1.2049318524	 0.0108709903	 0.415542
C	-1.2378869801	 2.1378188028	 0.0069047248	-0.291599
N	-0.6777819996	 3.5073049307	 0.0537549605	-0.0904
C	-0.0723563035	 3.6972014665	 1.3980875458	-0.169317
C	 1.2041976418	 2.7867499437	 1.4295057873	-0.238123
C	 1.1787919422	 2.1737848937	 0.0013323604	-0.125439
C	 0.5385081354	 3.3440958995	-0.7850327273	-0.197493
H	-1.8030180727	 1.9961097358	-0.9217758205	 0.13221
H	-1.9120336033	 1.9343470611	 0.8424433441	 0.130623
H	 0.1907327741	 4.7517205945	 1.5161581259	 0.110726
H	-0.7999392974	 3.4471665862	 2.1732859077	 0.110817
H	 2.1174143738	 3.370741592	 1.5759153768	 0.109262
H	 1.1690110205	 2.0250981193	 2.2121334878	 0.1199
H	 2.1147934659	 1.7380948814	-0.3430744106	 0.08677
H	 0.2702314139	 3.0987095861	-1.8163536176	 0.112894
H	 1.1419549198	 4.2559584541	-0.7802064519	 0.110504
127.162	234.637	422.8888	432.95	469.952	551.6101	582.3287	701.509	761.6443	804.8974	823.1158	847.8882	888.1207	924.6574	947.726	966.5198	996.622	1011.0817	1040.4419	1075.0619	1113.1221	1172.1473	1186.0956	1212.8276	1265.71	1271.4487	1271.9171	1295.1959	1302.9136	1318.8114	1348.5241	1457.1889	1496.0692	1502.1212	1521.5555	1859.4981	3044.2305	3055.9748	3058.1652	3067.1762	3099.196	3108.4211	3111.8655	3120.0332	3141.5578
O=C1CN2CCC1C2	O=C1CN2CC[C@@H]1C2	
InChI=1S/C6H9NO/c8-6-4-7-2-1-5(6)3-7/h5H,1-4H2	InChI=1S/C6H9NO/c8-6-4-7-2-1-5(6)3-7/h5H,1-4H2/t5-/m1/s1
