18
gdb 72050	2.4263	1.70025	1.29847	2.1122	84.88	-0.2278	0.0203	0.2481	1046.9702	0.147192	-364.709672	-364.701645	-364.700701	-364.74186	31.698	
C	-0.1212646063	 1.4502362739	 0.0000770771	-0.503995
C	 0.0537074338	-0.0373444078	 0.0024120618	 0.255836
C	 0.9347355413	-0.9075472735	-0.8802108467	-0.2256
N	 0.1045154598	-2.1187988807	-0.5083894492	-0.208443
C	 0.4206831711	-2.2476302083	 0.968682591	-0.184029
C	-0.2729393559	-0.921281765	 1.2146561144	-0.181968
C	-1.0164216298	-1.1131988938	-0.0962919501	 0.311825
C	-2.3706337867	-1.1236155334	-0.4744848516	 0.013456
C	-3.5296473447	-1.1218283323	-0.8035549075	-0.370843
H	 0.7480250056	 1.951635883	 0.4407012061	 0.125415
H	-0.2483123704	 1.8297644381	-1.019420001	 0.128651
H	-1.0041867066	 1.7449383394	 0.5763039388	 0.130174
H	 0.8018872217	-0.6890379174	-1.9433996849	 0.112759
H	 2.0027334766	-1.0042160866	-0.6520171226	 0.096256
H	-0.1284276693	-3.0960941133	 1.3840771736	 0.117238
H	 1.4882567643	-2.349118326	 1.1935574419	 0.099403
H	-0.6701357983	-0.4987181724	 2.1293883859	 0.101929
H	-4.5505452963	-1.126775054	-1.094534427	 0.181936
113.1708	147.5732	197.6072	251.7558	289.1537	405.6811	431.7869	507.0941	548.5525	555.0056	583.7279	618.4579	680.7504	723.4384	809.4491	845.3918	895.8108	899.8472	931.7562	953.6007	990.0604	998.2029	1052.3881	1091.7665	1127.599	1158.7605	1185.0729	1220.4938	1231.0619	1253.024	1296.4384	1334.2932	1414.0416	1443.433	1485.2333	1498.1295	1501.8007	1523.6292	2225.1533	3027.2225	3030.5432	3041.7449	3089.8388	3096.7879	3101.3594	3105.6011	3193.9131	3502.6735
CC12CN3CC1C23C#C	C[C@@]12CN3C[C@@H]1[C@@]23C#C	
InChI=1S/C8H9N/c1-3-8-6-4-9(8)5-7(6,8)2/h1,6H,4-5H2,2H3	InChI=1S/C8H9N/c1-3-8-6-4-9(8)5-7(6,8)2/h1,6H,4-5H2,2H3/t6-,7+,8-/m0/s1
