21
gdb 114870	2.66943	1.4505	1.34096	0.477	77.53	-0.2516	0.0808	0.3324	1095.5073	0.183887	-424.223971	-424.215624	-424.214679	-424.257163	31.986	
C	 0.656123252	 1.0960547979	-0.2598802346	-0.24275
O	 0.6506656324	-0.3056824369	-0.0620347047	-0.24121
C	 0.5352680211	-0.6815516958	 1.290373243	 0.201653
C	 0.4756693529	-2.2124101151	 1.3587821648	-0.261509
C	 1.9446782996	-2.6191079561	 1.5084556523	-0.03588
C	 2.844672583	-2.5661546592	 0.2353895446	-0.229166
C	 3.6055674974	-1.3417708887	 0.8237604827	-0.233166
C	 2.6400114755	-1.3292818521	 2.0407570906	 0.115033
O	 1.6570425854	-0.2961861659	 2.0595150525	-0.266977
H	 1.5071490738	 1.5721309983	 0.241057484	 0.12452
H	 0.7241916257	 1.2685080755	-1.3362952882	 0.123461
H	-0.2715430587	 1.5540134647	 0.1167340637	 0.104144
H	-0.3297755945	-0.1708808717	 1.7378980312	 0.068718
H	-0.0986467857	-2.5101868135	 2.2411148995	 0.104487
H	-0.0095287459	-2.6254412348	 0.4721774457	 0.115633
H	 2.0718511364	-3.5170056486	 2.1148460741	 0.067834
H	 3.456723636	-3.4562564298	 0.0736913	 0.093744
H	 2.2926587648	-2.3471842946	-0.6797231274	 0.114642
H	 4.6413410439	-1.5540264145	 1.1023352032	 0.095039
H	 3.5827848273	-0.4296874348	 0.2254860579	 0.109054
H	 3.1079973877	-1.3446147341	 3.0280215449	 0.072696
83.4871	100.1468	147.5077	193.8817	264.0693	354.2015	376.4545	416.162	548.4922	626.136	729.827	743.4507	778.3733	822.4224	849.2381	892.4299	910.9227	958.8384	970.2383	988.0319	1003.7544	1045.7438	1074.4465	1105.4562	1128.66	1140.2383	1182.6108	1202.5717	1207.3809	1216.4124	1238.6387	1260.5144	1275.9143	1280.3698	1306.0325	1334.6218	1352.9618	1386.1401	1399.7524	1462.828	1476.2317	1476.7519	1484.5983	1487.1832	1514.9463	2987.4569	3003.764	3060.8925	3061.2499	3062.3465	3070.7401	3076.1325	3097.1305	3118.7666	3121.2423	3122.5738	3135.8475
COC1CC2CCC2O1	CO[C@H]1C[C@H]2CC[C@H]2O1	
InChI=1S/C7H12O2/c1-8-7-4-5-2-3-6(5)9-7/h5-7H,2-4H2,1H3	InChI=1S/C7H12O2/c1-8-7-4-5-2-3-6(5)9-7/h5-7H,2-4H2,1H3/t5-,6-,7-/m1/s1
