20
gdb 69723	3.54454	1.62883	1.42045	1.4566	82.01	-0.2192	0.0923	0.3115	989.3921	0.173332	-365.931242	-365.924305	-365.923361	-365.962053	29.424	
C	 0.0057253158	 1.4936712374	 0.0129747298	-0.488195
C	-0.007005686	-0.0137356858	 0.0063345762	 0.351526
C	-0.8911706418	-0.8214041816	 0.9260588148	-0.352919
C	 0.6117691171	-0.8834829983	 1.0853188148	-0.101169
C	 1.3525220305	-1.8858158253	 0.2265220546	 0.01776
C	 0.5083948016	-2.2935639414	-1.0113605578	-0.093942
C	 1.8235138269	-2.3135020497	-1.7935696444	-0.188077
N	 2.0146401149	-1.0686929578	-0.9307513677	-0.164151
C	 0.5105041196	-0.7553213304	-1.2170359971	-0.045104
H	 0.9784840838	 1.8745863134	-0.316087768	 0.133327
H	-0.7611088359	 1.9052049192	-0.6542530319	 0.115106
H	-0.1866690643	 1.8862024334	 1.0164894313	 0.11441
H	-1.429100147	-0.2615121146	 1.685051092	 0.109011
H	-1.4313730969	-1.6858192982	 0.5548356712	 0.111336
H	 1.0868131544	-0.463626503	 1.9639528639	 0.091557
H	 2.0136349047	-2.6123490691	 0.7027233546	 0.070014
H	-0.3368367361	-2.990019498	-1.0642050795	 0.0612
H	 2.5398172129	-3.1116281746	-1.5769132831	 0.096529
H	 1.7886227728	-2.1037207563	-2.8667048638	 0.096088
H	 0.3178306831	-0.3316353493	-2.20533261	 0.065694
191.3591	205.949	254.7549	336.0345	400.6494	472.7146	514.4519	569.361	675.8638	734.9499	775.5661	813.0203	834.8438	863.4202	886.9773	900.9179	932.1859	961.2857	964.6077	979.0669	1015.9621	1045.2621	1052.4198	1073.9824	1088.9399	1105.439	1116.8946	1126.8968	1138.035	1182.6424	1222.9062	1233.8121	1253.9331	1263.0351	1283.5478	1328.3239	1341.855	1404.2221	1420.8246	1489.2077	1497.3163	1501.8179	1531.723	3022.7622	3023.8759	3047.0786	3084.6684	3092.5309	3101.2183	3101.8273	3104.6138	3126.6126	3183.5025	3208.3379
CC12CC1C1C3CN1C23	C[C@]12C[C@H]1[C@H]1[C@@H]3CN1[C@H]23	
InChI=1S/C8H11N/c1-8-2-5(8)6-4-3-9(6)7(4)8/h4-7H,2-3H2,1H3	InChI=1S/C8H11N/c1-8-2-5(8)6-4-3-9(6)7(4)8/h4-7H,2-3H2,1H3/t4-,5-,6+,7-,8-/m0/s1
