16
gdb 55269	3.41459	1.19181	0.96233	3.6312	66.4	-0.222	0.0344	0.2564	1186.315	0.126141	-471.265621	-471.257086	-471.256142	-471.299545	31.447	
N	 0.3853008655	 0.1607313075	 0.9207903348	-0.516258
C	-0.1610069551	 0.1914373375	-0.3187929504	 0.382644
O	 0.3017124103	 0.802012446	-1.2654681408	-0.374106
C	-1.4856320654	-0.5844516774	-0.4321701222	-0.093225
C	-1.6313252433	-1.2853654393	-1.8067592214	-0.119433
O	-1.7012315642	-2.6904345393	-1.4665550623	-0.250831
C	-1.7043894472	-2.7433983097	-0.1134174273	 0.485306
N	-1.8614060365	-4.0006537443	 0.3908416637	-0.574801
N	-1.6089222275	-1.6582329049	 0.5590271294	-0.380425
H	 1.2740342882	 0.6073436436	 1.0732195911	 0.257295
H	 0.0089303825	-0.4857669149	 1.5963260289	 0.270253
H	-2.2775323999	 0.1615027524	-0.2869435878	 0.111821
H	-2.5504023004	-1.0196750894	-2.3341029698	 0.119463
H	-0.7728147433	-1.1096926112	-2.4566605446	 0.145126
H	-1.5927853373	-4.7559460973	-0.2192248573	 0.268165
H	-1.6062976463	-4.1073464793	 1.3590700659	 0.269004
55.5927	59.8349	169.9909	244.4672	320.948	356.5882	365.5319	418.6961	493.3162	498.9739	508.9792	622.4508	696.0717	717.4269	740.5628	811.0732	825.8123	939.3274	1012.9992	1020.5253	1052.549	1073.7588	1110.1527	1175.3086	1208.2449	1268.123	1312.6146	1343.0882	1371.8749	1441.803	1529.5785	1589.7763	1618.8867	1744.5127	1796.4023	3020.9701	3073.1301	3133.3306	3580.9813	3601.8925	3718.6321	3724.86
NC(=O)C1COC(N)=N1	NC(=O)[C@H]1COC(=N1)N	
InChI=1S/C4H7N3O2/c5-3(8)2-1-9-4(6)7-2/h2H,1H2,(H2,5,8)(H2,6,7)	InChI=1S/C4H7N3O2/c5-3(8)2-1-9-4(6)7-2/h2H,1H2,(H2,5,8)(H2,6,7)/t2-/m1/s1
