12
gdb 7901	3.50105	2.02782	1.38154	4.8886	52.07	-0.2852	-0.0748	0.2104	838.1683	0.083397	-455.685508	-455.678706	-455.677762	-455.716876	24.234	
C	-0.0020561575	 1.5304336884	 0.0110268774	-0.4012
C	 0.0473576685	 0.0212741435	 0.0043355574	 0.221747
O	 0.7504149262	-0.4612249729	-1.1433710443	-0.220716
C	 1.7920690908	-1.2391550021	-0.7596598959	 0.316692
O	 2.5479905903	-1.7858254022	-1.4969735546	-0.294771
C	 1.7842985545	-1.2462087896	 0.7743378626	 0.316687
O	 2.5327403214	-1.7996802241	 1.514205152	-0.294771
O	 0.7387828537	-0.4717936996	 1.1546263173	-0.220717
H	 1.0112872994	 1.9397420267	 0.0183239088	 0.146219
H	-0.5265528548	 1.8834440778	-0.8801418127	 0.150562
H	-0.5360479322	 1.8752624479	 0.8997579593	 0.150556
H	-0.9522332303	-0.4264180537	-0.0027712874	 0.129712
99.7539	133.9698	235.2235	333.229	337.4056	456.6248	485.1027	608.7058	629.3089	723.7476	759.5549	815.7429	931.161	954.6927	1016.5094	1124.6837	1146.2974	1148.2841	1279.8893	1375.4741	1393.8978	1418.5915	1483.2857	1483.6149	1895.5551	1933.2948	3056.3939	3061.5395	3142.6504	3142.9139
CC1OC(=O)C(=O)O1	CC1OC(=O)C(=O)O1	
InChI=1S/C4H4O4/c1-2-7-3(5)4(6)8-2/h2H,1H3	InChI=1S/C4H4O4/c1-2-7-3(5)4(6)8-2/h2H,1H3
