18
gdb 37135	3.74302	1.59265	1.51576	1.8242	73.61	-0.2123	0.051	0.2634	927.4872	0.149746	-401.846575	-401.839922	-401.838978	-401.877133	27.939	
C	 0.0394673292	 1.4529478125	-0.0385028404	-0.248246
C	 1.2791738509	 0.6558357707	-0.0187827142	-0.088402
N	-0.0836746187	-0.0138642333	 0.0419216284	-0.177364
C	 0.2499419865	-0.6212141186	-1.314739184	 0.23616
C	 0.658835674	 0.2533655058	-2.4616814897	-0.388274
C	 1.6480315398	-0.0158698666	-1.3579727524	 0.174865
C	 2.577826115	-1.1993604828	-1.4853918166	-0.150569
O	 1.7580168211	-2.2813728538	-1.9555301408	-0.259888
C	 0.4359158568	-2.1137822515	-1.4226019604	-0.141957
H	-0.245098674	 1.9266672299	 0.8970409519	 0.1284
H	-0.2910575141	 1.9933104852	-0.9180535769	 0.123093
H	 1.9456710458	 0.6371357046	 0.8376660476	 0.101585
H	 0.8521442863	-0.3009513205	-3.3744413224	 0.140575
H	 0.2476083942	 1.2403964343	-2.6306368623	 0.122384
H	 3.388958986	-1.0898987275	-2.2115222565	 0.112585
H	 3.02023746	-1.4297566059	-0.5027487636	 0.095519
H	 0.3375010633	-2.554192036	-0.4194200234	 0.107835
H	-0.2429135222	-2.6309721266	-2.1071835344	 0.111698
211.6053	221.0521	308.5818	320.4904	452.0226	486.6109	515.3333	619.6722	654.3282	712.0102	722.1871	817.0793	836.3159	867.5793	914.0531	933.9405	948.0945	974.1274	999.4738	1019.983	1042.6309	1054.544	1075.2308	1111.9161	1127.938	1161.2219	1208.1302	1220.761	1227.4303	1240.3176	1262.4421	1333.0172	1354.1617	1375.79	1387.9773	1466.269	1505.9481	1516.063	1518.8861	2977.5032	3002.9262	3076.5975	3081.7436	3126.0029	3144.9513	3159.9361	3209.1222	3226.8462
C1C2N1C13CC21COC3	C1[C@H]2N1[C@@]13C[C@@]21COC3	
InChI=1S/C7H9NO/c1-5-6-2-7(6,8(1)5)4-9-3-6/h5H,1-4H2	InChI=1S/C7H9NO/c1-5-6-2-7(6,8(1)5)4-9-3-6/h5H,1-4H2/t5-,6-,7-,8?/m1/s1
