16
gdb 62590	3.09061	1.65807	1.39446	5.2985	67.79	-0.2451	0.005	0.25	946.9218	0.122918	-437.842436	-437.834753	-437.833809	-437.874172	30.092	
C	-0.1791858088	 1.4705302341	 0.0574303813	-0.461317
C	 0.0582123826	-0.0342151445	 0.0439992446	 0.4298
O	-1.1377916436	-0.7582251786	 0.1922060587	-0.467788
C	 0.8970560902	-0.5006023617	-1.1504631308	-0.089242
C	 2.1458799512	-0.4077992063	-0.3844255872	-0.048126
C	 1.279890589	-0.4929891815	 0.9257208549	-0.306907
C	 1.3033092702	-1.9835301805	 0.623257656	 0.462276
O	 1.2935289152	-2.9981541775	 1.23928783	-0.315142
N	 1.619167341	-1.773432383	-0.7974147054	-0.20828
H	 0.7511854073	 2.0291431119	-0.0749356378	 0.131029
H	-0.8716254204	 1.7470280536	-0.7438093265	 0.13513
H	-0.6226984983	 1.779045553	 1.0114955839	 0.117647
H	-1.627396062	-0.4094107733	 0.9449346557	 0.285405
H	 0.7025621564	-0.3450360359	-2.2043170712	 0.113677
H	 3.1549197621	-0.0913397502	-0.597104262	 0.127691
H	 1.4746297479	-0.0785174496	 1.9116022459	 0.094148
131.7638	195.0163	244.2669	252.8953	263.9818	364.4918	403.1789	474.4619	559.0349	622.5222	647.2801	731.1095	799.213	821.6406	852.0435	870.8203	894.772	912.3137	965.3614	990.4893	1023.9766	1059.3183	1074.9336	1134.6533	1151.1309	1161.7654	1194.0394	1213.8248	1241.7926	1325.9905	1385.1156	1410.0065	1488.9263	1495.0431	1932.3137	3030.6483	3097.4648	3121.6962	3157.6423	3198.5539	3249.3722	3809.8405
CC1(O)C2C3C1C(=O)N23	C[C@@]1(O)[C@H]2[C@H]3[C@@H]1C(=O)N23	
InChI=1S/C6H7NO2/c1-6(9)2-3-4(6)7(3)5(2)8/h2-4,9H,1H3	InChI=1S/C6H7NO2/c1-6(9)2-3-4(6)7(3)5(2)8/h2-4,9H,1H3/t2-,3-,4-,6+,7?/m1/s1
