18
gdb 80144	2.37304	1.71024	1.52105	2.7104	71.96	-0.2339	0.0084	0.2422	979.6002	0.148383	-439.075797	-439.067695	-439.066751	-439.107904	31.486	
C	 0.0935244878	 1.5518400549	-0.1339934212	-0.471714
C	 0.0081429584	 0.0498928819	 0.0301967485	 0.188429
C	-1.3397341093	-0.5417462997	-0.3322237913	-0.151003
O	-1.4666436102	-1.9398716425	 0.0079391549	-0.252575
C	-0.9505280929	-2.2976753819	 1.2277491031	 0.074715
N	-0.0095237484	-1.735095774	 1.8534777738	-0.217277
C	 0.6478770809	-0.6305517916	 1.2398874787	-0.091838
C	 1.2332966045	-0.7973832586	-0.1733324015	 0.088943
O	 1.2485544691	-2.009376292	-0.8488551856	-0.426164
H	 1.0798936372	 1.9193889543	 0.1633520396	 0.126761
H	-0.069803039	 1.8508108413	-1.1764322052	 0.123354
H	-0.6521926488	 2.0640466229	 0.4855643993	 0.122676
H	-2.134167359	 0.010956335	 0.1869204555	 0.120022
H	-1.534070374	-0.4909381414	-1.4079004063	 0.126816
H	-1.4483344428	-3.1835521878	 1.6131867084	 0.132134
H	 1.2156040474	-0.0232418416	 1.9379971486	 0.094017
H	 2.163799068	-0.2671103156	-0.3542772744	 0.109193
H	 0.3558365114	-2.3732478735	-0.8677822249	 0.303511
158.6645	194.0085	197.2606	225.8395	258.2173	296.7196	397.7118	453.223	467.0289	508.9397	550.7681	668.9951	717.8186	801.7951	830.0506	889.6268	921.1123	934.0162	977.3355	1010.2121	1026.2635	1082.5237	1103.805	1116.9933	1139.3095	1166.6451	1230.3671	1279.7483	1326.2813	1341.5691	1356.5268	1396.937	1415.3588	1420.4899	1470.7701	1490.1815	1496.9313	1513.2093	1721.7624	3014.9116	3021.8292	3078.8416	3081.05	3104.8425	3147.7631	3157.5914	3177.7096	3792.9538
CC12COC=NC1C2O	C[C@]12COC=N[C@H]1[C@H]2O	
InChI=1S/C6H9NO2/c1-6-2-9-3-7-4(6)5(6)8/h3-5,8H,2H2,1H3	InChI=1S/C6H9NO2/c1-6-2-9-3-7-4(6)5(6)8/h3-5,8H,2H2,1H3/t4-,5+,6-/m0/s1
