16
gdb 85203	2.70908	1.1901	0.91745	6.9041	69.88	-0.2569	-0.0354	0.2215	1239.8024	0.122515	-437.899835	-437.890886	-437.889942	-437.934497	31.848	
O	-0.0278446363	 1.4150106862	-0.1378647474	-0.425741
C	 0.0437397718	 0.0166829971	 0.0442547659	 0.068962
C	 0.2290397478	-0.4035989868	 1.5364432055	-0.36863
C	-1.300815796	-0.5623700771	 1.6046996421	 0.396502
O	-2.1042829969	-0.5634290245	 2.4866873997	-0.274787
C	-1.4096398365	-0.5505978891	 0.0652928455	-0.108719
C	-2.5253406053	 0.2614471193	-0.6017238959	-0.353363
C	-3.8175091395	-0.4176402718	-0.5456433438	 0.265575
N	-4.8331323867	-0.9677396618	-0.5224664815	-0.305432
H	 0.8455215852	 1.7905101134	 0.0115933286	 0.295346
H	 0.7231362771	-0.4525067068	-0.6758533117	 0.081977
H	 0.7418335718	-1.3634685621	 1.6567745062	 0.136442
H	 0.6755679725	 0.333940331	 2.2074380842	 0.131921
H	-1.4116109717	-1.5835438044	-0.2997490417	 0.127419
H	-2.6080957943	 1.2421752724	-0.1260157832	 0.17164
H	-2.2727173429	 0.442404345	-1.6522853326	 0.160885
49.5684	68.8633	116.388	194.4757	225.282	284.1517	379.6697	386.8335	419.6179	497.4057	511.402	552.0867	717.5622	754.5823	849.6845	881.1147	908.0033	955.6275	987.5678	1049.0557	1061.1375	1115.1437	1122.1729	1191.4311	1200.0175	1212.6395	1255.9896	1298.4375	1325.1428	1359.957	1410.1429	1430.6508	1459.8579	1904.9374	2365.9429	3039.9729	3057.0237	3057.9272	3065.3527	3107.7283	3123.8047	3823.4703
OC1CC(=O)C1CC#N	O[C@H]1CC(=O)[C@H]1CC#N	
InChI=1S/C6H7NO2/c7-2-1-4-5(8)3-6(4)9/h4-5,8H,1,3H2	InChI=1S/C6H7NO2/c7-2-1-4-5(8)3-6(4)9/h4-5,8H,1,3H2/t4-,5-/m0/s1
