18
gdb 7633	4.17027	1.31201	1.26937	4.1042	67.75	-0.2731	0.0123	0.2853	1042.9355	0.152804	-384.980069	-384.971717	-384.970773	-385.013097	30.557	
C	 0.0274130093	 1.6231273858	-0.0960338329	-0.392389
C	 0.0265596543	 0.0978569701	 0.0914621269	 0.00871
C	-1.3627210753	-0.4012451537	 0.5122563483	-0.40586
C	 0.5602126973	-0.5772778329	-1.1686673492	 0.149984
C	 0.5382440565	-2.1115012849	-1.3142399299	-0.453843
C	-0.4121002842	-1.8275334563	-2.4773617639	 0.454948
O	-1.0161820461	-2.4408992099	-3.2962541824	-0.317055
O	-0.3716278234	-0.4662173493	-2.3113509355	-0.25425
H	 1.0275584143	 1.9964940217	-0.3397133735	 0.113059
H	-0.6463770397	 1.9104072429	-0.9096594636	 0.13857
H	-0.3074489424	 2.127607497	 0.815122113	 0.116216
H	 0.7449341875	-0.1523619582	 0.886020965	 0.083935
H	-2.1009202447	-0.1979995413	-0.268881171	 0.140905
H	-1.3774514921	-1.4747462241	 0.7230157171	 0.115135
H	-1.6859743887	 0.1125901238	 1.4221935853	 0.119735
H	 1.5155629356	-0.1299771233	-1.4598134454	 0.095233
H	 1.4780652719	-2.5796017287	-1.6114383418	 0.142939
H	 0.09204116	-2.6778267389	-0.4961211563	 0.144031
70.4076	90.5916	198.2261	217.9371	245.6488	288.0304	353.1435	419.3106	505.1292	524.8796	580.3312	707.8443	792.0921	884.565	890.749	925.2971	957.3476	968.723	1002.3703	1065.868	1090.7063	1109.4811	1135.212	1170.4042	1206.5993	1227.1091	1294.3324	1329.4514	1371.9298	1385.6009	1402.0349	1426.4192	1456.2677	1488.066	1495.1802	1506.3756	1513.6952	1939.2169	3002.8293	3034.7231	3044.6374	3063.7573	3094.2998	3103.8646	3109.1291	3111.9948	3120.6467	3150.814
CC(C)C1CC(=O)O1	CC(C)[C@H]1CC(=O)O1	
InChI=1S/C6H10O2/c1-4(2)5-3-6(7)8-5/h4-5H,3H2,1-2H3	InChI=1S/C6H10O2/c1-4(2)5-3-6(7)8-5/h4-5H,3H2,1-2H3/t5-/m1/s1
