20
gdb 113171	3.04502	1.00213	0.88272	2.4134	76.3	-0.2413	0.0226	0.2639	1405.6124	0.168595	-440.31692	-440.306595	-440.305651	-440.352522	37.35	
C	-0.299426469	 1.418412175	-0.6203223933	-0.377551
C	-0.1439309171	 0.1719447835	 0.2608886407	-0.218192
C	-1.3902365577	-0.67792629	 0.2472369552	 0.045466
O	-1.633976472	-1.479080134	-0.9215874345	-0.308252
C	-1.4253522143	-2.1569462202	 0.3331206919	 0.261787
C	-0.1998886197	-3.0261458739	 0.4711916561	-0.470372
C	-2.6825485343	-2.7730102068	 0.9348744731	 0.335569
N	-3.8201471024	-2.4810343119	 0.2506412226	-0.525853
O	-2.640960719	-3.4406223677	 1.9513645973	-0.371478
H	 0.6073989805	 2.029336031	-0.5969300868	 0.118106
H	-0.4923049328	 1.1341997867	-1.6590924915	 0.133596
H	-1.1329481137	 2.0434701656	-0.2820836948	 0.117831
H	 0.7136574109	-0.4144180394	-0.0785581838	 0.110066
H	 0.0577416109	 0.4675901069	 1.2983562052	 0.110931
H	-2.2852814409	-0.1588289449	 0.5986505465	 0.09403
H	 0.7054400396	-2.5129269293	 0.1468332125	 0.122224
H	-0.0969856673	-3.3330998594	 1.5140136824	 0.155093
H	-0.3155675162	-3.9319125561	-0.1327019564	 0.131976
H	-3.7464814248	-2.0595148972	-0.6608301944	 0.27328
H	-4.6817820409	-2.9069182679	 0.5480969719	 0.261744
58.3618	78.0653	126.7605	151.52	157.7074	230.6175	279.2254	282.4366	346.6378	361.9235	418.8083	475.9133	521.4447	564.4005	638.5642	702.0219	750.6763	773.9305	841.7533	876.7487	917.4418	979.2611	1040.6744	1076.1306	1099.4971	1105.7844	1142.8451	1160.9917	1220.3914	1290.6373	1337.6819	1352.1279	1377.5463	1407.127	1410.9676	1462.3705	1471.0845	1483.6983	1497.6753	1500.6122	1510.226	1589.1166	1796.4722	3035.1282	3037.4022	3055.103	3078.4784	3092.7214	3112.0314	3117.4945	3124.2441	3156.6299	3593.6984	3733.8113
CCC1OC1(C)C(N)=O	CC[C@H]1O[C@]1(C)C(=O)N	
InChI=1S/C6H11NO2/c1-3-4-6(2,9-4)5(7)8/h4H,3H2,1-2H3,(H2,7,8)	InChI=1S/C6H11NO2/c1-3-4-6(2,9-4)5(7)8/h4H,3H2,1-2H3,(H2,7,8)/t4-,6+/m1/s1
