18
gdb 12526	3.30352	1.85038	1.24996	1.0712	76.42	-0.2139	-0.023	0.1909	967.3795	0.155428	-347.815324	-347.807733	-347.806789	-347.847554	29.114	
O	-0.1138746983	 1.4726583935	 0.1265613607	-0.433693
C	 0.033664093	 0.0588942105	 0.0028771341	 0.098367
C	 0.7951406263	-0.5136124004	 1.211975563	-0.272947
C	 1.2821281207	-1.9262371537	 1.0421760815	-0.087405
C	 0.6076168471	-2.9427507494	 0.4875783874	-0.061995
C	-0.7555536774	-2.958359365	-0.0384230499	-0.074217
C	-1.5970883247	-1.9432724782	-0.2847115139	-0.074935
C	-1.3924678313	-0.463367695	-0.1503314138	-0.237269
H	 0.7656199177	 1.8614379404	 0.1620721302	 0.27959
H	 0.6017500719	-0.1863017267	-0.9078083097	 0.075459
H	 1.6606239891	 0.1345483679	 1.4006764936	 0.086541
H	 0.159204073	-0.4244010894	 2.1040712292	 0.120574
H	 2.2871568855	-2.128925728	 1.4035241421	 0.088379
H	 1.1118423935	-3.9061015815	 0.4512675835	 0.083319
H	-1.137013809	-3.9566819875	-0.2432902317	 0.082417
H	-2.5892826275	-2.2115393347	-0.6430300957	 0.090455
H	-1.9833988818	-0.0881489324	 0.6985482028	 0.12119
H	-1.8253317778	 0.0310134495	-1.0295126233	 0.116171
45.1815	143.6474	282.8302	323.8403	341.9888	362.8029	402.8753	460.3172	526.8587	620.7543	693.4648	784.2058	851.7061	857.0958	897.8157	905.9098	946.436	1002.4263	1017.3492	1045.2305	1070.6362	1071.2808	1100.3023	1167.0137	1227.5391	1265.5613	1272.9473	1299.0511	1332.0581	1360.143	1390.3906	1419.4208	1444.3254	1460.485	1463.3013	1480.2794	1685.9488	1715.8335	2978.8285	3003.076	3011.9487	3039.459	3045.6813	3128.001	3139.4234	3153.7217	3165.8923	3819.9097
OC1CC=CC=CC1	O[C@H]1CC=CC=CC1	
InChI=1S/C7H10O/c8-7-5-3-1-2-4-6-7/h1-4,7-8H,5-6H2	InChI=1S/C7H10O/c8-7-5-3-1-2-4-6-7/h1-4,7-8H,5-6H2
