18
gdb 22342	3.28959	1.18886	0.91005	1.7647	80.11	-0.2206	-0.0319	0.1887	1273.053	0.147866	-435.255441	-435.246456	-435.245511	-435.289053	34.215	
C	-0.2058477621	 1.4979994677	 0.0328803149	-0.384312
C	 0.1154364984	 0.0050659556	-0.0176099978	 0.055892
C	 0.969551008	-0.4132050425	-1.2471027771	-0.322273
C	 2.0023444335	-1.3241185318	-0.6333386341	 0.333468
N	 2.7380585994	-2.0895842485	-1.3410165996	-0.234619
O	 3.6276773412	-2.8667162479	-0.5729266668	-0.397979
C	 1.8757491155	-1.1222758942	 0.8408018948	 0.313226
N	 2.7838056251	-1.6174889886	 1.7303410657	-0.582568
N	 0.8582874415	-0.4114714181	 1.1773730183	-0.296463
H	 0.7162164257	 2.0890726015	 0.0506588547	 0.114495
H	-0.7937121688	 1.800574238	-0.8403034887	 0.10748
H	-0.7760490803	 1.7341800469	 0.9352618627	 0.12485
H	-0.835963408	-0.5464678272	-0.0273608832	 0.080956
H	 0.3997610028	-0.9032133382	-2.0393885412	 0.124357
H	 1.4599558449	 0.4622712093	-1.6893434635	 0.125233
H	 4.0890946972	-3.3745992325	-1.2475216867	 0.312686
H	 3.3670656407	-2.3755064543	 1.4200038556	 0.271022
H	 2.5047458851	-1.598500655	 2.6984559218	 0.254547
50.6561	143.4006	238.844	255.0288	267.1285	314.3919	319.345	376.6894	410.2833	431.9546	469.8386	503.4646	540.5433	661.5374	695.9802	739.5605	758.5212	848.0157	909.8151	935.0531	971.6663	1055.251	1097.0898	1131.6857	1156.2398	1202.001	1206.6513	1280.7899	1315.6791	1360.5362	1393.7342	1404.9083	1423.6488	1471.7789	1487.6839	1498.5083	1609.0716	1695.636	1731.9615	2990.6778	3031.9925	3039.5061	3101.3294	3107.711	3118.713	3593.4187	3725.1704	3832.5509
CC1CC(=NO)C(N)=N1	C[C@H]1CC(=NO)[C](N)[N]1	
InChI=1S/C5H9N3O/c1-3-2-4(8-9)5(6)7-3/h3,9H,2H2,1H3,(H2,6,7)	InChI=1S/C5H9N3O/c1-3-2-4(8-9)5(6)7-3/h3,9H,2H2,1H3,(H2,6,7)/t3-/m0/s1
