17
gdb 14847	2.92746	1.7294	1.24026	5.	69.14	-0.2644	0.0322	0.2967	1003.6954	0.141934	-363.855482	-363.847241	-363.846297	-363.888631	29.222	
C	-0.3356447587	 1.5473618962	-0.0908404394	-0.243179
O	-0.3147551635	 0.3056531961	 0.5827993814	-0.229767
C	-1.2539931452	-0.6018898817	 0.1057834235	 0.174169
C	-1.0199744217	-1.3270335601	-1.2494435462	-0.258123
C	-1.5005719951	-2.6385264964	-0.5743718058	-0.230248
C	-1.2455042009	-1.9852564523	 0.8282640803	-0.226762
C	 0.043200989	-2.3435847346	 1.401557819	 0.296531
N	 1.0575627501	-2.6650220022	 1.8534045967	-0.330232
H	 0.4230069478	 2.1779811052	 0.3766078599	 0.139201
H	-0.0987822028	 1.4378549017	-1.1588862702	 0.114545
H	-1.3166591263	 2.0388950458	-0.0001426078	 0.108175
H	-2.2702548452	-0.1781289784	 0.1484205366	 0.075527
H	-1.5671619897	-0.9728069869	-2.1246409625	 0.105998
H	 0.0490413683	-1.3635677649	-1.4760072724	 0.131102
H	-2.5661327886	-2.8244009152	-0.7233254897	 0.117682
H	-0.9446743211	-3.550291275	-0.7901816684	 0.132121
H	-2.0205308763	-2.1292971473	 1.5844720551	 0.123259
86.1387	93.5264	123.4032	196.8235	221.9641	277.1325	394.6218	441.9364	495.6894	606.8481	706.7757	759.4068	811.0803	904.4626	928.0017	957.2137	1021.6104	1053.8699	1088.7653	1114.4062	1171.2384	1182.8987	1194.8652	1230.9614	1242.8798	1262.9383	1264.2516	1290.0519	1346.4678	1388.5255	1479.197	1482.1007	1488.5421	1496.902	1507.4873	2356.9353	2971.9831	2982.6675	3033.5505	3069.7217	3080.5385	3089.1708	3127.3551	3128.1238	3148.6353
COC1CCC1C#N	CO[C@H]1CC[C@H]1C#N	
InChI=1S/C6H9NO/c1-8-6-3-2-5(6)4-7/h5-6H,2-3H2,1H3	InChI=1S/C6H9NO/c1-8-6-3-2-5(6)4-7/h5-6H,2-3H2,1H3/t5-,6-/m0/s1
