12
gdb 133587	2.92482	1.15363	1.01237	1.7436	48.92	-0.2753	-0.056	0.2193	1109.5877	0.07175	-604.105392	-604.097287	-604.096343	-604.139682	27.946	
F	 0.6918249956	 0.402482053	-0.0686328038	-0.071359
C	 0.0826179715	 1.5908088011	-0.0396925203	 0.288084
F	 0.9979820572	 2.5390110872	-0.276229902	-0.065127
F	-0.8069501344	 1.6206537923	-1.0377439963	-0.06662
C	-0.6080907585	 1.8698165761	 1.2796866533	-0.107749
O	-1.3301454165	 0.8153378588	 1.8695905591	-0.223155
C	-0.1842404875	 1.3077794757	 2.5805478177	-0.044425
C	 0.9640065333	 0.3527042318	 2.762386525	 0.133039
O	 1.8067067221	 0.5362975089	 3.6011830169	-0.235304
H	-1.0961768261	 2.8446899259	 1.2789750425	 0.140034
H	-0.3991384528	 1.9079887471	 3.4638839086	 0.135252
H	 0.9522978562	-0.5305963877	 2.0983861393	 0.117327
35.5093	66.7015	178.0051	227.3265	284.446	311.9613	402.8868	440.9215	504.0121	533.6152	607.5934	687.0999	802.2814	900.4979	916.4608	1011.2009	1048.919	1115.1954	1153.5928	1193.298	1209.1386	1244.5169	1315.5135	1346.3448	1413.2702	1483.3095	1825.9017	2977.7491	3120.733	3136.464
FC(F)(F)C1OC1C=O	FC(F)(F)[C@H]1O[C@H]1C=O	
InChI=1S/C4H3F3O2/c5-4(6,7)3-2(1-8)9-3/h1-3H	InChI=1S/C4H3F3O2/c5-4(6,7)3-2(1-8)9-3/h1-3H/t2-,3-/m0/s1
