17
gdb 34121	3.43268	1.50914	1.3945	4.3758	76.76	-0.2475	0.0208	0.2683	965.5655	0.139354	-380.837459	-380.830903	-380.829959	-380.868265	27.126	
N	 0.0282476369	-1.1028789171	-0.1301777295	-0.341002
C	 0.0117148061	 0.0510940115	-0.0599743895	 0.150232
C	 0.0249499673	 1.491577809	 0.0379584829	 0.218065
C	-0.4066723833	 2.2591797057	 1.316684799	-0.247872
C	 0.4007665991	 3.3882140926	 0.6673367956	-0.052623
C	-0.0425002897	 3.5015416145	-0.8557305685	-0.01418
C	 1.415333081	 3.1528180126	-1.2612451085	-0.25416
C	 1.3899772292	 2.3476334362	 0.0397914795	-0.074272
N	-0.7772098378	 2.2188455337	-0.9797320248	-0.319308
H	-1.4821904042	 2.3631068945	 1.4667999372	 0.120111
H	 0.090089092	 1.8850788428	 2.2147438597	 0.116842
H	 0.7236572486	 4.2922285196	 1.178016425	 0.086205
H	-0.5800306367	 4.3598207214	-1.2552242397	 0.083087
H	 1.5747696472	 2.6507217577	-2.2212058146	 0.09913
H	 2.0937044021	 4.0061134091	-1.1679186497	 0.111076
H	 2.2558941184	 1.931232437	 0.5497111101	 0.091186
H	-0.6220000463	 1.8217457192	-1.9044755343	 0.227484
142.0393	166.5743	391.1441	418.7467	490.2219	517.7373	550.5694	561.7904	642.3475	720.6538	806.858	838.766	859.5041	881.9827	895.0409	938.7385	955.1431	984.8988	1006.8827	1016.5758	1035.4958	1072.563	1089.3258	1097.3346	1150.2865	1184.7593	1193.953	1202.637	1247.4422	1252.5959	1267.3578	1297.4095	1301.5003	1391.264	1482.7911	1487.4844	2356.1666	3042.6924	3074.148	3103.1554	3132.0546	3142.5981	3144.5903	3153.1311	3480.55
N#CC12CC3C(CC13)N2	N#C[C@@]12C[C@@H]3[C@@H](C[C@H]13)N2	
InChI=1S/C7H8N2/c8-3-7-2-4-5(7)1-6(4)9-7/h4-6,9H,1-2H2	InChI=1S/C7H8N2/c8-3-7-2-4-5(7)1-6(4)9-7/h4-6,9H,1-2H2/t4-,5-,6+,7-/m0/s1
