17
gdb 43829	2.98897	1.49229	1.17016	2.0719	72.59	-0.2353	-0.021	0.2144	1052.2726	0.1377	-417.977422	-417.970125	-417.969181	-418.009203	28.963	
O	 0.0764577072	-0.0187871049	 0.0662731763	-0.323065
C	 0.0144614372	 1.1804890813	-0.0136820334	 0.45218
C	-1.2648149176	 2.0249434829	-0.1456973391	-0.44597
C	-0.815443186	 3.2594634116	-0.9267442177	 0.389503
C	-1.3987301753	 3.60295104	-2.2470722225	-0.297896
N	-1.6269679125	 4.4674786881	-1.0708788761	-0.363878
C	 0.6586865537	 3.4164309239	-0.6540295971	-0.10297
N	 0.9684969611	 3.3183726813	 0.7758889899	-0.337983
C	 1.1785378734	 2.1282317528	-0.1045373188	-0.169421
H	-2.0626266975	 1.4512115627	-0.6202587211	 0.125898
H	-1.5884968498	 2.3064544341	 0.8634688185	 0.149377
H	-0.781531914	 4.0468450511	-3.0243757157	 0.11888
H	-2.2143209815	 2.986297768	-2.6160548947	 0.1167
H	-2.5594094055	 4.3118210234	-0.6949509347	 0.234465
H	 1.2617089735	 4.049943088	-1.2954770689	 0.101315
H	 1.8790970374	 3.7375088483	 0.9525582887	 0.244349
H	 2.1775555964	 1.7485348773	-0.2806098435	 0.108516
92.0574	172.0372	274.6109	303.7864	349.3988	431.5271	491.7724	506.6813	558.0486	658.0215	764.8769	806.3456	838.3295	865.2591	872.9919	901.7981	926.4722	951.6349	982.2722	987.4459	999.7595	1078.0541	1111.8079	1127.9263	1143.7284	1173.41	1180.8663	1248.4322	1256.7661	1264.1558	1326.9457	1345.6462	1368.2011	1433.4824	1456.6916	1516.9223	1849.6109	3046.8288	3102.429	3122.2119	3174.3513	3187.2862	3197.5297	3497.2956	3497.7738
O=C1CC2(CN2)C2NC12	O=C1C[C@]2(CN2)[C@H]2N[C@@H]12	
InChI=1S/C6H8N2O/c9-3-1-6(2-7-6)5-4(3)8-5/h4-5,7-8H,1-2H2	InChI=1S/C6H8N2O/c9-3-1-6(2-7-6)5-4(3)8-5/h4-5,7-8H,1-2H2/t4-,5-,6-/m0/s1
