16
gdb 105606	2.26853	1.47034	1.28497	1.9734	66.9	-0.2505	-0.0449	0.2056	1062.4017	0.121852	-475.002779	-474.993767	-474.992822	-475.036903	31.534	
C	-0.1237077437	 1.4651818561	 0.0057083981	-0.27451
O	 0.1051994059	 0.0521430928	 0.0559426944	-0.288885
C	 0.6697510434	-0.511499057	-1.0771738783	 0.182243
C	 0.4713491414	-2.04898505	-1.1399222265	-0.129788
O	-0.2335962068	-1.9246388496	-2.4126623864	-0.245594
C	-0.1706668283	-0.5515855457	-2.3683445493	 0.376894
N	-0.6471488739	 0.3244319946	-3.1255011883	-0.534142
C	 2.1172501386	-0.1087308286	-1.3523196349	 0.1295
O	 2.7514103156	 0.6478544234	-0.6696834394	-0.250772
H	 0.8193769007	 2.0172402458	-0.011275124	 0.143695
H	-0.7288859563	 1.7326429006	-0.8665501639	 0.14741
H	-0.6715580847	 1.7059305371	 0.9184818904	 0.131166
H	 1.3618734517	-2.6725385723	-1.242134876	 0.131127
H	-0.1843157322	-2.412466616	-0.34744298	 0.147896
H	-1.1931729984	-0.0860844247	-3.8858892455	 0.237328
H	 2.5529135471	-0.5977543263	-2.2535526004	 0.096432
90.5381	107.0857	115.4345	158.6722	199.4766	256.1291	263.9931	339.6542	371.771	479.2384	568.8162	670.4019	749.0068	787.4538	866.4172	898.1688	925.3246	974.6235	1014.01	1053.4394	1086.6452	1145.9955	1169.7877	1178.9319	1225.4519	1229.6318	1272.6832	1359.2199	1418.8303	1479.4056	1488.7121	1503.2263	1516.2563	1813.4493	1844.2089	2873.6582	3040.5916	3075.342	3119.948	3140.4497	3146.2024	3468.757
COC1(COC1=N)C=O	CO[C@]1(CO[C]1[NH])C=O	
InChI=1S/C5H7NO3/c1-8-5(2-7)3-9-4(5)6/h2,6H,3H2,1H3	InChI=1S/C5H7NO3/c1-8-5(2-7)3-9-4(5)6/h2,6H,3H2,1H3/t5-/m0/s1
