19
gdb 117826	2.78943	0.91864	0.82594	1.164	68.36	-0.2504	-0.0429	0.2074	1434.7028	0.156468	-497.293571	-497.28325	-497.282305	-497.329278	36.917	
O	-2.4752725094	 1.5228001189	 1.3510357498	-0.417586
C	-2.4660865384	 0.106481813	 1.2777703259	-0.076123
C	-1.53449008	-0.3976208194	 0.1661143797	-0.252165
C	-1.3952213677	-1.9193004318	 0.0936965625	 0.242626
O	-0.9013659919	-2.3904594956	 1.3499556634	-0.465662
C	-2.6926692712	-2.6611781217	-0.2593270197	-0.121108
O	-2.4990951144	-4.0617983162	-0.1178119616	-0.436612
C	-0.288089096	-2.2911834486	-0.9020295035	 0.140301
O	-0.396326224	-3.1084652641	-1.7851162589	-0.274515
H	-1.6158398089	 1.807317832	 1.6778319089	 0.283388
H	-2.1803788674	-0.3531919663	 2.232034347	 0.116813
H	-3.502036097	-0.1791014744	 1.0710276875	 0.114859
H	-1.8785889115	-0.012094897	-0.8008851851	 0.116511
H	-0.5346040076	 0.0244148061	 0.3380267943	 0.099077
H	-1.1453072723	-3.3293008115	 1.3713629486	 0.29526
H	-3.4839188912	-2.3867104193	 0.4427517035	 0.122147
H	-3.0185525943	-2.393887749	-1.2726032633	 0.111622
H	-1.9330677829	-4.3220894597	-0.8571394236	 0.302394
H	 0.681166076	-1.7857324153	-0.6995912355	 0.098773
71.5128	79.1123	103.7208	143.9727	191.0938	226.6063	297.4192	303.2814	318.397	351.0088	378.022	406.7387	508.0152	541.4524	652.8619	707.8579	778.236	810.2952	904.5561	964.5863	998.7386	1030.7051	1064.4876	1075.8761	1104.6171	1127.3907	1136.8147	1232.239	1240.2911	1316.1624	1341.9389	1372.1781	1387.6576	1404.279	1417.2887	1428.9776	1444.9372	1473.6814	1490.9089	1516.989	1808.4127	2903.8251	3014.3314	3029.5579	3031.2978	3064.1446	3090.9108	3106.8002	3706.7801	3763.1978	3817.3281
OCCC(O)(CO)C=O	OCC[C@@](O)(CO)C=O	
InChI=1S/C5H10O4/c6-2-1-5(9,3-7)4-8/h3,6,8-9H,1-2,4H2	InChI=1S/C5H10O4/c6-2-1-5(9,3-7)4-8/h3,6,8-9H,1-2,4H2/t5-/m0/s1
