21
gdb 100671	3.01486	0.95001	0.88172	2.1096	70.67	-0.2556	0.058	0.3136	1397.9576	0.179477	-498.486852	-498.475933	-498.474989	-498.522295	40.471	
C	-0.0793964066	 1.6209244646	 0.1058747608	-0.439374
C	-0.0164718001	 0.0901916976	-0.0023228292	 0.367314
O	 0.6719109928	-0.4725935421	 1.1134312386	-0.493864
C	-1.436153153	-0.4983668982	-0.0409886844	-0.120009
O	-2.0048885264	-0.2558179669	 1.2467096803	-0.439518
C	 0.7605926424	-0.3881194316	-1.2404307783	 0.09655
O	 0.0809277565	 0.052103862	-2.4035324455	-0.453368
C	 2.2167379127	 0.0803263979	-1.2857182628	-0.114191
O	 2.8043452831	-0.3123141917	-2.528964419	-0.426595
H	 0.8978122662	 2.0250581909	 0.3807487792	 0.116844
H	-0.3913586433	 2.0575449862	-0.8464709367	 0.128524
H	-0.7964305937	 1.9091637141	 0.8786557655	 0.124722
H	 0.0302505091	-0.4782378383	 1.8353871999	 0.286604
H	-2.0241388022	-0.0285995323	-0.8381337486	 0.114607
H	-1.3728993848	-1.5776207117	-0.2387898482	 0.089631
H	-2.8225094826	-0.7547104555	 1.3200117463	 0.294993
H	 0.7709217555	-1.4932411313	-1.1988110512	 0.053061
H	 0.7352815937	 0.0015070665	-3.1136111047	 0.288543
H	 2.2663907197	 1.1721216805	-1.2768926927	 0.118454
H	 2.7736208363	-0.3040996317	-0.4245680005	 0.119289
H	 2.9490618946	-1.264259699	-2.497782159	 0.287784
77.7352	107.3443	145.289	147.4729	223.025	239.0925	265.1309	278.507	319.3315	338.9859	351.5007	363.9561	427.5674	433.6483	489.0368	538.9817	560.1916	661.9864	779.8883	891.0491	925.0545	967.7427	991.848	1003.2034	1058.929	1073.9386	1119.4808	1130.0189	1164.0422	1192.3865	1206.4563	1251.3151	1259.5091	1324.6166	1344.0031	1378.6157	1389.5579	1391.1235	1411.3082	1443.5978	1457.4339	1497.1737	1501.5769	1504.2038	1514.6648	2924.8719	3001.5634	3049.2018	3052.0429	3061.8827	3112.2334	3127.7218	3132.1065	3751.3501	3770.5629	3806.9618	3849.0609
CC(O)(CO)C(O)CO	C[C@@](O)(CO)[C@@H](O)CO	
InChI=1S/C5H12O4/c1-5(9,3-7)4(8)2-6/h4,6-9H,2-3H2,1H3	InChI=1S/C5H12O4/c1-5(9,3-7)4(8)2-6/h4,6-9H,2-3H2,1H3/t4-,5+/m0/s1
