19
gdb 28199	4.4696	1.18659	0.96243	0.4132	84.35	-0.1955	0.0283	0.2238	1248.5297	0.161439	-385.939454	-385.93149	-385.930546	-385.972019	30.356	
C	 0.1128709459	 1.4496949853	-0.0195324837	-0.489949
C	-0.073337869	-0.0247523151	-0.0172116407	 0.360907
C	-1.1751181964	-0.8282691377	-0.104224032	-0.475911
C	-0.6881558839	-2.1738696253	-0.0169462576	 0.2825
C	 0.65339967	-2.0752210153	 0.1093547334	 0.3028
C	 1.4082315343	-3.3576237384	 0.1469232767	-0.352743
C	 0.2145297881	-4.3596812767	 0.3174179194	-0.194651
C	-1.1084474848	-3.6138061385	-0.082904529	-0.347974
O	 1.0687183059	-0.7853401639	 0.1092801409	-0.236996
H	 0.7663827805	 1.7738811846	-0.8378439702	 0.134965
H	-0.8543565042	 1.9430173312	-0.139928351	 0.133163
H	 0.5624323015	 1.8038387018	 0.9157373487	 0.135
H	-2.1922463637	-0.4814627732	-0.2072989456	 0.104439
H	 1.9669187103	-3.537592683	-0.7819191142	 0.110987
H	 2.1289130274	-3.4344534686	 0.9684001565	 0.111449
H	 0.36335912	-5.2730244206	-0.2635732214	 0.100488
H	 0.151125093	-4.6549631161	 1.3685307023	 0.111423
H	-1.9304199155	-3.8730362704	 0.5931994522	 0.104234
H	-1.4366188295	-3.8943073001	-1.0925681648	 0.10587
107.9827	125.0693	158.5048	238.3369	261.699	288.3402	463.164	512.5438	632.2202	650.2821	670.1225	713.8857	774.6318	797.002	841.4433	895.5174	912.1965	955.1616	993.6574	1014.1263	1057.8539	1065.7762	1098.3152	1151.3345	1156.9389	1211.3243	1220.944	1257.4083	1277.2656	1295.234	1331.4274	1368.4573	1416.8931	1446.8702	1471.4269	1484.7823	1493.0895	1499.4475	1512.3112	1596.0398	1667.269	3008.708	3015.5141	3025.8919	3049.681	3055.8607	3067.4222	3073.9216	3107.9423	3126.4343	3245.7458
CC1=CC2=C(CCC2)O1	Cc1cc2c(CCC2)o1	
InChI=1S/C8H10O/c1-6-5-7-3-2-4-8(7)9-6/h5H,2-4H2,1H3	InChI=1S/C8H10O/c1-6-5-7-3-2-4-8(7)9-6/h5H,2-4H2,1H3
