19
gdb 62892	3.17556	1.50532	1.17716	1.7819	76.69	-0.2328	0.069	0.3018	1085.8656	0.156937	-422.930503	-422.922069	-422.921125	-422.962798	33.607	
C	-0.0837695476	 1.5575261611	-0.0199115923	-0.486337
C	-0.051514089	 0.0397548272	-0.0130299454	 0.440106
O	-1.3125410187	-0.518312476	-0.2815109412	-0.473127
C	 1.2224945386	-0.6684576873	-0.6186088152	-0.135913
O	 1.9853686947	-0.1369870987	 0.5368448211	-0.311011
C	 0.7363667136	-0.6781161977	 1.1256878751	-0.108627
C	 0.9013674854	-1.9087316069	 0.2230419769	 0.488838
C	 0.1641478494	-3.1786349658	 0.0100884406	-0.335868
C	 1.6325916026	-3.1883164121	 0.4218250708	-0.37421
H	 0.8958290535	 1.967485955	 0.2231270067	 0.149664
H	-0.3783472226	 1.9276620194	-1.0106558009	 0.106035
H	-0.8192922249	 1.9212219699	 0.7050155438	 0.123338
H	-1.750588948	 0.0342733138	-0.936171364	 0.281966
H	 1.6794735704	-0.5866168114	-1.6064827233	 0.085202
H	 0.613495795	-0.6099865866	 2.2077148287	 0.089455
H	-0.5782466054	-3.4713762526	 0.7450086027	 0.117661
H	-0.0855844777	-3.4636876709	-1.0066535761	 0.112851
H	 2.3693058907	-3.4833925883	-0.3184668138	 0.114565
H	 1.87668813	-3.491990222	 1.4347511259	 0.115412
156.5435	175.3072	216.7369	230.4459	246.9181	327.0521	336.9248	386.5988	436.9758	494.1617	608.9462	651.891	733.6476	742.3023	765.1949	805.402	867.0186	881.9794	916.765	940.4185	970.0075	1015.3042	1053.6103	1074.8444	1077.723	1103.4168	1127.1337	1129.1627	1142.6831	1178.1019	1205.7865	1221.0708	1229.2579	1246.4387	1391.8891	1405.0665	1426.9392	1463.0596	1490.7941	1504.1003	1524.2489	3024.2359	3088.1814	3103.3035	3112.0607	3125.828	3131.4587	3159.2202	3202.9378	3217.4942	3820.8084
CC1(O)C2OC1C21CC1	C[C@@]1(O)[C@H]2O[C@@H]1C12CC1	
InChI=1S/C7H10O2/c1-6(8)4-7(2-3-7)5(6)9-4/h4-5,8H,2-3H2,1H3	InChI=1S/C7H10O2/c1-6(8)4-7(2-3-7)5(6)9-4/h4-5,8H,2-3H2,1H3/t4-,5+,6-
