14
gdb 27463	2.53069	1.7574	1.09465	4.0497	75.54	-0.2441	-0.0939	0.1502	1037.7965	0.103257	-432.891647	-432.884463	-432.883519	-432.923646	27.204	
O	 0.0649669291	 1.236670654	 0.5070501405	-0.367162
C	-0.0555271522	-0.0450628212	 0.121676397	 0.438935
N	-1.2108304502	-0.5744267861	 0.2415773057	-0.32172
C	-1.5343617007	-1.9008074525	-0.0221564956	 0.299417
N	-2.6856299701	-2.2751252531	-0.435540506	-0.50489
C	-0.5689776021	-2.9732562703	 0.2919840536	-0.055343
C	 0.7664489829	-2.9001451509	 0.1436041498	-0.105483
C	 1.4932815685	-1.7508162734	-0.3590418719	 0.021679
N	 1.154360754	-0.5113200402	-0.4083763351	-0.328385
H	 0.9652132982	 1.5061986607	 0.2802678878	 0.307687
H	-3.2636819335	-1.4488115445	-0.6086714948	 0.22419
H	-1.0242956869	-3.9139271612	 0.587585512	 0.142001
H	 1.3650873769	-3.7897582846	 0.3176829871	 0.117481
H	 2.490462316	-1.9686232666	-0.7499207302	 0.131592
70.9808	156.4567	258.5682	327.0111	415.1659	431.9475	473.8209	527.834	562.0447	604.5686	686.8381	747.978	813.3407	834.7984	880.2719	925.0259	959.968	990.7063	1016.5927	1024.1542	1120.5183	1218.7374	1271.6616	1345.2402	1381.5087	1427.3942	1451.2728	1614.4649	1667.8456	1704.4398	1725.0673	3098.5115	3167.1333	3189.0403	3452.2391	3781.6271
OC1=NC(=N)C=CC=N1	OC1=N[C]([NH])C=CC=N1	
InChI=1S/C5H5N3O/c6-4-2-1-3-7-5(9)8-4/h1-3H,(H2,6,8,9)	InChI=1S/C5H5N3O/c6-4-2-1-3-7-5(9)8-4/h1-3H,(H2,6,8,9)
