14
gdb 124054	3.91076	1.62127	1.15438	1.6744	69.78	-0.2148	-0.023	0.1918	965.7767	0.105694	-432.895917	-432.889444	-432.8885	-432.927433	24.403	
C	 0.0106221762	 1.5237872275	 0.1206303982	-0.192562
O	 1.2998395993	 2.0251217034	-0.3500506047	-0.235592
C	 2.274488382	 1.2024701906	-0.7671493085	 0.14127
N	 2.2834401851	-0.0751381323	-0.8358469513	-0.370913
C	 1.0919164207	-0.6313342652	-0.4057190108	 0.387367
C	-0.0230889139	 0.0332066662	 0.0573676037	 0.122864
C	-0.9444291741	-0.9862493253	 0.3597969405	-0.124191
N	-0.4383140948	-2.195345137	 0.1031823202	-0.225677
N	 0.8052272555	-1.9518119977	-0.362927256	-0.297286
H	-0.1125874682	 1.917794249	 1.137098112	 0.132487
H	-0.7474288465	 2.0021416376	-0.5119509343	 0.132492
H	 3.143177237	 1.779591234	-1.0720024014	 0.138812
H	-1.9486282728	-0.9061808201	 0.7503516124	 0.113141
H	 1.4023662246	-2.7162754307	-0.63181552	 0.277787
51.7357	230.3625	250.7046	410.1727	484.1316	512.3426	555.7602	640.3451	685.0152	744.2867	756.3646	860.4325	877.2872	937.6543	954.6435	967.7587	1050.3014	1111.4195	1140.0508	1231.4515	1232.9664	1242.6029	1317.499	1360.435	1394.2616	1435.001	1449.1483	1526.812	1546.769	1626.711	1660.9159	3013.8853	3039.4278	3186.0863	3241.2899	3668.2114
C1OC=NC2=C1C=NN2	C1OC=Nc2c1cn[nH]2	
InChI=1S/C5H5N3O/c1-4-2-9-3-6-5(4)8-7-1/h1,3H,2H2,(H,7,8)	InChI=1S/C5H5N3O/c1-4-2-9-3-6-5(4)8-7-1/h1,3H,2H2,(H,7,8)
