14
gdb 130336	3.30944	1.6288	1.09819	10.7867	74.48	-0.1734	-0.0194	0.154	1010.6322	0.10295	-432.779522	-432.772089	-432.771144	-432.812288	27.194	
N	 0.0137486934	 0.9803665488	-0.0347817955	-0.501591
H	 0.2865419886	-0.0105286055	 0.0384059231	 0.321448
H	 0.8709783908	 1.5005189777	-0.2560926907	 0.328368
H	-0.613690997	 1.0667465882	-0.8372250041	 0.324165
C	-0.6489955913	 1.5040138498	 1.1605907452	-0.088898
C	-2.0179534742	 1.7973862517	 1.2775015699	-0.157114
C	-2.3004759436	 2.201954177	 2.6069351879	-0.330104
C	-1.0764755237	 2.128445292	 3.2837721148	 0.356593
C	-0.0544396706	 1.6945537385	 2.425254418	 0.218103
N	 1.1014454223	 1.6457067797	 3.1368998183	-0.272904
N	 0.8960138348	 2.0027209853	 4.3345761171	-0.081495
O	-0.5322363441	 2.3386063997	 4.4884853541	-0.268043
H	-2.7470785915	 1.7326816953	 0.477368729	 0.066299
H	-3.261246804	 2.5099745417	 2.9867002528	 0.085174
39.4785	121.3342	225.0296	240.5033	329.6362	485.5658	552.189	568.9265	607.3527	629.2233	677.2603	689.8195	756.7836	766.1844	798.037	974.0857	990.0036	1041.5678	1056.0224	1101.3296	1223.8266	1253.2921	1330.0874	1393.1023	1418.3691	1454.0639	1491.8263	1519.1899	1592.8332	1617.446	1670.2313	3186.361	3255.2422	3283.9425	3360.2921	3489.3425
[NH3+][C-]1C=CC2=C1N=NO2	[NH3]c1ccc2c1nno2	
InChI=1S/C5H5N3O/c6-3-1-2-4-5(3)7-8-9-4/h1-2H,6H3	InChI=1S/C5H12N3O/c6-3-1-2-4-5(3)7-8-9-4/h3-5,7-8H,1-2H2,6H3
