20
gdb 16912	3.61215	1.72427	1.34266	1.4675	73.71	-0.2554	0.0746	0.33	964.8642	0.179613	-349.00749	-349.000072	-348.999128	-349.038804	29.851	
O	-0.1244214443	 1.4521814545	 0.0646667766	-0.443115
C	 0.0224359637	 0.0377606109	 0.0201354977	 0.148993
C	 0.7992660863	-0.5062996885	 1.2219904398	-0.234497
C	 1.0306086289	-2.0180765466	 1.079149291	-0.22645
C	-0.2412595923	-2.7859801826	 0.7572422422	 0.000208
C	-1.4919830916	-2.6218290089	 1.5794192886	-0.286456
C	-1.4387676138	-2.0567723403	 0.1769107501	-0.032774
C	-1.3924265604	-0.5434934262	-0.0338526405	-0.217075
H	 0.755785252	 1.8400121787	 0.1005082783	 0.276175
H	 0.5617024028	-0.2583297067	-0.8969700952	 0.058072
H	 1.7675058423	 0.0050551273	 1.3008976738	 0.07989
H	 0.2468219363	-0.269352337	 2.1398184281	 0.103518
H	 1.7490024998	-2.1828241179	 0.26467597	 0.095816
H	 1.4991768346	-2.418370771	 1.9866670559	 0.096088
H	-0.0645063005	-3.7872627959	 0.3738955975	 0.078187
H	-2.1036392074	-3.4982603769	 1.7649567649	 0.104616
H	-1.4799638149	-1.9122576674	 2.4015238198	 0.10812
H	-2.0092492667	-2.6014400319	-0.5685794678	 0.080473
H	-1.9852913144	-0.0256628621	 0.729962292	 0.107925
H	-1.8416341603	-0.2844273016	-0.9971960327	 0.102287
107.7303	204.5982	282.8575	312.0475	351.2973	358.6333	415.5158	477.1609	507.8855	637.2311	751.5595	785.1508	823.1535	858.4623	904.9533	910.0044	950.8991	975.8092	1023.7269	1058.0632	1069.9863	1094.5863	1099.503	1117.9311	1134.5283	1150.3659	1192.4098	1224.3227	1239.568	1252.3337	1297.8791	1325.7804	1343.4196	1364.9565	1379.4966	1403.3206	1415.8194	1436.4823	1486.8018	1489.9865	1492.7794	1508.3049	2941.3042	3010.323	3018.8827	3034.71	3044.2552	3061.289	3081.3477	3122.9132	3135.7755	3152.2433	3206.3474	3814.5085
OC1CCC2CC2C1	O[C@H]1CC[C@H]2C[C@H]2C1	
InChI=1S/C7H12O/c8-7-2-1-5-3-6(5)4-7/h5-8H,1-4H2	InChI=1S/C7H12O/c8-7-2-1-5-3-6(5)4-7/h5-8H,1-4H2/t5-,6-,7-/m0/s1
