21
gdb 81682	2.2574	1.66087	1.44493	1.5095	76.79	-0.2358	0.0704	0.3062	1042.1036	0.184534	-424.217029	-424.208873	-424.207929	-424.249359	32.745	
C	 0.11780693	 1.744142907	 0.0463602844	-0.455955
C	 0.1219047453	 0.2237585307	 0.0245633966	 0.021883
C	 1.0494857291	-0.6134849989	-0.889538588	 0.067073
C	 2.4718135237	-0.0738336181	-1.0012460363	-0.222177
C	 3.0799883297	 0.2707225014	 0.3860363196	 0.120282
O	 3.3785787811	 1.6708117866	 0.3625859528	-0.423531
C	 2.1503573601	-0.1093739591	 1.5823063758	-0.252814
C	 0.7979625917	-0.642564619	 1.1139909866	 0.07504
O	 1.054936056	-1.6713141212	 0.1153584875	-0.306009
H	 1.1181264283	 2.1643204545	 0.167425445	 0.149111
H	-0.3054138716	 2.1373949676	-0.8849537162	 0.113573
H	-0.510722174	 2.1120062602	 0.8656809105	 0.110404
H	-0.8967137933	-0.1541012018	-0.1079151519	 0.08259
H	 0.6596450517	-0.961000157	-1.8510850105	 0.070519
H	 3.08434992	-0.8337419729	-1.496182096	 0.106137
H	 2.5077781993	 0.8271155159	-1.621952537	 0.116651
H	 4.0229263488	-0.2795898979	 0.4982568234	 0.079117
H	 3.7868789343	 1.8996766697	 1.2041219906	 0.279872
H	 2.6259397596	-0.886509011	 2.1902787584	 0.105218
H	 2.0155922588	 0.7687847617	 2.2255538918	 0.093498
H	 0.1866229413	-1.0142127483	 1.9422649326	 0.069518
90.269	194.2671	222.146	252.6389	340.8541	343.6325	372.1451	419.2236	456.3761	543.9493	573.8053	638.6814	758.0047	804.4591	811.2435	877.5205	883.7016	936.0982	947.3003	973.3162	987.2766	1050.7479	1062.6256	1068.7854	1111.963	1129.9279	1154.3685	1179.5829	1220.6494	1235.8248	1261.6868	1270.2971	1308.9754	1328.9669	1339.3644	1356.1286	1376.166	1389.8562	1406.4822	1426.0354	1429.0551	1467.787	1477.5152	1507.0332	1520.6632	3000.5669	3029.3648	3030.7243	3047.493	3052.7059	3060.2737	3070.1965	3076.6609	3084.7346	3095.7393	3136.5817	3808.6838
CC1C2CC(O)CC1O2	C[C@H]1[C@H]2C[C@@H](O)C[C@@H]1O2	
InChI=1S/C7H12O2/c1-4-6-2-5(8)3-7(4)9-6/h4-8H,2-3H2,1H3	InChI=1S/C7H12O2/c1-4-6-2-5(8)3-7(4)9-6/h4-8H,2-3H2,1H3/t4-,5+,6+,7-
