16
gdb 96631	2.19371	1.34391	0.83926	6.871	86.64	-0.1925	-0.0036	0.1889	1320.2467	0.12264	-396.92568	-396.915402	-396.914458	-396.961058	36.292	
C	 0.0447418085	 1.44948566	 0.092683723	-0.346591
N	-0.0750658398	 0.0201831799	-0.1063431538	-0.346402
H	-0.5256856384	-0.529554173	 0.6088466755	 0.278934
C	 0.5845485168	-0.6824088838	-1.0559878782	 0.429262
N	 1.267469922	 0.0249774619	-2.0031263428	-0.584611
C	 0.6046552361	-2.0796259306	-1.0568325108	-0.138139
C	 1.2330472896	-2.7872196094	-2.1060488439	 0.188605
C	 1.7796981989	-3.3508160478	-3.0241066862	-0.426926
C	-0.017420263	-2.7494268075	 0.0220227825	 0.181453
N	-0.5557214823	-3.2212970501	 0.9386843404	-0.394192
H	 1.0932520665	 1.7679992632	 0.1225364548	 0.149115
H	-0.4730100471	 2.0223211799	-0.6887913799	 0.132654
H	-0.419655205	 1.7065788206	 1.0455673907	 0.152694
H	 0.9177557062	 0.9334707127	-2.2618922624	 0.262312
H	 1.6201814139	-0.5341419785	-2.7675734915	 0.273609
H	 2.2596263172	-3.8726316276	-3.8138637275	 0.188223
69.9457	103.2761	126.9099	128.3186	138.0795	189.6393	285.778	364.2773	388.3488	402.8626	463.3406	479.8066	492.4182	531.5804	563.5605	584.9037	604.0521	692.5733	720.0123	757.6423	977.8324	1149.0478	1157.9489	1164.6317	1208.3523	1276.4292	1439.2241	1451.9295	1486.6057	1519.4616	1533.5512	1621.9258	1667.7559	2203.5702	2299.6982	3006.3934	3063.5478	3140.5035	3502.454	3565.7659	3623.0416	3685.9067
C[NH+]=C(N)[C-](C#C)C#N	CNC(=[NH2])[C](C#C)C#N	
InChI=1S/C6H6N3/c1-3-5(4-7)6(8)9-2/h1H,2H3,(H2,8,9)/q-1/p+1	InChI=1S/C6H7N3/c1-3-5(4-7)6(8)9-2/h1,9H,8H2,2H3
