18
gdb 8213	2.8321	2.30018	1.65318	2.2767	66.8	-0.2315	0.0654	0.297	843.1153	0.154112	-384.937	-384.929434	-384.92849	-384.968063	30.41	
O	-0.2259600919	 1.3592755468	 0.1973709121	-0.480124
C	-0.0546721336	-0.0079022237	-0.0522382337	 0.32041
C	-0.2876055474	-0.994259007	 1.0777237377	-0.422643
C	-1.3075464588	-0.8395912107	-0.0414324975	 0.420202
O	-2.5364185649	-0.2525809941	 0.2400226312	-0.488708
C	-1.2472525039	-1.8132809247	-1.2023905539	-0.259377
C	 0.2498620731	-1.8393963756	-1.6021605968	-0.22861
C	 0.8105195152	-0.4458048531	-1.2211718162	-0.27027
H	 0.4259534039	 1.6431696159	 0.846142717	 0.288792
H	 0.329167251	-1.8837658876	 1.1627219182	 0.10798
H	-0.596454617	-0.5590278654	 2.0224171381	 0.109321
H	-2.3640847094	 0.6924324596	 0.3536959928	 0.287352
H	-1.6334019523	-2.8088908184	-0.9623373304	 0.101049
H	-1.8647864329	-1.4059861247	-2.0111126847	 0.106929
H	 0.7756018651	-2.6201174714	-1.0434682929	 0.106295
H	 0.3901026804	-2.0644612393	-2.662102886	 0.103474
H	 0.6631603975	 0.2736555304	-2.0351262921	 0.108159
H	 1.8826829358	-0.475199837	-0.9960258827	 0.089768
193.8597	215.6623	232.632	275.0763	335.0769	358.9457	405.3263	462.8138	514.4376	554.1615	599.9246	699.465	736.5743	811.3727	893.4808	903.4868	913.1474	924.5252	953.8558	1007.8382	1024.8634	1081.6631	1101.4445	1171.7273	1199.282	1219.5511	1236.9165	1260.2053	1298.8555	1306.7163	1333.8131	1351.9535	1397.7727	1412.5125	1478.2457	1492.251	1494.8107	1517.7044	3031.7065	3041.5157	3051.6579	3072.7722	3083.3076	3104.5078	3121.2997	3214.5594	3743.3726	3810.8833
OC12CC1(O)CCC2	O[C@@]12C[C@]1(O)CCC2	
InChI=1S/C6H10O2/c7-5-2-1-3-6(5,8)4-5/h7-8H,1-4H2	InChI=1S/C6H10O2/c7-5-2-1-3-6(5,8)4-5/h7-8H,1-4H2/t5-,6+
