17
gdb 85451	2.6362	1.48238	1.10917	4.6311	68.05	-0.2671	0.0087	0.2758	1101.561	0.135122	-458.992206	-458.984103	-458.983159	-459.025162	30.472	
C	 0.0802362055	 1.6736777668	-0.0569780565	-0.398638
C	 0.0604470654	 0.1560661405	 0.0801417764	 0.046583
O	 0.7008853953	-0.4359594124	-1.0709944419	-0.23007
C	 1.9120888627	-0.9827640749	-0.7689130043	 0.433728
O	 2.6111782598	-1.485760532	-1.5968266298	-0.330886
C	 2.178299504	-0.8247409813	 0.725610277	-0.457912
C	 0.8387694208	-0.3948152148	 1.2768391279	 0.392393
C	 0.5486917801	-0.0562490528	 2.6698273169	-0.250531
O	 0.1470832182	-1.3164068729	 2.1212843561	-0.26622
H	 1.1042365369	 2.0596297492	-0.0291784134	 0.125059
H	-0.3704198144	 1.9682823161	-1.0079641064	 0.142436
H	-0.4873056524	 2.139075975	 0.7540898521	 0.125739
H	-0.9655887168	-0.2212619485	 0.1081622927	 0.117906
H	 2.5322617234	-1.7607859244	 1.159620371	 0.159937
H	 2.9575059049	-0.067540959	 0.863138007	 0.147235
H	 1.3460367673	-0.0986191756	 3.4108533337	 0.122883
H	-0.2637108407	 0.6296451711	 2.9076454015	 0.120358
74.0855	107.9312	216.9158	239.9893	296.2672	332.249	374.5845	492.8031	516.4238	529.1666	564.1039	682.8046	771.0936	819.5686	832.4197	908.787	951.2761	966.5651	994.1361	1051.4167	1095.9538	1119.8908	1135.5814	1154.3309	1166.0576	1187.4604	1249.8244	1266.8549	1326.8823	1371.7706	1409.2559	1432.3668	1451.6141	1487.8446	1495.1037	1537.9047	1889.5697	3043.4612	3063.5582	3077.6293	3080.2638	3118.2552	3128.3158	3134.4029	3165.1307
CC1OC(=O)CC11CO1	C[C@H]1OC(=O)C[C@]21CO2	
InChI=1S/C6H8O3/c1-4-6(3-8-6)2-5(7)9-4/h4H,2-3H2,1H3	InChI=1S/C6H8O3/c1-4-6(3-8-6)2-5(7)9-4/h4H,2-3H2,1H3/t4-,6-/m1/s1
