17
gdb 109080	3.63426	1.21437	1.16377	3.2031	68.43	-0.2349	0.0082	0.2431	1100.6192	0.136851	-458.939729	-458.932139	-458.931195	-458.972155	28.939	
O	-0.0136009326	 1.4058823893	-0.0994995375	-0.408858
C	-0.0284807992	-0.0032757297	 0.0225472087	-0.203587
C	-1.4355794749	-0.4760745577	 0.1175164557	 0.341164
C	-2.5812636636	 0.2093315524	 0.1405684295	-0.19274
C	-3.6618863458	-0.8614833107	 0.0599957741	 0.132603
O	-3.6722820825	-1.3541502253	-1.3053071507	-0.275245
C	-2.4721201899	-2.1275358132	-1.3909235204	-0.080495
C	-1.8684886501	-1.9389521426	 0.0397074298	-0.098376
O	-3.0964043412	-1.9328902972	 0.7864342876	-0.23013
H	 0.8998712286	 1.7020294492	-0.0515789729	 0.29214
H	 0.4632804134	-0.489869268	-0.8398014771	 0.098682
H	 0.5277719961	-0.3369897096	 0.9167683421	 0.103677
H	-2.7270319776	 1.276776446	 0.075636362	 0.125271
H	-4.6803010906	-0.6402624782	 0.370693308	 0.094281
H	-2.7229217021	-3.1773787332	-1.5756028278	 0.109303
H	-1.822202522	-1.7539103153	-2.1892197997	 0.103385
H	-1.187983366	-2.7134829361	 0.3899966684	 0.088924
74.7681	159.5912	183.334	239.6429	292.7321	388.0446	477.5428	531.6572	630.6045	677.2982	771.1786	806.8843	842.1183	852.06	874.8551	892.4862	942.0122	981.9282	1021.9668	1040.6455	1043.5032	1063.3083	1086.7976	1180.2109	1194.2624	1205.6501	1240.0531	1247.9068	1266.0383	1282.0995	1318.5158	1337.2642	1352.8618	1467.0958	1502.4029	1512.1334	1697.3611	2934.5002	2948.5051	3034.9313	3083.1898	3138.1572	3160.1864	3256.4543	3835.8058
OCC1=CC2OCC1O2	OCC1=C[C@H]2OC[C@@H]1O2	
InChI=1S/C6H8O3/c7-2-4-1-6-8-3-5(4)9-6/h1,5-7H,2-3H2	InChI=1S/C6H8O3/c7-2-4-1-6-8-3-5(4)9-6/h1,5-7H,2-3H2/t5-,6-/m0/s1
