14
gdb 129902	3.37385	1.7934	1.17835	3.7555	69.04	-0.2054	0.0039	0.2094	958.0408	0.105108	-429.064162	-429.057213	-429.056269	-429.095427	26.572	
N	-0.0316909283	 1.4114986572	 0.0144351015	-0.607482
C	-0.0374744529	 0.0112123046	 0.0210522355	 0.190662
C	-1.0756277218	-0.8963491202	 0.0665618553	-0.094801
N	-0.6618039526	-2.2221044265	 0.0560288918	-0.409419
C	 0.6403429377	-2.0984473765	 0.0034772983	 0.496112
N	 1.7879984943	-2.8628035193	-0.0387074843	-0.408525
C	 2.8368912933	-1.9743618848	-0.0845418923	 0.051852
N	 2.4596479452	-0.720676002	-0.0751556115	-0.26185
N	 1.0925655759	-0.8147540706	-0.0203954831	-0.003295
H	 0.4626420746	 1.7999823237	 0.8117564513	 0.244712
H	 0.394633046	 1.7925796964	-0.8246375484	 0.2447
H	-2.1246461001	-0.6447483733	 0.1073126616	 0.112875
H	 1.839989558	-3.8657998142	-0.0361135159	 0.288156
H	 3.8668499308	-2.2901268145	-0.1241188798	 0.156303
138.5933	192.8934	241.8782	261.0216	383.7013	415.7234	570.1323	616.8185	643.8285	645.1541	720.6429	743.6479	799.2502	817.0354	823.2974	860.3512	963.5098	1093.0235	1113.47	1173.5203	1209.0327	1221.939	1273.137	1294.4098	1323.7884	1404.7317	1440.6659	1553.8713	1603.3789	1648.194	1669.3695	3253.8868	3280.6593	3490.8742	3554.0119	3697.8111
NC1=CN=C2NC=NN12	Nc1cnc2[nH]cnn12	
InChI=1S/C4H5N5/c5-3-1-6-4-7-2-8-9(3)4/h1-2H,5H2,(H,6,7,8)	InChI=1S/C4H5N5/c5-3-1-6-4-7-2-8-9(3)4/h1-2H,5H2,(H,6,7,8)
