19
gdb 79972	2.67199	1.35749	1.14859	3.0574	81.33	-0.2374	-0.0232	0.2142	1136.7083	0.159409	-385.893554	-385.885268	-385.884324	-385.926765	31.606	
C	-0.5022996776	 1.2500249355	-0.0179598029	-0.418718
C	-0.1876940604	-0.1915580044	 0.3183621995	 0.005057
C	 1.0668654615	-0.9210412104	-0.1364528301	-0.109506
C	 2.2589984604	-0.0768278398	-0.4237016303	-0.073867
C	 2.7171369786	 0.5445002827	 0.6667229136	-0.112684
C	 1.9419853427	 0.1468607975	 1.9139870384	-0.109048
C	 1.4881418761	 1.3264309099	 2.7588611945	 0.149858
O	 1.8420752104	 1.5155582114	 3.8949282358	-0.253509
C	 0.7932475239	-0.7070011706	 1.3531821556	-0.10989
H	 0.3954149697	 1.8680252266	-0.0802537416	 0.124053
H	-1.0111862441	 1.3061656455	-0.9870263956	 0.115222
H	-1.1695528557	 1.6916065627	 0.7299579826	 0.121043
H	-1.0704776031	-0.8266795997	 0.2726302368	 0.091721
H	 0.9667701872	-1.8889803219	-0.6162098687	 0.090174
H	 2.6823210339	 0.022758409	-1.4171143321	 0.103312
H	 3.5465820363	 1.2415430241	 0.7003440378	 0.108082
H	 2.5728004028	-0.4599507165	 2.576653094	 0.102068
H	 0.7907329991	 2.0287008449	 2.2552290092	 0.080122
H	 0.4528116783	-1.5265087066	 1.9750249135	 0.096509
52.8462	134.7092	189.3902	242.6744	247.3026	291.8885	423.1618	426.3292	506.5152	579.1956	707.867	720.504	757.4307	790.8292	828.7944	893.7581	938.8681	959.44	961.3512	979.0391	1012.4135	1049.9321	1083.1812	1086.8367	1096.1154	1115.8584	1132.9962	1149.2803	1233.6517	1266.3563	1283.2472	1303.592	1359.8304	1378.9904	1410.4986	1427.5242	1429.7866	1499.767	1502.3403	1657.2235	1821.3983	2911.298	3024.0093	3032.3017	3087.4653	3115.9292	3132.4674	3160.419	3178.0733	3186.4772	3211.1204
CC1C2C=CC(C=O)C12	C[C@H]1[C@H]2C=C[C@@H](C=O)[C@@H]12	
InChI=1S/C8H10O/c1-5-7-3-2-6(4-9)8(5)7/h2-8H,1H3	InChI=1S/C8H10O/c1-5-7-3-2-6(4-9)8(5)7/h2-8H,1H3/t5-,6-,7+,8+/m0/s1
