18
gdb 111568	3.31775	1.50768	1.27422	0.6165	70.87	-0.2209	0.0607	0.2816	1026.6106	0.148983	-438.996425	-438.989211	-438.988266	-439.028289	28.377	
C	-0.0248111571	 1.333344689	 0.0620002186	-0.23973
O	-0.0111702938	-0.0644157384	-0.1269774314	-0.241055
C	-1.2689761795	-0.654177008	 0.0076913008	 0.213243
C	-1.2594695839	-2.1472137877	-0.3607631904	-0.14747
N	-0.2359477132	-2.6670866611	 0.6132407802	-0.307275
C	-1.2995087073	-2.4323963932	 1.6221870474	-0.052027
C	-2.4506601693	-2.5940301937	 0.6214500779	 0.093499
O	-3.145232761	-1.4311136681	 1.0948064069	-0.294601
C	-1.8109918255	-0.9450251056	 1.4407144899	 0.004019
H	 0.9932651253	 1.6896021181	-0.1109487028	 0.130054
H	-0.7031698235	 1.8339755023	-0.6466343607	 0.10605
H	-0.3270069387	 1.6149050883	 1.0817839117	 0.105686
H	-2.0402952749	-0.0963667369	-0.5412277771	 0.074552
H	-1.1693755004	-2.435009962	-1.4060864952	 0.077631
H	-0.1640472717	-3.6766209719	 0.4857988582	 0.217611
H	-1.2277127053	-2.865109246	 2.6183844468	 0.084662
H	-3.0614779134	-3.4734715466	 0.4170691872	 0.089587
H	-1.7956505069	-0.1827356984	 2.2165848419	 0.085565
89.0287	168.374	181.7587	277.6679	382.3471	487.6774	518.0929	543.6524	714.1267	761.43	776.818	840.9415	845.3029	880.7125	910.0216	939.1714	954.3625	967.1817	1010.8778	1018.8807	1049.8079	1076.3245	1119.1032	1155.0651	1160.9008	1177.1479	1185.0924	1185.587	1208.9054	1239.1497	1265.2339	1277.7638	1309.2063	1341.1103	1357.3491	1395.778	1482.8641	1488.8249	1507.7799	2975.3952	3014.3002	3023.0769	3117.928	3119.4118	3137.6496	3146.3653	3152.2522	3458.3148
COC1C2NC3C2OC13	CO[C@H]1[C@H]2N[C@@H]3[C@H]2O[C@H]13	
InChI=1S/C6H9NO2/c1-8-5-2-4-3(7-2)6(5)9-4/h2-7H,1H3	InChI=1S/C6H9NO2/c1-8-5-2-4-3(7-2)6(5)9-4/h2-7H,1H3/t2-,3+,4-,5-,6-/m0/s1
