17
gdb 31882	4.09252	0.95703	0.8144	3.9273	88.47	-0.2111	-0.0125	0.1986	1409.35	0.136261	-380.888374	-380.87962	-380.878675	-380.922346	32.263	
C	 0.2876584177	 1.5398219169	 0.149101911	-0.369632
C	-0.0685108584	 0.0613031898	-0.0904077904	-0.315939
C	 0.5599864236	-0.5221444975	-1.3138049064	 0.308167
C	 0.0328789628	-0.9604679491	-2.5088886645	-0.179681
N	 1.0091887072	-1.4085480966	-3.3551470075	-0.303243
C	 2.1447042578	-1.252170168	-2.6946177418	 0.183087
N	 1.9143553436	-0.7148859739	-1.4499488641	-0.345412
C	 3.4466729465	-1.5710376396	-3.1407794767	 0.264583
C	 4.5685101364	-1.8322773358	-3.4916864527	-0.412124
H	 1.3662234145	 1.6768607921	 0.2801474359	 0.112023
H	-0.024037136	 2.1570373911	-0.6983253701	 0.13167
H	-0.20686215	 1.915605784	 1.049800991	 0.12004
H	 0.2116227584	-0.5275189082	 0.7936217931	 0.111697
H	-1.15336664	-0.0419913364	-0.1922926915	 0.123863
H	-1.0084359494	-0.9748410848	-2.7957552801	 0.106716
H	 2.6226453415	-0.5121651104	-0.7637483948	 0.268459
H	 5.5514624239	-2.0678355036	-3.8170603204	 0.195726
50.9037	109.1435	138.0883	189.8408	213.7939	323.7778	382.3494	473.129	537.7398	547.4296	559.3496	572.0767	667.6129	682.2271	707.1147	736.372	785.1584	851.6399	958.9654	1005.0422	1045.8009	1069.7835	1087.1794	1191.2648	1198.1754	1278.8024	1281.883	1354.9323	1407.4375	1416.0277	1419.5179	1479.1261	1486.586	1497.3768	1506.4113	1606.0848	2233.4373	3016.2278	3037.0859	3077.0414	3106.7427	3118.6742	3242.2251	3502.5648	3659.3954
CCC1=CN=C(N1)C#C	CCc1cnc([nH]1)C#C	
InChI=1S/C7H8N2/c1-3-6-5-8-7(4-2)9-6/h2,5H,3H2,1H3,(H,8,9)	InChI=1S/C7H8N2/c1-3-6-5-8-7(4-2)9-6/h2,5H,3H2,1H3,(H,8,9)
