20
gdb 55797	3.7911	1.00019	0.9057	3.0156	80.69	-0.2259	-0.0074	0.2185	1343.7139	0.169615	-403.085515	-403.076727	-403.075783	-403.12048	32.688	
C	-1.7916010956	 0.0031600456	 2.0286172114	-0.459224
C	-2.7375333504	 0.0175493248	 0.8459365222	 0.377304
O	-3.8227846809	 0.5496483423	 0.8881449203	-0.295276
C	-2.2519067894	-0.6381852658	-0.4528024142	-0.269389
N	-1.4116781499	-1.8034840904	-0.1997562959	-0.115943
C	-0.8567883766	-2.5770152314	-1.3859908884	-0.002483
C	-0.6370334646	-3.7446757481	-0.3898317937	-0.207802
C	-2.0624947993	-3.1839965621	-0.1531973677	-0.011811
C	-2.2599184339	-3.1727645283	-1.6971026067	-0.240437
H	-2.2078373417	 0.6068153272	 2.8360250651	 0.130759
H	-1.6310017564	-1.0248019524	 2.3668934591	 0.147266
H	-0.8057677014	 0.3792137655	 1.7359291334	 0.136098
H	-3.1393768205	-0.7878270411	-1.0819212701	 0.109371
H	-1.6241919957	 0.1124083749	-0.9564818543	 0.122339
H	-0.1369238379	-2.1250226961	-2.0710153984	 0.082379
H	-0.5656835912	-4.7473273247	-0.813278432	 0.0977
H	 0.0829148571	-3.5555294983	 0.4064940108	 0.104534
H	-2.7766021133	-3.455970225	 0.6259993458	 0.087447
H	-3.0141435575	-2.5021185626	-2.1072145596	 0.108954
H	-2.2893181311	-4.1429976239	-2.199959047	 0.098212
33.9469	56.1172	107.7682	142.3366	290.718	316.291	399.2543	466.6895	536.5116	561.0794	617.6922	736.2909	780.1344	795.3281	816.2507	867.564	894.4818	902.9039	906.8778	994.6564	1001.7341	1017.1182	1054.8613	1077.4311	1091.8799	1119.7442	1122.7764	1173.4859	1185.9038	1193.5647	1219.7183	1225.8834	1264.6919	1267.1538	1280.0931	1344.6578	1382.2035	1450.4028	1458.8107	1468.6534	1483.4794	1529.4864	1814.1584	2995.5741	3037.8781	3047.76	3068.7028	3079.8566	3096.7642	3106.1481	3110.1104	3142.9281	3155.0058	3160.7529
CC(=O)CN1C2CC1C2	CC(=O)CN1[C@H]2C[C@@H]1C2	
InChI=1S/C7H11NO/c1-5(9)4-8-6-2-7(8)3-6/h6-7H,2-4H2,1H3	InChI=1S/C7H11NO/c1-5(9)4-8-6-2-7(8)3-6/h6-7H,2-4H2,1H3/t6-,7+
