23
gdb 115105	2.56302	1.27874	1.03051	0.9492	87.05	-0.2393	0.0294	0.2687	1285.5287	0.206249	-388.302854	-388.293406	-388.292462	-388.336845	35.997	
C	-0.1702811222	 1.3425729656	 0.0311921061	-0.239291
O	 0.1081485922	-0.0350675755	-0.04574977	-0.252676
C	 0.7229264682	-0.5864052846	 1.1085762259	 0.136146
C	-0.2406667594	-0.693963225	 2.3022663194	-0.276656
C	 0.3242156476	-1.5638124399	 3.3953826364	-0.051653
C	 1.3661872006	-2.3758090027	 3.220243305	-0.044638
C	 2.0938094682	-2.5260409969	 1.9082984739	-0.273613
C	 1.2966921108	-1.9575753912	 0.7178216904	-0.00223
C	 0.2137771266	-2.9328503652	 0.2324814044	-0.397883
H	 0.729538866	 1.9252085017	 0.286253897	 0.101034
H	-0.5218058197	 1.655884661	-0.9553944268	 0.124712
H	-0.951694017	 1.5793641262	 0.7680716686	 0.105855
H	 1.56676363	 0.0608940549	 1.4063310534	 0.059636
H	-0.4608327664	 0.3024804582	 2.7042802496	 0.099473
H	-1.2026005993	-1.0924224677	 1.9495808739	 0.115541
H	-0.1595133473	-1.5063025518	 4.3676765258	 0.082394
H	 1.7332410179	-2.9665199005	 4.0565203061	 0.082856
H	 3.0735209674	-2.0307957339	 1.9800941507	 0.104108
H	 2.317844909	-3.5853353691	 1.727362015	 0.100348
H	 1.9861695457	-1.780869657	-0.1158540408	 0.072795
H	-0.4455572608	-3.2440695077	 1.0489482914	 0.118438
H	-0.3970175068	-2.4725085197	-0.5475355423	 0.130062
H	 0.6741552289	-3.8365337792	-0.180054123	 0.105241
85.6697	127.025	142.3144	203.1374	208.4488	243.376	316.9432	332.0181	394.5659	403.5771	465.713	541.1429	584.2585	679.4289	764.7309	816.3355	888.4289	899.139	944.1685	978.9265	998.1733	1004.044	1013.911	1044.3401	1087.5368	1107.8506	1136.5325	1150.7456	1181.5418	1199.6999	1215.7839	1225.6634	1255.5715	1304.607	1327.7826	1351.8141	1369.6033	1385.	1402.8517	1411.8582	1417.9649	1475.3142	1477.7181	1479.7639	1494.8426	1500.2416	1509.4212	1512.2552	1724.3271	2941.8864	2973.0658	2996.7937	3010.7072	3022.6389	3034.5654	3037.3445	3040.7787	3047.5913	3102.6125	3106.9625	3127.9177	3139.9409	3163.8454
COC1CC=CCC1C	CO[C@H]1CC=CC[C@H]1C	
InChI=1S/C8H14O/c1-7-5-3-4-6-8(7)9-2/h3-4,7-8H,5-6H2,1-2H3	InChI=1S/C8H14O/c1-7-5-3-4-6-8(7)9-2/h3-4,7-8H,5-6H2,1-2H3/t7-,8+/m1/s1
