13
gdb 43429	3.31969	1.29383	0.93098	0.7678	81.45	-0.261	-0.0922	0.1688	1155.5269	0.089614	-415.633848	-415.626162	-415.625217	-415.66614	28.81	
N	-0.0752030326	 1.3213724846	 0.0104434563	-0.526902
C	-0.0022356199	 0.0502538314	 0.0034740881	 0.422003
N	 1.1153718146	-0.7877218129	-0.0065832331	-0.411457
C	 0.7642352936	-2.1343354316	-0.0117591166	 0.357837
O	 1.5194580073	-3.07146001	-0.0204253976	-0.333768
C	-0.75256307	-2.1335989667	-0.0040070601	 0.046296
C	-1.1684949321	-0.851699682	 0.0047450837	-0.277707
C	-1.5031788894	-3.3237190681	-0.0063279316	 0.259137
C	-2.1281902078	-4.3527707601	-0.0084923687	-0.376167
H	 0.8498533508	 1.7555911005	 0.0079710417	 0.222214
H	 2.0743923888	-0.4806071718	-0.0098090835	 0.266655
H	-2.181117845	-0.477622629	 0.0118472945	 0.146204
H	-2.6769455582	-5.2623060344	-0.0105187432	 0.205652
128.4447	131.8711	138.0494	305.0824	356.7186	419.5612	453.4685	510.5151	519.0935	621.7856	632.6882	647.5494	673.2196	693.0988	769.1401	798.5278	873.8683	918.9148	950.7592	1090.6341	1140.0026	1193.8383	1287.0177	1344.339	1393.6962	1644.1499	1738.1989	1847.7304	2232.2734	3260.5325	3461.3998	3500.561	3659.4166
N=C1NC(=O)C(=C1)C#C	[NH]C1=C[C](C(=O)N1)C#C	
InChI=1S/C6H4N2O/c1-2-4-3-5(7)8-6(4)9/h1,3H,(H2,7,8,9)	InChI=1S/C6H4N2O/c1-2-4-3-5(7)8-6(4)9/h1,3H,(H2,7,8,9)
