17
gdb 35806	3.10039	1.46356	1.15573	0.9168	73.3	-0.2486	0.0459	0.2945	1061.9508	0.136435	-421.772499	-421.764831	-421.763886	-421.804841	29.423	
C	-0.0500423121	-1.2346036005	-0.0671536752	-0.446279
C	-0.0070700585	-0.0354661233	-0.0046633335	 0.324304
C	 0.0263232723	 1.41262167	 0.080490301	-0.211738
C	-0.4793711533	 1.9942613412	 1.4246048583	-0.109586
O	 0.0416485392	 3.318343835	 1.4694334135	-0.258731
C	 1.3273182709	 3.3042647149	 0.8867117917	 0.052585
C	 2.4488128897	 2.6267085981	 1.7040145726	-0.104394
O	 2.398912938	 1.4483608842	 0.8660308498	-0.285365
C	 1.4277960334	 2.0466521611	-0.0124225749	 0.086162
H	-0.0782509425	-2.2945135228	-0.1232965632	 0.197219
H	-0.5745669079	 1.8480086789	-0.7289911347	 0.11176
H	-1.567060783	 2.0569696237	 1.4890283269	 0.123703
H	-0.1070956262	 1.3831326852	 2.2574522972	 0.117348
H	 1.5323744817	 4.2950842907	 0.4809313168	 0.095935
H	 3.4258377362	 3.121929109	 1.6494936113	 0.105811
H	 2.2022487153	 2.4123316367	 2.7498962177	 0.113652
H	 1.7979265169	 2.1353357378	-1.0375040952	 0.087614
89.8481	134.8636	175.2975	240.6303	337.144	415.7891	490.3707	500.6496	625.2413	636.6319	645.0963	663.6704	808.0324	851.1961	874.3444	908.8081	956.4671	1006.7349	1018.8498	1029.1182	1052.7412	1064.1162	1105.9305	1137.6122	1171.4789	1223.2547	1236.4393	1244.5299	1289.0847	1306.2688	1316.6883	1351.4996	1365.2203	1391.1559	1509.2497	1517.5809	2242.4971	3016.9776	3022.005	3028.3822	3073.3382	3074.8619	3114.2786	3119.148	3504.9839
C#CC1COC2COC12	C#C[C@H]1CO[C@H]2CO[C@@H]12	
InChI=1S/C7H8O2/c1-2-5-3-8-6-4-9-7(5)6/h1,5-7H,3-4H2	InChI=1S/C7H8O2/c1-2-5-3-8-6-4-9-7(5)6/h1,5-7H,3-4H2/t5-,6-,7-/m0/s1
