19
gdb 89128	5.50166	0.5699	0.54604	3.7243	73.86	-0.2536	-0.0245	0.229	1967.9711	0.155634	-460.131697	-460.12152	-460.120576	-460.168812	34.89	
O	-0.0504544214	 1.449036395	 0.3667147494	-0.417477
C	-0.0070217726	 0.0773488237	 0.0914551579	 0.093621
C	-0.6317345546	-0.8987691108	 1.0530367344	-0.315743
C	-1.304797233	-0.5882729494	-0.2706757958	-0.040465
C	-2.5825461517	 0.2043065647	-0.2837464287	-0.071508
O	-3.6555942895	-0.6592381036	 0.0620354383	-0.25171
C	-4.905897649	-0.0267701757	 0.0358032385	-0.139922
C	-5.9616159981	-1.0459815492	 0.4268912937	 0.139411
O	-7.1348730155	-0.7965437676	 0.5070563918	-0.239398
H	 0.5516919808	 1.6234905962	 1.0973209356	 0.290691
H	 0.8799426293	-0.245298138	-0.4534351363	 0.090528
H	-0.1724782735	-1.8706674133	 1.1945873326	 0.114966
H	-1.0960284095	-0.4792489217	 1.9395485396	 0.118365
H	-1.2499746443	-1.3574036573	-1.0351271998	 0.095699
H	-2.5187261618	 1.0435394677	 0.4226590251	 0.105326
H	-2.7579350423	 0.6336069695	-1.2841559377	 0.093311
H	-4.9592294108	 0.824476448	 0.7367196981	 0.119357
H	-5.152881109	 0.370954975	-0.964273008	 0.119606
H	-5.5458077236	-2.0566842933	 0.6347011213	 0.09534
36.9568	55.1165	87.7966	101.3235	113.3828	190.8842	254.9849	301.7049	365.0736	389.2217	467.4309	542.9114	603.6084	741.4524	774.8528	837.5288	906.2386	927.2804	984.4619	1017.7696	1044.9198	1066.4812	1090.9795	1116.0917	1135.6786	1161.6068	1179.7217	1189.1849	1235.8324	1240.122	1269.2853	1305.5043	1339.6076	1372.7705	1404.1066	1423.7919	1444.9943	1484.0174	1490.5085	1523.9294	1844.6089	2898.0188	2952.8262	2969.4631	2979.8586	3027.7062	3100.3061	3133.8195	3156.4724	3223.1321	3809.9436
OC1CC1COCC=O	O[C@H]1C[C@H]1COCC=O	
InChI=1S/C6H10O3/c7-1-2-9-4-5-3-6(5)8/h1,5-6,8H,2-4H2	InChI=1S/C6H10O3/c7-1-2-9-4-5-3-6(5)8/h1,5-6,8H,2-4H2/t5-,6-/m0/s1
