21
gdb 68932	2.32218	1.68262	1.22366	2.3566	77.54	-0.228	0.0658	0.2938	1096.7515	0.183286	-424.228068	-424.219569	-424.218625	-424.260426	34.735	
O	-0.1733516973	 1.3735533947	 0.0057058572	-0.475797
C	-0.01993873	-0.0308009428	 0.0372666338	 0.305192
C	-0.495091083	-0.7362687884	 1.2955208889	-0.415333
C	-1.3470004575	-0.754803829	 0.0374271031	 0.422035
O	-2.4979253629	 0.0357804197	 0.0296779099	-0.487551
C	-1.5177210916	-2.027258337	-0.7654644773	-0.250301
C	-0.181839182	-2.7050552293	-1.1045447048	-0.216373
C	 0.7927786396	-1.6974255952	-1.7278905386	-0.185769
C	 1.1737880867	-0.5762610189	-0.7437960817	-0.279251
H	 0.3383235122	 1.7533923074	 0.7274747363	 0.287756
H	 0.0332917083	-1.6316077726	 1.6096541083	 0.107774
H	-0.8693985752	-0.1144941813	 2.1027621438	 0.105057
H	-2.1867384388	 0.9523211017	 0.0278937513	 0.286481
H	-2.182911954	-2.7148816558	-0.2298199979	 0.100765
H	-2.0303413443	-1.7528591323	-1.6955916331	 0.106228
H	 0.2643789699	-3.1491692201	-0.2045942718	 0.0955
H	-0.3639051552	-3.5348847581	-1.7953100188	 0.097516
H	 1.6996357449	-2.2022435715	-2.0777414284	 0.091857
H	 0.3178337562	-1.2547478282	-2.6130085955	 0.101855
H	 1.6196369757	 0.2603892592	-1.2902140234	 0.107823
H	 1.9377879482	-0.9422456324	-0.0452802012	 0.094534
116.837	169.9037	260.4649	287.0525	309.2831	360.7363	362.5316	419.8554	436.6529	474.8304	504.3252	548.9206	558.0662	682.7733	720.2135	825.3466	856.0869	875.1876	895.3418	934.2558	950.9767	957.5171	978.8501	1026.1609	1075.5196	1090.5186	1135.8462	1160.0117	1188.506	1208.477	1234.741	1277.0083	1286.111	1302.5313	1349.6889	1365.9169	1374.5153	1381.57	1390.4403	1427.7136	1471.0573	1488.3999	1490.2355	1495.3055	1507.1591	3015.1078	3016.9505	3024.4952	3027.2867	3063.208	3070.3063	3073.5497	3083.4223	3115.3921	3209.0904	3733.8705	3807.117
OC12CC1(O)CCCC2	O[C@@]12C[C@]1(O)CCCC2	
InChI=1S/C7H12O2/c8-6-3-1-2-4-7(6,9)5-6/h8-9H,1-5H2	InChI=1S/C7H12O2/c8-6-3-1-2-4-7(6,9)5-6/h8-9H,1-5H2/t6-,7+
