21
gdb 116253	2.12347	1.43447	1.04406	1.6177	83.86	-0.2452	0.0507	0.2959	1253.0246	0.181946	-387.059395	-387.049789	-387.048844	-387.094256	35.361	
C	 0.0380446891	 1.5047751645	 0.1699611791	-0.237767
O	 0.3402204904	 0.1545329786	-0.0945307845	-0.242106
C	 0.7803070175	-0.5644357506	 1.029533507	 0.160437
C	-0.2986490628	-0.8696043275	 2.0960262162	-0.234954
C	 0.1304254136	-2.2150455711	 2.7453569702	-0.205706
C	 1.4078572805	-2.6617870961	 1.9909695937	-0.216694
C	 1.313222724	-1.9580052989	 0.6156535697	-0.226841
C	 0.4064269951	-2.6566103033	-0.2901754269	 0.374587
C	-0.3350095279	-3.2683416657	-1.0122671832	-0.499958
H	 0.9002433702	 2.0371045136	 0.6033839636	 0.100744
H	-0.2187361031	 1.9703715137	-0.7846216013	 0.128206
H	-0.8146598008	 1.6163460604	 0.8555374155	 0.108216
H	 1.6190646244	-0.0250486282	 1.5040899981	 0.061701
H	-0.3927905044	-0.0632010275	 2.827517481	 0.095505
H	-1.2620718468	-0.9685773523	 1.5872637116	 0.118951
H	 0.3155883707	-2.1197113909	 3.8182910367	 0.098128
H	-0.6594306802	-2.9604712588	 2.6245629406	 0.115334
H	 2.3048812319	-2.3008140227	 2.5062307977	 0.098359
H	 1.494589211	-3.7457262237	 1.8972863642	 0.110228
H	 2.2938847443	-1.86532142	 0.1371856038	 0.101002
H	-0.9878984768	-3.7918812937	-1.6655279026	 0.192627
67.313	91.7247	105.514	133.2374	201.0614	220.9998	276.3172	386.8599	408.8534	462.8568	534.7305	621.9682	630.4458	655.5665	690.4088	804.9491	821.5099	852.2538	896.0062	954.8447	988.6406	1015.8429	1031.4187	1063.9498	1116.8093	1168.2827	1174.4937	1187.0469	1195.6471	1226.0383	1239.0419	1275.1384	1289.0589	1319.7631	1337.3345	1344.0125	1375.3623	1395.8448	1480.199	1484.796	1490.0659	1493.1989	1509.5216	1511.7784	2233.6232	2941.7386	2972.3759	3024.2813	3041.7869	3056.0201	3056.3928	3068.1324	3091.8502	3109.4932	3114.0384	3119.3395	3505.2847
COC1CCCC1C#C	CO[C@H]1CCC[C@H]1C#C	
InChI=1S/C8H12O/c1-3-7-5-4-6-8(7)9-2/h1,7-8H,4-6H2,2H3	InChI=1S/C8H12O/c1-3-7-5-4-6-8(7)9-2/h1,7-8H,4-6H2,2H3/t7-,8+/m1/s1
