14
gdb 130441	2.71736	1.55253	0.99956	8.4708	68.95	-0.2296	-0.0885	0.1412	1098.6649	0.101678	-466.12678	-466.11888	-466.117935	-466.160152	28.086	
N	 0.1152761205	 0.9923142371	 0.0443926581	-0.533087
H	 0.9898551474	 0.5257162175	 0.2466114465	 0.258726
H	 0.3266114999	 1.7851454909	-0.5492017032	 0.257571
H	-1.769615679	 0.0426351862	-0.473758996	 0.291599
C	-0.5639098316	 1.4111791845	 1.2727358927	-0.268905
C	-2.0075965698	 1.0005697553	 1.2485368923	 0.29783
N	-2.4521170389	 0.2863046698	 0.2521483536	-0.177756
N	-3.7105449175	-0.1641902703	 0.0747432054	-0.133651
N	-4.5619379113	 0.1762140453	 1.0198528352	-0.057675
N	-4.2630598265	 0.8855532603	 2.070998776	-0.247315
C	-2.9622452768	 1.3505817279	 2.2909725063	 0.348951
O	-2.6262365978	 2.0018318595	 3.2667046512	-0.366158
H	-0.1082784536	 0.9569597257	 2.1607324745	 0.166471
H	-0.5296417848	 2.4919768803	 1.4594940475	 0.163399
53.693	91.9063	190.3929	208.683	253.0352	347.6077	411.5907	538.2339	588.8488	613.3393	623.0536	765.8556	782.0967	862.4811	907.6485	940.6252	992.2432	1021.1287	1063.7255	1072.7688	1154.2678	1172.4977	1291.4935	1327.2824	1332.4846	1370.0454	1455.7737	1475.5251	1633.0133	1666.2582	1754.634	3035.1001	3068.5339	3401.8921	3542.9141	3621.023
[NH3+]CC1=N[N-]N=NC1=O	NC[C]1N[N]N=NC1=O	
InChI=1S/C3H5N5O/c4-1-2-3(9)6-8-7-5-2/h1,4H2,(H,6,7,9)	InChI=1S/C3H5N5O/c4-1-2-3(9)6-8-7-5-2/h1,4H2,(H,5,8)
