14
gdb 5476	3.40893	1.93794	1.23698	3.5848	70.76	-0.202	-0.0309	0.1711	909.9111	0.109122	-378.775519	-378.768347	-378.767402	-378.806737	26.994	
N	 0.0484194678	 1.4235406454	 0.1490092864	-0.603271
C	 0.0328303787	 0.0394653853	 0.0420501528	 0.208552
C	-1.0977750063	-0.7925796816	 0.0167456736	 0.176133
N	-0.633687396	-2.1004078341	-0.0210875556	-0.287384
C	 0.7148313396	-2.110799831	-0.021020036	-0.048681
C	 1.1714761596	-0.8030787733	 0.0178567129	-0.224467
C	-2.5046086281	-0.5340981814	 0.0230488339	 0.057522
O	-3.3612952834	-1.4067989187	-0.0055583423	-0.340597
H	 0.8836414406	 1.8574629306	-0.2162434144	 0.252088
H	-0.7806536056	 1.8913878469	-0.1864006743	 0.253349
H	-1.2661290775	-2.8829020677	-0.0457536081	 0.277816
H	 1.2710492479	-3.0349758215	-0.0499006384	 0.132393
H	 2.2044247261	-0.4905707754	 0.0323603696	 0.097118
H	-2.7876553434	 0.5413435165	 0.0570897498	 0.04943
147.3792	173.9048	224.5251	282.5826	339.1627	353.4993	514.9672	560.857	597.1201	649.0551	656.482	713.1983	759.2716	820.8748	835.6731	916.3849	1015.1594	1047.4764	1091.693	1128.7941	1234.2943	1290.5239	1351.6967	1399.5876	1472.4794	1498.1429	1538.9433	1603.7163	1661.5675	1736.114	2874.1122	3244.2421	3264.0508	3566.7939	3662.6899	3671.8731
NC1=C(NC=C1)C=O	Nc1c([nH]cc1)C=O	
InChI=1S/C5H6N2O/c6-4-1-2-7-5(4)3-8/h1-3,7H,6H2	InChI=1S/C5H6N2O/c6-4-1-2-7-5(4)3-8/h1-3,7H,6H2
