18
gdb 39591	3.3959	1.58268	1.13687	0.7395	77.95	-0.2233	-0.0003	0.223	1053.7936	0.15242	-398.167298	-398.160325	-398.159381	-398.198533	28.033	
C	 0.1784408014	 1.4765225602	-0.4429321709	-0.21778
C	 1.2262081361	 2.2556778872	 0.3905963153	-0.146664
N	 2.2700248575	 1.4748502269	 1.0599162809	-0.325677
C	 2.2029483662	 0.2183861307	 0.9397938098	 0.385939
N	 2.9864704749	-0.7066386132	 1.6386064458	-0.356679
C	 2.2931302284	-1.9151379082	 1.6050381562	 0.050782
N	 1.275741747	-1.9737676894	 0.8327473411	-0.270283
C	 1.2090256568	-0.652993198	 0.1813634591	-0.035626
C	-0.1272867511	 0.0817342689	 0.1324066914	-0.222442
H	-0.7353692132	 2.0756670623	-0.5117736292	 0.099833
H	 0.5453766335	 1.3523038678	-1.4696833526	 0.102744
H	 1.710406793	 3.0099673137	-0.2413552788	 0.108258
H	 0.7187603353	 2.8223136011	 1.1836126117	 0.109436
H	 3.5842599325	-0.4231921057	 2.3995395108	 0.259915
H	 2.6478546143	-2.7452151018	 2.2077777751	 0.133457
H	 1.5646373135	-0.7873738876	-0.8517970807	 0.111154
H	-0.5456417511	 0.1556289052	 1.1430804839	 0.106152
H	-0.8523877652	-0.4543145102	-0.4862268288	 0.107481
125.3564	217.6428	276.8472	303.8931	387.5151	452.25	504.1705	577.7108	595.1094	666.34	698.9213	797.0756	850.0902	866.4461	894.8659	913.3557	948.9952	965.8796	1041.2642	1077.5833	1083.6305	1099.701	1142.3496	1171.6145	1202.6176	1237.5432	1285.6474	1291.9792	1330.573	1352.4767	1355.4311	1369.3884	1377.5483	1398.6136	1485.2352	1491.9327	1503.5117	1665.7737	1787.6655	2987.597	3010.5524	3023.0163	3041.9973	3046.0359	3077.7255	3094.6283	3193.835	3634.7092
C1CN=C2NC=NC2C1	C1CN=C2N[CH][N][C@H]2C1	
InChI=1S/C6H9N3/c1-2-5-6(7-3-1)9-4-8-5/h4-5H,1-3H2,(H,7,8,9)	InChI=1S/C6H9N3/c1-2-5-6(7-3-1)9-4-8-5/h4-5H,1-3H2,(H,7,8,9)/t5-/m0/s1
