19
gdb 126952	6.26227	0.79132	0.71378	1.7911	80.24	-0.197	0.0292	0.2262	1619.0778	0.160414	-415.428888	-415.419299	-415.418355	-415.464667	33.765	
C	 0.0735572104	 1.4698725213	 0.0904250839	-0.399321
C	-0.1436478861	-0.0180327147	-0.1635727659	-0.102896
N	 0.8515941761	-0.528106462	-1.0947536704	-0.386633
C	 0.8795448731	-1.8668999212	-1.3955999397	 0.431951
N	 0.2922749765	-2.7960354313	-0.6487221983	-0.316881
N	 0.6519743479	-3.9357337224	-1.3174263738	-0.244525
C	 1.396551703	-3.6461340154	-2.3996846256	 0.370825
C	 1.9421050999	-4.6713819763	-3.3349302676	-0.494391
N	 1.5625957978	-2.336317501	-2.484928198	-0.385593
H	 1.072990547	 1.6550430873	 0.4949137859	 0.12804
H	-0.0306717348	 2.0491920149	-0.8346352963	 0.113108
H	-0.6654834352	 1.8485805623	 0.801953134	 0.120006
H	-0.0457466313	-0.5822951957	 0.7690124583	 0.129894
H	-1.1691293729	-0.1973149203	-0.5255249436	 0.095123
H	 1.0383587852	 0.0522753724	-1.8995540226	 0.240404
H	 0.3429282151	-4.8303043144	-0.9775318536	 0.269774
H	 1.5833555445	-5.6727879807	-3.0824010842	 0.122522
H	 1.6450499089	-4.4449180399	-4.3626529677	 0.154567
H	 3.0359645751	-4.678984613	-3.3034559749	 0.154026
33.7167	57.7188	92.5105	127.2266	222.3531	266.6295	304.8815	341.176	366.569	465.5639	475.8349	537.3346	683.2674	695.4069	774.2123	802.8126	824.0208	930.9466	996.8843	1024.8477	1058.0609	1071.7708	1088.2442	1153.0822	1172.4431	1186.212	1262.9525	1292.7733	1338.7074	1397.332	1413.8169	1419.7198	1446.6133	1471.4229	1487.2194	1495.8769	1500.7552	1526.7222	1531.2623	1596.4533	1612.4402	2971.8313	3033.3247	3046.5048	3072.4739	3102.9411	3110.5296	3120.7742	3124.8873	3606.5981	3675.9554
CCNC1=NNC(C)=N1	CCNc1n[nH]c(C)n1	
InChI=1S/C5H10N4/c1-3-6-5-7-4(2)8-9-5/h3H2,1-2H3,(H2,6,7,8,9)	InChI=1S/C5H10N4/c1-3-6-5-7-4(2)8-9-5/h3H2,1-2H3,(H2,6,7,8,9)
