18
gdb 28571	5.45246	0.95329	0.86566	3.8482	81.87	-0.2041	0.025	0.2291	1360.3308	0.150131	-398.151598	-398.143274	-398.14233	-398.185074	30.71	
C	 0.0836084145	 1.4958527847	 0.0742002982	-0.508675
C	 0.0103542447	 0.011653246	-0.0367321871	 0.291801
C	-0.1031505961	-0.8361024161	-1.1075296766	-0.165316
N	-0.1259334181	-2.1515162824	-0.7012987365	-0.327311
C	-0.0317074921	-2.1176513001	 0.6102082867	 0.380347
N	 0.0569216356	-0.8313934643	 1.0614513622	-0.358698
C	-0.0123572548	-3.2992502453	 1.4920760977	-0.121521
C	-0.9522660484	-4.424910719	 1.2130416525	-0.226643
N	 0.4788656239	-4.5698009877	 0.9327268768	-0.312076
H	 1.0199469068	 1.8323063025	 0.5365979901	 0.130341
H	 0.0294766488	 1.9419571881	-0.9215334088	 0.143963
H	-0.7417463001	 1.9096758048	 0.6669232087	 0.129632
H	-0.1642914701	-0.5681808487	-2.1519923468	 0.104262
H	 0.1394647316	-0.5446363194	 2.022997044	 0.260603
H	 0.2903492325	-3.110658111	 2.5198996964	 0.082598
H	-1.325784998	-5.0294020173	 2.0355238911	 0.115572
H	-1.6337298464	-4.2906941794	 0.3782144801	 0.130817
H	 0.6341187258	-4.4133613054	-0.0631816384	 0.250308
53.4855	129.645	152.5339	167.2879	255.4317	296.5306	419.4281	437.4709	527.1212	647.8505	650.9832	712.4815	748.2985	830.7598	840.7657	886.3862	977.2737	988.7291	1002.1993	1017.5154	1051.544	1065.2637	1111.5377	1132.5316	1182.0303	1191.8643	1207.7358	1267.1231	1285.6758	1319.3531	1359.5112	1406.0636	1420.3435	1476.3394	1479.9556	1496.7226	1507.2999	1548.8112	1630.8873	3017.9222	3062.6888	3108.2494	3122.7537	3127.0867	3203.7772	3243.863	3475.8265	3655.0084
CC1=CN=C(N1)C1CN1	Cc1cnc([nH]1)[C@H]1CN1	
InChI=1S/C6H9N3/c1-4-2-8-6(9-4)5-3-7-5/h2,5,7H,3H2,1H3,(H,8,9)	InChI=1S/C6H9N3/c1-4-2-8-6(9-4)5-3-7-5/h2,5,7H,3H2,1H3,(H,8,9)/t5-/m1/s1
