19
gdb 41448	2.76244	2.14463	1.65825	1.7042	78.38	-0.2337	0.0619	0.2956	886.3147	0.161604	-385.769924	-385.763511	-385.762567	-385.800197	27.819	
C	 0.0376397856	 1.5422124903	 0.1760130161	-0.199406
O	 1.4466184608	 1.5589452478	-0.2999641546	-0.353479
C	 1.1577629315	 0.273085266	-0.8812180979	 0.388694
C	 0.2984833935	 0.1385103477	-2.1603728761	-0.293318
C	-0.1419204153	-0.9787143793	-1.2045077277	-0.12861
C	 1.409202354	-1.2739789577	-0.8600384632	-0.084937
C	 1.4941455189	-1.7682866192	 0.5756713765	-0.237722
C	 0.4695523817	-0.8124380922	 1.2489232912	-0.26739
C	-0.0190444356	-0.0109347463	 0.0386777046	 0.192684
H	-0.029608545	 1.9170364548	 1.1996106855	 0.117632
H	-0.598857428	 2.1364931063	-0.4842187611	 0.116933
H	-0.4271803503	 0.9281334588	-2.361143342	 0.097332
H	 0.8137082107	-0.167755646	-3.0731598048	 0.094104
H	-0.8799250055	-1.7623944447	-1.3922771085	 0.077038
H	 2.0208593755	-1.7561440956	-1.6270619307	 0.070521
H	 1.2143201074	-2.8235658658	 0.6527495263	 0.099999
H	 2.5010127852	-1.6640474186	 0.9906783705	 0.10807
H	-0.3442471869	-1.3481188132	 1.7476781783	 0.09641
H	 0.9451115719	-0.1683863531	 1.9943400875	 0.105445
197.347	271.2173	368.385	379.8454	454.2139	497.475	567.6275	663.775	681.2199	771.3148	797.8714	827.746	846.6637	875.5489	896.6979	916.9484	944.4127	959.5345	966.9257	1001.7538	1018.7069	1043.6161	1052.6172	1113.7938	1130.3118	1146.0637	1156.1387	1170.0623	1189.0017	1214.8353	1229.8713	1240.8641	1253.539	1273.9124	1301.5264	1323.3813	1347.6736	1485.8305	1496.6638	1506.8415	1525.2641	3045.2039	3054.2998	3059.0136	3068.2684	3078.6425	3080.3962	3090.5268	3099.6663	3119.4701	3133.3431
C1OC23CC4C2CCC134	C1O[C@@]23C[C@H]4[C@@H]2CC[C@@]134	
InChI=1S/C8H10O/c1-2-7-4-9-8(7)3-6(7)5(1)8/h5-6H,1-4H2	InChI=1S/C8H10O/c1-2-7-4-9-8(7)3-6(7)5(1)8/h5-6H,1-4H2/t5-,6-,7-,8-/m0/s1
