19
gdb 40790	3.81649	1.13329	0.97248	2.6027	74.64	-0.2597	0.0872	0.3469	1230.6413	0.160321	-422.997106	-422.989335	-422.988391	-423.029932	29.795	
C	 0.248142205	 1.5003912573	-0.0046417147	-0.181702
O	 1.1650652692	 0.4287897979	-0.232809033	-0.244271
C	-0.2062715369	 0.1052471525	 0.0187135881	 0.084715
C	-0.5030837494	-0.6270928269	 1.3045458445	-0.033262
C	-2.0008479829	-0.5684333781	 1.714198561	-0.24398
C	-2.28230239	-1.8787322762	 2.4887125288	-0.244348
C	-1.2762325504	-2.8589180118	 1.9192774182	 0.05112
O	-1.2119848953	-2.8448563258	 0.4848257608	-0.265415
C	-0.2167929937	-2.1197265837	 1.226057113	 0.036239
H	 0.3815018741	 2.0362640692	 0.9349987286	 0.109279
H	 0.0359094272	 2.1283777755	-0.868745688	 0.114822
H	-0.7394552032	-0.275962038	-0.8536870329	 0.105385
H	 0.1326754919	-0.2038816294	 2.0930959454	 0.07842
H	-2.2310184322	 0.3244265836	 2.2997307588	 0.102346
H	-2.6197231794	-0.5361752529	 0.8137542384	 0.118243
H	-2.0899157221	-1.7596099183	 3.5621630087	 0.104592
H	-3.3168022443	-2.2174659144	 2.3768677067	 0.111169
H	-1.1121399445	-3.8291477271	 2.3814637606	 0.093634
H	 0.8021047468	-2.4828371032	 1.1225748573	 0.103014
77.1459	100.7422	165.9482	262.4301	311.459	382.0714	415.1288	518.8349	659.3219	673.4383	820.4255	825.2169	855.1196	859.7057	873.4407	916.3551	932.1913	951.3536	987.9037	1017.6768	1045.3852	1076.846	1098.3704	1117.8606	1151.2516	1160.3721	1177.9529	1193.6987	1223.446	1257.9852	1279.4735	1289.6075	1306.5371	1319.238	1329.98	1363.4068	1435.0848	1449.8212	1480.8918	1494.1119	1530.8618	3028.4816	3036.4728	3067.5642	3079.2595	3085.6336	3103.1698	3114.7825	3144.4282	3159.5334	3165.2708
C1OC1C1CCC2OC12	C1O[C@H]1[C@H]1CC[C@H]2O[C@@H]12	
InChI=1S/C7H10O2/c1-2-5-7(9-5)4(1)6-3-8-6/h4-7H,1-3H2	InChI=1S/C7H10O2/c1-2-5-7(9-5)4(1)6-3-8-6/h4-7H,1-3H2/t4-,5-,6-,7+/m1/s1
