18
gdb 90513	2.72788	1.30715	1.05863	3.4192	75.53	-0.2524	0.0388	0.2912	1162.7088	0.147373	-401.920971	-401.912531	-401.911587	-401.954346	31.555	
C	 0.9516119322	 2.0419353391	 3.0027170191	-0.423318
C	 0.4941201283	 0.6662876619	 2.5646614285	 0.151211
O	 0.0381414769	 0.5693081781	 1.1739775406	-0.303789
C	 0.752865179	-0.65711364	 1.0141492037	 0.059488
C	 2.2281504795	-0.4250542971	 1.055148557	-0.029045
C	 2.8663942985	 0.8127048487	 0.4399197056	-0.385088
C	 4.0071230948	 1.3180546717	 1.2019252141	 0.274098
N	 4.9042270607	 1.7087592772	 1.8172813239	-0.320081
C	 1.444789698	-0.5138081449	 2.3561317889	-0.166083
H	 0.1466776492	 2.7673602363	 2.8458210721	 0.131899
H	 1.1812795814	 2.0220002409	 4.0732544897	 0.129749
H	 1.842580035	 2.3888999549	 2.4779598586	 0.138295
H	-0.3375939865	 0.3404857687	 3.2035591896	 0.092761
H	 0.2460950812	-1.4801547102	 0.5232914542	 0.111036
H	 2.8018984304	-1.3360962212	 0.9008792873	 0.111454
H	 3.2055505028	 0.5783790567	-0.5758808099	 0.151468
H	 2.1145933411	 1.6017245164	 0.3469040209	 0.168951
H	 1.6820930576	-1.2574397472	 3.1047627461	 0.106994
66.7462	115.9775	183.4073	203.1817	237.8909	294.211	375.6275	401.9426	515.2992	565.5691	613.6372	691.1417	767.5754	805.3033	843.2693	887.4783	938.1105	946.7787	996.4827	1003.5869	1037.3244	1052.2925	1058.206	1093.7066	1124.793	1160.8183	1183.914	1236.7438	1262.8876	1308.919	1313.7395	1351.1772	1398.0208	1413.7971	1442.224	1468.3069	1491.2601	1492.5995	2359.1138	3013.3917	3046.1526	3047.311	3095.8962	3108.1735	3143.0665	3148.0885	3177.7556	3206.4875
CC1OC2C(CC#N)C12	C[C@H]1O[C@H]2[C@@H](CC#N)[C@@H]12	
InChI=1S/C7H9NO/c1-4-6-5(2-3-8)7(6)9-4/h4-7H,2H2,1H3	InChI=1S/C7H9NO/c1-4-6-5(2-3-8)7(6)9-4/h4-7H,2H2,1H3/t4-,5+,6-,7+/m1/s1
