18
gdb 22598	2.91239	1.22503	1.03239	1.7013	77.49	-0.2415	0.0147	0.2562	1217.1711	0.144656	-438.970288	-438.961178	-438.960234	-439.003737	34.207	
C	-0.0887338315	 1.5443663277	-0.000589538	-0.437814
C	-0.0340040778	 0.0271438314	-0.0235743523	-0.012302
C	 1.2431614016	-0.6604967836	-0.5974277771	-0.05913
O	 1.9952162682	-0.2028343216	 0.6049265873	-0.346333
C	 0.6907122401	-0.7122670382	 1.1597181107	 0.300021
C	 0.4602185662	-0.6567191479	 2.6331365954	-0.523485
C	 0.8808859425	-1.8892221501	 0.2185608594	 0.490676
N	 0.8247880081	-3.1442282072	 0.265847471	-0.324874
O	 1.1853146974	-3.7237270756	-0.9726573841	-0.396834
H	 0.8744244522	 1.9600103414	 0.3008845039	 0.141004
H	-0.3453274805	 1.9353629433	-0.9905016026	 0.120731
H	-0.8559108359	 1.8928982594	 0.6990640115	 0.119123
H	-0.9808429429	-0.4286748295	-0.3324628619	 0.085846
H	 1.7242785287	-0.563077461	-1.5672021016	 0.111777
H	 0.4525034574	 0.3791479937	 2.9841473664	 0.136915
H	-0.5028163764	-1.115563006	 2.8760631935	 0.139304
H	 1.2465100542	-1.2020857326	 3.1619270994	 0.148245
H	 1.1110671683	-4.6642783634	-0.779022491	 0.307129
114.5178	148.0904	171.6502	192.0951	222.3422	263.1935	310.9108	334.8073	354.2091	413.9929	517.3004	610.8456	661.38	718.4623	725.6893	747.85	803.6762	846.697	903.088	952.0681	1021.3069	1048.8958	1062.5275	1099.5327	1113.2661	1133.0721	1196.4864	1203.4959	1223.2647	1340.054	1387.8303	1403.5463	1407.288	1435.7159	1475.3396	1485.8473	1495.0495	1506.4317	1833.8662	3039.3718	3046.5424	3057.6785	3097.8862	3120.8893	3125.6498	3139.5632	3163.6215	3819.6078
CC1C2OC1(C)C2=NO	C[C@H]1[C@H]2O[C@]1(C)C2=NO	
InChI=1S/C6H9NO2/c1-3-4-5(7-8)6(3,2)9-4/h3-4,8H,1-2H3	InChI=1S/C6H9NO2/c1-3-4-5(7-8)6(3,2)9-4/h3-4,8H,1-2H3/t3-,4+,6-/m0/s1
