14
gdb 20571	4.66535	1.4891	1.39301	1.5388	58.35	-0.292	-0.03	0.262	907.7819	0.107231	-415.857687	-415.850252	-415.849307	-415.890301	26.218	
C	-0.1471184423	 1.5314241968	 0.0116855952	-0.413512
C	-0.0408268321	 0.0013035673	-0.0068327773	 0.014766
O	 0.5944025793	-0.4829810193	-1.1764258836	-0.41745
C	 0.6488380585	-0.5072524183	 1.2303789856	 0.436495
N	 0.1347780655	-1.0467157019	 2.2947589043	-0.317063
C	 1.2528776014	-1.2695167754	 3.0624076204	 0.037623
N	 2.3836629643	-0.9040655413	 2.5262152677	-0.110734
O	 1.9818744686	-0.3824933447	 1.2871569662	-0.213183
H	 0.8478831042	 1.9874326531	 0.0508717465	 0.12855
H	-0.6522634888	 1.866573991	-0.8973014636	 0.137591
H	-0.7148182353	 1.8742691584	 0.8816849931	 0.138282
H	-1.0416595467	-0.4379908283	-0.0058195805	 0.132358
H	 1.4970021212	-0.1440612258	-1.1904902534	 0.294761
H	 1.2209183021	-1.7197358015	 4.0439553894	 0.151514
33.9958	143.215	191.895	254.4395	314.1103	341.8352	414.132	512.5054	655.6736	683.7911	781.2902	902.6978	912.7856	932.4659	978.296	1013.0403	1030.3916	1081.5928	1115.7158	1178.9283	1250.8032	1291.5801	1325.9643	1344.6047	1399.7401	1419.3694	1488.5855	1489.9451	1518.5182	1622.9258	3039.8565	3090.922	3117.3362	3132.3371	3262.016	3801.5445
CC(O)C1=NC=NO1	C[C@@H](O)c1ncno1	
InChI=1S/C4H6N2O2/c1-3(7)4-5-2-6-8-4/h2-3,7H,1H3	InChI=1S/C4H6N2O2/c1-3(7)4-5-2-6-8-4/h2-3,7H,1H3/t3-/m1/s1
