16
gdb 19093	3.736	2.89678	2.86564	0.1176	66.32	-0.1975	0.062	0.2596	621.0406	0.134248	-342.665417	-342.660515	-342.659571	-342.693994	21.572	
C	-0.005943078	 1.4963946241	 0.0484446349	-0.180899
C	 1.5235163708	 1.4733070444	-0.0620863047	-0.016108
C	 1.3490570493	 0.0532636677	-0.6666069224	-0.004299
C	 2.0056867585	-0.5382965976	 0.5752442873	-0.004299
C	 0.6170359885	-0.5789666202	 1.2697962193	-0.016107
C	 1.1719375313	 0.5050849466	 2.2019512667	-0.180899
N	 2.2068101863	 0.8597652188	 1.1689647277	-0.167855
N	-0.0294660712	-0.0072215481	-0.0006162588	-0.167855
H	-0.5013774616	 1.9674060178	 0.9017552099	 0.10692
H	-0.4615179561	 1.878397633	-0.8717647171	 0.110667
H	 2.0846854638	 2.3098858918	-0.484911973	 0.075632
H	 1.4424167414	-0.2439691721	-1.7112338553	 0.075941
H	 2.8139556266	-1.2653553808	 0.6552153843	 0.075941
H	 0.0926415684	-1.45732101	 1.6532811939	 0.075632
H	 0.5358954173	 1.3194854401	 2.5592297297	 0.106921
H	 1.6828195246	 0.0602460545	 3.0629848976	 0.110667
398.6948	456.0826	461.7759	626.6082	706.1067	746.98	760.5262	813.4299	833.213	843.3172	889.4837	894.2528	932.2873	958.448	971.5667	980.8052	1001.5172	1025.8965	1075.7316	1105.064	1166.2274	1172.2514	1178.6365	1181.5103	1195.3729	1239.3585	1251.4727	1266.7101	1276.9021	1284.5805	1289.1932	1313.3103	1479.438	1518.8841	3038.3573	3044.6482	3071.9577	3075.6218	3087.6939	3099.3178	3100.1367	3114.9008
C1C2C3C4C(CN24)N13	C1[C@@H]2[C@H]3[C@@H]4[C@@H](CN24)N13	
InChI=1S/C6H8N2/c1-3-5-6-4(7(1)5)2-8(3)6/h3-6H,1-2H2	InChI=1S/C6H8N2/c1-3-5-6-4(7(1)5)2-8(3)6/h3-6H,1-2H2/t3-,4-,5+,6+/m1/s1
