21
gdb 112666	3.3482	0.96892	0.79336	2.8922	78.82	-0.2499	-0.0265	0.2234	1470.7201	0.181934	-424.26636	-424.257013	-424.256069	-424.300694	35.196	
C	 0.0503632928	 1.5463947867	 0.1250708873	-0.38723
C	-0.0572805515	 0.0252257331	-0.0203589822	-0.188632
C	 0.6462188696	-0.530830892	-1.2610348338	 0.029558
C	 0.6342060651	-2.0782626395	-1.3440233771	-0.265007
C	 0.9915455663	-2.3581964191	-2.8069030342	 0.062416
O	 0.6881216641	-3.6377989519	-3.2842962691	-0.444919
C	 0.2156427982	-1.2677616643	-3.544540393	 0.367905
O	-0.23704051	-1.4212747974	-4.6529297957	-0.331801
C	 0.0305157904	-0.0787906387	-2.610009011	-0.340563
H	 1.0973243437	 1.864653116	 0.1829933079	 0.115961
H	-0.4072944976	 2.0661649355	-0.7232178217	 0.119756
H	-0.4523471922	 1.8918381656	 1.0333939505	 0.117233
H	 0.3671769455	-0.4559982823	 0.8700125484	 0.099319
H	-1.115060456	-0.2699483074	-0.0505319193	 0.097077
H	 1.6949765116	-0.2036812455	-1.2356689332	 0.077857
H	 1.3207114711	-2.5452250932	-0.6340717131	 0.109848
H	-0.3726746099	-2.4673069944	-1.145259988	 0.110115
H	 2.0660025834	-2.1271892994	-2.9502792402	 0.088998
H	 0.3037356862	-3.501372133	-4.1637310141	 0.290389
H	-1.0477911853	 0.1065606465	-2.5207980159	 0.136798
H	 0.4691262444	 0.8297829649	-3.0319691126	 0.134921
80.1114	89.3239	122.2526	197.0573	250.4881	265.3435	336.2987	372.9427	409.8471	415.3065	494.3709	545.75	588.8643	629.4061	745.6899	786.1326	838.0413	904.5315	933.5366	965.232	1000.515	1023.186	1051.4848	1086.2489	1120.7264	1149.5388	1165.9287	1189.5064	1214.0196	1254.5026	1267.6112	1282.159	1303.8472	1335.6768	1360.7171	1377.9812	1393.7067	1414.1114	1420.3639	1445.5056	1486.2193	1499.5047	1501.2442	1507.6967	1835.3048	2908.5671	3003.7869	3015.3258	3032.5757	3035.925	3040.1758	3049.4062	3095.1811	3098.8599	3105.351	3106.2122	3710.5954
CCC1CC(O)C(=O)C1	CC[C@H]1C[C@@H](O)C(=O)C1	
InChI=1S/C7H12O2/c1-2-5-3-6(8)7(9)4-5/h5-6,8H,2-4H2,1H3	InChI=1S/C7H12O2/c1-2-5-3-6(8)7(9)4-5/h5-6,8H,2-4H2,1H3/t5-,6+/m0/s1
