16
gdb 68345	2.98118	1.52708	1.19706	4.1138	77.02	-0.2527	-0.0543	0.1985	1027.4301	0.125283	-400.735269	-400.727784	-400.72684	-400.767114	29.383	
O	-0.0613155929	 1.4092789507	-0.0474176959	-0.473129
C	-0.0172158682	 0.0306338825	 0.0026134248	 0.32844
C	 0.3536120584	-0.8105160679	 1.2801985821	-0.274714
C	-0.3769008066	-1.9258183574	 0.4487855949	-0.084328
C	-1.3426635968	-0.7819646942	-0.0314967878	-0.24525
C	 0.5543621968	-2.0326717085	-0.7554187351	-0.183395
C	 0.8025756748	-0.7503952795	-1.0656127928	 0.176295
C	 1.6018194211	-0.148669868	-2.0548229098	 0.157241
N	 2.2519072592	 0.4159726532	-2.8323278411	-0.356912
H	 0.8213306774	 1.7546802928	-0.2246032429	 0.295512
H	 1.4106708689	-0.9610164767	 1.5102354008	 0.103752
H	-0.2074932348	-0.4968068392	 2.1642609546	 0.111874
H	-0.7446182004	-2.8408898634	 0.9046628307	 0.084529
H	-2.0483632221	-0.4668545494	 0.7413948598	 0.113777
H	-1.837439563	-0.9029714161	-0.9969628406	 0.110541
H	 0.9210244482	-2.9334266791	-1.2262931717	 0.135767
117.9613	128.669	225.9272	341.4242	356.1562	449.541	471.5433	486.4976	544.4712	596.473	633.6455	690.5578	768.7126	810.21	875.6522	890.0591	913.5273	924.8505	963.0259	1013.2192	1052.9529	1070.8327	1125.8379	1149.1944	1165.4436	1207.4172	1222.0022	1253.6967	1280.0165	1313.8709	1370.8208	1479.9175	1520.6042	1653.6727	2325.8045	3060.0719	3070.087	3131.763	3138.9014	3159.016	3239.8997	3798.7629
OC12CC(C1)C=C2C#N	O[C@@]12C[C@@H](C1)C=C2C#N	
InChI=1S/C7H7NO/c8-4-6-1-5-2-7(6,9)3-5/h1,5,9H,2-3H2	InChI=1S/C7H7NO/c8-4-6-1-5-2-7(6,9)3-5/h1,5,9H,2-3H2/t5-,7-
