15
gdb 43355	3.33755	1.6482	1.12177	5.9876	77.16	-0.2203	-0.0796	0.1407	1018.8769	0.11529	-416.840311	-416.833326	-416.832382	-416.872077	26.181	
O	 0.0673101706	-0.0260812611	-0.0999590735	-0.319551
C	 0.0027445217	 1.1816921445	-0.0424231046	 0.313859
C	-1.1566196353	 2.0801225872	-0.0303489946	-0.281976
C	-0.7160538694	 3.3655789572	 0.0720464935	-0.034013
N	 0.65174019	 3.4342173744	 0.1863344365	-0.065853
C	 1.700287765	 4.412902109	-0.0586621376	-0.212221
C	 2.9513985925	 3.465887525	-0.037013754	-0.176138
N	 2.4485693091	 2.0751470591	-0.1146370278	-0.306183
C	 1.1885316376	 2.1518020597	 0.0263594331	 0.294452
H	-2.1848924578	 1.7580008166	-0.0658021122	 0.12342
H	-1.3072743682	 4.2722762074	 0.0979491185	 0.144663
H	 1.5772568189	 4.9054377841	-1.0313742014	 0.12409
H	 1.7353727097	 5.1813143054	 0.7181918721	 0.127993
H	 3.6303573551	 3.6575252969	-0.8717368363	 0.133436
H	 3.5316416205	 3.5775341346	 0.8858452182	 0.134022
103.7689	128.8543	190.603	295.5874	362.9713	524.9941	595.9794	604.4963	656.2229	733.447	766.0319	818.6698	825.5597	853.8074	924.003	939.7665	979.9607	1035.2167	1073.0421	1095.1103	1127.8648	1202.4889	1233.1731	1260.0292	1291.1303	1327.9948	1362.2491	1433.9947	1485.4829	1522.1146	1587.8662	1723.2254	1798.2797	3021.8113	3048.2827	3082.9979	3101.9595	3218.2229	3269.0274
O=C1C=CN2CCN=C12	O=C1C=CN2CC[N][C]12	
InChI=1S/C6H6N2O/c9-5-1-3-8-4-2-7-6(5)8/h1,3H,2,4H2	InChI=1S/C6H6N2O/c9-5-1-3-8-4-2-7-6(5)8/h1,3H,2,4H2
