15
gdb 71514	3.10836	1.62341	1.44622	5.3162	64.69	-0.2646	0.0032	0.2678	920.2301	0.113588	-457.753944	-457.747236	-457.746292	-457.784905	26.817	
O	-0.0525293886	 1.3713248319	-0.0271710674	-0.462475
C	 0.0412360247	 0.0021130556	-0.0341840496	 0.381243
C	 0.6093312936	-0.9507920616	-1.1172160123	-0.326894
C	 0.0170939862	-1.8787704389	-0.032267375	-0.083555
C	 0.5847502867	-0.9586151223	 1.0784543394	 0.04481
O	-0.3003013793	-0.944760959	 2.2006938255	-0.248874
C	-1.5437692642	-0.9121570802	 1.6048971442	 0.451457
O	-2.5751247184	-0.8987577933	 2.2032842902	-0.341778
C	-1.2174723599	-0.9137439505	 0.1271823575	-0.234461
H	 0.83078893	 1.7504707362	-0.0961933863	 0.292845
H	 0.0964833275	-0.9453271305	-2.0806079269	 0.116575
H	 1.6965659308	-0.9718799801	-1.2425925707	 0.098738
H	-0.0183962712	-2.9647482598	-0.0218536286	 0.10603
H	 1.6249057721	-0.9846610472	 1.3963279945	 0.101545
H	-2.0305814802	-0.8966912402	-0.5932596046	 0.104795
146.2863	216.6038	280.2243	348.6264	371.0945	482.849	518.7235	636.6179	647.8905	727.7859	749.896	828.3808	838.3951	890.0723	922.9168	927.5935	985.676	996.0107	1020.9192	1059.5099	1078.9844	1100.9149	1125.3005	1146.1861	1194.3141	1202.5024	1214.4617	1264.079	1303.313	1327.5789	1398.256	1522.3222	1913.1103	3052.0955	3126.6268	3151.3375	3162.479	3171.233	3808.2225
OC12CC3C1OC(=O)C23	O[C@@]12C[C@H]3[C@@H]1OC(=O)[C@@H]23	
InChI=1S/C6H6O3/c7-5-3-2-1-6(3,8)4(2)9-5/h2-4,8H,1H2	InChI=1S/C6H6O3/c7-5-3-2-1-6(3,8)4(2)9-5/h2-4,8H,1H2/t2-,3+,4+,6-/m1/s1
