18
gdb 14471	2.87764	2.31918	1.92886	1.8201	71.3	-0.2226	0.0895	0.3121	818.5587	0.152973	-347.751496	-347.744054	-347.74311	-347.782613	29.168	
C	-0.0449562647	 1.5859705894	-0.1172147685	-0.530424
C	 0.014278882	 0.0979036693	-0.0106768982	 0.237242
C	 0.5721937805	-1.0067118949	-0.9096543434	-0.16956
C	 1.3790701271	-1.6137682948	 0.2339572046	-0.264339
C	 0.3412559696	-0.927491685	 1.1661482457	 0.380683
C	 0.5639617701	-0.6624228417	 2.6220125207	-0.505008
O	-0.8891129693	-1.6660762445	 0.8770218549	-0.333999
C	-0.8814692998	-1.0258817643	-0.3958436667	 0.050513
H	 0.936282081	 2.0452332269	 0.0505089223	 0.121061
H	-0.3798693335	 1.885524743	-1.1164190262	 0.125586
H	-0.7451558749	 2.0147118718	 0.6088475588	 0.126225
H	 0.8184174823	-0.9474095993	-1.9627163944	 0.084926
H	 1.4548686523	-2.7030147687	 0.3182920336	 0.095171
H	 2.3667902104	-1.1519907949	 0.3190513817	 0.096741
H	 1.4862551018	-0.093741319	 2.7748558697	 0.120918
H	-0.2711615543	-0.0998743623	 3.0494016069	 0.129316
H	 0.6509028382	-1.6096877707	 3.1657536593	 0.133853
H	-1.7635686686	-1.0800644305	-1.0210426008	 0.101094
176.5068	191.345	197.3441	215.1658	310.5621	347.5016	462.6823	553.5289	606.821	631.055	748.3344	765.8788	822.446	867.1066	874.719	892.9065	962.5855	976.8241	993.0519	1023.8268	1033.2376	1090.5023	1130.1182	1135.8713	1159.9463	1180.8367	1221.1779	1244.0567	1284.5793	1336.9138	1410.0918	1413.6293	1456.9524	1478.4588	1485.0287	1489.5851	1491.9686	1498.1319	3020.2751	3035.2916	3042.2258	3079.8556	3090.2378	3102.6688	3105.6168	3115.8337	3190.5868	3203.4005
CC12C3CC1(C)OC23	C[C@@]12[C@H]3C[C@]1(C)O[C@@H]23	
InChI=1S/C7H10O/c1-6-3-4-5(8-6)7(4,6)2/h4-5H,3H2,1-2H3	InChI=1S/C7H10O/c1-6-3-4-5(8-6)7(4,6)2/h4-5H,3H2,1-2H3/t4-,5+,6-,7-/m0/s1
