18
gdb 47061	2.91385	1.56202	1.26939	5.0143	71.41	-0.2477	0.0541	0.3018	1026.0659	0.15094	-439.126291	-439.118907	-439.117963	-439.158622	28.675	
O	-0.0082258796	-0.016041655	 0.1987907485	-0.386925
C	-0.007190184	 1.1762577006	 0.0248294726	 0.446141
N	-1.131366379	 1.9011943588	-0.3074392302	-0.362939
C	-1.3277439063	 3.3200930567	-0.0572854344	 0.006801
C	-1.6325300669	 3.7320370764	 1.4193396121	-0.227742
C	-0.1593596312	 4.2015596638	 1.5797212438	-0.238935
C	 0.0376880183	 4.0542549052	 0.042629642	-0.009509
C	 1.186623498	 3.2011056082	-0.4487019566	-0.100992
O	 1.1471452184	 1.8891786522	 0.128771886	-0.237402
H	-1.9563730339	 1.3186185175	-0.2963610318	 0.252964
H	-2.0312481814	 3.7023312469	-0.8017150676	 0.085714
H	-2.3535697476	 4.5516961535	 1.4772628065	 0.106007
H	-1.9662962566	 2.9232217683	 2.0730965385	 0.111531
H	-0.0090778368	 5.2022274087	 1.9886772741	 0.104681
H	 0.455290726	 3.4965596145	 2.1438509074	 0.125893
H	 0.0335211953	 5.0122764476	-0.483225467	 0.084112
H	 1.1612792983	 3.1135036288	-1.5430654779	 0.116587
H	 2.156631169	 3.6131441773	-0.1579307358	 0.124013
69.8037	102.5542	216.8629	325.7167	385.5507	435.7021	525.0791	562.3926	621.7144	681.1438	749.109	767.4764	780.0114	801.298	876.4216	894.6929	948.3291	957.28	999.1686	1037.7909	1064.0086	1110.2162	1132.2729	1175.4134	1197.8751	1238.2564	1255.2804	1269.7793	1277.2601	1290.6215	1311.8396	1347.6588	1387.3856	1428.7433	1461.9968	1476.2963	1494.6785	1501.1106	1845.8255	3021.0817	3057.2032	3064.9816	3074.2866	3082.0937	3096.4808	3113.6433	3132.8615	3607.9221
O=C1NC2CCC2CO1	O=C1N[C@H]2CC[C@H]2CO1	
InChI=1S/C6H9NO2/c8-6-7-5-2-1-4(5)3-9-6/h4-5H,1-3H2,(H,7,8)	InChI=1S/C6H9NO2/c8-6-7-5-2-1-4(5)3-9-6/h4-5H,1-3H2,(H,7,8)/t4-,5-/m0/s1
