22
gdb 84126	2.23046	1.48582	1.16058	1.4135	82.96	-0.2369	0.0343	0.2711	1213.2053	0.192465	-404.396463	-404.386508	-404.385563	-404.43103	37.565	
C	 0.1809479026	 1.6094156321	-0.2573724641	-0.394102
C	 0.0385395165	 0.1172144583	 0.0515347641	-0.01214
N	 0.5389729183	-0.6780417382	-1.082040642	-0.317049
C	 1.5164797003	-1.3651872077	-0.6477864813	 0.39318
C	 2.3720427214	-2.286630303	-1.4498120074	-0.477075
O	 1.8483053373	-1.2733799865	 0.6667390175	-0.283612
C	 0.8254380894	-0.4374100932	 1.2953832678	 0.345609
C	 1.5491109043	 0.587228838	 2.1616193484	-0.43117
C	-0.0570368058	-1.3589178437	 2.1379999565	-0.419126
H	 1.2256247282	 1.8847402921	-0.4298040599	 0.118281
H	-0.3772382374	 1.8405784104	-1.1682911415	 0.128675
H	-0.2133764668	 2.2286788813	 0.5544249213	 0.108706
H	-1.0290078823	-0.0982878056	 0.1839753063	 0.077768
H	 2.0502304851	-2.2743440658	-2.4905688088	 0.149322
H	 3.421057413	-1.9807384697	-1.3849128395	 0.14202
H	 2.3069408081	-3.3058934956	-1.0560450422	 0.141354
H	 2.2265798476	 1.205035435	 1.5683342712	 0.124153
H	 0.8334265305	 1.2438663186	 2.6651555638	 0.119408
H	 2.1383961006	 0.0771534956	 2.9293252883	 0.122622
H	 0.5329457199	-1.8721586452	 2.9029704647	 0.120154
H	-0.8428892304	-0.7811385132	 2.6359109808	 0.117024
H	-0.5368205904	-2.1121415339	 1.5058676458	 0.125998
45.1705	133.4672	163.3784	223.5782	256.7756	259.3518	274.8531	287.3809	323.4982	342.6854	403.2413	464.0622	515.7317	599.0557	628.3879	679.5763	751.3308	853.1835	918.3109	932.0247	949.2996	987.7216	1008.408	1022.9581	1054.778	1066.3099	1105.4917	1126.7531	1180.5741	1218.8494	1268.0661	1283.3744	1333.2434	1375.2399	1399.8432	1403.1718	1414.2998	1420.8443	1473.7256	1476.0499	1477.1486	1482.8014	1486.0706	1496.4981	1501.581	1512.7948	1736.1745	3019.5263	3035.2598	3039.3776	3048.1465	3049.6219	3106.2767	3107.5853	3110.6035	3113.9101	3117.8284	3120.9781	3131.2164	3164.7585
CC1N=C(C)OC1(C)C	C[C@H]1N=C(C)OC1(C)C	
InChI=1S/C7H13NO/c1-5-7(3,4)9-6(2)8-5/h5H,1-4H3	InChI=1S/C7H13NO/c1-5-7(3,4)9-6(2)8-5/h5H,1-4H3/t5-/m1/s1
