16
gdb 86761	3.00431	1.21799	1.0054	5.5174	70.91	-0.2479	0.0078	0.2557	1170.2421	0.125787	-434.096706	-434.088273	-434.087329	-434.129879	31.602	
N	-0.01604243	 1.3318330244	 0.0165964329	-0.567831
C	-0.0443027044	-0.0247628389	-0.0015099648	 0.393764
N	-1.1045194845	-0.7460527599	 0.052065154	-0.285005
C	-0.6814253906	-2.157180635	 0.0581724489	-0.133202
C	 0.8008216631	-2.1763340301	-0.4229103448	-0.271664
C	 1.2811902985	-0.7730613033	-0.0243924034	 0.029492
O	 2.1698701992	-0.1348600127	-0.9266073424	-0.437139
C	-0.8191161618	-2.7393008377	 1.405452978	 0.284596
N	-0.906298633	-3.1999050985	 2.4620486998	-0.331357
H	 0.8050063214	 1.7565076907	-0.386138719	 0.269395
H	-0.8916534152	 1.8089501185	-0.1323962639	 0.265772
H	-1.3287083471	-2.7364551611	-0.608982336	 0.127024
H	 1.3874892497	-2.9913190374	 0.0038630873	 0.121828
H	 0.8239184041	-2.2506029925	-1.5137069097	 0.125402
H	 1.7005441979	-0.7691226938	 0.9930402216	 0.111221
H	 3.0638607527	-0.4387017227	-0.7449340986	 0.297705
72.1452	114.445	203.9935	259.5152	273.4451	312.4194	394.4669	424.6812	483.7566	505.9805	539.9447	564.4724	625.1634	697.0531	771.9641	809.1933	836.8332	955.6571	987.6669	1008.8466	1060.1831	1117.3	1150.1223	1200.4606	1220.4966	1243.5239	1302.0047	1322.5752	1348.2413	1394.2077	1457.8813	1488.2502	1618.266	1724.6466	2352.5313	2995.1109	3050.9163	3072.3171	3132.7785	3583.0076	3701.5092	3836.3563
NC1=NC(CC1O)C#N	N[C]1[N][C@@H](C[C@H]1O)C#N	
InChI=1S/C5H7N3O/c6-2-3-1-4(9)5(7)8-3/h3-4,9H,1H2,(H2,7,8)	InChI=1S/C5H7N3O/c6-2-3-1-4(9)5(7)8-3/h3-4,9H,1H2,(H2,7,8)/t3-,4+/m0/s1
