23
gdb 112570	3.59415	0.90641	0.87235	1.2897	88.01	-0.2423	0.0213	0.2636	1490.3511	0.204596	-388.311968	-388.302013	-388.301068	-388.34667	38.121	
C	-0.1228608347	 1.5414649968	-0.1507641981	-0.387786
C	 0.0123194994	 0.019434764	-0.047283813	-0.179179
C	 0.7785510598	-0.4598449114	 1.1976511524	-0.015553
C	 0.7847731771	-2.0018435083	 1.3644212811	-0.277631
C	 2.1825169722	-2.3942873158	 1.9024794175	 0.371701
C	 2.188107513	-2.7010023239	 3.4063048992	-0.439297
O	 2.6110260247	-3.5522607259	 1.174055803	-0.47386
C	 3.0071404011	-1.1632710977	 1.575608587	-0.130429
C	 2.2564228627	-0.1292365443	 1.2070155751	-0.071923
H	 0.8532541798	 2.0325017613	-0.2222311048	 0.116674
H	-0.698348831	 1.8269360397	-1.0368371511	 0.112819
H	-0.6363557872	 1.9532158285	 0.7255731926	 0.112942
H	-0.9888382566	-0.4304193068	-0.0315005478	 0.095094
H	 0.510841367	-0.3735514663	-0.942789772	 0.098974
H	 0.3031180283	 0.0090309899	 2.0739320837	 0.07246
H	-0.0259410093	-2.3644699708	 2.0021056306	 0.091544
H	 0.6748391545	-2.4774068148	 0.3851550939	 0.115303
H	 1.5925420379	-3.5968324969	 3.608827855	 0.121667
H	 3.208956752	-2.8776366846	 3.7680177522	 0.101029
H	 1.7761216573	-1.8662050608	 3.9818516436	 0.120153
H	 3.4405136768	-3.8540782097	 1.5597103578	 0.271019
H	 4.0882594442	-1.1588970644	 1.6793054094	 0.08201
H	 2.6348934312	 0.8574627319	 0.9606197527	 0.092267
50.2757	108.2118	170.5565	210.1605	239.6661	263.1268	266.9719	298.7364	336.9923	382.6256	413.8436	467.395	556.314	606.4416	690.7037	772.6944	789.5966	818.82	852.1478	920.6998	938.2721	952.2644	969.1536	977.1168	1006.7472	1049.1492	1072.9831	1104.7479	1130.2401	1147.0565	1164.0492	1191.287	1252.77	1273.6277	1288.9403	1315.7683	1344.2623	1358.8318	1376.9648	1393.6396	1404.3966	1413.8917	1481.3974	1487.4072	1491.0734	1494.373	1500.4861	1506.5008	1687.9025	2970.8876	3016.9942	3020.3917	3031.3729	3051.384	3056.4357	3087.4467	3097.235	3102.8231	3103.9237	3111.0291	3166.4058	3194.7187	3804.9209
CCC1CC(C)(O)C=C1	CC[C@H]1C[C@@](C)(O)C=C1	
InChI=1S/C8H14O/c1-3-7-4-5-8(2,9)6-7/h4-5,7,9H,3,6H2,1-2H3	InChI=1S/C8H14O/c1-3-7-4-5-8(2,9)6-7/h4-5,7,9H,3,6H2,1-2H3/t7-,8+/m1/s1
