17
gdb 30405	2.61215	1.53656	0.97436	1.4973	84.04	-0.1917	-0.0207	0.171	1175.0574	0.137308	-418.029671	-418.02138	-418.020436	-418.062392	31.63	
C	-0.1584944528	 1.3532040989	 0.0479917385	-0.323797
N	-0.1123571691	-0.0926850484	-0.0537919105	-0.340455
C	 0.5720199612	-0.6251663389	-1.007766084	 0.293137
C	 1.3455027197	 0.0298180337	-2.0462857741	-0.263073
C	 2.0432610755	-0.6873233861	-2.9483668311	 0.065832
O	 2.0823864093	-2.0256312121	-2.970031217	-0.191848
C	 1.3548581902	-2.7051258619	-2.0272687346	-0.041296
C	 0.6088830775	-2.0969496414	-1.0774545785	 0.18234
N	-0.17695033	-2.7603108991	-0.1571280292	-0.584913
H	 0.838846011	 1.8011677446	 0.1793698977	 0.109304
H	-0.612165809	 1.8231660339	-0.8381479135	 0.111878
H	-0.7628033535	 1.6348946496	 0.9144724783	 0.116778
H	 1.3819891809	 1.1091592932	-2.1059803095	 0.109131
H	 2.6433299906	-0.2600241288	-3.7424952683	 0.134019
H	 1.4509182456	-3.774560024	-2.1524493569	 0.119024
H	 0.1300494495	-3.6743195873	 0.1361249814	 0.242936
H	-0.4530388066	-2.136415506	 0.5933270712	 0.261002
104.2741	132.56	214.6724	222.167	283.667	336.4478	386.2596	452.9547	494.0248	528.394	543.4041	596.9085	636.0117	755.9425	766.8118	804.8209	833.0126	854.4993	939.7793	1020.1819	1059.0336	1099.0114	1103.547	1160.1983	1187.9975	1246.0465	1298.7932	1353.8754	1427.6594	1438.3669	1456.2278	1490.5331	1504.1896	1603.2192	1631.179	1671.5661	1699.2394	2970.7629	3016.7384	3093.64	3208.8762	3228.8454	3231.4661	3519.6471	3663.6242
CN=C1C=COC=C1N	CN=c1ccocc1N	
InChI=1S/C6H8N2O/c1-8-6-2-3-9-4-5(6)7/h2-4H,7H2,1H3	InChI=1S/C6H8N2O/c1-8-6-2-3-9-4-5(6)7/h2-4H,7H2,1H3
