18
gdb 41370	2.50281	1.92269	1.83057	2.428	75.1	-0.2226	0.0048	0.2274	887.9031	0.150007	-401.895064	-401.888212	-401.887268	-401.925974	28.229	
C	 0.1030030845	 1.5257832833	-0.2563123811	-0.236939
N	 1.4486982659	 1.5996698521	 0.4195149174	-0.376128
C	 1.4569582857	 0.1113678538	 0.5724600647	 0.221079
C	 0.8088450433	-0.3571694319	 1.9012784682	-0.122198
O	-0.5036708361	-0.4201417578	 1.2588247682	-0.343429
C	 0.0576257752	-0.0042619572	-0.0034541645	 0.39892
C	 0.0701524975	-1.0290485196	-1.1408075038	-0.360645
C	 1.5501182517	-1.399962615	-1.1917786212	-0.048355
C	 2.304397134	-0.7853117618	-0.2688551541	-0.206427
H	-0.6662526969	 2.1058176028	 0.2613232844	 0.115001
H	 0.1093622771	 1.7995582363	-1.3178971722	 0.098762
H	 2.1786722259	 1.9273575273	-0.2037479495	 0.217827
H	 1.1162839135	-1.3415325778	 2.2719949997	 0.101046
H	 0.8362163024	 0.3822587032	 2.707391107	 0.109658
H	-0.5587220975	-1.8931663692	-0.8956432096	 0.126288
H	-0.2877545537	-0.6322950797	-2.0990097726	 0.105881
H	 1.9323050321	-2.1134108462	-1.9161860638	 0.100331
H	 3.3718491754	-0.9329132424	-0.142536287	 0.099326
131.2103	220.5623	305.8494	338.5083	366.8964	467.3034	541.3214	633.925	666.8609	697.1048	764.8514	775.2616	828.6758	887.379	906.9897	919.2309	937.0991	957.3515	971.5961	974.0496	993.2729	1088.7315	1097.2587	1126.3481	1143.5976	1171.6647	1184.3369	1205.2266	1231.6686	1253.8796	1306.258	1313.5519	1337.502	1365.0919	1398.2988	1470.8609	1494.5	1505.2603	1641.7573	3024.9793	3027.4239	3029.2275	3063.1991	3090.0465	3092.5048	3170.4625	3195.6785	3530.8012
C1NC23COC12CC=C3	C1N[C@@]23CO[C@@]12CC=C3	
InChI=1S/C7H9NO/c1-2-6-5-9-7(6,3-1)4-8-6/h1-2,8H,3-5H2	InChI=1S/C7H9NO/c1-2-6-5-9-7(6,3-1)4-8-6/h1-2,8H,3-5H2/t6-,7-/m0/s1
