21
gdb 57341	2.01996	1.47333	1.31068	3.201	74.23	-0.2395	-0.0221	0.2174	1137.1481	0.177181	-461.378677	-461.367721	-461.366777	-461.413766	41.006	
C	 0.0119081732	 1.537996147	 0.0562350269	-0.429526
C	 0.0638700492	 0.0093805242	-0.0227531396	 0.308296
C	 0.6308332376	-0.583501365	 1.2735149371	-0.431085
O	-1.2637430186	-0.5163310321	-0.2477708273	-0.49044
C	 0.8244936931	-0.5362518189	-1.2774910459	 0.290069
C	 2.3045729594	-0.1661739543	-1.3218796687	-0.437855
O	 0.7302908558	-1.9544739146	-1.294632502	-0.483752
C	 0.1294599102	-0.0154785707	-2.552623639	 0.146729
O	 0.3190184643	 1.064836256	-3.0477668621	-0.265721
H	 1.0081159229	 1.9615608888	 0.2113444459	 0.124786
H	-0.4113783067	 1.9750441264	-0.8485413969	 0.149609
H	-0.6070860796	 1.8357885007	 0.9105540439	 0.102537
H	-0.0509518381	-0.367646848	 2.1045809933	 0.102385
H	 0.7490650382	-1.6647930036	 1.1857147245	 0.134302
H	 1.5989860709	-0.1445273189	 1.5281205619	 0.125262
H	-1.8006992568	-0.3293133624	 0.5289077402	 0.284339
H	 2.8122106472	-0.4530437915	-0.3988585516	 0.121975
H	 2.7805298129	-0.7005919379	-2.1482383489	 0.133917
H	 2.4239999764	 0.904773239	-1.4935858621	 0.140808
H	-0.1841239049	-2.1597063136	-1.0559245654	 0.288057
H	-0.5553836666	-0.7614267805	-3.0118310642	 0.085307
70.6065	92.9444	187.6298	221.5008	233.5858	241.073	261.5453	277.2632	284.2065	316.8247	353.0733	366.053	400.2254	468.9021	475.6676	512.7287	538.8737	616.404	687.2984	843.4656	892.7324	934.3252	949.641	958.4137	984.3471	1012.9563	1095.2836	1146.0459	1169.1949	1176.8716	1219.3543	1239.5756	1348.6815	1380.9641	1392.3408	1399.7307	1421.0901	1427.1384	1476.7055	1480.0931	1485.687	1497.3897	1503.7661	1512.1265	1827.3042	2896.1129	3033.9082	3040.6383	3059.6451	3100.5755	3108.1872	3130.2153	3143.3719	3149.5943	3152.5164	3757.7604	3819.4587
CC(C)(O)C(C)(O)C=O	CC(C)(O)[C@@](C)(O)C=O	
InChI=1S/C6H12O3/c1-5(2,8)6(3,9)4-7/h4,8-9H,1-3H3	InChI=1S/C6H12O3/c1-5(2,8)6(3,9)4-7/h4,8-9H,1-3H3/t6-/m0/s1
