17
gdb 88256	3.25122	1.06838	0.92318	1.0651	72.19	-0.2447	-0.0869	0.1578	1290.1408	0.133053	-458.982023	-458.972784	-458.971839	-459.016844	33.389	
C	-0.0547405566	 1.4022923959	-0.3750176754	-0.475046
C	 0.055347184	-0.0990394767	-0.2911775321	 0.312246
O	 1.097413615	-0.7083716205	-0.3555748042	-0.273582
C	-1.2768803686	-0.863274647	-0.1073964685	 0.29852
O	-2.3229420545	-0.2270950699	-0.0370657104	-0.368005
C	-1.2072977463	-2.3198510115	-0.0778266293	-0.197355
C	-2.2820827525	-3.0787637509	 0.7158966795	-0.327571
C	-2.4191065486	-3.0521513246	-0.7535999824	 0.154966
O	-3.3983498809	-2.3361746087	-1.3995138106	-0.410523
H	 0.9380101773	 1.8374345041	-0.4892121242	 0.141903
H	-0.6949801322	 1.6831971774	-1.2174009934	 0.158195
H	-0.5454776634	 1.7936556642	 0.5215598463	 0.157116
H	-0.2217630206	-2.753918473	-0.1709704925	 0.126786
H	-1.9553591217	-3.9885716543	 1.2069267289	 0.130917
H	-2.9631560079	-2.455571825	 1.2871692763	 0.137704
H	-2.1447469432	-3.9350175312	-1.3212206464	 0.126872
H	-3.4918735294	-1.4848812183	-0.9385399217	 0.306857
49.8873	72.4302	115.6988	174.7301	206.0746	277.0451	335.8726	412.4828	441.5945	480.6139	532.4154	555.5241	599.0435	685.5434	745.3909	788.7264	826.3078	894.597	927.9055	1009.5761	1038.1066	1052.917	1073.4716	1099.6159	1120.317	1141.916	1234.249	1244.358	1360.1804	1381.9868	1413.0231	1452.2799	1453.2064	1459.9814	1485.7061	1723.7032	1807.1801	3050.7979	3112.0496	3131.2971	3163.8591	3177.3658	3218.6622	3229.3672	3646.3751
CC(=O)C(=O)C1CC1O	CC(=O)C(=O)[C@H]1C[C@H]1O	
InChI=1S/C6H8O3/c1-3(7)6(9)4-2-5(4)8/h4-5,8H,2H2,1H3	InChI=1S/C6H8O3/c1-3(7)6(9)4-2-5(4)8/h4-5,8H,2H2,1H3/t4-,5+/m0/s1
