21
gdb 41995	3.22487	1.43496	1.06329	1.1165	84.84	-0.2316	0.0215	0.2531	1171.0302	0.1859	-387.116938	-387.109291	-387.108346	-387.149094	30.675	
C	 0.0481196756	 1.514389952	-0.3400712223	-0.215025
C	 1.4297688356	 2.0051092295	 0.1418418912	-0.244406
C	 2.2741024644	 0.7289668793	 0.0928683327	 0.074835
O	 3.4674508503	 0.8247860873	 0.8391747036	-0.264047
C	 4.0628327869	-0.4550032246	 1.0002513551	-0.083124
C	 3.185916944	-1.3965220353	 1.8367260835	-0.252885
C	 1.7322613022	-1.273808888	 1.4519415359	-0.21393
C	 1.3179952365	-0.3189405359	 0.6258132016	 0.330439
C	-0.0894503035	 0.0647613331	 0.2164234807	-0.313254
H	-0.7647681751	 2.1669779587	-0.0132982273	 0.101657
H	 0.0222289895	 1.4997105351	-1.4349826348	 0.102923
H	 1.8385063139	 2.817635694	-0.4639112832	 0.098681
H	 1.3842816238	 2.3453760574	 1.1825748911	 0.109587
H	 2.5220717376	 0.5061376835	-0.9641997168	 0.063693
H	 4.2506659151	-0.9046425773	 0.0108823222	 0.087025
H	 5.0306607438	-0.2866318733	 1.480479334	 0.103581
H	 3.5401059399	-2.4280657484	 1.7074702313	 0.101652
H	 3.2993501941	-1.1703527791	 2.9064578798	 0.110984
H	 1.0272908954	-1.9628697602	 1.9129841947	 0.078157
H	-0.7663722759	 0.0226020992	 1.0761943261	 0.113847
H	-0.5047681241	-0.6133863669	-0.537522029	 0.109609
80.5642	165.5219	226.2903	288.3772	337.9996	364.9043	470.9863	522.3302	583.1868	612.774	682.7889	745.2547	827.5956	858.2462	876.188	902.4835	916.915	918.8522	968.5426	1010.6217	1030.6725	1063.6506	1071.4621	1104.2164	1143.0616	1151.9872	1175.0207	1199.2214	1233.5281	1235.3802	1287.4515	1295.5262	1313.161	1315.7471	1336.8164	1354.5596	1369.5059	1388.5201	1419.2	1473.5017	1477.8657	1493.006	1499.062	1508.4591	1756.7187	2897.3294	2965.4388	3005.6594	3034.7936	3037.0516	3047.481	3049.3751	3068.263	3087.7532	3099.6016	3108.5881	3141.7187
C1CC2OCCC=C2C1	C1C[C@H]2OCCC=C2C1	
InChI=1S/C8H12O/c1-3-7-4-2-6-9-8(7)5-1/h4,8H,1-3,5-6H2	InChI=1S/C8H12O/c1-3-7-4-2-6-9-8(7)5-1/h4,8H,1-3,5-6H2/t8-/m1/s1
