16
gdb 54344	1.94031	1.69203	1.2988	4.9745	70.37	-0.2559	-0.0055	0.2504	1056.4536	0.124382	-434.060421	-434.051631	-434.050687	-434.094614	31.939	
N	-0.160825451	 1.1936281844	 0.5370514754	-0.530755
C	 0.003446328	-0.0433014714	-0.0284408976	 0.259773
N	 1.048573441	-0.5971916817	-0.5001701995	-0.501425
C	-1.3228535856	-0.8054600277	-0.1498459537	 0.257348
C	-1.2628120855	-2.317235508	 0.1812700109	-0.32249
C	-2.1490598187	-1.9467158164	 1.3864168184	-0.078751
O	-2.1955573792	-0.5511625731	 0.9774209102	-0.319275
C	-1.9811849838	-0.4574259102	-1.4166225486	 0.289145
N	-2.5137460526	-0.1999999273	-2.4092033582	-0.33352
H	 0.6642669316	 1.7069940642	 0.8034503787	 0.255019
H	-0.9664016607	 1.3080918187	 1.1346017848	 0.274317
H	 1.8733992171	-0.0024922089	-0.4035162318	 0.210623
H	-1.7340464742	-2.9594026758	-0.5608569155	 0.139319
H	-0.2543009322	-2.6651942055	 0.3928235471	 0.15412
H	-3.1507980426	-2.3854984709	 1.4001504252	 0.126931
H	-1.6875878115	-2.0571873803	 2.3729733844	 0.119622
46.0794	76.8772	140.8867	189.6822	242.5198	312.5465	403.6293	452.2387	466.0473	501.6538	537.4766	590.1915	624.6785	700.7661	787.6496	857.1036	864.2801	917.5032	970.2311	998.8374	1040.3222	1097.5819	1123.3107	1151.2791	1158.098	1190.485	1221.1046	1261.7738	1346.3688	1414.1006	1493.2398	1528.6881	1630.0995	1739.7343	2355.2965	3045.8535	3096.1913	3116.3099	3181.3442	3458.6831	3573.8655	3692.5901
NC(=N)C1(CCO1)C#N	NC(=N)[C@]1(CCO1)C#N	
InChI=1S/C5H7N3O/c6-3-5(4(7)8)1-2-9-5/h1-2H2,(H3,7,8)	InChI=1S/C5H7N3O/c6-3-5(4(7)8)1-2-9-5/h1-2H2,(H3,7,8)/t5-/m0/s1
