19
gdb 92189	2.66626	1.92491	1.71585	2.6098	72.43	-0.2419	0.0704	0.3124	893.2258	0.16287	-422.999658	-422.993193	-422.992249	-423.030044	28.079	
O	 0.079303764	 1.3840206323	-0.1277942982	-0.447796
C	 0.0208698806	-0.0262591669	-0.003616478	 0.157559
C	 0.706521465	-0.522906885	 1.3019589063	-0.267615
C	-0.3833872913	-0.6060842035	 2.3628215691	 0.092951
O	-1.2009219996	 0.6143457215	 2.2435590571	-0.3222
C	-2.0895836542	-0.1367522717	 1.3918433974	 0.12006
C	-1.5919385634	-1.4988161162	 1.9032550682	-0.071594
C	-1.4834481535	-2.0179251789	 0.4574906832	-0.265321
C	-1.4359471778	-0.5262816541	 0.0053015984	-0.096457
H	-0.3097821667	 1.7251796471	 0.6891294991	 0.284149
H	 0.5421501427	-0.423996125	-0.8804192604	 0.079935
H	 1.1856223533	-1.499092969	 1.1690285239	 0.103634
H	 1.48380587	 0.1922432005	 1.5861799171	 0.113557
H	-0.0219784801	-0.7399145925	 3.3846604786	 0.081712
H	-3.1169489526	 0.2295283519	 1.4022747576	 0.082382
H	-2.0801921015	-2.0770203721	 2.6872154044	 0.075157
H	-0.6424720255	-2.6601420669	 0.1800783877	 0.099575
H	-2.4123634235	-2.5107641771	 0.1576395707	 0.106149
H	-1.9630156958	-0.2371675443	-0.9044632322	 0.074165
191.0004	292.6275	360.4324	414.6663	435.2608	463.9851	571.999	604.5119	700.546	717.9254	771.9177	794.7383	829.6831	855.3804	872.8138	929.9546	941.2047	966.7218	986.0182	994.2906	1036.9372	1045.0548	1057.2318	1090.545	1107.8129	1139.1061	1172.4079	1209.8742	1222.1381	1236.5613	1256.3505	1282.7574	1300.5448	1313.2878	1324.7642	1341.1563	1357.993	1362.6871	1450.9537	1473.0075	1500.1114	3043.458	3051.4404	3058.2081	3084.8355	3096.9393	3098.6354	3102.4378	3108.9622	3118.7922	3750.8443
OC1CC2OC3C2CC13	O[C@H]1C[C@H]2O[C@@H]3[C@H]2C[C@H]13	
InChI=1S/C7H10O2/c8-5-2-6-4-1-3(5)7(4)9-6/h3-8H,1-2H2	InChI=1S/C7H10O2/c8-5-2-6-4-1-3(5)7(4)9-6/h3-8H,1-2H2/t3-,4+,5+,6-,7+/m1/s1
