16
gdb 28142	4.9942	1.22408	0.98909	1.1272	80.3	-0.1602	0.01	0.1702	1136.681	0.126182	-400.787173	-400.779708	-400.778764	-400.818688	29.517	
O	 0.0747468819	 1.3263141528	 0.2141613895	-0.437124
C	 0.0666987364	-0.0153385734	 0.0014161665	 0.39581
C	 0.0774715838	-0.7854807905	-1.146763232	-0.498118
C	 0.0588987461	-2.1361605308	-0.6956037726	 0.311238
C	 0.0380392698	-2.1298330336	 0.6806321487	 0.291517
N	 0.0430210082	-0.8207984713	 1.1130834624	-0.438868
C	 0.0178330504	-3.4756568279	 1.2152112686	-0.19688
C	 0.0261225078	-4.3305807838	 0.1677666523	-0.093599
C	 0.0530612083	-3.5685288492	-1.1518770659	-0.414929
H	 0.0954648315	 1.7657665567	-0.6410011101	 0.307365
H	 0.0959842332	-0.4058841583	-2.1572466795	 0.086539
H	 0.0318818458	-0.4745511567	 2.0564254438	 0.263132
H	-0.0004889479	-3.7465115837	 2.2631960292	 0.089702
H	 0.0156752098	-5.4103294817	 0.2259754584	 0.090049
H	-0.8174802025	-3.8209981735	-1.7724672134	 0.122087
H	 0.9375421873	-3.836692195	-1.7456063959	 0.12208
138.1711	204.3721	261.9331	272.7147	309.8076	407.9621	427.3751	504.3677	551.7261	648.0233	657.9761	711.7147	721.7116	729.9692	778.8144	879.4076	909.3301	928.2888	931.0035	1019.0638	1074.6997	1128.4957	1145.4129	1159.5351	1174.6736	1229.7647	1267.7916	1339.7847	1411.0188	1437.5529	1492.7517	1515.5126	1525.8227	1595.4751	1615.1099	3021.5432	3046.734	3206.4862	3233.8105	3237.5242	3683.1058	3851.1273
OC1=CC2=C(N1)C=CC2	Oc1cc2c([nH]1)C=CC2	
InChI=1S/C7H7NO/c9-7-4-5-2-1-3-6(5)8-7/h1,3-4,8-9H,2H2	InChI=1S/C7H7NO/c9-7-4-5-2-1-3-6(5)8-7/h1,3-4,8-9H,2H2
