19
gdb 46910	3.20979	1.33356	1.02521	3.5035	75.55	-0.2369	0.0305	0.2674	1155.1953	0.162867	-419.221706	-419.213893	-419.212949	-419.254247	30.679	
O	 0.0249163457	-0.0402684593	 0.5964978479	-0.369801
C	-0.0058205432	 1.1032182284	 0.1747904164	 0.371217
C	-1.3610608825	 1.702307213	-0.2304817841	-0.278981
C	-1.5123912902	 3.2056058805	-0.5057085864	-0.244027
C	-0.7000108934	 3.6411587645	-1.7062262876	-0.004209
N	 0.0545373868	 4.9030183224	-1.6084993358	-0.34306
C	 0.7792363819	 3.6184135196	-1.6130187934	-0.017874
C	 1.4026970268	 3.2087310468	-0.2941322833	-0.189144
N	 1.165408557	 1.8045849228	 0.0257568202	-0.303182
H	-1.6657701385	 1.1336185852	-1.1190035266	 0.129969
H	-2.0488810271	 1.3885480265	 0.5601424714	 0.132945
H	-2.57341069	 3.4239058979	-0.6726037882	 0.102879
H	-1.2161485305	 3.7966544154	 0.3653648169	 0.117609
H	-1.1288241063	 3.3881132845	-2.6744196767	 0.08693
H	 0.1222024407	 5.3453734501	-2.5209919946	 0.234511
H	 1.3370868894	 3.3435484732	-2.505093587	 0.089556
H	 2.4876565852	 3.3429687259	-0.3310878139	 0.112869
H	 1.0328650569	 3.8778464373	 0.4907850286	 0.127799
H	 1.9533722613	 1.267850365	 0.3580530861	 0.243994
60.5211	158.0562	252.0823	278.6143	328.4843	371.8472	445.7639	480.7562	500.7666	592.989	652.3606	698.9336	719.9846	800.7794	822.3354	893.8895	934.3686	961.1141	980.3945	987.4874	1043.0368	1062.4702	1118.1366	1128.7133	1153.5892	1209.8166	1239.7771	1258.2664	1267.6111	1291.8061	1319.9806	1349.773	1367.8141	1398.0705	1412.2339	1453.441	1472.9338	1482.4475	1494.1528	1517.8752	1765.3294	3033.2717	3038.2291	3044.5072	3083.1148	3088.8927	3095.4929	3120.3451	3137.9597	3510.9114	3608.9621
O=C1CCC2NC2CN1	O=C1CC[C@H]2N[C@H]2CN1	
InChI=1S/C6H10N2O/c9-6-2-1-4-5(8-4)3-7-6/h4-5,8H,1-3H2,(H,7,9)	InChI=1S/C6H10N2O/c9-6-2-1-4-5(8-4)3-7-6/h4-5,8H,1-3H2,(H,7,9)/t4-,5+/m1/s1
