18
gdb 50461	4.10994	1.01146	0.86261	2.2841	74.37	-0.2634	-0.039	0.2244	1304.3398	0.148283	-439.112879	-439.104493	-439.103549	-439.146571	30.763	
N	-0.1994840694	 1.319893387	-0.1194070839	-0.49352
C	-0.0594537212	 0.0782239962	 0.0722442586	 0.380924
C	-1.2289239547	-0.8757106079	-0.0183254804	-0.285103
C	-1.1304891618	-2.0664377236	 0.9432579582	-0.21884
C	 0.2579262868	-2.6914909038	 0.8235886649	-0.101403
C	 1.3154601659	-1.6150527319	 1.1064532712	-0.08894
O	 1.1853777219	-0.4780665917	 0.2510879453	-0.253642
C	 0.4783042623	-3.8834765466	 1.731982029	 0.134622
O	-0.3324336865	-4.3044701721	 2.5157863468	-0.230976
H	 0.7087133144	 1.7862169269	-0.0601194146	 0.220287
H	-2.1431694946	-0.2994378845	 0.1296987116	 0.137497
H	-1.2517866641	-1.2522379147	-1.0504920389	 0.12759
H	-1.2885159897	-1.7428406279	 1.9783614167	 0.12156
H	-1.9088783133	-2.8027414867	 0.7273229518	 0.118636
H	 0.4289941645	-3.048063437	-0.2049186624	 0.105071
H	 1.2373349128	-1.2879189388	 2.1534421769	 0.119409
H	 2.3297303216	-1.9885524666	 0.9419916561	 0.123353
H	 1.477784615	-4.3663289663	 1.6275841033	 0.083476
59.5774	93.7557	166.9468	190.6686	233.2275	338.6399	400.0682	428.6082	470.2077	550.8868	648.1882	731.5255	769.4512	805.8953	873.9755	926.7472	945.2118	954.296	973.8614	1037.7385	1064.438	1112.8419	1124.2433	1147.493	1211.2655	1230.0691	1279.4679	1300.0374	1310.3507	1335.8785	1359.7512	1388.035	1421.8717	1435.0524	1471.6674	1492.5921	1511.739	1754.1958	1830.7755	2863.4279	2988.5457	3006.0467	3020.4565	3051.6172	3092.8077	3100.3341	3125.216	3459.046
N=C1CCC(CO1)C=O	[NH][C]1CC[C@@H](CO1)C=O	
InChI=1S/C6H9NO2/c7-6-2-1-5(3-8)4-9-6/h3,5,7H,1-2,4H2	InChI=1S/C6H9NO2/c7-6-2-1-5(3-8)4-9-6/h3,5,7H,1-2,4H2/t5-/m1/s1
