21
gdb 37968	2.53413	1.922	1.39428	1.3204	81.1	-0.2331	0.0831	0.3162	1002.5381	0.186108	-387.065741	-387.058617	-387.057673	-387.096825	29.991	
C	 0.0770264432	 1.6091410427	-0.099677509	-0.261419
C	 1.6073016559	 1.5227514878	-0.1178416866	-0.091704
C	 2.0944033251	 0.9015159397	 1.1504218102	 0.114268
O	 1.470243127	 1.1795343512	 2.3684671532	-0.257065
C	 0.8423391124	 0.081752722	 3.0209182633	-0.070358
C	-0.6123746937	-0.0811797516	 2.5777291431	-0.192105
C	-0.799244731	-0.634941012	 1.1567876404	-0.22244
C	 0.0020413737	 0.047181416	 0.043090486	 0.019669
C	 1.5364505113	-0.0097729256	 0.1000524559	-0.135451
H	-0.3330856318	 2.1973097409	 0.7249144041	 0.108101
H	-0.3532365436	 1.9622275282	-1.0383799553	 0.09733
H	 2.2622855294	 2.0945532038	-0.764221916	 0.083531
H	 3.1807481303	 0.8513900767	 1.2340464196	 0.084317
H	 1.4120982566	-0.844267931	 2.8565059108	 0.089768
H	 0.8796531957	 0.309403787	 4.0920245186	 0.1001
H	-1.1241249678	-0.7454242418	 3.2863841867	 0.089111
H	-1.0941950058	 0.8995921271	 2.6704094707	 0.107033
H	-0.5259116427	-1.6999272953	 1.1510658517	 0.092671
H	-1.8674622002	-0.5985981507	 0.9055750857	 0.092363
H	-0.3275111565	-0.3696059777	-0.9139677109	 0.07435
H	 2.1391348125	-0.7990194172	-0.3368778122	 0.077927
181.7991	194.835	281.2919	307.0116	361.0922	418.4165	507.9453	546.8974	616.0386	719.5583	737.447	786.2981	815.0458	837.5457	881.5649	911.3859	947.2168	955.461	977.3778	991.3661	1021.3595	1023.8387	1063.0047	1090.5283	1107.7907	1123.2859	1131.4536	1167.7492	1217.0015	1228.933	1235.8645	1260.056	1279.3599	1297.6409	1324.7961	1348.692	1356.4605	1383.7645	1397.5436	1406.9839	1434.5309	1472.5336	1480.1022	1491.0292	1497.2287	3000.346	3001.8361	3021.8202	3038.2653	3049.1345	3063.1844	3067.7484	3071.5395	3096.1645	3121.2993	3160.0931	3183.2527
C1C2C3OCCCC1C23	C1[C@H]2[C@H]3OCCC[C@@H]1[C@@H]23	
InChI=1S/C8H12O/c1-2-5-4-6-7(5)8(6)9-3-1/h5-8H,1-4H2	InChI=1S/C8H12O/c1-2-5-4-6-7(5)8(6)9-3-1/h5-8H,1-4H2/t5-,6+,7-,8+/m0/s1
