23
gdb 83335	2.01919	1.61917	1.48175	1.1963	84.88	-0.2535	0.0776	0.3312	1105.7433	0.206339	-388.290014	-388.280948	-388.280003	-388.32276	36.327	
C	-0.1600651193	 1.6378704661	-0.0148649976	-0.445142
C	 0.0174225331	 0.1274749445	 0.0021186922	 0.018065
C	 1.1432287069	-0.5856711888	-0.8101664381	-0.094078
C	 2.4358535824	 0.0527470524	-0.2691580453	-0.228772
C	 2.0945271447	 0.0371048848	 1.258526116	-0.262077
C	 0.6978495104	-0.6175897587	 1.2092943918	 0.325646
C	-0.025838431	-0.8734621782	 2.5099864413	-0.508953
C	 0.9720588568	-1.7683897893	 0.1932709728	 0.117596
O	-0.167450168	-2.5837417211	 0.0217628561	-0.450637
H	 0.7673098447	 2.183627951	 0.1808283989	 0.11347
H	-0.5378239143	 1.9720427985	-0.9879859333	 0.112613
H	-0.8904861863	 1.9498251253	 0.7404687413	 0.114869
H	-0.9360746031	-0.3593865418	-0.2101926832	 0.082825
H	 1.0681763043	-0.7397698983	-1.8891466596	 0.045304
H	 3.3208484035	-0.5459206468	-0.5060529977	 0.092012
H	 2.6068901535	 1.0596997641	-0.6583689852	 0.098045
H	 2.8011575063	-0.561996291	 1.8418129869	 0.09173
H	 2.0690925196	 1.0366611659	 1.7016842267	 0.095945
H	-0.2893479681	 0.0671209587	 3.0076355271	 0.110304
H	-0.9464427261	-1.4387220879	 2.3379293372	 0.129744
H	 0.5970310614	-1.4491581065	 3.204938531	 0.10973
H	 1.8670177716	-2.3819560364	 0.3786993922	 0.049195
H	-0.0514403031	-3.0926664066	-0.7864388717	 0.282566
173.6212	197.4383	201.6939	215.119	243.3742	274.8872	292.6874	303.3435	362.2031	417.301	492.6713	605.1667	609.6667	689.3512	737.0565	795.8458	832.3981	884.7531	913.9668	919.3369	949.3123	963.0506	1010.8405	1033.2825	1056.7489	1076.9694	1117.7112	1136.3713	1156.6842	1173.5248	1186.8873	1211.7897	1250.5097	1254.3445	1256.4256	1268.3976	1301.0664	1319.4082	1354.3806	1395.2226	1407.1873	1414.2976	1426.9931	1484.5453	1490.5151	1495.8524	1497.3418	1508.8567	1517.9213	2978.0836	3023.4645	3029.5123	3045.5442	3054.9497	3080.3237	3081.9978	3083.8907	3085.1785	3091.7506	3099.452	3107.074	3113.773	3819.2139
CC1C2CCC1(C)C2O	C[C@H]1[C@H]2CC[C@]1(C)[C@H]2O	
InChI=1S/C8H14O/c1-5-6-3-4-8(5,2)7(6)9/h5-7,9H,3-4H2,1-2H3	InChI=1S/C8H14O/c1-5-6-3-4-8(5,2)7(6)9/h5-7,9H,3-4H2,1-2H3/t5-,6+,7-,8-/m0/s1
