19
gdb 80011	2.508	2.12103	1.68375	1.9196	78.2	-0.1895	0.0146	0.2041	901.3882	0.161658	-382.008673	-382.001622	-382.000678	-382.0397	29.512	
C	 0.0343354244	 1.4816333116	-0.1100478305	-0.328473
N	-0.0214991361	 0.0406750836	 0.0787679524	-0.032357
C	-1.2805790829	-0.6762610083	 0.3235447238	-0.098284
C	-0.7575438159	-2.1169497703	 0.1957667911	-0.059697
C	 0.4857054977	-2.1011928644	 0.6837072003	-0.059693
C	 0.7504587515	-0.6505166318	 1.1206562684	-0.098285
C	-0.1351268668	-0.5211147835	 2.4039880955	-0.025689
N	-0.9670412963	 0.7028394835	 2.4666213716	-0.347451
C	-1.5071971299	-0.538511614	 1.8654981101	-0.025691
H	 1.0707064509	 1.7495178763	-0.3485969487	 0.10715
H	-0.568617742	 1.7287135916	-0.9921663851	 0.107147
H	-0.3043117144	 2.0899707064	 0.7329193921	 0.131471
H	-2.1018175424	-0.3760058468	-0.3273823751	 0.067392
H	-1.334922068	-2.9607445934	-0.1563255044	 0.098325
H	 1.1667957772	-2.9290379084	 0.8255262848	 0.098325
H	 1.7883586909	-0.3266970203	 1.1993710117	 0.067391
H	 0.1374017222	-1.0424268056	 3.3160161931	 0.085474
H	-1.3384375301	 0.8007515128	 3.4097606189	 0.227472
H	-2.31570056	-1.073529279	 2.35325981	 0.085474
111.2458	266.9839	268.2257	339.2113	369.9165	465.2002	489.9796	625.8973	651.332	693.3419	699.2939	771.1983	846.2538	849.9239	863.3232	899.027	903.222	906.4479	924.3842	926.9247	985.6666	1019.3949	1075.1343	1112.8179	1113.3789	1136.0506	1143.2828	1176.8707	1205.6322	1214.8322	1221.2067	1270.0807	1272.2075	1308.3361	1336.6618	1348.9292	1388.3924	1447.6419	1472.4553	1531.3555	1626.4063	3015.3701	3075.5099	3095.1075	3116.7041	3118.8371	3156.1622	3167.1689	3213.5524	3239.5069	3483.5841
CN1C2C=CC1C1NC21	CN1[C@H]2C=C[C@@H]1[C@H]1N[C@@H]21	
InChI=1S/C7H10N2/c1-9-4-2-3-5(9)7-6(4)8-7/h2-8H,1H3	InChI=1S/C7H10N2/c1-9-4-2-3-5(9)7-6(4)8-7/h2-8H,1H3/t4-,5+,6-,7+
