24
gdb 70251	2.80135	1.2844	1.17447	1.4675	88.33	-0.2207	0.079	0.2997	1231.8971	0.217308	-368.410817	-368.401414	-368.400469	-368.444073	37.596	
C	-0.4192937636	 1.4718220946	 0.2359199081	-0.472057
C	-0.0577807448	 0.025605765	-0.0034897686	 0.354104
C	-0.8524715135	-1.0671048379	 0.6186623457	-0.297266
N	 0.4888991123	-0.744882621	 1.1342018304	-0.127563
C	 1.5540799957	-1.6178046606	 0.6201707802	-0.207865
C	 1.6117951358	-1.5469819946	-0.9451366843	 0.316215
C	 3.0562108467	-1.3079924446	-1.4161166675	-0.432327
C	 1.0964947315	-2.8390307316	-1.606543522	-0.436669
C	 0.7085392648	-0.3196386467	-1.276002533	-0.329409
H	 0.4706411678	 2.1103498565	 0.1953022824	 0.114823
H	-1.1236217651	 1.8295638026	-0.5239705412	 0.113859
H	-0.8821218369	 1.5981168394	 1.2181290221	 0.124794
H	-1.6652234004	-0.8197652163	 1.2973430225	 0.107428
H	-0.9985990419	-1.9946228343	 0.0727623503	 0.106701
H	 2.4984184683	-1.2591191148	 1.0450681097	 0.098608
H	 1.4075979799	-2.6422935526	 0.9807213258	 0.09841
H	 3.7067496686	-2.1445429108	-1.1362227972	 0.111704
H	 3.1039147077	-1.202478589	-2.5057003529	 0.11107
H	 3.4721068388	-0.3981955377	-0.9705063454	 0.112109
H	 0.0590230733	-3.0626944281	-1.3440169028	 0.115827
H	 1.1492582839	-2.7636386614	-2.6987479043	 0.111624
H	 1.7045945738	-3.699308791	-1.3047850105	 0.112438
H	 0.040079044	-0.5216783076	-2.1199654283	 0.09941
H	 1.3242289334	 0.5408242022	-1.5626460693	 0.094034
96.3807	168.1118	202.4261	233.3024	255.0713	295.1749	326.1291	351.5646	368.7478	404.9805	414.3022	446.3574	555.9859	617.9079	728.9944	777.8217	797.4166	887.7834	896.0226	913.2374	924.881	957.2441	960.0059	987.1433	995.1694	1038.9092	1053.9443	1101.1098	1105.8398	1138.4537	1192.7577	1207.1809	1219.8799	1236.0667	1270.253	1306.4814	1333.3313	1349.6604	1390.0556	1401.6709	1417.7331	1427.8016	1484.1253	1484.832	1485.808	1492.72	1494.9843	1501.7682	1504.3477	1509.3888	1521.0798	3020.8644	3024.9571	3026.3231	3028.9912	3035.566	3066.46	3069.2111	3086.5301	3087.2238	3091.6324	3096.1155	3102.6807	3111.7741	3116.5068	3189.8194
CC12CN1CC(C)(C)C2	C[C@]12CN1CC(C)(C)C2	
InChI=1S/C8H15N/c1-7(2)4-8(3)6-9(8)5-7/h4-6H2,1-3H3	InChI=1S/C8H15N/c1-7(2)4-8(3)6-9(8)5-7/h4-6H2,1-3H3/t8-,9?/m0/s1
