18
gdb 96876	4.46422	0.71106	0.6692	2.7014	86.27	-0.2466	0.0189	0.2655	1743.1989	0.145272	-401.92081	-401.910705	-401.909761	-401.958467	34.081	
C	-0.0502633257	 1.5042000686	 0.4761985861	-0.338822
N	-0.2586018373	 0.0628815778	 0.4470557729	-0.324015
C	 0.6098513546	-0.6905874029	 0.9341932203	 0.466865
C	 0.7582343575	-2.1865266132	 1.0858388586	-0.390405
C	 2.1264991994	-1.825374904	 1.7293540139	-0.057207
O	 1.8266233982	-0.3945102217	 1.5367129647	-0.266115
C	 2.3454655907	-2.1834586099	 3.1131241358	 0.109619
C	 2.5273882991	-2.4960858984	 4.2616781562	 0.055672
C	 2.7484428866	-2.8648694741	 5.6512504636	-0.498188
H	 0.8970829745	 1.8121433995	 0.9336389654	 0.126673
H	-0.0890201747	 1.8916290957	-0.5478675898	 0.126043
H	-0.8740361455	 1.9732081801	 1.025543307	 0.127056
H	 0.0426886913	-2.651949683	 1.7641391672	 0.143201
H	 0.8081888827	-2.7491948224	 0.1526778558	 0.137221
H	 2.9887882594	-2.091870113	 1.1103595819	 0.116442
H	 2.6561943087	-1.9908206705	 6.3049974399	 0.158634
H	 2.0179454904	-3.6090279978	 5.9864569852	 0.153535
H	 3.7487656999	-3.2862566809	 5.7973101851	 0.153793
15.6646	49.2764	75.6915	102.7469	157.4513	206.281	229.5961	306.7781	332.7201	447.6346	493.7056	541.5298	565.2493	701.2017	754.5892	908.3992	916.686	963.926	1007.9965	1049.8214	1053.5396	1059.5404	1108.5645	1120.3616	1136.6179	1183.1958	1195.7338	1239.1852	1281.6521	1369.6552	1413.2711	1440.1906	1464.6884	1474.6789	1476.8281	1494.8582	1497.5897	1853.7293	2371.461	3016.9186	3030.2654	3058.3284	3081.9144	3087.1258	3092.0466	3093.0099	3094.1439	3150.8637
CN=C1CC(O1)C#CC	CN=C1C[C@@H](O1)C#CC	
InChI=1S/C7H9NO/c1-3-4-6-5-7(8-2)9-6/h6H,5H2,1-2H3	InChI=1S/C7H9NO/c1-3-4-6-5-7(8-2)9-6/h6H,5H2,1-2H3/t6-/m0/s1
