18
gdb 115785	3.07175	0.93737	0.79821	2.9215	69.97	-0.2567	0.015	0.2717	1419.7188	0.147452	-476.215842	-476.206644	-476.2057	-476.251268	32.437	
O	-0.0608402261	 1.3733534586	-0.1498402589	-0.418268
C	 0.0568120898	-0.0322762993	-0.0896350374	-0.062303
C	-1.2886965678	-0.6480038296	 0.2615756803	 0.093587
O	-2.2813609975	-0.2464987041	-0.7223910564	-0.302273
C	-2.4179809783	-1.5960169196	-1.2158134356	-0.09978
C	-1.5379299838	-2.1455127125	-0.0715438668	-0.03262
N	-0.4314942477	-3.0015271451	-0.4080543991	-0.289142
C	-0.1522175916	-4.1549742917	 0.2690585027	 0.1547
O	-0.7760590478	-4.5751307542	 1.2175922445	-0.312098
H	-0.8261149099	 1.549146078	-0.7123531431	 0.29424
H	 0.4231132008	-0.4401271135	-1.0477468223	 0.064041
H	 0.8008074753	-0.2686860245	 0.6782889387	 0.118369
H	-1.5917351323	-0.3287390944	 1.2650492404	 0.09663
H	-3.4623298219	-1.9238203161	-1.2361139067	 0.122577
H	-1.9849922211	-1.7192451177	-2.2183375413	 0.098216
H	-2.0995956927	-2.6612801654	 0.7057606292	 0.139566
H	 0.1579227594	-2.7606639304	-1.1894019638	 0.252179
H	 0.7272270831	-4.6752760185	-0.1578255445	 0.082379
32.8212	87.5798	113.6912	143.3455	205.3596	224.929	301.1844	394.6269	473.6275	476.7917	533.1484	553.8548	695.9837	822.7593	850.5253	903.1775	927.8339	1012.5919	1029.262	1043.0856	1070.8187	1085.3148	1126.1934	1128.971	1158.2788	1216.866	1227.085	1260.1721	1284.8261	1335.1169	1347.0089	1374.6338	1400.437	1432.3343	1438.1793	1495.9354	1524.1165	1534.3525	1811.0175	2946.0302	2949.126	3005.5179	3048.8889	3073.45	3078.3752	3139.6685	3630.0614	3774.7884
OCC1OCC1NC=O	OC[C@H]1OC[C@H]1NC=O	
InChI=1S/C5H9NO3/c7-1-5-4(2-9-5)6-3-8/h3-5,7H,1-2H2,(H,6,8)	InChI=1S/C5H9NO3/c7-1-5-4(2-9-5)6-3-8/h3-5,7H,1-2H2,(H,6,8)/t4-,5-/m1/s1
