19
gdb 90016	3.42869	1.15473	1.00915	3.0713	77.86	-0.2207	-0.0262	0.1945	1240.2276	0.158573	-419.168944	-419.160272	-419.159327	-419.202503	32.316	
C	 0.1230271179	 1.5624382379	 0.1088701165	-0.319674
N	 0.0416656941	 0.1204428881	 0.1361688834	-0.057116
C	-1.2684128413	-0.5119226614	 0.3753774763	-0.218307
C	-0.5611478345	-1.5873808096	 1.231435242	 0.21399
C	 0.6376358342	-0.5964065476	 1.2724615268	-0.230577
N	-1.1750923733	-2.1787922085	 2.433766242	-0.379729
C	-0.7681390117	-3.5646013689	 2.0737028696	-0.287731
C	-0.3183891694	-3.0101758844	 0.7095956872	 0.342128
O	 0.0538280835	-3.4821330355	-0.3211453014	-0.285405
H	 1.1674526259	 1.8741848906	 0.0021639911	 0.123352
H	-0.4311572127	 1.9480940501	-0.7531245672	 0.125806
H	-0.2866399226	 2.0385971774	 1.0210712116	 0.087818
H	-1.9483807111	 0.0869887218	 1.0039994685	 0.091829
H	-1.7967816666	-0.8418794249	-0.5251206052	 0.115434
H	 1.6464141145	-0.989318188	 1.1037767478	 0.114411
H	 0.6253065534	-0.0214870201	 2.2170485408	 0.08164
H	-0.7906823013	-1.8395847971	 3.3080281891	 0.223003
H	 0.0657062682	-3.9877623111	 2.6498829374	 0.1249
H	-1.5884935972	-4.2897815288	 2.0559374938	 0.134225
77.4911	100.7334	151.53	225.828	233.1055	288.1514	348.0289	387.4165	454.5454	529.6942	545.0375	662.7183	713.2714	754.7787	883.8887	900.0307	951.0926	974.3839	994.2403	1003.5741	1044.3727	1082.7384	1107.1078	1121.1765	1129.7742	1162.4496	1192.801	1220.2075	1228.4344	1277.9861	1289.203	1295.5701	1341.4081	1369.574	1451.1458	1478.3875	1485.018	1488.4856	1497.6041	1517.6703	1914.3616	2916.0053	2931.7863	2967.8955	3017.4904	3054.5105	3058.0585	3066.394	3074.6545	3100.6629	3543.2008
CN1CC2(C1)NCC2=O	CN1CC2(C1)NCC2=O	
InChI=1S/C6H10N2O/c1-8-3-6(4-8)5(9)2-7-6/h7H,2-4H2,1H3	InChI=1S/C6H10N2O/c1-8-3-6(4-8)5(9)2-7-6/h7H,2-4H2,1H3
