18
gdb 78530	2.39799	1.59783	1.26531	2.824	71.84	-0.2131	0.0648	0.2779	1061.9722	0.146226	-438.991779	-438.983457	-438.982512	-439.024016	33.183	
C	-0.0636708304	 1.4912179114	 0.0510261741	-0.507965
C	 0.094942766	 0.0052931865	 0.0126609947	 0.364002
N	-0.8581720493	-0.9121905429	 0.7152051886	-0.413203
C	 0.6095249262	-0.9609129166	 1.000788174	-0.184881
C	 1.3193887711	-1.7791854902	-0.1183658778	 0.301793
O	 2.6358262503	-2.1769138276	 0.0368237463	-0.452475
C	 0.4060889101	-2.2571957327	-1.2130439244	 0.056793
O	-0.8419518801	-2.8460060793	-1.1155255981	-0.426614
C	 0.7623278828	-0.7776326081	-1.1546861636	-0.246739
H	 0.8735219957	 1.9883304247	-0.2202316415	 0.135554
H	-0.8357179261	 1.8258341995	-0.6518224872	 0.13374
H	-0.3458641543	 1.8307300304	 1.0537936555	 0.117479
H	-1.2995549926	-0.3818891477	 1.4665711361	 0.229256
H	 0.9961885439	-0.8118048004	 2.0014132184	 0.101635
H	 2.6400085186	-3.1095211558	 0.281241384	 0.290908
H	 0.990633854	-2.7439657975	-1.9935266106	 0.106797
H	-1.2914171869	-2.3416010358	-0.4134938026	 0.298834
H	 1.2767941412	-0.274080608	-1.9643783057	 0.095085
143.8155	202.6666	215.5863	261.5934	282.3076	309.1086	346.7696	376.1741	473.0861	529.0315	577.8712	612.5369	685.0303	693.4301	764.8437	791.1974	850.79	884.6279	919.9778	940.0877	973.2885	994.3517	1004.3807	1090.1992	1098.5725	1109.3742	1126.3246	1199.7323	1204.6741	1269.1638	1289.4896	1314.0609	1324.5293	1409.9985	1426.8957	1454.3715	1481.0344	1499.4983	1502.6019	3024.0904	3088.2436	3099.0858	3121.4451	3185.8596	3194.3569	3462.9005	3591.5503	3785.1187
CC12NC1C1(O)C(O)C21	C[C@]12N[C@H]1[C@@]1(O)[C@@H](O)[C@@H]21	
InChI=1S/C6H9NO2/c1-5-2-3(8)6(2,9)4(5)7-5/h2-4,7-9H,1H3	InChI=1S/C6H9NO2/c1-5-2-3(8)6(2,9)4(5)7-5/h2-4,7-9H,1H3/t2-,3-,4+,5+,6-/m0/s1
