17
gdb 19407	3.01467	2.19899	1.62419	1.3954	67.85	-0.2389	0.0667	0.3056	837.3044	0.143026	-363.797106	-363.78997	-363.789026	-363.828144	28.103	
O	 0.2092044963	 1.3699117512	-0.2109206658	-0.429373
C	 0.0197459378	-0.0081717809	-0.0017183896	 0.047823
C	 0.3103771473	-0.6436961244	 1.364196378	-0.090709
C	-0.7325013024	-0.2705040416	 2.3865598286	-0.29787
C	-1.0749309928	-1.3112783368	 1.3601918627	-0.117382
C	-1.4092937861	-0.6001857141	 0.064101123	 0.332221
C	-2.6639239342	 0.0364727945	-0.3910727706	-0.313167
N	-2.1415194467	-1.1850728276	-1.0457611809	-0.387887
H	-0.1899083449	 1.8378194781	 0.5305257612	 0.281537
H	 0.5954686083	-0.5067418788	-0.7890513629	 0.097051
H	 1.2634538327	-1.0638183477	 1.6602480628	 0.091746
H	-0.5345382702	-0.6324889364	 3.3901537712	 0.118665
H	-1.2328053819	 0.6963151155	 2.3635530967	 0.099078
H	-1.3369554905	-2.3323840529	 1.6029603269	 0.101692
H	-3.5869524791	-0.1040141005	 0.1650921697	 0.117826
H	-2.5797816195	 0.9837890014	-0.9184503265	 0.116776
H	-1.6933096441	-0.9429395691	-1.9275018744	 0.231972
129.0815	202.9601	234.8916	282.3503	301.7836	430.3946	484.8676	584.9133	589.8925	727.5067	793.9465	822.5686	872.6937	915.1529	932.2295	940.3066	974.5854	992.7425	1013.9882	1034.2461	1064.2163	1075.9711	1087.6736	1116.7922	1131.5463	1179.3634	1229.7038	1246.7786	1262.5581	1284.3206	1305.8531	1346.1586	1422.7562	1434.7957	1490.7255	1511.5379	3058.3771	3097.6448	3102.1517	3187.2915	3190.3425	3195.2868	3210.7433	3479.3662	3808.2204
OC1C2CC2C11CN1	O[C@H]1[C@H]2C[C@H]2[C@]21CN2	
InChI=1S/C6H9NO/c8-5-3-1-4(3)6(5)2-7-6/h3-5,7-8H,1-2H2	InChI=1S/C6H9NO/c8-5-3-1-4(3)6(5)2-7-6/h3-5,7-8H,1-2H2/t3-,4+,5-,6-/m0/s1
