17
gdb 44813	2.76058	1.58471	1.2336	2.2776	73.51	-0.225	0.0046	0.2296	1037.1344	0.1365	-417.960688	-417.95295	-417.952006	-417.993277	29.646	
O	 0.3823247252	 0.1342106377	 0.7274480676	-0.354372
C	 0.2311374081	 1.2574700728	 0.3325916113	 0.360833
N	-0.9145058069	 1.9649902119	-0.0837778786	-0.34289
C	-0.1544019793	 3.2005225358	-0.3121697488	-0.066777
C	 0.5772214722	 3.6223561019	 0.9247708537	-0.335424
C	 1.127014042	 2.4739236968	 0.0687235863	 0.239159
N	 2.4147813318	 2.5638645671	-0.5075230128	-0.169781
C	 3.4405813224	 1.655727945	 0.0232302722	-0.233732
C	 2.8692350422	 1.4422627419	-1.3342368492	-0.237989
H	-1.7841903965	 1.9368320261	 0.4378736631	 0.242348
H	-0.3414166747	 3.8152176019	-1.1815980191	 0.123446
H	 1.1786541852	 4.5232586444	 0.8453489468	 0.134073
H	 0.1487005344	 3.4328638944	 1.9047965537	 0.120411
H	 4.4269732905	 2.0938787952	 0.1437006187	 0.118093
H	 3.1392699895	 0.9545461861	 0.796340895	 0.144168
H	 2.201198985	 0.5944975766	-1.4606118372	 0.139266
H	 3.4324281887	 1.7246640345	-2.2185968726	 0.119168
63.3112	140.9163	185.8499	217.8295	342.8458	422.9125	457.7537	478.73	614.0687	652.7116	704.196	768.2996	817.4215	859.9249	866.4148	882.5802	928.3136	952.6857	975.6056	1023.6567	1053.5129	1065.258	1091.6473	1113.6497	1128.7737	1132.3518	1180.286	1181.3723	1237.9505	1246.5967	1304.3005	1322.4713	1417.6936	1482.6097	1487.7217	1513.8181	1878.5495	3112.1997	3115.4646	3116.3328	3197.6336	3209.809	3212.1138	3220.2274	3538.3918
O=C1NC2CC12N1CC1	O=C1N[C@H]2C[C@@]12N1CC1	
InChI=1S/C6H8N2O/c9-5-6(8-1-2-8)3-4(6)7-5/h4H,1-3H2,(H,7,9)	InChI=1S/C6H8N2O/c9-5-6(8-1-2-8)3-4(6)7-5/h4H,1-3H2,(H,7,9)/t4-,6-/m0/s1
