17
gdb 84254	3.33605	1.75257	1.51333	2.3593	73.69	-0.2309	-0.018	0.2129	900.1306	0.137675	-421.753763	-421.74723	-421.746286	-421.784376	27.38	
O	-0.0144343824	 1.378459818	 0.2760426981	-0.43641
C	 0.0631308137	 0.0013456492	-0.0344692695	 0.105458
C	 0.7058028256	-0.7778671435	 1.1256588256	-0.178763
C	-0.0073968845	-1.8712298674	 1.4086151852	 0.12588
C	-0.8837655734	-2.1527468619	 2.620167658	-0.303325
C	-2.0499811273	-1.7451771523	 1.632311696	 0.129313
O	-2.0717941393	-0.3504839112	 1.190214911	-0.336739
C	-1.3405006189	-0.6501181447	-0.0595482042	 0.078429
C	-1.1620537943	-2.086082558	 0.4239417911	-0.148013
H	-0.6191958324	 1.4404530612	 1.0285067522	 0.290592
H	 0.5622345127	-0.0672108734	-1.0085705154	 0.090637
H	 1.3675826585	-0.25686754	 1.8092233833	 0.101599
H	-1.0232770088	-3.2083778608	 2.8814276349	 0.112656
H	-0.7062276215	-1.5623108484	 3.5213702389	 0.116578
H	-3.0585738433	-2.1125161786	 1.8392030741	 0.088306
H	-1.957491464	-0.4083598403	-0.9298721742	 0.076437
H	-1.2300730804	-2.9758662978	-0.197037085	 0.087363
137.2519	259.769	362.6246	387.9961	444.383	490.2842	533.6116	597.5217	703.4692	742.6559	803.7134	824.9608	833.4183	864.92	875.4235	928.9839	945.3644	961.7808	973.1846	995.5444	1021.9205	1052.0024	1082.2588	1110.7082	1153.6428	1185.604	1212.7761	1238.6909	1255.6955	1260.0592	1264.9087	1279.7075	1315.21	1330.8995	1433.9891	1472.3619	1666.3338	3036.6327	3038.0594	3071.8628	3077.5605	3118.2301	3144.2451	3190.6311	3751.4905
OC1C=C2CC3OC1C23	O[C@H]1[CH][C]2C[C@H]3O[C@@H]1[C@@H]23	
InChI=1S/C7H8O2/c8-4-1-3-2-5-6(3)7(4)9-5/h1,4-8H,2H2	InChI=1S/C7H8O2/c8-4-1-3-2-5-6(3)7(4)9-5/h1,4-8H,2H2/t4-,5+,6-,7-/m0/s1
