19
gdb 39027	3.11728	1.66985	1.25955	1.5234	80.87	-0.2248	0.014	0.2388	1022.8122	0.16176	-385.882272	-385.875116	-385.874172	-385.91371	28.904	
C	-0.0232698063	 1.5044169926	 0.0942522204	-0.32668
C	 1.3014984701	 0.778331886	 0.0099943602	-0.128862
C	 1.9764459252	 0.3851363726	 1.3350853468	-0.265705
C	 0.9916993835	-0.5758896382	 1.987400024	-0.261206
C	-0.0569511053	-0.788567495	 1.1940493365	 0.287096
C	-1.227304717	-1.7192034693	 1.0721348247	-0.179775
O	-1.7001717167	-1.5582393735	-0.2740386538	-0.273634
C	-0.7339325918	-0.8511872703	-1.0678569652	-0.193982
C	 0.0035892501	 0.0045401688	-0.064371097	 0.295431
H	-0.3420026315	 1.922710643	 1.0449310771	 0.110291
H	-0.3072439595	 2.0872524996	-0.7774767602	 0.108259
H	 1.9216050804	 0.9560789003	-0.8614278558	 0.088876
H	 2.9394666445	-0.1140608507	 1.160807578	 0.108567
H	 2.197490376	 1.2623070001	 1.9576781534	 0.110184
H	 1.1756287188	-1.0306130102	 2.9540811344	 0.09259
H	-0.9418523963	-2.7653333409	 1.2573245019	 0.108935
H	-2.0556527973	-1.474594218	 1.749130285	 0.117969
H	-0.0591419048	-1.5613718671	-1.5722571016	 0.09288
H	-1.2834530121	-0.2909246098	-1.8294822586	 0.108766
115.5591	181.2385	254.6516	272.9508	386.6457	403.3256	551.5088	579.8422	649.3732	750.777	754.3579	805.749	833.4051	870.5854	882.1618	908.2865	947.7119	956.8062	1000.7987	1031.5311	1037.969	1061.4597	1078.1338	1082.8857	1092.6133	1122.1875	1186.2688	1203.5835	1215.3361	1235.1067	1264.7887	1309.9567	1321.7214	1339.9068	1386.5022	1408.3271	1474.7107	1486.4239	1505.5688	1519.4565	1730.3307	2971.2081	2992.8916	3011.3915	3032.9559	3037.7111	3081.9477	3109.6148	3171.5124	3195.935	3198.7579
C1C2CC=C3COCC123	C1[C@H]2CC=C3COC[C@]123	
InChI=1S/C8H10O/c1-2-7-4-9-5-8(7)3-6(1)8/h2,6H,1,3-5H2	InChI=1S/C8H10O/c1-2-7-4-9-5-8(7)3-6(1)8/h2,6H,1,3-5H2/t6-,8-/m1/s1
