16
gdb 16814	3.77453	1.87027	1.41881	3.0158	64.23	-0.2424	-0.0293	0.213	880.0161	0.130521	-383.753559	-383.746456	-383.745511	-383.784884	26.957	
C	 0.1053080543	 1.5752467025	 0.0336112023	-0.402879
C	 0.0052266176	 0.0490671794	 0.020073121	-0.009619
C	 0.6576050064	-0.6278285011	-1.2127920809	-0.350471
C	 1.2154724293	-1.9649501104	-0.7095778474	 0.413277
O	 1.3773290511	-2.9708557474	-1.3504498597	-0.31406
C	 1.4414797395	-1.8157578096	 0.774613582	-0.086927
O	 2.1312414805	-0.5846581157	 1.0775680052	-0.248946
C	 0.7122205053	-0.6069652727	 1.2022918014	 0.047924
H	 1.1544195331	 1.8871685041	 0.0460462973	 0.134986
H	-0.3694467108	 2.0083979744	-0.8520828778	 0.121145
H	-0.3850987622	 1.9979246652	 0.9168597459	 0.116675
H	-1.0513525744	-0.2457257129	 0.0676847771	 0.087739
H	-0.0317662935	-0.7940715994	-2.0422970408	 0.130133
H	 1.4924593215	-0.0272164345	-1.59142044	 0.14122
H	 1.6641103797	-2.6700035018	 1.4053046661	 0.115207
H	 0.3279923626	-0.5001801203	 2.2142602682	 0.104594
96.9896	174.521	239.3123	261.7702	339.9816	461.5682	486.7384	543.2367	621.5536	665.1663	815.7223	821.1	861.0506	875.1783	913.6255	950.0613	1009.4641	1034.5741	1091.1492	1103.6898	1140.7496	1180.7318	1206.0178	1240.7506	1263.4665	1310.9504	1327.1901	1360.2947	1403.5199	1414.4133	1453.6973	1496.5308	1501.5075	1847.8863	3023.7991	3034.6531	3054.8551	3103.002	3112.1026	3123.659	3143.6423	3182.3333
CC1CC(=O)C2OC12	C[C@H]1CC(=O)[C@H]2O[C@@H]12	
InChI=1S/C6H8O2/c1-3-2-4(7)6-5(3)8-6/h3,5-6H,2H2,1H3	InChI=1S/C6H8O2/c1-3-2-4(7)6-5(3)8-6/h3,5-6H,2H2,1H3/t3-,5-,6+/m0/s1
