25
gdb 118410	1.96287	0.78367	0.58305	0.1468	99.29	-0.2391	0.063	0.3022	2033.8674	0.225942	-352.350308	-352.337984	-352.33704	-352.392213	42.318	
C	-0.0575993225	 1.6188118224	-0.1270843503	-0.384531
C	 0.0008448817	 0.0916858653	-0.0224330737	-0.174293
C	-1.3912518681	-0.5417794708	 0.0852335568	-0.166734
C	-1.4017900106	-2.0915369735	 0.087894276	-0.16514
C	-0.7536440988	-2.6928043681	 1.3582148262	-0.166436
C	-0.6434150735	-4.2185773415	 1.3280527109	-0.385185
C	-2.7693723646	-2.5854958312	-0.0887013287	 0.066039
C	-3.9052965903	-2.967113011	-0.2159879246	 0.073125
C	-5.2751022181	-3.4342408151	-0.3820839786	-0.498767
H	 0.9443947621	 2.052271106	-0.2049927805	 0.11059
H	-0.6273870215	 1.9338045039	-1.008313116	 0.11458
H	-0.542529303	 2.0572743341	 0.7522077227	 0.114697
H	 0.5155259407	-0.3159319535	-0.903075399	 0.093963
H	 0.6134935184	-0.1847914911	 0.8435250033	 0.100489
H	-1.8971009489	-0.1836485263	 0.9915047289	 0.098363
H	-2.0027122537	-0.1996314804	-0.7580408733	 0.100458
H	-0.8063169544	-2.4258558232	-0.776218344	 0.092136
H	 0.245358708	-2.2602675035	 1.4793555459	 0.095543
H	-1.3414888288	-2.378248418	 2.2293818937	 0.099407
H	-1.6289027835	-4.6811890711	 1.2228067965	 0.128735
H	-0.026078943	-4.5532245366	 0.4865306199	 0.110171
H	-0.1852220854	-4.5970645912	 2.2470927786	 0.108126
H	-5.3164910602	-4.3421311525	-0.994413051	 0.144989
H	-5.7382116266	-3.6667966293	 0.5834412534	 0.144725
H	-5.8983559153	-2.677727564	-0.8720873131	 0.144951
2.0405	62.3868	71.2953	78.2037	99.9581	136.5521	204.307	237.7793	243.4747	245.6509	308.3442	318.9245	333.5814	439.7123	512.1557	564.92	713.2319	741.1771	819.2011	840.5906	896.5335	921.0823	1008.104	1033.3722	1037.9767	1053.5378	1053.9684	1065.5017	1101.5977	1121.6891	1159.6321	1191.9091	1251.5172	1273.3064	1306.7742	1321.3348	1338.413	1360.452	1365.9166	1396.2865	1411.1278	1412.6396	1415.1621	1479.5709	1479.6931	1481.6989	1486.8585	1493.4981	1496.6533	1499.0331	1507.6937	1510.9973	2364.9298	2979.3559	3014.3557	3024.2415	3024.33	3029.7148	3030.9827	3033.2962	3046.758	3068.9948	3072.679	3083.5855	3083.8542	3097.3084	3098.3567	3101.5546	3115.6836
CCCC(CC)C#CC	CCC[C@@H](CC)C#CC	
InChI=1S/C9H16/c1-4-7-9(6-3)8-5-2/h9H,4,6-7H2,1-3H3	InChI=1S/C9H16/c1-4-7-9(6-3)8-5-2/h9H,4,6-7H2,1-3H3/t9-/m1/s1
