15
gdb 24303	4.08554	1.6523	1.28031	4.0371	70.4	-0.2214	0.0094	0.2308	932.2185	0.116443	-416.824512	-416.818386	-416.817442	-416.854996	24.528	
C	-0.0508321772	 1.4841941377	-0.0033532542	-0.219161
C	 1.4365785262	 1.8565497615	-0.0283832042	 0.050764
O	 2.1606525759	 1.4294080723	 1.1190249447	-0.246146
C	 2.2440100807	 0.6207655703	-0.0833068483	-0.137672
C	 1.2696197552	-0.4890934328	-0.0755829825	 0.416857
N	 1.2807663548	-1.800734526	-0.0769824676	-0.363014
C	-0.0507830141	-2.1482221683	 0.0143817846	-0.096406
C	-0.8583073216	-1.0336268566	 0.0770943137	-0.14801
N	 0.0074998516	 0.0278190007	 0.0035314736	-0.00627
H	-0.550095534	 1.8729404356	 0.8896789277	 0.143128
H	-0.5698067452	 1.8599469092	-0.8922467141	 0.129932
H	 1.7418817871	 2.8007803258	-0.4695274543	 0.11293
H	 3.2233458789	 0.5412335197	-0.5388906568	 0.122893
H	-0.3588167241	-3.1828014592	 0.0285849305	 0.110001
H	-1.9262602142	-0.9137837597	 0.1494550172	 0.130176
148.5116	206.3119	353.5172	438.9677	450.2051	623.5669	642.916	728.2168	733.5601	762.3494	785.4631	846.1234	853.2612	868.0378	905.967	946.9475	998.3927	1052.364	1086.6802	1105.3357	1149.0773	1190.9517	1217.5458	1243.9907	1290.8724	1296.9474	1312.4872	1391.1308	1415.4648	1444.871	1487.5601	1518.9369	1590.0156	3042.5425	3089.7832	3161.8799	3202.2418	3248.3896	3280.9717
C1C2OC2C2=NC=CN12	C1[C@H]2O[C@H]2c2nccn12	
InChI=1S/C6H6N2O/c1-2-8-3-4-5(9-4)6(8)7-1/h1-2,4-5H,3H2	InChI=1S/C6H6N2O/c1-2-8-3-4-5(9-4)6(8)7-1/h1-2,4-5H,3H2/t4-,5-/m1/s1
