19
gdb 114681	3.30561	1.28641	1.21676	2.5107	74.14	-0.2437	0.0099	0.2536	1091.5718	0.161284	-423.014091	-423.006477	-423.005533	-423.046236	30.242	
O	-0.1069880789	 1.4955121054	 0.0212619058	-0.421515
C	 0.0391229416	 0.0820277535	 0.0741664348	-0.106372
C	-1.3477864452	-0.5280565375	-0.0430324937	 0.049788
C	-2.0577983281	-0.3166002177	-1.413258567	-0.234588
C	-2.4380238947	-1.7906818038	-1.7754632194	 0.018554
O	-2.7171455181	-2.3369328997	-0.4777966989	-0.247892
C	-1.418818095	-2.0932009312	 0.0745651977	-0.016177
C	-0.5041644696	-2.693616199	-0.9885399052	-0.082063
C	-1.1423921218	-2.5055196137	-2.1441734484	-0.076584
H	 0.7696737124	 1.8892774246	 0.0565552195	 0.285547
H	 0.679682685	-0.2803031127	-0.7441233565	 0.086071
H	 0.5060169632	-0.2301123175	 1.0239938011	 0.08028
H	-1.9664913868	-0.1107850146	 0.7565048387	 0.089585
H	-2.9551922326	 0.2955779297	-1.3053609766	 0.108667
H	-1.4131152526	 0.1525990067	-2.160001852	 0.103292
H	-3.2924030443	-1.9174788152	-2.4389506207	 0.078868
H	-1.3479358717	-2.4906224309	 1.0867549538	 0.077313
H	 0.4873824962	-3.090261204	-0.8180423806	 0.103925
H	-0.798187919	-2.7042626425	-3.1501183523	 0.103301
96.6028	140.6347	203.3347	276.5283	338.7128	422.362	451.8458	482.4732	602.1182	706.6534	734.9019	799.4885	815.2786	842.2118	864.5204	908.0319	925.2393	937.185	954.0633	964.8162	995.1943	1046.7459	1068.7727	1076.7528	1100.1783	1120.0438	1169.0523	1195.9137	1242.5927	1245.6535	1268.8649	1272.2253	1286.6431	1315.916	1339.7851	1345.9865	1371.9019	1460.0418	1492.5964	1524.1206	1639.3167	2953.6219	2999.5588	3067.1607	3074.6332	3120.088	3123.372	3131.5026	3213.7893	3239.5996	3827.0629
OCC1CC2OC1C=C2	OC[C@H]1C[C@@H]2O[C@H]1C=C2	
InChI=1S/C7H10O2/c8-4-5-3-6-1-2-7(5)9-6/h1-2,5-8H,3-4H2	InChI=1S/C7H10O2/c8-4-5-3-6-1-2-7(5)9-6/h1-2,5-8H,3-4H2/t5-,6-,7+/m1/s1
