20
gdb 83745	2.80995	1.55663	1.3764	0.6324	79.32	-0.2148	0.0877	0.3024	1042.2395	0.171417	-403.103022	-403.094957	-403.094013	-403.135305	31.888	
C	-0.3082076565	 1.4752455972	-0.0009426263	-0.327841
N	 0.0386785254	 0.0587472729	 0.0633256962	-0.101613
C	 1.3521454693	-0.4424189477	-0.3076605144	-0.053027
C	 2.539047166	 0.5056538235	-0.3141325069	-0.122884
O	 2.5098461963	 1.1981404979	 0.9351495565	-0.29852
C	 1.8030960612	 0.4123679269	 1.8741784839	 0.461053
C	 2.5204212006	-0.0563192856	 3.1142661625	-0.33927
C	 1.495604042	 1.064067991	 3.1839355541	-0.331974
C	 0.8835859038	-0.4961303895	 1.1116062221	-0.134335
H	 0.4946999639	 2.1636138333	 0.2872145286	 0.132895
H	-0.6215712332	 1.7049943362	-1.024479102	 0.118315
H	-1.167500648	 1.6479925714	 0.6546015576	 0.121234
H	 1.3780232504	-1.303607535	-0.970360138	 0.093577
H	 3.4684837059	-0.0737075885	-0.4292041873	 0.10089
H	 2.507446529	 1.2626853535	-1.105658395	 0.110833
H	 2.2662023368	-1.0235801392	 3.535762136	 0.112085
H	 3.564003078	 0.2233469436	 3.202776781	 0.121844
H	 1.8698058637	 2.0717271628	 3.3260371559	 0.125885
H	 0.5358580715	 0.8649661684	 3.6482794957	 0.117966
H	 0.5263819239	-1.398508723	 1.6003688799	 0.092886
101.361	184.779	199.8534	225.8979	285.1407	297.4651	402.6139	461.5785	510.1496	587.1054	738.7813	745.7787	765.497	816.3515	840.5628	873.9879	902.6763	950.7632	966.5243	981.9139	1002.5269	1027.1334	1048.9238	1073.7558	1080.9524	1101.9312	1129.5363	1166.6731	1183.1106	1190.2199	1229.6207	1257.2796	1273.6641	1310.3057	1352.7089	1385.1022	1412.5464	1449.7063	1459.5816	1491.7609	1497.247	1510.1081	1518.826	2984.1478	3021.7468	3060.4864	3088.5509	3100.1047	3128.8276	3134.9616	3138.3912	3148.5441	3215.7171	3229.8919
CN1C2COC3(CC3)C12	CN1[C@H]2COC3(CC3)[C@@H]12	
InChI=1S/C7H11NO/c1-8-5-4-9-7(2-3-7)6(5)8/h5-6H,2-4H2,1H3	InChI=1S/C7H11NO/c1-8-5-4-9-7(2-3-7)6(5)8/h5-6H,2-4H2,1H3/t5-,6-,8?/m0/s1
