15
gdb 52041	3.19711	0.81172	0.67413	1.8236	64.38	-0.2637	-0.0648	0.1989	1554.5951	0.106429	-494.89721	-494.887315	-494.886371	-494.934084	32.057	
O	-0.2378650063	 0.1005438739	 0.4989366079	-0.232467
C	-0.0142204938	 1.0864217373	-0.1493862423	 0.143305
C	 1.3634162031	 1.7164198575	-0.2596687693	-0.160787
O	 1.2300498647	 2.9164780048	-1.0005870229	-0.254125
C	 2.3786384501	 3.7025257871	-1.0948747136	-0.057043
C	 3.4514641863	 3.1451465795	-2.041181605	 0.143438
O	 3.3867455626	 2.0579298423	-2.5457119827	-0.227394
C	 1.9604783401	 5.0934284252	-1.5767783359	 0.128775
O	 2.7425716462	 5.9859688454	-1.7607042847	-0.237405
H	-0.7996379818	 1.6193807687	-0.7289051041	 0.099705
H	 1.7479890931	 1.9109784277	 0.7541112923	 0.126183
H	 2.0415226538	 1.0103634482	-0.75419422	 0.161525
H	 2.8748500326	 3.8461725594	-0.1158559901	 0.126387
H	 4.2929256502	 3.8467516717	-2.2161676814	 0.121294
H	 0.8680841391	 5.1855322511	-1.7495014282	 0.118609
43.2701	53.7341	101.1595	118.1394	126.6603	149.1369	221.9901	270.7121	348.7111	378.5405	544.8726	567.2193	718.0942	742.5851	814.3842	873.0324	1022.319	1036.6741	1083.6601	1104.628	1113.0585	1203.0653	1224.8351	1239.787	1306.65	1359.7317	1387.2037	1396.4799	1418.6638	1477.2754	1819.2123	1848.0201	1850.7218	2902.1232	2926.4997	2929.3887	2941.3024	2989.9588	3063.2674
O=CCOC(C=O)C=O	O=CCOC(C=O)C=O	
InChI=1S/C5H6O4/c6-1-2-9-5(3-7)4-8/h1,3-5H,2H2	InChI=1S/C5H6O4/c6-1-2-9-5(3-7)4-8/h1,3-5H,2H2
