18
gdb 120130	2.88799	1.21366	1.14555	5.3231	72.03	-0.2358	0.0153	0.251	1148.5447	0.148	-439.070559	-439.062097	-439.061153	-439.104016	31.678	
O	-0.6439883081	 0.3086358551	 1.2508997479	-0.412711
C	-0.2249436314	-0.0088098229	-0.0731555249	-0.068846
C	-1.3211101347	-0.8447915623	-0.7293906599	-0.24056
C	-1.4456536152	-2.2411170146	-0.1427731771	-0.01758
C	-1.8874369355	-2.5409433481	 1.2545567627	-0.001051
N	-2.9215567207	-1.6154491066	 1.7219815622	-0.337492
C	-3.7661133897	-1.9306305803	 0.6371856987	 0.410123
O	-4.8323283152	-1.494194978	 0.3054151451	-0.347836
C	-2.7833496659	-2.9640879682	 0.1012251879	-0.262447
H	 0.0621152398	 0.7908688437	 1.6901228375	 0.29236
H	-0.0631300963	 0.9079316165	-0.6597005503	 0.094183
H	 0.7237968045	-0.5680553679	-0.0605875514	 0.089674
H	-2.2641725404	-0.2958661584	-0.6450891428	 0.13331
H	-1.1076517882	-0.9263492233	-1.8011677007	 0.106833
H	-0.6843712234	-2.9353229886	-0.4993778033	 0.094717
H	-1.3512739104	-3.167123738	 1.9556033	 0.105142
H	-2.681497464	-0.6571989572	 1.9567968528	 0.250044
H	-3.0002747751	-3.944496591	-0.2983967845	 0.112138
69.6186	117.1252	141.5471	210.539	254.7336	273.7401	380.2028	459.4206	485.6218	557.3	677.5604	731.1413	753.6033	799.9575	837.9082	860.3601	903.3566	923.5189	950.3626	1005.5368	1032.0419	1058.424	1079.3728	1091.9037	1102.9697	1146.0698	1168.4277	1222.8491	1255.6759	1271.9425	1311.3865	1321.5254	1331.7239	1369.1119	1434.8794	1453.6018	1476.1819	1520.5049	1889.9648	2975.7482	3007.8116	3048.6882	3087.6066	3114.1978	3199.8059	3222.5788	3539.2381	3837.1381
OCCC1C2NC(=O)C12	OCC[C@H]1[C@H]2NC(=O)[C@@H]12	
InChI=1S/C6H9NO2/c8-2-1-3-4-5(3)7-6(4)9/h3-5,8H,1-2H2,(H,7,9)	InChI=1S/C6H9NO2/c8-2-1-3-4-5(3)7-6(4)9/h3-5,8H,1-2H2,(H,7,9)/t3-,4+,5-/m1/s1
