18
gdb 15684	3.07812	1.7512	1.23429	1.7683	67.91	-0.2413	-0.0244	0.2169	1010.0289	0.153402	-384.969983	-384.961847	-384.960903	-385.002981	29.58	
C	 0.0802886651	 1.5639349135	-0.0187418365	-0.389699
C	 0.1594153851	 0.0370440775	 0.0158323706	-0.179967
C	 0.5771348436	-0.5585086625	-1.3369109794	 0.015331
O	 1.872176137	-0.1426659055	-1.7569967754	-0.265336
C	 2.821293328	-1.1590306489	-1.4180703137	-0.093007
C	 2.0794326182	-2.4850853407	-1.5952131115	-0.335309
C	 0.6360569333	-2.0906215071	-1.2814016584	 0.376232
O	-0.282944254	-2.8199941537	-1.0179584385	-0.311067
H	 1.0397672617	 1.9911282007	-0.3228474847	 0.133153
H	-0.6786719181	 1.9031189445	-0.7324781363	 0.11619
H	-0.180022027	 1.9668625038	 0.9644638689	 0.113751
H	 0.8723658155	-0.2848112968	 0.7857970042	 0.096571
H	-0.8078479385	-0.4037177982	 0.282519209	 0.120623
H	-0.1394446248	-0.24655702	-2.1078949458	 0.106001
H	 3.6803110713	-1.0358741945	-2.0809794873	 0.118647
H	 3.1688459762	-1.0398036975	-0.3806235274	 0.101786
H	 2.1186061156	-2.8253985783	-2.6368326384	 0.141479
H	 2.4182268519	-3.3026400662	-0.9565055594	 0.134622
65.9084	110.1331	166.0275	179.0765	234.9183	304.424	414.6117	499.9934	531.1172	639.2477	650.761	766.5652	819.6631	835.6993	902.9324	929.8234	977.2596	1010.4651	1025.6081	1084.2994	1118.1409	1138.7397	1162.4546	1206.7024	1238.4222	1265.7217	1284.3425	1289.2295	1341.9615	1376.0694	1391.9153	1408.9285	1446.6994	1480.0058	1495.2883	1508.3191	1522.583	1854.0694	2989.4389	3022.1116	3032.3578	3037.3087	3049.3132	3073.6959	3102.9778	3104.2438	3120.8712	3125.4117
CCC1OCCC1=O	CC[C@H]1OCCC1=O	
InChI=1S/C6H10O2/c1-2-6-5(7)3-4-8-6/h6H,2-4H2,1H3	InChI=1S/C6H10O2/c1-2-6-5(7)3-4-8-6/h6H,2-4H2,1H3/t6-/m1/s1
