16
gdb 20730	3.32912	1.99062	1.26677	2.108	67.82	-0.1955	0.0459	0.2413	936.3563	0.132374	-376.120024	-376.111619	-376.110675	-376.152442	30.748	
C	-0.0568752345	 1.467495105	-0.0289092187	-0.49776
C	-0.0397700924	-0.0260077666	 0.0392690996	 0.31461
N	-0.0656885603	-0.7579128137	-1.0683851435	-0.308294
N	-0.032335131	-2.0490047166	-0.625164759	-0.268939
C	 0.0221003678	-2.1415010977	 0.7232833927	 0.383675
N	-0.0013728628	-3.3441447465	 1.4250210437	-0.607497
C	 0.0199695985	-0.8426344207	 1.2023642257	-0.009534
N	 0.0873975259	-0.524762735	 2.5905027791	-0.623467
H	 0.8433703668	 1.9044363588	 0.4199999995	 0.117631
H	-0.1109238486	 1.7908120386	-1.0704807455	 0.141008
H	-0.9168037358	 1.8850192335	 0.5081219187	 0.118964
H	-0.1122926464	-2.7971005159	-1.2910947954	 0.264345
H	 0.6993885358	-4.0084651154	 1.1165076545	 0.244887
H	 0.1316429099	-3.1447193154	 2.4115088664	 0.258151
H	-0.7599846326	-0.0680927869	 2.9151473653	 0.237022
H	 0.8542504298	 0.1095143844	 2.7924463467	 0.2352
103.7892	154.0752	183.9087	236.53	264.8965	293.225	295.7744	342.0427	429.4268	520.2423	585.9623	677.2576	708.5094	730.8897	783.7642	829.4798	847.7403	994.0665	1063.0047	1066.808	1110.3005	1157.6389	1213.9992	1275.8688	1360.9256	1402.1592	1429.8898	1482.0454	1483.7215	1516.4722	1565.2563	1621.231	1648.6692	1683.6774	3024.5524	3070.6508	3130.5373	3484.5889	3506.4362	3547.132	3594.8257	3683.6057
CC1=NNC(N)=C1N	Cc1n[nH]c(N)c1N	
InChI=1S/C4H8N4/c1-2-3(5)4(6)8-7-2/h5H2,1H3,(H3,6,7,8)	InChI=1S/C4H8N4/c1-2-3(5)4(6)8-7-2/h5H2,1H3,(H3,6,7,8)
