18
gdb 43216	2.8217	1.8372	1.63552	3.2489	74.25	-0.2292	-0.0236	0.2056	901.7088	0.150851	-401.923649	-401.917144	-401.9162	-401.95428	27.153	
O	 0.089363041	 0.0417607589	 0.2766668039	-0.318871
C	 0.0302647667	 1.2272650786	 0.1347205566	 0.455133
C	-1.0906338123	 2.2635078711	-0.0442803785	-0.124164
C	-1.4184027137	 2.8201669479	 1.3532285773	-0.230977
C	-0.0851985154	 3.1229773389	 2.0854522717	-0.230203
C	 0.9801313066	 3.4700806558	 1.0341392167	-0.035192
C	 0.3279854621	 4.3557829771	-0.0511795287	-0.171347
N	-0.0863273398	 3.1273044409	-0.8102618802	-0.149525
C	 1.0228455329	 2.3569942202	-0.0834810745	-0.136536
H	-1.9739436826	 1.9927665937	-0.6255742903	 0.098451
H	-2.0254949688	 3.7251003738	 1.2474074023	 0.114892
H	-2.0237039169	 2.0970991273	 1.9076022222	 0.11995
H	-0.2100284103	 3.9562729637	 2.7851008683	 0.103616
H	 0.2381918177	 2.2550868932	 2.6706183763	 0.119381
H	 1.9318068312	 3.7733826776	 1.4763416821	 0.073244
H	-0.4724795158	 5.0403351986	 0.2464641079	 0.103707
H	 1.0476732361	 4.9056937452	-0.6639003439	 0.113991
H	 1.9741677315	 2.1901448772	-0.5929331492	 0.094451
137.5368	262.6198	310.8293	394.4148	475.1949	497.1798	534.3032	617.4983	709.1206	766.5155	808.1599	816.5211	841.3909	865.8443	872.7426	920.1918	972.6867	983.9436	1011.7901	1051.5517	1069.8694	1081.9905	1104.6945	1123.921	1162.1453	1172.0837	1205.4568	1229.7922	1240.9488	1275.1439	1288.5845	1295.1376	1321.8438	1349.2069	1369.2305	1481.1305	1494.2017	1519.2757	1899.5075	3038.3007	3045.0128	3052.3506	3076.6982	3079.87	3094.4286	3096.5066	3097.9719	3100.5344
O=C1C2CCC3CN2C13	O=C1[C@H]2CC[C@@H]3CN2[C@H]13	
InChI=1S/C7H9NO/c9-7-5-2-1-4-3-8(5)6(4)7/h4-6H,1-3H2	InChI=1S/C7H9NO/c9-7-5-2-1-4-3-8(5)6(4)7/h4-6H,1-3H2/t4-,5-,6+/m1/s1
