17
gdb 41126	2.95864	2.20287	1.71448	1.6793	76.13	-0.2114	-0.0113	0.2001	837.2808	0.136367	-384.552071	-384.545797	-384.544853	-384.58211	27.312	
C	 0.0054091097	 1.4869348266	-0.2233818072	-0.326391
C	 1.5710536912	 1.501526376	 0.0424326289	-0.312641
C	 1.4097853338	 0.2105649226	 0.9072570027	 0.186265
C	 1.1167888857	 0.1928910572	 2.3860550462	-0.171894
C	 0.1501645482	-0.7226648016	 2.5372567873	-0.093996
C	-0.1214774156	-1.2318077482	 1.1338347475	-0.193856
C	 1.287239183	-1.2736528361	 0.3722798212	 0.023335
O	 0.6888893406	-0.8407695723	-0.8722361494	-0.344757
C	 0.0640868872	 0.0055633205	 0.1740719547	 0.377905
H	-0.5277046256	 2.0878376209	 0.5174700888	 0.123052
H	-0.3600982742	 1.7179222683	-1.2260606608	 0.118748
H	 2.1480492256	 1.3479825725	-0.8685801238	 0.131422
H	 1.9512802212	 2.3746824977	 0.5761796364	 0.107145
H	 1.6171648303	 0.7814657691	 3.143676782	 0.103399
H	-0.3196298295	-1.077133969	 3.4439251912	 0.107283
H	-0.8579502584	-2.0111662306	 0.938503564	 0.079858
H	 2.0216936269	-2.0882207037	 0.3282887602	 0.085123
223.9048	288.5804	360.4785	423.0847	510.0286	535.5842	618.5737	652.1386	682.7148	690.3149	736.6398	780.6717	808.558	837.322	846.1243	899.9008	913.667	915.1568	951.4856	979.6894	1036.0328	1070.9851	1097.2725	1105.0134	1127.9142	1163.8797	1184.0044	1217.6904	1234.2525	1238.6062	1247.0994	1264.1515	1301.9501	1339.7738	1452.6298	1464.8924	1612.9648	3029.2536	3068.9101	3083.708	3127.131	3129.7731	3154.7718	3211.2266	3239.7757
C1CC23C=CC4C2OC134	C1C[C@]23C=C[C@@H]4[C@H]2O[C@]134	
InChI=1S/C8H8O/c1-2-7-3-4-8(7)5(1)6(7)9-8/h1-2,5-6H,3-4H2	InChI=1S/C8H8O/c1-2-7-3-4-8(7)5(1)6(7)9-8/h1-2,5-6H,3-4H2/t5-,6-,7-,8+/m1/s1
