17
gdb 52986	3.16068	1.01665	0.84299	3.1416	85.92	-0.2324	-0.0106	0.2218	1402.5954	0.134269	-384.662688	-384.653719	-384.652775	-384.697714	32.185	
C	 0.0028614176	 1.5034489163	-0.0325444665	-0.508431
C	-0.0106960763	 0.0490615392	-0.0196643833	 0.214826
C	-0.0158603201	-1.1565173829	-0.0071471916	-0.176456
C	 0.0004702035	-2.5756866177	 0.0438473854	 0.105864
C	-0.385250169	-3.4525413232	-1.1606494992	-0.31284
C	-1.1593500222	-3.6383446444	 0.0870581159	-0.106555
C	-0.3645836546	-4.5271866842	 1.0503387807	-0.353092
C	 0.748040783	-3.4448192811	 1.032393882	 0.337709
O	 1.7246522846	-3.2696933007	 1.6991611035	-0.298042
H	 0.8854243198	 1.8890900885	 0.4896868104	 0.156573
H	 0.0250751181	 1.8959167385	-1.0552894362	 0.148478
H	-0.8818539136	 1.916853531	 0.4647047289	 0.148918
H	-0.8563621224	-2.8841302178	-1.9548415222	 0.13901
H	 0.2993917094	-4.224393459	-1.5026073226	 0.125902
H	-2.2109183806	-3.4020181186	 0.1737191236	 0.118567
H	-0.7884527898	-4.5973853495	 2.0560544874	 0.136828
H	-0.1081569273	-5.5303203245	 0.6969251538	 0.122742
31.6751	80.194	102.8888	146.9381	265.4709	292.748	376.5577	408.2959	451.1341	493.7112	583.8671	594.3769	661.0995	777.9991	812.5057	857.5373	926.7044	977.0471	993.7846	1009.3793	1034.2278	1050.6541	1054.3263	1080.463	1097.4762	1144.5227	1206.7101	1245.6652	1300.6621	1388.2594	1416.7866	1458.4462	1475.5599	1477.8913	1494.901	1884.514	2362.7533	3025.8384	3056.617	3085.4041	3089.4202	3111.7884	3117.8668	3211.415	3221.0406
CC#CC12CC1CC2=O	CC#C[C@]12C[C@H]1CC2=O	
InChI=1S/C8H8O/c1-2-3-8-5-6(8)4-7(8)9/h6H,4-5H2,1H3	InChI=1S/C8H8O/c1-2-3-8-5-6(8)4-7(8)9/h6H,4-5H2,1H3/t6-,8+/m1/s1
