17
gdb 108076	2.70275	1.70254	1.3101	0.9403	67.04	-0.226	0.0509	0.2769	987.0831	0.135449	-458.882355	-458.87461	-458.873666	-458.914492	30.611	
O	 0.0519459394	 1.0228810338	-0.8314075932	-0.415779
C	-0.1204611289	 0.0170358296	 0.1772612388	-0.22701
C	-1.4885899103	-0.5788323678	 0.1458813107	 0.379823
O	-2.5429034829	-0.0861362749	 0.9803146205	-0.332941
C	-3.3231890124	-1.2212924621	 0.4890157835	 0.055446
C	-3.6209632641	-0.8571581835	-0.9904999132	-0.29818
C	-2.1166057379	-1.0506859314	-1.1786762586	 0.321367
O	-1.3870452492	-1.0810179837	-2.3407833698	-0.468501
C	-2.0195937371	-1.9761911183	 0.038457531	-0.274401
H	-0.5617273719	 1.7384714844	-0.6320373371	 0.296761
H	 0.6239768486	-0.7505554571	-0.0489526527	 0.135883
H	 0.09512382	 0.4142828058	 1.177692638	 0.122435
H	-4.0862280549	-1.5623084836	 1.1835516618	 0.09337
H	-4.1901688442	-1.6418098035	-1.4949722715	 0.111461
H	-4.0663365603	 0.1267958255	-1.1706782538	 0.095943
H	-0.836924909	-0.2833360608	-2.3441179791	 0.296798
H	-1.6007466152	-2.9569084623	 0.2171142548	 0.107523
87.2814	149.6622	224.1819	291.9798	384.8072	393.4974	437.2304	464.0833	525.46	568.2582	661.4083	697.7577	751.7427	802.3522	834.7704	878.569	900.7063	916.8334	922.9758	1011.6073	1027.4671	1036.2294	1051.1614	1097.1904	1118.9297	1131.3481	1199.6464	1234.7403	1238.6321	1289.7606	1328.7122	1364.3264	1399.3756	1426.9835	1438.6153	1479.5017	1496.6418	3027.7314	3046.717	3105.2414	3115.613	3159.2283	3210.9215	3714.166	3811.2481
OCC12OC3CC1(O)C23	OC[C@@]12O[C@H]3C[C@]1(O)[C@@H]23	
InChI=1S/C6H8O3/c7-2-6-4-3(9-6)1-5(4,6)8/h3-4,7-8H,1-2H2	InChI=1S/C6H8O3/c7-2-6-4-3(9-6)1-5(4,6)8/h3-4,7-8H,1-2H2/t3-,4-,5-,6-/m0/s1
