23
gdb 60174	3.36462	0.78422	0.73124	2.1225	82.83	-0.2422	0.0684	0.3106	1666.6439	0.202194	-425.414757	-425.403739	-425.402795	-425.451161	40.886	
C	 0.1071473385	 1.5298869857	 0.1415994215	-0.402285
C	 0.0081322155	 0.0033933911	 0.1479589099	 0.143488
O	 0.4776010576	-0.5375005546	 1.3799087755	-0.424533
C	-1.4093006873	-0.4845104278	-0.1943262964	-0.238119
C	-1.5180778622	-1.9910220784	-0.2883607297	-0.00455
C	-1.8658277738	-2.8541344838	 0.9109040372	-0.337405
C	-2.8200962094	-2.7413641823	-0.2551480084	 0.374721
C	-4.1561599459	-2.0496109782	-0.1027376374	-0.446104
O	-2.8497522416	-3.8207596936	-1.1602785958	-0.467293
H	 1.1200105782	 1.8437473041	 0.4076710447	 0.12325
H	-0.138781886	 1.9419796384	-0.8425368195	 0.114583
H	-0.5882092539	 1.9679256643	 0.8691638322	 0.103348
H	 0.7030852605	-0.3989834342	-0.6003517339	 0.089163
H	-0.1013224067	-0.214667838	 2.0794017075	 0.273171
H	-2.1029942558	-0.0935888026	 0.5634562615	 0.079377
H	-1.7101847384	-0.0265468383	-1.146568023	 0.099679
H	-0.797497747	-2.4441757468	-0.9647488	 0.094437
H	-1.3268273267	-3.7865585418	 1.0347683211	 0.110636
H	-2.1272397423	-2.3535686804	 1.8384682487	 0.093692
H	-4.1031001413	-1.2001108701	 0.5829354128	 0.114275
H	-4.5171071431	-1.6912947914	-1.0724540697	 0.124264
H	-4.9038857599	-2.7461887659	 0.297020584	 0.105476
H	-3.3869465292	-4.5175541557	-0.7662231329	 0.276731
34.3028	80.24	115.62	198.4491	215.8763	238.5576	241.2588	266.2411	300.9364	309.3911	380.075	415.3763	439.1502	446.0178	491.3133	527.7891	702.097	833.7538	857.4983	859.9021	905.458	923.0473	946.8703	964.8983	997.2621	1038.7615	1058.3651	1084.3092	1104.7383	1111.5269	1137.35	1176.702	1216.9432	1250.3094	1294.2857	1307.463	1337.4375	1357.5632	1380.1408	1400.4022	1414.6141	1421.022	1426.3854	1471.8228	1483.1855	1487.7475	1492.4928	1495.3456	1511.792	3001.8471	3021.1669	3024.1383	3028.756	3044.3713	3084.9867	3092.1981	3118.0541	3118.5523	3125.3543	3142.3347	3216.1526	3785.9426	3797.1124
CC(O)CC1CC1(C)O	C[C@@H](O)C[C@H]1C[C@]1(C)O	
InChI=1S/C7H14O2/c1-5(8)3-6-4-7(6,2)9/h5-6,8-9H,3-4H2,1-2H3	InChI=1S/C7H14O2/c1-5(8)3-6-4-7(6,2)9/h5-6,8-9H,3-4H2,1-2H3/t5-,6+,7+/m1/s1
