14
gdb 98141	4.80271	0.82609	0.70792	2.4282	62.17	-0.2558	-0.0919	0.1639	1473.1844	0.098009	-511.006382	-510.996956	-510.996012	-511.04171	31.458	
O	-0.1003699448	 1.4713884828	 0.0111958717	-0.399215
C	-0.0191223407	 0.0731332941	 0.0026239439	-0.16866
C	-1.4144444336	-0.5053468077	 0.013582371	 0.293527
O	-2.431948447	 0.1427627273	 0.0274670519	-0.288042
C	-1.4638504386	-2.0533626981	 0.0055900354	 0.33813
O	-0.4601083344	-2.7222333214	-0.0076273551	-0.30291
N	-2.7717038013	-2.5014426712	 0.0153362591	-0.350222
C	-3.2297991729	-3.8177953835	 0.0122866329	 0.168355
O	-2.5440260368	-4.800873846	 0.0001911933	-0.247299
H	 0.7950356035	 1.8217748721	 0.0042553285	 0.300255
H	 0.4957026841	-0.3356773549	-0.8828176565	 0.139116
H	 0.5135452984	-0.3454093047	 0.8728283656	 0.139148
H	-3.4555611111	-1.7520225621	 0.0258099977	 0.278489
H	-4.3372161849	-3.8391175967	 0.0222188008	 0.099329
52.5982	92.8921	104.0279	131.8127	214.58	228.281	234.0502	295.0312	332.6414	409.5762	505.9514	597.867	701.8336	760.2799	776.1019	937.7124	965.5135	1000.0444	1031.5611	1127.557	1159.1421	1205.5505	1230.7688	1253.8929	1440.2867	1444.5708	1474.6001	1521.1764	1796.0784	1820.688	1867.0442	2944.4017	2975.5088	2995.2176	3551.4137	3840.5508
OCC(=O)C(=O)NC=O	OCC(=O)C(=O)NC=O	
InChI=1S/C4H5NO4/c6-1-3(8)4(9)5-2-7/h2,6H,1H2,(H,5,7,9)	InChI=1S/C4H5NO4/c6-1-3(8)4(9)5-2-7/h2,6H,1H2,(H,5,7,9)
