16
gdb 103041	2.45973	1.65315	1.15835	4.069	69.12	-0.2643	0.012	0.2763	1047.1772	0.12373	-437.810389	-437.80237	-437.801426	-437.843122	30.159	
O	 0.0539068302	 1.5387497621	-0.0659301816	-0.411264
C	 0.0641667013	 0.148059025	 0.177208485	-0.164579
C	-1.3372644149	-0.4631600063	 0.0214365524	 0.153962
C	-2.2323957001	 0.1624947565	 0.9938453845	 0.245353
N	-2.8360141759	 0.7368369589	 1.7957723899	-0.341706
C	-1.9921079609	-0.7042744906	-1.3825180853	 0.03142
C	-1.0353310132	-1.8897631867	-1.6440777443	-0.245787
C	-1.5904179546	-1.9948850411	-0.2043495169	 0.005746
O	-2.9259702488	-1.6541343453	-0.7364763515	-0.294213
H	-0.467963213	 1.9610332061	 0.6268188098	 0.30256
H	 0.7550202551	-0.2817746892	-0.5499773235	 0.123092
H	 0.4458621745	-0.0926675538	 1.1805985272	 0.113054
H	-2.4070778192	 0.0362734741	-2.0638185687	 0.123571
H	-1.4413670913	-2.6377827085	-2.3236996014	 0.128094
H	 0.0263763011	-1.7056969995	-1.807817955	 0.113274
H	-1.5249584103	-2.8020056318	 0.5243716394	 0.117422
83.334	146.1219	161.2762	205.1071	300.9314	391.6838	409.0087	479.6495	501.0059	544.7077	649.5252	678.0314	767.0441	815.7516	879.1064	889.7987	924.4007	972.2543	1022.5446	1043.9662	1079.3162	1087.1188	1136.2549	1151.9835	1169.3209	1192.8555	1206.2826	1240.4134	1274.4324	1300.6314	1386.6311	1422.8266	1488.279	1508.9157	2349.1659	2998.4149	3092.1872	3118.279	3133.2347	3146.0935	3170.9151	3792.3552
OCC1(C#N)C2CC1O2	OC[C@@]1(C#N)[C@H]2C[C@@H]1O2	
InChI=1S/C6H7NO2/c7-2-6(3-8)4-1-5(6)9-4/h4-5,8H,1,3H2	InChI=1S/C6H7NO2/c7-2-6(3-8)4-1-5(6)9-4/h4-5,8H,1,3H2/t4-,5+,6+
