16
gdb 25809	4.1221	1.13114	0.89377	1.6262	77.09	-0.23	-0.0297	0.2003	1266.2549	0.12536	-434.118235	-434.109817	-434.108873	-434.151473	31.031	
C	 0.124697713	 1.4302100787	-0.0305605101	-0.495225
C	-0.0356286836	-0.0427561512	 0.0329608149	 0.3217
C	-1.0840050405	-0.8889472928	 0.2150833653	-0.19715
N	-0.6304896975	-2.1955289681	 0.1800273076	-0.323895
C	 0.6503369822	-2.0884901838	-0.0184139545	 0.418057
O	 1.0834611784	-0.8128349699	-0.1184027336	-0.183013
C	 1.6152703905	-3.1990781966	-0.1249257505	 0.234184
N	 0.9871770653	-4.426098293	-0.15700403	-0.549354
N	 2.8652948389	-2.9387618543	-0.2061635592	-0.515781
H	 0.8034637818	 1.7911906462	 0.7496456002	 0.14972
H	 0.5358612775	 1.7449651713	-0.9958370809	 0.149677
H	-0.8452099203	 1.913501604	 0.1052982664	 0.141393
H	-2.1239939949	-0.6478858063	 0.3685638885	 0.125159
H	 0.0221702814	-4.4388969658	 0.139674692	 0.270318
H	 1.5388408666	-5.2323586055	 0.0873946086	 0.249164
H	 3.4113615311	-3.799466333	-0.2776010047	 0.205046
75.2699	134.5491	159.505	174.4627	284.307	323.8773	391.7165	404.9572	491.6457	537.6737	617.5583	632.6647	656.9491	707.1745	786.9088	846.4174	861.8833	976.8572	994.3673	1034.6388	1066.7706	1104.5233	1131.3455	1165.5491	1230.2647	1262.0179	1338.7265	1417.5878	1453.5953	1471.9764	1492.1859	1568.5399	1625.5135	1635.0031	1719.1525	3037.4508	3091.7031	3132.9341	3262.5752	3455.4476	3572.6369	3697.7565
CC1=CN=C(O1)C(N)=N	Cc1cnc(o1)C(=N)N	
InChI=1S/C5H7N3O/c1-3-2-8-5(9-3)4(6)7/h2H,1H3,(H3,6,7)	InChI=1S/C5H7N3O/c1-3-2-8-5(9-3)4(6)7/h2H,1H3,(H3,6,7)
