16
gdb 123648	3.98733	1.57607	1.22809	1.9695	74.42	-0.2284	0.0216	0.2501	976.7205	0.129254	-396.923281	-396.916966	-396.916022	-396.953776	25.974	
C	-0.0524067656	 1.567090634	-0.0010388396	-0.370208
C	 1.4521290123	 1.9034661407	-0.0404720528	-0.021903
N	 2.1939292006	 1.4688211911	 1.1574735467	-0.329349
C	 2.2712473137	 0.6485647143	-0.08605603	-0.212865
C	 1.2786071015	-0.4488480398	-0.0604427185	 0.40742
N	 1.3310658967	-1.7708486348	-0.0770324307	-0.349253
N	 0.0241561563	-2.1199166829	 0.007959863	-0.187483
C	-0.831723441	-1.0562389767	 0.0788689342	-0.210367
C	-0.0344972753	 0.0611839108	 0.0272664813	 0.225488
H	-0.5273629276	 2.0160746504	 0.8778778498	 0.122622
H	-0.5585170945	 1.9650771467	-0.8888383726	 0.108918
H	 1.7743910645	 2.8054778994	-0.5502749253	 0.087603
H	 3.0452146274	 2.0228253233	 1.2339241308	 0.229448
H	 3.2112019409	 0.5745514831	-0.6199263759	 0.096827
H	-0.2166058653	-3.0961239262	-0.0015535414	 0.27145
H	-1.8981052947	-1.2042463433	 0.1460078711	 0.131653
163.2002	238.6666	358.0713	437.905	446.7963	470.1335	607.4033	651.816	706.8308	751.9344	779.7918	788.0133	816.5161	848.116	887.4318	934.0687	972.9605	995.7455	1054.5136	1061.6762	1106.9563	1129.6171	1168.5615	1189.7414	1193.0031	1225.3801	1288.751	1318.4743	1346.5296	1388.3363	1431.374	1468.7196	1479.2614	1525.411	1632.5701	3031.9012	3071.7179	3163.2605	3186.2814	3257.9099	3481.192	3679.2895
C1C2NC2C2=NNC=C12	C1[C@H]2N[C@H]2c2n[nH]cc12	
InChI=1S/C6H7N3/c1-3-2-7-9-5(3)6-4(1)8-6/h2,4,6,8H,1H2,(H,7,9)	InChI=1S/C6H7N3/c1-3-2-7-9-5(3)6-4(1)8-6/h2,4,6,8H,1H2,(H,7,9)/t4-,6-/m1/s1
