17
gdb 37537	3.98224	1.6479	1.40524	2.0365	77.	-0.2258	0.0046	0.2303	924.9188	0.137306	-384.573884	-384.567723	-384.566779	-384.60408	26.326	
C	-0.0348913447	 1.6244067057	 0.1901045036	-0.324969
C	 1.4691276135	 1.8947528307	 0.0107167672	-0.049998
C	 2.1284292406	 0.8837767139	-0.5797955781	-0.267661
C	 1.1126450761	-0.1547713108	-0.895371759	 0.360638
C	-0.0710602302	 0.0907124438	 0.0349855626	-0.041816
C	-0.6871168867	-0.8201637102	-1.0556822595	-0.136475
C	 0.1866594614	-0.2308757205	-2.1900760002	 0.046268
O	 0.7170697586	-1.5113780408	-2.6385912481	-0.32304
C	 0.6762823893	-1.6302507619	-1.1939919133	-0.035734
H	-0.4212183751	 1.9846552288	 1.1483157742	 0.105678
H	-0.598911946	 2.1478336782	-0.5946541493	 0.112873
H	 1.9171524528	 2.8453353475	 0.282187365	 0.098766
H	 3.1734527278	 0.8840004136	-0.8616191485	 0.107832
H	 0.0300027012	-0.3960429712	 1.0114952564	 0.074216
H	-1.6864470248	-1.2444764672	-1.1594625482	 0.081778
H	-0.037157192	 0.5274616661	-2.939304883	 0.095444
H	 0.9784424182	-2.5690950559	-0.7292392818	 0.096199
200.2495	243.4662	327.0616	450.7189	530.2819	620.586	649.2889	690.2854	720.4462	735.2985	808.0829	843.7518	852.9504	889.2231	897.1497	905.9662	932.9126	949.3762	992.5507	1017.3948	1041.4403	1081.0081	1085.5852	1120.7276	1137.1679	1146.2506	1166.3676	1172.3936	1190.6632	1245.5238	1260.3756	1293.4186	1314.7378	1372.2733	1394.0291	1480.0159	1615.2363	3015.3504	3040.9541	3077.954	3108.674	3119.1355	3131.7597	3182.4907	3219.8905
C1C=CC23C1C1C2OC31	C1C=C[C@@]23[C@@H]1[C@H]1[C@@H]2O[C@@H]31	
InChI=1S/C8H8O/c1-2-4-5-6-8(4,3-1)7(5)9-6/h1,3-7H,2H2	InChI=1S/C8H8O/c1-2-4-5-6-8(4,3-1)7(5)9-6/h1,3-7H,2H2/t4-,5-,6-,7+,8+/m0/s1
