23
gdb 92446	2.15666	1.68754	1.38973	1.5183	83.11	-0.2475	0.0635	0.311	1093.0634	0.208789	-388.314832	-388.30647	-388.305526	-388.347198	34.096	
C	-0.27505552	 1.5097406561	-0.0275738966	-0.422868
C	 0.0309346635	 0.0123627771	-0.0125099131	 0.045145
C	 0.7806921226	-0.5163481643	-1.2860947804	-0.255402
C	 1.95959006	-1.3351479901	-0.7050946393	-0.035086
C	 3.001856796	-0.349379071	-0.1380689705	-0.21536
C	 2.2958062664	 0.217025551	 1.1416778896	-0.222109
C	 0.93163095	-0.503113116	 1.1419673162	-0.044979
C	 1.3493308511	-1.8959969114	 0.6020542235	 0.166004
O	 0.3308106061	-2.8653540779	 0.4674692481	-0.46265
H	 0.6270733199	 2.1125276681	-0.1736117239	 0.116624
H	-0.9637586238	 1.7545805064	-0.8434455004	 0.112292
H	-0.7442445231	 1.8304517919	 0.9090662568	 0.112821
H	-0.9323181509	-0.5066733326	 0.0758520506	 0.062261
H	 0.1267218522	-1.1301019072	-1.9156900519	 0.087886
H	 1.1372130066	 0.3024562686	-1.9194404758	 0.096605
H	 2.3704236732	-2.0797347287	-1.3894256112	 0.058647
H	 3.9314797392	-0.8654565986	 0.1199816267	 0.096385
H	 3.2564286577	 0.4330963632	-0.8589115052	 0.093918
H	 2.8584425013	-0.0385401327	 2.0446614165	 0.097856
H	 2.2040228482	 1.305245063	 1.1269971487	 0.09877
H	 0.4307877077	-0.510162255	 2.1125023987	 0.056319
H	 2.1047781348	-2.3672467194	 1.2388664843	 0.075562
H	-0.3143454788	-2.5533685106	-0.1738879311	 0.28136
107.3704	209.4995	225.4209	236.1734	285.6862	293.8146	360.1023	393.218	470.0537	557.4962	567.6997	707.9026	758.0922	795.361	810.9563	837.8883	877.3889	906.6763	920.6716	960.4066	971.5832	975.0037	1015.188	1057.4068	1075.0785	1091.4083	1097.3278	1126.9147	1142.8389	1181.395	1192.5485	1228.8113	1248.1569	1261.5206	1281.467	1295.801	1308.4008	1322.6952	1334.4672	1346.3654	1354.0111	1388.9914	1409.7245	1444.4242	1486.7248	1494.3286	1496.6398	1508.6762	1520.7512	3004.3942	3028.0038	3035.5678	3045.991	3057.4325	3063.213	3073.3193	3082.5508	3090.5546	3092.7235	3097.5837	3098.7161	3107.1222	3829.9697
CC1CC2CCC1C2O	C[C@H]1C[C@H]2CC[C@@H]1[C@H]2O	
InChI=1S/C8H14O/c1-5-4-6-2-3-7(5)8(6)9/h5-9H,2-4H2,1H3	InChI=1S/C8H14O/c1-5-4-6-2-3-7(5)8(6)9/h5-9H,2-4H2,1H3/t5-,6+,7-,8-/m0/s1
