20
gdb 86427	2.27386	1.76073	1.17527	3.0086	74.07	-0.2105	0.0576	0.2681	1095.0655	0.171761	-440.248065	-440.239578	-440.238634	-440.281027	32.393	
C	-0.2686065138	 1.5347036745	 0.3347363197	-0.333265
N	 0.0648407789	 0.1558781179	-0.0051710156	-0.059346
C	-1.1055170223	-0.6921637723	-0.2792544227	-0.241836
C	-1.484654125	-1.3569628432	 1.0684944242	 0.12211
O	-2.2079312	-2.5627842556	 0.960017689	-0.425956
C	-0.1181790856	-1.5903838911	 1.7140404249	 0.096836
O	 0.6181370315	-2.6847144842	 1.1307311966	-0.285943
C	 1.5900089835	-1.7908364086	 0.5466087592	-0.088831
C	 0.8180570464	-0.5450520105	 1.0332238832	-0.041601
H	 0.6528168325	 2.0965599669	 0.5160186969	 0.122615
H	-0.7789737555	 2.0036702144	-0.5120302312	 0.121957
H	-0.9140131183	 1.6497502463	 1.2245335707	 0.095196
H	-1.9137566388	-0.1025689372	-0.7203474259	 0.093111
H	-0.8436579816	-1.4904504851	-0.9840835123	 0.120631
H	-2.020680678	-0.627603631	 1.6992352826	 0.063951
H	-3.0668089169	-2.3630208449	 0.5755078536	 0.285981
H	-0.1536948374	-1.6634547601	 2.8053171878	 0.072852
H	 2.5839818477	-1.9270529818	 0.9913183981	 0.09784
H	 1.659193999	-1.8934395206	-0.5423449334	 0.107761
H	 1.3778096537	 0.1532264461	 1.6554244449	 0.075937
104.3388	127.7409	206.5704	226.1343	229.7245	277.0978	321.2892	394.0926	454.8283	538.9667	609.1281	622.6811	781.1477	841.1326	870.7978	891.9463	918.6186	982.1597	1016.9838	1040.1873	1045.6134	1067.9688	1092.5527	1120.3253	1137.683	1157.9359	1161.3606	1211.0603	1219.4328	1243.109	1249.8331	1293.5108	1307.1522	1324.4856	1351.2023	1371.0012	1386.9708	1437.6492	1461.6227	1492.5596	1502.2575	1507.6417	1520.352	2935.6451	2958.5088	3013.746	3036.179	3061.2733	3063.3189	3067.395	3095.1176	3105.3706	3114.6848	3824.089
CN1CC(O)C2OCC12	CN1C[C@@H](O)[C@H]2OC[C@@H]12	
InChI=1S/C6H11NO2/c1-7-2-5(8)6-4(7)3-9-6/h4-6,8H,2-3H2,1H3	InChI=1S/C6H11NO2/c1-7-2-5(8)6-4(7)3-9-6/h4-6,8H,2-3H2,1H3/t4-,5-,6+/m1/s1
