14
gdb 130320	3.1408	1.42828	1.05659	4.2735	65.99	-0.2299	-0.0126	0.2172	1070.2514	0.102217	-469.985757	-469.978208	-469.977264	-470.018036	28.274	
N	 0.960420089	 1.1260943869	 0.0233736953	-0.59748
C	 0.4394195926	-0.1486285762	-0.019675966	 0.348096
N	-0.8268401561	-0.3787378728	-0.3001810936	-0.226965
O	-1.0134766024	-1.7617162665	-0.1533340302	-0.172677
C	 0.1485877831	-2.3240590102	 0.1864513438	 0.015313
C	 1.11325615	-1.3781021154	 0.2876905071	 0.161659
O	 2.3886652987	-1.6324046371	 0.7453670998	-0.234546
C	 3.4680154692	-1.0930187175	 0.1506208704	 0.118544
N	 3.4247751017	-0.2710190211	-0.8084278918	-0.462887
H	 1.8826139436	 1.1595012819	-0.4010318544	 0.269124
H	 0.3222756741	 1.8090241648	-0.364981755	 0.255497
H	 0.1557762713	-3.3915771907	 0.3392601333	 0.155733
H	 4.3597209942	-1.4872617307	 0.6430164727	 0.127035
H	 4.364599511	-0.0048339856	-1.0918654715	 0.243552
76.8994	190.5972	198.5443	274.7115	303.6035	389.4721	443.7377	487.1989	585.0971	586.0877	691.8822	738.3132	783.5781	805.157	827.5648	842.9303	899.9218	933.5611	1039.8955	1071.2407	1152.7659	1186.8623	1218.9104	1307.5584	1336.8255	1410.4331	1471.8348	1562.2236	1630.244	1677.0919	1718.5967	3115.32	3269.2036	3493.9695	3528.1584	3617.9296
NC1=NOC=C1OC=N	Nc1nocc1O[CH][NH]	
InChI=1S/C4H5N3O2/c5-2-8-3-1-9-7-4(3)6/h1-2,5H,(H2,6,7)	InChI=1S/C4H5N3O2/c5-2-8-3-1-9-7-4(3)6/h1-2,5H,(H2,6,7)
