22
gdb 9674	2.84215	1.39665	1.22893	1.0938	78.93	-0.2328	0.0856	0.3184	1151.7708	0.198072	-350.188653	-350.178864	-350.17792	-350.222775	35.898	
C	-0.2656452321	 1.2583044235	-0.1028080896	-0.380872
C	 0.314013655	-0.1619534128	-0.0840403804	-0.243921
C	 0.8631592356	-0.5883002409	 1.269453462	 0.32546
C	 2.1206744342	 0.1234742238	 1.7314048771	-0.461966
C	-0.149917828	-0.9901525762	 2.333641988	-0.362251
C	 0.7001816524	-2.0391166307	 1.6885945687	 0.073145
O	 0.0421358138	-2.9557526783	 0.8707972725	-0.231488
C	 0.917965595	-3.6343321933	-0.0078526464	-0.236055
H	 0.4935521253	 2.0116976463	 0.1306283415	 0.113979
H	-0.6752370361	 1.4994658608	-1.088835232	 0.109405
H	-1.0722299255	 1.361989997	 0.6305567585	 0.116631
H	-0.4584377089	-0.8754057775	-0.3879710823	 0.109593
H	 1.1143974816	-0.2343559712	-0.83362775	 0.086773
H	 1.9445476121	 1.1928099162	 1.8941089641	 0.118377
H	 2.4886407922	-0.2908823481	 2.6758526112	 0.11062
H	 2.9236717843	 0.0280358433	 0.9903963202	 0.111372
H	 0.0346073581	-0.731924017	 3.3711530933	 0.106008
H	-1.1963510531	-0.9877565722	 2.0462883935	 0.118964
H	 1.5108456976	-2.4785362471	 2.2747525821	 0.07489
H	 0.3154311442	-4.3450459626	-0.5785408193	 0.125788
H	 1.4167932787	-2.9454396351	-0.7037906105	 0.10943
H	 1.6917753337	-4.1884071776	 0.5452218776	 0.106117
99.0189	105.6826	152.4073	167.8804	214.0182	223.7307	226.7379	277.8846	362.358	364.3418	414.247	481.52	586.2101	687.6986	788.2752	800.3738	867.5587	909.7434	952.097	1009.7986	1023.5667	1048.0805	1059.7788	1083.2051	1101.1057	1131.4085	1136.3241	1183.7049	1188.9575	1242.0703	1264.5296	1309.8854	1337.1054	1377.3573	1409.8068	1410.4042	1419.806	1470.0829	1483.9358	1486.0456	1492.0607	1495.6944	1500.1161	1506.1177	1508.8329	1512.3715	2983.1906	3010.4185	3020.4951	3034.618	3036.8343	3068.8232	3073.6217	3081.3814	3092.6195	3102.7315	3105.7548	3117.0379	3127.4878	3214.7644
CCC1(C)CC1OC	CC[C@@]1(C)C[C@H]1OC	
InChI=1S/C7H14O/c1-4-7(2)5-6(7)8-3/h6H,4-5H2,1-3H3	InChI=1S/C7H14O/c1-4-7(2)5-6(7)8-3/h6H,4-5H2,1-3H3/t6-,7+/m1/s1
