12
gdb 128960	7.85536	0.79025	0.72126	0.7621	61.62	-0.2946	-0.0577	0.2369	1406.6408	0.077293	-468.753192	-468.745721	-468.744776	-468.786413	25.706	
N	-0.0363311502	-1.1139941748	-0.0044584137	-0.277048
C	-0.0069638454	 0.0395855198	 0.002435532	 0.282469
C	-0.0176519008	 1.5002075897	 0.0116819516	-0.220015
O	 1.3413593974	 1.9531890232	-0.0008392165	-0.25255
C	 1.4845931719	 3.2806855111	 0.0057918423	 0.424896
N	 0.5028604263	 4.1408893994	 0.0222470711	-0.166342
O	 1.1165501512	 5.3725345166	 0.0229705896	-0.168127
N	 2.4754914406	 5.2528511361	 0.0068552864	-0.040178
C	 2.7282337058	 3.9766618205	-0.0039489163	-0.114458
H	-0.5530637751	 1.8813223066	-0.8654327043	 0.181955
H	-0.5330608542	 1.8702553016	 0.9053613595	 0.181954
H	 3.7339420525	 3.5890046303	-0.0177341418	 0.167444
46.4825	117.0239	118.9806	235.7414	348.3849	386.8086	425.6506	532.5156	626.9418	721.6589	780.8394	882.6666	908.4259	923.61	964.861	1019.8172	1021.032	1046.8131	1088.1057	1218.8317	1251.0773	1384.4376	1457.8245	1481.9385	1515.0616	1630.2557	2380.4883	3044.3874	3085.0547	3282.1576
N#CCOC1=NON=C1	N#CCOc1nonc1	
InChI=1S/C4H3N3O2/c5-1-2-8-4-3-6-9-7-4/h3H,2H2	InChI=1S/C4H3N3O2/c5-1-2-8-4-3-6-9-7-4/h3H,2H2
