14
gdb 127888	3.95778	1.21976	0.94727	3.3287	72.53	-0.2359	-0.0682	0.1677	1171.5714	0.101194	-466.163227	-466.155284	-466.154339	-466.19611	28.901	
C	 0.0975306352	 1.4333072823	 0.0538198965	-0.329003
N	 0.2042114555	-0.011199523	 0.0648974698	-0.273013
C	 0.5040418387	-0.6564199928	-0.9828131052	 0.407879
N	 0.7466031646	 0.0079659759	-2.2486236254	-0.192807
N	 1.3394882666	-0.5725149229	-3.1736178519	-0.043634
N	 1.7589456196	-1.8841524036	-2.9530413984	-0.298972
C	 1.1831546976	-2.5967228458	-1.9375910333	 0.516939
O	 1.3263240036	-3.9194587904	-2.0627269722	-0.400234
N	 0.5553240553	-2.0545108119	-0.9672708365	-0.383914
H	 0.8576251113	 1.8460655978	 0.7286199529	 0.127449
H	 0.2071138085	 1.899869576	-0.9300613332	 0.1335
H	-0.8741639528	 1.7112627817	 0.4782714632	 0.12792
H	 2.0841459553	-2.3443563846	-3.7898497397	 0.287825
H	 0.902170101	-4.3121788689	-1.2845297267	 0.320066
76.3262	123.527	155.0551	239.3172	293.006	385.9795	429.626	505.5666	535.434	562.4423	577.6044	632.0949	713.5765	727.5035	793.2559	924.4134	961.8168	1029.5672	1071.4422	1130.8489	1138.8392	1202.6919	1281.4564	1351.6458	1433.6603	1490.0264	1490.6721	1495.0358	1629.1403	1717.9206	1748.5091	3017.8065	3069.6476	3098.9416	3634.5398	3750.1883
CN=C1N=NNC(O)=N1	CN=c1nn[nH]c(O)n1	
InChI=1S/C3H5N5O/c1-4-2-5-3(9)7-8-6-2/h1H3,(H2,4,5,6,7,9)	InChI=1S/C3H5N5O/c1-4-2-5-3(9)7-8-6-2/h1H3,(H2,4,5,6,7,9)
