19
gdb 40755	3.79119	1.13984	1.02064	1.0291	75.26	-0.2452	0.0578	0.303	1212.6809	0.15974	-422.962417	-422.954566	-422.953622	-422.995777	29.753	
C	-0.0141979248	 1.4754461239	 0.0443549375	-0.179419
O	 0.9888014951	 0.5200602419	-0.3020816254	-0.2354
C	-0.3182067738	 0.0389980444	 0.0258225646	 0.070093
C	-0.4131703049	-0.7465608246	 1.303480389	 0.116932
O	-1.7838443531	-0.9163603179	 1.7459478888	-0.318913
C	-1.5988026098	-2.3381582988	 1.9344954847	 0.130551
C	-2.1014206036	-3.1695625334	 0.7342698198	-0.231147
C	-0.6766924974	-3.083576404	 0.0975935608	-0.238701
C	-0.1702843397	-2.2728257868	 1.3236854888	-0.109819
H	 0.1299204914	 1.9801854859	 0.9987304259	 0.118744
H	-0.360591365	 2.1075122195	-0.7716306425	 0.118181
H	-0.8868448559	-0.3489479986	-0.8187169196	 0.09592
H	 0.1841845135	-0.2331805997	 2.0708561113	 0.077766
H	-1.8489997617	-2.655705579	 2.9500962935	 0.075907
H	-2.4017361202	-4.1878640557	 0.9957384659	 0.102365
H	-2.914467081	-2.6903346746	 0.1845092176	 0.110702
H	-0.1869737918	-4.0559958059	 0.0139630675	 0.108031
H	-0.6022321709	-2.5912468901	-0.8744578744	 0.108286
H	 0.7371709836	-2.6158625965	 1.8176534661	 0.079922
52.1976	71.2277	177.0752	240.2159	317.8466	378.8342	430.0332	518.2918	675.8158	731.0719	775.9543	833.5508	852.7783	868.5131	905.026	927.3236	948.0338	954.1389	996.6978	1020.9208	1048.6708	1076.6181	1092.2865	1120.4943	1152.6429	1166.7403	1172.2375	1194.2258	1210.197	1235.7963	1256.0923	1272.5884	1283.6937	1292.9769	1311.0788	1332.1334	1336.3257	1461.7945	1465.4806	1493.531	1526.6803	2996.6221	3058.8036	3070.8454	3075.8241	3084.8628	3107.779	3118.8287	3122.6359	3129.7896	3174.0854
C1OC1C1OC2CCC12	C1O[C@H]1[C@H]1O[C@H]2CC[C@@H]12	
InChI=1S/C7H10O2/c1-2-5-4(1)7(9-5)6-3-8-6/h4-7H,1-3H2	InChI=1S/C7H10O2/c1-2-5-4(1)7(9-5)6-3-8-6/h4-7H,1-3H2/t4-,5+,6-,7+/m1/s1
