20
gdb 64773	2.93103	1.14982	1.07706	5.4011	78.83	-0.2583	0.0332	0.2914	1226.9117	0.17093	-403.181371	-403.172257	-403.171313	-403.215761	33.827	
C	-0.1034625561	 1.6896364512	 0.0286465885	-0.436278
C	 0.0428535538	 0.1703487573	-0.0526226261	 0.390325
C	-1.3467379923	-0.5216090781	-0.1230514613	-0.370248
C	-2.1714792836	-0.2821850012	 1.058637592	 0.280742
N	-2.8380410326	-0.0848857608	 1.9815712997	-0.316592
C	 0.9280613511	-0.2967821108	-1.234855042	-0.278494
C	 1.7387982292	-1.4549285685	-0.6355575349	-0.227517
C	 1.9047150121	-0.9844992881	 0.8103172261	-0.067883
O	 0.695585105	-0.3030247577	 1.1332957463	-0.293251
H	 0.8819926679	 2.1520115844	 0.1308063867	 0.121715
H	-0.5794220241	 2.0873269808	-0.8742077101	 0.11365
H	-0.7076715141	 1.9740212008	 0.894011745	 0.150661
H	-1.8930916016	-0.1683968853	-1.0050389938	 0.145481
H	-1.2075526492	-1.6018673519	-0.2352048655	 0.144838
H	 0.3403796366	-0.5824193804	-2.1110118335	 0.10632
H	 1.5945436765	 0.5173459352	-1.5368267553	 0.10872
H	 1.1715270602	-2.3910234473	-0.6701347443	 0.109856
H	 2.6914440411	-1.6213686376	-1.1437363633	 0.10877
H	 2.039103896	-1.7984523114	 1.5286604696	 0.114061
H	 2.7637332242	-0.3019685307	 0.9041385463	 0.095123
47.9012	80.4363	134.4842	215.0823	239.0646	316.4987	328.6523	380.9625	397.3768	411.8842	518.2334	597.909	662.7759	766.3608	862.7922	869.4153	889.8132	918.0764	927.8111	937.6775	973.4824	1016.1748	1048.408	1077.5584	1122.2148	1177.6674	1189.778	1208.4949	1238.4719	1272.2627	1277.0048	1321.2761	1340.5261	1347.7437	1391.6523	1412.8503	1454.847	1486.5127	1488.4644	1495.9361	1500.9582	1528.7041	2363.551	2982.2734	3038.0077	3044.7139	3050.1944	3054.389	3082.2366	3088.8262	3100.2793	3110.9548	3112.7012	3127.0832
CC1(CC#N)CCCO1	C[C@@]1(CC#N)CCCO1	
InChI=1S/C7H11NO/c1-7(4-5-8)3-2-6-9-7/h2-4,6H2,1H3	InChI=1S/C7H11NO/c1-7(4-5-8)3-2-6-9-7/h2-4,6H2,1H3/t7-/m0/s1
