23
gdb 59366	3.23466	0.96547	0.80201	1.7093	87.66	-0.2443	0.0136	0.258	1502.2711	0.205373	-388.307916	-388.298127	-388.297183	-388.342675	37.408	
C	-0.0010469013	 1.5352616814	-0.0287308653	-0.388461
C	 0.0228236126	-0.0000736522	 0.0025520978	 0.03137
C	 0.8488748784	-0.4885677139	 1.2011132749	-0.395349
C	-1.4101070058	-0.5794683041	 0.0099411285	-0.00604
C	-2.284746682	-0.1576913362	-1.202250842	-0.266553
C	-3.1667568131	-1.3820488228	-1.5597299135	 0.103784
O	-3.3800895176	-1.5630359971	-2.9544455363	-0.434435
C	-2.4435060606	-2.5218528376	-0.8830648715	-0.136703
C	-1.5002810615	-2.0922202227	-0.0472187295	-0.077689
H	 1.0154282399	 1.9416664316	-0.0497485891	 0.108965
H	-0.5315841286	 1.9200345793	-0.9044185003	 0.116829
H	-0.4983694997	 1.934022495	 0.8640350207	 0.11084
H	 0.5127717736	-0.3533378709	-0.9168887518	 0.067287
H	 0.9609784093	-1.5763742774	 1.2131386578	 0.113042
H	 1.8544487529	-0.0556413613	 1.1812105451	 0.110857
H	 0.3802327337	-0.1894715396	 2.1466030647	 0.112104
H	-1.88848892	-0.2355013164	 0.9418618875	 0.076123
H	-2.8710322898	 0.7459574165	-1.0222036758	 0.10275
H	-1.6375425907	 0.0445115877	-2.0653892776	 0.093565
H	-4.1804824304	-1.272191155	-1.152852683	 0.092691
H	-2.5223802407	-1.7540008694	-3.3507108317	 0.271328
H	-2.7180506891	-3.5559635321	-1.0617054985	 0.096677
H	-0.8831240598	-2.735250863	 0.5705690992	 0.097015
52.079	84.9339	179.4408	210.4198	222.0781	246.549	320.38	333.649	370.5521	378.2901	438.2682	459.7362	565.7564	596.5561	757.7294	778.3232	832.1751	874.1767	889.8111	929.3629	961.5307	963.4389	980.18	1007.6243	1025.3336	1052.4656	1087.5423	1137.6248	1142.1217	1152.6632	1188.6049	1200.8624	1252.4244	1285.849	1288.5754	1309.5701	1326.852	1352.612	1366.0737	1383.4181	1401.1396	1421.3698	1429.5432	1484.5337	1487.4121	1493.8879	1505.3905	1511.9981	1681.5432	2963.7693	2997.1367	3021.6347	3024.5076	3029.4651	3030.5752	3087.6887	3094.1264	3103.5043	3105.79	3107.7867	3180.4611	3205.6554	3793.7496
CC(C)C1CC(O)C=C1	CC(C)[C@H]1C[C@@H](O)C=C1	
InChI=1S/C8H14O/c1-6(2)7-3-4-8(9)5-7/h3-4,6-9H,5H2,1-2H3	InChI=1S/C8H14O/c1-6(2)7-3-4-8(9)5-7/h3-4,6-9H,5H2,1-2H3/t7-,8+/m1/s1
