19
gdb 81080	2.83564	1.39254	1.14629	1.5318	75.72	-0.2331	0.0662	0.2993	1126.3193	0.158563	-422.939889	-422.931664	-422.93072	-422.972998	32.047	
O	 0.3864901763	 1.2933220101	-0.2374784015	-0.431528
C	 0.1150114793	-0.0652393028	-0.0325623048	 0.082615
C	-0.1857978067	-0.6329229053	 1.3864255636	-0.007383
C	-1.4835314545	 0.2008548183	 1.4383428857	-0.279643
C	-1.3820156594	-0.4694445708	 0.0369244224	 0.421568
O	-0.9202181695	-1.7205465462	 0.7160552173	-0.348731
C	-2.3751465067	-0.5674988069	-1.0543971407	-0.146069
C	-3.851480741	-0.6266784727	-0.7421556465	-0.265815
C	-3.2661582162	 0.6178768267	-1.3494257271	-0.262261
H	 1.3372670457	 1.4267165651	-0.1746804052	 0.290483
H	 0.7217278219	-0.7359308151	-0.6514244491	 0.079377
H	 0.4930842779	-0.9101846331	 2.1929248458	 0.087783
H	-2.26037573	-0.2031830297	 2.0890505369	 0.102973
H	-1.3884107003	 1.2862780125	 1.486886056	 0.111763
H	-2.0319764978	-1.1450655092	-1.907945421	 0.091584
H	-4.4699575087	-1.2652626937	-1.3623567249	 0.115835
H	-4.1462537773	-0.5947152642	 0.3005861802	 0.11908
H	-3.1606285929	 1.4923615522	-0.7171890798	 0.123038
H	-3.4780113399	 0.8413193247	-2.3886062475	 0.115331
50.9534	141.9129	181.8842	259.7433	285.4489	310.3552	387.0763	468.2553	570.1303	596.6499	617.6691	736.5735	781.494	832.0557	858.4587	892.2851	902.2852	917.8601	948.1066	949.7549	991.5628	1047.773	1061.5827	1077.4356	1085.1186	1118.6594	1128.9144	1134.8194	1165.9674	1197.6808	1200.7231	1218.3323	1222.7787	1236.2331	1289.5502	1314.8433	1400.1007	1438.1225	1470.7745	1492.4746	1506.424	3052.6577	3078.0884	3119.5936	3138.8473	3142.0055	3149.3836	3157.5606	3218.1352	3232.7858	3823.2837
OC1C2CC1(O2)C1CC1	O[C@H]1[C@H]2C[C@@]1(O2)C1CC1	
InChI=1S/C7H10O2/c8-6-5-3-7(6,9-5)4-1-2-4/h4-6,8H,1-3H2	InChI=1S/C7H10O2/c8-6-5-3-7(6,9-5)4-1-2-4/h4-6,8H,1-3H2/t5-,6+,7-/m1/s1
