21
gdb 113014	4.65046	0.78449	0.72221	3.1114	86.29	-0.2414	-0.0251	0.2162	1609.0112	0.181927	-387.118208	-387.108824	-387.10788	-387.153456	34.282	
C	 0.1790404869	 1.5136769189	 0.0124215718	-0.388474
C	 0.0162755348	-0.0089599308	 0.0160494842	-0.179908
C	-1.4462770604	-0.4847267498	 0.0537700313	-0.007299
C	-1.5924974617	-2.0258879589	-0.0781208953	-0.273167
C	-2.7599344316	-2.447761962	 0.857495101	-0.10488
C	-2.4449685028	-3.7174225037	 1.624926171	 0.157002
O	-3.1491261369	-4.6912483283	 1.6809344564	-0.249764
C	-2.8875816414	-1.2455361508	 1.7767673055	-0.10023
C	-2.1859767407	-0.2011187636	 1.3418756072	-0.068307
H	 1.2348190209	 1.7958531624	-0.0433399176	 0.116227
H	-0.3310210344	 1.9640524916	-0.8464430287	 0.1164
H	-0.2345499979	 1.9686486581	 0.9183484657	 0.118273
H	 0.4914747732	-0.4245070053	-0.8818359277	 0.098443
H	 0.5501826943	-0.4395806875	 0.873284733	 0.096704
H	-1.976258552	 0.0131951372	-0.7736686505	 0.080549
H	-1.7513886185	-2.3543155119	-1.1076029659	 0.111531
H	-0.6637629573	-2.4977248361	 0.2692733228	 0.1035
H	-3.6943893736	-2.6273749247	 0.3119299941	 0.096739
H	-1.4686042163	-3.6774757589	 2.1658031035	 0.069699
H	-3.522835371	-1.2587782898	 2.6555639994	 0.106157
H	-2.1733625834	 0.771625084	 1.8216554088	 0.100804
41.5025	62.5442	108.0829	191.5795	211.8745	251.5724	307.3885	354.0464	375.6023	470.9967	528.2532	627.7533	751.4314	772.5647	801.2587	849.2106	888.071	931.4185	958.7523	978.956	981.7394	998.2066	1062.1556	1067.9135	1092.5637	1127.6311	1149.8275	1154.2365	1201.5839	1257.5244	1275.4641	1284.3462	1299.6091	1329.2603	1343.1828	1374.7509	1389.3364	1415.0193	1421.5846	1484.8249	1488.7493	1501.535	1506.9322	1679.4527	1833.5404	2841.642	2974.4565	3015.3123	3024.4341	3033.3277	3036.3858	3051.0141	3099.5612	3103.3864	3104.9441	3181.7606	3206.8726
CCC1CC(C=O)C=C1	CC[C@H]1C[C@@H](C=O)C=C1	
InChI=1S/C8H12O/c1-2-7-3-4-8(5-7)6-9/h3-4,6-8H,2,5H2,1H3	InChI=1S/C8H12O/c1-2-7-3-4-8(5-7)6-9/h3-4,6-8H,2,5H2,1H3/t7-,8+/m1/s1
