17
gdb 44421	3.46368	1.51527	1.47524	3.8912	73.9	-0.2465	-0.0182	0.2283	945.8361	0.136956	-421.749795	-421.743103	-421.742159	-421.780705	27.618	
O	-0.083855798	 0.016643218	-0.2730586567	-0.290381
C	-0.0875670602	 1.1940408635	-0.1152120798	 0.352868
C	-1.2334059859	 2.2578147333	 0.1925527442	-0.38156
C	-0.1576593916	 2.9223135381	 1.0984860655	-0.010164
C	 0.864347642	 4.1337854762	 1.0700351313	-0.117305
C	 2.002213352	 3.0117729357	 1.1303224183	-0.331641
C	 0.9493985918	 2.3025448402	 0.2400697264	 0.255626
O	 0.9411497357	 3.1357120392	-0.9510940193	-0.301192
C	 0.8908009971	 4.473584179	-0.4090776377	-0.083529
H	-1.5309476129	 2.8063023277	-0.6992622346	 0.143932
H	-2.1107652565	 1.8497125519	 0.6967276986	 0.123902
H	-0.1809139344	 2.4833029185	 2.0970934493	 0.100468
H	 0.816358906	 4.943689072	 1.796972696	 0.087046
H	 2.9728359034	 3.2513298641	 0.691221314	 0.113822
H	 2.1077336468	 2.5778215427	 2.1242851275	 0.119636
H	-0.0079227899	 4.9932332055	-0.7604245999	 0.107359
H	 1.7768556947	 5.0379735745	-0.719741033	 0.111115
114.1324	236.1267	324.9841	388.2465	453.2119	478.0785	518.2263	605.5088	654.4858	684.5635	755.6307	825.9426	834.1173	886.3094	906.4562	931.4831	951.8775	964.5172	984.2962	1032.1566	1050.7707	1056.427	1105.0353	1114.9457	1125.5728	1163.4813	1175.448	1188.2604	1202.7822	1226.8471	1272.8697	1343.4468	1372.2388	1448.6362	1486.6874	1526.1582	1897.203	3030.646	3072.6792	3079.7344	3094.6589	3099.9182	3129.0259	3157.037	3166.0468
O=C1CC2C3CC12OC3	O=C1C[C@@H]2[C@H]3C[C@@]12OC3	
InChI=1S/C7H8O2/c8-6-1-5-4-2-7(5,6)9-3-4/h4-5H,1-3H2	InChI=1S/C7H8O2/c8-6-1-5-4-2-7(5,6)9-3-4/h4-5H,1-3H2/t4-,5+,7-/m0/s1
