17
gdb 47203	2.64322	1.77674	1.17143	3.1109	76.23	-0.2182	-0.0213	0.197	1034.815	0.137491	-418.026724	-418.018881	-418.017937	-418.059479	29.926	
O	-0.0686897111	 0.2219713314	-0.8033570485	-0.334097
C	-0.0203931232	 1.2575551376	-0.1753069763	 0.333258
C	-1.2780459	 1.7763031659	 0.5251146823	-0.266987
N	-1.1690665657	 3.1822488008	 0.8719674977	-0.309455
C	 0.0629559452	 3.7497392281	 1.0906448495	 0.058991
N	 1.1972830777	 3.2912962138	 0.7322498795	-0.32633
C	 1.2233427408	 2.056636535	 0.0102219928	 0.241021
C	 2.5179184009	 1.2425665822	 0.1223329396	-0.283215
C	 2.2366649363	 1.9756813337	-1.1369565179	-0.279144
H	-2.1289014991	 1.601571589	-0.1401600538	 0.141555
H	-1.4255586861	 1.1395059672	 1.4134901734	 0.133883
H	-1.9502572698	 3.59476793	 1.3566166863	 0.247952
H	 0.0228173869	 4.712812643	 1.5996149655	 0.110981
H	 3.2460049869	 1.654982885	 0.8100039285	 0.129987
H	 2.4032815227	 0.1651605614	 0.1210019373	 0.134921
H	 1.9241976343	 1.4016845044	-2.0013101714	 0.136643
H	 2.7708747333	 2.8977218815	-1.3299783046	 0.130033
65.0669	85.2449	254.3775	277.0802	313.3293	396.7721	446.5034	501.5053	524.4435	588.4008	635.5292	650.2166	790.6688	814.1819	837.6417	914.4419	941.8923	977.8471	984.8947	1007.9854	1022.6466	1056.5161	1091.4164	1117.552	1209.3917	1220.829	1235.423	1275.0777	1324.4847	1332.8172	1425.1427	1437.9553	1472.1332	1476.2656	1526.0866	1738.113	1793.7594	2967.4621	3077.9066	3131.7046	3146.365	3146.7442	3240.187	3254.2454	3623.1479
O=C1CNC=NC11CC1	O=C1CNC=NC21CC2	
InChI=1S/C6H8N2O/c9-5-3-7-4-8-6(5)1-2-6/h4H,1-3H2,(H,7,8)	InChI=1S/C6H8N2O/c9-5-3-7-4-8-6(5)1-2-6/h4H,1-3H2,(H,7,8)
