20
gdb 88759	3.85811	1.05653	0.92827	3.215	79.18	-0.2326	0.0744	0.307	1311.7344	0.170802	-403.076573	-403.068086	-403.067142	-403.1103	32.202	
C	-1.6767825932	-0.3370507076	 2.2245258491	-0.421947
C	-0.7911027682	-0.776422345	 1.0850083413	 0.073037
O	-0.351744484	 0.2210699273	 0.1610327612	-0.256824
C	 0.6424129318	-0.4530498649	 0.9433920776	 0.053012
C	 1.4132711219	 0.3689854508	 1.9357021313	 0.027938
C	 2.2158284736	-0.3422692859	 3.0652997574	-0.287207
C	 3.4427365822	 0.385949634	 2.5222013372	-0.005424
C	 3.6614682158	 0.0565241972	 1.1041414343	-0.240793
N	 2.6517863772	 1.0852570829	 1.4268867437	-0.142541
H	-1.324775749	 0.5872389914	 2.685750403	 0.130915
H	-2.6948080446	-0.1644212249	 1.8600058549	 0.131958
H	-1.7255274051	-1.1170439273	 2.9921561271	 0.122281
H	-1.1190306701	-1.69957875	 0.6008967238	 0.086809
H	 1.2389377323	-1.1604365812	 0.3645352592	 0.086462
H	 0.7585328827	 1.1417095748	 2.3396178913	 0.094783
H	 1.9059145399	-0.0261273147	 4.0625020709	 0.114058
H	 2.2635635793	-1.435906275	 3.0441964791	 0.102585
H	 4.1739777688	 0.9198764771	 3.1199545706	 0.095548
H	 4.5307111284	 0.4808413145	 0.6116560714	 0.124212
H	 3.3599323303	-0.9137639736	 0.7167426056	 0.111137
43.2507	131.569	161.071	190.287	222.6951	366.4875	384.2861	410.9097	482.4908	543.3808	729.2321	762.4225	776.8116	789.414	830.9247	878.3283	939.4644	958.0101	976.6905	995.8712	1012.6748	1053.8642	1074.8051	1092.1453	1106.4245	1122.5218	1131.4192	1162.7493	1169.3267	1209.8438	1226.2003	1268.4679	1279.5356	1308.0248	1321.8567	1365.5098	1407.1825	1424.0643	1469.8195	1488.0656	1490.4063	1508.4957	1511.8357	3040.2702	3049.8369	3073.5339	3090.4109	3099.9378	3101.2452	3112.9659	3120.5154	3140.0662	3166.3549	3199.3769
CC1OC1C1CC2CN12	C[C@H]1O[C@H]1[C@H]1C[C@H]2CN12	
InChI=1S/C7H11NO/c1-4-7(9-4)6-2-5-3-8(5)6/h4-7H,2-3H2,1H3	InChI=1S/C7H11NO/c1-4-7(9-4)6-2-5-3-8(5)6/h4-7H,2-3H2,1H3/t4-,5+,6-,7-,8?/m1/s1
