25
gdb 100690	2.67134	1.00235	0.9021	2.2211	85.47	-0.2486	0.072	0.3206	1462.8896	0.224715	-426.61787	-426.605804	-426.60486	-426.654846	43.646	
C	 0.0267455856	 1.3580287383	-0.0366847616	-0.235861
O	-0.0097114604	-0.0470983586	 0.0140282377	-0.251987
C	-1.3151113734	-0.6194560886	-0.0010969755	 0.12884
C	-1.8659546025	-0.6553048504	-1.4314365638	-0.421136
C	-1.2082958346	-1.9959134861	 0.7137747113	 0.251526
C	-0.1674909976	-2.9031308699	 0.0315434108	-0.415103
C	-0.7925727305	-1.7481264461	 2.1775329904	-0.414617
C	-2.5867088168	-2.6805106652	 0.6924683588	-0.104251
O	-2.5248012683	-3.8563629652	 1.4891381866	-0.426008
H	 1.0743904602	 1.655971433	 0.0573318202	 0.125628
H	-0.3622752949	 1.7623091829	-0.9831413699	 0.103928
H	-0.5446301202	 1.8103085385	 0.7893256445	 0.103154
H	-1.9824518283	 0.0139493789	 0.6092832149	 0.056393
H	-1.8532634772	 0.3472106873	-1.8689520315	 0.114674
H	-1.2660685745	-1.307551502	-2.0714863368	 0.127387
H	-2.9033491684	-1.001232328	-1.4535887707	 0.116132
H	 0.8166145157	-2.4299948904	 0.0373037974	 0.126105
H	-0.106477979	-3.8570415016	 0.5606101262	 0.124496
H	-0.4340704018	-3.1187522637	-1.0084988369	 0.10018
H	-1.5353182152	-1.130852926	 2.697261989	 0.094725
H	-0.7096157149	-2.6931277317	 2.7170894845	 0.127346
H	 0.1666436736	-1.228371243	 2.2143721962	 0.120776
H	-3.3499492638	-1.9849406869	 1.0819135206	 0.077075
H	-2.8649329972	-2.9344955654	-0.3406187678	 0.084234
H	-3.3665324256	-4.3135813201	 1.4120864853	 0.286365
60.0744	71.2591	111.582	163.5932	192.0029	213.4418	221.7537	229.503	244.9432	271.8203	299.5057	331.8323	346.1323	363.8372	394.1668	442.6087	500.4424	616.3542	740.2454	839.036	895.492	932.5234	959.7625	962.6531	1010.2769	1040.5685	1076.7444	1092.8482	1118.9034	1148.4704	1182.7038	1188.3624	1211.912	1228.6456	1246.2924	1289.426	1307.5814	1368.8793	1379.8171	1387.551	1402.3087	1407.8244	1458.7193	1478.3342	1483.6423	1486.6593	1488.7002	1494.2706	1500.8821	1502.4232	1512.1943	1514.6335	1523.8949	2942.2672	2953.4516	2974.6756	3004.0071	3020.2519	3033.6065	3041.6616	3048.4455	3106.9589	3108.1958	3110.1241	3112.16	3124.5892	3136.4381	3144.6936	3838.8489
COC(C)C(C)(C)CO	CO[C@@H](C)C(C)(C)CO	
InChI=1S/C7H16O2/c1-6(9-4)7(2,3)5-8/h6,8H,5H2,1-4H3	InChI=1S/C7H16O2/c1-6(9-4)7(2,3)5-8/h6,8H,5H2,1-4H3/t6-/m0/s1
