14
gdb 19006	5.50627	1.96062	1.74476	4.3497	60.72	-0.2651	0.0015	0.2666	740.9267	0.109732	-382.531335	-382.525986	-382.525042	-382.560676	21.741	
O	-0.0630305278	 0.0091627619	-0.0407308885	-0.341331
C	 0.011767841	 1.1994058737	-0.0052939871	 0.448174
O	-1.075400325	 2.0462489589	 0.0062529428	-0.250244
C	-0.4584907727	 3.3391175334	 0.0519458295	 0.128445
C	 0.7832235318	 3.3652026531	-0.880303503	-0.071024
C	 1.4778449915	 4.3333402509	 0.1055158974	-0.259927
C	 0.7593837121	 3.3094705704	 1.0149882355	-0.070997
C	 1.187782462	 2.1512021769	 0.0376942764	-0.195456
H	-1.207358473	 4.1275133931	 0.0657443821	 0.105604
H	 0.7891705651	 3.3769719482	-1.9702414182	 0.095196
H	 2.569009852	 4.3086449298	 0.1185167113	 0.112263
H	 1.1068784485	 5.3621603943	 0.1310944101	 0.103675
H	 0.737940926	 3.2571788526	 2.1035399374	 0.095201
H	 2.1933950984	 1.7392336928	 0.0382698444	 0.100422
182.2994	354.1988	425.0516	500.0332	628.0936	697.852	733.8736	809.4576	841.5217	882.7577	893.6866	907.504	918.1126	948.297	1005.6658	1019.7843	1069.1938	1073.3299	1108.0914	1129.837	1146.5156	1169.1095	1189.3005	1223.6575	1242.6275	1253.9353	1279.9606	1357.7753	1518.8229	1910.8924	3056.4028	3119.1792	3119.325	3124.7392	3159.6226	3166.2884
O=C1OC2C3CC2C13	O=C1O[C@@H]2[C@H]3C[C@@H]2[C@@H]13	
InChI=1S/C6H6O2/c7-6-4-2-1-3(4)5(2)8-6/h2-5H,1H2	InChI=1S/C6H6O2/c7-6-4-2-1-3(4)5(2)8-6/h2-5H,1H2/t2-,3+,4-,5+
