19
gdb 82386	2.29544	2.02827	1.33616	2.6215	73.85	-0.2308	0.0619	0.2927	991.5179	0.163062	-419.16158	-419.154182	-419.153238	-419.19318	30.086	
O	 0.5247056214	 0.6428189297	-0.8652922826	-0.444185
C	 0.0243392771	-0.3706461588	-0.0076133423	 0.134313
C	 0.7217740088	-0.3138329747	 1.3444859851	-0.067415
N	 0.5805202944	 0.9591359023	 2.0752412582	-0.326614
C	-0.0224486565	-0.2630685846	 2.6310165721	-0.024762
C	-1.5356974939	-0.3552911346	 2.6885752411	-0.22615
C	-2.2393147969	-0.2541221881	 1.3482668	-0.02476
N	-2.0505530012	 0.9697519983	 0.5528131833	-0.326615
C	-1.4950958814	-0.3048923189	 0.0617349191	-0.067417
H	 0.2749783833	 1.4688442073	-0.4279918469	 0.296675
H	 0.295714463	-1.3206156157	-0.48322837	 0.079475
H	 1.7047991282	-0.7796169957	 1.3506356766	 0.082667
H	 1.4447043487	 1.1763785154	 2.5636891174	 0.229373
H	 0.4759378953	-0.7011319857	 3.4945175323	 0.080423
H	-1.7935189384	-1.3279721089	 3.1273607724	 0.099544
H	-1.9264066023	 0.4112139212	 3.3691500106	 0.112984
H	-3.238952375	-0.6861367058	 1.3449663824	 0.080423
H	-2.9033512425	 1.1939198458	 0.047764772	 0.229373
H	-1.9931021822	-0.7647024286	-0.7890852609	 0.082668
108.1129	208.5167	230.8756	345.1864	345.9138	432.9601	459.0455	465.0721	521.4139	699.1119	719.9377	777.4966	811.2358	820.1576	860.8529	867.9601	908.0995	947.3358	976.2028	1006.447	1029.6724	1032.8043	1071.5083	1126.3553	1147.6472	1157.4445	1188.5997	1188.6879	1225.1164	1261.8876	1273.2697	1288.295	1294.6805	1366.3229	1379.7095	1393.9493	1409.9105	1451.1691	1452.3844	1470.8897	1488.0617	3020.8332	3040.9559	3057.7007	3109.5246	3111.7389	3127.5437	3130.672	3503.8553	3504.0058	3758.6012
OC1C2NC2CC2NC12	O[C@H]1[C@H]2N[C@H]2C[C@H]2N[C@@H]12	
InChI=1S/C6H10N2O/c9-6-4-2(7-4)1-3-5(6)8-3/h2-9H,1H2	InChI=1S/C6H10N2O/c9-6-4-2(7-4)1-3-5(6)8-3/h2-9H,1H2/t2-,3+,4-,5+,6-
