25
gdb 116292	2.23421	1.1719	0.84211	1.2526	89.09	-0.2446	0.0816	0.3262	1500.9317	0.229432	-389.510604	-389.500364	-389.49942	-389.546566	37.876	
C	 0.0469610172	 1.6901595839	 0.0473783122	-0.390889
C	 0.0386906121	 0.1578974893	 0.0599827041	-0.177989
C	 0.6696965895	-0.466398169	-1.1950126999	 0.00622
C	 2.2044888576	-0.2112507122	-1.2793916559	-0.246982
C	 2.8298391867	-1.6199978354	-1.1478195956	-0.076359
O	 1.8092755535	-2.4523561339	-0.6260219731	-0.25526
C	 0.602935463	-2.0185615869	-1.2481331959	 0.132873
C	-0.5779240155	-2.7197950904	-0.5904418728	-0.201381
C	-0.5520835449	-4.2369710541	-0.8021569252	-0.388102
H	 1.0622935081	 2.0951572227	-0.0145933817	 0.116602
H	-0.5139529276	 2.0781152463	-0.8106703698	 0.112061
H	-0.4134367111	 2.093218315	 0.9548845575	 0.11189
H	 0.5667272054	-0.2111785882	 0.9485267153	 0.102183
H	-0.9990168891	-0.1815508848	 0.1545106317	 0.09585
H	 0.1609888056	-0.0548943275	-2.0746064537	 0.063526
H	 2.4990047442	 0.2722758968	-2.2140874875	 0.099366
H	 2.5332753545	 0.4370963384	-0.462900773	 0.105313
H	 3.1587313256	-1.9923624242	-2.1319317803	 0.084542
H	 3.6833220136	-1.6617137282	-0.4660312523	 0.103434
H	 0.6316093494	-2.3157083948	-2.3143934429	 0.050568
H	-0.575512711	-2.4964202539	 0.4816135277	 0.106311
H	-1.5043409093	-2.3000972042	-1.0021508267	 0.094366
H	-0.5957199401	-4.4881262496	-1.8679866993	 0.10937
H	 0.3674328655	-4.6655257458	-0.395518763	 0.135949
H	-1.4031755128	-4.7183554894	-0.3109069799	 0.106539
31.1499	96.8847	139.9245	148.9852	189.1837	216.7671	226.8095	259.1413	316.9692	364.501	451.0607	496.86	660.705	719.7896	769.5824	790.1014	809.6829	852.8035	900.2754	931.6137	955.2234	985.2477	992.701	1024.7235	1048.0795	1063.4855	1084.4598	1118.0689	1135.2234	1171.2852	1181.1167	1231.7842	1246.8964	1273.4366	1287.0725	1307.7831	1317.511	1331.4902	1343.6333	1361.5246	1385.7576	1403.6283	1407.1631	1414.7864	1423.0151	1476.2491	1487.0873	1496.0535	1498.6998	1500.993	1507.8566	1508.7547	1519.4013	2908.0053	2966.5728	3022.2452	3030.1202	3031.4741	3033.9691	3035.3102	3060.6473	3062.9393	3075.8604	3086.3699	3096.8256	3101.044	3103.137	3107.3656	3124.041
CCC1CCOC1CC	CC[C@H]1CCO[C@H]1CC	
InChI=1S/C8H16O/c1-3-7-5-6-9-8(7)4-2/h7-8H,3-6H2,1-2H3	InChI=1S/C8H16O/c1-3-7-5-6-9-8(7)4-2/h7-8H,3-6H2,1-2H3/t7-,8-/m0/s1
