21
gdb 79408	2.19436	1.70412	1.54467	1.3184	83.44	-0.2067	0.0834	0.2902	1046.3076	0.180962	-383.164352	-383.155319	-383.154375	-383.197303	34.979	
C	-0.6688035479	 1.4178296228	-0.4281066862	-0.336908
N	-0.4502279377	 0.0084786451	-0.1236287389	-0.142272
C	-1.242117747	-0.5908476903	 0.9875040921	-0.087159
C	-0.1409198849	-1.6594683615	 1.2403632184	-0.076047
N	-0.0150311895	-1.4344073059	 2.7100679306	-0.381506
C	-0.3259605986	-0.0635600394	 2.1719138353	 0.285079
C	-0.4433242786	 1.1018836803	 3.1142663641	-0.530832
C	 0.5931854779	-0.330760177	 0.8976371354	 0.33654
C	 2.0612127073	-0.0865101208	 0.7312515214	-0.537694
H	 0.1399820421	 1.7750629796	-1.0743285094	 0.120158
H	-1.6046785011	 1.5194866816	-0.9880460049	 0.118808
H	-0.7238043163	 2.0855892507	 0.4458843807	 0.096567
H	-2.3275038568	-0.7165589994	 0.9541199873	 0.07091
H	-0.0198172989	-2.6265915376	 0.7531958863	 0.083401
H	-0.8339638977	-1.8125955763	 3.1953079822	 0.201463
H	 0.4716328194	 1.192487449	 3.7093869061	 0.134217
H	-0.610804833	 2.0456907136	 2.5911261142	 0.130645
H	-1.2784734824	 0.9508809145	 3.8087935049	 0.121379
H	 2.6008773113	-0.5080218298	 1.5846226021	 0.142735
H	 2.4303724537	-0.5583792931	-0.1850476621	 0.12996
H	 2.2861442288	 0.9843331439	 0.6779214503	 0.120556
149.7419	169.6863	182.0061	202.2867	210.187	227.7363	274.5328	311.6103	395.2797	529.0607	537.421	650.2866	656.2713	734.4056	741.294	800.3399	811.9537	845.1929	897.8844	940.5779	959.4933	1027.3646	1064.7441	1098.8007	1106.2317	1118.676	1141.2854	1145.9559	1181.0083	1184.5852	1213.6874	1254.7211	1263.7764	1286.718	1323.89	1373.1704	1401.5592	1413.0026	1444.5	1479.5303	1480.6622	1484.7735	1491.0208	1496.5408	1499.7688	2982.7795	3029.9792	3032.5921	3061.8197	3082.8853	3091.0208	3094.0384	3098.059	3115.2259	3125.288	3127.4559	3388.8841
CN1C2C3NC2(C)C13C	CN1[C@H]2[C@@H]3N[C@@]2(C)[C@]13C	
InChI=1S/C7H12N2/c1-6-5-4(8-6)7(6,2)9(5)3/h4-5,8H,1-3H3	InChI=1S/C7H12N2/c1-6-5-4(8-6)7(6,2)9(5)3/h4-5,8H,1-3H3/t4-,5-,6+,7+/m0/s1
