20
gdb 114778	3.37351	1.36474	1.31046	1.8884	77.61	-0.2311	0.0775	0.3086	1075.2749	0.172991	-403.105108	-403.097458	-403.096514	-403.137229	30.137	
C	 0.0501548539	 1.3922873533	 0.0631175108	-0.236325
O	-0.1206985307	-0.00074016	-0.0602011461	-0.244099
C	 0.6013162185	-0.5746227334	-1.1394733562	 0.109482
C	 2.1009000567	-0.841165101	-0.8363438573	-0.237084
C	 2.1215380396	-2.3277544856	-0.5045509855	 0.005555
C	 1.2038173197	-2.6955652378	 0.6926676754	-0.248836
C	 0.1485485084	-3.0090604475	-0.3555301934	-0.017027
C	 0.0663331013	-1.9714022519	-1.4144204354	-0.056307
N	 1.1473987871	-2.9840581261	-1.4927630678	-0.162374
H	 1.0913559951	 1.6716148199	 0.285295859	 0.104535
H	-0.2566887202	 1.9208685265	-0.8533230178	 0.105082
H	-0.5827400209	 1.7236721284	 0.8900412317	 0.128072
H	 0.4842633825	 0.0663735842	-2.0257882885	 0.067073
H	 2.7084336622	-0.645674569	-1.7263943339	 0.106276
H	 2.4744538569	-0.2132842811	-0.0219557191	 0.105524
H	 3.1072779982	-2.7917857401	-0.5252897715	 0.076861
H	 1.543244761	-3.601904647	 1.198957163	 0.105358
H	 0.9798930923	-1.9205433132	 1.4291912244	 0.109841
H	-0.6042137091	-3.7884856627	-0.2819832278	 0.088907
H	-0.7120215125	-2.0928408258	-2.1604405838	 0.089486
106.8562	135.4633	190.1517	244.0013	345.296	372.8196	436.1349	491.9978	644.8765	731.3169	763.8252	797.8868	817.8553	827.9937	867.6434	900.6642	956.6234	995.5088	1007.1259	1017.6741	1033.3499	1068.3265	1078.659	1101.4806	1131.7439	1151.6831	1182.2247	1183.4764	1196.5438	1222.3178	1258.8128	1264.8092	1284.3012	1318.9981	1346.1488	1363.0373	1397.119	1409.0781	1469.6959	1479.0023	1487.9531	1490.2319	1510.3219	2972.1676	2988.3181	3019.1993	3047.5449	3064.0597	3097.4376	3110.4875	3113.1296	3121.2603	3149.8525	3169.983
COC1CC2CC3C1N23	CO[C@H]1C[C@H]2C[C@H]3[C@@H]1N23	
InChI=1S/C7H11NO/c1-9-6-3-4-2-5-7(6)8(4)5/h4-7H,2-3H2,1H3	InChI=1S/C7H11NO/c1-9-6-3-4-2-5-7(6)8(4)5/h4-7H,2-3H2,1H3/t4-,5+,6+,7+,8?/m1/s1
