18
gdb 113524	2.63507	1.27678	1.10377	3.3059	73.97	-0.2466	-0.0306	0.2159	1163.2628	0.14749	-439.057291	-439.048771	-439.047827	-439.090757	31.967	
O	 0.1785381494	 0.4239006861	 0.8580288873	-0.422486
C	-0.2716068525	 0.2062934283	-0.4623258735	-0.075218
C	-1.6060163171	-0.5221612374	-0.4997056296	-0.078571
C	-1.7913793101	-1.7033614164	-1.4127461924	-0.363211
C	-1.5971805731	-1.9242054734	 0.0649996058	 0.224402
N	-0.4377135311	-2.5119070466	 0.7826219319	-0.396486
C	-1.3537618426	-3.1800650395	 1.7678137081	-0.287977
C	-2.5519999514	-2.5102541342	 1.0601881811	 0.327122
O	-3.7345908432	-2.470393134	 1.2330123194	-0.303293
H	 0.2983669781	-0.4628155417	 1.2299926933	 0.2914
H	-0.366718932	 1.1895430345	-0.9346138792	 0.114904
H	 0.4673157528	-0.3631096268	-1.0496738132	 0.078755
H	-2.484469321	 0.0679296169	-0.2548038161	 0.115183
H	-2.7769183346	-1.9187537743	-1.8121739528	 0.139619
H	-0.9642919365	-1.9703517019	-2.0645738436	 0.123894
H	 0.0628045884	-3.1922949993	 0.2194187803	 0.231868
H	-1.37108089	-4.2739689339	 1.7175100975	 0.13536
H	-1.1848947136	-2.8701016165	 2.8029310455	 0.144735
92.3599	100.2278	145.4933	170.8169	240.4066	314.4135	418.0275	427.0027	526.1523	570.16	608.0905	631.0991	735.723	775.8002	828.9561	852.4249	893.6995	942.0199	967.6093	1021.8139	1033.8046	1054.4553	1067.3682	1076.9162	1084.3813	1137.6764	1143.5122	1206.3446	1246.8415	1283.2043	1293.8586	1345.6746	1381.5907	1415.364	1455.0289	1464.8255	1475.3362	1501.0344	1902.4172	2967.4814	3048.339	3072.0422	3103.3232	3122.2574	3157.4196	3213.4668	3516.2346	3708.0502
OCC1CC11NCC1=O	OC[C@H]1C[C@]21NCC2=O	
InChI=1S/C6H9NO2/c8-3-4-1-6(4)5(9)2-7-6/h4,7-8H,1-3H2	InChI=1S/C6H9NO2/c8-3-4-1-6(4)5(9)2-7-6/h4,7-8H,1-3H2/t4-,6-/m1/s1
