13
gdb 7032	8.26762	1.00244	0.89404	2.5372	61.6	-0.2676	-0.0258	0.2418	1201.7216	0.095362	-431.952583	-431.944496	-431.943552	-431.98599	27.078	
N	 0.3256503349	 1.2362756945	-0.1188922546	-0.393617
C	 0.0186537184	 0.0138365208	-0.0177978143	 0.084549
N	-1.2911599275	-0.4620780244	 0.0309960239	-0.377038
C	-2.4598611396	 0.2645713359	-0.0219030245	 0.564457
O	-2.5973160265	 1.4482029461	-0.1180381563	-0.341773
O	-3.4914564377	-0.6571475647	 0.0591080808	-0.238492
C	-4.7712106619	-0.166728444	 0.0276585251	 0.124027
N	-5.7179146408	-0.9910999445	 0.1005291399	-0.42706
H	 1.3390427725	 1.3372548244	-0.135062242	 0.235572
H	 0.7226133462	-0.8245966916	 0.0446488722	 0.106059
H	-1.4164942954	-1.4588176877	 0.1124026086	 0.273974
H	-4.8024247666	 0.9196006326	-0.0600099813	 0.148669
H	-6.6075153259	-0.4955782974	 0.0663076125	 0.240674
58.0455	115.4766	126.236	149.3127	197.9353	266.7997	382.8401	531.2889	587.2707	589.2762	766.3065	824.9488	845.3744	850.7134	977.0812	1008.9674	1064.6347	1071.1037	1135.1428	1192.9276	1256.2505	1277.3446	1387.937	1430.3396	1545.0998	1741.7254	1750.6804	1881.3324	3047.7685	3139.1414	3505.5099	3510.3466	3643.7442
N=CNC(=O)OC=N	N=CNC(=O)O[CH][NH]	
InChI=1S/C3H5N3O2/c4-1-6-3(7)8-2-5/h1-2,5H,(H2,4,6,7)	InChI=1S/C3H5N3O2/c4-1-6-3(7)8-2-5/h1-2,5H,(H2,4,6,7)
