20
gdb 59889	4.36018	0.79465	0.72283	2.8319	77.56	-0.2582	-0.0367	0.2216	1601.0921	0.169764	-440.283007	-440.273348	-440.272403	-440.318324	35.169	
C	-0.3307574048	 1.6188198299	-0.1393788013	-0.385632
C	 0.0652750152	 0.1554068312	 0.0093318366	 0.137758
O	-1.0709408178	-0.5470979828	 0.4776692885	-0.441466
C	 0.5701541403	-0.4367995454	-1.317500983	-0.320414
C	 0.9851560544	-1.8910824858	-1.2186010251	 0.386788
O	 0.6704652603	-2.6030938873	-0.2776954456	-0.3586
C	 1.8030224616	-2.4467313885	-2.3382668027	-0.098608
C	 3.0305561691	-3.2164523172	-1.9416646525	-0.217466
N	 1.8699298799	-3.9079730292	-2.4777512157	-0.300576
H	 0.5186864826	 2.2283035441	-0.4628475265	 0.107833
H	-1.1368223513	 1.7228124145	-0.8729813396	 0.121162
H	-0.6922336822	 2.003239499	 0.8177643926	 0.128135
H	 0.8868907027	 0.082544908	 0.7422267456	 0.068603
H	-0.7851407626	-1.4650501264	 0.5817045446	 0.2941
H	-0.2292880528	-0.3783581739	-2.0713519674	 0.140546
H	 1.4104829851	 0.143926523	-1.7199227691	 0.118585
H	 1.8125451321	-1.8817272088	-3.265490768	 0.103861
H	 3.8988858093	-3.1783670435	-2.5928823176	 0.130821
H	 3.2387476612	-3.2911821348	-0.8779588743	 0.134348
H	 1.3381586577	-4.3012995961	-1.7000116995	 0.250222
43.6875	75.6136	134.7326	146.9569	222.0884	253.949	286.772	303.2625	357.714	448.3121	459.1498	585.3735	598.2643	704.1753	816.7399	837.396	862.907	894.9299	917.4354	952.9617	977.2257	1005.9032	1057.7241	1077.44	1104.3636	1122.2661	1137.8267	1171.4259	1181.2957	1223.572	1287.6749	1308.9129	1321.1005	1335.5506	1386.1791	1400.3142	1409.5423	1427.1786	1457.8198	1483.1523	1497.0962	1500.2532	1755.8776	2954.3936	3011.4146	3039.8952	3054.8059	3111.2909	3113.3224	3123.663	3158.4267	3207.5629	3463.3224	3747.4507
CC(O)CC(=O)C1CN1	C[C@@H](O)CC(=O)[C@H]1CN1	
InChI=1S/C6H11NO2/c1-4(8)2-6(9)5-3-7-5/h4-5,7-8H,2-3H2,1H3	InChI=1S/C6H11NO2/c1-4(8)2-6(9)5-3-7-5/h4-5,7-8H,2-3H2,1H3/t4-,5-/m1/s1
