19
gdb 47517	2.68584	1.77796	1.31377	2.1495	76.52	-0.2166	0.0148	0.2314	1003.1211	0.162918	-419.180362	-419.173147	-419.172203	-419.211865	29.152	
N	-0.0973068442	 1.3065542467	-0.0945146811	-0.501819
C	-0.0265109703	 0.0494990743	 0.046455416	 0.362217
O	 1.1917563624	-0.5848429708	 0.1063159078	-0.256115
C	 1.3898314238	-1.6910388056	 0.9989626768	-0.0963
C	 0.651965416	-2.9890107617	 0.6257489419	-0.175289
N	-0.7851920676	-2.885030951	 0.3694344428	-0.101505
C	-1.0746485487	-2.0727477248	-0.8577446892	-0.1815
C	-1.2716758307	-0.7980326565	 0.0052807296	-0.066571
C	-1.4448234037	-1.807234075	 1.1758150381	-0.205866
H	 0.8432124782	 1.707813456	-0.066756568	 0.218271
H	 2.4677515099	-1.8757960666	 0.9795405999	 0.119141
H	 1.1366599798	-1.3752093809	 2.0184545475	 0.111864
H	 1.1111171449	-3.4311696221	-0.2651538608	 0.11556
H	 0.8197578309	-3.6929813574	 1.4526165233	 0.107101
H	-0.2773997276	-2.0571688479	-1.6046458305	 0.115728
H	-2.0046916067	-2.4119920644	-1.3244862052	 0.109386
H	-2.1138113277	-0.1432179369	-0.21671186	 0.100827
H	-2.4992042998	-2.0532160172	 1.334611313	 0.114688
H	-0.9951149888	-1.5811235182	 2.145105798	 0.110182
101.926	223.6508	270.0965	305.9383	371.1837	404.8758	431.6687	525.0436	622.1531	696.5662	734.9453	767.3439	846.2504	873.8216	879.8713	910.0624	932.3919	956.8636	967.7866	1018.1454	1043.3398	1089.3364	1101.1185	1120.0722	1157.9142	1163.6661	1224.9213	1268.9948	1278.4752	1292.5198	1304.542	1306.7673	1330.5293	1354.1468	1383.7177	1416.8958	1476.7227	1489.5623	1505.4438	1527.6554	1738.8907	3013.3582	3028.6262	3045.8847	3054.5637	3070.2025	3092.6719	3106.5157	3109.3698	3121.3419	3454.371
N=C1OCCN2CC1C2	[NH][C]1OCCN2C[C@H]1C2	
InChI=1S/C6H10N2O/c7-6-5-3-8(4-5)1-2-9-6/h5,7H,1-4H2	InChI=1S/C6H10N2O/c7-6-5-3-8(4-5)1-2-9-6/h5,7H,1-4H2
