21
gdb 109916	2.16406	1.47237	1.05658	1.3436	79.42	-0.2613	-0.0031	0.2583	1219.774	0.18222	-424.232401	-424.222786	-424.221842	-424.266871	36.195	
C	-0.0948952109	 1.5266840469	-0.0637694084	-0.392804
C	-0.0407467978	-0.0040022472	-0.0341466232	-0.154871
C	 0.6352556889	-0.5623894152	 1.2200440462	-0.068461
C	-0.112032183	-0.2923001687	 2.566700854	 0.075796
O	-1.5076671774	-0.002109209	 2.4579003015	-0.42489
C	 0.1315240561	-1.5541042608	 3.3582814603	-0.106711
C	 0.6712606127	-2.5246107996	 2.6199557324	-0.109514
C	 0.9004201493	-2.1017968158	 1.1894879003	 0.064032
O	 0.0986914678	-2.8548764881	 0.277865423	-0.422427
H	 0.9090346005	 1.9613559763	 0.0068928367	 0.106041
H	-0.5447486136	 1.8841923549	-0.9954484498	 0.107662
H	-0.6926034559	 1.9125956399	 0.7664219513	 0.133999
H	-1.0574075376	-0.4034457327	-0.1132944691	 0.079529
H	 0.495908378	-0.379055895	-0.9128637166	 0.100716
H	 1.6191679391	-0.0859423257	 1.3181333922	 0.077272
H	 0.2987021171	 0.5923631824	 3.0634373728	 0.093636
H	-1.9618218639	-0.8203356857	 2.2312872359	 0.27059
H	-0.1625059337	-1.636299829	 4.3994215017	 0.104219
H	 0.891323839	-3.5321468744	 2.9570257198	 0.104502
H	 1.9247585771	-2.3023872006	 0.8580258433	 0.092105
H	-0.7958058019	-2.8912316828	 0.6326199158	 0.269578
56.0587	101.8753	174.7807	187.9324	217.4982	273.4125	281.6446	314.3048	348.7754	398.4703	488.5632	515.7934	593.9658	710.5599	753.0763	778.4754	800.2721	847.2062	886.7485	943.842	989.9472	999.6674	1017.4779	1024.6691	1060.8358	1087.5049	1138.1204	1152.9147	1157.7767	1228.0934	1246.5633	1254.855	1282.6542	1313.7375	1330.2761	1345.2331	1372.2844	1384.1994	1406.7963	1426.0053	1432.7025	1477.9211	1498.3124	1512.3306	1675.6463	3016.9476	3031.148	3041.1227	3054.7913	3062.6795	3072.2741	3095.9027	3118.5221	3179.51	3204.3189	3807.0922	3811.3124
CCC1C(O)C=CC1O	CC[C@H]1[C@@H](O)C=C[C@H]1O	
InChI=1S/C7H12O2/c1-2-5-6(8)3-4-7(5)9/h3-9H,2H2,1H3	InChI=1S/C7H12O2/c1-2-5-6(8)3-4-7(5)9/h3-9H,2H2,1H3/t5-,6-,7+
