18
gdb 12279	2.98799	1.59371	1.31207	1.923	63.54	-0.2525	0.0452	0.2977	996.6159	0.152615	-422.051372	-422.042668	-422.041724	-422.084879	31.693	
C	 0.4658736735	 1.3660783678	-0.2528985651	-0.409576
C	 0.0641862572	-0.0651900806	 0.046146859	 0.116325
O	 0.8016381075	-1.0390639412	-0.7414013835	-0.327988
C	 1.3708158446	-1.6655244981	 0.439475005	 0.076748
C	 2.888349137	-1.5587384445	 0.3993419762	-0.06241
O	 3.3761708023	-2.1023487865	-0.8096232496	-0.421154
C	 0.5712283015	-0.7135628012	 1.3676084424	 0.042682
O	 1.2490175733	 0.0713894494	 2.3126332378	-0.420358
H	 1.5398499007	 1.52847459	-0.1129612695	 0.107126
H	 0.2306935817	 1.6084557803	-1.2934769751	 0.134425
H	-0.0789122863	 2.0598386702	 0.3951803767	 0.131723
H	-1.0139454309	-0.1908022528	-0.1153598239	 0.083965
H	 1.0792325756	-2.7215979991	 0.4910745726	 0.085768
H	 3.2032087116	-0.506629043	 0.5110770269	 0.059364
H	 3.3359986898	-2.1246562244	 1.2227050376	 0.118383
H	 2.8345018344	-1.7114748297	-1.5075591795	 0.293256
H	-0.2168418613	-1.2214210383	 1.9260328485	 0.103891
H	 1.9359852479	 0.5786707018	 1.8688562736	 0.28783
52.9071	110.503	176.3993	198.6151	251.0239	277.6746	307.8916	395.2245	470.7587	480.5448	528.8378	560.9837	790.9542	800.8363	834.4272	887.9879	950.5927	1018.1956	1044.7086	1081.3486	1090.0144	1113.9693	1133.1632	1174.2784	1216.5734	1244.6426	1270.2635	1280.4929	1322.2363	1341.8173	1375.6906	1400.387	1411.3155	1438.5544	1445.7832	1481.42	1495.8072	1499.9968	2946.0405	3021.4193	3033.791	3035.242	3079.3234	3100.784	3105.8566	3117.354	3771.3762	3822.2317
CC1OC(CO)C1O	C[C@H]1O[C@@H](CO)[C@H]1O	
InChI=1S/C5H10O3/c1-3-5(7)4(2-6)8-3/h3-7H,2H2,1H3	InChI=1S/C5H10O3/c1-3-5(7)4(2-6)8-3/h3-7H,2H2,1H3/t3-,4+,5+/m1/s1
