17
gdb 31748	4.28324	0.95837	0.81894	1.4527	72.17	-0.2088	0.0061	0.2148	1397.2768	0.136373	-455.156095	-455.147013	-455.146068	-455.19107	31.756	
C	 0.0694409173	 1.3661296539	 0.2124463573	-0.235802
O	 0.0373574921	-0.0518124931	 0.0659491504	-0.272587
C	-1.1785574331	-0.6107470163	-0.0217829261	 0.34775
C	-1.4569598924	-1.9288489034	-0.1995775265	-0.176185
O	-2.8296339183	-2.0425147009	-0.2232932473	-0.180966
C	-3.2910767511	-0.7853308563	-0.0670006361	 0.430845
C	-4.7703817811	-0.5960225277	-0.036118863	-0.264614
N	-5.3888200207	-1.1481630302	-1.2483171291	-0.510546
N	-2.3560108988	 0.1083543724	 0.0593928443	-0.393706
H	 1.1263181951	 1.6330514246	 0.2555399199	 0.128871
H	-0.4086190126	 1.8635724907	-0.6372066432	 0.134706
H	-0.4345422676	 1.6819865691	 1.1312081404	 0.133088
H	-0.8798787479	-2.8260983509	-0.3207225139	 0.144283
H	-5.1587208006	-1.0288676383	 0.9033003398	 0.105132
H	-4.9524048528	 0.4807532024	 0.003973329	 0.139778
H	-5.2038037634	-2.1460101001	-1.2918394837	 0.238205
H	-6.3973058041	-1.0469865758	-1.1845052422	 0.231747
41.8754	69.3001	139.5307	168.0198	192.5689	224.9036	304.265	355.6322	425.0114	519.5378	619.1836	654.1795	706.6213	737.8876	761.3929	856.8569	966.1337	995.6711	1016.6401	1075.4877	1081.6956	1124.348	1168.2423	1179.8785	1204.9673	1237.2601	1301.0566	1346.6997	1365.9261	1423.0404	1476.4925	1482.5235	1497.8265	1502.2363	1613.1557	1656.3593	1663.7514	2937.6301	3035.477	3101.8962	3103.5679	3143.96	3315.0297	3493.8401	3573.3583
COC1=COC(CN)=N1	COc1coc(CN)n1	
InChI=1S/C5H8N2O2/c1-8-5-3-9-4(2-6)7-5/h3H,2,6H2,1H3	InChI=1S/C5H8N2O2/c1-8-5-3-9-4(2-6)7-5/h3H,2,6H2,1H3
