17
gdb 109575	2.0463	1.61988	1.14034	1.0893	65.35	-0.2307	-0.0528	0.1779	1113.8464	0.132517	-496.067492	-496.057605	-496.056661	-496.102899	34.289	
C	 0.2625093735	 0.8791955285	 0.5567970181	-0.243556
O	-0.042398092	-0.3717830476	-0.0387352092	-0.242542
C	-1.4190870657	-0.5816114385	-0.2318942994	-0.061322
C	-1.6623281487	-2.0330777285	-0.783375513	 0.13291
O	-0.593969211	-2.6884618889	-1.376742728	-0.421892
C	-2.1180888116	-2.5232793767	 0.6347491695	-0.052923
O	-1.0572842074	-3.239121341	 1.2419738773	-0.427188
C	-2.1109844099	-1.0384126473	 1.0829402156	 0.357059
O	-2.4060126977	-0.4916981712	 2.1086625231	-0.295368
H	 1.3500516638	 0.9304650626	 0.6419941947	 0.13321
H	-0.0905064644	 1.7100955234	-0.0718475882	 0.113246
H	-0.1870676783	 0.9764212675	 1.5525159308	 0.136311
H	-1.8887499525	 0.2505183339	-0.7767446506	 0.081752
H	-2.4963391696	-2.0439649494	-1.4898406565	 0.10253
H	 0.1172030934	-2.7048420844	-0.7244523799	 0.299377
H	-3.0738064619	-3.0596604065	 0.6970477789	 0.086676
H	-1.16563033	-3.1780735459	 2.197662727	 0.301719
41.971	105.6856	125.5872	152.9706	184.5754	211.4441	235.9423	269.743	336.9628	359.6305	428.2895	529.672	600.5371	630.7707	745.761	832.6948	872.2631	971.087	985.7588	1054.4162	1119.2641	1126.565	1151.2822	1164.5097	1184.2733	1211.8463	1233.2924	1270.0293	1284.2719	1328.5255	1345.09	1380.349	1450.2678	1476.9538	1485.393	1511.245	1876.7956	2992.4247	2997.7195	3019.8388	3063.0721	3086.2603	3126.8626	3798.7429	3807.6258
COC1C(O)C(O)C1=O	CO[C@H]1[C@@H](O)[C@@H](O)C1=O	
InChI=1S/C5H8O4/c1-9-5-3(7)2(6)4(5)8/h2-3,5-7H,1H3	InChI=1S/C5H8O4/c1-9-5-3(7)2(6)4(5)8/h2-3,5-7H,1H3/t2-,3+,5+/m1/s1
