18
gdb 34452	3.55976	1.47511	1.24321	2.1884	82.05	-0.2282	0.0399	0.2681	1035.2697	0.149055	-364.741582	-364.734333	-364.733388	-364.772884	29.786	
C	 0.0396049661	-1.1414239088	-0.0180526395	-0.331394
C	 0.0111739013	 0.0604399884	-0.0337247116	 0.154559
C	-0.0775260227	 1.4918225352	-0.0431684754	 0.186971
C	-1.2907709007	 2.1639040449	 0.6149333282	-0.310177
C	-1.4638459422	 3.4884876983	-0.1716011246	-0.212783
C	-0.0790331316	 3.7097156306	-0.789859083	-0.072919
C	 1.0097385386	 3.6381107507	 0.3096914065	-0.161506
N	 1.2690627297	 2.181739652	 0.0353946531	-0.17835
C	 0.4166989963	 2.2994723449	-1.1914575786	-0.088973
H	 0.0814421088	-2.2021641918	-0.003579686	 0.18321
H	-2.1643281181	 1.5130961691	 0.5370107548	 0.118363
H	-1.111482222	 2.330986267	 1.6819564648	 0.115278
H	-2.218355859	 3.374189381	-0.9576009814	 0.104663
H	-1.770343202	 4.322274006	 0.4684227918	 0.100932
H	-0.0121602525	 4.5209384357	-1.5142399102	 0.075644
H	 1.9206622866	 4.1867509336	 0.0598296025	 0.115461
H	 0.7181225118	 3.8784405141	 1.3382735221	 0.100379
H	 0.7122230315	 1.9112550192	-2.1590064734	 0.100643
145.8716	153.7567	252.0409	366.7173	390.747	490.9816	508.5042	535.0615	600.4357	604.1014	652.4857	681.1966	763.9228	835.3501	856.7832	882.1724	900.0302	902.9053	952.77	978.5822	986.1885	1041.9943	1050.094	1092.2542	1150.721	1163.3712	1175.7447	1207.9249	1251.8096	1264.3187	1288.3444	1298.6948	1307.1645	1345.7047	1376.1316	1484.5461	1493.993	1513.9397	2242.1807	3039.5334	3040.4163	3055.6739	3084.2624	3102.9583	3108.1689	3118.3346	3184.657	3504.191
C#CC12CCC3CN1C23	C#C[C@@]12CC[C@H]3CN1[C@@H]23	
InChI=1S/C8H9N/c1-2-8-4-3-6-5-9(8)7(6)8/h1,6-7H,3-5H2	InChI=1S/C8H9N/c1-2-8-4-3-6-5-9(8)7(6)8/h1,6-7H,3-5H2/t6-,7+,8-,9?/m0/s1
