14
gdb 66761	2.81388	2.16595	1.55451	5.0602	63.34	-0.2405	-0.0176	0.2229	831.1547	0.101097	-436.595985	-436.589499	-436.588555	-436.626651	26.038	
O	-0.0376534788	 1.3945178366	-0.0666336801	-0.466382
C	-0.0062065515	 0.0240131159	-0.0845848381	 0.254779
C	 0.9398723905	-0.8050408364	 0.8274155884	-0.1768
C	 1.6181950397	-1.5308020054	-0.32044321	-0.116292
C	 0.4949069579	-2.2180371641	 0.3888104412	-0.031872
N	-0.538553906	-1.9636338934	-0.667360453	-0.217392
C	 0.4958772627	-0.9682254897	-1.2296449246	-0.086779
C	-1.29554925	-0.806658602	-0.1068012984	 0.408054
O	-2.4544895402	-0.655739668	 0.0904227773	-0.296454
H	 0.8375386895	 1.7307524496	 0.1545133551	 0.295738
H	 1.2900039101	-0.5703702598	 1.8237779501	 0.107656
H	 2.6447512533	-1.8227483788	-0.4868922705	 0.110153
H	 0.4716796302	-3.0854933521	 1.0342294267	 0.113882
H	 0.4881405425	-0.7666111324	-2.2970738241	 0.101708
140.7832	239.3136	283.2668	341.9712	396.9311	573.9369	619.8396	695.4142	730.5544	765.8406	787.6027	800.9819	839.273	871.4531	887.806	911.7078	943.2007	982.5434	1012.6093	1014.4965	1042.5972	1064.9146	1077.9266	1110.2953	1186.5747	1217.1319	1238.7149	1308.1588	1336.8124	1403.9758	1937.2171	3160.7761	3205.3297	3209.5481	3227.9371	3808.9194
OC12C3C4C3N(C14)C2=O	O[C@]12[C@@H]3[C@H]4[C@@H]3N([C@@H]14)C2=O	
InChI=1S/C6H5NO2/c8-5-6(9)2-1-3(2)7(5)4(1)6/h1-4,9H	InChI=1S/C6H5NO2/c8-5-6(9)2-1-3(2)7(5)4(1)6/h1-4,9H/t1-,2+,3-,4+,6+/m0/s1
