15
gdb 133082	2.79112	1.40708	0.94101	1.4473	72.06	-0.2308	-0.0187	0.2121	1164.3145	0.113325	-461.979567	-461.972047	-461.971103	-462.011827	28.058	
C	-0.0128604573	 1.4082710498	 0.0085156113	-0.233708
O	-0.0227365734	-0.0193731305	 0.0050432263	-0.262203
C	-1.2206164478	-0.6273250172	 0.0123413752	 0.469384
C	-1.232047975	-2.0293535665	 0.0086926053	-0.23487
C	-2.4652659723	-2.6579712745	 0.0161233137	-0.047868
C	-3.638609413	-1.9012034392	 0.0267782288	-0.290829
C	-3.4784872032	-0.5259471781	 0.0292396464	 0.337559
F	-4.5606737788	 0.2489356734	 0.0392093674	-0.074159
N	-2.3250768001	 0.1129372514	 0.0224254642	-0.411489
H	 1.0405644809	 1.6907351046	 0.0010924879	 0.1301
H	-0.5198679188	 1.8079926227	-0.8741740652	 0.138122
H	-0.5061450845	 1.8035663783	 0.9009283215	 0.138105
H	-0.2977190611	-2.574737958	 0.0003336671	 0.111744
H	-2.5217983691	-3.7413453271	 0.0136591016	 0.116084
H	-4.6253299766	-2.3437309192	 0.0328711384	 0.114026
114.2433	166.2914	213.7213	222.6053	258.9964	426.6204	471.436	482.4091	552.6036	620.5252	693.4994	741.3653	754.9776	813.1148	877.9964	990.6733	990.9993	1006.5044	1069.0539	1092.1374	1163.9721	1179.0815	1216.1036	1276.3217	1330.4493	1370.4781	1449.5451	1479.4361	1480.9316	1501.4914	1516.6742	1619.8179	1651.2792	3043.9862	3115.5492	3149.6743	3189.3216	3222.0853	3227.7759
COC1=CC=CC(F)=N1	COc1cccc(F)n1	
InChI=1S/C6H6FNO/c1-9-6-4-2-3-5(7)8-6/h2-4H,1H3	InChI=1S/C6H6FNO/c1-9-6-4-2-3-5(7)8-6/h2-4H,1H3
