17
gdb 26482	3.65982	1.30574	1.0794	2.2394	74.62	-0.2361	0.0027	0.2387	1126.9639	0.137168	-418.013631	-418.005736	-418.004792	-418.046787	29.59	
C	 0.12517693	 1.4158177143	 0.3797994432	-0.472519
C	-0.0203868073	-0.0368363368	-0.0261404742	 0.164807
C	 0.5562436731	-0.513954855	-1.3079183891	-0.262756
N	 1.1904287553	-0.9032856866	-0.0386986651	-0.335613
C	-1.2338386724	-0.7235394076	 0.4752279067	 0.418697
N	-1.9249588957	-1.6658612215	-0.0853051902	-0.314869
C	-2.9255084806	-1.9607996564	 0.8303629742	-0.115662
C	-2.7881035308	-1.1579536552	 1.909960064	-0.044971
O	-1.7040382732	-0.3540297852	 1.6973485329	-0.180198
H	 1.0307842343	 1.8423144655	-0.0620797741	 0.114657
H	-0.7293841922	 2.0101709837	 0.0404409297	 0.133213
H	 0.1897427105	 1.5160443622	 1.4673390871	 0.139149
H	 0.0646456458	-1.323892186	-1.835915176	 0.147842
H	 1.0446127084	 0.2263067311	-1.9367480074	 0.110072
H	 2.0079146675	-0.3207195956	 0.1335607235	 0.228935
H	-3.6664664921	-2.7205410808	 0.6391765532	 0.124649
H	-3.3177883605	-1.0198798003	 2.8364880917	 0.144568
36.0003	148.5708	193.7076	215.7215	318.4163	346.116	411.0371	482.4143	560.8999	631.3117	751.3837	771.3986	807.9316	852.751	864.4118	933.2552	940.8686	949.2346	976.9225	1009.048	1055.6176	1110.1207	1120.8776	1142.7342	1150.1287	1166.2441	1199.9021	1272.5674	1323.5247	1349.2725	1408.9887	1418.1894	1480.8735	1499.5746	1509.453	1553.1209	1619.9429	3036.3292	3105.1861	3112.3278	3115.2934	3213.2247	3264.0444	3301.1187	3479.7715
CC1(CN1)C1=NC=CO1	C[C@]1(CN1)c1ncco1	
InChI=1S/C6H8N2O/c1-6(4-8-6)5-7-2-3-9-5/h2-3,8H,4H2,1H3	InChI=1S/C6H8N2O/c1-6(4-8-6)5-7-2-3-9-5/h2-3,8H,4H2,1H3/t6-/m0/s1
