19
gdb 96037	3.1689	1.06565	0.87835	2.1153	76.86	-0.2453	0.0558	0.3011	1326.5593	0.15812	-422.989949	-422.980566	-422.979622	-423.0248	34.171	
O	-0.1011836598	 1.4992490533	 0.4056931173	-0.434206
C	-0.004288938	 0.1189464976	 0.0739787125	 0.058242
C	 0.6686152918	-0.7069474688	 1.181063579	-0.08356
O	-0.353293962	-1.1353007213	 2.0747317562	-0.264615
C	-1.6243748681	-0.7119470388	 1.5861458614	-0.066868
C	-1.4269657758	-0.4612959991	 0.0849872319	-0.004989
C	-2.4908081288	 0.4278499777	-0.5785310533	-0.38024
C	-3.8230988947	-0.1645977174	-0.5318821816	 0.293418
C	-4.9113834631	-0.6731211092	-0.4841015206	-0.441988
H	 0.7871045754	 1.8416826903	 0.542915473	 0.287658
H	 0.4968221335	-0.0129146821	-0.8953361437	 0.068188
H	 1.1806764052	-1.5853000369	 0.7620378423	 0.096454
H	 1.4145538957	-0.1082061004	 1.7225675963	 0.088675
H	-2.3563266578	-1.4947881515	 1.7999393711	 0.11546
H	-1.9425318375	 0.2126198928	 2.0903349123	 0.101036
H	-1.3965207762	-1.42881435	-0.428943619	 0.091794
H	-2.4954754241	 1.4060523478	-0.0872119999	 0.152777
H	-2.2102768002	 0.6128038238	-1.6231868883	 0.128875
H	-5.8784984455	-1.1093774179	-0.4452131468	 0.193887
64.1705	69.1923	111.2676	147.7327	245.6532	252.5398	320.8914	350.327	376.0244	466.1085	534.4268	619.067	639.3777	674.0908	768.6063	852.3725	864.68	903.0668	939.4436	961.2472	1004.5871	1020.5187	1086.0182	1086.8901	1130.3031	1138.4435	1188.3893	1208.0001	1229.2568	1268.0461	1290.878	1335.9446	1337.5465	1370.7295	1375.0563	1394.7108	1430.4423	1473.0436	1507.9857	1521.8048	2237.9675	2987.9884	2996.3661	3007.3494	3025.736	3031.0496	3048.0102	3083.2007	3095.9493	3506.9966	3827.3336
OC1COCC1CC#C	O[C@H]1COC[C@H]1CC#C	
InChI=1S/C7H10O2/c1-2-3-6-4-9-5-7(6)8/h1,6-8H,3-5H2	InChI=1S/C7H10O2/c1-2-3-6-4-9-5-7(6)8/h1,6-8H,3-5H2/t6-,7+/m1/s1
