23
gdb 114611	2.15467	1.27742	0.94159	1.2138	85.86	-0.242	0.0778	0.3199	1358.0577	0.20519	-388.262096	-388.252272	-388.251328	-388.296908	36.985	
C	 0.083267931	 1.509893926	 0.3189784006	-0.375169
C	-0.0085314907	 0.0398670509	-0.1144908911	-0.294235
C	-1.4092504889	-0.5132988711	-0.0836662359	 0.364099
C	-2.0342089046	-1.0604893537	 1.1771009709	-0.332349
C	-1.884825446	-1.9698524686	-0.0106796927	-0.115797
C	-2.998719966	-1.6893471504	-1.0252215225	-0.238973
C	-2.4962245426	-0.2119543467	-1.1377876702	-0.025601
C	-3.485995729	 0.9119796294	-0.8897174271	-0.103612
O	-4.4366598511	 0.8829418773	-1.9477174348	-0.421829
H	 1.1188410601	 1.8640390574	 0.2979478835	 0.109422
H	-0.5009891602	 2.1570339231	-0.3438221463	 0.118806
H	-0.2998454227	 1.6435322672	 1.3360056149	 0.116099
H	 0.4020353897	-0.0663187885	-1.1279109252	 0.093811
H	 0.6284035098	-0.5713031098	 0.5379476563	 0.094074
H	-1.332557955	-1.2344146106	 1.9878651009	 0.105516
H	-3.0219361528	-0.7527585553	 1.5129882855	 0.100146
H	-1.2836062129	-2.870732535	 0.0355880944	 0.080699
H	-2.8961852633	-2.2388285426	-1.9626885546	 0.102645
H	-4.021869361	-1.8213958533	-0.6574101916	 0.095226
H	-2.0356424091	-0.0488512388	-2.117897334	 0.076258
H	-3.9788611925	 0.7783686237	 0.0856314986	 0.081925
H	-2.9561559015	 1.8782370174	-0.857420592	 0.083674
H	-5.1065715207	 1.5490039518	-1.7686787575	 0.285165
70.8997	92.2934	129.6222	171.1416	214.4328	234.8736	266.8756	319.0878	341.9321	411.5471	467.68	477.9427	644.6473	724.1073	785.077	827.3553	844.775	870.6829	890.4229	966.4016	982.3898	999.9116	1008.4289	1030.9815	1052.3465	1073.1372	1083.0513	1094.5699	1100.7855	1148.4236	1172.4018	1196.9237	1229.9721	1251.8503	1262.8119	1272.6856	1285.6798	1329.8174	1356.2755	1369.0623	1400.7553	1410.3854	1460.5779	1478.4002	1486.3771	1497.8192	1503.5309	1507.0058	1520.8549	2962.2131	2994.1605	3009.4025	3031.9903	3043.3097	3046.5041	3052.1252	3100.5328	3102.953	3103.7128	3111.317	3172.1702	3189.5071	3828.8885
CCC12CC1CC2CO	CC[C@]12C[C@H]1C[C@H]2CO	
InChI=1S/C8H14O/c1-2-8-4-6(8)3-7(8)5-9/h6-7,9H,2-5H2,1H3	InChI=1S/C8H14O/c1-2-8-4-6(8)3-7(8)5-9/h6-7,9H,2-5H2,1H3/t6-,7+,8+/m1/s1
