14
gdb 65892	3.97916	0.78041	0.7218	3.12	76.9	-0.2735	-0.06	0.2136	1502.6185	0.099482	-436.636063	-436.627355	-436.626411	-436.670583	30.374	
O	-0.0045987948	 1.4520724439	-0.083360098	-0.44177
C	 0.008455689	 0.0460126121	-0.000325712	 0.119305
C	 0.1408078482	-0.5701022457	 1.4311661451	-0.10721
O	-1.1767010192	-1.1354496602	 1.3562779676	-0.261712
C	-1.4339361635	-0.5222336232	 0.0830323977	-0.092297
C	 0.8755141056	-0.5494012267	-1.004905839	 0.182583
C	 1.628559085	-1.0169762654	-1.8269425748	-0.069905
C	 2.4732070369	-1.551434946	-2.7569041041	 0.212209
N	 3.1943321876	-2.0040780234	-3.5471062418	-0.328194
H	 0.9030871421	 1.7698454092	-0.1515025086	 0.295294
H	 0.9147216566	-1.3320207667	 1.5686955262	 0.120345
H	 0.22666773	 0.207935864	 2.1994472353	 0.117053
H	-2.1721120999	 0.285755095	 0.1396272027	 0.12844
H	-1.7190438235	-1.2485174068	-0.6835044965	 0.125861
51.3217	88.3668	97.65	225.5108	233.6484	289.3218	352.3543	364.4966	494.6793	527.7229	550.3224	590.5541	600.8676	794.108	883.1493	950.6523	983.3611	1007.6189	1033.3501	1050.6295	1152.7878	1158.1853	1165.2125	1270.706	1300.3862	1346.1304	1382.6518	1492.9997	1520.4931	2261.5058	2396.0729	3021.7523	3038.5537	3086.9702	3099.0657	3804.2844
OC1(COC1)C#CC#N	OC1(COC1)C#CC#N	
InChI=1S/C6H5NO2/c7-3-1-2-6(8)4-9-5-6/h8H,4-5H2	InChI=1S/C6H5NO2/c7-3-1-2-6(8)4-9-5-6/h8H,4-5H2
