16
gdb 69884	2.70719	1.69	1.21194	3.9633	73.92	-0.2276	0.0114	0.239	1009.565	0.123977	-400.688412	-400.680746	-400.679802	-400.720287	30.331	
O	-0.088653961	 1.3876241095	 0.0420322681	-0.437111
C	 0.0221627047	 0.0210871269	 0.0345691257	 0.367622
C	-0.8850672769	-0.8217542745	 0.8540403403	-0.341869
C	 0.6188644934	-0.9779781062	 1.0209378862	-0.154427
C	 1.2953025826	-1.7358775734	-0.1488801214	-0.087733
C	 0.3784726585	-2.2208699599	-1.2256755771	-0.347127
C	 0.7004492288	-0.7396634976	-1.1622870934	 0.101338
C	 1.386211689	-0.0286869143	-2.1818028867	 0.198112
N	 1.9463798505	 0.5958836787	-2.981896906	-0.360383
H	 0.762168745	 1.7737092078	-0.201221243	 0.300508
H	-1.3319094048	-0.2588639564	 1.668186788	 0.135151
H	-1.5330765181	-1.595275803	 0.4559386093	 0.118968
H	 1.1062122797	-0.8190643901	 1.9731180548	 0.107805
H	 2.3338009992	-2.0369130666	-0.1141847453	 0.121626
H	 0.8677652893	-2.7410665205	-2.0433621949	 0.14309
H	-0.6263664099	-2.5717551905	-1.0248843846	 0.13443
119.8679	130.7229	257.9448	323.2156	366.4082	400.3853	435.9414	473.0981	529.5119	553.5917	588.4533	632.0403	770.2798	781.5049	849.4154	895.0671	913.7885	931.5475	967.0317	978.9578	1010.6983	1037.7518	1057.1777	1083.9097	1104.7022	1156.8145	1220.5782	1254.5713	1272.3877	1320.2788	1346.4907	1422.4744	1490.7235	1515.103	2330.8015	3125.7944	3142.692	3202.7636	3208.7149	3213.6722	3225.4017	3777.126
OC12CC1C1CC21C#N	O[C@]12C[C@H]1[C@H]1C[C@@]21C#N	
InChI=1S/C7H7NO/c8-3-6-1-4(6)5-2-7(5,6)9/h4-5,9H,1-2H2	InChI=1S/C7H7NO/c8-3-6-1-4(6)5-2-7(5,6)9/h4-5,9H,1-2H2/t4-,5+,6+,7-/m1/s1
