23
gdb 101724	3.61015	0.81634	0.79241	2.6136	82.71	-0.253	0.0774	0.3304	1600.8601	0.20415	-425.418386	-425.408043	-425.407099	-425.454203	38.283	
C	-0.7024021891	 1.249565008	 0.3292945896	-0.384995
C	 0.1866544737	 0.0768696458	-0.0912122462	-0.165037
C	 0.7817735805	-0.675523659	 1.0985692484	 0.146715
O	-0.2988939538	-1.1848553692	 1.867461593	-0.444574
C	 1.7096577192	-1.8207989512	 0.6472446822	-0.263805
C	 2.4320898063	-2.5115006199	 1.7963960391	 0.036881
O	 1.7744307262	-2.5732196607	 3.0864820843	-0.269803
C	 2.0206683681	-3.8014708643	 2.3820974811	 0.08374
C	 0.8111864185	-4.5751456804	 1.9260441379	-0.431306
H	-0.1290988129	 1.9992898394	 0.886474998	 0.108005
H	-1.1401291787	 1.7451939641	-0.5426248192	 0.105001
H	-1.5126936265	 0.9017085401	 0.9739817249	 0.13873
H	-0.3951678318	-0.6363162951	-0.6891957242	 0.097784
H	 1.0062971233	 0.4325329302	-0.7276660371	 0.087043
H	 1.3721462155	 0.0361573395	 1.7025457483	 0.062506
H	 0.1037620948	-1.6447219664	 2.6177802254	 0.292323
H	 1.1069615893	-2.5354482542	 0.0770194489	 0.110064
H	 2.4695876961	-1.4261797801	-0.036634505	 0.099693
H	 3.4845100956	-2.2462252782	 1.8995529879	 0.097407
H	 2.8055565977	-4.4023099214	 2.8445562931	 0.093536
H	 0.0337133102	-3.9021954868	 1.5580582745	 0.146525
H	 1.0818881308	-5.2793831691	 1.1316158664	 0.123415
H	 0.397001077	-5.153499901	 2.7582372687	 0.130152
46.8857	75.3856	104.6469	173.3004	197.2578	225.0796	264.27	284.1294	344.6893	374.15	442.2288	464.0992	542.2788	571.0844	629.1071	759.5585	780.0307	809.6413	868.3847	909.4428	931.4166	982.1783	1002.7522	1031.0268	1039.6076	1080.6437	1086.8919	1139.6759	1151.6036	1172.9811	1186.5177	1240.2534	1279.683	1297.989	1306.7717	1343.717	1362.6287	1385.6006	1390.8386	1406.0924	1420.2983	1454.522	1465.6585	1472.8749	1483.009	1494.6148	1499.5721	1508.9245	1510.5137	2941.9557	3021.8214	3035.3321	3038.3569	3040.7238	3060.327	3080.3987	3092.9654	3098.3813	3101.5259	3109.9341	3129.94	3138.0156	3727.3009
CCC(O)CC1OC1C	CC[C@@H](O)C[C@H]1O[C@H]1C	
InChI=1S/C7H14O2/c1-3-6(8)4-7-5(2)9-7/h5-8H,3-4H2,1-2H3	InChI=1S/C7H14O2/c1-3-6(8)4-7-5(2)9-7/h5-8H,3-4H2,1-2H3/t5-,6+,7+/m0/s1
