23
gdb 108870	2.80879	1.0716	0.84255	1.2316	89.43	-0.2337	0.0239	0.2576	1474.9411	0.206008	-388.308495	-388.29886	-388.297915	-388.343099	36.276	
C	-0.2358333739	 1.5680004121	 0.0169718164	-0.371752
C	 0.0287739504	 0.0511113963	 0.0145926531	-0.274111
C	 0.789591412	-0.4343469614	-1.1948207767	 0.267599
C	 2.0693037998	-0.8092672152	-1.15444715	-0.152783
C	 2.814104212	-1.3396765163	-2.3555392942	-0.030738
C	 3.7167677434	-2.5264413404	-1.9913203697	-0.399516
C	 1.7964950331	-1.7260672934	-3.4343064291	-0.084719
O	 0.838844402	-0.7032359696	-3.6344992583	-0.248086
C	 0.02568929	-0.4961911055	-2.498573142	-0.157054
H	 0.7055447373	 2.1254946314	-0.0046309554	 0.122452
H	-0.8277513086	 1.8804701171	-0.8488647043	 0.119747
H	-0.785964462	 1.8628995967	 0.916061912	 0.113521
H	 0.5862899163	-0.217986193	 0.9183661235	 0.102284
H	-0.9338502718	-0.4763850064	 0.0762561376	 0.099296
H	 2.6171630313	-0.7571945447	-0.2140783702	 0.071916
H	 3.4521024509	-0.5401358779	-2.7614546243	 0.086532
H	 3.1306908665	-3.3540111618	-1.5764343318	 0.117423
H	 4.2549133252	-2.8991073954	-2.8696122058	 0.112963
H	 4.4608653339	-2.237038089	-1.2423123754	 0.115437
H	 2.2836515854	-1.8837378517	-4.4014223099	 0.102584
H	 1.2984610393	-2.6688514364	-3.1474049991	 0.081554
H	-0.7471448072	-1.2859478212	-2.4255869039	 0.091692
H	-0.5071383853	 0.4444246957	-2.6797055523	 0.113757
60.3372	107.5459	135.1902	199.4164	226.1632	256.1816	288.0687	297.8713	366.7803	456.856	462.9753	519.7447	545.9061	604.6835	780.768	858.7207	873.8706	878.4635	941.8434	946.0753	970.8691	1000.1702	1026.9522	1044.374	1094.2019	1099.0516	1125.5017	1146.5473	1172.0554	1201.2608	1254.5876	1279.268	1313.8946	1318.0107	1345.816	1352.3209	1359.3437	1398.1132	1408.0729	1410.8553	1423.746	1480.2062	1484.8658	1494.9169	1499.369	1500.2062	1500.9593	1506.9177	1735.5613	2917.4454	2953.1066	2989.2597	3007.3258	3028.1268	3037.7739	3053.0508	3062.1431	3078.3824	3097.2718	3100.2666	3107.1689	3112.8065	3127.4657
CCC1=CC(C)COC1	CCC1=C[C@@H](C)COC1	
InChI=1S/C8H14O/c1-3-8-4-7(2)5-9-6-8/h4,7H,3,5-6H2,1-2H3	InChI=1S/C8H14O/c1-3-8-4-7(2)5-9-6-8/h4,7H,3,5-6H2,1-2H3/t7-/m1/s1
