19
gdb 37683	3.15373	2.3709	1.94744	0.0433	82.02	-0.2449	0.0836	0.3285	801.1715	0.163009	-348.644394	-348.638929	-348.637985	-348.673662	25.495	
C	-0.0441204713	 1.5389995172	-0.19545131	-0.35669
C	 1.5166194635	 1.4638574261	 0.0662259184	-0.080037
C	 2.1837873804	 0.3247855054	-0.8368303786	-0.078958
C	 2.2140494583	-0.7319350697	 0.3632314138	-0.078958
C	 1.168737657	-1.7078750917	-0.3529963688	-0.080038
C	-0.2859605789	-1.4957641733	 0.2376657596	-0.35669
C	 0.0721654007	-0.0009777241	-0.0047701114	 0.271567
C	 1.2479945361	 0.260813858	 0.9930876501	 0.002461
C	 0.9375673464	-0.457219237	-1.2253279522	 0.002461
H	-0.5217851593	 2.075405364	 0.6303949714	 0.101657
H	-0.4320854174	 1.903572867	-1.1516226046	 0.094097
H	 2.0942769913	 2.3459093147	 0.3421031545	 0.06237
H	 3.011075655	 0.513978729	-1.5184413019	 0.059229
H	 3.1177070183	-1.0860232227	 0.8559965478	 0.059229
H	 1.4991066575	-2.676424419	-0.7279376823	 0.06237
H	-1.0205925282	-1.9166805408	-0.455920955	 0.101657
H	-0.5216674751	-1.8009296206	 1.2618778084	 0.094097
H	 0.9778089014	 0.3346364043	 2.0467420585	 0.060087
H	 0.4395192944	-0.4578554167	-2.1951659177	 0.060087
377.8098	390.3424	470.0305	478.0978	670.6467	725.397	729.7786	785.5377	786.3982	801.04	810.2702	839.8601	863.1283	882.2031	913.1082	924.6433	928.6258	946.7182	959.9641	986.8024	1020.6009	1025.2554	1070.1843	1078.8591	1120.8562	1129.8854	1154.3103	1161.7838	1167.032	1176.7079	1185.6787	1196.4068	1208.4045	1238.6208	1247.3861	1254.8464	1268.4999	1305.9819	1306.5936	1485.3658	1488.322	3041.8716	3043.5643	3100.6636	3101.196	3103.1935	3103.3979	3115.3349	3117.3415	3125.8977	3138.0665
C1C2C3C4C5CC1(C24)C35	C1[C@@H]2[C@H]3[C@@H]4[C@H]5C[C@@]1([C@H]24)[C@@H]35	
InChI=1S/C9H10/c1-3-5-6-4-2-9(1,7(3)6)8(4)5/h3-8H,1-2H2	InChI=1S/C9H10/c1-3-5-6-4-2-9(1,7(3)6)8(4)5/h3-8H,1-2H2/t3-,4-,5+,6+,7-,8-,9+/m1/s1
