18
gdb 35519	3.12225	1.4629	1.3613	5.2892	74.58	-0.2587	0.0341	0.2928	1004.9493	0.151281	-401.976995	-401.969929	-401.968985	-402.008577	28.077	
N	-0.112793694	-1.1659909554	-0.2242119818	-0.329644
C	-0.0569238747	-0.0166321941	-0.1153065449	 0.278253
C	-0.0129989298	 1.4340048387	 0.0158887743	-0.161019
C	-0.6203156929	 1.9757555654	 1.365925491	-0.239925
C	 0.5598171486	 2.7732827513	 1.9671529756	-0.041179
C	 1.6582567519	 1.7703990659	 2.3541698656	-0.075048
O	 2.1598550025	 1.2994516398	 1.0832397192	-0.26734
C	 1.4379914753	 2.0046490263	 0.0796321062	 0.104337
C	 1.2011118847	 3.385606784	 0.7032955281	-0.240729
H	-0.53964584	 1.8628543264	-0.843265589	 0.123303
H	-1.4781149226	 2.6215505543	 1.1632948665	 0.112733
H	-0.9558919997	 1.1663837504	 2.0174369012	 0.128567
H	 0.2804236711	 3.4602961878	 2.7661786985	 0.078439
H	 2.477223331	 2.2391535944	 2.9138935454	 0.104251
H	 1.2789592705	 0.9211932767	 2.933528595	 0.113109
H	 1.9908207544	 1.9423865374	-0.8572668066	 0.093672
H	 0.521074823	 4.0216766126	 0.130760908	 0.103989
H	 2.1357935305	 3.9185138782	 0.8915256878	 0.11423
96.2665	155.2932	248.4974	353.3111	393.2086	450.3018	491.5571	568.5214	618.5277	765.9407	803.5273	813.5142	850.6378	893.6558	934.6355	943.6582	953.6094	961.1961	977.2761	1010.7106	1041.206	1083.9208	1099.7014	1139.1362	1162.6626	1188.5523	1229.156	1242.4341	1270.9251	1300.7973	1305.9631	1322.5441	1341.0833	1348.6817	1389.3953	1488.5135	1500.234	1532.3337	2358.926	3020.5203	3053.7655	3065.8562	3068.4324	3071.8071	3117.0855	3120.8192	3125.5969	3130.6286
N#CC1CC2COC1C2	N#C[C@H]1C[C@H]2CO[C@@H]1C2	
InChI=1S/C7H9NO/c8-3-6-1-5-2-7(6)9-4-5/h5-7H,1-2,4H2	InChI=1S/C7H9NO/c8-3-6-1-5-2-7(6)9-4-5/h5-7H,1-2,4H2/t5-,6-,7-/m1/s1
