21
gdb 91958	2.37956	1.68639	1.38038	1.4576	81.73	-0.2494	0.0749	0.3243	1052.4765	0.184121	-387.075919	-387.067927	-387.066983	-387.107847	32.912	
O	 0.1350250873	 1.4342082131	 0.0114677882	-0.430131
C	 0.0396477727	 0.0097126351	 0.0711515589	 0.001532
C	 0.607333972	-0.441137402	 1.4327147036	-0.219548
C	-0.5918444886	-0.5408585868	 2.3697972283	-0.038985
C	-1.5514071373	 0.622749224	 2.4140513356	-0.299163
C	-1.8463320727	-0.5620417981	 1.5204468244	-0.117488
C	-1.4103317409	-0.4852009627	 0.0804622062	 0.388919
C	-2.348142184	-0.1479456146	-1.0525846453	-0.335083
C	-1.8444211307	-1.5615156436	-0.8827042416	-0.322731
H	-0.473925662	 1.7344459968	-0.671720813	 0.278863
H	 0.6009398142	-0.4257733422	-0.7683766078	 0.06207
H	 1.0717394581	-1.4278718414	 1.3269188486	 0.097578
H	 1.3782060788	 0.2582254109	 1.769529029	 0.110281
H	-0.501662527	-1.1697932863	 3.2485764333	 0.077539
H	-2.1618125266	 0.7208725338	 3.3058729365	 0.100793
H	-1.25012805	 1.5574415263	 1.957296405	 0.128468
H	-2.6882670195	-1.2016922401	 1.7641914636	 0.074654
H	-3.3833809524	 0.0652646395	-0.8087235076	 0.117554
H	-1.9713434634	 0.4209285311	-1.8988925397	 0.101807
H	-1.1195103342	-1.9313204774	-1.6008738987	 0.11097
H	-2.5395532839	-2.3142095554	-0.5250582175	 0.112104
125.1463	212.1067	220.0266	280.7225	306.0753	327.971	397.2773	422.7529	494.5808	564.3357	685.4236	760.4074	784.5877	806.0743	826.725	874.286	899.121	916.5131	936.0285	951.4748	987.9066	991.5307	1025.532	1035.5053	1052.0757	1079.3078	1081.7634	1087.5473	1108.0804	1121.3386	1187.2172	1198.3699	1207.5842	1228.8839	1278.7579	1297.6296	1328.0882	1341.9837	1370.6867	1404.1997	1421.7627	1465.121	1475.0778	1485.8891	1500.7009	2986.2344	3045.5761	3092.6476	3112.9059	3123.7594	3134.1538	3156.2591	3169.002	3195.7932	3211.964	3230.1759	3806.9933
OC1CC2CC2C11CC1	O[C@H]1C[C@H]2C[C@H]2C21CC2	
InChI=1S/C8H12O/c9-7-4-5-3-6(5)8(7)1-2-8/h5-7,9H,1-4H2	InChI=1S/C8H12O/c9-7-4-5-3-6(5)8(7)1-2-8/h5-7,9H,1-4H2/t5-,6-,7+/m1/s1
