21
gdb 83645	2.36092	1.70716	1.27286	1.7576	82.02	-0.2361	0.0718	0.3079	1087.7379	0.18273	-387.04157	-387.033209	-387.032265	-387.074715	32.638	
C	-0.6360551721	 1.3354349746	-0.0309193403	-0.416702
C	-0.0664873056	-0.0755991021	-0.0887840831	-0.0752
C	 1.1522224675	-0.3849203773	-1.0149044674	-0.095151
C	 2.3131870845	 0.6291911043	-1.0187488684	-0.083692
O	 2.955358277	-0.0051054643	 0.1123841947	-0.28663
C	 1.9160921836	-1.0023954875	 0.1921165787	 0.013079
C	 0.7552179242	-0.6145396317	 1.1080240654	 0.366958
C	 0.9032749837	-0.0299391767	 2.4806373449	-0.312072
C	 0.2586368701	-1.3821793601	 2.2990522668	-0.335916
H	 0.1263020745	 2.0739979404	 0.2352165828	 0.123393
H	-1.0678344636	 1.6255340072	-0.9952785146	 0.11409
H	-1.4328214476	 1.4030210191	 0.7183644613	 0.115664
H	-0.8750825889	-0.775624018	-0.3311370844	 0.074269
H	 0.9523459916	-0.9076781658	-1.9493590563	 0.074634
H	 2.9497549481	 0.5814378933	-1.9111312573	 0.100128
H	 2.0619502312	 1.6783907209	-0.8227027227	 0.099879
H	 2.3184989572	-2.0178816469	 0.2538068883	 0.069429
H	 1.904073302	 0.0223586537	 2.8958883151	 0.123878
H	 0.2645389371	 0.8051717095	 2.7504088765	 0.110624
H	-0.8150321504	-1.461729389	 2.4425079429	 0.107766
H	 0.8141945959	-2.2641933534	 2.6032728872	 0.111572
46.5896	191.854	196.5989	209.888	238.4323	266.6275	389.9508	467.1442	525.338	541.1696	705.2398	769.2758	781.3734	837.7756	859.4654	878.7444	914.8038	945.3549	957.0881	978.3704	1002.4222	1012.3975	1021.9807	1049.6398	1070.5279	1093.0398	1114.8091	1144.7219	1158.6604	1178.9502	1186.6769	1203.4681	1255.5386	1261.7574	1295.7947	1317.2332	1344.8208	1366.2959	1387.614	1408.3321	1465.7965	1490.6465	1495.2113	1502.9826	1525.3284	3013.9867	3025.022	3029.6122	3055.2102	3063.5076	3089.376	3104.8344	3115.9283	3116.8094	3128.0115	3195.8919	3215.1027
CC1C2COC2C11CC1	C[C@H]1[C@H]2CO[C@H]2C21CC2	
InChI=1S/C8H12O/c1-5-6-4-9-7(6)8(5)2-3-8/h5-7H,2-4H2,1H3	InChI=1S/C8H12O/c1-5-6-4-9-7(6)8(5)2-3-8/h5-7H,2-4H2,1H3/t5-,6+,7+/m0/s1
