20
gdb 50571	3.33332	1.31998	1.13201	4.1553	80.22	-0.2312	0.0353	0.2666	1129.3111	0.174398	-403.171659	-403.164103	-403.163159	-403.203945	29.931	
O	-0.0823587602	-0.0275173261	 0.1728735638	-0.351606
C	-0.0023439238	 1.1850164126	 0.1558478325	 0.139064
N	 1.144805612	 1.8903724599	-0.0173598374	-0.027456
C	 2.4225084889	 1.1898103641	-0.1844242599	-0.162449
C	 3.4435008996	 2.0559573054	-0.9626557816	-0.227847
C	 3.1385395494	 3.5571243565	-0.8142063074	-0.014212
C	 2.5180568499	 3.8425450176	 0.5867742714	-0.241195
C	 1.1818133475	 3.3445131646	-0.035828595	 0.008199
C	 1.7275670667	 3.8433794784	-1.4038031438	-0.221439
H	-0.8803585013	 1.8501170872	 0.2832741599	 0.067086
H	 2.8253037119	 0.9429300627	 0.8058372278	 0.117825
H	 2.2195263841	 0.2392922156	-0.6803023032	 0.140801
H	 4.4469160555	 1.8277982734	-0.588562953	 0.104857
H	 3.4355427452	 1.7958762971	-2.0271974626	 0.109287
H	 3.9742614142	 4.1742740867	-1.150521745	 0.068172
H	 2.9095793159	 3.31635085	 1.4606823065	 0.104077
H	 2.4724068762	 4.9132666133	 0.7977210047	 0.107592
H	 0.2329688856	 3.7342482682	 0.3376703528	 0.078694
H	 1.5483419346	 4.9129400749	-1.5419560434	 0.101604
H	 1.4167466479	 3.2944066379	-2.2966338271	 0.098948
59.8442	173.7716	245.4128	306.4953	349.5498	405.4853	420.6233	451.0699	559.6307	657.4209	795.4237	802.7892	814.7952	836.6871	886.016	922.1791	943.9646	958.8744	992.2156	1029.0592	1058.3102	1066.1473	1105.6667	1110.9129	1111.4674	1143.3457	1224.1075	1229.2142	1245.2076	1264.3318	1273.5097	1298.9956	1320.2089	1334.5256	1366.6769	1393.5083	1434.1386	1451.6421	1475.2198	1496.1093	1504.4287	1526.8634	1786.1385	2925.7867	3022.6623	3037.7803	3054.3771	3065.9418	3077.6356	3086.3649	3093.5403	3114.9459	3117.1908	3123.4823
O=CN1CCC2CC1C2	O=CN1CC[C@@H]2C[C@H]1C2	
InChI=1S/C7H11NO/c9-5-8-2-1-6-3-7(8)4-6/h5-7H,1-4H2	InChI=1S/C7H11NO/c9-5-8-2-1-6-3-7(8)4-6/h5-7H,1-4H2/t6-,7+
