17
gdb 26702	2.29914	1.61281	0.96089	1.1152	73.81	-0.1748	0.0423	0.2172	1185.1544	0.13769	-451.336102	-451.326692	-451.325748	-451.369499	35.492	
N	-0.0071048829	 1.367660732	 0.0257650733	-0.601716
C	-0.0818566337	-0.0285902663	 0.0212890362	 0.195823
C	-1.179039783	-0.835304049	 0.0158303055	 0.168106
N	-2.5337980311	-0.46942177	-0.0321404256	-0.626348
C	-0.6930047405	-2.1879685652	-0.020781984	 0.168108
N	-1.5046791394	-3.3324431326	 0.0330460426	-0.626349
C	 0.6666527191	-2.111719016	-0.0328639128	 0.195822
N	 1.6130764686	-3.1409675959	-0.0400611716	-0.601716
O	 1.0672983098	-0.7916604522	-0.0079298482	-0.209302
H	 0.5683869632	 1.7195128424	 0.7851232493	 0.239962
H	 0.3665082197	 1.745213999	-0.8409561858	 0.240294
H	-2.6367879288	 0.5272841735	 0.1239977346	 0.245469
H	-3.0794537762	-0.9739726723	 0.6589933991	 0.243061
H	-2.2500100011	-3.2918309196	-0.6545657208	 0.243062
H	-0.9504052826	-4.1669590567	-0.1243436982	 0.245469
H	 2.1457066734	-3.1927959525	 0.8242060605	 0.240294
H	 2.2772317557	-3.0473328686	-0.8027833941	 0.239962
134.7623	166.461	210.8673	214.3513	235.9359	252.3339	291.7061	294.3124	344.0703	381.2258	385.8103	549.2736	607.2372	619.6789	625.4215	698.3065	748.5523	801.2646	809.2438	825.4758	862.1531	913.9904	1048.956	1127.8728	1188.8671	1217.386	1223.9446	1265.117	1293.4632	1353.574	1507.5936	1627.5365	1637.4891	1647.0168	1652.0526	1702.1121	1754.4088	3476.1056	3476.233	3499.8041	3500.7091	3538.7643	3538.9075	3593.7567	3594.9105
NC1=C(N)C(N)=C(N)O1	Nc1c(N)c(N)c(N)o1	
InChI=1S/C4H8N4O/c5-1-2(6)4(8)9-3(1)7/h5-8H2	InChI=1S/C4H8N4O/c5-1-2(6)4(8)9-3(1)7/h5-8H2
