14
gdb 110173	2.53405	1.25273	0.91465	3.5766	63.81	-0.2784	-0.0281	0.2503	1222.6954	0.099317	-473.831638	-473.823029	-473.822085	-473.865865	29.358	
C	-0.061071643	 1.3787988848	-0.0693077887	-0.255868
O	 0.3747851632	 0.0259582362	 0.036179235	-0.237916
C	 0.7274151882	-0.5329845974	-1.1803683778	-0.069471
C	 1.1477297046	-2.0216542662	-1.0799817862	-0.036343
O	 0.0840906489	-2.3969879956	-2.0103583796	-0.240464
C	-0.4085317962	-1.1068449449	-2.0624112597	 0.444077
O	-1.3904233204	-0.7247582034	-2.6030824002	-0.302312
C	 2.4700747234	-2.3874038267	-1.5673889452	 0.289238
N	 3.5300572038	-2.6577922602	-1.9378002391	-0.303035
H	 0.7303067971	 2.01340309	-0.4923397645	 0.123859
H	-0.9596311761	 1.4607948429	-0.6913135245	 0.149015
H	-0.2868561096	 1.7107092611	 0.9448617283	 0.146784
H	 1.4294533255	 0.0901774388	-1.752704826	 0.130135
H	 0.9609988805	-2.4403485296	-0.0888715618	 0.162299
65.4782	92.7437	149.8766	157.9496	196.7162	252.7627	316.3149	388.9333	460.1844	511.654	587.1735	710.0045	747.2104	886.0462	933.7832	1013.6407	1024.1693	1053.12	1107.97	1170.1661	1181.2439	1210.998	1237.136	1256.4853	1348.7214	1388.6954	1480.207	1488.4226	1508.7506	1953.6743	2368.4948	3004.6478	3014.2767	3077.5857	3105.0977	3144.5805
COC1C(OC1=O)C#N	CO[C@H]1[C@@H](OC1=O)C#N	
InChI=1S/C5H5NO3/c1-8-4-3(2-6)9-5(4)7/h3-4H,1H3	InChI=1S/C5H5NO3/c1-8-4-3(2-6)9-5(4)7/h3-4H,1H3/t3-,4-/m0/s1
