17
gdb 79074	2.41159	1.95611	1.4733	1.1917	71.17	-0.2385	-0.0089	0.2296	942.2576	0.136657	-417.961708	-417.954241	-417.953297	-417.993225	29.51	
C	-0.1086004545	 1.5669784101	-0.0345543782	-0.525117
C	 0.0334768462	 0.0814014449	 0.0208962457	 0.355754
C	 0.4913376972	-0.9417629611	-0.955648893	-0.09686
C	 1.3297451073	-1.6524105858	 0.1066670348	 0.121075
O	 2.656605045	-1.2013391899	-0.0452430904	-0.436959
C	 0.5097089482	-0.8538725692	 1.1885238441	-0.138694
N	-0.6385195511	-1.7000620767	 1.5410449637	-0.190273
C	-1.3545342552	-1.7002528641	 0.4898376769	 0.028753
N	-0.9644673534	-0.8268620835	-0.5835954257	-0.201423
H	 0.8565886548	 2.0512887621	 0.1450470395	 0.132667
H	-0.4737258517	 1.8762010954	-1.0177863536	 0.138099
H	-0.8163217523	 1.9237716401	 0.7216784438	 0.131007
H	 0.7263447779	-0.8750894426	-2.0111381445	 0.10982
H	 1.2680151139	-2.7456825943	 0.1878557626	 0.0762
H	 3.1651245809	-1.5266086894	 0.7049906312	 0.289269
H	 1.0573558352	-0.4632435972	 2.0446020513	 0.077326
H	-2.2527999084	-2.2960911388	 0.3650260618	 0.129356
146.2688	193.425	246.1162	304.1945	306.7724	326.1382	431.8035	441.6465	597.4942	616.1646	724.7976	762.203	809.011	863.4809	897.1205	906.2676	953.4561	965.1677	983.6407	1002.7398	1044.6913	1086.0254	1098.8588	1123.0203	1154.1867	1172.6526	1211.9604	1227.2634	1264.7718	1302.4666	1313.4578	1398.774	1420.0536	1447.8069	1481.8598	1490.0193	1662.5619	3016.4074	3035.141	3100.6474	3119.1493	3133.874	3191.2739	3199.1037	3811.7135
CC12C3C(O)C1N=CN23	C[C@@]12[C@H]3[C@@H](O)[C@@H]1[N][CH]N23	
InChI=1S/C6H8N2O/c1-6-4-3(9)5(6)8(6)2-7-4/h2-5,9H,1H3	InChI=1S/C6H8N2O/c1-6-4-3(9)5(6)8(6)2-7-4/h2-5,9H,1H3/t3-,4-,5+,6-,8?/m0/s1
