24
gdb 22548	1.92	1.09186	0.81492	0.5735	89.03	-0.2386	0.0176	0.2562	1559.1457	0.214119	-405.525464	-405.513794	-405.51285	-405.562832	41.791	
C	 1.7188444758	 0.0012783335	-1.070805399	-0.387665
C	 0.5410798844	-0.0550171079	-0.0927697104	-0.173761
C	 0.8928009891	-0.6608964408	 1.276632226	-0.041201
C	-0.2216847612	-0.423242953	 2.3296145605	-0.182738
C	-0.3665696106	 1.0314402936	 2.7881965465	-0.39111
C	 1.208632933	-2.1461924937	 1.2291323321	 0.350003
C	 1.9960600033	-2.7634675817	 2.3567866467	-0.468061
N	 0.7629598242	-2.8210427611	 0.2401911625	-0.172881
O	 1.0920336343	-4.1849891923	 0.3503763047	-0.404146
H	 2.0933886268	-1.000270309	-1.2961376231	 0.127662
H	 1.4196321402	 0.4680216803	-2.0146833183	 0.10728
H	 2.5476423135	 0.5899084227	-0.6602825969	 0.104751
H	 0.1629653911	 0.961019713	 0.0641202757	 0.085513
H	-0.2772889946	-0.6327482128	-0.534186968	 0.112579
H	 1.8010635366	-0.162322544	 1.650065455	 0.071493
H	-1.1702867177	-0.7857061955	 1.9140609392	 0.105769
H	-0.0204791919	-1.0461345395	 3.2095100467	 0.097079
H	 0.5709543413	 1.4053813343	 3.2151719865	 0.113114
H	-0.6470111944	 1.6987512062	 1.9680287859	 0.1227
H	-1.1393653267	 1.1183771322	 3.558477856	 0.113576
H	 1.436912778	-3.5838455421	 2.817013757	 0.146306
H	 2.9234230077	-3.2008955999	 1.9717958788	 0.144595
H	 2.2452500714	-2.0257049397	 3.1218266464	 0.115929
H	 0.7050118265	-4.549274093	-0.4523064304	 0.303214
48.3077	75.377	92.2071	112.4261	149.8832	188.6425	209.2225	259.1242	268.8105	302.5286	319.0901	361.8587	409.0251	459.2935	466.0508	566.3389	646.4372	748.7658	771.4317	838.3436	882.4705	929.1569	976.5194	1019.0337	1025.1077	1039.0655	1039.9736	1054.0246	1118.4746	1129.5292	1166.9764	1227.5752	1273.895	1291.6697	1330.5439	1352.7642	1372.8688	1390.773	1398.3692	1400.3787	1408.1048	1413.9996	1472.4706	1478.6181	1481.4366	1490.5552	1497.6701	1500.3692	1507.9081	1511.1671	1726.5472	2981.8191	3026.1304	3032.5399	3033.221	3042.7083	3043.8776	3058.9364	3080.5495	3097.3257	3098.7977	3100.2061	3110.2827	3122.917	3133.4692	3823.4317
CCC(CC)C(C)=NO	CCC(CC)C(=NO)C	
InChI=1S/C7H15NO/c1-4-7(5-2)6(3)8-9/h7,9H,4-5H2,1-3H3	InChI=1S/C7H15NO/c1-4-7(5-2)6(3)8-9/h7,9H,4-5H2,1-3H3
