16
gdb 5921	3.79097	1.39037	1.30708	0.9684	65.8	-0.2696	0.0044	0.274	980.0083	0.128832	-379.963922	-379.955009	-379.954064	-379.997011	31.801	
C	 0.0522481565	 1.5717945057	-0.0084727214	-0.404246
C	 0.0299585035	 0.0272460254	 0.0366394843	 0.121627
C	 0.8286898838	-0.5054353549	 1.2476026844	-0.404244
N	-1.3572583612	-0.4789631918	 0.0570507933	-0.310457
C	-2.2542875181	-0.2166518035	 1.0454436025	 0.164999
O	-2.0444025185	 0.4577975058	 2.0320096988	-0.326367
C	 0.6358647982	-0.4956359129	-1.2026040309	 0.257112
N	 1.1085001131	-0.906099643	-2.1735829586	-0.327011
H	 1.0829846912	 1.9303191835	-0.0636435796	 0.134571
H	-0.4938558725	 1.9376272829	-0.8809689148	 0.132707
H	-0.4182815206	 1.9548972555	 0.8975641362	 0.166843
H	 0.3636738605	-0.1371067725	 2.162567622	 0.166863
H	 0.827647825	-1.5977843783	 1.2568441598	 0.132713
H	 1.8627020587	-0.1556750912	 1.1977342798	 0.134562
H	-1.6584292139	-1.0562363905	-0.7122048387	 0.26705
H	-3.2288371659	-0.7032965902	 0.8432513428	 0.093276
85.8017	149.1661	189.7485	208.3154	228.9225	244.6805	273.877	352.622	375.1037	397.8583	496.1581	573.2319	593.4719	670.7978	830.203	882.0454	941.0774	995.4233	1029.2097	1033.8442	1172.3182	1180.7138	1225.4352	1257.5121	1390.8078	1411.7361	1431.2464	1475.6649	1483.8231	1493.4594	1511.1363	1525.6624	1797.2069	2360.3101	2941.6318	3056.5879	3059.9958	3133.0301	3136.4001	3158.3725	3161.304	3634.762
CC(C)(NC=O)C#N	CC(C)(NC=O)C#N	
InChI=1S/C5H8N2O/c1-5(2,3-6)7-4-8/h4H,1-2H3,(H,7,8)	InChI=1S/C5H8N2O/c1-5(2,3-6)7-4-8/h4H,1-2H3,(H,7,8)
