25
gdb 121997	4.67328	0.47576	0.44737	0.2053	86.63	-0.2617	0.0799	0.3417	2444.6519	0.22654	-426.621355	-426.609296	-426.608352	-426.659923	42.109	
C	 0.0565930956	 1.6663573155	-0.0572272341	-0.391888
C	 0.012955437	 0.131329781	 0.000101424	 0.01941
C	 0.7645033922	-0.4227643058	 1.2236299282	-0.165155
C	 2.2576766052	-0.1169504938	 1.2575516191	-0.087039
O	 2.8126216705	-0.8222193933	 2.3601906289	-0.421587
C	-1.4323633875	-0.4049699817	-0.0061987432	-0.183711
C	-2.2331997836	-0.0983099537	-1.2759824659	-0.180006
C	-3.6070320647	-0.7563718535	-1.274216376	-0.072747
O	-4.2705220916	-0.3916280822	-2.4759681124	-0.422392
H	 1.0830338188	 2.0410127294	-0.1078339989	 0.112777
H	-0.470276127	 2.0530546077	-0.9337202284	 0.118251
H	-0.4124116835	 2.1019199421	 0.8337604029	 0.111412
H	 0.5107701362	-0.2553804531	-0.9023363786	 0.069099
H	 0.3077958442	-0.0418301282	 2.1466592821	 0.098704
H	 0.6568076425	-1.5137995166	 1.2536961994	 0.101398
H	 2.7228479603	-0.4344559603	 0.3088273366	 0.081484
H	 2.4307357339	 0.9648267349	 1.3592388147	 0.086194
H	 3.7465300234	-0.6009206469	 2.4178707359	 0.28388
H	-1.3961929471	-1.4938517366	 0.1343755548	 0.090369
H	-1.9641406748	-0.0057725178	 0.8697070594	 0.091364
H	-2.3786521645	 0.9802293733	-1.3998983227	 0.108648
H	-1.6847342792	-0.4440548805	-2.1613682169	 0.102105
H	-3.4964283159	-1.8506878292	-1.1968497939	 0.082675
H	-4.1760721356	-0.4254590194	-0.3894695599	 0.082584
H	-5.1379522647	-0.8063611614	-2.4779396552	 0.284169
51.1141	62.2756	81.9702	95.8096	113.4175	143.7559	204.7745	236.6741	264.9986	266.5669	276.404	316.6216	365.0806	423.7846	505.5177	534.5636	757.6663	794.6114	840.2278	877.519	942.056	967.7961	1005.0344	1019.053	1037.8649	1060.0502	1065.2547	1078.4521	1122.4518	1168.8764	1186.6116	1212.6212	1231.3811	1243.3615	1254.1655	1295.8772	1307.9265	1317.54	1324.6858	1329.8212	1372.8718	1379.8488	1396.738	1416.1088	1462.0374	1462.8895	1479.8204	1493.0425	1499.6292	1501.0072	1510.1951	1528.5117	1529.0656	2956.5091	2957.0067	2981.4264	2986.1669	2997.6112	3001.8554	3023.4466	3030.9911	3032.1035	3036.8159	3067.6568	3083.0692	3097.8121	3112.3807	3828.9444	3829.653
CC(CCO)CCCO	C[C@@H](CCO)CCCO	
InChI=1S/C7H16O2/c1-7(4-6-9)3-2-5-8/h7-9H,2-6H2,1H3	InChI=1S/C7H16O2/c1-7(4-6-9)3-2-5-8/h7-9H,2-6H2,1H3/t7-/m1/s1
