12
gdb 133358	3.25322	1.46055	1.008	4.5027	61.22	-0.2478	-0.0647	0.1831	1037.608	0.078219	-510.132534	-510.124984	-510.12404	-510.164808	27.663	
N	-0.0050292362	 1.35993949	 0.0082385234	-0.554903
C	-0.0482071292	 0.0131253577	 0.0008802295	 0.317169
N	-1.1863685971	-0.6241606947	 0.0043168312	-0.403161
C	-1.1867664693	-2.0079895665	-0.0036448945	 0.449739
O	-2.1724485501	-2.7088785925	-0.0011625872	-0.379711
N	 0.0911921949	-2.6139304214	-0.014828132	-0.285934
N	 1.2713544094	-1.9840132817	-0.0185687769	-0.208813
C	 1.207972249	-0.710302071	-0.0110222957	 0.288666
F	 2.3415894896	-0.0077347461	-0.01404367	-0.069181
H	 0.8728605029	 1.8470590056	 0.0056231141	 0.280693
H	-0.8710627318	 1.8723207947	 0.0165754171	 0.28241
H	 0.1300871979	-3.6227501241	-0.0206741989	 0.283025
93.4354	142.9626	205.3762	298.2839	372.482	392.3469	395.1163	503.0608	536.7507	569.9668	613.7104	637.1168	741.4087	759.0074	787.5699	802.7368	936.5262	1099.2022	1215.1077	1239.102	1326.2216	1427.81	1503.6223	1587.6494	1632.9043	1697.1744	1822.6129	3616.6764	3621.4455	3756.7071
NC1=NC(=O)NN=C1F	Nc1nc(=O)[nH]nc1F	
InChI=1S/C3H3FN4O/c4-1-2(5)6-3(9)8-7-1/h(H3,5,6,8,9)	InChI=1S/C3H3FN4O/c4-1-2(5)6-3(9)8-7-1/h(H3,5,6,8,9)
