20
gdb 62971	2.19625	1.59803	1.27022	4.2518	82.56	-0.2777	0.0286	0.3064	1103.2946	0.170523	-366.009042	-366.000203	-365.999259	-366.042017	34.282	
C	-0.1308187899	 1.5796626174	-0.0963909233	-0.448192
C	 0.0048349656	 0.0606834616	-0.0535991833	 0.302339
C	-1.3420076035	-0.5982973222	 0.2472308553	-0.443754
C	 0.7065980101	-0.6237730745	-1.2451692865	-0.064766
C	 2.149133126	-0.2252163235	-1.3654262889	-0.309554
C	 1.7619736679	-1.2391836926	-0.3295392653	-0.047343
C	 1.1348243459	-0.5509673349	 0.8956771198	-0.223155
C	 1.9807058884	 0.3676911693	 1.6450620356	 0.290777
N	 2.6462076639	 1.1168169898	 2.2230551127	-0.347694
H	 0.8197082855	 2.0781313146	-0.2997742952	 0.131143
H	-0.8392319707	 1.8707068514	-0.8797283651	 0.115844
H	-0.5069445509	 1.9659352711	 0.8569147629	 0.126103
H	-2.075810861	-0.3365999984	-0.5231534473	 0.119939
H	-1.2573114758	-1.6898985384	 0.2697687823	 0.117674
H	-1.7364092599	-0.264455159	 1.212959648	 0.121898
H	 0.1732165483	-1.0936220482	-2.0635418752	 0.08972
H	 2.6666427505	-0.6322084248	-2.2279496333	 0.120853
H	 2.4941284619	 0.761344248	-1.069894313	 0.129742
H	 2.1662537944	-2.2429832802	-0.3141735536	 0.100421
H	 0.6939239933	-1.2665087867	 1.5937995232	 0.118004
106.5062	139.6227	199.3078	228.1963	247.0918	277.8543	345.1967	362.7561	392.5454	476.0815	542.8514	558.3977	631.6047	757.2975	798.707	808.9501	888.3998	941.9277	952.7279	966.721	993.2412	1007.6863	1016.6777	1024.369	1064.575	1078.4223	1092.3426	1158.4234	1180.2076	1206.5056	1225.5433	1267.1325	1297.8619	1341.6286	1360.5846	1403.9577	1424.5755	1480.2473	1482.7192	1496.5064	1504.2727	1507.1302	2347.0076	3025.6756	3036.2847	3082.2556	3094.8809	3098.7545	3101.3254	3120.7927	3125.9636	3176.0493	3194.1105	3210.6272
CC1(C)C2CC2C1C#N	CC1(C)[C@H]2C[C@H]2[C@H]1C#N	
InChI=1S/C8H11N/c1-8(2)6-3-5(6)7(8)4-9/h5-7H,3H2,1-2H3	InChI=1S/C8H11N/c1-8(2)6-3-5(6)7(8)4-9/h5-7H,3H2,1-2H3/t5-,6+,7-/m1/s1
