13
gdb 21808	6.81104	1.19992	1.10901	2.6527	60.46	-0.2683	-0.052	0.2163	1009.861	0.095748	-394.778922	-394.771908	-394.770964	-394.811742	23.904	
O	-0.2540169989	 0.6364792625	 0.9911659441	-0.216588
C	 0.0104698862	 1.2215589505	-0.0222149717	 0.147107
C	 1.4239371033	 1.6902742934	-0.3684850665	-0.246204
N	 1.424229237	 2.8452301119	-1.2371050216	 0.069465
C	 1.1730045112	 4.1447834326	-0.9401392722	-0.102756
C	 1.2414166156	 4.7852782126	-2.1528503109	-0.058018
N	 1.5196904288	 3.8646169749	-3.1169181677	-0.182521
N	 1.6267907232	 2.6917343408	-2.5658418493	-0.142751
H	-0.7496780996	 1.452701857	-0.8000173188	 0.11112
H	 1.9806901044	 1.887014642	 0.5507822757	 0.156107
H	 1.9263404797	 0.8852002215	-0.9153937379	 0.178148
H	 0.985833402	 4.4847996153	 0.0646733929	 0.153838
H	 1.1148982668	 5.8302017449	-2.3843412662	 0.133054
40.5078	67.9517	128.3247	334.2349	360.4923	433.1155	653.8502	705.4572	719.2689	786.6292	803.5727	865.334	957.5836	1024.644	1038.969	1055.0097	1092.5887	1141.1273	1174.8341	1279.026	1311.6264	1335.5206	1346.3997	1408.3644	1441.6233	1496.3023	1524.3998	1846.1485	2906.6297	3063.9621	3123.7652	3270.528	3290.774
O=CCN1C=CN=N1	O=CCn1ccnn1	
InChI=1S/C4H5N3O/c8-4-3-7-2-1-5-6-7/h1-2,4H,3H2	InChI=1S/C4H5N3O/c8-4-3-7-2-1-5-6-7/h1-2,4H,3H2
