14
gdb 67368	3.05716	1.95745	1.37247	2.1124	62.23	-0.2544	-0.0035	0.2509	878.3333	0.101172	-473.756846	-473.750298	-473.749354	-473.787544	26.484	
O	 0.0684000183	 1.4064253666	-0.0250480279	-0.473281
C	 0.0181259983	 0.0441419605	-0.0128810152	 0.330892
C	 0.0487667662	-0.8400192325	 1.2973156984	-0.020112
O	-1.3746854798	-0.6138162247	 1.5517130642	-0.31508
C	-1.3134016869	-0.8003547856	 0.1013510162	-0.020096
C	-0.3090849242	-1.967381277	 0.2931435672	 0.043735
O	 0.6369502729	-2.0134310761	-0.785878018	-0.242566
C	 0.8717805176	-0.6845499851	-1.0092804323	 0.377186
N	 1.6265269922	-0.1317997313	-1.8504950843	-0.579018
H	 0.6927318501	 1.6466244007	-0.7277979918	 0.305571
H	 0.7407421831	-0.8259309514	 2.1381299178	 0.114058
H	-2.2354540687	-0.7392786023	-0.4749184249	 0.114058
H	-0.6237701216	-2.9524304359	 0.6188845772	 0.12579
H	 2.1245811523	-0.798709276	-2.4397952266	 0.238862
152.8673	263.2463	335.3284	363.4494	414.8925	428.6108	546.7005	635.449	644.348	703.1291	711.4649	815.2006	852.8885	887.6224	889.4365	909.8771	926.4558	1000.3188	1006.0124	1044.8829	1055.6168	1131.4438	1141.7738	1162.927	1195.936	1230.7706	1280.6846	1333.8079	1404.9682	1442.37	1810.5121	3136.7593	3140.5901	3204.5994	3497.8666	3706.7784
OC12C3OC1C3OC2=N	O[C@@]12[C@H]3O[C@@H]1[C@H]3O[C]2[NH]	
InChI=1S/C5H5NO3/c6-4-5(7)2-1(8-4)3(5)9-2/h1-3,6-7H	InChI=1S/C5H5NO3/c6-4-5(7)2-1(8-4)3(5)9-2/h1-3,6-7H/t1-,2-,3+,5-
