19
gdb 74700	3.11335	1.54792	1.37033	1.6909	80.36	-0.2244	0.0032	0.2275	1024.2178	0.161068	-385.900461	-385.893144	-385.892199	-385.931823	29.974	
C	 0.0034089505	 1.5232596809	 0.0495061922	-0.473141
C	 0.007760221	 0.023677232	-0.0368181529	 0.319475
C	-0.0147784159	-0.6464917891	-1.1932359119	-0.155461
C	-0.017520814	-2.1673712725	-1.1570360738	-0.021326
O	 0.7849480987	-2.591225184	-0.0512387741	-0.247844
C	-0.0429221487	-2.2668193168	 1.0670652845	 0.017648
C	 0.0401455924	-0.7340689736	 1.2814268312	-0.298217
C	-1.4283487366	-2.6808100464	 0.585954123	-0.084804
C	-1.4162358246	-2.6349531971	-0.7428890024	-0.079469
H	 0.8828785545	 1.8934734254	 0.5924071852	 0.122812
H	-0.0012941528	 1.982937587	-0.9427026386	 0.12007
H	-0.8756862989	 1.8868871555	 0.5979024729	 0.121007
H	-0.060511606	-0.1335880806	-2.1497023598	 0.080132
H	 0.3804513573	-2.6169931431	-2.0696033461	 0.080122
H	 0.3210478345	-2.8145838655	 1.9404023855	 0.078974
H	 0.9688168294	-0.4899017418	 1.81476981	 0.112243
H	-0.7806112735	-0.3920057591	 1.9283696385	 0.100414
H	-2.2681770132	-2.8790186326	 1.2389683909	 0.101354
H	-2.2407405643	-2.7822669386	-1.4277433644	 0.106013
133.9407	188.0507	261.0616	320.3749	376.6839	415.357	435.6326	495.4973	627.8624	666.1507	721.0166	772.8681	813.752	835.5382	844.3854	872.3486	924.1562	925.5522	942.0765	977.5531	989.3951	1014.8507	1039.5252	1069.8214	1088.1568	1117.3333	1181.2369	1200.9579	1263.0631	1286.4093	1299.9459	1313.6845	1337.2754	1361.6772	1380.6979	1412.1123	1459.139	1477.4638	1488.704	1658.4753	1718.3691	3004.5474	3013.1047	3036.5255	3057.797	3074.9714	3087.0043	3107.9093	3164.9764	3209.5549	3235.982
CC1=CC2OC(C1)C=C2	CC1=C[C@H]2O[C@@H](C1)C=C2	
InChI=1S/C8H10O/c1-6-4-7-2-3-8(5-6)9-7/h2-4,7-8H,5H2,1H3	InChI=1S/C8H10O/c1-6-4-7-2-3-8(5-6)9-7/h2-4,7-8H,5H2,1H3/t7-,8+/m0/s1
