19
gdb 93418	2.96548	1.28121	0.9465	3.5609	79.86	-0.2356	-0.0533	0.1823	1244.8438	0.159293	-423.051578	-423.04303	-423.042086	-423.085026	32.295	
C	-0.1052800912	 1.5303325068	 0.1576464428	-0.394351
C	 0.0353005321	 0.0218365425	-0.0173442925	 0.105425
C	 0.3561943897	-0.3603429678	-1.4628519715	-0.246314
C	 0.5917409023	-1.8145553473	-1.7362060404	-0.045606
C	 0.7689253209	-2.84722187	-0.9000843971	-0.138526
C	 0.7948737567	-2.9071744477	 0.5789491949	 0.320167
O	 0.7787078182	-3.9882723931	 1.1371165332	-0.323243
C	 0.8588369402	-1.6558438117	 1.4623840049	-0.188802
O	 1.0828349837	-0.4191879163	 0.8385664741	-0.248819
H	 0.8399465486	 2.0275481578	-0.0815563366	 0.128253
H	-0.884291869	 1.9308530829	-0.4983697326	 0.114749
H	-0.3638028306	 1.7699618724	 1.1920833113	 0.124546
H	-0.9064145087	-0.4667293396	 0.279657836	 0.075303
H	-0.4523566376	-0.0114716019	-2.120217107	 0.113251
H	 1.2502703484	 0.1958670614	-1.7835843312	 0.128822
H	 0.6171283871	-2.0544592545	-2.7989561188	 0.108285
H	 0.8929602238	-3.8389879579	-1.3282308148	 0.108085
H	-0.0683824409	-1.644694143	 2.0595960844	 0.118224
H	 1.684761256	-1.8119018029	 2.1628352509	 0.140553
55.953	119.0911	212.8701	217.4407	316.1178	318.925	353.2767	355.9894	446.3457	497.7703	549.1639	630.2266	670.4111	750.984	819.3373	851.1193	897.3704	918.4527	989.3977	1014.9582	1038.2588	1070.1274	1123.3318	1148.3307	1162.0427	1216.3424	1249.9474	1292.4963	1297.8892	1338.8739	1370.2761	1400.6	1403.7888	1411.2548	1423.5527	1447.2887	1456.2214	1485.5384	1497.0517	1696.0585	1753.8956	2970.9585	2979.227	3001.9195	3034.7527	3042.0792	3090.2707	3114.5478	3124.1831	3128.8436	3166.1819
CC1CC=CC(=O)CO1	C[C@H]1CC=CC(=O)CO1	
InChI=1S/C7H10O2/c1-6-3-2-4-7(8)5-9-6/h2,4,6H,3,5H2,1H3	InChI=1S/C7H10O2/c1-6-3-2-4-7(8)5-9-6/h2,4,6H,3,5H2,1H3/t6-/m0/s1
