20
gdb 14241	5.26288	1.44881	1.26281	1.3854	77.47	-0.2004	0.0877	0.2882	1036.4535	0.17692	-345.121438	-345.113373	-345.112428	-345.153554	30.481	
C	-0.0456884165	 1.5677261766	 0.1255391074	-0.321704
N	 0.0215880174	 0.1255034339	 0.1298265021	-0.06643
C	-1.2242985866	-0.630474464	 0.4087910501	-0.172228
C	-0.430788525	-1.5625633215	 1.3471528436	-0.008002
C	 0.7372292179	-0.544427503	 1.239395851	-0.008002
C	 1.6205478029	-1.7263927104	 0.7903087081	-0.172228
N	 0.4025671207	-2.5600145521	 0.6381368717	-0.066431
C	 0.43739706	-3.9119634948	 1.1436786385	-0.321704
H	 0.9575832007	 1.9881185459	-0.0039052224	 0.118171
H	-0.6579571915	 1.9060287311	-0.71752604	 0.120533
H	-0.4795590941	 1.9972965763	 1.0503763278	 0.083943
H	-1.9720754634	-0.036228689	 0.9598500505	 0.078568
H	-1.6919868517	-1.0856006401	-0.470569681	 0.102167
H	-0.8898581669	-1.8962113523	 2.2814300249	 0.064983
H	 1.0834143565	 0.1032955515	 2.0490566421	 0.064983
H	 2.2045117625	-1.5947764784	-0.1266484465	 0.102167
H	 2.2800932807	-2.07516032	 1.60229695	 0.078568
H	 0.7425789108	-3.9835422772	 2.206617265	 0.083943
H	-0.5510470663	-4.3736019799	 1.0441383652	 0.118171
H	 1.1424119819	-4.5082536226	 0.5542109717	 0.120533
91.3087	173.4272	205.1156	219.7238	284.8908	297.0833	340.3114	366.5635	434.4307	640.8577	727.3623	762.0923	855.471	856.8313	954.1467	970.9198	995.8839	1016.9111	1036.5425	1038.5644	1125.0179	1131.3606	1160.2148	1166.6994	1179.5179	1191.4988	1219.0202	1224.1673	1242.8746	1260.5265	1290.0824	1320.8686	1348.6434	1350.7129	1451.6917	1451.9124	1482.3766	1482.8144	1498.346	1499.9901	1502.7168	1503.2311	2907.2145	2907.9326	2962.9591	2965.2994	3050.2903	3050.545	3063.8446	3066.205	3067.1617	3077.453	3093.6896	3093.7998
CN1CC2C1CN2C	CN1C[C@@H]2[C@H]1CN2C	
InChI=1S/C6H12N2/c1-7-3-6-5(7)4-8(6)2/h5-6H,3-4H2,1-2H3	InChI=1S/C6H12N2/c1-7-3-6-5(7)4-8(6)2/h5-6H,3-4H2,1-2H3/t5-,6-/m1/s1
