21
gdb 73311	3.15744	1.52325	1.34129	1.5172	81.77	-0.221	0.0901	0.3111	1065.45	0.182797	-387.074914	-387.06679	-387.065846	-387.106766	33.034	
C	 0.0426817302	 1.4371999962	 0.0223175988	-0.478645
C	-0.0365180069	-0.0620001402	 0.0104704484	 0.471117
O	 0.9484415997	-0.6624850236	-0.8198961411	-0.310021
C	 0.3890289624	-1.8749246476	-1.3278246596	-0.116476
C	-0.73305519	-2.2338864301	-0.3494362498	 0.289428
C	-1.6571927998	-3.3508651146	-0.7847788753	-0.496757
C	-0.1260901539	-2.2993416523	 1.096756931	-0.278155
C	-0.4451269073	-0.8165839481	 1.2645722975	-0.130848
C	-1.3140313667	-0.8269132027	-0.0029201074	-0.208312
H	 1.0259012156	 1.7663230188	 0.3738120621	 0.129249
H	-0.1107926372	 1.8419076702	-0.9829350102	 0.123155
H	-0.7162803085	 1.8589899046	 0.687444804	 0.117912
H	-0.0049097607	-1.720207612	-2.3457880293	 0.082246
H	 1.1809040785	-2.6314505467	-1.3698669128	 0.100972
H	-1.1116911127	-4.2965016245	-0.8840461468	 0.118405
H	-2.460219618	-3.5056503227	-0.057327801	 0.119921
H	-2.1202172719	-3.1296379107	-1.753483146	 0.116779
H	-0.7386582492	-2.9222288422	 1.7547265232	 0.096992
H	 0.9224901485	-2.6061667446	 1.180838775	 0.095639
H	-0.6246892514	-0.3001466944	 2.2016363823	 0.077702
H	-2.3070945408	-0.4450563328	-0.2063081629	 0.079697
194.694	206.7151	221.6139	227.4879	254.329	319.4382	366.2797	397.2914	494.0509	569.6319	612.5066	654.0201	722.8797	828.7952	836.6315	855.9764	863.2361	927.8226	934.3219	963.73	993.3461	1000.3955	1035.3817	1042.2	1060.5501	1105.3439	1114.8014	1163.7385	1170.4177	1200.5588	1229.1322	1244.8415	1259.9419	1268.4551	1307.663	1389.5618	1407.2228	1416.1235	1434.3907	1479.0352	1486.1483	1494.4553	1496.8146	1505.1123	1515.5379	2968.0286	3024.022	3034.6323	3037.6327	3059.6236	3086.7862	3091.4968	3098.9875	3103.0781	3116.0337	3161.8547	3183.5935
CC12OCC3(C)CC1C23	C[C@@]12OC[C@@]3(C)C[C@@H]1[C@@H]23	
InChI=1S/C8H12O/c1-7-3-5-6(7)8(5,2)9-4-7/h5-6H,3-4H2,1-2H3	InChI=1S/C8H12O/c1-7-3-5-6(7)8(5,2)9-4-7/h5-6H,3-4H2,1-2H3/t5-,6-,7-,8-/m1/s1
