19
gdb 99333	5.26151	0.63016	0.59539	5.892	77.12	-0.2436	-0.0287	0.2149	1858.4921	0.157209	-419.229464	-419.218979	-419.218035	-419.266881	35.647	
C	 0.4926215802	 1.3789870246	-0.1651198741	-0.375804
C	 0.0711315916	-0.059924691	 0.1246371957	-0.281266
C	 0.6547758584	-0.6207744644	 1.4103798213	 0.368916
O	 1.4724839618	-0.0243171092	 2.075136396	-0.301227
C	 0.1406240136	-1.997255425	 1.8618745787	-0.271216
N	 0.826089666	-2.5717610575	 3.0044817096	-0.276644
C	 2.1806740267	-3.029706722	 2.6900725465	-0.271466
C	 2.8033479325	-3.65043075	 3.8629251	 0.262321
N	 3.3083698279	-4.1250033348	 4.7867380099	-0.29895
H	 1.5806506881	 1.4610670128	-0.2198552314	 0.136824
H	 0.0689106471	 1.7218724409	-1.1127218328	 0.115854
H	 0.1553752857	 2.0521183204	 0.6273807107	 0.132708
H	-1.022096489	-0.1579935938	 0.1722868155	 0.123979
H	 0.3775892263	-0.7321656684	-0.6901390727	 0.127734
H	-0.9252288108	-1.8819886196	 2.1048396388	 0.136956
H	 0.1743433907	-2.6982140684	 1.0177241574	 0.125948
H	 0.8905577245	-1.8649910683	 3.7316820052	 0.241668
H	 2.1179142325	-3.7874874747	 1.8990155726	 0.150459
H	 2.8512554263	-2.2345674315	 2.3291643132	 0.153205
44.3739	46.2064	52.1499	103.5171	171.9147	191.0247	199.3478	280.772	328.519	392.5731	431.8534	461.8834	562.6151	648.4145	732.772	759.0979	836.7584	892.918	961.3703	981.074	997.1821	1024.5164	1058.3172	1126.6518	1136.2403	1171.1519	1231.2517	1276.8375	1309.5453	1349.5943	1374.7551	1387.4791	1414.6395	1443.6931	1454.4751	1488.9663	1492.9091	1498.4119	1516.9643	1804.1155	2369.2709	2993.4969	3010.5904	3018.5962	3041.2995	3050.9981	3053.9304	3057.5763	3125.0158	3131.3221	3517.9406
CCC(=O)CNCC#N	CCC(=O)CNCC#N	
InChI=1S/C6H10N2O/c1-2-6(9)5-8-4-3-7/h8H,2,4-5H2,1H3	InChI=1S/C6H10N2O/c1-2-6(9)5-8-4-3-7/h8H,2,4-5H2,1H3
