18
gdb 29526	3.03339	1.52468	1.03838	1.669	79.03	-0.186	0.0355	0.2215	1134.8029	0.150794	-401.979213	-401.971457	-401.970513	-402.011332	30.242	
N	-0.0222570964	 1.4450103308	 0.0699183514	-0.606362
C	 0.0235820171	 0.0456602661	-0.0215291895	 0.030488
C	-1.0219803374	-0.8319795155	-0.1353189842	-0.103373
O	-0.5787191462	-2.1422376076	-0.097309918	-0.210335
C	 0.7585370796	-2.0582019972	 0.0237485136	 0.329341
C	 1.1950304875	-0.7788816768	 0.0781750734	 0.214495
C	 2.6800411306	-0.7266982681	 0.2925298522	-0.358564
C	 3.0916599162	-2.2246869905	 0.0603450097	-0.194982
C	 1.8031800234	-3.1070453609	 0.1880801835	-0.348593
H	 0.7551887088	 1.8885002843	-0.4025699995	 0.24366
H	-0.8881472551	 1.8350842713	-0.2797893848	 0.24131
H	-2.0849377379	-0.7007173554	-0.2481549726	 0.115525
H	 3.2153587537	-0.0609285905	-0.3944481132	 0.097585
H	 2.9329173723	-0.3926326737	 1.3075125246	 0.110257
H	 3.4907548471	-2.3292997458	-0.9525238002	 0.111093
H	 3.8767821969	-2.5456168016	 0.7490738348	 0.101692
H	 1.7384355574	-3.6003635624	 1.1674199266	 0.113955
H	 1.7701489922	-3.8989139565	-0.5678888178	 0.112808
120.2436	166.0013	208.9732	230.641	261.6429	361.2996	494.3943	571.5187	604.0569	613.7761	636.9524	675.615	723.3064	754.7345	783.5692	832.0675	895.3177	911.5357	985.6959	1035.9956	1061.1211	1091.265	1126.3124	1153.2725	1204.7749	1217.9287	1221.8469	1267.8554	1299.3273	1312.6773	1338.9749	1391.6575	1484.5815	1485.7744	1499.718	1512.1482	1591.8698	1651.9676	1679.8735	3011.9255	3014.3439	3042.5603	3055.1588	3066.8337	3107.7371	3276.6134	3532.9009	3622.5162
NC1=COC2=C1CCC2	Nc1coc2c1CCC2	
InChI=1S/C7H9NO/c8-6-4-9-7-3-1-2-5(6)7/h4H,1-3,8H2	InChI=1S/C7H9NO/c8-6-4-9-7-3-1-2-5(6)7/h4H,1-3,8H2
