15
gdb 73950	3.25953	1.26873	0.91852	2.7736	76.89	-0.2326	-0.0649	0.1677	1183.1306	0.112996	-453.99136	-453.982821	-453.981877	-454.025028	30.431	
N	 0.1166149722	 1.3621213751	 0.0070837169	-0.606484
C	-0.0297168603	 0.0287242214	 0.0004623214	 0.193397
C	-1.1038359769	-0.8114508714	 0.0023465473	 0.114689
C	-0.5886336104	-2.2262889547	-0.0085898616	-0.184878
O	 0.8510186949	-2.1040221334	-0.0166766928	-0.247866
C	 1.2013736475	-0.7989827321	-0.0116402952	 0.415481
N	 2.3677384458	-0.3056931281	-0.0161174264	-0.566015
C	-2.5092078321	-0.4988048054	 0.0126050035	 0.059001
O	-3.3947686812	-1.3352813325	 0.0133675755	-0.296058
H	 1.0606152341	 1.717714184	 0.0027015654	 0.285652
H	-0.6593661599	 1.9979863801	 0.0145297498	 0.27321
H	-0.8812252929	-2.8012669972	 0.8765550022	 0.140677
H	-0.8920104272	-2.7914926012	-0.8963952653	 0.140674
H	 3.0883709153	-1.0266578665	-0.0245346046	 0.235118
H	-2.7577321289	 0.5880061818	 0.020131734	 0.043403
65.088	115.4754	160.8696	195.305	206.8312	292.1754	330.0892	412.2399	479.5217	555.4376	576.7713	650.2308	710.819	780.5674	801.5818	861.3712	910.7675	993.0261	1005.3932	1046.4041	1096.5795	1184.7981	1190.069	1258.8708	1259.1562	1400.0542	1421.3898	1481.2805	1512.4892	1610.2732	1713.8104	1753.0891	1758.3536	2847.9392	3043.9441	3079.3083	3504.8242	3591.9779	3741.1206
NC1=C(COC1=N)C=O	NC1=C(OC[C]1C=O)[NH]	
InChI=1S/C5H6N2O2/c6-4-3(1-8)2-9-5(4)7/h1,7H,2,6H2	InChI=1S/C5H6N2O2/c6-4-3(1-8)2-9-5(4)7/h1,7H,2,6H2
