21
gdb 104693	2.6107	1.34525	1.10602	3.0944	78.55	-0.2392	0.0583	0.2975	1185.6143	0.182963	-424.182878	-424.173839	-424.172895	-424.216472	34.787	
O	 0.3010809452	 1.107768459	-0.5667443498	-0.431588
C	 0.0871283513	-0.0685450957	 0.193804645	-0.133902
C	-1.344930819	-0.5761830942	 0.0970881552	 0.316685
C	-2.3147916128	 0.2284102697	 0.9347704671	-0.1609
O	-2.2913520918	 1.5862707261	 0.4736556728	-0.425619
C	-1.94135279	-1.0775313845	-1.1956014642	-0.065114
C	-0.9099077386	-1.8412218456	-2.0347359525	-0.251195
C	-0.7072960078	-2.8361804915	-0.8445267372	-0.248363
C	-1.7241476037	-2.0361229449	-0.0188633993	-0.1233
H	-0.4400447979	 1.6920397431	-0.3589823536	 0.287897
H	 0.8006800918	-0.8074594143	-0.1787191339	 0.101989
H	 0.3316572234	 0.0932983771	 1.2587300125	 0.071167
H	-3.3305065503	-0.1860279767	 0.8516892362	 0.09055
H	-2.0181036835	 0.1841124309	 1.99347975	 0.094192
H	-2.704758998	 2.1439353181	 1.1390951685	 0.292334
H	-2.8673311169	-0.6581972142	-1.5717611197	 0.085733
H	-1.3503823816	-2.3295355133	-2.9062878574	 0.100574
H	-0.0430958541	-1.2599100547	-2.3594564848	 0.118837
H	-1.078413728	-3.8348932407	-1.0849130637	 0.103159
H	 0.3011560736	-2.9375094213	-0.4318326069	 0.099885
H	-2.4553711413	-2.4757338425	 0.6514572555	 0.076981
82.7968	106.4143	191.9626	218.5909	251.7061	266.5117	310.8788	358.8685	379.8362	499.2	526.9922	539.7551	699.3249	776.3357	796.3363	845.3175	891.3497	930.1017	947.196	959.0863	988.369	1020.693	1029.7754	1040.7902	1063.7973	1075.7421	1100.1303	1103.3923	1173.8604	1219.8531	1230.5868	1237.6361	1247.087	1262.4072	1283.6945	1297.6645	1326.8703	1377.1647	1422.847	1456.9513	1467.41	1485.8561	1500.4214	1510.3615	1520.3049	2942.0493	2978.8122	3015.1292	3052.4346	3065.594	3088.1738	3099.5827	3120.3598	3158.4358	3178.5129	3757.4351	3832.909
OCC1(CO)C2CCC12	OCC1(CO)[C@H]2CC[C@@H]12	
InChI=1S/C7H12O2/c8-3-7(4-9)5-1-2-6(5)7/h5-6,8-9H,1-4H2	InChI=1S/C7H12O2/c8-3-7(4-9)5-1-2-6(5)7/h5-6,8-9H,1-4H2/t5-,6+
