21
gdb 91999	2.47779	1.40567	1.10975	2.9622	81.8	-0.239	-0.0177	0.2213	1175.8653	0.183269	-387.100208	-387.091583	-387.090639	-387.133698	33.207	
C	 0.8679524684	 1.4395588403	-0.3105594115	-0.415673
C	 0.1769110933	 0.1138779168	 0.049697742	-0.020631
C	 0.1882838804	-0.9260426214	-1.1107023206	-0.232697
C	 1.2135433771	-1.9883172016	-0.7463918047	-0.028207
C	 2.599835	-1.5395803661	-0.3640348894	-0.295031
C	 1.5744840415	-1.8217526704	 0.7123913873	-0.056865
C	 0.7668804284	-0.6624337771	 1.2878108733	-0.081105
C	 1.5696310936	 0.202333546	 2.235340636	 0.153409
O	 1.2104884045	 0.5290864131	 3.3388081246	-0.260165
H	 1.9157893491	 1.3177955138	-0.5989662293	 0.12336
H	 0.3513384493	 1.9020505438	-1.157775239	 0.119087
H	 0.8317752201	 2.1501412368	 0.521691405	 0.128831
H	-0.858436287	 0.3692196952	 0.2933600589	 0.091591
H	-0.7957336651	-1.3994242047	-1.2013789986	 0.102319
H	 0.3977238481	-0.4442596479	-2.0726950637	 0.100068
H	 1.0999762433	-2.9774761314	-1.176103371	 0.085235
H	 3.3999617243	-2.2644349408	-0.4693422719	 0.115124
H	 2.9098335423	-0.5217677539	-0.5698806031	 0.114644
H	 1.7382218663	-2.6807024263	 1.3538482488	 0.092363
H	-0.0649383785	-1.0671465588	 1.8734583589	 0.091766
H	 2.5623534605	 0.5198863447	 1.8434826077	 0.072577
64.5412	92.3214	189.5064	236.9841	280.4816	314.3843	356.4434	395.6534	442.2155	455.7988	633.8751	706.7274	761.0269	792.3091	829.8187	878.2787	897.0714	915.2774	959.5557	999.6237	1022.3818	1035.8851	1059.2757	1079.1902	1087.0941	1098.5321	1111.7187	1144.9757	1153.6827	1205.6027	1240.701	1256.3907	1290.7947	1310.4339	1326.0842	1357.4642	1375.1322	1391.9773	1418.9587	1431.1534	1484.3536	1496.8433	1500.7404	1509.7662	1823.0752	2872.2978	3031.7151	3037.9016	3047.0315	3061.5111	3071.8349	3100.986	3113.0176	3139.2968	3163.3498	3172.8326	3220.0104
CC1CC2CC2C1C=O	C[C@H]1C[C@H]2C[C@H]2[C@H]1C=O	
InChI=1S/C8H12O/c1-5-2-6-3-7(6)8(5)4-9/h4-8H,2-3H2,1H3	InChI=1S/C8H12O/c1-5-2-6-3-7(6)8(5)4-9/h4-8H,2-3H2,1H3/t5-,6-,7+,8-/m0/s1
