19
gdb 105433	2.4114	1.43778	1.18813	0.8761	82.38	-0.2419	0.0256	0.2675	1140.2487	0.157293	-385.853133	-385.843976	-385.843032	-385.887102	34.424	
C	-0.1121191826	 1.3956928189	 0.0446233915	-0.25035
O	 0.040787108	-0.0083391196	-0.0017742482	-0.269817
C	 0.6937117481	-0.5495852494	-1.153665643	 0.210603
C	 2.2341900183	-0.2638659269	-1.112876795	-0.300747
C	 2.8134646617	-1.5141539349	-0.5036943029	-0.063308
C	 1.923622112	-2.5002285602	-0.4333543294	-0.062983
C	 0.5795093266	-2.0963678938	-0.9778250192	-0.29421
C	 0.0668886353	-0.0804599047	-2.3948594596	 0.307471
C	-0.4441188434	 0.3022045077	-3.4140265107	-0.489838
H	 0.8501174065	 1.9273794871	 0.0577929547	 0.103884
H	-0.7041064334	 1.7692305486	-0.8003315264	 0.120998
H	-0.6384325221	 1.6133655834	 0.9769530192	 0.1273
H	 2.6289073182	-0.0856467912	-2.1204734366	 0.118398
H	 2.4451245255	 0.6385139924	-0.5304094366	 0.114376
H	 3.8490244682	-1.5769769605	-0.1888140946	 0.093288
H	 2.1178165983	-3.49746911	-0.0551618913	 0.093829
H	-0.2551026479	-2.3105211548	-0.3035694279	 0.127258
H	 0.3641987206	-2.5892061568	-1.9329481602	 0.117671
H	-0.8956487178	 0.6349411646	-4.3159972838	 0.19618
67.2428	93.1277	162.9017	164.9652	211.3908	288.4361	372.003	380.88	439.4512	496.6002	543.4723	610.0482	622.4095	665.1346	686.9285	767.5416	791.5503	859.7567	935.8178	963.1539	971.7545	987.4522	1040.3747	1084.8067	1095.1933	1123.2662	1140.728	1176.6713	1185.3145	1222.4761	1251.3797	1293.8517	1337.4	1364.5968	1465.6112	1472.7587	1475.719	1488.1112	1511.5051	1695.2568	2226.9647	2995.7009	3036.5402	3040.8647	3055.6188	3080.2163	3087.6101	3118.13	3185.0617	3210.2749	3499.4088
COC1(CC=CC1)C#C	CO[C@]1(CC=CC1)C#C	
InChI=1S/C8H10O/c1-3-8(9-2)6-4-5-7-8/h1,4-5H,6-7H2,2H3	InChI=1S/C8H10O/c1-3-8(9-2)6-4-5-7-8/h1,4-5H,6-7H2,2H3
