20
gdb 101091	2.08952	1.25414	1.18695	4.0031	75.83	-0.2409	-0.0302	0.2107	1218.1521	0.167982	-440.252176	-440.242011	-440.241066	-440.287571	36.113	
C	 0.498616011	 0.6698169442	 0.2421023943	-0.243183
O	-0.3813460588	 0.0549181615	-0.6765091358	-0.236728
C	-1.5323488153	-0.5425266288	-0.1010926434	 0.01073
C	-2.5048358478	-0.8064020043	-1.2494293756	-0.402861
C	-1.1861195977	-1.814242931	 0.6691981732	 0.217325
C	-1.0329943952	-1.7724886483	 2.1595599372	-0.269375
N	-2.2126894356	-2.3934489974	 1.570992343	-0.332745
C	-0.3581878205	-2.8346446194	-0.0642022451	 0.120723
O	-0.0206821988	-3.8892455999	 0.4111562396	-0.256778
H	 1.2716496178	 1.1692725136	-0.346320392	 0.133556
H	-0.0217097618	 1.4217274518	 0.8554454755	 0.105329
H	 0.9792094857	-0.0531904438	 0.9145453867	 0.117905
H	-1.9981741546	 0.1637367055	 0.6104499016	 0.060595
H	-3.4310523571	-1.2547799658	-0.8794882413	 0.123566
H	-2.74427539	 0.1311744569	-1.7568654396	 0.12946
H	-2.0642010147	-1.486661209	-1.9838613424	 0.133823
H	-0.3393043209	-2.4723359362	 2.6154209424	 0.145674
H	-1.1267111458	-0.8049542837	 2.6469094935	 0.116296
H	-3.0020957734	-1.749905497	 1.6179047117	 0.235221
H	-0.0405484766	-2.5305235791	-1.0828370136	 0.091465
55.2594	103.6223	113.1578	172.8063	204.2411	209.9269	233.1939	264.5583	300.2295	321.4119	394.2711	470.9456	542.3398	633.0641	744.4642	805.5901	862.8039	917.1465	956.54	980.342	1011.5691	1049.5535	1064.7077	1118.992	1128.1091	1144.8277	1158.3309	1182.6967	1231.5387	1265.2788	1305.533	1317.8136	1360.6671	1402.7078	1410.1541	1437.0818	1478.3052	1483.2067	1489.6264	1491.9955	1499.1999	1510.5817	1822.6121	2919.9429	2931.7395	2983.9272	3043.0404	3049.5757	3107.9305	3119.6593	3123.0849	3130.0236	3206.5138	3469.3333
COC(C)C1(CN1)C=O	CO[C@@H](C)[C@]1(CN1)C=O	
InChI=1S/C6H11NO2/c1-5(9-2)6(4-8)3-7-6/h4-5,7H,3H2,1-2H3	InChI=1S/C6H11NO2/c1-5(9-2)6(4-8)3-7-6/h4-5,7H,3H2,1-2H3/t5-,6-/m0/s1
