13
gdb 20759	7.55944	1.26673	1.0923	4.8711	64.65	-0.2725	-0.0814	0.1911	1020.9359	0.094792	-398.609231	-398.602049	-398.601104	-398.641003	25.096	
C	-0.0097435386	 1.5101901823	-0.0119790309	-0.495777
C	-0.0018988972	 0.0164806173	 0.036863423	 0.394685
N	-0.0755694863	-0.685337117	-1.0752901017	-0.170737
O	-0.0465615261	-2.0169269889	-0.7097808539	-0.191309
C	 0.0448524338	-2.0977240673	 0.630197203	 0.349345
C	 0.0925371606	-3.4179224454	 1.2729877776	 0.07946
O	 0.0559521172	-4.4722981346	 0.6891212168	-0.248826
C	 0.0777698059	-0.8440875693	 1.1672639864	-0.390917
H	 0.9043032249	 1.9201834344	 0.4290815765	 0.144326
H	-0.0816053052	 1.8486448777	-1.0469784833	 0.158312
H	-0.857599811	 1.9148735576	 0.5496938338	 0.144315
H	 0.1677931419	-3.3539362834	 2.3793778707	 0.092072
H	 0.1479551	-0.5756482732	 2.2090332821	 0.135052
98.5646	122.2788	172.9023	234.5873	330.0732	337.6348	481.9378	658.1442	669.6839	677.6684	776.2181	838.9078	969.8507	983.5987	1020.1639	1027.8581	1050.3087	1068.1568	1147.802	1311.4336	1400.1069	1415.2516	1439.8116	1481.3543	1482.046	1510.2272	1624.0265	1805.2489	2907.0079	3046.1899	3103.9996	3144.7175	3271.0644
CC1=NOC(C=O)=C1	Cc1noc(C=O)c1	
InChI=1S/C5H5NO2/c1-4-2-5(3-7)8-6-4/h2-3H,1H3	InChI=1S/C5H5NO2/c1-4-2-5(3-7)8-6-4/h2-3H,1H3
