21
gdb 103152	1.90626	1.54403	1.15828	2.1646	78.82	-0.2437	-0.0262	0.2175	1205.091	0.179589	-424.2421	-424.231865	-424.230921	-424.276872	37.76	
C	-0.3262818371	 1.5708253385	-0.0171413886	-0.395627
C	-0.3109821492	 0.0449664295	-0.1444511245	-0.21519
C	 0.7160593134	-0.4548477554	-1.1707788588	 0.301921
O	 2.0075278044	-0.0172608819	-0.811752649	-0.487767
C	 0.5691090844	-1.9798917864	-1.5598063338	-0.020979
C	-0.0364372264	-2.9729725426	-0.5791449766	-0.423318
C	-0.254597152	-1.5687752637	-2.8259133621	-0.364669
C	 0.3330906812	-0.1715052868	-2.6321588821	 0.340952
O	 0.6699540537	 0.71390266	-3.370777636	-0.323505
H	 0.6608269795	 1.9377864341	 0.2738260608	 0.131814
H	-0.5979358751	 2.0480348017	-0.9643549301	 0.126926
H	-1.0478603126	 1.8892650522	 0.7407625225	 0.111486
H	-0.0590356745	-0.4092325724	 0.8215311679	 0.11093
H	-1.3093542479	-0.3210993034	-0.4110002498	 0.096055
H	 2.322817959	 0.5535671954	-1.5235755576	 0.293711
H	 1.5617209052	-2.3176103893	-1.8731486943	 0.092295
H	-1.0416969456	-2.6755614243	-0.2656952546	 0.117629
H	-0.1126878455	-3.9653740242	-1.0356449869	 0.12009
H	 0.5828944802	-3.0683811054	 0.3187701012	 0.129124
H	-0.0428075508	-2.056540497	-3.7791495074	 0.129588
H	-1.3344786644	-1.5932429585	-2.6436719902	 0.128533
80.581	112.6741	149.6583	194.4514	203.834	221.5081	231.1234	266.8526	298.566	322.6552	423.0372	460.5668	498.6413	581.7093	674.0133	699.3322	788.9696	815.9954	866.4739	894.3449	945.3087	1008.5183	1032.3645	1048.5167	1061.8077	1103.0733	1118.2706	1158.1703	1182.7516	1211.1991	1217.6509	1264.5686	1318.794	1358.1739	1364.6622	1384.2495	1409.5764	1413.8307	1448.5881	1477.3834	1496.0224	1498.0236	1499.381	1512.8684	1866.9314	3029.1046	3036.0318	3043.5707	3054.1261	3063.3969	3068.0074	3099.6328	3109.8821	3110.6134	3125.305	3128.7499	3776.3019
CCC1(O)C(C)CC1=O	CC[C@@]1(O)[C@@H](C)CC1=O	
InChI=1S/C7H12O2/c1-3-7(9)5(2)4-6(7)8/h5,9H,3-4H2,1-2H3	InChI=1S/C7H12O2/c1-3-7(9)5(2)4-6(7)8/h5,9H,3-4H2,1-2H3/t5-,7+/m0/s1
