17
gdb 82155	3.40048	1.18996	1.0394	4.5198	70.64	-0.2441	0.0276	0.2717	1167.6395	0.13623	-455.08294	-455.074714	-455.07377	-455.116359	30.529	
O	 0.1033223896	 1.4225525443	-0.106382426	-0.428881
C	 0.0808609385	 0.0309756179	-0.0822508034	 0.100718
C	-1.2931323481	-0.6431499963	 0.0502422167	-0.080454
N	-2.0580231824	-0.0774984506	-1.0817953193	-0.343511
C	-1.1791775193	-1.2494024328	-1.3116741388	-0.099428
C	 0.2278961548	-0.7113708931	-1.48684955	 0.098669
O	 0.40135956	 0.0890602571	-2.6358933315	-0.192358
C	 1.5880650255	 0.726180291	-2.7451777715	 0.138635
N	 1.8246308365	 1.4361585696	-3.7609034648	-0.445788
H	-0.6368948536	 1.6835990612	-0.6743118897	 0.303314
H	 0.8203382236	-0.3075698747	 0.6458497475	 0.092781
H	-1.7860360089	-1.0171640352	 0.938391366	 0.102795
H	-3.0158711043	-0.4171616322	-1.0216756823	 0.241851
H	-1.582191853	-2.1790841401	-1.6914336426	 0.106669
H	 0.9807887471	-1.5072015793	-1.4418985093	 0.08716
H	 2.2634994131	 0.5504829211	-1.8987519518	 0.090195
H	 2.754750891	 1.8431608425	-3.6870363993	 0.227632
73.6872	108.9411	118.5387	197.3027	251.4704	311.2163	458.4247	497.5935	544.7183	647.8227	684.868	728.1836	808.2552	824.494	843.8484	859.5726	908.1442	953.1845	1017.5812	1024.605	1039.4596	1049.3992	1088.8215	1110.4545	1136.1808	1166.4776	1173.6836	1246.5744	1260.1396	1289.0897	1323.1761	1331.459	1370.5898	1390.3361	1427.0094	1451.5226	1746.8621	3033.0977	3045.3718	3100.6341	3195.8292	3209.0714	3499.1225	3516.4112	3734.851
OC1C2NC2C1OC=N	O[C@H]1[C@H]2N[C@H]2[C@H]1O[CH][NH]	
InChI=1S/C5H8N2O2/c6-1-9-5-3-2(7-3)4(5)8/h1-8H	InChI=1S/C5H8N2O2/c6-1-9-5-3-2(7-3)4(5)8/h1-8H/t2-,3+,4-,5+/m0/s1
