16
gdb 31406	2.94086	1.32964	0.92601	5.6224	74.44	-0.2589	-0.0678	0.191	1220.8933	0.124109	-437.950447	-437.942282	-437.941338	-437.983972	29.691	
C	-0.0697432861	 1.5515082124	 0.1119115213	-0.374928
C	 0.0145890124	 0.0339124495	-0.025351641	-0.278843
C	 0.7210039047	-0.4645289877	-1.2620590496	 0.331534
N	 1.1955742803	 0.4065406264	-2.1078099493	-0.380111
C	 1.8466735839	-0.0030982213	-3.2485344912	 0.445555
O	 2.3199907527	 0.6971030586	-4.0902758075	-0.327602
O	 1.9789912235	-1.4176004825	-3.4628429211	-0.207197
C	 1.4833870339	-2.2780050026	-2.5800424845	 0.109556
C	 0.8447744301	-1.8812966242	-1.4616907677	-0.230239
H	 0.9260691154	 1.9998346631	 0.1374105723	 0.138688
H	-0.6012017371	 1.9937081916	-0.7337966527	 0.138891
H	-0.596158863	 1.8165288028	 1.0330773012	 0.110185
H	 0.5235917263	-0.4094560588	 0.8424543623	 0.128156
H	-0.9889357046	-0.4152589758	-0.0197227011	 0.128312
H	 1.6538370589	-3.3113323128	-2.8664595572	 0.15059
H	 0.4491758585	-2.5987318185	-0.7563484041	 0.117455
57.5345	99.5561	165.7517	185.1572	239.3433	392.4573	398.3144	517.2547	557.7869	588.9749	613.8282	687.2178	787.3847	794.8757	803.7861	823.2769	958.9246	977.3528	985.5079	1072.0904	1097.612	1116.8876	1117.8031	1228.453	1283.531	1296.0798	1380.4612	1418.5467	1452.3118	1470.3758	1490.8398	1498.4757	1565.8614	1688.8908	1880.5824	3011.9651	3035.3224	3054.8113	3126.5216	3134.8574	3188.0692	3233.1134
CCC1=NC(=O)OC=C1	CCc1nc(=O)occ1	
InChI=1S/C6H7NO2/c1-2-5-3-4-9-6(8)7-5/h3-4H,2H2,1H3	InChI=1S/C6H7NO2/c1-2-5-3-4-9-6(8)7-5/h3-4H,2H2,1H3
