19
gdb 81013	2.56164	1.5225	1.26941	1.3338	70.41	-0.2501	0.0661	0.3162	1053.1987	0.159472	-460.143816	-460.135463	-460.134519	-460.176023	33.598	
O	-0.1612098176	 1.3701479893	-0.1017117378	-0.46232
C	-0.0057518459	-0.0342974442	-0.0262638255	 0.080165
C	 0.1035600001	-0.6443583336	 1.4046945597	-0.089976
C	-1.4131096494	-0.3421244252	 1.5623161722	-0.309883
C	-1.4180820889	-0.6828374635	 0.0303699545	 0.426939
O	-2.4198615617	-0.2938094502	-0.8442221384	-0.49759
C	-1.0836957907	-2.1765237414	 0.0398637712	-0.302557
C	 0.0914804848	-2.1463493972	 1.080668972	 0.128203
O	 1.3530000713	-2.5245433191	 0.5538221021	-0.443472
H	 0.7041143117	 1.7801079728	-0.0146338658	 0.289357
H	 0.6985983883	-0.4023980105	-0.77982284	 0.075946
H	 0.8477904765	-0.3020477811	 2.1226768091	 0.065208
H	-2.0013079261	-0.9780886245	 2.2298017656	 0.08703
H	-1.6079514474	 0.7116588771	 1.7546150486	 0.110597
H	-2.3611077426	 0.6665347307	-0.9219349437	 0.289065
H	-1.9331794059	-2.7860680647	 0.359397251	 0.102199
H	-0.7396092115	-2.5312401558	-0.9362850415	 0.100466
H	-0.144230876	-2.7415354928	 1.9738110619	 0.067875
H	 1.2991310509	-3.4449461461	 0.2785909047	 0.282748
157.9084	195.4389	223.4273	254.6295	280.4144	347.8341	384.973	403.2504	432.4997	474.2247	476.7807	587.2612	636.1892	675.0135	822.7363	856.8924	862.0442	914.8892	949.1785	974.5163	993.0437	1012.7573	1054.1936	1085.752	1123.5694	1138.9299	1154.56	1171.426	1187.831	1212.616	1228.4672	1244.6951	1284.9154	1291.742	1334.4794	1338.7805	1406.8896	1423.5112	1425.8336	1481.4958	1506.3919	2996.7199	3049.7421	3055.1995	3065.7491	3105.8004	3125.8294	3154.1189	3783.2623	3820.2139	3831.6664
OC1C2CC1(O)CC2O	O[C@H]1[C@H]2C[C@]1(O)C[C@H]2O	
InChI=1S/C6H10O3/c7-4-2-6(9)1-3(4)5(6)8/h3-5,7-9H,1-2H2	InChI=1S/C6H10O3/c7-4-2-6(9)1-3(4)5(6)8/h3-5,7-9H,1-2H2/t3-,4+,5-,6-/m0/s1
