20
gdb 55122	2.58603	1.41076	1.11879	3.2729	78.9	-0.2324	0.0336	0.266	1164.128	0.170133	-403.16135	-403.151793	-403.150849	-403.196963	35.111	
C	-0.1569493416	 1.5030424546	 0.0842519557	-0.506108
C	 0.033997846	 0.0156471022	 0.0427265553	 0.394739
C	-0.7616245735	-0.9453005155	 0.8805392487	-0.320618
C	 0.7381470972	-0.9507227997	 1.0070718707	-0.101919
C	 1.3445779081	-1.7338538093	-0.1614611125	-0.26841
C	 0.6446003741	-0.7334973921	-1.1503358978	-0.172332
C	-0.3272451295	-1.211588235	-2.220674849	 0.385443
N	 0.0571011501	-2.3345418546	-2.8971644458	-0.523718
O	-1.3608208914	-0.6208494766	-2.472080948	-0.368117
H	 0.7583901232	 2.0344586853	-0.2031745971	 0.107591
H	-0.9499626723	 1.8000753058	-0.6103402711	 0.144627
H	-0.4394302057	 1.8403693164	 1.0869817184	 0.112168
H	-1.2961789476	-0.4865983708	 1.7065806549	 0.108534
H	-1.2837312384	-1.7879152467	 0.4323085323	 0.109366
H	 1.2406713507	-0.7371047917	 1.9429871776	 0.084292
H	 2.4342945445	-1.6801679899	-0.2143564159	 0.102685
H	 1.0407339375	-2.7848142979	-0.2306204684	 0.093435
H	 1.3991858973	-0.1167068842	-1.6526665855	 0.100347
H	 0.9148038499	-2.8166326897	-2.6958037181	 0.259358
H	-0.5225904485	-2.6636963607	-3.6516639244	 0.258636
18.1397	86.5085	125.205	143.1266	217.1418	266.2713	285.19	396.1154	405.7837	459.6911	497.9565	600.9436	654.0079	672.1076	745.0339	801.481	819.2637	873.4723	953.3323	967.7691	997.1415	1013.1376	1019.9929	1043.6623	1069.3445	1087.3157	1100.7325	1114.9677	1165.6574	1200.4968	1246.6589	1257.7879	1289.0794	1313.9778	1364.3068	1396.8991	1423.3329	1483.7995	1486.8607	1501.8843	1508.8235	1613.2034	1786.6815	3021.7191	3033.1553	3038.7809	3084.225	3100.2128	3100.7258	3106.1631	3178.8018	3196.3405	3603.1759	3742.352
CC12CC1CC2C(N)=O	C[C@]12C[C@H]1C[C@H]2C(=O)N	
InChI=1S/C7H11NO/c1-7-3-4(7)2-5(7)6(8)9/h4-5H,2-3H2,1H3,(H2,8,9)	InChI=1S/C7H11NO/c1-7-3-4(7)2-5(7)6(8)9/h4-5H,2-3H2,1H3,(H2,8,9)/t4-,5+,7+/m1/s1
