17
gdb 71549	2.6306	1.50494	1.40063	4.3233	74.12	-0.2452	-0.0371	0.208	1016.1655	0.133806	-421.74313	-421.735198	-421.734254	-421.775574	30.174	
C	-0.0366062274	 1.4838980198	-0.02256421	-0.523273
C	 0.0414625398	-0.012114954	-0.0983141879	 0.255832
C	 0.6107588414	-0.9449390908	-1.1916108102	-0.326801
C	 0.0929822292	-1.9415871352	-0.1358969902	-0.136153
C	 0.4664570647	-0.9974611049	 1.0436624542	 0.045814
O	-0.8470844625	-1.0394781691	 1.6765426798	-0.344003
C	-1.1294925985	-1.0330512093	 0.2574398988	 0.356913
C	-2.518132652	-1.0636798028	-0.2595117757	 0.023277
O	-3.5069639215	-1.0474284898	 0.4272319592	-0.244863
H	 0.9649059818	 1.927245472	-0.0420236777	 0.128058
H	-0.602414512	 1.8990758389	-0.8628841319	 0.128426
H	-0.5285717014	 1.7853693341	 0.9076284415	 0.146357
H	 0.1037615107	-0.9394030927	-2.1602227205	 0.106575
H	 1.6948217476	-0.9131256959	-1.3352592423	 0.104678
H	 0.0988552083	-3.0309209556	-0.1298516976	 0.097871
H	 1.3503625185	-0.9897373195	 1.6812340949	 0.101239
H	-2.5723770266	-1.0974006751	-1.3720554744	 0.080053
86.8778	164.6425	207.3718	231.243	242.7841	347.9353	354.0824	514.6918	529.6561	682.9081	687.3421	693.6018	794.9666	832.3264	846.6561	909.1732	924.433	950.872	1001.3414	1003.6206	1049.0471	1059.1313	1110.3194	1141.2943	1154.3169	1168.9433	1192.4336	1230.6371	1283.8785	1322.0972	1339.2625	1408.1488	1428.9771	1488.5507	1488.9613	1521.0331	1820.5099	2866.0644	3032.4525	3051.5497	3098.6003	3105.9357	3110.1489	3120.8474	3134.5615
CC12CC3C1OC23C=O	C[C@@]12C[C@H]3[C@@H]1O[C@@]23C=O	
InChI=1S/C7H8O2/c1-6-2-4-5(6)9-7(4,6)3-8/h3-5H,2H2,1H3	InChI=1S/C7H8O2/c1-6-2-4-5(6)9-7(4,6)3-8/h3-5H,2H2,1H3/t4-,5-,6+,7+/m0/s1
