21
gdb 70680	2.40887	1.61669	1.21394	1.1779	83.37	-0.2317	0.0268	0.2585	1111.0645	0.183988	-387.085965	-387.077737	-387.076792	-387.11817	33.517	
O	-0.2781884799	 1.4339295842	 0.1042312487	-0.474084
C	-0.0836073063	 0.0447938574	 0.0294178515	 0.424545
C	-0.3851575358	-0.6341617748	-1.2889648342	-0.385968
C	-1.3467956626	-0.7397508766	-0.1153902636	-0.020296
C	-1.5247819918	-2.0174440313	 0.6765298903	-0.239354
C	-1.6971579922	-1.7466560076	 2.1800691973	-0.23966
C	-0.5221447291	-1.1219856161	 2.89316791	-0.019123
C	 0.6028370307	-0.6008849937	 2.3989592047	-0.057412
C	 1.0109237561	-0.4903323129	 0.9427400897	-0.327811
H	 0.4859790405	 1.8600117679	-0.3002978901	 0.276179
H	-0.6805156872	 0.0021106567	-2.1159245858	 0.109134
H	 0.1870219824	-1.5136780727	-1.5687463053	 0.103613
H	-2.2377121195	-0.122641243	-0.197370655	 0.092129
H	-2.3989617278	-2.5659622926	 0.3052505119	 0.094287
H	-0.6660178551	-2.6811303023	 0.5241926095	 0.097319
H	-2.5792889922	-1.105720264	 2.3332270864	 0.109547
H	-1.9433777247	-2.6884980805	 2.6906713953	 0.09857
H	-0.6341057677	-1.1042176042	 3.9769284597	 0.080719
H	 1.3262376046	-0.2172713784	 3.1151437843	 0.079389
H	 1.3547030646	-1.4639034208	 0.572313955	 0.110788
H	 1.882291973	 0.1713564752	 0.8599729596	 0.087488
126.3233	148.3249	252.1429	307.2539	315.1277	361.9348	389.1047	410.225	438.1654	449.9878	565.3499	652.4563	693.1008	778.8303	822.6111	853.4519	901.0428	915.8402	919.3361	927.9572	962.6293	992.2144	1009.7808	1037.5639	1051.4907	1059.7312	1102.7398	1128.0067	1185.8774	1227.7313	1241.8747	1258.8671	1273.0918	1294.4384	1335.5344	1364.1439	1374.3078	1390.4553	1424.4938	1431.681	1469.0316	1472.1698	1495.2773	1503.0482	1727.856	2991.0399	3014.6098	3020.3935	3032.673	3048.8088	3066.1258	3121.1704	3123.3349	3146.6499	3151.0496	3215.8774	3786.8504
OC12CC1CCC=CC2	O[C@]12C[C@H]1CCC=CC2	
InChI=1S/C8H12O/c9-8-5-3-1-2-4-7(8)6-8/h1,3,7,9H,2,4-6H2	InChI=1S/C8H12O/c9-8-5-3-1-2-4-7(8)6-8/h1,3,7,9H,2,4-6H2/t7-,8-/m1/s1
