20
gdb 34402	2.20298	1.6933	1.25868	4.1881	82.25	-0.2918	0.0317	0.3235	1087.5463	0.173821	-366.039334	-366.031414	-366.03047	-366.071848	31.071	
N	 0.0101105236	-1.1321004567	 0.0674539328	-0.354615
C	-0.0206346979	 0.0247612821	 0.0682144089	 0.227143
C	-0.0438108731	 1.4777435229	 0.0581910484	 0.179996
C	-0.3573734942	 2.1547187932	-1.3145948194	-0.285369
C	 0.8562109381	 3.1007734559	-1.1077857599	-0.24113
C	 1.3520379261	 2.2152872596	 0.0750838151	-0.017785
C	 1.5279429596	 2.845827628	 1.4733308942	-0.232476
C	 0.3607600882	 2.2814546567	 2.3158624036	-0.201507
C	-0.7704476805	 2.0580049658	 1.2985440642	-0.274163
H	-0.2153080765	 1.4662119009	-2.1494995181	 0.124509
H	-1.3475177093	 2.6079277827	-1.3997858546	 0.110881
H	 1.5363887612	 3.1956491534	-1.9561267758	 0.111623
H	 0.5706355733	 4.1059927335	-0.7859043159	 0.10558
H	 2.1832734137	 1.569021518	-0.2095954862	 0.091248
H	 2.5006535397	 2.6167221486	 1.9162041383	 0.107339
H	 1.4567930565	 3.9371468885	 1.4055345863	 0.102157
H	 0.6490628172	 1.3201539461	 2.7565223174	 0.119596
H	 0.0672454945	 2.9400942923	 3.1378440737	 0.102351
H	-1.2261414463	 3.0164281188	 1.0246502055	 0.104773
H	-1.5671111341	 1.4062048497	 1.6638042816	 0.119848
88.3253	141.3437	157.4858	230.02	335.3066	362.521	493.2168	537.2906	555.0561	582.8596	647.2525	720.3731	794.3174	843.7409	848.6391	892.2701	908.9045	942.1068	956.4017	986.5255	1016.8819	1028.0311	1045.1843	1076.3857	1150.8918	1160.0891	1196.2534	1216.5086	1226.408	1247.9483	1265.9003	1268.6859	1309.6497	1318.1988	1327.9809	1337.7716	1355.3286	1481.6508	1489.0489	1491.5208	1497.575	1509.6254	2342.2201	3040.9672	3043.1003	3046.6648	3063.4821	3072.4524	3086.5735	3097.9876	3103.3161	3110.9544	3116.4112	3132.8337
N#CC12CCC1CCC2	N#C[C@]12CC[C@H]1CCC2	
InChI=1S/C8H11N/c9-6-8-4-1-2-7(8)3-5-8/h7H,1-5H2	InChI=1S/C8H11N/c9-6-8-4-1-2-7(8)3-5-8/h7H,1-5H2/t7-,8+/m1/s1
