24
gdb 122527	2.99901	0.66687	0.58249	2.4349	87.37	-0.2207	0.0782	0.2989	1980.3386	0.215843	-405.514369	-405.503425	-405.502481	-405.551429	39.208	
C	-0.2273981382	 1.6040626008	-0.3524325155	-0.371057
C	-0.4945074373	 0.1006905206	-0.3952858129	-0.118307
N	 0.4605491176	-0.5492357687	-1.2859248651	-0.075913
C	 1.7210635481	-1.0057143165	-0.7093277024	-0.270707
C	 0.7138176266	-1.9898496573	-1.1989532228	 0.022032
C	-0.0047646934	-2.9285390807	-0.2487526252	-0.225743
C	-1.355425251	-3.4117073016	-0.7931651532	-0.163884
C	-2.0445687138	-4.4056768111	 0.1317340504	-0.074104
O	-3.2741337098	-4.7832536878	-0.4688620327	-0.421022
H	 0.7658795932	 1.8120092003	 0.0590547503	 0.116529
H	-0.2702356102	 2.0286179168	-1.3592264586	 0.126524
H	-0.9669511333	 2.11156885	 0.2746585779	 0.108498
H	-0.4720286142	-0.3014966714	 0.6314549288	 0.079155
H	-1.5006303173	-0.0850668156	-0.7900397171	 0.105013
H	 2.6223755965	-0.7891213741	-1.2775705013	 0.109981
H	 1.8403663363	-0.9272376115	 0.3723035581	 0.099594
H	 0.8861181461	-2.4325821019	-2.1809023038	 0.085913
H	 0.6484217154	-3.7952919482	-0.0762141801	 0.099301
H	-0.1411345962	-2.4571743398	 0.7309686077	 0.09724
H	-2.0279885651	-2.5613949103	-0.9531739507	 0.113463
H	-1.216474532	-3.8859402524	-1.7724381254	 0.107518
H	-1.3922248135	-5.2807721379	 0.289857862	 0.082653
H	-2.209070076	-3.9428850948	 1.119276094	 0.082293
H	-3.7136466786	-5.4100748869	 0.1128338777	 0.285031
52.9417	76.8074	85.6869	122.3148	131.5817	199.7968	227.2711	264.0882	269.5938	319.1552	377.6816	413.9624	499.2159	549.2772	735.1652	755.9744	804.25	818.381	873.98	925.073	965.9135	1006.9293	1039.656	1047.4554	1062.2931	1087.3649	1097.5319	1107.6017	1121.5136	1149.5443	1187.5443	1200.6461	1223.648	1234.2766	1296.427	1305.2382	1314.0709	1317.8088	1340.1794	1374.735	1388.0246	1409.0175	1428.7982	1464.0346	1482.7754	1488.5164	1492.0787	1498.7193	1505.8264	1519.8762	1528.4963	2954.3813	2959.9288	2978.6575	3013.4588	3035.5349	3038.1302	3047.3544	3054.9127	3075.834	3081.0737	3094.8568	3106.8532	3119.7507	3163.9422	3830.8069
CCN1CC1CCCO	CCN1C[C@H]1CCCO	
InChI=1S/C7H15NO/c1-2-8-6-7(8)4-3-5-9/h7,9H,2-6H2,1H3	InChI=1S/C7H15NO/c1-2-8-6-7(8)4-3-5-9/h7,9H,2-6H2,1H3/t7-,8?/m1/s1
