20
gdb 90611	3.38084	1.4081	1.25258	1.2613	78.82	-0.2136	0.0591	0.2727	1079.8841	0.170964	-403.074323	-403.066131	-403.065187	-403.106498	32.757	
C	 0.0472735366	 1.5472350662	 0.0064761228	-0.482889
C	 0.0355304633	 0.0489793915	 0.0553046908	 0.360109
C	-0.9011146054	-0.7576612381	 0.9130277737	-0.336142
C	 0.5841105033	-0.9630433699	 1.0747606301	-0.12211
C	 1.1855740222	-1.7209516086	-0.1088376788	 0.008138
C	 0.4321120008	-2.8710506409	-0.8341023707	 0.085124
O	-0.4076954933	-3.6402511915	-0.0040072829	-0.41957
C	-0.2043207728	-1.7651501633	-1.7379510363	-0.233192
N	 0.6373905439	-0.7100745957	-1.0790036558	-0.167589
H	 1.0349344371	 1.921255954	-0.2801190099	 0.12394
H	-0.6765685796	 1.9168859646	-0.7305035472	 0.118933
H	-0.2212472197	 1.9730837511	 0.9784982434	 0.113846
H	-1.3523804517	-0.1835704074	 1.7172715745	 0.106479
H	-1.5295617736	-1.5532016572	 0.5328116946	 0.123742
H	 1.0933529631	-0.7916003221	 2.0152719635	 0.085119
H	 2.2752922554	-1.8103986164	-0.0735466131	 0.072635
H	 1.1218957327	-3.5164433446	-1.3943240634	 0.073275
H	-0.7839723549	-4.3508163035	-0.5328657768	 0.286317
H	 0.0184588022	-1.8521041942	-2.8058271697	 0.098084
H	-1.2838450896	-1.642753214	-1.6077616787	 0.105751
135.0339	176.9105	191.605	256.9299	285.0907	300.4332	384.5095	420.3269	459.9299	590.7602	618.8594	678.6265	744.951	782.8148	843.3164	873.6927	885.5716	924.7971	966.786	981.1511	999.884	1012.5821	1037.7834	1054.2692	1067.1176	1102.6569	1113.1923	1163.6911	1184.3035	1192.7734	1203.9474	1241.0924	1276.0433	1288.1181	1303.3006	1337.4458	1378.071	1419.002	1433.1951	1475.3583	1483.1817	1497.9602	1506.0836	3004.0659	3023.653	3041.2418	3059.4751	3085.7026	3093.9664	3108.4532	3134.0609	3182.2009	3221.4996	3817.2017
CC12CC1C1C(O)CN21	C[C@]12C[C@H]1[C@H]1[C@@H](O)CN21	
InChI=1S/C7H11NO/c1-7-2-4(7)6-5(9)3-8(6)7/h4-6,9H,2-3H2,1H3	InChI=1S/C7H11NO/c1-7-2-4(7)6-5(9)3-8(6)7/h4-6,9H,2-3H2,1H3/t4-,5-,6-,7-/m0/s1
