18
gdb 5951	4.09164	1.13587	1.11124	3.8854	65.25	-0.2688	0.0114	0.2802	1130.3891	0.149962	-422.099867	-422.090101	-422.089157	-422.134224	34.237	
C	-0.0187085279	 1.5904266959	 0.0689161063	-0.420557
C	 0.0426243519	 0.0612574704	 0.0852822457	 0.340582
C	 0.7563948388	-0.4864397394	 1.3233854416	-0.420438
C	-1.3717751137	-0.530679721	-0.0210070653	-0.09922
O	-2.1084594413	-0.1176442877	 1.1166854141	-0.420288
O	 0.6578042702	-0.4479445551	-1.1374066277	-0.232815
C	 1.9320987203	-0.1463600472	-1.4270510684	 0.164222
O	 2.473274611	-0.5433187954	-2.4181554068	-0.282631
H	 0.9658302231	 2.0439292262	 0.211229954	 0.11752
H	-0.4304891737	 1.942569729	-0.8814096315	 0.128905
H	-0.671893967	 1.9301985133	 0.8757951297	 0.148576
H	 0.151669071	-0.2734825823	 2.2077433689	 0.148513
H	 0.8794220307	-1.5702932435	 1.2408653188	 0.1289
H	 1.7415316624	-0.0339541217	 1.464880826	 0.117508
H	-1.8282907481	-0.1759370018	-0.9559868411	 0.102486
H	-1.2876071734	-1.6251505311	-0.0798591057	 0.102491
H	-2.9937233506	-0.4861950259	 1.0545271016	 0.29731
H	 2.4262355564	 0.4930718374	-0.6754737103	 0.078935
83.3282	108.6615	136.9065	159.9865	210.7053	231.0288	241.5313	288.4948	343.6301	354.7258	392.2468	455.583	480.9791	652.7091	783.6878	921.0477	921.0748	966.0637	996.5454	1044.8536	1050.0689	1089.0166	1165.9425	1190.9872	1201.4758	1237.7305	1303.2275	1304.1986	1396.1896	1405.5265	1435.7957	1455.1118	1480.6831	1487.4794	1496.64	1508.8288	1525.1583	1852.0846	2985.4255	2993.0861	3032.783	3046.3832	3050.9519	3117.9249	3120.8592	3134.5213	3138.4975	3845.5256
CC(C)(CO)OC=O	CC(C)(CO)OC=O	
InChI=1S/C5H10O3/c1-5(2,3-6)8-4-7/h4,6H,3H2,1-2H3	InChI=1S/C5H10O3/c1-5(2,3-6)8-4-7/h4,6H,3H2,1-2H3
