17
gdb 27547	5.14624	0.97461	0.86806	1.4746	75.5	-0.2014	0.0321	0.2335	1327.7976	0.137716	-418.030981	-418.022973	-418.022029	-418.063981	30.528	
N	 0.0527512966	 1.323981465	 0.1127638639	-0.588959
C	-0.0248375946	-0.0433014971	 0.0173586054	 0.450319
N	-1.0864046135	-0.7860328728	 0.0554034631	-0.388926
C	-0.5848843224	-2.0942477245	 0.0038163078	 0.265946
C	 0.7639326098	-2.0441001607	-0.0770189338	-0.150506
O	 1.1452585681	-0.7107023344	-0.060409305	-0.184108
C	-1.4923560083	-3.2553370384	 0.0407928417	-0.108281
C	-0.9700368184	-4.6510896188	 0.2692069598	-0.272658
C	-1.7716407901	-3.9730155763	 1.3480927228	-0.247129
H	 0.8438579765	 1.7362338155	-0.359860865	 0.263109
H	-0.8232818351	 1.7796652113	-0.0953117466	 0.270107
H	 1.5589837696	-2.7619830136	-0.1640455757	 0.136639
H	-2.3463199807	-3.1587448694	-0.6230951996	 0.097993
H	-1.428873666	-5.4594259681	-0.2887335705	 0.112779
H	 0.0934541837	-4.7792750831	 0.4376766707	 0.112186
H	-1.2418412439	-3.6241618762	 2.2270991183	 0.118212
H	-2.7849598813	-4.3109497283	 1.5340021228	 0.113276
52.6264	134.236	171.1294	271.7164	302.2994	355.6039	412.2216	485.2446	588.0354	612.3985	667.4423	710.2011	748.8687	775.1471	793.711	832.7494	902.9334	931.1832	971.1727	999.9442	1058.8755	1082.2647	1092.1382	1112.9489	1127.9322	1140.9245	1196.874	1212.417	1246.6119	1254.5151	1412.2798	1446.6176	1468.2953	1504.6543	1604.1718	1642.6945	1686.363	3136.3416	3140.4823	3151.3098	3215.5857	3231.6521	3305.1741	3575.7092	3684.5276
NC1=NC(=CO1)C1CC1	Nc1nc(co1)C1CC1	
InChI=1S/C6H8N2O/c7-6-8-5(3-9-6)4-1-2-4/h3-4H,1-2H2,(H2,7,8)	InChI=1S/C6H8N2O/c7-6-8-5(3-9-6)4-1-2-4/h3-4H,1-2H2,(H2,7,8)
