18
gdb 102069	2.1441	1.28198	0.85413	4.6652	73.61	-0.2576	-0.0479	0.2097	1336.458	0.143927	-439.093446	-439.082904	-439.08196	-439.130245	35.534	
C	-0.2930484426	 1.2893771567	-0.2214508033	-0.252212
O	 0.0535382943	-0.0890167272	-0.2173483073	-0.253948
C	 0.6247844526	-0.5402505781	 0.9982992998	 0.055024
C	-0.5282881444	-0.7475795123	 1.985318126	 0.152378
O	-0.779086796	 0.0048743985	 2.8881515212	-0.236435
C	 1.3647008001	-1.8526596411	 0.6693651305	-0.171581
C	 2.5111076648	-1.6343973891	-0.3352296322	-0.40223
C	 1.8499011852	-2.4773501122	 1.9036069185	 0.265032
N	 2.2377989659	-2.961694263	 2.8785338468	-0.313599
H	 0.5956304443	 1.9195033308	-0.0785625488	 0.121397
H	-0.7291205026	 1.4962048442	-1.2005484614	 0.138901
H	-1.0239048854	 1.5332052096	 0.5593334294	 0.137011
H	 1.317610256	 0.2019553057	 1.4193023199	 0.101942
H	-1.1808045879	-1.6171007465	 1.7437977133	 0.092248
H	 0.6258885719	-2.5318466655	 0.2240006872	 0.140278
H	 3.2850546859	-0.9923272857	 0.0943484279	 0.138159
H	 2.9695442488	-2.5873534823	-0.6085019174	 0.140075
H	 2.1127961992	-1.1581523924	-1.2320689701	 0.14756
40.9061	53.6672	103.1184	122.0178	179.9218	202.1213	217.5853	243.1673	292.7651	336.1212	404.2492	414.7653	483.7146	560.0332	588.1535	847.0721	934.279	944.0894	1002.1325	1055.9052	1084.1259	1110.0358	1128.7076	1161.7356	1186.5408	1219.5952	1265.7312	1313.4422	1331.6103	1371.8883	1406.771	1418.6028	1480.3656	1488.2714	1495.0986	1501.2537	1510.8219	1836.374	2359.0417	2880.9695	3003.9862	3017.763	3036.5098	3057.4113	3067.1876	3130.7061	3133.3096	3152.9706
COC(C=O)C(C)C#N	CO[C@@H](C=O)[C@@H](C)C#N	
InChI=1S/C6H9NO2/c1-5(3-7)6(4-8)9-2/h4-6H,1-2H3	InChI=1S/C6H9NO2/c1-5(3-7)6(4-8)9-2/h4-6H,1-2H3/t5-,6-/m0/s1
