21
gdb 110908	2.945	1.40328	1.18369	2.1843	77.68	-0.2484	0.0617	0.3102	1116.4697	0.185203	-424.209017	-424.201085	-424.200141	-424.241066	32.461	
O	-0.1443776696	 1.4575999402	-0.0156303271	-0.428425
C	 0.0150134773	 0.0337563374	-0.0943129162	-0.129327
C	-1.3666810836	-0.5876702547	 0.037188534	-0.003029
C	-1.3933966859	-2.1266821292	 0.1651433024	-0.042302
C	-2.8780353166	-2.3572933328	 0.5753069043	-0.2376
C	-2.4189385886	-1.6489212734	 1.8820611347	-0.022372
C	-1.0566915197	-2.3646059399	 1.6687599486	-0.226061
C	-2.1165226406	-0.2282346087	 1.3817863361	 0.139004
O	-1.3256997139	 0.4666014835	 2.3248069569	-0.452857
H	 0.7256254743	 1.8630515031	-0.0814625517	 0.292113
H	 0.4610510826	-0.248527897	-1.0592053821	 0.093471
H	 0.6808243477	-0.3198077835	 0.7028367877	 0.103821
H	-1.9598460107	-0.2619573587	-0.8245409941	 0.073081
H	-0.9198048901	-2.7035850341	-0.6315181265	 0.054556
H	-3.6581173869	-1.8823923523	-0.0290450775	 0.087101
H	-3.1154369966	-3.4114462877	 0.734533214	 0.096029
H	-2.9764786191	-1.724472083	 2.8154572121	 0.063273
H	-1.0969667264	-3.4237671953	 1.9334006904	 0.092105
H	-0.1686276886	-1.8998659823	 2.0999901571	 0.103548
H	-3.0430321621	 0.3267149569	 1.1756261007	 0.059164
H	-0.9467239532	 1.2205179016	 1.851785306	 0.284707
132.6734	162.9643	216.4199	288.2852	333.3524	361.6947	389.2153	476.6842	518.6899	570.7495	580.75	697.1045	794.1856	829.1643	845.7965	858.2254	886.9236	934.494	969.0655	1000.4581	1009.4889	1030.8636	1038.2066	1068.0717	1074.6372	1101.8775	1114.4719	1123.6367	1154.1464	1207.5277	1221.9193	1240.534	1248.8293	1253.1383	1272.6435	1295.4716	1301.6011	1329.2066	1366.3889	1377.8325	1432.9616	1458.7372	1487.2141	1513.5607	1522.4702	2988.0923	2994.1705	3033.4013	3044.6526	3053.2348	3069.8926	3094.3508	3112.0877	3119.7408	3130.4372	3735.7358	3826.4149
OCC1C2CC(C2)C1O	OC[C@H]1[C@@H]2C[C@@H](C2)[C@H]1O	
InChI=1S/C7H12O2/c8-3-6-4-1-5(2-4)7(6)9/h4-9H,1-3H2	InChI=1S/C7H12O2/c8-3-6-4-1-5(2-4)7(6)9/h4-9H,1-3H2/t4-,5+,6-,7+/m0/s1
