18
gdb 75988	2.1805	1.55773	1.02479	3.2506	79.9	-0.2459	0.0234	0.2693	1187.144	0.145476	-401.941436	-401.931683	-401.930738	-401.976285	34.627	
C	-0.1499406224	 1.5951878689	 0.1485071599	-0.407322
C	-0.016239194	 0.0878171005	 0.0012753602	-0.16222
C	 0.7869449075	-0.4963736	-1.2282042805	-0.194646
C	 1.3887125805	 0.4428326306	-2.1621802148	 0.357665
C	 1.8954091576	 1.2027997616	-2.9440402143	-0.462148
N	 1.7129441864	-1.0822102349	-0.2471175655	-0.061311
C	 2.9274237771	-1.8379378709	-0.4108847108	-0.348877
C	 1.0721424924	-0.5930552675	 0.8641350209	 0.415577
O	 1.3147314071	-0.6851941909	 2.0394853121	-0.378513
H	 0.8118988722	 2.0956087057	 0.0090000215	 0.133458
H	-0.8541650868	 2.0045176547	-0.5818038329	 0.123881
H	-0.5164080681	 1.8330322401	 1.151232902	 0.137352
H	-0.9864464382	-0.4056177317	 0.1093834391	 0.105394
H	 0.2244284228	-1.2577502379	-1.7840676785	 0.106676
H	 2.3394100791	 1.878260487	-3.6332917892	 0.20539
H	 3.648508203	-1.2932962108	-1.0309222775	 0.138455
H	 3.3548808058	-1.9910959469	 0.582794739	 0.163006
H	 2.7379838079	-2.8160089877	-0.8698518407	 0.128182
68.131	96.2518	137.0054	147.0893	194.535	213.2683	242.6463	256.0154	350.7914	436.1406	514.9725	599.2447	634.7476	653.8975	664.01	747.4221	789.0374	810.3412	911.0715	1008.7145	1030.2138	1081.6391	1089.569	1147.3053	1152.6932	1185.2357	1241.047	1278.5495	1336.6897	1364.6608	1405.351	1419.2318	1446.6383	1481.288	1493.4459	1495.1724	1517.1078	1878.4198	2233.4896	3015.7011	3019.4663	3045.3093	3074.0463	3074.8047	3116.078	3124.8182	3132.4146	3500.6437
CC1C(C#C)N(C)C1=O	C[C@H]1[C@@H](C#C)N(C)C1=O	
InChI=1S/C7H9NO/c1-4-6-5(2)7(9)8(6)3/h1,5-6H,2-3H3	InChI=1S/C7H9NO/c1-4-6-5(2)7(9)8(6)3/h1,5-6H,2-3H3/t5-,6+/m0/s1
