13
gdb 20722	5.79956	1.61506	1.27324	4.6156	63.71	-0.2532	-0.0839	0.1694	895.0405	0.097018	-394.817603	-394.810839	-394.809895	-394.848827	24.547	
C	-0.0228631898	 1.5331098608	-0.0024988038	-0.482783
C	-0.0010439883	 0.0329075024	-0.022207567	 0.310444
N	-0.055438582	-0.5842144757	-1.1706277783	-0.205659
N	-0.0321614088	-1.9158595602	-1.1203734689	-0.259622
C	 0.0439489772	-2.7357720603	 0.0180850715	 0.460522
O	 0.0561397952	-3.9388086133	-0.0923820709	-0.366208
N	 0.10041875	-2.0401989575	 1.2313574754	-0.292971
C	 0.0780358175	-0.746524037	 1.186711083	-0.013514
H	 0.8813633699	 1.936090951	 0.4672715671	 0.142747
H	-0.0872528449	 1.9155861819	-1.0221449381	 0.152009
H	-0.8791672773	 1.9091604064	 0.5684639909	 0.142698
H	-0.0747482455	-2.3868203321	-2.0147373935	 0.283536
H	 0.1227709269	-0.2175324764	 2.1409530625	 0.128801
85.3911	129.2504	297.2329	307.7349	399.8353	479.3867	513.8634	530.8548	644.1017	733.0088	782.4249	806.2507	841.2746	978.4094	988.718	1030.2026	1070.7526	1141.6581	1255.8851	1298.3159	1413.2918	1427.4353	1435.3741	1480.3453	1481.9046	1568.2063	1668.0502	1823.6946	3035.8713	3088.74	3110.1396	3145.9392	3592.2842
CC1=NNC(=O)N=C1	Cc1n[nH]c(=O)nc1	
InChI=1S/C4H5N3O/c1-3-2-5-4(8)7-6-3/h2H,1H3,(H,5,7,8)	InChI=1S/C4H5N3O/c1-3-2-5-4(8)7-6-3/h2H,1H3,(H,5,7,8)
