20
gdb 111927	3.59223	1.32223	1.21067	0.8592	85.46	-0.2089	-0.0424	0.1665	1119.5639	0.171021	-365.890108	-365.882273	-365.881329	-365.922404	31.288	
C	-0.1402888423	 1.4400124698	 0.1213987039	-0.3829
C	 0.0655324436	-0.0745508823	 0.030784461	-0.184498
C	 0.7769473028	-0.5020631749	-1.2564933233	 0.042939
C	 0.8310187651	-2.0261715415	-1.3764729211	-0.125451
C	 0.470201447	-2.3610285666	-2.6294189578	 0.010154
C	-1.0358165829	-2.5867088168	-2.8254944897	-0.269856
C	-1.0066975625	-1.0286679419	-3.1354881122	-0.049758
C	 0.4238854299	-1.0776069692	-3.4947627129	-0.080743
N	 0.038713566	-0.1021252518	-2.500569087	-0.123671
H	 0.8196171147	 1.9679572745	 0.122909175	 0.113578
H	-0.7169201034	 1.8046909693	-0.7322815872	 0.138154
H	-0.6719335402	 1.7076215907	 1.0397448571	 0.108272
H	 0.6560285521	-0.4279819696	 0.8849915495	 0.100437
H	-0.9029346541	-0.5878867131	 0.0881977769	 0.099727
H	 1.7420598767	 0.0209969167	-1.3202120501	 0.087746
H	 0.5862340274	-2.6415653402	-0.5141164674	 0.099102
H	-1.3512045956	-3.0993782389	-3.7417640249	 0.111334
H	-1.5969023466	-2.9646463999	-1.9673409786	 0.106571
H	-1.8068436728	-0.4946282026	-3.6371370423	 0.1071
H	 0.9511167152	-0.8374526515	-4.4105647091	 0.091765
85.0458	134.6434	188.7163	243.1932	360.091	380.6975	455.7573	530.5729	582.6158	673.5922	719.2362	758.1478	777.3781	798.3467	831.3004	886.5051	890.1173	907.966	942.2859	980.3878	999.0421	1010.2241	1034.9968	1056.7877	1070.246	1100.32	1122.4213	1135.2112	1193.8884	1201.4287	1216.4201	1244.5048	1280.4672	1290.1054	1313.5693	1339.068	1375.887	1408.7152	1482.2642	1493.5828	1499.852	1507.6515	1583.2045	2996.8742	3022.638	3029.8866	3037.3259	3059.664	3101.6247	3102.5374	3125.1418	3154.7603	3168.5874	3183.8957
CCC1C=C2CC3C2N13	CC[C@H]1[CH][C]2C[C@@H]3[C@H]2N13	
InChI=1S/C8H11N/c1-2-6-3-5-4-7-8(5)9(6)7/h3,6-8H,2,4H2,1H3	InChI=1S/C8H11N/c1-2-6-3-5-4-7-8(5)9(6)7/h3,6-8H,2,4H2,1H3/t6-,7+,8-,9?/m0/s1
