22
gdb 78753	2.83757	1.60221	1.25016	0.9696	86.07	-0.1959	0.0974	0.2933	1108.9991	0.195395	-367.178268	-367.170099	-367.169155	-367.210274	33.256	
C	-0.1325664671	 1.3830841679	 0.0161008539	-0.322657
N	 0.013036572	-0.0633687978	-0.027619005	-0.110855
C	 0.7653309046	-0.5040553411	-1.2201083137	-0.037799
C	 2.0313003385	-0.8031503178	-0.4544860041	-0.147039
C	 1.1762077168	-0.5533941366	 0.8174193192	-0.014114
C	 0.8105308411	-1.9341700503	 1.3575510661	-0.20158
C	 0.5347574289	-2.7447062896	 0.0627138706	-0.2766
C	 1.2222944582	-1.9414214309	-1.0488032743	 0.326945
C	 1.7198174974	-2.6598389883	-2.2799699367	-0.493976
H	 0.8113511137	 1.932755705	-0.1621865111	 0.087854
H	-0.8557488255	 1.7012824906	-0.7429845583	 0.114196
H	-0.5221702721	 1.6800045223	 0.9954835305	 0.114133
H	 0.6016870673	-0.0503925693	-2.1927231704	 0.0808
H	 3.0793742499	-0.5995236239	-0.6363945712	 0.080532
H	 1.5219408825	 0.1779330409	 1.5496988033	 0.064207
H	 1.6573510106	-2.3553151305	 1.9121561126	 0.090749
H	-0.0532872775	-1.8953962759	 2.0268154703	 0.099476
H	 0.948510617	-3.7569833091	 0.118340203	 0.089299
H	-0.5390627049	-2.8384653343	-0.1250476565	 0.107549
H	 0.8974439592	-3.1547314772	-2.8093657077	 0.119503
H	 2.1968348558	-1.9687052547	-2.9832188836	 0.113726
H	 2.4562957536	-3.4285199695	-2.018115987	 0.115653
155.9137	205.1598	217.8335	247.7877	266.3318	303.3786	356.9609	389.2471	485.7859	559.6848	657.855	737.2905	753.5446	824.1681	844.2749	852.9656	861.0367	910.6617	920.6917	964.703	967.7966	1017.677	1024.5923	1033.9674	1079.9631	1102.1394	1119.4958	1151.2512	1177.2036	1187.4023	1199.8653	1219.313	1245.0442	1267.4661	1277.9302	1300.6489	1337.3086	1343.7559	1410.0074	1416.202	1452.9478	1474.4655	1488.5554	1489.9684	1495.7079	1502.3331	1502.7623	2924.6675	3020.7293	3034.9016	3047.5393	3052.8893	3080.8192	3081.7702	3091.5127	3093.2899	3100.037	3102.8165	3155.9377	3180.3856
CN1C2C3C1CCC23C	CN1[C@H]2[C@H]3[C@@H]1CC[C@@]23C	
InChI=1S/C8H13N/c1-8-4-3-5-6(8)7(8)9(5)2/h5-7H,3-4H2,1-2H3	InChI=1S/C8H13N/c1-8-4-3-5-6(8)7(8)9(5)2/h5-7H,3-4H2,1-2H3/t5-,6+,7-,8+/m0/s1
