19
gdb 60728	2.40984	1.22242	0.90878	0.884	78.35	-0.2508	-0.0486	0.2021	1323.4315	0.156434	-423.047252	-423.037411	-423.036466	-423.083111	34.554	
C	 0.0611841755	 1.6083704506	 0.729551624	-0.410231
C	-0.171598767	 0.3942043198	-0.1672688947	-0.171843
C	 0.6798321986	-0.7969850133	 0.2597011844	 0.151189
O	 1.0597897467	-1.6681830278	-0.4793776389	-0.245084
C	-1.6576702433	-0.039687986	-0.174280348	 0.358743
O	-2.4555430335	 0.4696040395	 0.5822478902	-0.325801
C	-2.0320904052	-1.0849057287	-1.1610519554	-0.096462
C	-3.1971962608	-1.998653272	-0.8037669747	-0.251751
C	-3.3943847414	-0.9436706455	-1.8337029182	-0.256023
H	 1.1098562575	 1.9189650764	 0.7012534286	 0.117641
H	-0.5602575894	 2.4469611572	 0.4092800031	 0.137477
H	-0.2097581641	 1.3824791356	 1.7642866662	 0.138849
H	 0.0958825612	 0.5959683837	-1.2117293212	 0.120025
H	 0.9215588277	-0.8161776696	 1.3464009864	 0.091841
H	-1.2215084519	-1.5070435188	-1.7411489162	 0.116154
H	-3.1171623669	-3.0330150279	-1.1167611414	 0.124894
H	-3.6392388825	-1.8337396299	 0.1719460025	 0.139105
H	-3.9688736475	-0.0690202673	-1.5510902626	 0.138012
H	-3.4551075637	-1.2284490962	-2.8776249342	 0.123266
51.3292	63.1977	80.4272	158.9757	173.7813	220.9559	257.4143	304.7315	323.0468	371.3792	503.5706	642.324	710.3559	757.0611	808.468	831.6814	874.7608	893.7254	913.5417	969.7793	1024.6474	1067.8035	1075.6808	1096.0805	1112.2864	1135.7691	1138.8167	1152.3618	1210.6106	1222.8933	1235.0132	1326.76	1407.2581	1410.3657	1422.945	1454.5935	1484.9127	1487.3684	1491.8742	1781.6609	1822.9969	2879.8971	3045.7306	3050.5348	3122.0189	3135.2305	3141.9364	3144.3454	3199.0957	3229.782	3244.7186
CC(C=O)C(=O)C1CC1	C[C@@H](C=O)C(=O)C1CC1	
InChI=1S/C7H10O2/c1-5(4-8)7(9)6-2-3-6/h4-6H,2-3H2,1H3	InChI=1S/C7H10O2/c1-5(4-8)7(9)6-2-3-6/h4-6H,2-3H2,1H3/t5-/m0/s1
