20
gdb 53680	5.47309	0.48652	0.45719	3.2989	85.5	-0.24	0.0324	0.2725	2362.3111	0.168085	-403.169411	-403.157839	-403.156895	-403.209865	38.394	
C	 0.0315434514	 1.5050269592	-0.0676715518	-0.497245
C	 0.034239132	 0.0489156941	-0.053712758	 0.116234
C	 0.0428750136	-1.1550732052	-0.0408440397	 0.021476
C	 0.0184341785	-2.6137879912	-0.0243941349	-0.36504
C	-1.4083574117	-3.1914087496	 0.0463679434	-0.154331
C	-1.415617122	-4.7210046427	 0.0470246203	-0.314422
C	-2.8124270713	-5.293012358	 0.2895491824	 0.403797
N	-3.0241108655	-6.53374755	-0.2427425886	-0.522399
O	-3.6702851306	-4.7012912846	 0.9148154046	-0.355845
H	 0.6173232727	 1.9137791835	 0.7633386472	 0.144967
H	 0.4591271842	 1.8974126796	-0.9972100641	 0.144009
H	-0.9860497518	 1.9018148991	 0.0203655118	 0.147249
H	 0.5270300027	-2.9994415279	-0.9191857131	 0.118538
H	 0.6010199099	-2.9828376091	 0.8313664506	 0.121576
H	-1.9138352747	-2.8354216623	 0.94723732	 0.136669
H	-1.9926830469	-2.8175911614	-0.8010329149	 0.113377
H	-0.9993659304	-5.117250661	-0.8875937046	 0.099657
H	-0.7697833141	-5.0964068707	 0.8537671155	 0.126077
H	-2.2948346845	-7.0552313129	-0.6958295667	 0.256077
H	-3.8918391916	-6.9988995487	-0.0314791595	 0.259578
15.5915	22.0667	60.3689	78.7185	89.7799	147.9127	173.0073	220.4723	276.0258	304.5271	385.4985	418.0933	504.7104	526.97	612.6551	669.7456	743.1203	762.5714	848.2376	873.2108	1024.4272	1051.3772	1053.8113	1059.3597	1073.1581	1102.2837	1166.1148	1169.3659	1240.3075	1291.5796	1309.1731	1322.045	1375.8879	1405.5848	1415.628	1464.4349	1475.352	1479.5422	1479.6191	1500.9249	1616.7213	1798.9247	2374.5363	3000.9913	3011.7469	3024.3512	3026.9739	3049.3835	3060.6051	3083.4682	3084.4583	3114.8517	3601.5902	3739.037
CC#CCCCC(N)=O	CC#CCCCC(=O)N	
InChI=1S/C7H11NO/c1-2-3-4-5-6-7(8)9/h4-6H2,1H3,(H2,8,9)	InChI=1S/C7H11NO/c1-2-3-4-5-6-7(8)9/h4-6H2,1H3,(H2,8,9)
