19
gdb 105773	2.35643	1.38414	1.1168	2.3969	76.9	-0.2561	0.0414	0.2975	1163.2858	0.158907	-422.99048	-422.981437	-422.980493	-423.024369	34.016	
O	 0.0899733505	 1.2570956619	 0.2150575094	-0.421845
C	-0.1072138464	-0.137537168	 0.1624906722	-0.099343
C	-1.5843615798	-0.5295089646	-0.1054964124	 0.098986
C	-1.7359803412	-2.0844910199	-0.0723135254	-0.302495
C	-2.4764151982	-2.3498707067	 1.2592220266	-0.074437
O	-2.3397215498	-1.1627271587	 2.0278240193	-0.245447
C	-2.4560994816	-0.0960926128	 1.1081085956	-0.12307
C	-2.0194200602	 0.0844806299	-1.3533805085	 0.257937
C	-2.3399923434	 0.6357057929	-2.3743826667	-0.460582
H	-0.2012377262	 1.617813078	-0.6315687435	 0.286361
H	 0.5309322141	-0.6126736666	-0.5981270242	 0.092528
H	 0.1756929013	-0.5306879102	 1.1438996836	 0.122799
H	-2.2950096346	-2.4543473599	-0.9329814766	 0.118693
H	-0.7497835894	-2.5579604118	-0.0888297702	 0.1145
H	-3.5406024052	-2.561714743	 1.0711566017	 0.096152
H	-2.0579400197	-3.1759122698	 1.8389479016	 0.113129
H	-2.0824592822	 0.8176083319	 1.5731538872	 0.133552
H	-3.5012599657	 0.0512303091	 0.7958323607	 0.093414
H	-2.6465883124	 1.1008725883	-3.2787835603	 0.199167
62.5672	122.8328	153.2593	173.8482	239.3105	267.3972	359.6978	403.0937	448.2505	494.4209	527.527	611.6875	626.7422	648.6172	688.7243	778.2848	827.7271	917.5901	936.554	968.6258	974.2308	1022.7636	1084.2343	1096.7028	1130.7831	1137.03	1164.3751	1233.3518	1234.5897	1274.8567	1295.8527	1311.5919	1354.2551	1378.4951	1397.1586	1424.2819	1493.9025	1503.2567	1507.1447	1523.8455	2223.9866	2981.4842	2987.4847	2990.1123	3060.8651	3087.4393	3098.4695	3122.5938	3124.7119	3498.4687	3777.1011
OCC1(CCOC1)C#C	OC[C@]1(CCOC1)C#C	
InChI=1S/C7H10O2/c1-2-7(5-8)3-4-9-6-7/h1,8H,3-6H2	InChI=1S/C7H10O2/c1-2-7(5-8)3-4-9-6-7/h1,8H,3-6H2/t7-/m1/s1
