18
gdb 65074	2.08069	1.68559	1.25908	4.2262	72.03	-0.2523	-0.029	0.2233	1073.8452	0.145094	-439.042371	-439.033307	-439.032363	-439.076603	33.275	
C	 0.2721905599	 0.7228733272	 1.2368345694	-0.478632
C	-0.0226220553	-0.0584702561	-0.0281082319	 0.337738
C	 0.6727673865	 0.3080402986	-1.2745523864	-0.241857
O	 1.0750861388	-0.8370261988	-0.527953406	-0.266378
C	-1.361709971	-0.7573367485	-0.0615294121	 0.138035
C	-2.5780919494	 0.0306059244	-0.4596171104	-0.262182
N	-2.0942058065	-1.0425859075	-1.3131126482	-0.344686
C	-1.5917230996	-1.8478961677	 0.9462373477	 0.149553
O	-0.8911338882	-2.0841956873	 1.8959601422	-0.258016
H	 1.2669632589	 1.1709108874	 1.1755053226	 0.125542
H	-0.4633585575	 1.5216315476	 1.3793262727	 0.116519
H	 0.2377988524	 0.0587093012	 2.1018500746	 0.166217
H	 0.2497463186	 0.1018427219	-2.2572499092	 0.107277
H	 1.3613400102	 1.1527346606	-1.2558260946	 0.117728
H	-3.5326010934	-0.1530128906	 0.0269006665	 0.131034
H	-2.4026988193	 1.0642469926	-0.7481207253	 0.127574
H	-1.5900186244	-0.6755796612	-2.1138992628	 0.242031
H	-2.5073128207	-2.4388769937	 0.7242519812	 0.092502
37.9171	112.5338	180.9061	192.4353	230.4423	274.5089	334.8933	352.125	385.4666	440.1337	514.4146	565.1071	647.2719	804.74	819.7537	885.2029	898.4997	923.7334	958.2098	966.6715	1033.2888	1049.8133	1076.3096	1108.4866	1128.293	1129.9441	1170.2235	1200.3483	1248.9424	1319.6184	1335.956	1400.829	1409.1733	1429.1791	1478.4284	1505.4099	1509.2619	1535.0648	1828.7558	2899.615	3045.9383	3073.2219	3103.5903	3117.1145	3149.1258	3151.5078	3190.4856	3535.8388
CC1(CO1)C1(CN1)C=O	C[C@]1(CO1)[C@]1(CN1)C=O	
InChI=1S/C6H9NO2/c1-5(4-9-5)6(3-8)2-7-6/h3,7H,2,4H2,1H3	InChI=1S/C6H9NO2/c1-5(4-9-5)6(3-8)2-7-6/h3,7H,2,4H2,1H3/t5-,6-/m0/s1
