13
gdb 131631	2.24392	1.7309	0.99319	3.0719	69.45	-0.2579	-0.0518	0.2061	1090.8026	0.087034	-452.681602	-452.673382	-452.672438	-452.714984	29.508	
O	 0.2686944612	 1.0830484791	-0.6658280959	-0.398719
C	-0.0669013141	 0.1570198494	 0.3366638373	-0.190739
C	-1.4143785628	-0.4733537836	 0.133860263	 0.288885
C	-2.1537498163	-0.7126161277	-0.9981242765	 0.082825
N	-3.3083478618	-1.3547978341	-0.5765326436	-0.170317
N	-3.3154535799	-1.5137415357	 0.6589289867	-0.010234
O	-2.0715362913	-0.9419608036	 1.1792025368	-0.212659
C	-1.8630326108	-0.4225345696	-2.3477620277	 0.243973
C	-1.6044760505	-0.1907829284	-3.500763878	-0.426633
H	 0.2402975567	 0.6420665376	-1.5231849626	 0.29675
H	 0.6803409529	-0.6482062234	 0.4350247327	 0.131752
H	-0.073482162	 0.6994307936	 1.2869972092	 0.1549
H	-1.3919132513	 0.0214467563	-4.5199199115	 0.210216
51.4814	129.6287	172.1028	209.4431	254.6287	363.9113	399.081	488.3531	508.5884	548.7065	579.0711	627.9551	657.467	702.3648	717.0773	749.4267	993.6845	999.1799	1095.3841	1146.2762	1208.7328	1259.1888	1348.4155	1394.1938	1438.0082	1485.7289	1498.2706	1593.3443	2237.8047	2970.1684	3087.2249	3497.9284	3790.6693
OCC1=C(N=NO1)C#C	OCc1c(nno1)C#C	
InChI=1S/C5H4N2O2/c1-2-4-5(3-8)9-7-6-4/h1,8H,3H2	InChI=1S/C5H4N2O2/c1-2-4-5(3-8)9-7-6-4/h1,8H,3H2
