21
gdb 117627	1.88516	1.02124	0.78475	1.1185	84.66	-0.247	0.0422	0.2892	1599.3595	0.177494	-424.190796	-424.178896	-424.177951	-424.229587	40.567	
C	-0.8222202786	 1.334779267	-0.5980963836	-0.22278
O	-0.9315348045	-0.0644598835	-0.6944003803	-0.232948
C	-0.7935199438	-0.7100015953	 0.5471376614	-0.058531
C	-0.9455528324	-2.2288493568	 0.3519241651	 0.143545
C	 0.0834401821	-2.7573897634	-0.6605297171	-0.40237
O	-0.6787211298	-2.7579077721	 1.6590398524	-0.460053
C	-2.3099168238	-2.5706287765	-0.0703027528	 0.127288
C	-3.4223963048	-2.9002987011	-0.393777415	-0.018266
C	-4.7713974181	-3.2780493458	-0.7898589278	-0.498622
H	-0.943240074	 1.7422809405	-1.6047140028	 0.126363
H	-1.600333373	 1.7607495025	 0.0546872346	 0.105899
H	 0.1598911893	 1.6422289386	-0.2048918882	 0.104209
H	 0.1992828893	-0.5209434552	 0.9875700794	 0.092851
H	-1.5529837404	-0.3655847254	 1.2647670382	 0.09803
H	 1.091769792	-2.5506977814	-0.2898757967	 0.115924
H	-0.029850851	-3.8379499713	-0.7866518331	 0.108295
H	-0.0496164368	-2.2727817098	-1.629674729	 0.139964
H	-1.0395787716	-3.6498688404	 1.6848122973	 0.281814
H	-4.7796209286	-4.2348962842	-1.3233722519	 0.147529
H	-5.4293746144	-3.3761265166	 0.0806274905	 0.148841
H	-5.210651737	-2.5250285295	-1.4533933607	 0.153019
19.5745	54.9695	88.5351	115.631	131.5019	182.517	208.0702	227.5825	247.2746	293.7893	309.5272	334.4746	370.9278	408.6997	434.2094	566.6472	600.3679	665.1057	876.4527	944.9314	991.4653	1009.2503	1051.0981	1054.5693	1071.9616	1122.2606	1136.8804	1177.6528	1186.2954	1215.5148	1234.8196	1282.5705	1374.1078	1389.4978	1411.4569	1414.8615	1477.3029	1478.5993	1479.2599	1483.9364	1485.1385	1492.0399	1502.4282	1524.3351	2365.4407	2964.7078	2976.0182	3013.7206	3017.3405	3027.5432	3044.0267	3088.2822	3089.6321	3113.8825	3117.2423	3141.4591	3823.3833
COCC(C)(O)C#CC	COC[C@@](C)(O)C#CC	
InChI=1S/C7H12O2/c1-4-5-7(2,8)6-9-3/h8H,6H2,1-3H3	InChI=1S/C7H12O2/c1-4-5-7(2,8)6-9-3/h8H,6H2,1-3H3/t7-/m0/s1
