14
gdb 9038	4.95793	0.86788	0.76306	2.1667	81.45	-0.247	-0.0442	0.2028	1410.4076	0.10351	-345.360142	-345.351222	-345.350278	-345.394422	30.793	
C	-0.0616645237	 1.5113605407	 0.0576147102	-0.398788
C	 0.0379257928	-0.0337112222	-0.0093089245	-0.258878
C	-1.3837280548	-0.6148126942	 0.0138843095	 0.173591
O	-1.8791036411	-1.127368677	 0.9788865661	-0.23558
C	 0.73644573	-0.4856243842	-1.2021253915	 0.451323
C	 1.2862805098	-0.8756110917	-2.2079147889	-0.329464
C	 1.9107979079	-1.3067490278	-3.3369545148	 0.303235
C	 2.4647210284	-1.6901955711	-4.3389785658	-0.551334
H	 0.9368416219	 1.9527406475	 0.0249218657	 0.14381
H	-0.6341391476	 1.9007827237	-0.7891572099	 0.137037
H	-0.5536492712	 1.8128495661	 0.9861220941	 0.138908
H	 0.5430815059	-0.4039443964	 0.890069268	 0.134649
H	-1.9363082645	-0.4943521671	-0.9437556759	 0.095476
H	 2.9526082362	-2.0267174664	-5.2200278623	 0.196015
48.4353	93.374	104.0991	224.5388	225.897	244.3341	306.8379	436.0694	460.0422	480.8861	540.5831	547.6847	601.072	604.0937	744.3802	881.5267	926.6497	1043.5308	1080.7078	1121.8413	1188.2814	1262.8576	1324.3447	1398.7608	1416.4307	1491.7671	1497.2056	1840.3349	2181.8192	2359.1579	2894.9661	3047.1763	3051.6146	3126.0028	3134.4018	3503.812
CC(C=O)C#CC#C	C[C@@H](C=O)C#CC#C	
InChI=1S/C7H6O/c1-3-4-5-7(2)6-8/h1,6-7H,2H3	InChI=1S/C7H6O/c1-3-4-5-7(2)6-8/h1,6-7H,2H3/t7-/m1/s1
