18
gdb 51715	4.02991	0.85188	0.78881	3.6121	74.05	-0.2427	-0.0238	0.2189	1440.1988	0.147852	-439.147189	-439.138476	-439.137532	-439.182068	31.615	
O	-0.0174991361	-0.0037000972	-0.7851147762	-0.319598
C	-0.0301428807	 1.0920450181	-0.2667553732	 0.152333
N	 1.0534968075	 1.7248246026	 0.2631210719	-0.290184
C	 2.3857620544	 1.1544476595	 0.2723359138	 0.039021
C	 3.4354480919	 1.9985564615	-0.489291071	-0.237262
C	 4.7806934676	 1.4495065244	 0.0041597242	-0.318515
C	 4.5148886749	 0.9825451077	 1.4416013665	 0.402214
O	 5.3517199913	 0.6759385122	 2.2486618075	-0.306143
C	 2.9991881166	 0.9778516675	 1.6729083473	-0.335251
H	-0.9482017845	 1.7045675806	-0.1693801857	 0.077511
H	 0.9170263905	 2.6389707602	 0.6673300686	 0.244378
H	 2.2821609077	 0.1793324424	-0.2108705147	 0.134913
H	 3.3015172378	 1.9392908424	-1.5715130651	 0.120241
H	 3.3300097382	 3.052904834	-0.2020640394	 0.09833
H	 5.0846422815	 0.5663319079	-0.5732324943	 0.140466
H	 5.6137901551	 2.1549681797	-0.03122198	 0.132663
H	 2.7612543689	 1.8412786421	 2.310527405	 0.12323
H	 2.6740186072	 0.0831282646	 2.2076453447	 0.141651
30.174	68.9971	130.0554	179.156	226.1114	365.7812	407.0404	455.6033	497.5942	529.2491	538.1238	579.5736	727.7733	777.3703	811.0654	879.8075	932.4502	957.5564	988.2373	1029.8716	1050.0669	1090.9094	1143.6616	1161.8806	1181.0842	1225.7071	1244.0542	1256.9356	1299.6856	1317.5888	1349.2664	1377.9684	1431.8694	1446.5404	1449.6956	1499.218	1533.1231	1805.895	1852.2865	2939.4078	3020.8526	3027.1687	3036.8824	3090.4531	3107.4443	3112.8794	3117.0112	3618.3761
O=CNC1CCC(=O)C1	O=CN[C@H]1CCC(=O)C1	
InChI=1S/C6H9NO2/c8-4-7-5-1-2-6(9)3-5/h4-5H,1-3H2,(H,7,8)	InChI=1S/C6H9NO2/c8-4-7-5-1-2-6(9)3-5/h4-5H,1-3H2,(H,7,8)/t5-/m0/s1
