19
gdb 98225	3.08166	1.09642	0.82362	2.1181	76.08	-0.2572	-0.0194	0.2379	1372.7876	0.158029	-456.375538	-456.36554	-456.364596	-456.411467	35.706	
C	-1.4356519555	 0.9082337802	-0.2631037405	-0.333579
N	-0.3284391834	-0.0194993241	 0.0042790834	-0.143041
C	-0.1925624262	-0.4250915216	 1.3604483119	 0.355118
C	 0.9969905636	-1.2582391284	 1.7706638742	-0.441542
N	-1.104775919	-0.0198328421	 2.1542702507	-0.497923
C	 0.4212512214	-0.5321817986	-1.0323696422	 0.392395
O	 1.3142899586	-1.3541791694	-0.8960318664	-0.387237
C	 0.1224910029	-0.0521271467	-2.4643343044	-0.1528
O	 0.9581428082	-0.7155828731	-3.3608851769	-0.423644
H	-1.295710264	 1.3938339148	-1.2250811606	 0.137733
H	-2.3968851121	 0.3867007676	-0.2483072197	 0.145952
H	-1.4588173403	 1.6616457486	 0.5224773191	 0.163911
H	 1.9378407347	-0.8072522927	 1.450148299	 0.152031
H	 0.9897063303	-1.3514323461	 2.8594088816	 0.110996
H	 0.9661283708	-2.2514160873	 1.3203676603	 0.162462
H	-0.9101666804	-0.3366792701	 3.1017499407	 0.223925
H	-0.9354144943	-0.241076227	-2.7014649538	 0.120066
H	 0.2743144306	 1.037874468	-2.5207888775	 0.119496
H	 1.5168319841	-1.2826440023	-2.8019248588	 0.295681
34.9156	57.5215	107.8372	170.9264	215.0688	243.3291	248.8388	355.1523	400.6282	427.7962	436.377	454.6929	554.1973	563.2693	604.8619	651.3567	786.5156	866.8448	903.4549	994.2708	1030.4806	1073.3504	1101.4924	1109.0427	1149.9343	1162.6789	1199.1244	1273.0478	1298.8909	1374.6276	1381.2397	1419.5638	1462.8679	1466.4606	1473.1262	1473.9366	1479.1201	1505.4518	1521.4027	1698.1844	1753.0704	2975.4923	3004.0068	3059.0957	3066.678	3138.5183	3143.7646	3145.9902	3190.962	3507.7552	3649.7067
CN(C(C)=N)C(=O)CO	CN(C(=N)C)C(=O)CO	
InChI=1S/C5H10N2O2/c1-4(6)7(2)5(9)3-8/h6,8H,3H2,1-2H3	InChI=1S/C5H10N2O2/c1-4(6)7(2)5(9)3-8/h6,8H,3H2,1-2H3
