21
gdb 32658	1.99112	1.62681	0.97331	2.2093	86.88	-0.1693	0.0599	0.2292	1279.1456	0.183634	-383.298827	-383.289361	-383.288416	-383.333354	35.302	
C	-0.0869381487	 1.5593537363	-0.1444705863	-0.372925
C	-0.0443200371	 0.0381903492	 0.0277020182	-0.159889
N	-1.3605909857	-0.5758496773	 0.0249077301	-0.047796
C	-2.0652918832	-0.9495366489	 1.1560276178	-0.113164
C	-3.3151663203	-1.3560327936	 0.7714574893	-0.16676
C	-3.3878506429	-1.2395123422	-0.6484099328	-0.240957
C	-2.1694136175	-0.7544312362	-1.0771864049	 0.335789
N	-1.7147785154	-0.3820609816	-2.35151946	-0.389634
C	-2.6750083884	-0.5416189094	-3.4337955065	-0.320309
H	 0.9265804084	 1.9729812144	-0.1237519731	 0.11053
H	-0.5517027825	 1.8185430682	-1.0985742643	 0.143536
H	-0.6662140026	 2.019927402	 0.6609656148	 0.127264
H	 0.5694348493	-0.4116644812	-0.7620340486	 0.103973
H	 0.432311464	-0.2282389598	 0.9757176544	 0.117096
H	-1.5962724404	-0.8996982384	 2.1258155374	 0.105603
H	-4.0919965072	-1.7188202374	 1.4269659099	 0.086396
H	-4.2261654088	-1.4938629001	-1.2767518547	 0.084966
H	-0.8310637031	-0.8218652823	-2.5842012793	 0.229462
H	-3.540456251	 0.1002955772	-3.2437042745	 0.137423
H	-2.2114397188	-0.2235474955	-4.3710423246	 0.118431
H	-3.0410374482	-1.5736300433	-3.5554333825	 0.110964
73.6204	75.4029	125.5683	197.6779	208.0662	245.7244	292.695	326.3592	396.9073	502.254	600.3925	618.1399	628.6685	666.0326	701.4994	740.7574	779.3381	794.2444	814.4107	903.0312	961.4164	1027.5523	1081.2947	1088.0263	1107.9052	1124.634	1151.1018	1162.9944	1218.5779	1264.1246	1293.0465	1328.578	1384.5819	1404.2038	1412.2287	1435.3437	1454.7337	1483.6202	1488.1142	1493.9796	1508.644	1513.6577	1523.7634	1539.9407	1607.6089	2976.024	3030.3303	3042.3607	3074.1972	3083.5117	3114.2202	3118.8864	3135.3319	3240.8576	3257.5253	3267.7164	3514.7886
CCN1C=CC=C1NC	CCn1cccc1NC	
InChI=1S/C7H12N2/c1-3-9-6-4-5-7(9)8-2/h4-6,8H,3H2,1-2H3	InChI=1S/C7H12N2/c1-3-9-6-4-5-7(9)8-2/h4-6,8H,3H2,1-2H3
