16
gdb 56564	3.14706	1.06852	0.93695	4.5974	67.41	-0.2542	0.0073	0.2615	1244.7028	0.122937	-475.010004	-475.000668	-474.999724	-475.044435	33.968	
N	 0.1896536165	 1.017186376	 0.197551896	-0.527148
H	-0.3806948609	-0.61886831	 0.4771003191	 0.322457
H	 1.1302235551	 1.3701287196	 0.3397147221	 0.253756
H	-0.1284606614	 1.3375595844	-0.7134942755	 0.265534
C	-0.7252323501	 1.5600863737	 1.2268256563	-0.223328
C	-0.7807791859	 3.022691323	 1.2524146489	 0.334729
C	-0.8010280177	 4.2239847436	 1.2691967652	-0.422714
C	-2.1183697396	 0.938920021	 1.0062578803	 0.015389
O	-2.5232933937	 1.3092829388	-0.3064125417	-0.439915
C	-2.1654968946	-0.6037744764	 1.1269975367	 0.377721
O	-1.0648697723	-1.2731645243	 0.787497085	-0.369621
O	-3.1875679716	-1.1494751224	 1.459447272	-0.342996
H	-0.3643347626	 1.203766579	 2.199833467	 0.133279
H	-0.826550864	 5.2858990072	 1.2846690223	 0.205969
H	-2.8074616627	 1.332668382	 1.7621156199	 0.111312
H	-3.3763906644	 0.8940021547	-0.4759596235	 0.305577
55.5659	96.8611	132.5066	225.7451	234.778	299.5714	304.3111	358.9446	378.4875	412.8506	427.7933	561.092	640.5081	661.9335	668.4812	718.1698	782.0137	857.7093	898.843	950.848	1005.2736	1029.5358	1044.642	1121.5301	1167.0007	1269.4661	1285.9314	1308.7537	1362.5515	1390.0706	1416.5903	1506.9707	1638.5796	1847.3717	2236.6903	3037.2629	3049.1161	3178.687	3501.0356	3501.9965	3585.877	3811.1792
[NH3+]C(C#C)C(O)C([O-])=O	N[C@@H](C#C)[C@@H](O)C(=O)O	
InChI=1S/C5H7NO3/c1-2-3(6)4(7)5(8)9/h1,3-4,7H,6H2,(H,8,9)	InChI=1S/C5H7NO3/c1-2-3(6)4(7)5(8)9/h1,3-4,7H,6H2,(H,8,9)/t3-,4+/m0/s1
