19
gdb 79193	2.61893	1.83293	1.50119	2.737	72.57	-0.2455	0.0657	0.3112	944.3774	0.16183	-423.000388	-422.993154	-422.99221	-423.031653	30.188	
O	 0.1942363819	 1.406543688	 0.124161904	-0.447301
C	 0.0606391311	-0.0150661419	 0.0135414814	 0.058611
C	-1.3673218839	-0.5071969132	-0.0936192451	-0.07632
C	-2.2085737343	-0.069672759	-1.2948672083	-0.089876
C	-1.3373015546	 0.365722793	-2.4790713742	-0.245599
C	-0.442698914	-0.8855467571	-2.2210165176	-0.073273
C	-1.5414103768	-1.4340042395	-1.2670181918	-0.088745
C	 0.7406581028	-0.5467232392	-1.2975782532	 0.136376
O	 1.6570183412	 0.3716433875	-1.8361422527	-0.449712
H	-0.598022117	 1.7999899667	-0.2566437307	 0.293989
H	 0.5594661842	-0.4193254383	 0.8989968001	 0.088169
H	-1.9329071051	-0.7009230041	 0.810989292	 0.089632
H	-3.2575318748	 0.1645256572	-1.1546585237	 0.088234
H	-1.8895262983	 0.2750274406	-3.4174924533	 0.10663
H	-0.843832664	 1.3432572433	-2.4600101591	 0.085636
H	-0.1677327068	-1.4711873053	-3.0969509025	 0.073984
H	-1.9716329055	-2.4250818658	-1.2228407329	 0.090908
H	 1.2723728175	-1.4784463949	-1.0576221599	 0.072373
H	 1.5062991164	 1.1953036118	-1.3472548626	 0.286283
120.0838	227.5854	303.9442	321.7375	323.4211	467.7538	501.9974	546.0812	570.5242	659.5936	684.0296	766.675	798.7753	802.7754	838.5896	867.7043	927.3081	966.5726	971.6603	987.2931	1011.4024	1040.2719	1065.823	1071.7978	1097.7279	1118.2798	1134.5005	1146.4781	1199.1854	1232.6967	1233.6684	1252.9096	1280.6666	1296.1722	1316.5112	1337.0152	1380.1038	1397.2802	1418.9683	1438.68	1506.0063	3000.2906	3044.0572	3066.4354	3098.5475	3124.2331	3170.5454	3179.0127	3207.8981	3696.4045	3817.5743
OC1C2C3CC(C23)C1O	O[C@H]1[C@H]2[C@H]3C[C@H]([C@@H]23)[C@H]1O	
InChI=1S/C7H10O2/c8-6-3-1-2-4(3)5(2)7(6)9/h2-9H,1H2	InChI=1S/C7H10O2/c8-6-3-1-2-4(3)5(2)7(6)9/h2-9H,1H2/t2-,3+,4-,5-,6+,7-/m0/s1
