17
gdb 52910	2.33054	1.1403	0.87027	1.9416	84.56	-0.2487	0.0036	0.2522	1389.6477	0.132535	-384.603657	-384.593755	-384.592811	-384.640651	34.327	
C	 0.1282020891	 1.5767410644	-0.1205478348	-0.501457
C	 0.0919032028	 0.1240223545	-0.0548780105	 0.076172
C	 0.0577937862	-1.0786852114	-0.0131354218	 0.065075
C	 0.0118477039	-2.5340872138	 0.0639777413	 0.055692
C	 0.1549419115	-3.1430516873	 1.5029004071	-0.323471
C	-1.2686781523	-3.6760545188	 1.2766738248	-0.068831
O	-1.3534242755	-3.0516256541	-0.0226071637	-0.295823
C	 0.8810101308	-3.1435869961	-0.9419297316	 0.320076
C	 1.5996363939	-3.670122358	-1.7482389394	-0.4633
H	 0.7431811169	 1.9205547539	-0.9591749543	 0.154391
H	-0.8784969914	 1.9872928626	-0.2549020603	 0.155944
H	 0.5426725548	 2.0067836701	 0.7977530197	 0.15041
H	 0.9422653719	-3.8898743776	 1.5953939004	 0.127855
H	 0.2578653313	-2.3882208735	 2.2813242042	 0.126815
H	-1.3580044425	-4.7663135778	 1.208257001	 0.110009
H	-2.0368824272	-3.2956351079	 1.9589052054	 0.109857
H	 2.2299391455	-4.1246235992	-2.4722632774	 0.200585
19.237	45.8975	85.2398	111.9721	183.7831	205.7522	299.8508	321.6266	447.8403	471.5962	521.1364	549.1029	570.6642	630.852	662.8999	781.8796	847.8947	884.1932	950.2611	983.4456	1011.0843	1039.2452	1050.8738	1053.2755	1140.0404	1163.191	1210.6261	1254.3916	1271.3365	1346.0915	1412.6041	1475.1188	1477.0055	1483.7463	1529.8332	2234.7829	2368.7251	3027.6847	3029.612	3069.4884	3091.7162	3093.1666	3100.9154	3164.9424	3501.3443
CC#CC1(CCO1)C#C	CC#C[C@]1(CCO1)C#C	
InChI=1S/C8H8O/c1-3-5-8(4-2)6-7-9-8/h2H,6-7H2,1H3	InChI=1S/C8H8O/c1-3-5-8(4-2)6-7-9-8/h2H,6-7H2,1H3/t8-/m0/s1
