21
gdb 60327	3.75287	0.73684	0.68817	3.5514	82.84	-0.234	-0.0678	0.1662	1706.784	0.180359	-420.428193	-420.417408	-420.416464	-420.464914	38.165	
C	-0.1998172274	 1.4687199241	-0.032675875	-0.389916
C	-0.3071531626	-0.0589556842	 0.0400222009	 0.041949
C	 0.9359484719	-0.6761923305	 0.6908179401	-0.387358
C	-1.5986989051	-0.452387108	 0.785084041	-0.155768
N	-1.8757609375	-1.8787034441	 0.8049455627	-0.317451
C	-2.4407589059	-2.5298574167	-0.2526579181	 0.285219
N	-2.8245340541	-1.9404385288	-1.3220358788	-0.519576
C	-2.6034795301	-4.0195981209	-0.0345630196	 0.109114
O	-3.104102141	-4.745834952	-0.850990696	-0.234335
H	 0.6931635176	 1.7732403901	-0.5873525864	 0.114593
H	-1.0701298068	 1.9063250486	-0.5322380694	 0.120855
H	-0.1313516226	 1.9090867918	 0.969926065	 0.108825
H	-0.4011048027	-0.4484726203	-0.9804054171	 0.105911
H	 0.8695050424	-1.76828121	 0.7334886105	 0.101509
H	 1.8401454687	-0.4246989159	 0.1276088116	 0.118525
H	 1.0712928184	-0.3050180526	 1.7148788163	 0.106859
H	-1.5503748267	-0.1042284279	 1.8241109665	 0.098048
H	-2.4536398464	 0.0334481701	 0.3053002499	 0.138034
H	-1.4872211008	-2.4344305869	 1.547961205	 0.245165
H	-3.2510567718	-2.6381740282	-1.9341185886	 0.233209
H	-2.2291853075	-4.4139352675	 0.9388401395	 0.076588
51.8566	56.0926	69.4975	159.2247	217.7568	223.5043	245.8581	262.8373	298.2671	315.6509	350.1594	408.1946	413.3253	550.5901	594.7608	709.8415	817.2692	863.8269	870.1379	925.9214	935.9036	963.2725	974.6186	1021.7836	1044.6155	1143.3538	1177.2413	1182.2194	1194.1909	1286.3579	1328.6753	1345.5792	1376.2202	1392.4405	1399.904	1421.7536	1433.8074	1468.0029	1488.6987	1494.0193	1503.9641	1511.1947	1558.3218	1696.8762	1835.5052	2861.0552	3019.9871	3023.7104	3029.1194	3047.5574	3085.6323	3090.0931	3097.1103	3101.6627	3105.0202	3471.2905	3653.2525
CC(C)CNC(=N)C=O	CC(C)CNC(=N)C=O	
InChI=1S/C6H12N2O/c1-5(2)3-8-6(7)4-9/h4-5H,3H2,1-2H3,(H2,7,8)	InChI=1S/C6H12N2O/c1-5(2)3-8-6(7)4-9/h4-5H,3H2,1-2H3,(H2,7,8)
