24
gdb 59995	2.3903	1.11589	0.85546	2.2217	85.95	-0.2361	0.0718	0.308	1471.1885	0.215356	-405.525049	-405.514236	-405.513292	-405.561481	39.619	
C	 0.1905546029	 1.2025299782	-0.7920557991	-0.392972
C	 0.0919947745	-0.2290219381	-0.2759843507	 0.146688
C	 0.9559431672	-0.4492197643	 0.9684827016	-0.388802
O	-1.2924375576	-0.4673892088	-0.0183319309	-0.281207
C	-1.6990958358	-1.8221712473	 0.148155557	 0.082414
C	-2.1029035009	-2.0900722529	 1.5999685509	-0.388059
C	-2.8584589248	-2.1098541911	-0.7982505907	 0.020628
C	-3.8657259946	-1.0672726901	-1.1008774614	-0.234469
N	-2.9026567118	-1.5060178809	-2.1334463634	-0.335285
H	 1.2265835424	 1.4516073828	-1.0392063648	 0.11562
H	-0.4212155624	 1.3351022342	-1.6886706203	 0.120135
H	-0.1625146653	 1.9053096726	-0.0308011834	 0.125128
H	 0.4290372848	-0.9191400473	-1.0669209755	 0.072476
H	 0.6208079092	 0.2013784298	 1.7826504536	 0.122981
H	 0.9095904207	-1.4860275287	 1.3135888562	 0.117761
H	 2.0037224944	-0.2195101461	 0.7492727001	 0.11432
H	-0.8654401105	-2.4869678449	-0.1262082557	 0.074792
H	-2.8968517792	-1.3997643281	 1.8989627237	 0.127738
H	-2.4757218901	-3.1134992164	 1.714047053	 0.114124
H	-1.2566028063	-1.9565778026	 2.2784462304	 0.115984
H	-3.180695771	-3.149518235	-0.7757875162	 0.085799
H	-4.8993238421	-1.3437544552	-1.2878482969	 0.110903
H	-3.7178625426	-0.0875036245	-0.6574369429	 0.121485
H	-2.1667716813	-0.8024473051	-2.1757801447	 0.231816
43.9075	67.5778	86.3687	181.8939	211.5349	213.636	223.276	262.5272	278.5271	334.8591	378.618	447.0048	473.7805	502.9534	592.9816	772.3761	817.1315	860.5424	882.6931	921.3003	927.2973	943.8634	967.1798	972.5541	1012.5791	1071.8439	1090.8016	1118.5233	1133.8932	1149.3037	1164.7878	1176.3733	1199.0228	1211.1401	1277.6571	1305.8447	1342.1462	1355.028	1371.0166	1396.1211	1400.2308	1408.6639	1417.4746	1422.839	1480.1028	1483.6713	1488.1323	1491.8054	1498.9815	1501.3959	1510.5621	2964.2297	2983.2704	3035.5683	3040.8019	3042.6823	3106.8777	3110.8705	3112.9732	3116.0578	3117.1489	3120.3012	3122.8592	3125.2201	3206.7302	3480.2539
CC(C)OC(C)C1CN1	CC(C)O[C@@H](C)[C@H]1CN1	
InChI=1S/C7H15NO/c1-5(2)9-6(3)7-4-8-7/h5-8H,4H2,1-3H3	InChI=1S/C7H15NO/c1-5(2)9-6(3)7-4-8-7/h5-8H,4H2,1-3H3/t6-,7+/m0/s1
