19
gdb 85439	2.46478	1.53722	1.16096	4.2335	75.42	-0.2607	0.0151	0.2758	1117.7226	0.159199	-423.067524	-423.059254	-423.05831	-423.100333	32.072	
C	 0.0797867756	 1.7058772795	-0.1196164598	-0.39564
C	-0.0125003774	 0.1835490147	 0.0437477424	-0.089456
C	 0.7379129612	-0.5637650832	-1.0719504959	-0.368967
C	 2.1374422492	-0.7656216715	-0.4993551915	 0.416837
O	 3.1510048532	-1.0401735398	-1.0708071452	-0.335224
O	 2.0878888405	-0.5835553682	 0.8522731443	-0.254857
C	 0.748310941	-0.3225395884	 1.2673921898	 0.458819
C	 0.5802766087	 0.1573074448	 2.667754113	-0.335448
C	 0.1805180214	-1.2612627784	 2.2914755554	-0.335128
H	 1.1234593571	 2.0351236695	-0.1632363888	 0.133672
H	-0.4134976369	 2.0255468163	-1.0428230949	 0.119285
H	-0.3985570126	 2.2243376849	 0.7162543263	 0.120564
H	-1.0621566033	-0.1172296301	 0.0985918157	 0.085193
H	 0.3104342912	-1.5546306318	-1.2621441154	 0.138704
H	 0.7885269599	-0.034377747	-2.0247437891	 0.134771
H	 1.4809435306	 0.2823450123	 3.2575761524	 0.136028
H	-0.2023154229	 0.8798269759	 2.8731541381	 0.120861
H	-0.875293696	-1.5058507325	 2.2400541056	 0.11786
H	 0.8231106994	-2.0646883368	 2.6328819076	 0.132123
95.144	113.1582	210.0135	242.7603	269.8025	323.8295	364.116	499.5039	516.1979	539.0761	565.3215	670.7766	756.5407	768.1395	846.0704	876.9161	903.9062	935.8241	953.8607	976.872	992.3499	1036.2917	1055.0237	1081.5748	1094.4999	1107.7723	1170.9517	1187.756	1200.7201	1236.4439	1301.3353	1308.2313	1345.501	1388.5804	1413.3986	1452.7119	1459.476	1494.5981	1498.3108	1504.7583	1887.4885	3036.9888	3054.8697	3071.1432	3108.1251	3112.3923	3125.424	3134.0273	3138.049	3220.1921	3233.5082
CC1CC(=O)OC11CC1	C[C@H]1CC(=O)OC21CC2	
InChI=1S/C7H10O2/c1-5-4-6(8)9-7(5)2-3-7/h5H,2-4H2,1H3	InChI=1S/C7H10O2/c1-5-4-6(8)9-7(5)2-3-7/h5H,2-4H2,1H3/t5-/m0/s1
