14
gdb 24938	4.99165	1.29092	1.03225	3.0184	68.61	-0.2024	-0.0045	0.1978	1059.428	0.102969	-436.739811	-436.732888	-436.731944	-436.771429	26.394	
O	-0.0308457178	 0.0114671215	 0.0042673553	-0.357173
C	-0.0325341951	 1.2171151739	 0.0104546367	 0.406454
C	-1.2898286443	 2.1539531826	 0.0327287311	-0.493643
C	-0.628935202	 3.4835326682	 0.0300381662	 0.302349
C	 0.7203789553	 3.3843889025	 0.0105326953	 0.300541
N	 1.0939851603	 2.0325205594	-0.0015173871	-0.449671
C	 1.2458096906	 4.7087708165	 0.0098039668	-0.341737
C	 0.1347332963	 5.5091596808	 0.0297064664	-0.010764
O	-1.0203073843	 4.7796036445	 0.0420925699	-0.189498
H	-1.9109542636	 1.9335711608	-0.8424239251	 0.154269
H	-1.8861585105	 1.9248370574	 0.9227585385	 0.154258
H	 2.0255448341	 1.6540018472	-0.016513298	 0.263503
H	 2.2708849444	 5.0418294763	-0.0029999278	 0.119922
H	 0.0067933665	 6.5783639584	 0.0370040819	 0.141191
90.1635	127.3232	283.3902	344.2836	410.5407	538.9056	540.8186	567.0512	604.348	687.8663	714.3081	724.8864	801.179	817.3591	833.0405	926.601	959.966	1053.2507	1096.7133	1138.8164	1158.4894	1217.6294	1228.9986	1281.3094	1314.7879	1397.7088	1451.2632	1500.8059	1530.7988	1650.9482	1844.9614	3047.6221	3082.0355	3263.1959	3292.1309	3674.593
O=C1CC2=C(N1)C=CO2	O=C1Cc2c(N1)cco2	
InChI=1S/C6H5NO2/c8-6-3-5-4(7-6)1-2-9-5/h1-2H,3H2,(H,7,8)	InChI=1S/C6H5NO2/c8-6-3-5-4(7-6)1-2-9-5/h1-2H,3H2,(H,7,8)
