17
gdb 128580	6.4252	0.87528	0.77796	3.0754	72.74	-0.2089	0.0508	0.2597	1444.1932	0.135675	-455.142322	-455.133064	-455.13212	-455.17686	32.324	
C	 0.0197733488	 1.404862114	-0.0435486387	-0.264064
O	-0.0009964678	-0.0127042951	-0.0025304917	-0.257515
C	 0.5839042538	-0.6638377373	-1.0231352127	 0.548363
C	 0.6954991064	-2.0261881912	-1.1978735414	-0.518861
C	 1.3910200718	-2.1405904988	-2.4246977358	 0.495245
O	 1.719246951	-3.3165150383	-2.9856493588	-0.26758
C	 2.419276196	-3.2362742619	-4.2224043143	-0.23115
N	 1.692145214	-0.9738478647	-2.9752669724	-0.352634
N	 1.1786855677	-0.063748999	-2.085004651	-0.323963
H	 1.0476126394	 1.7911823711	-0.0393886588	 0.128169
H	-0.5121905248	 1.7884857077	-0.9242451495	 0.12816
H	-0.4918778859	 1.7451431913	 0.8570182681	 0.150287
H	 0.3352939471	-2.8050182383	-0.5499223924	 0.112569
H	 1.8228701033	-2.7160664041	-4.9794616207	 0.129632
H	 3.3682542414	-2.7025546488	-4.1038878534	 0.129575
H	 2.6028612007	-4.2667157985	-4.5304892507	 0.123167
H	 1.2858107269	 0.914299672	-2.2785818158	 0.270602
54.9531	93.9509	161.3937	181.6195	182.0232	216.4625	269.6481	283.981	387.1984	443.5537	572.3555	640.9311	671.1107	712.7685	749.388	759.7299	978.6371	1022.606	1053.1727	1093.8496	1152.5168	1175.0958	1180.6212	1196.9497	1221.6274	1236.7293	1304.2371	1433.3759	1451.0257	1472.6273	1477.5294	1491.5341	1501.9384	1508.5245	1533.4916	1575.3895	1634.42	3001.3791	3029.644	3060.9527	3093.9952	3140.3135	3146.2403	3292.2642	3712.4767
COC1=CC(OC)=NN1	COc1cc(OC)n[nH]1	
InChI=1S/C5H8N2O2/c1-8-4-3-5(9-2)7-6-4/h3H,1-2H3,(H,6,7)	InChI=1S/C5H8N2O2/c1-8-4-3-5(9-2)7-6-4/h3H,1-2H3,(H,6,7)
