25
gdb 109676	2.59	0.95317	0.88149	1.219	89.92	-0.2522	0.0758	0.328	1521.4318	0.226456	-389.483937	-389.472426	-389.471482	-389.520397	41.969	
C	-0.6018717828	 2.2501229821	 2.2336586149	-0.372179
C	-0.1357811482	 1.284724662	 1.1363097819	-0.204333
C	 0.6410332052	 0.1069984118	 1.6931045813	-0.067524
C	-0.0098876475	-1.1703071613	 2.1945336868	-0.034566
C	-1.5057460619	-1.4053127399	 2.1918830134	-0.419517
C	 0.8433210325	-1.1952958336	 0.9388356257	 0.308776
C	 0.2247279949	-1.4185130244	-0.4300168318	-0.464638
C	 2.2082428879	-1.8340185394	 1.0762714767	-0.137583
O	 2.0669441839	-3.2457561659	 0.948792125	-0.423654
H	 0.2483849149	 2.6378455047	 2.805917308	 0.111972
H	-1.1357008952	 3.1064176811	 1.8092132981	 0.107836
H	-1.2727533885	 1.750196289	 2.939812737	 0.119242
H	-1.0035562025	 0.9461354331	 0.5618070845	 0.094803
H	 0.4995390854	 1.826665698	 0.422897078	 0.094382
H	 1.5039669991	 0.4296004635	 2.2755408954	 0.068137
H	 0.4744914228	-1.6108130457	 3.0635679105	 0.078123
H	-2.0143457935	-0.9161347291	 1.3579464578	 0.11454
H	-1.7298390484	-2.4759396642	 2.1291982989	 0.121762
H	-1.9584784765	-1.0271507903	 3.1154756173	 0.113943
H	-0.7960846988	-1.0410070569	-0.5062524636	 0.109986
H	 0.8177056836	-0.9225878494	-1.2084795945	 0.106486
H	 0.2076574614	-2.4881184271	-0.6569407778	 0.133777
H	 2.8829535663	-1.4385228704	 0.2983397683	 0.078619
H	 2.6437055621	-1.5714875602	 2.05355614	 0.076996
H	 2.9462264637	-3.6305185277	 0.8911857683	 0.284613
64.0462	88.4346	130.4456	150.0353	166.7692	195.9435	229.0617	232.2184	249.5922	278.4351	306.692	337.2671	371.8904	454.0716	524.8022	598.6347	691.0495	765.2418	793.5794	841.5238	935.2944	957.5618	968.4031	1002.1526	1027.8578	1051.3448	1058.3542	1074.8543	1109.6485	1116.3204	1138.2975	1174.1343	1190.9472	1237.0102	1251.6573	1268.9313	1298.2953	1338.6303	1354.9564	1392.5695	1410.7518	1412.2615	1419.0727	1455.0646	1463.2364	1479.8539	1489.8038	1496.9142	1499.3363	1502.6823	1507.1272	1516.48	1522.7859	2954.0084	2987.1113	3018.2459	3030.0905	3030.8512	3033.3461	3067.7593	3085.6745	3094.6219	3097.7245	3102.5192	3105.2099	3110.2516	3126.9881	3135.7551	3830.0985
CCC1C(C)C1(C)CO	CC[C@H]1[C@@H](C)[C@]1(C)CO	
InChI=1S/C8H16O/c1-4-7-6(2)8(7,3)5-9/h6-7,9H,4-5H2,1-3H3	InChI=1S/C8H16O/c1-4-7-6(2)8(7,3)5-9/h6-7,9H,4-5H2,1-3H3/t6-,7+,8+/m1/s1
