16
gdb 42593	3.27512	1.9921	1.81222	2.6714	69.59	-0.2334	-0.0199	0.2135	805.8203	0.127794	-400.716506	-400.710822	-400.709878	-400.746372	24.373	
O	 0.0365933508	 0.0034855	 0.0473105184	-0.328189
C	 0.0080290695	 1.1988045703	 0.0026949346	 0.450392
C	-1.1804679745	 2.1789601457	 0.0430601954	-0.12943
C	-0.8628855138	 2.9739307507	 1.3132834996	-0.095381
C	 0.6502707198	 3.214246443	 1.0752675314	-0.084143
C	-0.4058616061	 4.1099193366	 0.4618650428	-0.034367
N	-0.7324582742	 3.3832923983	-0.7986045672	-0.137195
C	 0.6140796868	 2.9940072032	-1.3066410838	-0.182972
C	 1.1285049664	 2.2573928153	-0.041243936	-0.181775
H	-2.1777314768	 1.8013852759	-0.1632070863	 0.098044
H	-1.3511568896	 2.9443615884	 2.2772052643	 0.104517
H	 1.2821057942	 3.5322447395	 1.8923230093	 0.101936
H	-0.4920356494	 5.1843282018	 0.5626246895	 0.098767
H	 0.5322706777	 2.3473803179	-2.1868811898	 0.117672
H	 1.1875516068	 3.8882648325	-1.5628536737	 0.115293
H	 2.1508006723	 1.8923188009	-0.0005059783	 0.08683
150.4204	376.7881	435.7781	548.0727	559.1711	693.9301	734.6677	747.9281	779.4576	781.0394	816.6438	837.8545	869.0695	910.1701	915.7829	933.6404	952.814	985.6034	1009.972	1023.8383	1054.1653	1063.145	1092.5879	1130.2908	1182.126	1186.7712	1193.2134	1210.5444	1241.8862	1244.3993	1257.1508	1319.7694	1354.5277	1496.389	1883.5711	3051.4055	3112.752	3163.4816	3165.5687	3190.8378	3212.7446	3225.2606
O=C1C2C3C4C3N2CC14	O=C1[C@H]2[C@H]3[C@@H]4[C@H]3N2C[C@H]14	
InChI=1S/C7H7NO/c9-7-2-1-8-5-3(2)4(5)6(7)8/h2-6H,1H2	InChI=1S/C7H7NO/c9-7-2-1-8-5-3(2)4(5)6(7)8/h2-6H,1H2/t2-,3+,4-,5+,6+/m0/s1
