20
gdb 88636	3.45258	1.01142	0.91289	3.8345	80.23	-0.2458	0.0321	0.2779	1342.9312	0.171051	-403.160195	-403.151274	-403.150329	-403.194344	33.617	
C	 0.2094627874	 1.5452293624	-0.3021463574	-0.415871
C	-0.0089770141	 0.0778354216	 0.0032098109	-0.002995
C	 1.125023394	-0.9194016216	-0.0734782853	-0.303832
C	 0.4827527376	-0.6131935361	 1.2567301806	-0.01124
C	 1.2285709584	 0.0446387353	 2.3962690627	 0.023052
C	 2.245178448	-0.8571563547	 3.1684179167	-0.393733
C	 3.2914463988	 0.2297663023	 2.8372447112	 0.425977
O	 4.4360086048	 0.4522452938	 3.1230396388	-0.353684
N	 2.3720267284	 0.9191715219	 2.0728719467	-0.328484
H	 1.2406659472	 1.8537071009	-0.1145597859	 0.113609
H	 0.0045224029	 1.7470037289	-1.3590293915	 0.12364
H	-0.4536262543	 2.1870690722	 0.2892874977	 0.115431
H	-0.970838094	-0.2900328304	-0.3465072448	 0.086364
H	 0.954314903	-1.8883133803	-0.5294633208	 0.110349
H	 2.1180495015	-0.5134308467	-0.2389526724	 0.12296
H	-0.1929730254	-1.3766130133	 1.6378668217	 0.089917
H	 0.5175775903	 0.5321233487	 3.0753660572	 0.085016
H	 2.0584021894	-0.9846655128	 4.2358556467	 0.130469
H	 2.4383602864	-1.8257147839	 2.7037502586	 0.133738
H	 2.3921208298	 1.8848267118	 1.7785027485	 0.249318
57.0183	83.0583	140.4202	217.4	239.1353	261.7156	360.9954	430.1571	465.4034	497.4034	569.8691	602.8928	705.431	770.2286	785.1795	854.5783	881.1394	923.9068	943.7267	977.5822	979.7355	1030.1459	1066.5557	1082.3092	1109.34	1117.9932	1138.9563	1152.447	1179.1492	1195.8315	1200.7876	1243.1819	1283.1111	1369.2699	1383.6073	1392.8724	1415.5449	1425.2636	1454.2534	1492.2795	1502.362	1505.057	1896.6016	3019.6147	3032.4153	3086.7058	3087.7654	3112.8892	3122.213	3130.8971	3136.9137	3147.2967	3216.5633	3605.6872
CC1CC1C1CC(=O)N1	C[C@H]1C[C@H]1[C@H]1CC(=O)N1	
InChI=1S/C7H11NO/c1-4-2-5(4)6-3-7(9)8-6/h4-6H,2-3H2,1H3,(H,8,9)	InChI=1S/C7H11NO/c1-4-2-5(4)6-3-7(9)8-6/h4-6H,2-3H2,1H3,(H,8,9)/t4-,5+,6+/m0/s1
