15
gdb 87084	4.54927	0.70165	0.67705	4.4549	84.75	-0.2526	-0.0468	0.2057	1611.1023	0.112199	-416.770129	-416.76126	-416.760316	-416.804057	32.565	
N	-0.1954054825	 1.3701909074	-0.0155601782	-0.570911
C	-0.0372615507	-0.0691471309	-0.0044644073	-0.022585
C	-0.5233447171	-0.7623702488	 1.2748915893	-0.343826
C	-1.3940835511	-0.8084677006	 0.0612493422	 0.143673
O	-2.5375549473	-0.0454236655	-0.0369708181	-0.419261
C	 1.0446009042	-0.6423948069	-0.7383387087	 0.107316
C	 1.9572020155	-1.1078041635	-1.3859518651	 0.056197
C	 2.9860650872	-1.6353472984	-2.1076045718	 0.189303
N	 3.8647873857	-2.0840964824	-2.7226945406	-0.339383
H	 0.5041821637	 1.8221866375	 0.5651772304	 0.25162
H	-0.0903657823	 1.7316798849	-0.9589410732	 0.252864
H	 0.0026729394	-1.659700618	 1.5786306187	 0.139112
H	-0.8172902216	-0.0957076151	 2.0785744911	 0.134015
H	-1.4742914107	-1.7440381976	-0.4809735859	 0.128971
H	-2.2578589523	 0.8714592179	 0.1214952272	 0.292896
76.2995	81.9864	190.3478	226.0233	263.3418	277.8746	319.297	387.4323	482.4794	520.3282	528.8045	564.5867	588.0305	595.0474	668.8019	781.7154	807.2124	885.6987	919.2795	1005.9881	1040.9777	1066.0731	1110.6005	1173.987	1227.4497	1280.8177	1318.2573	1359.5601	1438.5219	1468.1056	1656.0839	2251.9588	2380.1943	3139.0941	3183.9258	3237.2507	3497.4075	3575.7133	3673.1759
NC1(CC1O)C#CC#N	N[C@]1(C[C@H]1O)C#CC#N	
InChI=1S/C6H6N2O/c7-3-1-2-6(8)4-5(6)9/h5,9H,4,8H2	InChI=1S/C6H6N2O/c7-3-1-2-6(8)4-5(6)9/h5,9H,4,8H2/t5-,6+/m1/s1
