12
gdb 21566	4.11059	1.91631	1.30894	8.2903	61.3	-0.2271	-0.0544	0.1727	843.4355	0.085062	-410.832668	-410.82589	-410.824946	-410.863628	25.303	
N	 0.0592507474	 1.4140229788	-0.1649218131	-0.579729
C	-0.0357033199	 0.0419179198	-0.0533224685	 0.501669
C	-1.1865371017	-0.6829130681	-0.0186000424	-0.357322
C	-1.1237523133	-2.1224379227	 0.020993985	 0.431286
O	-2.0730357337	-2.8749346267	 0.0592026123	-0.357706
N	 0.212541678	-2.7094181928	 0.0260719023	-0.230685
N	 1.2513778236	-2.0105900251	-0.003565622	-0.029077
N	 1.1467383711	-0.645230435	-0.031473833	-0.302439
H	 0.8197583952	 1.8503648817	 0.3380803614	 0.262483
H	-0.8152854253	 1.8995033919	-0.0245983417	 0.272046
H	-2.1549562691	-0.1990777624	-0.0129301552	 0.11251
H	 2.0363946777	-0.1868670493	-0.1490523651	 0.276964
103.4691	186.4725	292.4882	341.1714	411.0094	495.7521	520.3118	540.1024	568.5086	592.3754	698.7647	721.113	777.0561	848.3835	920.9803	999.7497	1047.8525	1121.4545	1215.1924	1277.4652	1375.0228	1473.993	1607.1103	1644.0386	1687.4161	1794.1479	3212.6154	3559.098	3644.7664	3659.9669
NC1=CC(=O)N=NN1	Nc1cc(=O)nn[nH]1	
InChI=1S/C3H4N4O/c4-2-1-3(8)6-7-5-2/h1H,(H3,4,5,6,8)	InChI=1S/C3H4N4O/c4-2-1-3(8)6-7-5-2/h1H,(H3,4,5,6,8)
