18
gdb 5973	2.75593	1.45326	1.21924	3.4431	69.14	-0.2675	0.0342	0.3016	1087.3119	0.152073	-381.119132	-381.109483	-381.108539	-381.153401	33.966	
C	 0.7416897813	 1.4240466598	-0.3306742527	-0.229
O	 0.9914185911	 0.0378052126	-0.3897240642	-0.232931
C	-0.0910431553	-0.6991544727	-0.8922774366	-0.040936
C	 0.312725563	-2.1836436304	-0.974296309	 0.054147
C	 0.6625779959	-2.724197113	 0.4205226713	-0.399198
N	-0.8443493317	-2.9170674018	-1.502076408	-0.524832
C	 1.4944730582	-2.3152890393	-1.8643666504	 0.264899
N	 2.3732941483	-2.4680261506	-2.6001826292	-0.345797
H	 0.5280934564	 1.8396011115	-1.3271732245	 0.112703
H	-0.1071766809	 1.6561567574	 0.3308569753	 0.108562
H	 1.6418129307	 1.8982550214	 0.0658574515	 0.136058
H	-0.9752385667	-0.6267235806	-0.2400835103	 0.106565
H	-0.3817250229	-0.3396834335	-1.8938750198	 0.093109
H	-0.2321762902	-2.6828896833	 1.0473771768	 0.131402
H	 1.0027128763	-3.7619573293	 0.3602359304	 0.126416
H	 1.4511013003	-2.1210960182	 0.8716627635	 0.155324
H	-1.0037641406	-2.6680840644	-2.4748080344	 0.241557
H	-0.6505137031	-3.9143509356	-1.4912226798	 0.241952
68.4985	106.9594	150.5223	193.1421	209.4951	228.3714	255.1567	282.6418	334.8564	387.538	406.3969	433.7756	590.7991	628.1235	719.8664	880.2283	907.904	975.5259	1003.0505	1023.601	1075.8565	1159.9592	1179.1305	1194.4657	1213.3359	1236.9791	1275.6921	1347.8074	1393.9595	1414.7266	1480.0587	1486.8068	1489.7668	1494.2873	1501.9011	1524.3367	1662.1778	2343.8808	2960.3686	2979.4618	3008.3179	3026.3287	3051.8059	3124.1156	3124.7908	3156.4343	3490.4032	3568.5477
COCC(C)(N)C#N	COC[C@@](C)(N)C#N	
InChI=1S/C5H10N2O/c1-5(7,3-6)4-8-2/h4,7H2,1-2H3	InChI=1S/C5H10N2O/c1-5(7,3-6)4-8-2/h4,7H2,1-2H3/t5-/m0/s1
