17
gdb 29586	2.95762	1.3885	0.99628	1.9784	74.87	-0.1934	0.037	0.2304	1154.6564	0.138032	-418.003877	-417.99573	-417.994786	-418.036885	31.1	
O	-0.3036651231	 1.2802188007	 0.1181500564	-0.448897
C	-0.0981309344	-0.0662477626	 0.0507023168	 0.228663
C	-0.0373961751	-0.7916897937	-1.1151514998	-0.168286
N	 0.1833561056	-2.1059304071	-0.7540756224	-0.237844
C	 0.2606359669	-2.2180554995	 0.6017775146	-0.165884
C	 0.0831172827	-0.9605830057	 1.1513574094	 0.131479
C	 0.1051631771	-0.5915422396	 2.5875425716	-0.153166
C	-1.0033785565	 0.2234121939	 3.1742143848	-0.256921
N	-0.858460613	-1.1950296678	 3.5333270481	-0.310107
H	-0.2709451617	 1.5321123035	 1.0471468383	 0.295522
H	-0.1323411269	-0.4874416055	-2.1431042945	 0.122511
H	 0.2664837311	-2.868909953	-1.4011410531	 0.2641
H	 0.4354227726	-3.1687410571	 1.0796492202	 0.126222
H	 1.0880631011	-0.466051056	 3.0396867602	 0.102783
H	-0.7967143891	 0.9216969635	 3.9805066776	 0.119132
H	-1.8271215567	 0.5070239033	 2.5238171895	 0.121038
H	-1.5306206906	-1.7360805272	 2.9933191424	 0.229653
57.0715	146.9097	161.4191	284.4794	315.724	344.9639	387.9084	443.8238	518.1886	610.6419	626.2018	649.2637	711.2133	738.2056	760.0185	839.6215	872.9043	907.5904	966.5664	1007.9649	1075.5895	1089.8401	1127.8037	1151.5508	1174.9731	1183.0468	1235.1611	1254.6008	1286.6003	1308.5337	1351.2477	1410.4799	1429.8686	1484.6512	1505.4301	1565.5123	1651.8359	3105.1331	3107.5152	3192.5824	3261.3174	3282.4154	3491.892	3696.44	3814.1874
OC1=CNC=C1C1CN1	Oc1c[nH]cc1[C@H]1CN1	
InChI=1S/C6H8N2O/c9-6-3-7-1-4(6)5-2-8-5/h1,3,5,7-9H,2H2	InChI=1S/C6H8N2O/c9-6-3-7-1-4(6)5-2-8-5/h1,3,5,7-9H,2H2/t5-/m1/s1
