16
gdb 27272	3.19515	1.52306	1.06987	11.9635	77.57	-0.1319	-0.0052	0.1267	1068.049	0.126962	-437.853279	-437.846083	-437.845138	-437.884981	28.114	
O	 0.0801727832	 0.0518858227	 0.113010476	-0.430432
C	-0.082258749	 1.253550885	 0.0450159191	 0.278967
C	-1.1762880836	 2.1318397962	-0.0886086991	 0.022687
C	-2.6403495536	 2.0738570516	-0.0580818757	-0.344866
N	-2.9422346034	 3.4857654897	 0.5523936022	-0.262897
H	-3.8878566189	 3.8261382318	 0.3625856137	 0.282779
H	-2.8073321245	 3.4141917687	 1.5608667813	 0.305687
C	-1.8482592599	 4.4220739999	-0.0074624464	-0.340328
C	-0.7004489197	 3.4826841762	-0.0662618816	 0.233912
C	 0.6449619415	 3.4482299453	 0.0526390784	-0.189148
O	 1.062840993	 2.1457218795	 0.0801383571	-0.231571
H	-3.1884978599	 2.097323363	-1.0182629535	 0.120232
H	-3.1028585883	 1.3124521851	 0.5786421612	 0.149364
H	-2.2283477577	 4.7596957991	-0.9800395999	 0.146859
H	-1.7603346635	 5.2854647198	 0.6569871425	 0.148027
H	 1.4057106844	 4.2078001864	 0.1321689047	 0.110726
106.9283	164.9657	248.9976	295.9134	340.7924	536.989	554.2538	576.7921	593.5617	620.0988	672.6548	703.291	717.0504	756.0058	824.1901	871.165	919.5993	957.5884	1037.0662	1072.0218	1101.1176	1123.5444	1202.1886	1233.8713	1286.5586	1317.9057	1334.4825	1357.6631	1400.1855	1426.8103	1493.0739	1511.0547	1601.3597	1656.7392	1831.5443	2908.5082	3024.1472	3065.1181	3100.2084	3256.0381	3413.0564	3514.762
[O-]C1=C2C[NH2+]CC2=CO1	O=C1[C]2C[NH2]CC2=CO1	
InChI=1S/C6H7NO2/c8-6-5-2-7-1-4(5)3-9-6/h3,7-8H,1-2H2	InChI=1S/C6H7NO2/c8-6-5-2-7-1-4(5)3-9-6/h3H,1-2,7H2
