21
gdb 110499	2.57974	1.39346	1.14649	1.7379	81.46	-0.2416	0.0732	0.3149	1166.4264	0.182642	-387.037098	-387.028498	-387.027554	-387.070193	33.759	
C	-0.0290824401	 1.5542474555	 0.0450112527	-0.509394
C	 0.0401726606	 0.0494966633	 0.0572293842	 0.295142
C	-1.2434453916	-0.8139854678	 0.2612131017	-0.278058
C	-0.3156104197	-1.8837865927	 0.8277038942	-0.063638
C	 1.0011959196	-1.8324388576	 0.0325080186	-0.094529
C	 0.7432003057	-0.8616694374	 1.1568640961	-0.132492
C	 0.8723413005	-0.7276552436	-1.0187483323	-0.027498
C	 0.3141072621	-1.0234614282	-2.4056867123	-0.101326
O	 1.2466029576	-1.7377606092	-3.2110494549	-0.421855
H	 0.9709725853	 2.0001104833	 0.0102878875	 0.118265
H	-0.5844144112	 1.9153011593	-0.8290388361	 0.120119
H	-0.536315756	 1.9355384243	 0.9381792754	 0.116612
H	-1.8700076726	-0.3859651879	 1.0501235127	 0.094909
H	-1.8678657886	-1.0385902232	-0.6107444509	 0.087618
H	-0.5806674422	-2.7637874464	 1.3999301344	 0.082854
H	 1.6879661578	-2.6703117139	 0.0460584255	 0.07904
H	 1.2911799148	-0.6429457005	 2.0619832911	 0.087623
H	 1.843120216	-0.2315177988	-1.1383246054	 0.07363
H	-0.6392972829	-1.5669545792	-2.3411444541	 0.086252
H	 0.1207297131	-0.0870089867	-2.9420368354	 0.104812
H	 1.4103189818	-2.5822641926	-2.7790849026	 0.281914
71.0956	173.004	185.0203	216.3866	252.7373	299.0274	310.2591	387.6588	502.6682	561.1543	601.4943	704.5171	763.7923	791.7993	795.4321	822.3388	875.8681	930.5094	941.9006	965.1843	992.9349	1006.7847	1024.5207	1037.8597	1055.8681	1071.9623	1110.6452	1138.6355	1142.8765	1165.7398	1175.9134	1207.8236	1219.3498	1246.0818	1298.6587	1334.9068	1354.8502	1366.7823	1401.6954	1413.7915	1426.3939	1489.1793	1493.4235	1502.869	1509.6275	2998.7354	3021.3659	3036.0159	3037.7535	3062.8027	3084.4632	3086.5171	3092.2732	3180.2509	3193.7744	3220.9837	3814.7234
CC12CC3C(C13)C2CO	C[C@]12C[C@H]3[C@H]([C@@H]13)[C@H]2CO	
InChI=1S/C8H12O/c1-8-2-4-6(7(4)8)5(8)3-9/h4-7,9H,2-3H2,1H3	InChI=1S/C8H12O/c1-8-2-4-6(7(4)8)5(8)3-9/h4-7,9H,2-3H2,1H3/t4-,5+,6-,7-,8+/m0/s1
