19
gdb 12740	3.1461	2.08293	1.60765	2.2882	71.57	-0.2065	0.0688	0.2753	882.3717	0.164703	-365.011711	-365.003762	-365.002818	-365.043542	30.213	
C	-0.110310902	 1.559028525	-0.0036685318	-0.329103
N	 0.0340251966	 0.1268408703	 0.1077232799	-0.102316
C	-1.1846181591	-0.6838936674	 0.3172526707	-0.194177
C	-0.431386576	-1.5415670266	 1.3487847313	 0.062518
O	 0.4048517554	-2.5628786312	 0.7784449859	-0.298582
C	 1.57004285	-1.6996755024	 0.7956811388	-0.091393
C	 0.7214009174	-0.5015100629	 1.2761709251	 0.293139
C	 1.2219202953	 0.3759902397	 2.3974891651	-0.507793
H	 0.8727457724	 2.0387429165	-0.0470107713	 0.119635
H	-0.6297240224	 1.7937151374	-0.9394879757	 0.12387
H	-0.6850312596	 2.0266829752	 0.8187657905	 0.0878
H	-2.0073310234	-0.1176641185	 0.7857184095	 0.083038
H	-1.5609166325	-1.1982936303	-0.573513179	 0.107313
H	-0.9562638024	-1.874426877	 2.2473383457	 0.077183
H	 2.3160011543	-2.0610687894	 1.5171826941	 0.088175
H	 2.0228460587	-1.5856702351	-0.1943169459	 0.103386
H	 2.054814188	 1.006032034	 2.0640562168	 0.126564
H	 0.4370205755	 1.0346273975	 2.7812540029	 0.125184
H	 1.5836557837	-0.2383443547	 3.2276882074	 0.125558
105.2147	207.62	216.8238	226.7168	264.6087	296.5986	364.9339	396.6666	426.5989	637.7411	655.7284	761.5241	839.133	870.0404	910.1855	964.6858	973.5183	998.8991	1015.1217	1066.353	1137.45	1141.8515	1163.579	1174.0752	1183.6916	1186.2963	1213.3965	1262.7016	1285.2061	1324.0054	1328.4626	1376.8847	1408.3685	1452.1061	1479.4914	1487.7506	1493.3777	1499.2235	1501.8609	1510.5124	2918.4718	2959.3069	3000.4104	3031.4719	3052.3587	3063.5314	3078.9221	3081.0665	3093.5334	3098.3411	3109.9771
CN1CC2OCC12C	CN1C[C@H]2OC[C@@]12C	
InChI=1S/C6H11NO/c1-6-4-8-5(6)3-7(6)2/h5H,3-4H2,1-2H3	InChI=1S/C6H11NO/c1-6-4-8-5(6)3-7(6)2/h5H,3-4H2,1-2H3/t5-,6-/m1/s1
