19
gdb 89552	5.75624	0.87223	0.86426	3.8162	78.14	-0.2258	0.0354	0.2612	1386.7996	0.158928	-419.203109	-419.194493	-419.193549	-419.23663	32.506	
C	-0.0085041959	 1.5422268491	-0.0079223816	-0.321149
N	-0.0254697029	 0.1008094123	 0.0977874817	-0.07209
C	-1.2662755267	-0.5618846833	 0.5432148095	-0.226616
C	-0.3984227172	-1.576435563	 1.3244958635	 0.378589
C	 0.7400131901	-0.5383825267	 1.1852630361	-0.226628
C	-0.813295175	-2.2648685107	 2.6472304421	-0.492313
C	-0.558348329	-3.6012465044	 1.9028859509	 0.443056
O	-0.6262598378	-4.7709857303	 2.1635493543	-0.360947
N	-0.2040590047	-2.9123108838	 0.7658874321	-0.368371
H	 0.9990581337	 1.8844995966	-0.2661045685	 0.123923
H	-0.6862168159	 1.8647887515	-0.8051967437	 0.123931
H	-0.3138906864	 2.0485357165	 0.9282619348	 0.090919
H	-1.8755709216	 0.0577307652	 1.2235059146	 0.088214
H	-1.9054647551	-0.9501962725	-0.2572400463	 0.10717
H	 1.7332725183	-0.9074976462	 0.9072417331	 0.107131
H	 0.827848163	 0.089362717	 2.0886830852	 0.088225
H	-0.1498639749	-2.0881692149	 3.496213556	 0.13203
H	-1.8501486126	-2.109273614	 2.9519555647	 0.132014
H	 0.0946747906	-3.2212172486	-0.1479621383	 0.252912
64.9794	76.9458	216.8181	273.2079	287.1354	290.4025	364.4753	388.3085	427.3931	467.8229	517.2253	565.1601	712.931	772.1367	861.1511	886.6252	946.962	963.3098	979.7977	997.0072	1057.9375	1104.0459	1125.3705	1130.7873	1139.0452	1178.7443	1194.7097	1198.5668	1228.0566	1256.5715	1290.8407	1301.1709	1341.7089	1402.2496	1452.1001	1460.4319	1485.6894	1493.7403	1496.8994	1521.9478	1900.6253	2921.183	2950.9414	2962.2276	3058.3758	3059.4132	3060.8095	3081.3383	3101.1555	3138.8029	3606.0823
CN1CC2(C1)CC(=O)N2	CN1CC2(C1)CC(=O)N2	
InChI=1S/C6H10N2O/c1-8-3-6(4-8)2-5(9)7-6/h2-4H2,1H3,(H,7,9)	InChI=1S/C6H10N2O/c1-8-3-6(4-8)2-5(9)7-6/h2-4H2,1H3,(H,7,9)
