16
gdb 12359	2.8781	2.28165	1.52586	3.2419	67.22	-0.2336	-0.0564	0.1772	850.4629	0.13071	-383.765064	-383.757696	-383.756752	-383.796701	27.502	
C	-0.2154697395	 1.5119567806	 0.0722099796	-0.412918
C	 0.0531337457	 0.0051881254	-0.0390613895	 0.0168
O	 0.7609625714	-0.3531002467	-1.2237298596	-0.262956
C	 2.1257112505	-0.0012372181	-1.2516918035	-0.127537
C	 2.8601005494	-0.357728053	 0.0044720438	-0.059178
C	 2.2166664892	-0.6421257044	 1.1422298388	-0.156843
C	 0.7514950554	-0.5054056885	 1.2261534976	 0.358256
O	 0.1256567201	-0.7089946227	 2.2467839994	-0.332556
H	 0.711513587	 2.0817971844	 0.1948841798	 0.119769
H	-0.7266442227	 1.8664948082	-0.8267725448	 0.128035
H	-0.8479327699	 1.7059449485	 0.9423267847	 0.143174
H	-0.9014597019	-0.5230045787	-0.1142446308	 0.114161
H	 2.5583731445	-0.5393507181	-2.1033675749	 0.130084
H	 2.2696947888	 1.0748519136	-1.4633772962	 0.112363
H	 3.9465679988	-0.3682010853	-0.0482497589	 0.115967
H	 2.7318339432	-0.9246778253	 2.0546701143	 0.113379
79.0974	190.0267	227.175	236.0607	336.2506	381.5536	445.6703	497.1289	556.4149	642.5981	723.7752	814.7227	842.3236	859.7812	926.788	1006.4657	1027.0135	1046.6639	1052.6109	1104.0953	1144.749	1184.7144	1259.3452	1277.2069	1319.2708	1358.7295	1391.1028	1399.2038	1407.9504	1478.0666	1489.9256	1498.9418	1684.8633	1782.3864	2935.6157	3041.0838	3053.629	3077.8193	3114.6413	3131.2638	3156.17	3191.9982
CC1OCC=CC1=O	C[C@H]1OCC=CC1=O	
InChI=1S/C6H8O2/c1-5-6(7)3-2-4-8-5/h2-3,5H,4H2,1H3	InChI=1S/C6H8O2/c1-5-6(7)3-2-4-8-5/h2-3,5H,4H2,1H3/t5-/m1/s1
