16
gdb 66065	2.26098	1.44627	1.09104	5.0084	70.67	-0.2812	-0.0609	0.2203	1124.4415	0.122718	-437.895973	-437.887275	-437.886331	-437.929772	31.577	
O	-0.0264610582	 1.4413588302	 0.0508294538	-0.459672
C	 0.0284663804	 0.0549656837	 0.0438384827	 0.322996
C	 0.1685135743	-0.5341998629	 1.4790078472	-0.273436
C	-1.3636074179	-0.7563336414	 1.536426932	-0.234878
C	-1.405998509	-0.6439550314	-0.0175650245	-0.228193
C	-2.4738894358	 0.104516228	-0.6484866468	 0.297882
N	-3.3259525459	 0.7046013552	-1.148743751	-0.319043
C	 0.9837500471	-0.4359334934	-1.0193886118	 0.109517
O	 1.5164020433	 0.3205821376	-1.7925813521	-0.257428
H	 0.4074691113	 1.7346775665	-0.7665691579	 0.30156
H	 0.7327011751	-1.4714581502	 1.4896014016	 0.112766
H	 0.6055519035	 0.1626554565	 2.1941444039	 0.137207
H	-1.7305645296	-1.6921873547	 1.959460349	 0.120991
H	-1.8810114754	 0.0804538878	 2.0069778406	 0.146031
H	-1.3308673973	-1.6330729411	-0.4808885368	 0.124586
H	 1.1516069841	-1.5322735004	-1.0600432	 0.099114
67.4415	92.8103	147.3893	195.7094	285.005	303.3706	349.3063	374.2165	449.0796	467.8956	548.5956	591.7254	701.4339	748.7252	834.6992	892.089	917.1324	956.0939	967.2507	1038.7917	1078.7307	1093.7658	1098.9071	1183.8705	1226.4614	1266.1554	1270.6403	1300.8498	1344.5036	1387.726	1433.501	1467.5232	1493.7619	1814.5017	2357.3417	2922.8074	3060.34	3065.3826	3089.0127	3138.7387	3152.539	3690.9878
OC1(CCC1C#N)C=O	O[C@]1(CC[C@H]1C#N)C=O	
InChI=1S/C6H7NO2/c7-3-5-1-2-6(5,9)4-8/h4-5,9H,1-2H2	InChI=1S/C6H7NO2/c7-3-5-1-2-6(5,9)4-8/h4-5,9H,1-2H2/t5-,6+/m0/s1
