23
gdb 57555	3.82795	0.63182	0.61572	1.7642	88.48	-0.2563	0.0545	0.3108	1913.1832	0.20141	-388.269613	-388.258218	-388.257274	-388.306349	42.03	
C	-0.068485195	 1.5460164888	 0.2471521581	-0.391711
C	 0.0145284267	 0.0303811645	 0.0441896838	 0.337207
C	 0.7232020684	-0.628484445	 1.2362647074	-0.417303
O	-1.3487165643	-0.4127336559	-0.0076594685	-0.454769
C	 0.7423235062	-0.3436852735	-1.2673123648	-0.205304
C	 0.0883626833	 0.1893263643	-2.5453165653	-0.180083
C	 0.728560896	-0.4070832873	-3.8157852463	-0.359336
C	 0.1328973696	 0.0985064441	-5.0467266529	 0.292629
C	-0.3746929796	 0.5311360051	-6.0468717453	-0.436195
H	 0.9298084005	 1.9937940997	 0.247448866	 0.109452
H	-0.6611466803	 2.0137627959	-0.5423190809	 0.12764
H	-0.5495421561	 1.7696049562	 1.2034180679	 0.119248
H	 0.1806081223	-0.4160608377	 2.1617675798	 0.121254
H	 0.7700651395	-1.7168990511	 1.1085622147	 0.100724
H	 1.7500542767	-0.2643055067	 1.3439493802	 0.114515
H	-1.343853597	-1.3756085696	-0.0417805882	 0.273857
H	 1.7847035113	-0.0036264834	-1.2069214809	 0.093712
H	 0.7880240914	-1.4421644656	-1.3208917227	 0.07834
H	-0.9798868331	-0.0458349211	-2.5302343245	 0.122253
H	 0.1690374025	 1.2800013541	-2.5937181404	 0.110554
H	 1.8062510226	-0.1947106584	-3.8197363033	 0.12636
H	 0.6387274916	-1.5014637543	-3.7906884856	 0.125204
H	-0.8167345132	 0.9069033767	-6.9358840785	 0.19175
51.4232	73.954	90.7431	140.0474	207.1648	216.9556	250.2069	280.8486	304.4837	341.6689	345.5391	350.405	411.335	454.4596	508.6053	559.7369	614.586	633.1987	742.8466	766.4094	836.0216	904.9319	930.6174	953.8188	967.4821	996.7833	1032.6891	1052.4138	1074.1918	1132.1458	1155.837	1216.4996	1239.4736	1268.5077	1295.243	1321.2267	1354.7311	1374.5606	1393.6208	1401.949	1420.9834	1470.421	1473.0228	1483.8226	1489.574	1496.739	1507.3681	1510.6036	2238.4477	2991.6133	3010.7286	3024.7995	3037.7917	3038.5887	3046.8191	3055.1924	3091.5096	3103.2447	3113.0585	3119.7293	3128.8147	3508.1393	3800.3169
CC(C)(O)CCCC#C	CC(C)(O)CCCC#C	
InChI=1S/C8H14O/c1-4-5-6-7-8(2,3)9/h1,9H,5-7H2,2-3H3	InChI=1S/C8H14O/c1-4-5-6-7-8(2,3)9/h1,9H,5-7H2,2-3H3
