17
gdb 105842	2.16169	1.55724	1.21331	3.4871	68.28	-0.2625	-0.0058	0.2567	1098.6282	0.134489	-458.957635	-458.949	-458.948056	-458.991166	31.907	
C	 0.0656178514	 1.5485657274	-0.1430192672	-0.379579
C	-0.1007454532	 0.0283760585	-0.0024071375	-0.305792
C	 0.6457360619	-0.5113239529	 1.1858041931	 0.063498
C	 2.1241612374	-0.9993020804	 1.1635589468	 0.090222
O	 3.1473289159	-0.5145669081	 1.9541211893	-0.419825
C	 1.0670756658	-1.9030276459	 1.6645368945	-0.049258
O	 0.8034034425	-1.5395607888	 3.051033507	-0.290017
C	 0.2903387415	-0.3031549205	 2.629275586	 0.435876
O	-0.2547412618	 0.5079300583	 3.3024111556	-0.321886
H	 1.117037316	 1.8171556638	-0.2848526058	 0.126257
H	-0.5012660276	 1.9224147454	-1.0003895524	 0.116305
H	-0.2935332899	 2.058952749	 0.7548940368	 0.148086
H	-1.1649503615	-0.2207393417	 0.0900056359	 0.116009
H	 0.2570012833	-0.4760906691	-0.908044826	 0.105577
H	 2.4640874634	-1.1752410633	 0.1456968428	 0.12691
H	 2.9230258669	-0.7111332161	 2.8735270374	 0.305075
H	 0.773420908	-2.8979740657	 1.3568956135	 0.132543
71.2731	123.6773	149.2517	194.3411	253.0007	286.8089	345.3619	411.5377	440.9564	487.101	649.1206	675.2215	724.3493	779.7755	801.0359	825.0624	889.3739	920.0476	937.1127	995.2474	1019.4694	1043.1058	1078.2557	1107.5727	1162.7085	1222.2897	1272.5163	1291.0417	1317.6244	1355.2373	1393.9169	1415.1354	1464.2788	1485.7702	1498.6232	1510.2466	1938.0378	3026.5674	3043.4186	3060.0974	3114.6381	3123.9633	3152.9596	3208.204	3768.3265
CCC12C(O)C1OC2=O	CC[C@]12[C@@H](O)[C@H]1OC2=O	
InChI=1S/C6H8O3/c1-2-6-3(7)4(6)9-5(6)8/h3-4,7H,2H2,1H3	InChI=1S/C6H8O3/c1-2-6-3(7)4(6)9-5(6)8/h3-4,7H,2H2,1H3/t3-,4+,6-/m0/s1
