20
gdb 106228	2.55941	1.47979	1.22954	2.2094	79.51	-0.2191	0.0097	0.2288	1114.225	0.171138	-403.126286	-403.117597	-403.116653	-403.159587	33.484	
C	-0.1260084921	 1.5000946769	-0.135243571	-0.430915
C	 0.0248695234	 0.0188758913	 0.1116043264	-0.022063
N	 1.2888291391	-0.7199219081	-0.089108976	-0.170269
C	 2.5175770485	 0.1096091811	-0.112439687	-0.216654
C	 2.6690346461	 0.6691678944	 1.2841714595	-0.089974
C	 1.6635785525	 0.2626412081	 2.0581616557	-0.11973
C	 0.7183134484	-0.5977558187	 1.2896312356	 0.230059
C	 0.2058692666	-1.877862555	 1.911599957	-0.139389
O	 1.2594124471	-2.7778165573	 2.204836545	-0.418149
H	 0.6179057021	 2.0963877075	 0.3958807592	 0.128642
H	-0.0436809963	 1.718008984	-1.2065332404	 0.124538
H	-1.1187963046	 1.8278039573	 0.1896571488	 0.122821
H	-0.8151847175	-0.5573750564	-0.2772798395	 0.087577
H	 3.3689814263	-0.5201591532	-0.4015547746	 0.112643
H	 2.4406132415	 0.896295738	-0.8754874157	 0.113727
H	 3.4800050494	 1.3265015781	 1.5765129187	 0.102097
H	 1.5242120039	 0.494635239	 3.106902698	 0.103123
H	-0.2922556539	-1.6648480713	 2.8644846591	 0.105265
H	-0.5388072504	-2.3340009894	 1.2418165941	 0.088021
H	 1.7517305498	-2.8828821663	 1.3819436969	 0.288631
58.4001	148.2529	185.5503	230.7735	243.6462	302.5275	340.6555	402.5355	433.1537	525.9715	582.5023	634.8496	712.8017	746.547	770.0912	829.9743	872.9587	923.6471	951.7305	955.1358	995.8406	1022.0739	1029.2244	1043.1175	1089.8023	1123.5875	1139.3717	1160.495	1201.5015	1209.7425	1270.8684	1310.9635	1341.5741	1363.7596	1395.3232	1403.4864	1423.1718	1431.9511	1486.9626	1496.1021	1498.8479	1504.6634	1671.7189	2988.4189	3011.7391	3034.4957	3034.9988	3063.9508	3091.954	3093.7969	3134.4998	3192.4115	3219.3363	3789.3355
CC1N2CC=CC12CO	C[C@H]1N2CC=C[C@@]12CO	
InChI=1S/C7H11NO/c1-6-7(5-9)3-2-4-8(6)7/h2-3,6,9H,4-5H2,1H3	InChI=1S/C7H11NO/c1-6-7(5-9)3-2-4-8(6)7/h2-3,6,9H,4-5H2,1H3/t6-,7-,8?/m1/s1
