15
gdb 117036	4.85574	0.75245	0.65685	2.8905	64.46	-0.2478	-0.1304	0.1174	1618.6213	0.107362	-494.894063	-494.883989	-494.883045	-494.931263	32.476	
C	 0.0046315145	 1.4087250014	 0.0448407955	-0.229341
O	-0.003507656	-0.0022209023	-0.0092870676	-0.218354
C	 0.6444393874	-0.5880490482	 1.0734337288	-0.150811
C	 0.5934201206	-2.0967995871	 0.9427826153	 0.248432
O	 0.0682677908	-2.6927208573	 0.0344788961	-0.253903
C	 1.2764431645	-2.8772897127	 2.078992916	 0.205492
O	 1.8104481974	-2.3157300589	 3.0016739473	-0.244193
C	 1.2445114753	-4.4233969099	 1.9795448869	 0.087534
O	 1.756704657	-5.0963684261	 2.8319330511	-0.205476
H	 1.0295378389	 1.8099993389	 0.0376890935	 0.112519
H	-0.5235575166	 1.7653926559	-0.8415146453	 0.139896
H	-0.5080880935	 1.7841313122	 0.9435592706	 0.112522
H	 1.7051062176	-0.287043169	 1.1517158183	 0.129962
H	 0.1913704205	-0.3131612638	 2.0434545388	 0.129973
H	 0.7333268716	-4.8446716432	 1.0969488747	 0.135747
29.8689	59.4331	86.172	89.3754	114.5701	232.5296	236.1339	287.1204	342.6011	347.0123	380.2326	521.398	605.8343	771.6404	840.785	896.3238	936.7117	1029.8598	1036.2571	1174.1434	1182.4227	1206.745	1238.4376	1244.2746	1392.3516	1410.6332	1457.1527	1487.2318	1488.3209	1511.5636	1802.9955	1811.323	1829.5132	2948.7721	2965.5201	2979.8607	2995.2552	3028.0033	3128.3083
COCC(=O)C(=O)C=O	COCC(=O)C(=O)C=O	
InChI=1S/C5H6O4/c1-9-3-5(8)4(7)2-6/h2H,3H2,1H3	InChI=1S/C5H6O4/c1-9-3-5(8)4(7)2-6/h2H,3H2,1H3
