19
gdb 89696	3.48583	1.27698	1.13568	1.7846	82.51	-0.2377	0.0361	0.2738	1143.0744	0.158756	-385.83988	-385.831776	-385.830832	-385.872085	32.595	
C	-0.0917766076	 1.4993704913	-0.063075088	-0.412652
C	 0.0845804963	-0.0054075983	 0.0538609615	 0.158999
O	 0.9714993038	-0.5100161271	-0.9815004332	-0.341457
C	 1.954372975	-1.2413951285	-0.2151002419	 0.353642
C	 1.0846905331	-2.00651786	 0.8276516522	-0.275444
C	 0.8087850396	-0.5461938198	 1.3001125476	-0.119185
C	 2.297440553	-0.2536385276	 0.9384701065	-0.275752
C	 2.9410394711	-1.8689279283	-1.0552718787	 0.1235
C	 3.7837082298	-2.4083335804	-1.7206794542	-0.345517
H	 0.8457357385	 2.0357397738	 0.1051002755	 0.120126
H	-0.4522221645	 1.7558593502	-1.0635119742	 0.130926
H	-0.8303268044	 1.8515882469	 0.6652856731	 0.112516
H	-0.8937824877	-0.4918484539	-0.0623144363	 0.074258
H	 0.2532888602	-2.5927390099	 0.4296919195	 0.106268
H	 1.678530693	-2.5876812551	 1.5337378226	 0.10944
H	 0.381934204	-0.314032288	 2.2745412592	 0.077488
H	 2.9972431719	-0.6739686643	 1.6613998422	 0.110156
H	 2.59361916	 0.7550711351	 0.6471425136	 0.108074
H	 4.5241584048	-2.8816267561	-2.3168582869	 0.184611
128.3576	145.6135	198.7418	235.7542	288.0406	441.6688	480.3238	483.1061	534.6814	536.751	574.3353	626.9009	654.798	671.6093	805.6854	842.6974	869.7605	885.2384	896.1765	956.2328	964.2651	1004.2834	1030.7352	1048.2533	1092.1141	1104.557	1140.3735	1150.9462	1166.1822	1210.3069	1221.8718	1289.7811	1298.9625	1325.8197	1396.1219	1412.2934	1471.8956	1488.1702	1495.3956	1512.3815	2246.2254	3003.5824	3039.79	3072.2163	3083.5645	3108.9489	3122.3998	3131.1502	3143.5934	3150.4645	3502.6826
CC1OC2(CC1C2)C#C	C[C@H]1O[C@@]2(C[C@H]1C2)C#C	
InChI=1S/C8H10O/c1-3-8-4-7(5-8)6(2)9-8/h1,6-7H,4-5H2,2H3	InChI=1S/C8H10O/c1-3-8-4-7(5-8)6(2)9-8/h1,6-7H,4-5H2,2H3/t6-,7-,8+/m1/s1
