23
gdb 60105	3.43473	1.01578	0.92084	0.8759	86.69	-0.2303	0.0893	0.3195	1410.8265	0.204175	-388.261781	-388.252116	-388.251172	-388.296822	36.835	
C	 0.1080391898	 1.5208676768	-0.0620853389	-0.38921
C	-0.03649688	-0.0007026183	 0.0050230544	 0.12969
C	-1.4903253807	-0.4486245175	-0.0855979956	-0.391227
O	 0.6456785491	-0.6531139489	-1.0761836135	-0.302034
C	 2.0161663177	-0.7317169176	-0.9531275905	 0.457712
C	 2.9548910332	 0.3088634067	-1.5075834646	-0.328575
C	 3.0027321331	-1.1058971383	-2.0456559994	-0.140905
C	 3.7698998968	-2.0005725558	-1.0646481585	-0.220887
C	 2.7386197593	-1.6369644449	 0.0572986737	-0.293353
H	 1.1538117632	 1.8274834274	 0.0135887059	 0.125219
H	-0.295819503	 1.8990277443	-1.0070264925	 0.118248
H	-0.4426292378	 1.989784998	 0.760043934	 0.110848
H	 0.3904588957	-0.3586853847	 0.954695756	 0.073023
H	-1.9260443489	-0.1277023234	-1.037305666	 0.122515
H	-1.5595490999	-1.5380559248	-0.0289464778	 0.119769
H	-2.0802218483	-0.0162510643	 0.7280766412	 0.11079
H	 2.475770569	 1.0229286427	-2.1689052755	 0.113336
H	 3.7827594151	 0.7095629578	-0.9241794965	 0.095975
H	 2.8182271977	-1.3188889772	-3.0912315001	 0.091233
H	 3.7406361467	-3.0602433881	-1.3263895329	 0.104849
H	 4.8100155265	-1.7135638168	-0.8777339788	 0.095216
H	 3.1279695475	-1.1598747966	 0.9624606885	 0.09072
H	 2.1279912983	-2.4972208764	 0.3417093776	 0.107049
32.8814	82.4617	141.5151	212.8721	229.9768	251.1882	312.0267	358.3153	380.0132	420.5433	439.8247	498.7404	660.6823	712.9351	789.2369	814.8873	869.8078	907.9423	915.5454	926.3244	941.6595	946.6613	961.1554	979.9584	1020.0752	1033.5424	1078.5256	1106.6015	1146.7965	1150.9237	1158.1378	1196.5295	1217.3866	1226.6999	1230.9803	1265.395	1302.8997	1365.2945	1368.1864	1395.4622	1401.7396	1413.5198	1475.8251	1479.0315	1480.2792	1487.2559	1493.2137	1508.4023	1513.1197	2982.2344	3037.042	3041.9068	3042.4163	3050.3807	3091.9608	3097.4803	3104.9765	3114.8753	3115.76	3122.0453	3125.4893	3188.7641	3204.3613
CC(C)OC12CC1CC2	CC(C)O[C@]12C[C@H]1CC2	
InChI=1S/C8H14O/c1-6(2)9-8-4-3-7(8)5-8/h6-7H,3-5H2,1-2H3	InChI=1S/C8H14O/c1-6(2)9-8-4-3-7(8)5-8/h6-7H,3-5H2,1-2H3/t7-,8-/m1/s1
