23
gdb 119767	4.50962	0.7079	0.64711	1.4777	89.53	-0.2271	0.0297	0.2568	1797.4482	0.205565	-388.308836	-388.298743	-388.297799	-388.344514	37.016	
C	 0.0212539147	 1.6479748648	-0.1467984418	-0.395052
C	 0.0212501221	 0.1234713396	 0.0113389699	 0.005274
C	 0.74018528	-0.6285758767	-1.141360505	-0.21917
C	 1.4171437092	-1.8530753893	-0.4825910672	-0.304061
C	 1.5257576808	-1.4491355823	 0.9780309973	 0.316272
C	 2.3679973264	-2.2055837834	 1.9612484235	-0.29399
C	 1.8970989005	-3.6446627138	 2.1850510168	-0.066109
O	 2.7882796544	-4.246201303	 3.1117124451	-0.418257
C	 0.7615084978	-0.3838298285	 1.2291804418	-0.176894
H	 1.0454674263	 2.0345834024	-0.1942178484	 0.113389
H	-0.4955899852	 1.9488095281	-1.0646743294	 0.110355
H	-0.4831825173	 2.136791148	 0.6937589662	 0.109652
H	-1.0289887828	-0.2053306116	 0.0690788649	 0.072398
H	 0.0659086074	-0.8977434498	-1.9591299404	 0.091555
H	 1.5108656616	 0.0283449127	-1.5612812836	 0.0988
H	 0.8039395171	-2.7595711893	-0.5900283426	 0.100923
H	 2.3905719097	-2.092156706	-0.9282527739	 0.097744
H	 3.4087356504	-2.2519008802	 1.6121910799	 0.108715
H	 2.37797154	-1.6928768325	 2.9287626098	 0.107763
H	 0.8637408049	-3.6365133257	 2.5665365301	 0.088537
H	 1.8899539704	-4.1914026854	 1.2289699606	 0.087384
H	 2.4990622594	-5.1505497058	 3.263355006	 0.285165
H	 0.6475086321	 0.0741893378	 2.2075657806	 0.079608
54.3943	88.8521	100.9246	117.734	214.089	240.1616	257.2934	282.4889	338.206	371.5896	472.1785	497.2126	600.3929	681.9758	798.5159	813.6918	847.5832	875.2841	903.4554	930.3463	967.0794	996.7457	1009.5229	1040.5455	1072.8428	1074.7412	1108.9433	1125.3084	1177.6532	1200.3277	1221.8378	1237.1995	1245.7208	1282.8792	1309.8395	1311.5704	1320.2972	1334.7854	1347.4548	1374.2683	1407.8447	1455.6616	1482.1273	1485.5628	1496.4777	1497.8457	1500.4928	1528.7998	1716.9456	2965.8424	2968.6653	2993.9603	3002.3007	3018.5722	3024.3382	3032.7154	3047.9533	3078.8269	3089.8997	3094.0318	3096.1502	3171.3382	3830.2587
CC1CCC(CCO)=C1	C[C@H]1CCC(=C1)CCO	
InChI=1S/C8H14O/c1-7-2-3-8(6-7)4-5-9/h6-7,9H,2-5H2,1H3	InChI=1S/C8H14O/c1-7-2-3-8(6-7)4-5-9/h6-7,9H,2-5H2,1H3/t7-/m0/s1
