17
gdb 127558	4.56666	1.10024	0.93352	1.4562	77.32	-0.2165	0.0046	0.2211	1253.4536	0.137675	-414.161046	-414.152823	-414.151878	-414.195369	29.147	
C	-0.2156831397	 1.4552623042	-0.0282001218	-0.308938
N	-0.0537072267	 0.0189945048	 0.0216300662	 0.16197
N	 0.1777230712	-0.7069577082	-1.0630995215	-0.219294
C	 0.2248365217	-1.958510938	-0.6057895728	-0.139608
C	 0.0155252201	-1.9327224009	 0.7860452514	 0.338424
N	-0.1580430652	-0.6631249442	 1.1639205048	-0.322899
N	-0.0860015217	-3.0135068653	 1.6632263435	-0.152018
C	 1.139842427	-3.6826720175	 2.1126511941	-0.232025
C	 0.3460477213	-2.832901333	 3.0432664713	-0.216366
H	 0.4923957294	 1.9357635828	 0.6515220954	 0.148594
H	-0.0223612045	 1.7690708184	-1.0529371108	 0.161773
H	-1.2327126762	 1.73418021	 0.2613264151	 0.149763
H	 0.3993708009	-2.7938856894	-1.2637284718	 0.122018
H	 1.0816777592	-4.7654072942	 2.1667072888	 0.123682
H	 2.0869620641	-3.2845265317	 1.7569592842	 0.124571
H	 0.7532976268	-1.8630520496	 3.3129139442	 0.137321
H	-0.2943270477	-3.2921939683	 3.7899777898	 0.123032
42.5267	48.8533	138.0651	184.6176	216.7801	361.4161	407.466	516.7299	567.285	665.3752	739.8936	746.205	819.567	854.5856	906.5762	919.1639	1012.2673	1036.185	1039.7916	1086.0698	1117.7108	1132.464	1150.0616	1171.0755	1179.9162	1194.4093	1278.3538	1355.488	1378.9595	1425.0831	1449.1392	1454.6595	1477.1188	1492.9668	1512.1246	1519.1704	1568.759	3053.6044	3110.67	3118.395	3121.6282	3174.43	3197.8464	3213.6592	3275.3312
CN1N=CC(=N1)N1CC1	Cn1ncc(n1)N1CC1	
InChI=1S/C5H8N4/c1-8-6-4-5(7-8)9-2-3-9/h4H,2-3H2,1H3	InChI=1S/C5H8N4/c1-8-6-4-5(7-8)9-2-3-9/h4H,2-3H2,1H3
