21
gdb 56254	5.46843	0.59149	0.56068	1.6152	80.62	-0.2454	-0.0119	0.2334	2010.8587	0.17904	-424.224274	-424.213764	-424.212819	-424.262055	36.48	
C	-0.017503134	 1.4444569636	-0.116927202	-0.47268
C	-0.1821828856	-0.0618102067	-0.0200978877	 0.377819
O	-0.6640636453	-0.5913812595	 0.9562769302	-0.292567
C	 0.2911338813	-0.8696023928	-1.2180503078	-0.314685
C	 0.0586056915	-2.3644952344	-1.0636181376	-0.05681
O	 0.5668780125	-2.9985532828	-2.2261261404	-0.256184
C	 0.4163218929	-4.3828001398	-2.2029390579	 0.150988
C	-0.8874569328	-4.990852265	-2.6557627597	-0.286005
C	 0.3514334039	-5.0663655992	-3.5284815974	-0.288569
H	 1.0292212416	 1.705906473	-0.3077961292	 0.138294
H	-0.5996722904	 1.835498631	-0.9591611058	 0.139865
H	-0.353153064	 1.9137919349	 0.8084653224	 0.143024
H	-0.210556065	-0.4995033281	-2.1217578991	 0.126935
H	 1.3589964578	-0.6711662604	-1.3799166286	 0.130535
H	 0.5666671434	-2.7370253289	-0.1622299488	 0.10356
H	-1.0117812319	-2.5787580479	-0.9380905669	 0.105349
H	 0.9508691763	-4.8770786139	-1.3901973227	 0.08319
H	-1.2432014426	-5.8919201067	-2.1684345548	 0.113244
H	-1.6654573617	-4.3032281678	-2.9682189324	 0.117607
H	 0.3788398065	-4.424577808	-4.401599687	 0.123463
H	 0.8552778058	-6.0189652205	-3.6461267267	 0.113629
29.2007	47.6068	76.9165	99.8778	115.0231	140.0612	226.7118	279.8503	394.0294	425.0381	480.4134	492.5124	596.9751	754.982	761.5128	814.5362	818.8386	860.3531	933.9861	936.9428	973.2677	980.6584	1048.6549	1071.6739	1088.5174	1107.8315	1121.9685	1131.1947	1181.5191	1193.2926	1204.6008	1218.4829	1244.8482	1297.4484	1332.7623	1379.7951	1385.9792	1435.6419	1453.2248	1455.7369	1466.53	1476.6685	1499.5862	1519.7065	1807.1212	2997.9818	3027.4708	3029.784	3038.5807	3063.4546	3088.1011	3097.8161	3135.4871	3142.083	3152.6388	3219.6947	3234.4995
CC(=O)CCOC1CC1	CC(=O)CCOC1CC1	
InChI=1S/C7H12O2/c1-6(8)4-5-9-7-2-3-7/h7H,2-5H2,1H3	InChI=1S/C7H12O2/c1-6(8)4-5-9-7-2-3-7/h7H,2-5H2,1H3
