19
gdb 73482	2.53058	2.20078	1.57637	2.6002	73.21	-0.2412	0.084	0.3252	908.0816	0.161869	-423.01572	-423.008932	-423.007988	-423.046409	28.554	
C	 0.0479836713	 1.5030487343	-0.0318348706	-0.501716
C	 0.0099850654	-0.0116078416	-0.0278046362	 0.296385
C	 0.6998415913	-0.6854593826	-1.2229537107	-0.146888
O	 0.0384434911	-1.9543200704	-1.3553263291	-0.252271
C	-0.6373999313	-2.1227168521	-0.1388354881	 0.207003
O	 0.3243850255	-2.1414713318	 0.9322179762	-0.285192
C	 0.2705735775	-0.7585827379	 1.3362418563	 0.048364
C	-1.226509296	-0.5907929545	 1.6754861475	-0.256889
C	-1.3537875333	-0.7792667979	 0.1460371214	-0.140354
H	 1.0836602775	 1.8623466405	-0.020314238	 0.12402
H	-0.4290067506	 1.902176028	-0.9337307286	 0.123821
H	-0.4566269744	 1.938887609	 0.8347106909	 0.122847
H	 0.5682268111	-0.1210854265	-2.1532801159	 0.101603
H	 1.7735890117	-0.8329492498	-1.0507616746	 0.107077
H	-1.2021647481	-3.0533383266	-0.1709619387	 0.090406
H	 1.0941592821	-0.5293940946	 2.011981467	 0.077805
H	-1.6572050398	-1.3494224025	 2.3320436954	 0.103752
H	-1.5087609215	 0.4099104676	 2.0058844978	 0.104846
H	-2.2477298296	-0.5588338904	-0.435610572	 0.075383
210.638	225.0217	287.5234	323.657	405.8818	442.1675	540.3034	570.8343	627.0645	701.319	747.6842	835.034	865.5477	881.0726	920.8766	928.523	954.6878	957.6571	977.4482	1004.4565	1012.0347	1052.6073	1082.9855	1107.4399	1122.7912	1168.46	1180.813	1219.2645	1237.4554	1243.6743	1248.8155	1283.6746	1285.6326	1317.3879	1351.8559	1394.8648	1418.5598	1487.9633	1494.5695	1505.2157	1514.3699	3018.4866	3029.5614	3061.1683	3075.9699	3087.722	3107.8475	3126.3156	3128.787	3137.9536	3140.8017
CC12COC3OC1CC23	C[C@@]12CO[C@H]3O[C@@H]1C[C@@H]23	
InChI=1S/C7H10O2/c1-7-3-8-6-4(7)2-5(7)9-6/h4-6H,2-3H2,1H3	InChI=1S/C7H10O2/c1-7-3-8-6-4(7)2-5(7)9-6/h4-6H,2-3H2,1H3/t4-,5-,6+,7+/m1/s1
