16
gdb 128803	3.76075	1.14841	0.99235	1.7616	73.17	-0.2406	-0.0763	0.1643	1198.4957	0.124864	-434.056205	-434.048013	-434.047069	-434.090571	28.59	
C	 0.1972930917	 0.5904053134	 0.5376071875	-0.237689
O	-0.4529425465	 0.2472093347	-0.6721870792	-0.234731
C	-1.6400900265	-0.5031481584	-0.4961434665	-0.133819
C	-1.3406905867	-1.9620775973	-0.2249391453	 0.374929
N	-1.164650919	-2.7671740819	-1.2862389458	-0.254875
C	-0.8624783382	-4.0218627463	-0.9945921766	-0.008279
C	-0.7369859108	-4.4344677258	 0.3330867732	 0.019859
N	-0.9255833715	-3.5905953558	 1.342047428	-0.169178
N	-1.2410657822	-2.3291716951	 1.0580328206	-0.220742
H	 1.0685535355	 1.1899680556	 0.2637915866	 0.127883
H	-0.4597625912	 1.1858637207	 1.1892249064	 0.109613
H	 0.5287574452	-0.2906286558	 1.1021112851	 0.125386
H	-2.2463309216	-0.1005905082	 0.3267729653	 0.109655
H	-2.192433828	-0.4282400982	-1.4358046492	 0.124205
H	-0.718492346	-4.7136370524	-1.821711536	 0.133819
H	-0.4855086939	-5.4559854791	 0.5999215059	 0.133965
26.2635	94.1196	113.5332	195.2452	272.9702	328.5555	378.9457	425.6153	527.5843	640.7901	673.221	827.4988	871.5222	902.7692	937.0357	1001.6303	1015.7809	1038.2974	1083.6316	1116.183	1129.838	1180.1569	1193.1049	1222.5305	1303.7016	1313.0919	1390.1625	1408.0531	1454.3141	1470.5717	1482.0249	1486.024	1509.5289	1570.0833	1590.886	2989.9846	3017.4217	3050.7997	3109.75	3120.2354	3154.9247	3190.3775
COCC1=NC=CN=N1	COCc1nccnn1	
InChI=1S/C5H7N3O/c1-9-4-5-6-2-3-7-8-5/h2-3H,4H2,1H3	InChI=1S/C5H7N3O/c1-9-4-5-6-2-3-7-8-5/h2-3H,4H2,1H3
