15
gdb 60714	5.09462	0.5471	0.52239	0.5934	73.	-0.2597	-0.0515	0.2083	1993.4905	0.108025	-457.739954	-457.730002	-457.729058	-457.777914	32.866	
O	-0.655400893	 1.0212352741	 0.2421805085	-0.409108
C	 0.016866584	-0.1655006876	-0.0751618548	-0.108331
C	 0.9007459673	 0.0363380587	-1.3132940381	 0.144135
O	 0.9757382106	 1.1102449942	-1.85113636	-0.247034
C	 0.8692067346	-0.6669534287	 1.0087671484	 0.111839
C	 1.6029515824	-1.0622599723	 1.8782329512	 0.009711
C	 2.4320916052	-1.5831052492	 2.9538993228	-0.415596
C	 1.794026715	-2.7885884294	 3.6522777811	 0.17079
O	 2.4178729187	-3.7425302208	 4.0267451567	-0.225775
H	-0.2928142122	 1.6908099518	-0.360898462	 0.298924
H	-0.7148740306	-0.9503305913	-0.3369487418	 0.127496
H	 1.4622037121	-0.8507190109	-1.6619016271	 0.11844
H	 3.4295273321	-1.8733986954	 2.6085207737	 0.159333
H	 2.571882056	-0.8075849597	 3.7224639357	 0.165149
H	 0.6961003778	-2.7023623935	 3.7997690357	 0.100028
14.371	48.4641	64.2392	117.297	121.5897	222.1669	305.6852	315.5216	389.9869	428.2467	473.7175	500.1435	548.762	703.5099	742.9384	803.913	883.066	1015.1904	1031.2718	1040.7254	1119.6505	1167.5503	1210.6396	1239.2871	1287.2381	1327.0621	1388.1283	1414.4031	1430.1257	1437.5925	1823.5552	1843.0342	2359.2655	2907.3385	2951.9057	2968.3808	3007.5852	3083.7829	3680.1076
OC(C=O)C#CCC=O	O[C@@H](C=O)C#CCC=O	
InChI=1S/C6H6O3/c7-4-2-1-3-6(9)5-8/h4-6,9H,2H2	InChI=1S/C6H6O3/c7-4-2-1-3-6(9)5-8/h4-6,9H,2H2/t6-/m1/s1
