20
gdb 117792	2.52947	1.00877	0.86424	3.8138	76.23	-0.2405	0.0277	0.2683	1431.4376	0.169665	-436.450742	-436.439839	-436.438895	-436.486939	38.613	
C	-0.0495591616	 1.504121096	 0.009806247	-0.313956
N	-0.0589959795	 0.0469714499	-0.0332768456	-0.293166
C	 0.7474293017	-0.5035941684	-1.1090778204	-0.169157
C	 0.6437631626	-2.0449656837	-1.1482117272	 0.070729
N	-0.7328439496	-2.4997291777	-1.0556134644	-0.522933
C	 1.3249195949	-2.5688484758	-2.4379875246	-0.098023
O	 1.1445359961	-3.9563512539	-2.6134546881	-0.42025
C	 1.4143893384	-2.5998497385	 0.0040374653	 0.282727
N	 2.0338678979	-3.0465226459	 0.8728463981	-0.355158
H	 0.9591042258	 1.9456696015	 0.0862328489	 0.102962
H	-0.5168825475	 1.8998785966	-0.8989513889	 0.12483
H	-0.6392390651	 1.8461044658	 0.8645248178	 0.128373
H	 0.2617053647	-0.3252406702	 0.8558627926	 0.237295
H	 0.3494285549	-0.1212235071	-2.0581622542	 0.107571
H	 1.812554588	-0.2131964447	-1.0609115146	 0.097937
H	-1.3674633343	-1.7178787498	-0.9614466518	 0.246096
H	-0.9729959493	-3.1174396374	-1.8190532794	 0.245352
H	 0.8370019263	-2.089710064	-3.2928411599	 0.117139
H	 2.3873128702	-2.285720506	-2.4386935516	 0.109531
H	 1.6107005154	-4.4142219767	-1.9034940589	 0.302101
70.3676	77.2134	107.6841	141.1872	175.7401	193.4089	216.1786	253.9952	296.3447	339.1327	380.8192	392.3654	434.374	471.1879	597.5952	670.0117	693.6943	725.7782	801.8432	934.9985	951.5017	983.8772	1024.1213	1080.514	1101.6417	1136.4828	1170.4977	1188.2931	1203.6059	1255.241	1298.1365	1321.2854	1387.35	1392.2902	1422.7854	1461.2013	1489.477	1490.7354	1495.6864	1510.2579	1520.7106	1601.1004	2337.8192	2938.3555	2958.5764	3003.2987	3036.2697	3060.0264	3084.7809	3111.4695	3510.943	3535.0258	3647.7626	3789.1165
CNCC(N)(CO)C#N	CNC[C@@](N)(CO)C#N	
InChI=1S/C5H11N3O/c1-8-3-5(7,2-6)4-9/h8-9H,3-4,7H2,1H3	InChI=1S/C5H11N3O/c1-8-3-5(7,2-6)4-9/h8-9H,3-4,7H2,1H3/t5-/m1/s1
