15
gdb 52565	3.81676	0.66712	0.59996	4.9075	78.86	-0.2707	-0.0358	0.2349	1808.5994	0.110653	-416.822625	-416.812522	-416.811578	-416.860937	33.053	
C	 0.0158910167	 1.4366358703	-0.0389876663	-0.506084
C	 0.0341631262	-0.0160001422	-0.0412958524	 0.165929
C	 0.0406884954	-1.2211671174	-0.0487341173	-0.053111
C	-0.0014871714	-2.6686630422	-0.0782676508	 0.274252
O	-0.9810884121	-3.3088944452	-0.4120067339	-0.352397
N	 1.1754803333	-3.2578990659	 0.3225574094	-0.319465
C	 1.3345987345	-4.6956894376	 0.2920187502	-0.289178
C	 2.4134941209	-5.1233207537	-0.6083605153	 0.256005
N	 3.2821357389	-5.449781087	-1.2961918235	-0.296977
H	 0.282876573	 1.8302626618	 0.9475197677	 0.161867
H	 0.7333539977	 1.8364008644	-0.7635292645	 0.164266
H	-0.9767034717	 1.8177362017	-0.2994986098	 0.166916
H	 1.9662759013	-2.6726677873	 0.5385284075	 0.267557
H	 1.5340618546	-5.099739543	 1.2920279472	 0.159875
H	 0.3793260528	-5.1050155366	-0.0511639481	 0.200546
14.4598	42.0847	49.0607	93.6021	153.9579	242.0567	277.5894	325.793	371.7628	383.5586	440.8669	466.1279	544.3538	624.6979	761.0944	814.713	930.7043	991.2917	1048.2954	1051.8294	1067.7085	1144.2696	1241.4886	1276.1179	1373.4755	1410.8542	1467.5172	1470.2342	1473.1596	1520.6237	1757.9324	2357.1148	2364.8339	3034.0625	3035.551	3098.1447	3099.4021	3102.8619	3648.0035
CC#CC(=O)NCC#N	CC#CC(=O)NCC#N	
InChI=1S/C6H6N2O/c1-2-3-6(9)8-5-4-7/h5H2,1H3,(H,8,9)	InChI=1S/C6H6N2O/c1-2-3-6(9)8-5-4-7/h5H2,1H3,(H,8,9)
