17
gdb 47083	3.13905	1.53214	1.0784	4.889	75.13	-0.2554	-0.0425	0.2129	1083.2378	0.138806	-421.880093	-421.873027	-421.872083	-421.911722	27.468	
O	 0.039052306	 0.0127769516	 0.232757782	-0.344997
C	 0.0436961407	 1.1881806645	 0.0011218585	 0.384394
O	-1.115619417	 1.9115231152	-0.1582317364	-0.240437
C	-0.8485347621	 3.330807293	-0.2914597269	-0.104224
C	 0.6194454877	 3.425441563	-0.7363183612	-0.086604
C	 1.5937704787	 4.4844150916	-0.1785439175	-0.246372
C	 2.9024420136	 3.6762776261	 0.090219906	-0.248739
C	 2.3947188073	 2.2649394243	 0.3182727569	-0.209294
C	 1.1537701365	 2.1495897169	-0.1497366201	 0.180553
H	-1.5720994014	 3.7285341884	-1.0053354201	 0.123919
H	-1.0083183498	 3.8074323785	 0.6837551961	 0.115216
H	 0.6641350444	 3.3921581465	-1.8340585237	 0.095536
H	 1.7489323458	 5.333838371	-0.8478246731	 0.106926
H	 1.2110885124	 4.8741810143	 0.7717057469	 0.10993
H	 3.5818329381	 3.7114249783	-0.7737610636	 0.121623
H	 3.4707678938	 4.061396812	 0.943047018	 0.117064
H	 2.9599993754	 1.4892596146	 0.8208629083	 0.125504
121.9281	178.0088	197.2235	298.3438	322.3662	462.1645	575.4729	605.467	639.7611	699.0491	753.5551	811.0906	848.2607	898.0071	909.9189	950.7953	966.7923	985.0618	1026.2953	1048.8377	1084.6692	1096.9235	1170.4072	1191.76	1225.3061	1231.4757	1258.9408	1299.0017	1310.9946	1332.8619	1359.1794	1393.0582	1478.2622	1494.429	1516.9275	1724.1337	1870.4002	3001.8899	3009.2072	3030.1868	3044.2436	3073.5507	3106.4083	3114.0644	3211.9479
O=C1OCC2CCC=C12	O=C1OC[C@H]2CCC=C12	
InChI=1S/C7H8O2/c8-7-6-3-1-2-5(6)4-9-7/h3,5H,1-2,4H2	InChI=1S/C7H8O2/c8-7-6-3-1-2-5(6)4-9-7/h3,5H,1-2,4H2/t5-/m1/s1
