17
gdb 33176	2.77575	1.32203	1.00221	2.9799	70.2	-0.1956	0.0307	0.2264	1173.9609	0.137147	-455.195209	-455.186549	-455.185605	-455.229308	31.715	
O	-0.0015363579	 1.4500394624	 0.1174526071	-0.418971
C	 0.0106092484	 0.0323017077	 0.0709887226	-0.070723
C	-1.3983145645	-0.561301482	-0.0221586116	-0.176749
N	-2.097907111	-0.1364627704	-1.218345957	-0.09207
C	-2.7372228477	 1.0860881916	-1.4304437661	-0.138171
C	-3.2195806899	 1.0864819244	-2.6905907907	-0.095996
N	-2.872782385	-0.1345594741	-3.2614664985	-0.361361
C	-2.1649279332	-0.9240794133	-2.3661458738	 0.462812
O	-1.7048121375	-2.0395737804	-2.5318750562	-0.447025
H	-0.2096559792	 1.7687198245	-0.7667060855	 0.290969
H	 0.6190716598	-0.3396704288	-0.7652065985	 0.112664
H	 0.4783169183	-0.3059050535	 1.0017337157	 0.114292
H	-1.3416703842	-1.6530517251	-0.0586113258	 0.143034
H	-1.9823758626	-0.2635980745	 0.8548419736	 0.117127
H	-2.8029287124	 1.8279317468	-0.6535860484	 0.149009
H	-3.7785963633	 1.8343296257	-3.2250867296	 0.141642
H	-3.085343688	-0.448657121	-4.1913273872	 0.269515
45.8348	89.5588	132.4651	222.3388	256.8108	323.7317	342.7913	435.8015	471.5129	532.2059	604.8378	658.005	667.0545	759.3624	772.2122	775.6379	876.6803	898.6213	953.7838	1039.6955	1068.4986	1096.5664	1104.6537	1180.6476	1190.8357	1232.3141	1286.3202	1363.0832	1389.5631	1395.137	1401.5012	1414.1549	1443.4872	1471.0725	1497.8457	1629.9912	1821.0629	3011.2415	3049.3382	3082.1575	3112.5031	3280.7028	3301.6768	3698.579	3818.5779
OCCN1C=CNC1=O	OCCn1cc[nH]c1=O	
InChI=1S/C5H8N2O2/c8-4-3-7-2-1-6-5(7)9/h1-2,8H,3-4H2,(H,6,9)	InChI=1S/C5H8N2O2/c8-4-3-7-2-1-6-5(7)9/h1-2,8H,3-4H2,(H,6,9)
