21
gdb 38733	2.31278	2.31244	2.24854	0.1511	82.46	-0.2609	0.0858	0.3466	846.6529	0.189055	-349.985107	-349.979416	-349.978472	-350.014608	26.649	
C	-0.0269996094	 1.5515510738	 0.0226251601	-0.205067
C	 1.4785499743	 1.9045546659	-0.0160368945	-0.035713
C	 2.0611903661	 1.5241430553	-1.3976470111	-0.205121
C	 1.9898527412	-0.0207673879	-1.367878942	-0.03552
C	 0.5094957609	-0.468557359	-1.3958960679	-0.205291
C	-0.0006962525	 0.0053896645	-0.014496374	-0.035474
C	 1.1748356511	-0.3432239411	 0.9267874018	-0.060089
C	 2.1051783966	 0.8512104912	 0.9258827476	-0.06008
C	 2.4267891894	-0.3595289688	 0.0756121812	-0.060054
H	-0.4735235063	 1.8999012661	 0.9608213924	 0.088312
H	-0.5935496131	 1.9919806438	-0.805921758	 0.083355
H	 1.6880959856	 2.9366882428	 0.2721048337	 0.054821
H	 1.5062013198	 1.9642128941	-2.2342359711	 0.083396
H	 3.1037468004	 1.8533680846	-1.4727553164	 0.088313
H	 2.5998732675	-0.4965205082	-2.1384822057	 0.054813
H	-0.0538383506	-0.0400264632	-2.2329449388	 0.083384
H	 0.4458138355	-1.5601605394	-1.4686770672	 0.088332
H	-0.9498500516	-0.4499536318	 0.2753758049	 0.054806
H	 1.0521327431	-0.9834782671	 1.7920956231	 0.074301
H	 2.6965866962	 1.1277666085	 1.7904745964	 0.074301
H	 3.2650899461	-1.0122532041	 0.2876210354	 0.074276
347.0983	349.0266	458.2893	557.2222	558.2166	565.2098	737.663	738.3322	790.4096	790.5919	817.0543	851.4619	853.0317	855.6525	917.1531	918.1037	939.5657	939.9471	951.1203	995.2727	1006.5069	1007.3115	1047.0958	1048.0234	1075.2981	1083.2095	1101.9136	1118.6647	1159.6763	1161.0558	1232.929	1260.9825	1267.3707	1267.9672	1277.596	1278.2512	1314.5422	1331.7294	1332.9951	1360.4328	1360.8808	1379.3917	1483.2021	1484.0444	1504.2558	3028.1664	3028.4956	3032.3842	3071.6959	3071.9602	3078.7259	3085.9036	3086.2153	3090.7313	3173.4482	3173.737	3188.2454
C1C2CC3CC1C1C2C31	C1[C@@H]2C[C@@H]3C[C@H]1[C@@H]1[C@H]2[C@H]31	
InChI=1S/C9H12/c1-4-2-6-3-5(1)8-7(4)9(6)8/h4-9H,1-3H2	InChI=1S/C9H12/c1-4-2-6-3-5(1)8-7(4)9(6)8/h4-9H,1-3H2/t4-,5+,6-,7+,8-,9+
