20
gdb 15835	3.97304	1.0811	0.90831	1.6337	72.21	-0.2525	0.0878	0.3404	1318.3934	0.174347	-386.113312	-386.103741	-386.102797	-386.148664	33.457	
C	 0.0682577215	 1.5952477315	-0.0161841812	-0.382622
C	 0.1766262726	 0.0806949962	-0.0823591751	-0.033857
O	 0.6645551749	-0.3824078806	 1.1623909506	-0.263984
C	 0.6993732136	-1.793029627	 1.3137324412	 0.118979
C	 1.8380230002	-2.4516498542	 0.5298515202	-0.412896
C	 0.8536295597	-2.0392862965	 2.7998575456	 0.086454
C	-0.2928869233	-2.3310597339	 3.6628680089	-0.180414
O	 0.5929446558	-3.3725701227	 3.2367421145	-0.240505
H	 1.0473925692	 2.0404536749	 0.182200208	 0.127065
H	-0.30790496	 1.9924761605	-0.9637501872	 0.114182
H	-0.6129292363	 1.8970273285	 0.7843982295	 0.125234
H	-0.8088950501	-0.3690598485	-0.2911197296	 0.084615
H	 0.8464312616	-0.2146678379	-0.9046258182	 0.090841
H	-0.2610095137	-2.2295714102	 0.992067306	 0.066293
H	 1.7062000983	-2.3381940432	-0.5495153584	 0.116504
H	 2.797920812	-2.0054978721	 0.8096329871	 0.121134
H	 1.8682334349	-3.521100326	 0.7573724299	 0.136954
H	 1.7358078456	-1.5759629742	 3.244873695	 0.096475
H	-0.2504099815	-2.0876251218	 4.7232335734	 0.116308
H	-1.292678775	-2.3640517427	 3.2320402499	 0.11324
44.7998	60.7172	99.2582	145.5167	224.1835	238.8099	248.5053	317.8317	344.7879	408.4861	497.9753	539.833	813.6601	823.0185	851.0229	883.5279	930.4197	968.3253	973.7515	1057.8112	1098.771	1116.8768	1142.0612	1153.0463	1156.2018	1171.1914	1187.1671	1208.686	1284.988	1297.1105	1317.5636	1356.2292	1397.1882	1401.5145	1429.9183	1456.6867	1483.4791	1494.1994	1496.7209	1500.665	1528.9282	1532.4124	2959.1326	2967.3013	2996.2569	3041.155	3044.7083	3085.1132	3101.6477	3115.2325	3119.1738	3121.2906	3122.0345	3172.8102
CCOC(C)C1CO1	CCO[C@@H](C)[C@H]1CO1	
InChI=1S/C6H12O2/c1-3-7-5(2)6-4-8-6/h5-6H,3-4H2,1-2H3	InChI=1S/C6H12O2/c1-3-7-5(2)6-4-8-6/h5-6H,3-4H2,1-2H3/t5-,6+/m0/s1
