17
gdb 62718	2.76097	1.44847	1.27088	4.4648	75.65	-0.2333	-0.0515	0.1818	1044.0261	0.135197	-421.842872	-421.834816	-421.833871	-421.875026	31.525	
C	-0.1098377852	 1.5704426055	-0.0285938363	-0.471049
C	 0.0337042056	 0.0689328499	 0.0273894863	 0.404362
O	-1.1071621933	-0.6187198122	-0.3992428207	-0.450927
C	 1.3486042502	-0.688847899	-0.2353552194	-0.170006
C	 2.6227446602	 0.0589509632	-0.077264274	-0.068773
C	 2.8095428896	 0.4929118002	 1.180435475	-0.213394
C	 1.6773907804	 0.0606026411	 2.0454668602	 0.38792
O	 1.5410835867	 0.2589138633	 3.2313749174	-0.339189
C	 0.7185415913	-0.6938102812	 1.1424505579	-0.218549
H	 0.7985575854	 2.0877233537	 0.2798294664	 0.140071
H	-0.3441325844	 1.8874606323	-1.0530853892	 0.109552
H	-0.9304876603	 1.8883177505	 0.6213892962	 0.142024
H	-1.396031362	-0.2302074203	-1.232822205	 0.286295
H	 1.2801872305	-1.54086325	-0.9007338436	 0.104854
H	 3.2871492412	 0.2529625826	-0.9124401273	 0.11713
H	 3.6291025913	 1.0934338572	 1.5523683913	 0.117353
H	 0.1786262327	-1.5432345568	 1.5404339349	 0.122328
122.177	203.8959	221.7117	232.6995	278.9652	332.9828	405.3216	425.4612	481.0622	493.0668	624.0717	655.7755	753.2743	775.6311	801.5426	856.517	881.9536	910.3363	964.7632	983.8227	1004.8195	1027.9729	1047.8666	1087.619	1110.8625	1156.8478	1169.5887	1261.2835	1282.8196	1291.9149	1365.8278	1408.7413	1424.3319	1491.1646	1496.1315	1620.3711	1805.4524	3026.0085	3096.4002	3150.8635	3184.7415	3193.6926	3207.6835	3231.3594	3795.3226
CC1(O)C2C=CC(=O)C12	C[C@@]1(O)[C@H]2C=CC(=O)[C@@H]12	
InChI=1S/C7H8O2/c1-7(9)4-2-3-5(8)6(4)7/h2-4,6,9H,1H3	InChI=1S/C7H8O2/c1-7(9)4-2-3-5(8)6(4)7/h2-4,6,9H,1H3/t4-,6-,7+/m0/s1
