23
gdb 101867	5.23844	0.53728	0.51237	4.2355	88.3	-0.2465	0.023	0.2695	2174.9229	0.204439	-384.481438	-384.470257	-384.469313	-384.518939	39.195	
C	-0.1109438832	 1.553696863	 0.0688740818	-0.391947
C	-0.0182215445	 0.0284145367	-0.0392514077	-0.16831
C	 0.7825615411	-0.4803215861	-1.2520127829	 0.016837
C	 2.2536815087	-0.0448727794	-1.2178208518	-0.385277
C	 0.6606193146	-2.0083246739	-1.3530614225	-0.130424
N	 1.2563994047	-2.518924007	-2.5868060772	-0.298625
C	 1.168749472	-3.9686235515	-2.6951813392	-0.257984
C	 1.7303268993	-4.4403190713	-3.964433951	 0.254073
N	 2.1507347369	-4.811326567	-4.9741355442	-0.297837
H	 0.8697444998	 2.0133545071	 0.221917365	 0.122073
H	-0.5444365322	 1.9886387017	-0.8388745431	 0.114169
H	-0.7452764774	 1.8457977733	 0.9114261435	 0.114333
H	 0.431628005	-0.3761957163	 0.8782658722	 0.09505
H	-1.0336312718	-0.3858283706	-0.0875989744	 0.091831
H	 0.3179307227	-0.0560115873	-2.1567731042	 0.067573
H	 2.3558723791	 1.0408554006	-1.2932790702	 0.11406
H	 2.7271998559	-0.3612250006	-0.2801143242	 0.108498
H	 2.8075137784	-0.4999404965	-2.0420060284	 0.133261
H	 1.1919518451	-2.4728040846	-0.510225391	 0.104217
H	-0.401504445	-2.3007158563	-1.2514271599	 0.078429
H	 0.8012600826	-2.0936252548	-3.3889188643	 0.229593
H	 1.7429593675	-4.4193311709	-1.8758187095	 0.156903
H	 0.1411295504	-4.3696427184	-2.6097542968	 0.129505
40.818	72.4736	77.6055	106.7731	135.6818	196.704	208.3693	256.3538	292.6304	293.4387	378.6374	394.4104	429.9933	502.5718	579.8962	774.1168	778.9215	832.7183	912.3188	916.2857	955.368	980.1093	996.2002	1025.1255	1046.8971	1066.4133	1142.8057	1158.0981	1173.9418	1190.2154	1232.0767	1288.0217	1299.8646	1312.2318	1355.5284	1377.5755	1381.3642	1405.3594	1416.2017	1422.6989	1482.8054	1489.4433	1492.9229	1494.8947	1500.7607	1506.586	1511.869	1515.0731	2368.4314	2922.1661	2928.4062	2973.9045	3008.2126	3022.929	3032.0276	3034.7405	3044.3277	3046.1128	3099.3745	3101.5245	3111.7901	3129.8336	3513.3911
CCC(C)CNCC#N	CC[C@@H](C)CNCC#N	
InChI=1S/C7H14N2/c1-3-7(2)6-9-5-4-8/h7,9H,3,5-6H2,1-2H3	InChI=1S/C7H14N2/c1-3-7(2)6-9-5-4-8/h7,9H,3,5-6H2,1-2H3/t7-/m1/s1
