19
gdb 97921	4.25221	0.55527	0.52075	2.5866	77.3	-0.255	0.0257	0.2807	2086.6264	0.156528	-460.11623	-460.10533	-460.104386	-460.154567	37.616	
O	 0.4089346669	 0.1421761074	-0.827910063	-0.402221
C	-0.2969543269	 0.5146620305	 0.34751268	-0.187855
C	-1.6079491837	-0.1237655313	 0.4634102017	 0.100384
C	-2.663190215	-0.6997169252	 0.536373543	 0.030447
C	-3.939748932	-1.3980830323	 0.6136890067	-0.401683
C	-3.9402267314	-2.7532499728	-0.1165144054	 0.108003
O	-2.9288498134	-3.6357563785	 0.3684884868	-0.43176
C	-5.2999246358	-3.4537787035	-0.0307963262	-0.060389
O	-5.2496288841	-4.717842613	-0.6497601081	-0.423291
H	 0.4020829893	-0.8197709327	-0.8733891238	 0.289612
H	 0.2933241459	 0.3013618341	 1.2534665159	 0.115575
H	-0.4090109231	 1.6034795695	 0.2950261576	 0.138931
H	-4.2127224871	-1.562562443	 1.6670896932	 0.121802
H	-4.7391546617	-0.7752892497	 0.1909224019	 0.138908
H	-3.6886653551	-2.5995008974	-1.1711097131	 0.111873
H	-2.9839335882	-3.6540149755	 1.33146516	 0.284792
H	-5.595449611	-3.5334728845	 1.0327968376	 0.071136
H	-6.0700841416	-2.864143384	-0.5406337653	 0.109613
H	-4.3978706519	-5.0941560782	-0.3907234392	 0.286123
16.6265	51.4287	57.775	135.7072	165.7918	200.3267	256.3224	303.9101	321.252	348.361	358.3267	397.2085	458.3885	511.2354	549.1175	614.4959	782.9395	854.229	889.2671	990.2431	1023.3143	1047.0748	1073.2777	1094.1702	1112.9075	1158.8432	1184.7489	1213.9298	1217.3769	1273.9978	1326.7414	1356.3451	1361.249	1384.3832	1418.9449	1424.5002	1445.4252	1468.5959	1493.969	1506.5351	2366.5052	2924.5968	2972.1122	2995.8181	3038.4481	3060.086	3061.3855	3076.0461	3759.8902	3788.2126	3815.3656
OCC#CCC(O)CO	OCC#CC[C@@H](O)CO	
InChI=1S/C6H10O3/c7-4-2-1-3-6(9)5-8/h6-9H,3-5H2	InChI=1S/C6H10O3/c7-4-2-1-3-6(9)5-8/h6-9H,3-5H2/t6-/m1/s1
