15
gdb 48536	3.1933	1.52405	1.49369	2.9667	69.37	-0.2568	-0.0443	0.2125	927.2651	0.11377	-416.770008	-416.763296	-416.762352	-416.801333	25.946	
O	-0.1661529711	 0.0057576507	-0.0310757407	-0.257796
C	-0.0307144473	 1.2044227632	-0.0309967135	 0.029889
C	 1.2809184727	 1.8770580027	-0.0309926193	 0.270244
C	 1.82082929	 2.9667577985	 0.854816864	-0.08708
C	 3.1472079855	 2.216830003	 1.0092772451	-0.23601
C	 2.7318891215	 1.3452669242	-0.2264803508	-0.096389
N	 3.2525249926	 2.0585645654	-1.4064632739	-0.177343
C	 2.5486908568	 3.1131206119	-1.4826854147	 0.03317
N	 1.4437887281	 3.2468865808	-0.5654986189	-0.190766
H	-0.8943250643	 1.9040437032	-0.0138563146	 0.091082
H	 1.311151723	 3.5681632823	 1.5976844463	 0.122997
H	 4.0854248343	 2.7703797257	 0.9238751709	 0.11951
H	 3.1286594686	 1.633705906	 1.9323858234	 0.12909
H	 2.9407881395	 0.2801650067	-0.2244735336	 0.110923
H	 2.7203524502	 3.9177644657	-2.1893457098	 0.13848
96.1645	166.2572	231.4407	383.5611	429.3795	482.4857	551.874	662.465	726.703	742.7382	793.7093	839.7439	889.2954	897.8711	941.5462	959.008	977.0714	992.656	1035.2782	1046.6607	1097.9995	1133.5437	1166.0046	1171.5035	1237.9752	1259.473	1292.267	1314.6716	1364.7834	1421.9172	1480.6154	1666.335	1809.7161	2902.1831	3067.5481	3130.3928	3175.8502	3194.264	3206.4916
O=CC12C3CC1N=CN23	O=C[C@@]12[C@H]3C[C@@H]1[N][CH]N23	
InChI=1S/C6H6N2O/c9-2-6-4-1-5(6)8(6)3-7-4/h2-5H,1H2	InChI=1S/C6H6N2O/c9-2-6-4-1-5(6)8(6)3-7-4/h2-5H,1H2/t4-,5+,6-,8?/m0/s1
