13
gdb 24929	5.25578	1.37699	1.09112	4.8708	66.48	-0.1947	0.029	0.2237	1009.2798	0.091258	-452.760628	-452.753818	-452.752873	-452.792302	25.963	
N	-0.0522101574	 1.2626892646	 0.0100004283	-0.563316
C	-0.0102602479	 0.0110339961	 0.0029117515	 0.460393
O	 1.1540487989	-0.7836130432	-0.0075844327	-0.267609
C	 0.6704784411	-2.0605029119	-0.0121197401	 0.344389
C	-0.6755209265	-2.0880466415	-0.0052687799	 0.284585
O	-1.1307509908	-0.7772087344	 0.0043456684	-0.240114
C	-1.1056732121	-3.4344475939	-0.010521808	-0.322095
C	 0.0661506632	-4.1750851007	-0.0206092166	-0.0689
N	 1.1688462006	-3.3209796382	-0.0217301093	-0.401347
H	 0.8827765347	 1.660342911	 0.0073033322	 0.240173
H	-2.1063913729	-3.8323005545	-0.0075451543	 0.121565
H	 0.2119799919	-5.2416896696	-0.0271997259	 0.132437
H	 2.1330292871	-3.6014958939	-0.0282875635	 0.279839
52.6607	186.1178	316.2258	341.4931	381.9472	565.2656	594.8235	604.4548	623.4439	702.8749	719.467	765.7433	767.7887	802.994	805.4694	890.8278	945.6017	975.3327	1053.9634	1090.7953	1136.061	1266.251	1271.436	1365.4387	1469.8695	1480.4779	1575.0873	1675.9858	1815.347	3272.4952	3290.1673	3555.1132	3696.5592
N=C1OC2=C(O1)C=CN2	[NH][C@@H]1Oc2c(O1)cc[nH]2	
InChI=1S/C5H4N2O2/c6-5-8-3-1-2-7-4(3)9-5/h1-2,6-7H	InChI=1S/C5H5N2O2/c6-5-8-3-1-2-7-4(3)9-5/h1-2,5-7H/t5-/m0/s1
