22
gdb 96369	2.27759	1.70075	1.12796	0.6064	81.84	-0.2359	0.0757	0.3116	1153.4085	0.196015	-404.336393	-404.327877	-404.326933	-404.369199	33.877	
C	-0.1090180792	 1.5168596145	-0.1171376798	-0.429631
C	 0.068726972	 0.0114328747	 0.0291149303	 0.051166
O	 0.7447289211	-0.4223591394	-1.1497267176	-0.254703
C	 0.8579253634	-1.8324357703	-1.2500269571	-0.064519
C	 1.6556736109	-2.4161386615	-0.0841190415	-0.206909
C	 1.0133966187	-1.9877170992	 1.2418900455	-0.259599
C	 0.8178597033	-0.4805497972	 1.2708765699	 0.341447
C	 1.8175468441	 0.3766343132	 1.9556188393	-0.278759
N	 0.5245589119	 0.0681232953	 2.6035657314	-0.371651
H	 0.8572592695	 2.0112165696	-0.2457030276	 0.132312
H	-0.7100948809	 1.7211359718	-1.0064003157	 0.130483
H	-0.6237697047	 1.9555331733	 0.7427205598	 0.112007
H	-0.9318226662	-0.4609283525	 0.0533111619	 0.064059
H	-0.1471426082	-2.2892894437	-1.2818526311	 0.082505
H	 1.3453662864	-2.0283089202	-2.2096161471	 0.103984
H	 1.6951138267	-3.5082284866	-0.166756747	 0.093735
H	 2.6857747506	-2.0441981042	-0.1381908072	 0.104822
H	 0.0318329631	-2.4706296587	 1.3487435229	 0.096708
H	 1.6120721325	-2.3004471337	 2.1023040331	 0.103119
H	 2.6830048526	-0.0813378651	 2.4277500919	 0.112895
H	 1.9876368495	 1.3855442646	 1.5931453011	 0.111281
H	-0.090392267	 0.8753158252	 2.5317553247	 0.22525
81.556	170.4374	190.9659	283.3579	298.4146	317.1976	365.9514	387.2331	433.725	466.6571	537.8585	581.4802	701.2041	832.9784	849.8784	866.9566	893.7999	912.5032	932.1463	955.4471	976.2614	1011.6826	1052.6239	1075.9413	1092.2106	1102.1348	1125.6995	1136.447	1161.0592	1210.1928	1230.9343	1261.3458	1297.8083	1304.0167	1356.6532	1370.0137	1373.8248	1381.262	1397.8521	1412.3402	1425.5721	1476.6639	1479.6051	1487.9096	1496.1642	1502.1524	1517.6005	2920.1818	2951.8993	3014.3811	3032.1711	3048.4306	3076.0629	3081.9022	3086.0055	3111.1397	3119.7998	3128.5474	3196.3028	3498.1376
CC1OCCCC11CN1	C[C@H]1OCCC[C@]21CN2	
InChI=1S/C7H13NO/c1-6-7(5-8-7)3-2-4-9-6/h6,8H,2-5H2,1H3	InChI=1S/C7H13NO/c1-6-7(5-8-7)3-2-4-9-6/h6,8H,2-5H2,1H3/t6-,7-/m1/s1
