21
gdb 118994	3.25118	0.93551	0.88829	1.0422	74.34	-0.2529	0.0783	0.3312	1402.561	0.181491	-461.358725	-461.34894	-461.347996	-461.39401	35.457	
C	 0.1077110601	 1.5994801966	 0.0282536891	-0.426936
C	-0.0084971673	 0.0729192237	-0.0271318961	 0.360455
C	-1.4543906222	-0.4344782739	-0.0350365386	-0.210595
C	-2.2794161183	-0.0246171543	 1.1796408846	-0.086442
O	-3.5459615848	-0.6585908147	 1.0568218532	-0.422884
C	 0.815463573	-0.5086244707	-1.2030134318	-0.153775
O	 2.0877416167	-0.7621477261	-0.6283250412	-0.237836
C	 1.7885167855	-1.214454293	 0.6666522911	 0.018361
O	 0.6844073893	-0.4630225926	 1.1246018358	-0.301476
H	 1.1537232516	 1.8932224525	-0.0968787597	 0.126351
H	-0.4859765049	 2.0699639501	-0.7627481498	 0.11186
H	-0.2356821879	 1.9813025263	 0.9928318884	 0.126521
H	-1.9583597823	-0.0837722905	-0.9445310566	 0.10365
H	-1.4448341849	-1.5293277614	-0.0784676678	 0.106768
H	-1.7561592296	-0.3397186344	 2.0936012314	 0.106049
H	-2.3913180305	 1.0696959664	 1.219211329	 0.084719
H	-4.066196347	-0.4386223555	 1.834887445	 0.285247
H	 0.3626181805	-1.4390256719	-1.5793016642	 0.093384
H	 0.9439504019	 0.1898116421	-2.0321252903	 0.117836
H	 1.5374573453	-2.2914179303	 0.656406358	 0.082594
H	 2.6543467257	-1.0384899284	 1.3129091304	 0.11615
55.0921	86.5065	95.2725	162.022	244.5134	260.3156	264.004	330.4789	338.8752	349.1542	415.5132	468.6862	687.6066	734.4092	791.5315	796.8912	909.7301	945.9206	956.2757	982.6345	1008.2407	1047.2311	1063.3742	1069.6495	1114.9722	1159.431	1183.7977	1188.3919	1211.9893	1223.4855	1247.006	1265.5628	1290.0915	1329.4111	1354.3447	1365.2807	1404.312	1432.8821	1459.1497	1476.4474	1487.6476	1500.9974	1511.5558	1531.2963	1547.3142	2929.1282	2980.1323	2985.0618	3018.8899	3031.3784	3039.6569	3074.3083	3078.7534	3110.4127	3112.9024	3124.1972	3831.2119
CC1(CCO)COCO1	C[C@@]1(CCO)COCO1	
InChI=1S/C6H12O3/c1-6(2-3-7)4-8-5-9-6/h7H,2-5H2,1H3	InChI=1S/C6H12O3/c1-6(2-3-7)4-8-5-9-6/h7H,2-5H2,1H3/t6-/m1/s1
