21
gdb 110359	2.92635	1.15327	1.01555	1.6588	78.98	-0.2361	0.0693	0.3054	1285.3908	0.181143	-424.17948	-424.170013	-424.169069	-424.213657	35.521	
C	-0.4441781267	 0.962001581	-0.087211435	-0.236026
O	 0.5199365328	-0.0533810042	 0.1103089119	-0.240235
C	 0.9327059794	-0.644604795	-1.0825350876	 0.124267
C	 1.5040082393	-2.0154811401	-1.0724434638	-0.134075
C	 0.1429676489	-1.7318618183	-1.7601141594	-0.180126
C	-0.5751205292	-2.6021315679	-0.7146398412	 0.14053
O	-1.2777855874	-3.7082043143	-1.2339062635	-0.433036
C	 0.8064193722	-2.8989940858	-0.0194206435	-0.02179
C	 1.2386811469	-4.3597423234	-0.039653455	-0.410163
H	-0.0433310752	 1.7855335405	-0.6977788498	 0.105767
H	-1.3471963625	 0.5745261744	-0.5798463454	 0.11396
H	-0.7102803159	 1.3503825574	 0.8984840857	 0.128031
H	 1.4143640695	 0.0524945916	-1.7725066595	 0.08635
H	 2.4715532181	-2.2314221188	-1.514002787	 0.082281
H	-0.1232088202	-1.6919051521	-2.8114931139	 0.083084
H	-1.2972308855	-2.0761558307	-0.0846060625	 0.08929
H	-0.7062395722	-4.1620513163	-1.8622151748	 0.277864
H	 0.8768685524	-2.5056171817	 0.9988666045	 0.083989
H	 1.2523824617	-4.7745701605	-1.0546339126	 0.096041
H	 2.2532348675	-4.4610415427	 0.3596135717	 0.116206
H	 0.5695379459	-4.9781599631	 0.5650448706	 0.127791
84.5746	95.1017	161.8733	206.8422	217.4717	256.5266	280.4321	315.8643	330.6762	383.35	494.1178	603.2189	629.7022	723.8583	763.1903	808.5764	829.174	919.2611	963.6009	990.4441	995.4843	1021.0069	1062.2205	1074.822	1091.409	1109.5661	1134.3253	1140.3533	1181.2462	1193.3041	1234.6814	1245.6054	1247.6093	1285.1378	1298.3858	1327.8131	1362.8081	1410.5073	1417.9629	1435.3462	1485.4023	1487.7132	1490.3562	1505.3237	1508.9745	2982.6577	3027.231	3035.3642	3057.9878	3074.4986	3075.6911	3090.0076	3113.1655	3119.859	3155.7174	3166.9943	3808.2332
COC1C2C1C(O)C2C	CO[C@H]1[C@@H]2[C@H]1[C@@H](O)[C@H]2C	
InChI=1S/C7H12O2/c1-3-4-5(6(3)8)7(4)9-2/h3-8H,1-2H3	InChI=1S/C7H12O2/c1-3-4-5(6(3)8)7(4)9-2/h3-8H,1-2H3/t3-,4-,5-,6-,7-/m0/s1
