16
gdb 55427	2.64963	1.46608	0.9983	1.6854	65.42	-0.2562	-0.0439	0.2123	1129.6057	0.124643	-475.076934	-475.068774	-475.06783	-475.110259	30.203	
N	-0.1024777857	 1.3578337866	 0.027124268	-0.522945
C	 0.0752844462	 0.0182473947	-0.1219668202	 0.387368
O	 1.1288966741	-0.509152385	-0.418746716	-0.355168
C	-1.2047589897	-0.8084242288	 0.0536368524	-0.244553
C	-0.9783584367	-2.3164697299	 0.2029026917	-0.098355
O	-2.1088694034	-2.7958305981	 0.9403928173	-0.250667
C	-2.4436012995	-1.8205091395	 1.9006880555	-0.171106
C	-2.0349093922	-0.4787489847	 1.2983031956	 0.360673
O	-2.3006967313	 0.6178215697	 1.7260941381	-0.318321
H	 0.7273625486	 1.9303688977	 0.0230966662	 0.261547
H	-0.9180587641	 1.6860741833	 0.528025711	 0.277147
H	-1.8536654193	-0.5987107406	-0.8075296777	 0.147263
H	-0.9500151906	-2.856466863	-0.7432959296	 0.131003
H	-0.0390906851	-2.5046281593	 0.7398534169	 0.123955
H	-3.5146671599	-1.861678975	 2.1181304291	 0.145084
H	-1.8948574113	-1.953968128	 2.8500358317	 0.127074
64.4722	91.1387	199.3587	209.0917	270.6229	397.1368	413.6114	498.5311	530.064	552.7568	602.2085	629.9427	668.3561	724.1538	779.0854	917.8378	946.7628	959.2972	1038.6293	1085.185	1104.1866	1147.5435	1160.2004	1201.7956	1218.5654	1241.041	1273.3096	1325.403	1357.5847	1384.8608	1472.4933	1517.5912	1627.5237	1802.3455	1834.3703	2957.5267	3024.8444	3035.347	3091.9316	3133.2318	3537.0024	3684.9361
NC(=O)C1COCC1=O	NC(=O)[C@H]1COCC1=O	
InChI=1S/C5H7NO3/c6-5(8)3-1-9-2-4(3)7/h3H,1-2H2,(H2,6,8)	InChI=1S/C5H7NO3/c6-5(8)3-1-9-2-4(3)7/h3H,1-2H2,(H2,6,8)/t3-/m0/s1
