19
gdb 66775	2.40809	2.12129	1.75175	1.2402	76.48	-0.2239	0.0655	0.2894	892.9523	0.16135	-385.851158	-385.844143	-385.843199	-385.882205	29.195	
O	-0.0710896047	 1.4099066082	 0.0172247512	-0.488472
C	-0.0207854289	 0.0260231536	 0.0024067482	 0.392807
C	-1.3024570367	-0.8699089774	 0.0576992427	-0.160032
C	-0.4281328714	-1.8698167107	 0.775095466	-0.067236
C	-0.5039109657	-1.8561690991	-0.7599379437	-0.067251
C	 0.5408332997	-0.8169670872	-1.1936308353	-0.089866
C	 1.9999475281	-1.1849864184	-0.8922984141	-0.236457
C	 2.0771641879	-1.1990589506	 0.6720261939	-0.236458
C	 0.6551775026	-0.8375791081	 1.1221307939	-0.089958
H	 0.8295818349	 1.7511036745	-0.0223660191	 0.279816
H	-2.3586613188	-0.6549862408	 0.1117567126	 0.093388
H	-0.7333733277	-2.7339751015	 1.351391541	 0.081904
H	-0.8652147373	-2.7102323321	-1.318588931	 0.081903
H	 0.3420120857	-0.3876785191	-2.1777469432	 0.064395
H	 2.2717607038	-2.1509260787	-1.3288534845	 0.099892
H	 2.6898651602	-0.4455405536	-1.3147953774	 0.088681
H	 2.3895114732	-2.1725294992	 1.0622821649	 0.099905
H	 2.8061928916	-0.4669215745	 1.0377566285	 0.088659
H	 0.5546670636	-0.4260211654	 2.1285248155	 0.06438
154.5216	162.985	232.7862	338.9892	399.2012	472.4095	606.8194	654.7301	672.0226	740.9327	763.4281	794.8549	805.1193	843.2329	877.9764	887.3984	916.9657	942.3231	956.4563	992.87	1005.6997	1030.5507	1043.5016	1051.7473	1066.8831	1094.5014	1115.3724	1175.5313	1176.9893	1199.1416	1244.413	1253.3561	1266.8844	1283.3046	1319.4422	1335.7512	1349.5082	1369.377	1398.6771	1485.6988	1506.5056	3029.2994	3042.6754	3067.896	3088.2731	3094.5235	3097.4496	3187.3261	3195.379	3236.7424	3796.2362
OC12C3C4C3C1CCC24	O[C@@]12[C@@H]3[C@H]4[C@@H]3[C@@H]1CC[C@@H]24	
InChI=1S/C8H10O/c9-8-3-1-2-4(8)6-5(3)7(6)8/h3-7,9H,1-2H2	InChI=1S/C8H10O/c9-8-3-1-2-4(8)6-5(3)7(6)8/h3-7,9H,1-2H2/t3-,4+,5-,6+,7-,8-
