16
gdb 22053	4.41058	0.63121	0.55597	3.2861	87.38	-0.2513	-0.0748	0.1766	1903.8433	0.119895	-437.839278	-437.828785	-437.82784	-437.876946	35.057	
C	 0.0069312609	 1.4891322054	-0.0302527858	-0.477618
C	 0.0457106535	-0.0237002612	 0.0350670494	 0.234313
O	 0.0900649165	-0.6419947353	 1.0783631574	-0.275534
C	 0.0262635385	-0.7029770097	-1.245876599	 0.15909
C	 0.0095702035	-1.2572713651	-2.3214391544	-0.04276
C	-0.0065731234	-1.9898467339	-3.5383246071	 0.187537
C	 0.0317218923	-3.497491262	-3.5088245547	-0.480711
N	-0.0542349555	-1.2850113422	-4.6193368936	-0.137731
O	-0.065712481	-2.098537882	-5.7409701674	-0.379322
H	 0.8617521955	 1.8629119608	-0.6040853439	 0.149111
H	-0.8968460472	 1.8198971344	-0.5532439149	 0.14914
H	 0.0260954536	 1.8981268664	 0.9808981446	 0.143378
H	-0.85129499	-3.9049754582	-4.0108962855	 0.154331
H	 0.9055303475	-3.8613653484	-4.0582759936	 0.154335
H	 0.0685070536	-3.8644802306	-2.4836741996	 0.144343
H	-0.1017311084	-1.4603249584	-6.4627150718	 0.318101
27.9388	63.9834	68.0085	92.2501	120.5301	175.6096	250.7136	272.8304	350.8238	411.5583	488.6157	507.3287	541.8269	580.2193	614.4777	617.6281	722.132	866.0916	974.0618	1012.271	1042.0605	1047.9134	1055.1557	1196.0892	1305.6579	1381.1847	1399.8073	1406.4422	1460.4428	1467.6918	1476.4356	1482.5707	1653.1678	1761.0632	2311.3426	3039.8989	3049.3682	3104.1711	3107.873	3152.7642	3159.708	3808.2395
CC(=O)C#CC(C)=NO	CC(=O)C#CC(=NO)C	
InChI=1S/C6H7NO2/c1-5(7-9)3-4-6(2)8/h9H,1-2H3	InChI=1S/C6H7NO2/c1-5(7-9)3-4-6(2)8/h9H,1-2H3
