17
gdb 50635	3.15643	1.20221	0.90494	1.3908	70.86	-0.2449	-0.0425	0.2023	1233.7189	0.136517	-455.150002	-455.141682	-455.140738	-455.183777	30.277	
N	-0.1878449609	 1.4341648935	-0.1225926667	-0.496285
C	-0.0677527564	 0.1799895512	-0.2092498742	 0.40355
C	-1.2741770984	-0.7271824158	-0.0917959264	-0.239175
N	-1.1102550193	-1.9432527351	-0.8841982424	-0.314875
C	 0.1070949889	-2.6366677947	-0.4905908235	-0.186335
C	 1.2701454717	-1.7297384785	-0.868859999	 0.047197
O	 1.1611848555	-0.4205098115	-0.2930214389	-0.274761
C	 2.6210186502	-2.2762261519	-0.434878563	 0.136789
O	 2.9244978427	-3.4353843214	-0.5359135199	-0.242783
H	 0.7304710163	 1.881446373	-0.1636569786	 0.22201
H	-1.4061840788	-0.9377624195	 0.987546191	 0.109682
H	-2.1457351293	-0.1648289919	-0.4284030901	 0.142907
H	-1.9185493536	-2.5427427446	-0.7643387074	 0.232487
H	 0.1565312712	-2.8646984562	 0.5905351539	 0.094763
H	 0.2107724973	-3.5764580028	-1.0372602233	 0.133874
H	 1.283442526	-1.6243307479	-1.9647549588	 0.126775
H	 3.3102081072	-1.5075741257	-0.0235004927	 0.104178
57.323	100.3178	122.6883	184.7381	292.0888	378.1409	421.5767	425.006	501.0818	510.93	587.2983	689.4601	772.182	855.8739	876.8538	918.4578	941.3055	974.392	1020.258	1081.8695	1101.5345	1123.4476	1134.5313	1170.4347	1221.5454	1274.7432	1288.3468	1318.7812	1336.4968	1359.9806	1401.0567	1423.6951	1481.2798	1484.0707	1498.1579	1761.7115	1838.8433	2910.2622	2916.0398	2933.1197	2995.5533	3110.0998	3125.7458	3464.2106	3538.5905
N=C1CNCC(O1)C=O	[NH][C]1CNC[C@@H](O1)C=O	
InChI=1S/C5H8N2O2/c6-5-2-7-1-4(3-8)9-5/h3-4,6-7H,1-2H2	InChI=1S/C5H8N2O2/c6-5-2-7-1-4(3-8)9-5/h3-4,6-7H,1-2H2/t4-/m1/s1
