18
gdb 70638	2.39314	1.58412	1.17556	3.1393	75.06	-0.2493	0.0275	0.2768	1085.0086	0.14837	-401.954283	-401.9461	-401.945155	-401.986925	31.223	
C	-0.4321345786	 1.3730866772	-0.0893816352	-0.488509
C	 0.0195930395	-0.0588290781	 0.0492270653	 0.306062
C	-0.5500451065	-0.968201154	 1.1281235289	-0.37524
C	 0.9066159203	-0.5786384005	 1.1473763765	 0.067049
O	 1.8603878718	-1.4795304322	 0.6457295104	-0.25068
C	 1.4110320743	-1.9342096201	-0.6197603735	-0.112429
C	 0.5367710395	-0.7818363961	-1.2024620126	-0.229414
C	-0.5062228152	-1.2659262458	-2.1015044041	 0.279163
N	-1.3362113674	-1.6527899597	-2.8070610374	-0.328196
H	 0.3405331437	 1.9910700884	-0.5614790659	 0.12221
H	-1.3399979764	 1.445046597	-0.698502285	 0.139949
H	-0.6565491598	 1.8072750715	 0.8893638175	 0.124347
H	-1.1961726247	-0.4965061148	 1.860814164	 0.122242
H	-0.8295702956	-1.987647972	 0.8855888274	 0.131061
H	 1.3141615991	 0.0445411035	 1.9345616623	 0.11199
H	 2.2837854703	-2.1567722109	-1.2373037991	 0.130924
H	 0.8130041299	-2.8491099267	-0.5248712616	 0.122312
H	 1.1694015858	-0.0819314765	-1.7613777379	 0.127157
103.6838	131.1887	209.0548	239.024	259.9777	311.0755	367.8222	450.4585	517.514	527.9892	579.0583	688.9825	703.1446	826.1791	852.9379	910.3793	962.2792	990.2346	1020.5235	1023.2712	1040.7416	1044.3992	1056.5896	1103.5211	1128.5712	1164.8598	1223.4077	1257.6646	1286.3963	1294.2146	1336.6186	1378.7154	1411.7222	1422.8759	1485.0499	1488.9008	1500.9925	1528.0671	2356.5275	3026.173	3026.928	3042.3066	3088.7433	3105.7719	3108.2014	3135.9944	3187.4251	3220.8592
CC12CC1OCC2C#N	C[C@]12C[C@H]1OC[C@H]2C#N	
InChI=1S/C7H9NO/c1-7-2-6(7)9-4-5(7)3-8/h5-6H,2,4H2,1H3	InChI=1S/C7H9NO/c1-7-2-6(7)9-4-5(7)3-8/h5-6H,2,4H2,1H3/t5-,6-,7-/m1/s1
