21
gdb 77976	2.38989	1.50582	1.25726	1.2812	83.27	-0.225	0.0173	0.2423	1128.5694	0.181919	-387.085753	-387.076692	-387.075748	-387.118645	35.613	
C	 0.7174115745	 2.0272378744	 0.3613857963	-0.418921
C	 0.6880429179	 0.5149704458	 0.3083330609	-0.068226
C	 0.807909739	-0.3672827343	-0.9330916176	-0.132085
C	 1.4169963591	 0.1374321024	-2.2450886829	-0.03285
C	 0.6195518809	 1.2185840063	-2.9920103227	-0.398986
C	 2.8199667318	 0.5481153869	-1.8296199676	-0.074465
C	 3.0855030944	 0.2378820686	-0.559607795	-0.16494
C	 1.8997428191	-0.3752712412	 0.1191167639	 0.34288
O	 2.0955069252	-1.4845110502	 0.9485444	-0.470541
H	 1.5015142068	 2.4440200692	-0.2739315339	 0.124875
H	-0.2403978208	 2.4528840141	 0.042998163	 0.116507
H	 0.9030997159	 2.3706835401	 1.3860199532	 0.106962
H	-0.0139262797	 0.0731631831	 1.0143393309	 0.084906
H	 0.1179707118	-1.2019174977	-0.9814990489	 0.088578
H	 1.501358654	-0.7215211793	-2.9289286935	 0.086696
H	 0.4976962353	 2.1234735725	-2.3923463791	 0.122404
H	 1.1260497109	 1.4976519792	-3.9224363486	 0.110048
H	-0.3775901457	 0.8511970305	-3.2542265295	 0.115284
H	 3.500507131	 1.0459167174	-2.5129377089	 0.091829
H	 4.0242840525	 0.4095035891	-0.0439144179	 0.089812
H	 2.2577945362	-1.1636080968	 1.8418067576	 0.280233
147.5951	182.3492	200.5483	225.9561	237.4139	261.4195	275.8061	300.0267	379.7299	450.242	529.887	565.8231	644.296	696.3097	726.0539	761.3599	816.9275	872.6118	898.5196	942.1256	956.1853	983.9214	1002.9751	1042.3942	1073.3111	1095.6351	1118.9162	1124.8156	1125.3444	1166.0441	1222.9374	1254.8073	1307.7376	1325.9219	1335.6571	1343.4898	1379.042	1409.4764	1412.3129	1448.3901	1493.537	1496.5817	1505.1507	1506.0279	1667.0861	2977.7431	3027.6087	3037.3477	3081.182	3098.2733	3111.5037	3125.344	3129.6852	3173.9682	3175.7193	3199.7342	3802.5189
CC1C2C(C)C=CC12O	C[C@H]1[C@H]2[C@@H](C)C=C[C@@]12O	
InChI=1S/C8H12O/c1-5-3-4-8(9)6(2)7(5)8/h3-7,9H,1-2H3	InChI=1S/C8H12O/c1-5-3-4-8(9)6(2)7(5)8/h3-7,9H,1-2H3/t5-,6-,7+,8+/m0/s1
