19
gdb 125248	6.50152	0.72607	0.66184	2.7966	79.22	-0.2299	0.0287	0.2586	1681.6733	0.159564	-419.233834	-419.224118	-419.223174	-419.270092	34.015	
C	-0.4847273273	 1.4511879533	 0.2510957362	-0.501706
C	-0.0810576874	 0.0458907434	-0.0547055894	 0.394256
C	-0.3604711717	-0.7815509476	-1.1226301803	-0.385009
C	 0.3074440472	-2.0010381819	-0.8464906779	 0.348636
C	 0.3408093904	-3.2405765521	-1.6908225067	-0.291974
C	 0.9744711807	-4.4415948427	-0.9992086021	-0.069164
O	 0.9200545215	-5.5270263832	-1.9171156057	-0.428359
N	 0.955888652	-1.9358823181	 0.3140758503	-0.294571
N	 0.7066352704	-0.6892030618	 0.7728480573	-0.260435
H	-1.0301949901	 1.5219892266	 1.1992775227	 0.134831
H	 0.3817172306	 2.1193553774	 0.3190555794	 0.135958
H	-1.1370996104	 1.8327485157	-0.5368542853	 0.143464
H	-0.9647927504	-0.5385018495	-1.9825470502	 0.095653
H	-0.6778143897	-3.5097661791	-1.9958673398	 0.115873
H	 0.8893162367	-3.0480851384	-2.6220527379	 0.118834
H	 2.0085698702	-4.2043485865	-0.7134141641	 0.101038
H	 0.4276276093	-4.6680661969	-0.0722579701	 0.094667
H	 1.3384546074	-6.2863241603	-1.5019614298	 0.282964
H	 1.0979157507	-0.4099405083	 1.6563472537	 0.265042
25.5593	57.088	88.201	128.1707	194.1604	256.5396	290.019	332.5494	348.7777	427.2889	477.1003	656.7178	666.0131	690.1241	783.3227	794.5186	817.09	987.2529	1006.5607	1024.7436	1046.0335	1062.6286	1070.5443	1091.3324	1153.9343	1186.0854	1217.4032	1231.0835	1283.5916	1306.8036	1341.0089	1412.3295	1436.0825	1448.9663	1472.4727	1483.2936	1486.2454	1500.9856	1513.0433	1524.7126	1617.3848	2993.9198	3023.0669	3027.5047	3028.9719	3061.5208	3078.16	3129.6923	3255.1546	3671.0187	3833.908
CC1=CC(CCO)=NN1	Cc1cc(CCO)n[nH]1	
InChI=1S/C6H10N2O/c1-5-4-6(2-3-9)8-7-5/h4,9H,2-3H2,1H3,(H,7,8)	InChI=1S/C6H10N2O/c1-5-4-6(2-3-9)8-7-5/h4,9H,2-3H2,1H3,(H,7,8)
