17
gdb 108660	2.2372	1.58832	0.96582	5.2037	73.38	-0.2142	-0.0039	0.2104	1174.2802	0.137557	-455.195674	-455.186923	-455.185979	-455.228928	32.837	
N	-0.1876271844	 1.2550004525	-0.0446731666	-0.583228
C	-0.1386584038	-0.1100132481	-0.0168529779	 0.252967
C	-1.1717346708	-0.9791494257	 0.0755707106	 0.052188
C	-2.6207973498	-0.6497510339	 0.2374234372	-0.207333
O	-2.836530567	 0.4826477768	 1.0962903116	-0.419732
C	-0.6420881725	-2.3537992066	 0.0317768355	 0.357263
O	-1.2381329301	-3.4009906635	 0.1944459493	-0.39859
N	 0.7226630064	-2.2384323247	-0.2353888978	-0.352308
C	 1.1661420181	-0.8627955821	-0.1619196187	-0.248426
H	 0.6472558746	 1.76180906	 0.2046721669	 0.251521
H	-1.0508449415	 1.6462481804	 0.3101231282	 0.269464
H	-3.0789488225	-0.3610475944	-0.7160652442	 0.122587
H	-3.1533577685	-1.5390106385	 0.5982469449	 0.128687
H	-2.5378405584	 0.2261501921	 1.9755415674	 0.284149
H	 1.3308278909	-3.0070520637	-0.0051437858	 0.245989
H	 1.7058708435	-0.5456628492	-1.065003139	 0.128823
H	 1.8268024556	-0.6755780614	 0.6986672284	 0.11598
98.9228	135.4636	186.4001	213.9697	230.7115	315.4113	371.4199	404.7398	415.4462	430.4386	546.9521	560.8443	630.7285	656.8454	709.264	751.5308	783.4222	935.2587	997.8664	1008.8675	1017.0058	1081.8278	1128.3127	1183.9358	1195.4494	1222.4677	1268.652	1334.7679	1364.7695	1398.2807	1413.7962	1453.8491	1501.4397	1504.8101	1638.4773	1713.581	1804.8876	2988.0245	3022.802	3023.3685	3060.9504	3546.0113	3653.1113	3669.2518	3806.3597
NC1=C(CO)C(=O)NC1	NC1=C(CO)C(=O)NC1	
InChI=1S/C5H8N2O2/c6-4-1-7-5(9)3(4)2-8/h8H,1-2,6H2,(H,7,9)	InChI=1S/C5H8N2O2/c6-4-1-7-5(9)3(4)2-8/h8H,1-2,6H2,(H,7,9)
