17
gdb 80267	2.77101	1.5245	1.36363	4.8301	74.62	-0.2573	-0.0472	0.2101	1010.7291	0.136942	-421.857561	-421.849862	-421.848917	-421.889807	29.52	
C	-0.5774698595	 1.3491170693	-0.053821555	-0.418363
C	-0.1016633923	-0.082904644	-0.0114808668	-0.050987
C	 1.2988422164	-0.4893747097	-0.3462706789	 0.095002
O	 2.278551303	 0.4703904605	-0.6605868409	-0.240553
C	 2.7973235264	 1.3351923743	 0.2654181433	 0.410438
O	 3.5954071965	 2.1580998991	-0.1006913108	-0.335508
C	 2.3683149186	 1.1757524773	 1.6671424102	-0.214496
C	 1.4860784645	 0.2465556078	 2.0535379117	-0.046614
C	 0.8297010204	-0.6416120742	 1.0856063042	-0.159753
H	-0.7920454224	 1.6449599437	-1.0856854234	 0.134028
H	-1.4955154629	 1.4669127231	 0.530386172	 0.123388
H	 0.1602647857	 2.0483853919	 0.3432901985	 0.139216
H	-0.8477254276	-0.8077862746	-0.3266414487	 0.102484
H	 1.4607611768	-1.3751229804	-0.9503925944	 0.116745
H	 2.8626747597	 1.8407483828	 2.3642540437	 0.124409
H	 1.2487311874	 0.1214199267	 3.106910649	 0.11614
H	 0.5947884394	-1.6385267736	 1.4439292561	 0.104424
94.0164	154.013	172.9642	229.5035	317.7366	423.9304	482.5451	498.5389	544.339	621.599	707.9267	745.4877	763.2115	803.9583	850.5843	883.7836	917.726	963.9594	1002.5912	1012.9729	1062.3361	1087.7371	1111.0469	1136.606	1162.0013	1187.2627	1232.3051	1260.903	1364.8342	1388.1601	1418.9495	1427.1176	1437.4917	1494.5884	1502.2191	1684.7448	1823.9559	3045.003	3103.9949	3131.1943	3145.6555	3154.3106	3164.8685	3173.6773	3218.0878
CC1C2OC(=O)C=CC12	C[C@H]1[C@H]2OC(=O)C=C[C@@H]12	
InChI=1S/C7H8O2/c1-4-5-2-3-6(8)9-7(4)5/h2-5,7H,1H3	InChI=1S/C7H8O2/c1-4-5-2-3-6(8)9-7(4)5/h2-5,7H,1H3/t4-,5+,7-/m1/s1
