17
gdb 26627	3.27602	1.25175	0.91597	1.0018	85.24	-0.2118	-0.0021	0.2098	1249.47	0.133961	-384.705827	-384.696553	-384.695609	-384.740045	33.612	
C	 0.1155988873	 1.4945899438	-0.0062727744	-0.494033
C	-0.0513273068	 0.017921652	-0.0388290136	 0.290253
C	-1.1273766011	-0.8124198338	 0.0281643477	 0.036943
C	-2.5743989645	-0.4622970041	 0.1657797716	-0.516695
C	-0.5940525771	-2.1599529376	-0.0616369025	 0.073556
C	 0.7589439534	-2.0197172071	-0.1751031607	-0.14742
O	 1.1031335759	-0.7137339476	-0.1630702174	-0.180267
C	-1.3336205778	-3.3636449643	-0.0359383152	 0.250558
C	-1.9918886822	-4.3723540978	-0.0110092186	-0.457328
H	 0.7425816612	 1.8084408539	 0.8360664699	 0.14016
H	 0.5895529039	 1.8642059493	-0.9227270151	 0.140175
H	-0.855957861	 1.9823921573	 0.0937537113	 0.136672
H	-3.1572611964	-0.8457735044	-0.6790205771	 0.137659
H	-3.0043088547	-0.9024478409	 1.0723749584	 0.137669
H	-2.7242641687	 0.6191936589	 0.213884467	 0.121615
H	 1.5627642076	-2.7306641828	-0.2679322336	 0.143982
H	-2.5629647588	-5.2669264346	 0.0101350224	 0.186503
75.8497	104.8272	122.9959	128.852	245.7122	267.0079	280.4047	366.4656	479.2779	513.1881	550.9962	552.4443	624.9623	653.4723	683.2109	691.4079	735.3158	761.8347	926.9368	972.0988	1059.0389	1068.8499	1115.1237	1170.6755	1192.5433	1237.7925	1297.3119	1385.1599	1423.0198	1426.2295	1471.9567	1479.0039	1489.5083	1492.5968	1581.6305	1676.2648	2231.769	3031.4252	3033.6349	3081.0886	3083.6235	3117.1173	3133.6545	3281.6087	3504.2597
CC1=C(C)C(=CO1)C#C	Cc1c(C)c(co1)C#C	
InChI=1S/C8H8O/c1-4-8-5-9-7(3)6(8)2/h1,5H,2-3H3	InChI=1S/C8H8O/c1-4-8-5-9-7(3)6(8)2/h1,5H,2-3H3
