19
gdb 38276	3.60452	1.72753	1.66355	1.7574	79.32	-0.2255	0.0852	0.3107	897.5283	0.162362	-385.762192	-385.756234	-385.75529	-385.792022	26.88	
C	-0.0444805042	 1.6462825424	-0.0671116621	-0.208173
C	 1.5029640616	 1.4782000569	 0.071994337	-0.093695
C	 1.1224947752	 0.2362331218	 0.9807194795	-0.214747
C	-0.0581766915	 0.0712530525	-0.0362257989	-0.188607
C	 0.6984932124	-0.1677195978	-1.3426790722	 0.424765
C	 1.4150578304	-1.0291492251	-2.420704825	-0.314982
C	 1.7199326559	 0.5030901669	-2.656658972	-0.011913
O	 0.305053645	 0.7642371018	-2.466398749	-0.334485
C	 2.0026245991	 0.6303826617	-1.1229667558	 0.01642
H	-0.4689806166	 2.0441720171	 0.8582967063	 0.089385
H	-0.4531438748	 2.1543146128	-0.9338102958	 0.128491
H	 2.1265948939	 2.283241605	 0.4593076643	 0.066762
H	 1.8481587479	-0.5765169876	 1.0775572339	 0.091828
H	 0.7656474541	 0.5381500577	 1.9675885073	 0.10241
H	-0.9601656281	-0.4922615018	 0.1955612481	 0.073496
H	 2.2196242378	-1.6921607626	-2.09329839	 0.099033
H	 0.7741700979	-1.4720984198	-3.1841261702	 0.109664
H	 2.2081387875	 0.9629833046	-3.5185405541	 0.090293
H	 2.8746664464	 0.0431845935	-0.8202213414	 0.074054
270.5938	307.9868	440.7367	471.7335	514.2058	556.4516	640.3751	691.8611	740.951	789.4419	798.901	823.4612	839.7247	867.8067	902.0887	909.7359	958.8522	982.2028	1001.019	1005.9698	1041.5254	1044.3416	1066.6705	1072.8441	1088.7618	1110.854	1121.9196	1148.7924	1174.006	1190.7231	1211.3679	1222.0227	1228.0903	1252.3514	1254.8454	1292.3616	1311.8233	1389.3951	1481.1365	1484.8503	1518.9646	3048.7402	3055.5046	3064.805	3073.5072	3092.7605	3117.6572	3121.8693	3133.5485	3147.851	3190.7995
C1C2CC1C13CC(O1)C23	C1[C@H]2C[C@@H]1[C@@]13C[C@@H](O1)[C@@H]23	
InChI=1S/C8H10O/c1-4-2-5(1)8-3-6(9-8)7(4)8/h4-7H,1-3H2	InChI=1S/C8H10O/c1-4-2-5(1)8-3-6(9-8)7(4)8/h4-7H,1-3H2/t4-,5+,6-,7-,8-/m1/s1
