15
gdb 14218	4.55111	1.89677	1.68981	4.3152	64.84	-0.2463	0.0042	0.2505	797.2551	0.118932	-362.628118	-362.621515	-362.620571	-362.658623	25.61	
C	-0.0207347691	 1.4868067754	 0.1133604797	-0.495293
C	-0.0445645095	-0.0057367632	 0.0319459754	 0.339273
C	-1.2498796322	-0.9137765442	-0.2633363369	-0.284824
C	-0.316587057	-2.0978254339	 0.1261126699	-0.210318
C	 0.6008782092	-1.0412298713	 0.8515876042	-0.096627
N	 1.206480173	-0.6817484622	-0.5090048516	-0.239855
C	 0.7432556999	-1.9918388249	-0.9618342913	 0.443139
O	 1.2099281514	-2.7017860019	-1.7946393646	-0.316955
H	 0.9541427511	 1.839683995	 0.4580678854	 0.142246
H	-0.2148779598	 1.9293314719	-0.8690351623	 0.136399
H	-0.7895231302	 1.8431793007	 0.8070750503	 0.124689
H	-2.0400437662	-0.7529515064	 0.474840612	 0.116504
H	-1.6742718727	-0.9192140594	-1.2729433617	 0.114918
H	-0.693879993	-3.0475550629	 0.4939961521	 0.102172
H	 1.2092091551	-1.0608971726	 1.7439490394	 0.124532
140.8643	197.5539	249.796	302.635	435.395	489.2587	553.1257	653.4734	691.1864	770.0833	788.1331	840.8902	878.7444	920.736	928.2652	956.3518	1004.4098	1016.4507	1058.0319	1078.6397	1131.6573	1150.4326	1174.8516	1209.7383	1246.8016	1277.8787	1399.63	1438.8474	1483.8874	1489.9152	1502.8516	1920.8299	3038.7616	3046.7168	3103.5725	3108.4441	3127.0909	3167.4381	3231.6973
CC12CC3C1N2C3=O	C[C@]12C[C@@H]3[C@H]1N2C3=O	
InChI=1S/C6H7NO/c1-6-2-3-4(6)7(6)5(3)8/h3-4H,2H2,1H3	InChI=1S/C6H7NO/c1-6-2-3-4(6)7(6)5(3)8/h3-4H,2H2,1H3/t3-,4-,6+,7?/m1/s1
