21
gdb 64024	2.112	1.84343	1.36905	1.2393	84.17	-0.22	0.026	0.2461	1061.1242	0.181966	-387.091935	-387.08318	-387.082235	-387.124602	35.298	
C	-0.04627112	 1.5410532861	 0.0027077144	-0.432322
C	-0.0033899127	 0.0084183639	-0.0008048367	 0.295034
O	-1.32529567	-0.5184790279	-0.0401951977	-0.476557
C	 0.89542538	-0.5009419987	-1.1720466738	-0.320699
C	 2.2295571077	-0.7540037854	-0.5130643314	-0.08724
C	 2.1190478268	-0.7729457748	 0.8159732783	-0.138465
C	 0.7215707855	-0.5292431368	 1.2549021448	 0.337194
C	 0.3644125938	-0.0928958944	 2.6553548972	-0.330924
C	 0.0468390111	-1.4938382142	 2.2107648496	-0.309059
H	 0.963637332	 1.9554236241	 0.0740717027	 0.12693
H	-0.4954375737	 1.9142807481	-0.9264722508	 0.099035
H	-0.6351584691	 1.914080401	 0.8444994749	 0.118646
H	-1.8182391545	-0.0312066108	-0.7079913328	 0.275452
H	 0.4699200136	-1.4282092123	-1.5782825991	 0.111471
H	 0.9465007241	 0.218885878	-1.9980679466	 0.090426
H	 3.1410837289	-0.9338730763	-1.0712352939	 0.089914
H	 2.9213053151	-0.9713309011	 1.5187591025	 0.090831
H	 1.1736358562	 0.0625664035	 3.3618759257	 0.105999
H	-0.4679268658	 0.5927282902	 2.7753644744	 0.113343
H	-0.9884845917	-1.7351235596	 2.0045417712	 0.135775
H	 0.6429960729	-2.3118057927	 2.6013701772	 0.105217
82.0498	227.0745	242.309	258.8904	264.0297	279.7149	324.2595	375.1327	423.6947	459.9762	533.6063	563.2381	632.0705	732.5314	760.9709	784.0438	854.9018	903.9517	918.4796	942.6421	957.8655	962.8205	966.7066	971.4535	1001.8857	1060.8783	1080.8456	1083.5912	1114.6969	1137.5874	1177.5625	1195.911	1233.3537	1272.2803	1281.0478	1310.6147	1377.2113	1400.214	1410.9382	1459.5846	1479.6242	1489.7222	1495.4816	1498.3503	1676.4051	3015.1028	3023.656	3051.2206	3094.2692	3122.2455	3125.4085	3137.6336	3179.7563	3205.6926	3206.3814	3235.5198	3816.6714
CC1(O)CC=CC11CC1	C[C@@]1(O)CC=CC21CC2	
InChI=1S/C8H12O/c1-7(9)3-2-4-8(7)5-6-8/h2,4,9H,3,5-6H2,1H3	InChI=1S/C8H12O/c1-7(9)3-2-4-8(7)5-6-8/h2,4,9H,3,5-6H2,1H3/t7-/m1/s1
