18
gdb 78002	3.15106	1.25494	1.05613	2.3619	80.82	-0.238	0.0282	0.2662	1169.7271	0.145434	-401.858542	-401.849545	-401.848601	-401.891751	34.376	
C	-0.190390921	 1.5139357856	 0.0392866026	-0.319527
N	 0.1145810677	 0.0871541383	 0.0713832863	-0.117841
C	 1.3760308042	-0.4905001421	-0.3061644201	-0.12021
C	 2.610939151	 0.2907791994	 0.1563408626	 0.114307
O	 2.8339747732	 1.4971802312	-0.5395773102	-0.429078
C	 2.0505292328	 0.3200884357	 1.6180698558	-0.353973
C	 0.8616263727	-0.5457367887	 1.1382848623	 0.134518
C	 0.2960330565	-1.6265545913	 1.8787989048	 0.220594
C	-0.154365253	-2.5264654862	 2.5379945313	-0.386269
H	 0.631151864	 2.1739264957	 0.334353245	 0.123347
H	-0.4760189412	 1.7731115125	-0.9843078282	 0.128763
H	-1.0522887866	 1.6921484208	 0.6895507136	 0.122405
H	 1.3791465984	-1.2702347881	-1.0606234762	 0.102887
H	 3.4949898032	-0.3594612806	 0.1099352184	 0.084015
H	 3.6545199656	 1.8847799909	-0.2186009076	 0.287214
H	 2.6932055554	-0.200166559	 2.3300051189	 0.115655
H	 1.7862086926	 1.3016538005	 2.0189598752	 0.106783
H	-0.5646464156	-3.3228985047	 3.1077319757	 0.186411
112.4725	146.4517	148.8643	209.2077	248.9111	277.3997	318.1063	387.5018	432.0936	486.7072	525.6491	577.3666	601.3376	650.4244	676.5469	720.6229	747.371	862.9178	925.2097	969.5866	977.4548	1013.9989	1039.4776	1104.2843	1147.1361	1158.9698	1184.9135	1195.2978	1213.6821	1239.4323	1284.7119	1313.078	1402.3684	1424.6062	1453.7319	1477.512	1490.8858	1509.3968	2237.3572	3008.901	3032.7896	3070.4912	3102.5167	3111.6062	3130.4116	3170.2489	3503.0044	3815.3001
CN1C2C(O)CC12C#C	CN1[C@H]2[C@@H](O)C[C@@]12C#C	
InChI=1S/C7H9NO/c1-3-7-4-5(9)6(7)8(7)2/h1,5-6,9H,4H2,2H3	InChI=1S/C7H9NO/c1-3-7-4-5(9)6(7)8(7)2/h1,5-6,9H,4H2,2H3/t5-,6-,7+,8?/m0/s1
