21
gdb 83481	2.67882	1.46223	1.40839	3.0741	80.97	-0.2291	-0.0069	0.2222	1064.8479	0.185222	-387.139394	-387.131622	-387.130678	-387.171295	31.599	
C	-0.1379855249	 1.5354981481	-0.0049329632	-0.43142
C	 0.0561907084	 0.0216585315	 0.0088061337	 0.02607
C	 1.0295330528	-0.5735882277	-1.0464113169	-0.021524
C	 2.4069206185	-0.0478932102	-0.5753254833	-0.213923
C	 2.279057973	-0.0658130032	 0.9806519535	-0.22898
C	 0.8242565333	-0.5737420859	 1.2187810848	-0.118836
C	 0.859241845	-2.0519327683	 0.8365683264	 0.421644
O	 0.8332668209	-3.0052667636	 1.5703024915	-0.33504
C	 0.9519702494	-2.0751029455	-0.7030608404	-0.335594
H	 0.8029141249	 2.0828392386	 0.09738294	 0.120332
H	-0.6042604272	 1.8535371921	-0.9437952123	 0.117178
H	-0.7940997435	 1.850843974	 0.8129974543	 0.119563
H	-0.929596369	-0.4525624327	-0.0824456661	 0.072653
H	 0.7931160834	-0.3407585443	-2.0866947732	 0.06239
H	 3.2237574655	-0.6797421657	-0.93479704	 0.100556
H	 2.5963643198	 0.9623839942	-0.9474700725	 0.100984
H	 3.0162336089	-0.7133107824	 1.4621389767	 0.115721
H	 2.4039038333	 0.9321275606	 1.4083072878	 0.108095
H	 0.4339721166	-0.392758218	 2.2199802782	 0.074705
H	 0.0461605632	-2.5436149766	-1.1053660543	 0.124553
H	 1.8057347378	-2.670973345	-1.0390533546	 0.120873
114.556	194.9558	242.9142	261.2747	266.8857	378.3665	443.936	512.2659	548.02	588.3277	689.5557	724.161	782.6617	818.9316	858.4416	872.3597	888.0309	929.3844	946.7474	964.4737	993.3914	1041.6924	1057.4647	1080.2354	1092.4418	1102.2337	1154.6476	1183.3366	1190.1934	1217.9519	1246.1624	1268.5267	1270.1474	1297.4111	1319.8805	1331.7021	1346.1567	1399.5232	1415.5112	1454.0603	1488.0025	1498.5442	1509.1636	1516.9849	1853.5255	3020.3597	3036.432	3045.7467	3056.6896	3066.3939	3088.7322	3092.2642	3095.6767	3096.5189	3108.8131	3116.4859	3123.7779
CC1C2CCC1C(=O)C2	C[C@H]1[C@H]2CC[C@@H]1C(=O)C2	
InChI=1S/C8H12O/c1-5-6-2-3-7(5)8(9)4-6/h5-7H,2-4H2,1H3	InChI=1S/C8H12O/c1-5-6-2-3-7(5)8(9)4-6/h5-7H,2-4H2,1H3/t5-,6-,7-/m0/s1
