16
gdb 85212	2.43631	1.29697	0.92482	5.3963	67.39	-0.2623	-0.0032	0.2591	1230.8846	0.122646	-475.061259	-475.052181	-475.051237	-475.096111	31.407	
C	-0.0345327752	 1.5924189814	-0.0664663893	-0.390507
C	 0.0109398906	 0.0735983943	-0.0321062911	 0.022381
N	 1.1448749776	-0.5488158921	-0.7427955011	-0.335891
C	 1.76423035	-1.0661427397	 0.3612907352	 0.425477
O	 2.7997528638	-1.6453688304	 0.5502075019	-0.357517
C	 0.5847332108	-0.589134297	 1.2599416427	-0.061106
O	 0.9008286605	 0.3331178	 2.2873586305	-0.195351
C	 1.688008948	-0.1228852291	 3.2970924455	 0.168932
O	 1.9918033321	 0.5746299861	 4.2151555426	-0.266865
H	 0.9116563142	 2.0225693919	 0.2682719767	 0.141994
H	-0.2421219005	 1.9421621547	-1.0827380033	 0.120315
H	-0.8292186281	 1.9612124399	 0.5883175126	 0.139423
H	-0.952269933	-0.3520295642	-0.3337225321	 0.097298
H	 1.4252396184	-0.5236215059	-1.7126809283	 0.258525
H	-0.026872882	-1.4106432036	 1.6456088107	 0.119237
H	 2.0007361429	-1.1719729263	 3.1622481767	 0.113656
59.6073	83.4102	107.9014	137.9998	212.869	231.4102	311.1074	372.7702	428.4764	467.2911	520.4264	639.797	723.3528	773.337	863.4041	908.6317	925.5283	1033.8394	1037.6702	1077.9828	1121.0383	1145.5183	1176.6182	1197.4018	1206.7823	1297.6329	1359.4798	1383.7241	1396.379	1417.6868	1439.3566	1488.7846	1492.3588	1867.8771	1897.4047	3008.3463	3044.4225	3048.1739	3068.291	3115.6288	3139.2629	3606.5338
CC1NC(=O)C1OC=O	C[C@H]1NC(=O)[C@H]1OC=O	
InChI=1S/C5H7NO3/c1-3-4(9-2-7)5(8)6-3/h2-4H,1H3,(H,6,8)	InChI=1S/C5H7NO3/c1-3-4(9-2-7)5(8)6-3/h2-4H,1H3,(H,6,8)/t3-,4+/m1/s1
