14
gdb 52567	3.90828	0.67771	0.58174	4.0151	75.21	-0.2844	-0.0517	0.2327	1808.4026	0.098015	-436.694837	-436.685006	-436.684062	-436.732982	31.659	
C	 0.1290203481	 1.4111471686	 0.0082133438	-0.510337
C	 0.0882191156	-0.0397536427	 0.0008044446	 0.260969
C	 0.0560701894	-1.2440108994	-0.0053551832	-0.079136
C	-0.0537624314	-2.674871637	-0.0121670336	 0.273273
O	-1.0805912328	-3.3065631697	-0.006163298	-0.352219
O	 1.1768004939	-3.2538520568	-0.0266811321	-0.22374
C	 1.1378158393	-4.6845961137	-0.0342528058	-0.207376
C	 2.5152683437	-5.172508623	-0.0498368133	 0.271141
N	 3.5880808328	-5.5981100402	-0.0622601658	-0.288132
H	 1.1595991792	 1.7795038754	-0.0037885175	 0.167238
H	-0.3901261373	 1.816068124	-0.8669613352	 0.16902
H	-0.3659382809	 1.8062947992	 0.901688948	 0.169038
H	 0.6139055479	-5.0591778304	 0.851145268	 0.175128
H	 0.5974338225	-5.0493864043	-0.9138218299	 0.175132
12.4776	39.5589	65.7792	99.0004	163.3497	208.1744	280.0242	323.9603	377.8898	399.6692	445.7404	523.3277	614.0909	767.6902	834.0927	980.3159	1002.3579	1016.0276	1045.5719	1053.0655	1101.5789	1247.804	1267.821	1392.0447	1409.2095	1467.9574	1470.7984	1482.215	1794.4901	2363.0937	2377.9404	3035.7742	3056.9525	3096.3192	3101.047	3106.3114
CC#CC(=O)OCC#N	CC#CC(=O)OCC#N	
InChI=1S/C6H5NO2/c1-2-3-6(8)9-5-4-7/h5H2,1H3	InChI=1S/C6H5NO2/c1-2-3-6(8)9-5-4-7/h5H2,1H3
