18
gdb 47438	3.0173	1.24176	0.92679	1.2264	71.87	-0.241	-0.0326	0.2084	1235.3828	0.148265	-439.069023	-439.060812	-439.059868	-439.102685	30.243	
O	-0.3515270304	 0.1278024442	 0.6459933319	-0.29733
C	-0.2080544967	 1.2517369949	 0.2482365704	 0.360533
C	-1.3095163406	 2.2051157441	-0.2218211645	-0.184936
O	-0.6490875275	 3.3501080024	-0.7215247304	-0.247451
C	 0.5924533166	 3.4719472554	-0.0262954741	-0.111139
C	 1.1142778805	 2.0362411521	 0.1369296269	-0.148113
C	 2.0606476878	 1.784987462	 1.282303156	 0.028952
C	 2.9917906307	 0.6340596687	 1.2509244097	-0.234388
N	 3.5095937108	 2.0099788051	 1.1362915822	-0.331416
H	-1.9269381708	 1.7613951525	-1.0080328502	 0.141899
H	-1.9617962947	 2.440063228	 0.6367549347	 0.123182
H	 1.2399545631	 4.119251054	-0.6203683818	 0.123527
H	 0.4447450786	 3.9391729017	 0.9613431231	 0.10189
H	 1.579401275	 1.7140604416	-0.8064168571	 0.105404
H	 1.6780360677	 2.1017961679	 2.2511701075	 0.097902
H	 3.2511838598	 0.1212231706	 2.1718382891	 0.126144
H	 2.9834821497	 0.0000292485	 0.3685411506	 0.11742
H	 3.7334396803	 2.2132969064	 0.1644544658	 0.227921
61.6453	84.5939	147.6962	193.956	279.6702	317.5712	399.1453	490.5725	550.0299	594.3763	665.9528	758.6773	828.4213	868.091	933.4358	936.8196	955.2703	956.8843	1022.0561	1047.5104	1088.9228	1094.2771	1125.1676	1143.246	1160.1807	1203.048	1220.1495	1240.5009	1247.8872	1272.2246	1286.5633	1311.0771	1327.6502	1390.0406	1432.2908	1475.0882	1515.2097	1515.5498	1859.9398	2966.7364	2975.1928	3008.1653	3090.6479	3112.1838	3115.9967	3121.0326	3201.7166	3487.7662
O=C1COCC1C1CN1	O=C1COC[C@H]1[C@H]1CN1	
InChI=1S/C6H9NO2/c8-6-3-9-2-4(6)5-1-7-5/h4-5,7H,1-3H2	InChI=1S/C6H9NO2/c8-6-3-9-2-4(6)5-1-7-5/h4-5,7H,1-3H2/t4-,5+/m0/s1
