21
gdb 108376	2.0615	1.69251	1.23636	1.9099	78.69	-0.223	0.0762	0.2992	1131.5561	0.180581	-424.182645	-424.173098	-424.172154	-424.216423	36.386	
C	 0.2216959639	 1.2595983533	 0.1858859845	-0.266984
O	-0.0072230494	-0.1334020416	-0.0116544627	-0.290998
C	 0.5890164472	-0.6153653885	-1.1688625678	 0.337318
C	 0.0784374336	-0.3598784946	-2.5878822008	-0.313674
C	 0.4182219923	-1.8494298229	-2.9373681156	-0.237081
C	 0.9017445942	-2.0800748538	-1.5003933422	-0.215125
C	 2.0119782873	-1.1174498838	-1.1064631055	 0.395856
C	 3.1582277502	-0.7057462462	-1.9952180609	-0.45368
O	 2.4556115422	-1.2903508773	 0.2175022243	-0.495768
H	 1.2932363349	 1.4795343318	 0.274836155	 0.124967
H	-0.1962259113	 1.8513613639	-0.6390399778	 0.120727
H	-0.2843412581	 1.5362040665	 1.113214232	 0.130942
H	-0.9987867082	-0.1774330122	-2.6011256799	 0.112467
H	 0.5776744606	 0.4227654828	-3.1673749549	 0.096762
H	-0.4762425916	-2.4265130475	-3.1802491371	 0.109481
H	 1.1577487932	-2.0087646374	-3.7274279977	 0.101678
H	 0.7381826119	-2.9710896428	-0.9057607922	 0.093241
H	 2.8474624175	-0.5747814619	-3.0338860771	 0.117261
H	 3.5935149315	 0.2352156562	-1.6439847178	 0.118701
H	 3.9439753834	-1.4681858014	-1.96904743	 0.127362
H	 1.7082803749	-1.0747601526	 0.7919413442	 0.286547
86.344	154.3576	180.6803	181.4965	217.9935	251.4373	280.3562	319.4209	394.3553	430.8521	441.5958	462.5746	544.4036	651.23	670.571	733.2475	813.2417	917.691	935.2814	947.6604	975.9898	986.4257	1037.1064	1084.4959	1091.0249	1108.1549	1144.1801	1178.5617	1184.2675	1205.9446	1219.5538	1231.4972	1243.0218	1266.0366	1303.5271	1343.7732	1412.8994	1459.611	1471.7199	1479.3644	1489.3894	1491.2911	1504.8897	1507.0754	1511.2377	3005.1019	3039.2352	3048.275	3059.6132	3065.6622	3098.3369	3099.8259	3116.4761	3126.4761	3127.9698	3185.0894	3747.827
COC12CCC1C2(C)O	CO[C@]12CC[C@H]1[C@]2(C)O	
InChI=1S/C7H12O2/c1-6(8)5-3-4-7(5,6)9-2/h5,8H,3-4H2,1-2H3	InChI=1S/C7H12O2/c1-6(8)5-3-4-7(5,6)9-2/h5,8H,3-4H2,1-2H3/t5-,6-,7+/m0/s1
