17
gdb 65721	3.78993	1.07218	0.99059	2.6354	68.8	-0.2729	-0.0012	0.2718	1204.5646	0.133488	-458.941851	-458.933432	-458.932488	-458.974953	31.299	
C	-0.0034996331	 1.6244652066	 0.1250024832	-0.453028
C	 0.0167373063	 0.1123780296	 0.0038784714	 0.385542
C	 1.0658204433	-0.5639050054	-0.9650457268	-0.318953
C	 1.6538457902	-1.2823553301	 0.2552368794	 0.037526
O	 2.0448274291	-0.267177963	 1.1915842116	-0.244273
C	 0.6760121849	-0.6681266772	 1.1624069777	-0.02007
O	-1.31069922	-0.4278362236	-0.1467455477	-0.244241
C	-1.9577873172	-0.2290852372	-1.3109153044	 0.157486
O	-3.0753860342	-0.6094368845	-1.4955902258	-0.272851
H	 0.9909634302	 1.9753687455	 0.4096735524	 0.149178
H	-0.2798154215	 2.1029226138	-0.8198537383	 0.123482
H	-0.7227801625	 1.9326040474	 0.8898432369	 0.13581
H	 0.5825018789	-1.244968568	-1.6681475215	 0.12534
H	 1.7494255703	 0.1019029625	-1.4965467331	 0.117871
H	 2.1687759234	-2.2333467216	 0.3098353232	 0.116496
H	 0.2111926107	-1.0111241096	 2.0788780369	 0.118752
H	-1.3533625987	 0.3061449248	-2.0658963752	 0.085933
91.0313	148.4673	175.8946	197.3278	242.8684	292.4934	366.9991	377.0743	446.1043	483.889	607.3229	730.9911	801.213	838.1273	865.401	886.6454	926.3773	970.9456	990.1129	999.5144	1046.8765	1051.8602	1116.9423	1150.3078	1165.8512	1197.6474	1225.2823	1235.436	1260.4715	1299.4447	1386.1528	1409.1727	1430.7713	1463.3438	1489.0471	1495.4741	1860.8254	2970.4029	3043.5945	3072.5985	3112.268	3134.4137	3136.6491	3192.8689	3207.938
CC1(CC2OC12)OC=O	C[C@]1(C[C@H]2O[C@@H]12)OC=O	
InChI=1S/C6H8O3/c1-6(8-3-7)2-4-5(6)9-4/h3-5H,2H2,1H3	InChI=1S/C6H8O3/c1-6(8-3-7)2-4-5(6)9-4/h3-5H,2H2,1H3/t4-,5-,6-/m1/s1
