19
gdb 66985	2.40107	1.99596	1.52662	3.0616	78.05	-0.2289	-0.0033	0.2256	956.642	0.161658	-385.929448	-385.92208	-385.921136	-385.960976	29.634	
C	-0.0165022535	 1.5132579578	 0.013813071	-0.50422
C	-0.0194699852	 0.0117682274	-0.003225117	 0.219928
C	 1.1759234885	-0.8726021244	-0.3724641158	-0.099032
C	 0.6403629997	-2.1275632191	-1.0677720652	-0.236235
C	-0.6866698051	-2.2310883663	-0.2739145296	-0.162334
C	-0.1967169531	-2.1515294483	 1.1942628576	-0.236234
C	 0.653773538	-0.8875504015	 1.0385628216	-0.099025
C	-1.2092715516	-0.7895336222	-0.4520674123	 0.394758
O	-2.2785903433	-0.4018252711	-0.8437682986	-0.34624
H	 0.9407879359	 1.9053931671	 0.3706284924	 0.114894
H	-0.1953295096	 1.9164708766	-0.988164884	 0.131842
H	-0.8053164085	 1.8990027455	 0.6676496266	 0.131793
H	 2.12518164	-0.4193549934	-0.6279388162	 0.091494
H	 0.4752487044	-1.9870783154	-2.1408172592	 0.10971
H	 1.2886495732	-2.9985884253	-0.924106266	 0.102015
H	-1.382901904	-3.0219102173	-0.5399393326	 0.083668
H	-1.0214735332	-2.0299255522	 1.9037799246	 0.109706
H	 0.3949325579	-3.0241778512	 1.4909707717	 0.102016
H	 1.2049944396	-0.4457253567	 1.8587683411	 0.091496
129.2462	164.8965	231.7257	241.3403	377.731	438.6724	468.092	551.0926	636.9218	646.8511	772.4414	802.1201	823.1479	855.8987	857.3235	898.4499	916.1963	942.6636	954.2403	1004.2646	1009.5186	1048.2113	1053.5891	1088.2275	1109.2456	1150.6742	1158.9941	1195.6723	1202.9935	1261.9606	1278.055	1293.7123	1317.7136	1328.6595	1416.1747	1435.1691	1485.029	1492.5612	1497.6842	1509.2516	1859.1843	3035.4924	3039.951	3043.6676	3087.0017	3089.1061	3100.0968	3106.0391	3159.1359	3191.9631	3201.5118
CC12C3CC(CC13)C2=O	C[C@@]12[C@@H]3C[C@@H](C[C@H]13)C2=O	
InChI=1S/C8H10O/c1-8-5-2-4(7(8)9)3-6(5)8/h4-6H,2-3H2,1H3	InChI=1S/C8H10O/c1-8-5-2-4(7(8)9)3-6(5)8/h4-6H,2-3H2,1H3/t4-,5+,6-,8+
