27
gdb 104846	1.77419	1.34706	1.13501	0.0834	95.23	-0.2716	0.0764	0.3479	1364.3558	0.251213	-353.561691	-353.550843	-353.549898	-353.596902	41.552	
C	 0.5616058559	 1.5364484106	 0.1805659832	-0.397331
C	 0.1712129871	 0.0648703193	-0.0069793691	-0.230258
C	 0.5882914849	-0.5512750389	-1.3547776069	 0.358312
C	 0.0540620614	 0.2258602546	-2.5658298524	-0.249139
C	-1.4734011453	 0.3254507397	-2.6583907104	-0.392667
C	 2.1251395391	-0.8457779952	-1.4002001944	-0.270385
C	 1.844462391	-2.3238458504	-1.0311770752	-0.236885
C	 0.3552517717	-2.1125330138	-1.4121041895	 0.015877
C	-0.7156512373	-2.7969579359	-0.5719541269	-0.420283
H	 1.6346165662	 1.6934403925	 0.0263745384	 0.116783
H	 0.0291922116	 2.1931610931	-0.5142713353	 0.118571
H	 0.3228589699	 1.8716020586	 1.1948587424	 0.109716
H	 0.6236254794	-0.5218920427	 0.8020075395	 0.091098
H	-0.9128149681	-0.0369011541	 0.1254702673	 0.09559
H	 0.486606259	 1.234710849	-2.5733132063	 0.092894
H	 0.4319948229	-0.2628133256	-3.4732311524	 0.085803
H	-1.9377394837	-0.6664989437	-2.6725253628	 0.117854
H	-1.9000682629	 0.8779526085	-1.8153849926	 0.116985
H	-1.7743990553	 0.8424112091	-3.5751261544	 0.110497
H	 2.5305683196	-0.739851234	-2.4110326265	 0.091387
H	 2.7599198111	-0.274436998	-0.7173611402	 0.090606
H	 2.396101551	-3.0937626991	-1.5767484525	 0.090616
H	 1.9681949631	-2.5145594833	 0.039848514	 0.095573
H	 0.2103652722	-2.3924041689	-2.4629782136	 0.062391
H	-0.6141692191	-2.560915684	 0.4920902797	 0.112489
H	-1.7266651708	-2.5104530606	-0.8820948616	 0.113799
H	-0.6381451947	-3.8857569565	-0.6731693516	 0.110106
93.0141	104.8164	129.0523	181.9592	192.5254	221.494	229.231	252.3901	305.986	320.8429	366.5004	396.9817	456.2099	506.317	613.9942	677.9443	761.5254	794.1941	801.4805	872.981	892.1952	921.9368	937.503	949.4773	977.0408	1021.9013	1040.4563	1047.0345	1061.6206	1089.6722	1119.3648	1163.0559	1173.8405	1194.6557	1217.8905	1243.6536	1264.9438	1272.8073	1291.0702	1316.5668	1331.2924	1364.0255	1378.5046	1381.7808	1405.8854	1411.3514	1413.2562	1480.0696	1484.1414	1487.6735	1494.927	1499.5176	1500.6111	1501.9336	1503.9447	1506.5694	1515.6714	3012.8997	3019.2124	3022.1458	3027.7124	3034.2577	3034.4771	3044.2336	3045.7279	3050.2818	3053.4255	3086.7224	3088.8182	3097.7573	3098.7275	3100.5872	3102.2236	3105.5443	3107.5296
CCC1(CC)CCC1C	CCC1(CC)CC[C@H]1C	
InChI=1S/C9H18/c1-4-9(5-2)7-6-8(9)3/h8H,4-7H2,1-3H3	InChI=1S/C9H18/c1-4-9(5-2)7-6-8(9)3/h8H,4-7H2,1-3H3/t8-/m1/s1
