20
gdb 107436	3.05756	1.43663	1.21548	1.9702	77.91	-0.2219	0.0792	0.301	1101.5411	0.171701	-403.093541	-403.085522	-403.084578	-403.125852	31.723	
C	-0.2765700828	 1.3062536869	-0.0730994968	-0.255139
O	 0.2557014163	 0.0043463505	 0.0955366313	-0.286608
C	 0.7826122676	-0.5367438457	-1.0703623741	 0.449229
C	-0.1485379994	-1.0781190402	-2.1279856825	-0.366992
C	 0.71701285	-2.0206480671	-1.3102624757	-0.11789
C	 2.0855629219	-2.4537493406	-1.8359892904	-0.189288
N	 2.9914247512	-1.2752486494	-1.8459895497	-0.096022
C	 2.6838239549	-0.2392849671	-2.841124763	-0.253965
C	 2.1893558324	-0.0995523775	-1.4484177447	-0.100518
H	 0.4926189116	 2.0259010751	-0.3879707171	 0.111435
H	-1.0867084363	 1.3180051853	-0.8156538062	 0.109715
H	-0.6733516496	 1.6154769623	 0.8964896233	 0.127759
H	-1.2024706668	-1.0741011213	-1.8680659774	 0.1178
H	 0.0477185301	-0.9220064858	-3.1825574244	 0.112979
H	 0.2104524472	-2.6600594422	-0.5958952978	 0.100773
H	 2.5181298464	-3.1959129101	-1.1574473079	 0.115017
H	 2.0456240344	-2.9071494213	-2.8330118333	 0.106006
H	 3.5457701312	 0.3341173879	-3.1744892585	 0.112343
H	 1.9710808266	-0.4579024698	-3.631312673	 0.108889
H	 2.6509519032	 0.6036983	-0.760108922	 0.094477
113.2088	148.7571	179.4523	263.5763	291.4116	375.9229	394.9404	440.658	476.2601	632.3229	669.7644	696.4937	787.7706	828.6747	841.8481	876.7845	929.119	960.5937	988.5258	1007.924	1023.2812	1055.8861	1073.1628	1093.1938	1109.8109	1115.5904	1120.1082	1158.8281	1184.3079	1207.7166	1233.0381	1242.4048	1274.5772	1275.1748	1335.3514	1358.8284	1400.2372	1472.6194	1487.9266	1491.6804	1499.9679	1508.0742	1520.6953	2991.6085	3037.8867	3043.8965	3075.6962	3102.9984	3121.0302	3131.5001	3142.3393	3174.0706	3183.0917	3217.2507
COC12CC1CN1CC21	CO[C@]12C[C@H]1CN1C[C@@H]21	
InChI=1S/C7H11NO/c1-9-7-2-5(7)3-8-4-6(7)8/h5-6H,2-4H2,1H3	InChI=1S/C7H11NO/c1-9-7-2-5(7)3-8-4-6(7)8/h5-6H,2-4H2,1H3/t5-,6-,7+,8?/m0/s1
