15
gdb 11726	5.24668	1.4101	1.24568	2.4485	63.87	-0.2565	-0.036	0.2204	943.8627	0.118562	-399.760767	-399.753557	-399.752612	-399.792309	27.037	
O	-0.0227164004	 1.4005966572	-0.176548333	-0.430119
C	 0.0224645404	 0.0145439559	-0.0168636559	 0.162085
C	 0.3808604865	-0.5778463069	 1.401632871	-0.330795
C	-0.9782259655	-1.2653765701	 1.4156251542	 0.261818
N	-1.9983372262	-0.1941890624	 1.2422817501	-0.375986
C	-1.3364165252	-0.711708905	 0.0489620682	-0.135757
C	-1.3440117151	-2.5998907769	 1.8986402066	 0.053098
O	-0.5928754994	-3.3545324946	 2.4676457677	-0.259675
H	-0.6886574202	 1.7224640301	 0.4450560795	 0.29288
H	 0.6698459495	-0.3828922386	-0.8006395523	 0.103759
H	 1.2125594269	-1.2830096815	 1.3752115114	 0.131345
H	 0.5385129658	 0.1595071837	 2.1912104171	 0.113698
H	-2.9290910105	-0.6072260934	 1.3065056934	 0.242529
H	-1.9009775525	-1.1773920464	-0.7507111572	 0.110259
H	-2.4005463242	-2.8849066012	 1.6732517091	 0.060862
97.6891	165.7571	171.602	307.1605	363.8592	429.6829	480.112	490.3494	618.1621	672.0023	745.7066	799.044	845.6605	909.4188	956.2622	971.7133	1000.7724	1026.7929	1086.5245	1106.3151	1126.407	1139.2739	1206.098	1226.6694	1281.4125	1310.1364	1357.8312	1399.9277	1434.247	1442.8658	1476.3558	1805.6212	2834.5212	3080.7416	3102.6392	3145.9231	3185.7792	3470.5779	3771.1489
OC1CC2(NC12)C=O	O[C@H]1C[C@]2(N[C@@H]12)C=O	
InChI=1S/C5H7NO2/c7-2-5-1-3(8)4(5)6-5/h2-4,6,8H,1H2	InChI=1S/C5H7NO2/c7-2-5-1-3(8)4(5)6-5/h2-4,6,8H,1H2/t3-,4-,5-/m0/s1
