21
gdb 37193	2.59383	1.96152	1.67577	0.1404	84.26	-0.2086	0.0773	0.2859	943.0242	0.184601	-349.871215	-349.864164	-349.86322	-349.901993	30.529	
C	 0.0247921113	 1.4521907745	-0.0622536614	-0.301171
C	 1.3497495733	 0.7553517374	 0.0498598512	-0.124573
C	 0.0075400529	-0.0440761988	 0.0584140181	-0.124575
C	 0.4094609723	-0.7125222001	-1.2598011946	 0.296037
C	 0.0437325417	-0.1490745915	-2.6695708688	-0.309001
C	 1.3990416849	 0.658307401	-2.6781956217	-0.309005
C	 1.7336602272	 0.0762367009	-1.2682662573	 0.296045
C	 2.5383281265	-1.2471076852	-1.1615276508	-0.289192
C	 1.190896789	-2.0497001564	-1.1528312923	-0.289188
H	-0.2822150412	 1.9773017629	 0.8370106781	 0.111068
H	-0.279988775	 1.9541246528	-0.9763807663	 0.106689
H	 2.0270061796	 0.9737053872	 0.8702007177	 0.075866
H	-0.4992631504	-0.5309636719	 0.8863058423	 0.075866
H	-0.0424759881	-0.9083148305	-3.4520714253	 0.094843
H	-0.8564282209	 0.4704815936	-2.7016904452	 0.102085
H	 2.100335259	 0.3682780756	-3.4657562837	 0.094839
H	 1.2824944686	 1.7446870092	-2.7152194845	 0.102088
H	 3.1830597783	-1.4510764964	-2.0208450157	 0.097175
H	 3.1447852853	-1.3430311767	-0.2568223398	 0.098464
H	 0.9950364846	-2.6234194185	-0.2429025019	 0.098466
H	 1.0550689911	-2.7186975889	-2.007055558	 0.097174
166.8009	274.8493	285.1201	313.8151	330.9606	500.0095	514.6983	634.0158	677.0499	701.9968	719.7291	722.8648	761.3684	825.7251	876.0891	889.0189	901.0761	916.6125	934.924	964.5894	987.7497	1008.7183	1019.042	1036.9682	1055.6678	1090.0215	1094.5382	1170.391	1177.6658	1183.4011	1212.5052	1224.4111	1237.5887	1237.8294	1256.0896	1273.43	1275.1526	1284.3499	1325.7414	1340.9676	1464.5769	1472.8475	1473.4356	1489.0256	1504.483	3047.7642	3048.9612	3052.5354	3056.0887	3090.9439	3094.5115	3108.6255	3113.5786	3117.9759	3142.6665	3151.6901	3197.1043
C1C2C1C13CCC21CC3	C1[C@H]2[C@@H]1[C@@]13CC[C@@]21CC3	
InChI=1S/C9H12/c1-2-9-4-3-8(1,9)6-5-7(6)9/h6-7H,1-5H2	InChI=1S/C9H12/c1-2-9-4-3-8(1,9)6-5-7(6)9/h6-7H,1-5H2/t6-,7+,8-,9+
