18
gdb 43374	3.09682	1.4341	1.03969	3.8594	78.31	-0.2339	-0.0261	0.2078	1143.2219	0.148915	-401.977447	-401.969512	-401.968568	-402.010501	30.023	
O	-0.1763490758	 0.0188940492	 0.8709980699	-0.398332
C	-0.1417695	 1.149654597	 0.4313965607	 0.397755
C	-1.2782621322	 2.0942109363	 0.21893115	-0.176342
C	-0.8162553826	 3.2586099652	-0.2366251584	-0.087275
C	 0.6790938452	 3.1968308118	-0.3821019357	-0.213288
N	 0.99058595	 1.8382711788	 0.0119647874	-0.100294
C	 2.3306537048	 1.3761846822	 0.1612519074	 0.035644
C	 2.6844120796	-0.0004057057	-0.324187079	-0.251552
C	 3.1884899383	 1.2032580538	-1.0747255559	-0.281712
H	-2.2987789864	 1.8107392053	 0.4329816764	 0.123841
H	-1.3857011015	 4.1452314684	-0.4831142794	 0.119449
H	 1.0032915758	 3.4085354683	-1.4113780894	 0.124534
H	 1.1795362968	 3.934405377	 0.2647011424	 0.123015
H	 2.8380017103	 1.7263703511	 1.0596147445	 0.093732
H	 3.3833502942	-0.5725229907	 0.2744265574	 0.11922
H	 1.8862640307	-0.5838150661	-0.76274142	 0.141749
H	 2.7305761855	 1.4261739	-2.032082187	 0.115502
H	 4.2375553275	 1.4674035181	-1.0029057213	 0.114353
60.7704	99.3063	177.0052	203.7852	340.3001	375.9264	402.292	508.0879	633.8014	666.4627	709.1068	775.4326	812.5505	821.8269	840.8959	898.4498	939.3094	969.9583	979.668	1012.0458	1036.7936	1063.5176	1075.3015	1096.2329	1126.9194	1156.0742	1187.2237	1192.9441	1215.77	1246.9591	1295.1386	1355.6862	1404.4991	1419.9364	1466.0398	1495.6334	1502.8631	1658.149	1803.4186	2988.6353	3014.5378	3099.6454	3137.2443	3157.9716	3218.0339	3222.0519	3250.4223	3251.3428
O=C1C=CCN1C1CC1	O=C1C=CCN1C1CC1	
InChI=1S/C7H9NO/c9-7-2-1-5-8(7)6-3-4-6/h1-2,6H,3-5H2	InChI=1S/C7H9NO/c9-7-2-1-5-8(7)6-3-4-6/h1-2,6H,3-5H2
