14
gdb 10370	2.3711	2.23286	1.38264	1.1094	69.07	-0.2595	0.0176	0.2771	901.3839	0.104412	-345.301028	-345.292958	-345.292013	-345.334131	29.115	
C	-0.0464269708	-1.2431487573	-0.0766529474	-0.44397
C	-0.0457163537	-0.0421162137	-0.0517102609	 0.270083
C	-0.018503584	 1.4124874604	 0.0072661041	-0.08913
C	-0.1121086847	 2.0165181226	 1.4562740381	-0.0916
O	 1.2170255879	 2.547868778	 1.3832639164	-0.26147
C	 1.4206687538	 2.0445923435	 0.0567990442	-0.091596
C	-0.9180078359	 2.0159060718	-0.9658031073	 0.270183
C	-1.6511749241	 2.5426280047	-1.7583515155	-0.444054
H	-0.0559159405	-2.3047229387	-0.1083115647	 0.202354
H	-0.87235443	 2.7967714126	 1.5644938662	 0.11922
H	-0.2226901647	 1.2652302037	 2.2448366078	 0.119202
H	 2.2308603407	 1.3101797971	 0.0046669657	 0.119203
H	 1.5816522599	 2.8417210399	-0.676107556	 0.119219
H	-2.3028711839	 2.9963979954	-2.4636308307	 0.202355
36.0903	125.3654	177.7757	180.996	237.4481	460.6318	460.8875	535.2775	560.5568	573.4853	637.7232	639.1748	642.0557	644.4673	842.9251	895.5196	978.4485	981.1239	986.0798	1061.3695	1143.6226	1156.5615	1164.7237	1261.9439	1306.809	1365.7361	1504.682	1530.2094	2238.5007	2243.3055	3029.9157	3039.9154	3092.3326	3094.0775	3500.4174	3501.2799
C#CC1(COC1)C#C	C#CC1(COC1)C#C	
InChI=1S/C7H6O/c1-3-7(4-2)5-8-6-7/h1-2H,5-6H2	InChI=1S/C7H6O/c1-3-7(4-2)5-8-6-7/h1-2H,5-6H2
