18
gdb 10400	2.96727	1.72095	1.38027	2.0301	62.97	-0.2429	0.0631	0.306	955.8496	0.153334	-422.047092	-422.038565	-422.037621	-422.080723	30.955	
O	 0.481585164	 0.7957781737	-1.1119987095	-0.423277
C	 0.0621570496	 0.283367921	 0.1377103087	-0.119636
C	-1.2810933981	-0.4625710641	 0.0811531511	 0.377688
C	-2.261344119	 0.2212265543	-0.8648949788	-0.119822
O	-2.3329752784	 1.6223079178	-0.6311878487	-0.43208
C	-1.2785508389	-2.0066040581	-0.0251740019	-0.344104
C	-1.9155576567	-1.9706367228	 1.3768818422	-0.066049
O	-1.8272946646	-0.5287215453	 1.4337868191	-0.331081
H	-0.1037427666	 1.5392911613	-1.3011543905	 0.296603
H	 0.849152636	-0.3917173713	 0.4886461782	 0.105838
H	-0.0451731433	 1.0763734582	 0.8910067492	 0.099186
H	-1.9171978021	 0.0960002055	-1.8958052765	 0.124058
H	-3.2494862847	-0.2518777731	-0.7710581356	 0.094902
H	-2.6071603817	 1.7374222037	 0.2863803624	 0.296455
H	-1.9030593069	-2.422540408	-0.818667507	 0.110924
H	-0.2860156939	-2.4560973854	-0.0794630828	 0.117465
H	-2.9538335057	-2.3198115319	 1.4306303203	 0.104159
H	-1.342905909	-2.4414631157	 2.18382613	 0.108769
56.0186	78.7697	116.7355	205.6193	286.3958	322.9637	381.0965	418.8819	459.4502	495.0459	557.7354	740.9039	784.2356	851.5191	857.2613	939.9602	959.0451	985.9333	1017.4383	1053.4436	1072.2404	1106.7167	1143.0062	1163.6659	1203.4118	1217.1796	1238.3353	1269.8597	1298.6902	1346.6672	1372.6038	1399.8584	1418.7694	1427.0329	1485.8886	1487.7941	1497.8986	1530.596	3003.0323	3008.8175	3021.2121	3062.9998	3075.1936	3079.4744	3092.6149	3131.2523	3787.1012	3795.3864
OCC1(CO)CCO1	OCC1(CO)CCO1	
InChI=1S/C5H10O3/c6-3-5(4-7)1-2-8-5/h6-7H,1-4H2	InChI=1S/C5H10O3/c6-3-5(4-7)1-2-8-5/h6-7H,1-4H2
