15
gdb 30431	3.31265	1.20097	0.89092	2.0922	67.53	-0.1992	0.0449	0.2441	1251.4797	0.11068	-491.083488	-491.074097	-491.073153	-491.119153	32.485	
C	 0.0758017441	 1.3831187884	 0.0695069102	-0.329229
N	 0.2221687158	-0.0591365734	 0.059503756	-0.358773
C	 0.6528089656	-0.6399140541	-0.9600890041	 0.529882
O	 0.8152556414	-1.9777090762	-1.0640854899	-0.250648
C	 1.3520509189	-2.2505836693	-2.3565588875	 0.140589
N	 1.633005295	-3.5439370725	-2.7449922875	-0.594763
C	 1.460097664	-1.0796336833	-2.9810395276	 0.352482
O	 1.844599194	-0.7580246336	-4.2185532906	-0.412391
O	 1.0418330208	-0.0528616488	-2.1650285902	-0.26523
H	 0.7045660129	 1.8079213196	 0.8607589133	 0.126097
H	 0.3359568065	 1.8730083735	-0.8770467044	 0.113801
H	-0.9605671576	 1.6402263556	 0.3163046006	 0.127292
H	 0.8098390061	-4.1360628044	-2.7910802762	 0.252978
H	 2.3257362602	-3.9945081278	-2.1559446892	 0.252574
H	 2.1215051522	 0.1664517361	-4.222084673	 0.315339
16.8886	106.2945	120.6782	195.4661	207.4025	239.4822	283.5483	288.0261	373.6935	395.7002	581.62	623.2691	655.5799	666.7522	722.3515	763.0797	821.1456	902.3025	959.5406	1115.5605	1138.0501	1145.7968	1187.9043	1221.7443	1229.8207	1358.0405	1406.4529	1448.1512	1493.8613	1503.3215	1662.8024	1823.7675	1903.0455	3010.3922	3072.0169	3075.909	3497.0377	3562.3521	3804.026
CN=C1OC(N)=C(O)O1	CN=c1oc(N)c(O)o1	
InChI=1S/C4H6N2O3/c1-6-4-8-2(5)3(7)9-4/h7H,5H2,1H3	InChI=1S/C4H6N2O3/c1-6-4-8-2(5)3(7)9-4/h7H,5H2,1H3
