23
gdb 75489	2.64328	1.34156	1.02443	0.1221	91.99	-0.2261	0.0361	0.2622	1276.1625	0.207125	-351.173138	-351.16441	-351.163466	-351.206086	34.983	
C	-0.0048172859	 1.5224939207	 0.0750825117	-0.473977
C	-0.0119457961	 0.0219076344	-0.0343691942	 0.320529
C	-0.0323334978	-0.6104352224	-1.2106879718	-0.136547
C	-0.01312009	-2.1079719895	-1.3749432521	-0.246834
C	 0.43065855	-2.8201653935	-0.0881019676	-0.284845
C	-0.2714489606	-2.2195633569	 1.1149493462	 0.394721
C	-1.6526143953	-2.7276283073	 1.4552233314	-0.297317
C	-0.4773337449	-3.0528413552	 2.3504651526	-0.333251
C	 0.0206582782	-0.7364676396	 1.2767404798	-0.368224
H	 0.8706923279	 1.874718123	 0.6368437796	 0.118561
H	 0.0094159888	 2.0006628349	-0.9081321224	 0.116978
H	-0.8865587115	 1.8864098449	 0.6189906447	 0.118267
H	-0.0665650673	-0.0205232133	-2.1250834541	 0.070658
H	-1.0136483684	-2.4591200304	-1.6692839559	 0.105271
H	 0.6495234491	-2.3822972309	-2.2056754094	 0.09595
H	 0.229681193	-3.8952108317	-0.155356472	 0.086758
H	 1.5166993735	-2.7067944216	 0.0321496114	 0.094798
H	-2.3903785334	-2.0189224018	 1.8167960811	 0.106257
H	-2.068501644	-3.5279837213	 0.8510434781	 0.105401
H	-0.1028210165	-4.0716047313	 2.3524702445	 0.105352
H	-0.4215959644	-2.558974022	 3.3156404221	 0.104968
H	 1.0095201704	-0.5969899682	 1.7434189415	 0.102447
H	-0.6937045548	-0.284959351	 1.9791322548	 0.094078
93.8465	146.1064	192.0721	254.3141	270.5173	326.0943	363.7217	384.4012	432.8932	470.187	478.9118	626.4894	722.0248	783.2804	814.4042	843.4206	867.2104	899.1526	924.2122	935.868	966.9351	984.9455	999.5687	1027.0259	1053.3269	1057.0957	1076.1627	1084.9919	1089.924	1158.3152	1181.1382	1189.0134	1219.6886	1240.8981	1305.6542	1323.8	1354.7079	1367.0454	1381.3512	1408.4841	1414.7277	1467.1612	1473.5741	1478.4636	1479.0897	1491.0967	1495.6955	1509.2883	1740.9849	2974.9789	2993.7901	3009.8246	3012.5372	3020.3318	3038.1894	3053.9703	3064.212	3107.1645	3120.6056	3125.5044	3136.8635	3197.7562	3212.4475
CC1=CCCC2(CC2)C1	CC1=CCCC2(CC2)C1	
InChI=1S/C9H14/c1-8-3-2-4-9(7-8)5-6-9/h3H,2,4-7H2,1H3	InChI=1S/C9H14/c1-8-3-2-4-9(7-8)5-6-9/h3H,2,4-7H2,1H3
