13
gdb 10368	2.4506	2.28912	1.4403	4.281	64.47	-0.2846	-0.0258	0.2588	866.5745	0.093983	-361.406882	-361.39925	-361.398306	-361.439228	27.14	
C	-0.2230387416	-1.3075402539	-0.1636712569	-0.416203
C	-0.1143475028	-0.1153236038	-0.0724745387	 0.298076
C	 0.0185749069	 1.3272176115	 0.0761770274	 0.110929
C	-0.1871389725	 1.9037183897	 1.5178855822	-0.323155
C	 1.260437837	 2.4049386829	 1.3715048376	-0.071115
O	 1.3930865002	 1.7788284522	 0.0697708006	-0.288691
C	-0.7705075808	 2.0265944724	-0.9568478781	 0.266549
N	-1.3937826919	 2.6016214734	-1.7413107217	-0.33157
H	-0.3174928445	-2.3618656688	-0.2583906313	 0.215512
H	-0.9628190791	 2.6635695156	 1.5989789756	 0.146026
H	-0.3415064372	 1.1255900323	 2.2634930121	 0.142388
H	 1.3775236347	 3.4913475062	 1.3066122644	 0.126211
H	 1.9852624915	 2.0003384204	 2.0839177868	 0.125043
66.8654	126.4968	178.2622	193.6582	257.5797	465.151	492.3963	548.0218	582.1225	591.8749	652.3572	686.5694	781.844	866.7451	931.1248	969.1077	999.6795	1011.0635	1119.3936	1157.0359	1198.0342	1236.8641	1260.8026	1346.4724	1484.5304	1529.3389	2242.9751	2357.3463	3046.3221	3095.0396	3107.6967	3173.0059	3497.9837
C#CC1(CCO1)C#N	C#C[C@]1(CCO1)C#N	
InChI=1S/C6H5NO/c1-2-6(5-7)3-4-8-6/h1H,3-4H2	InChI=1S/C6H5NO/c1-2-6(5-7)3-4-8-6/h1H,3-4H2/t6-/m0/s1
