21
gdb 101162	2.01249	1.39436	0.98223	1.8021	74.62	-0.2433	0.0511	0.2944	1275.7482	0.180849	-461.335327	-461.324979	-461.324035	-461.370472	38.149	
C	 0.1306100259	 1.6537599977	-0.1904569889	-0.408792
C	 0.2004854016	 0.1445530161	-0.0906810278	-0.059274
C	 1.5240694657	-0.5656904617	 0.038237394	 0.087635
O	 2.6823877318	 0.2048291891	 0.1146172394	-0.431881
C	 0.5608954415	-0.5632081349	 1.2078147487	-0.112082
C	 0.8653276686	 0.1909497648	 2.4840178379	 0.100352
O	-0.3162707901	 0.4441634333	 3.2434388107	-0.4364
C	 1.8936144322	-0.5409039614	 3.3664766154	-0.100684
O	 3.220272084	-0.4952778549	 2.8264599614	-0.409938
H	 1.058379236	 2.1141910024	 0.1545186948	 0.134922
H	-0.0120759773	 1.9562681867	-1.2328221688	 0.114012
H	-0.7014093569	 2.0566153461	 0.3961889001	 0.120788
H	-0.5396568825	-0.3766082706	-0.6924262319	 0.081959
H	 1.6426931514	-1.5063709369	-0.5007815013	 0.080531
H	 3.1506135981	-0.0992862959	 0.9083663074	 0.28649
H	 0.0536402985	-1.5105355073	 1.3981248304	 0.069507
H	 1.2758448983	 1.1783816803	 2.2510991477	 0.089218
H	-0.869763384	-0.3422985616	 3.1987060204	 0.279966
H	 1.8665563867	-0.1044936064	 4.3717586326	 0.108934
H	 1.6357206281	-1.6028013408	 3.4529640658	 0.10722
H	 3.6116600923	 0.3440155758	 3.0891287618	 0.297518
67.8665	115.8649	144.599	168.9174	204.6755	217.0488	235.9726	254.2527	322.3329	341.2662	383.827	476.5251	520.6713	555.8246	626.2986	657.7468	769.6908	807.143	863.2694	961.1811	981.4396	995.2154	1037.4004	1055.7666	1080.4804	1088.1384	1115.3224	1135.2031	1152.7782	1184.1826	1195.3158	1242.9019	1267.8785	1326.7817	1368.5803	1372.0357	1398.0079	1402.8555	1410.8327	1414.9905	1431.601	1463.9734	1496.0428	1499.5734	1506.0009	3028.5525	3039.7946	3062.635	3079.6615	3084.8044	3093.0993	3098.2642	3126.096	3142.0644	3672.9146	3813.9712	3823.4915
CC1C(O)C1C(O)CO	C[C@H]1[C@@H](O)[C@H]1[C@@H](O)CO	
InChI=1S/C6H12O3/c1-3-5(6(3)9)4(8)2-7/h3-9H,2H2,1H3	InChI=1S/C6H12O3/c1-3-5(6(3)9)4(8)2-7/h3-9H,2H2,1H3/t3-,4+,5-,6-/m1/s1
