14
gdb 28758	3.95229	1.05792	0.96212	2.6157	66.07	-0.2241	0.0164	0.2405	1205.2618	0.102224	-470.032538	-470.02461	-470.023665	-470.06597	28.64	
O	 0.2969314033	 1.2232684182	 0.679811711	-0.398053
C	 0.2114516835	-0.0346825941	 0.2564516641	 0.490043
N	 0.9702091034	-0.6411437719	-0.6011284162	-0.385708
C	 0.4197094526	-1.9192967381	-0.654210246	-0.14561
C	-0.6355850753	-2.0073606812	 0.1817170128	 0.385733
N	-1.5250080899	-3.007146211	 0.5260740791	-0.41481
C	-2.8174743979	-3.0804076793	 0.0290841373	 0.061952
N	-3.2512401543	-2.2934660224	-0.8659733689	-0.432738
O	-0.7759062806	-0.7516170411	 0.7928821117	-0.188266
H	 1.0375178109	 1.6227926352	 0.2051118048	 0.322001
H	 0.8205823597	-2.6869504225	-1.2964116793	 0.129517
H	-1.3233227222	-3.5684826877	 1.3391672918	 0.255663
H	-3.3762504981	-3.9002069098	 0.4973846699	 0.093676
H	-4.2092521852	-2.5305607544	-1.112116792	 0.226601
42.7257	99.2943	173.0037	246.06	356.8036	366.7877	402.7081	447.5859	526.8328	585.2429	625.5397	744.9346	755.9059	809.3731	840.9343	883.4407	962.2038	1023.6825	1052.3081	1075.6208	1144.6171	1192.235	1229.6522	1251.4284	1302.4838	1410.0613	1495.5546	1509.3298	1642.2495	1689.7082	1741.7647	3043.0689	3268.9519	3520.8165	3606.523	3801.7376
OC1=NC=C(NC=N)O1	Oc1ncc(NC=N)o1	
InChI=1S/C4H5N3O2/c5-2-7-3-1-6-4(8)9-3/h1-2H,(H2,5,7)(H,6,8)	InChI=1S/C4H5N3O2/c5-2-7-3-1-6-4(8)9-3/h1-2H,(H2,5,7)(H,6,8)
