17
gdb 46991	2.71386	1.78069	1.44192	1.7792	66.91	-0.2393	-0.0259	0.2134	937.7692	0.138141	-458.993066	-458.985995	-458.985051	-459.02475	27.469	
O	 0.0295273046	-0.0423605441	-0.13668591	-0.31522
C	-0.0325165711	 1.1520712498	 0.0206864642	 0.407864
C	-1.3446272569	 1.9089666947	 0.2187864417	-0.319515
C	-1.2034000131	 3.1847932147	 1.0787655865	-0.231923
C	 0.170063059	 3.816520003	 0.8564511139	 0.196894
O	 0.3610854931	 4.1465033175	-0.5187508913	-0.276296
C	 1.1492959806	 3.1094333793	-1.1024313345	-0.11039
C	 1.2113301021	 2.0475714351	 0.0084095286	-0.049586
O	 1.1729367112	 2.8714157183	 1.1795874971	-0.251887
H	-1.6743784117	 2.1942159072	-0.7893662824	 0.142769
H	-2.0931592405	 1.2167206426	 0.6103094489	 0.130385
H	-1.9914846244	 3.9045831592	 0.8376097095	 0.113851
H	-1.2889906361	 2.9428879321	 2.1435183287	 0.118539
H	 0.3308218527	 4.7094201159	 1.4675976203	 0.097405
H	 0.6742206058	 2.7527027906	-2.0224931497	 0.119707
H	 2.1524647285	 3.4839352242	-1.3384356132	 0.118169
H	 2.118090936	 1.4432880098	 0.0165357218	 0.109234
90.9423	158.2573	218.2537	346.1282	411.6019	422.8251	469.4898	573.0047	662.2911	719.9244	765.0685	813.8839	859.6527	890.5863	916.8143	952.1459	966.8221	1018.9968	1033.0617	1048.5283	1069.7365	1145.9657	1167.2924	1193.4175	1222.6925	1248.1142	1276.5743	1306.352	1307.4284	1342.4399	1364.7856	1382.2021	1385.7169	1452.6212	1482.3223	1520.5942	1830.3387	3028.0156	3029.5057	3048.5036	3076.9594	3078.8213	3095.0699	3111.3123	3132.015
O=C1CCC2OCC1O2	O=C1CC[C@@H]2OC[C@H]1O2	
InChI=1S/C6H8O3/c7-4-1-2-6-8-3-5(4)9-6/h5-6H,1-3H2	InChI=1S/C6H8O3/c7-4-1-2-6-8-3-5(4)9-6/h5-6H,1-3H2/t5-,6-/m1/s1
