23
gdb 104719	2.04478	1.36481	1.02899	2.4397	81.55	-0.2449	0.0771	0.322	1306.8381	0.204296	-425.423083	-425.412962	-425.412018	-425.457878	38.19	
C	 0.5545656881	-0.9131526506	-1.2003135127	-0.400282
C	-0.2229784919	-0.5217271099	 0.0575418828	-0.232958
C	 0.5287417419	-0.6895292688	 1.3765023579	 0.412281
C	-0.2065930824	 0.0110668185	 2.5269233825	-0.100906
O	-0.1670805395	 1.4130491695	 2.3583955455	-0.421529
C	 1.1038416929	-2.072744944	 1.7548049802	-0.370704
C	 2.4563500441	-1.3377979109	 1.8715396751	 0.173572
C	 3.6341017873	-1.8380709268	 1.0619454809	-0.405454
O	 1.8796225327	-0.1211643653	 1.3217685068	-0.353613
H	 0.8064696017	-1.9791815733	-1.2179317124	 0.109046
H	-0.0391125562	-0.7058660111	-2.0956770407	 0.112245
H	 1.4857953634	-0.3455325081	-1.2681913555	 0.133789
H	-0.5276731654	 0.5287703952	-0.0090119408	 0.11942
H	-1.1484235691	-1.1086884745	 0.131049615	 0.096254
H	-1.2611721476	-0.2863842033	 2.5517491807	 0.10393
H	 0.2480396704	-0.287280684	 3.4859538532	 0.076884
H	 0.7619579569	 1.6170266528	 2.1840711967	 0.289393
H	 0.7071203439	-2.5224461598	 2.667403123	 0.105318
H	 1.0761277879	-2.8088863293	 0.9491124869	 0.107796
H	 2.762067661	-1.170774249	 2.91359052	 0.076822
H	 3.3399641331	-2.0397958103	 0.0278985432	 0.124481
H	 4.4357388072	-1.0926960122	 1.0529942425	 0.127148
H	 4.0310744695	-2.7607422546	 1.4995303893	 0.117068
77.8767	107.6381	122.1472	197.3585	220.6003	240.5816	249.9978	311.6875	327.787	341.3748	446.9131	473.3366	513.9629	557.9778	655.9222	763.8587	781.082	866.4945	891.6973	902.4758	932.2558	963.3304	985.3826	998.6597	1060.5261	1074.8383	1086.3667	1120.2546	1153.3019	1186.0626	1207.0259	1220.4632	1245.3434	1287.9914	1302.4993	1327.7307	1377.035	1385.3458	1392.1963	1405.4402	1412.7578	1434.91	1478.1358	1482.8844	1487.7467	1494.7638	1502.2603	1506.3042	1511.0949	2965.7702	3003.3458	3022.5019	3034.8453	3038.6956	3064.5011	3070.1394	3071.3127	3100.8141	3105.3977	3116.538	3125.6586	3126.4771	3755.9658
CCC1(CO)CC(C)O1	CC[C@@]1(CO)C[C@@H](C)O1	
InChI=1S/C7H14O2/c1-3-7(5-8)4-6(2)9-7/h6,8H,3-5H2,1-2H3	InChI=1S/C7H14O2/c1-3-7(5-8)4-6(2)9-7/h6,8H,3-5H2,1-2H3/t6-,7+/m1/s1
