18
gdb 49659	2.86509	1.51576	1.32494	4.6021	75.81	-0.225	0.0003	0.2253	1017.2221	0.149573	-401.920004	-401.91275	-401.911806	-401.952035	28.785	
O	 0.0806908345	-0.1113562751	 0.1713453145	-0.286998
C	-0.0236111484	 1.0757504546	-0.026519619	 0.164626
C	 1.1648035926	 1.9939668251	-0.0024136258	-0.114121
C	 1.1297293937	 3.4892771477	-0.2330353135	-0.089389
C	-0.1675657204	 4.2930082816	-0.0518178095	-0.240929
C	-0.5433992865	 4.173616626	 1.4231066935	-0.032706
N	-0.8355028654	 2.7974190801	 1.8674322191	-0.329588
C	 0.4992302158	 3.3720727709	 2.1235060769	-0.043764
C	 1.5469204611	 2.9551355061	 1.1225443275	-0.047456
H	-0.9864852048	 1.5251560581	-0.3283420722	 0.079987
H	 2.0324418582	 1.4889546149	-0.4202806489	 0.109775
H	 1.8631151097	 3.8931827658	-0.9229284742	 0.090907
H	 0.0373370295	 5.3437862872	-0.283545754	 0.108691
H	-0.9811345886	 3.972255861	-0.7102388706	 0.118255
H	-1.069762375	 4.9922340051	 1.9041353757	 0.091429
H	-1.3999898996	 2.8109351599	 2.71297873	 0.236479
H	 0.7987155331	 3.5696344038	 3.1464577925	 0.092331
H	 2.5812505207	 2.9548764372	 1.4453014082	 0.092472
66.1207	134.4651	261.1834	333.7427	374.2856	420.4564	523.4109	608.4368	684.0688	698.6156	735.367	802.4412	840.4804	854.3369	881.3156	891.8598	938.7714	964.1887	973.5818	1011.977	1041.7169	1058.7512	1071.9811	1097.4614	1112.9864	1136.6694	1158.9193	1207.5915	1215.8146	1238.2979	1313.8882	1316.481	1344.9012	1377.5591	1398.5534	1421.9421	1445.7182	1484.5861	1798.7347	2957.6476	3048.2134	3085.0854	3139.8144	3156.0272	3160.6032	3174.261	3187.8114	3503.9028
O=CC1C2CC3NC3C12	O=C[C@H]1[C@H]2C[C@H]3N[C@H]3[C@@H]12	
InChI=1S/C7H9NO/c9-2-4-3-1-5-7(8-5)6(3)4/h2-8H,1H2	InChI=1S/C7H9NO/c9-2-4-3-1-5-7(8-5)6(3)4/h2-8H,1H2/t3-,4+,5-,6-,7-/m1/s1
