20
gdb 73365	2.43097	1.93388	1.56976	2.438	76.17	-0.2232	0.07	0.2932	951.4857	0.173855	-403.140228	-403.132921	-403.131977	-403.171575	30.397	
O	-0.0638439948	 1.3789145557	-0.0337206363	-0.493619
C	 0.0433285752	-0.0324710737	-0.0004321843	 0.382253
C	 0.7210458192	-0.6253917731	-1.2616206486	-0.258922
C	 0.0857318529	-2.0208054838	-1.4749246642	-0.25302
C	-1.2425116915	-1.9635496557	-0.7259342604	-0.019561
C	-1.3571233813	-0.6770741547	 0.0073775222	-0.085506
N	-1.2667904087	-1.9342081897	 0.7554568116	-0.10889
C	 0.0364402557	-1.9771432726	 1.4582221355	-0.175199
C	 0.6645379496	-0.5773456857	 1.3067745889	-0.26273
H	 0.8257807675	 1.7461537106	-0.0442123988	 0.276896
H	 0.462639002	 0.0283834977	-2.1008385129	 0.109494
H	 1.8137359859	-0.6540883976	-1.1827651539	 0.085977
H	-0.0928318432	-2.2205511469	-2.5352162275	 0.105134
H	 0.7261241326	-2.8334216505	-1.1129969124	 0.106388
H	-2.1012006124	-2.4708101593	-1.1570852417	 0.089226
H	-2.2426072993	-0.0565111267	 0.0997345743	 0.091464
H	-0.1506820186	-2.228702088	 2.5057906442	 0.10957
H	 0.6759418322	-2.7677520806	 1.0502584296	 0.102318
H	 1.759433323	-0.5930820346	 1.2916075622	 0.088893
H	 0.344559864	 0.0737021893	 2.1267152524	 0.109833
107.9668	237.5619	281.7997	303.9631	384.4321	408.0731	451.1558	536.1634	588.5898	676.0724	709.7397	740.8394	767.2758	813.1565	869.8292	873.363	933.1022	945.6339	965.0864	973.3919	1008.5993	1038.4222	1059.9463	1086.5604	1103.0543	1143.6047	1160.2243	1213.3088	1218.2039	1226.324	1228.5312	1259.2472	1290.0027	1299.6191	1319.7025	1332.7638	1344.8894	1390.7426	1398.0979	1479.8239	1494.7953	1500.5525	1525.4241	3032.2778	3038.7185	3041.1632	3046.7888	3075.3163	3077.9337	3091.8385	3097.7878	3141.0605	3163.9315	3817.2388
OC12CCC3C1N3CC2	O[C@]12CC[C@@H]3[C@H]1N3CC2	
InChI=1S/C7H11NO/c9-7-2-1-5-6(7)8(5)4-3-7/h5-6,9H,1-4H2	InChI=1S/C7H11NO/c9-7-2-1-5-6(7)8(5)4-3-7/h5-6,9H,1-4H2/t5-,6-,7+,8?/m1/s1
