20
gdb 91031	2.13521	1.86319	1.54623	2.5158	77.66	-0.2165	0.0635	0.28	999.0636	0.170865	-403.073168	-403.064987	-403.064043	-403.105165	32.977	
C	-0.0673988195	 1.4912487769	-0.057494103	-0.507777
C	 0.0067892203	-0.0188071746	-0.0128315496	 0.35105
C	-1.2997119875	-0.7206925407	 0.4098602467	-0.069532
C	-1.235106827	-2.1863866996	 0.4948767239	-0.251655
N	-0.6313370499	-1.4138424807	 1.5988418871	-0.155429
C	 0.6862772521	-0.8166401225	 1.1313773376	-0.018879
C	 1.5697200582	-1.5761293463	 0.1088025122	-0.296363
C	 0.9154017666	-0.7419355689	-1.0513236542	 0.040512
O	 0.2180399447	-1.4193296857	-2.0735002419	-0.424606
H	 0.9300835198	 1.9391428714	-0.122655117	 0.112347
H	-0.6430809442	 1.8279545999	-0.9283944793	 0.124339
H	-0.55593931	 1.8886269776	 0.8388143857	 0.124749
H	-2.232087049	-0.1758627094	 0.5336919881	 0.088051
H	-2.1401702329	-2.6941122115	 0.8174734202	 0.115792
H	-0.6316420535	-2.7553480405	-0.2007801198	 0.126801
H	 1.1897735118	-0.3296471242	 1.9667830206	 0.076427
H	 2.6375297474	-1.3793389411	 0.2368372283	 0.099885
H	 1.4249350497	-2.6573584821	 0.0514139928	 0.110311
H	 1.6377114186	-0.0345640249	-1.4831070981	 0.068087
H	 0.8634363341	-1.7830563432	-2.6878011101	 0.285888
155.2043	206.6292	223.3187	238.1143	275.9071	295.7804	356.7322	425.3449	471.998	550.4753	628.1144	659.2574	717.3359	747.9989	762.7828	876.014	890.5896	905.7461	950.8524	979.9457	993.7652	1044.4325	1053.0669	1095.673	1106.3587	1122.6066	1149.7095	1166.0787	1178.0411	1180.2184	1232.7276	1233.9087	1255.4579	1276.0237	1300.5642	1322.7766	1379.0741	1409.8414	1432.0071	1467.5589	1492.0859	1494.3463	1517.7378	2989.5452	3021.031	3060.6815	3085.0054	3095.4481	3102.309	3116.0254	3127.4115	3140.0155	3223.9212	3817.4313
CC12C3CN3C1CC2O	C[C@]12[C@H]3CN3[C@H]1C[C@H]2O	
InChI=1S/C7H11NO/c1-7-4(2-6(7)9)8-3-5(7)8/h4-6,9H,2-3H2,1H3	InChI=1S/C7H11NO/c1-7-4(2-6(7)9)8-3-5(7)8/h4-6,9H,2-3H2,1H3/t4-,5+,6+,7+,8?/m0/s1
