18
gdb 31118	2.27101	1.55748	0.96222	3.5528	76.19	-0.1821	0.0402	0.2223	1204.1706	0.14806	-439.119976	-439.110836	-439.109892	-439.153748	34.15	
C	-0.1748524674	 1.5629265079	 0.2306343323	-0.503984
C	-0.003966657	 0.0915645514	 0.0360027345	 0.218022
C	 0.0518271299	-0.6739273045	-1.1167636332	 0.04077
C	-0.0319530232	-0.254852244	-2.5468491465	-0.207281
O	 0.9096878307	-0.9802777908	-3.3636672919	-0.41939
C	 0.1871079244	-2.0402399822	-0.7098851495	 0.25962
O	 0.2882209664	-3.1084439446	-1.5475981486	-0.456551
C	 0.2036680282	-2.0787665587	 0.6614247772	-0.193264
N	 0.0781794988	-0.7693370437	 1.0961145117	-0.305829
H	 0.4618600651	 1.9379835585	 1.0406215055	 0.122924
H	 0.0981211625	 2.1057858963	-0.678072085	 0.134447
H	-1.2093227257	 1.8385721899	 0.4737128908	 0.133706
H	-1.004520145	-0.4989516273	-2.9909583128	 0.122706
H	 0.1101764953	 0.8291147143	-2.660886907	 0.09991
H	 1.7838466446	-0.8194420484	-2.9893384977	 0.286666
H	 0.4956774106	-2.7447400227	-2.422449235	 0.295342
H	 0.3074067665	-2.9013375631	 1.3477584859	 0.117061
H	 0.0628180054	-0.4880199282	 2.0602136993	 0.255126
86.3926	113.8134	149.5401	206.3265	239.7181	280.8026	313.7038	379.7294	429.9157	444.0999	510.0913	580.4881	619.9951	647.589	660.5036	709.815	749.777	773.8163	951.3433	974.3228	1000.8602	1054.8196	1086.8405	1106.6996	1190.994	1204.9126	1250.7708	1325.9241	1349.7018	1362.8814	1412.7846	1419.6043	1469.2857	1480.8471	1484.7751	1505.9305	1514.3716	1577.1432	1672.9205	3002.869	3015.4455	3048.211	3063.9825	3112.1973	3280.0287	3686.0886	3694.0048	3794.1297
CC1=C(CO)C(O)=CN1	Cc1c(CO)c(O)c[nH]1	
InChI=1S/C6H9NO2/c1-4-5(3-8)6(9)2-7-4/h2,7-9H,3H2,1H3	InChI=1S/C6H9NO2/c1-4-5(3-8)6(9)2-7-4/h2,7-9H,3H2,1H3
