16
gdb 35927	3.20017	1.43031	1.10971	4.0661	68.54	-0.2721	0.0089	0.281	1059.4608	0.125742	-437.870838	-437.863453	-437.862508	-437.902942	28.105	
N	-0.0540168153	-1.1457940229	-0.065743275	-0.314897
C	-0.0461675706	 0.0068525047	-5.7871*^-6	 0.288485
C	-0.0025779938	 1.4765658312	 0.0317396544	-0.052619
O	-0.7195089225	 1.9093841798	 1.1812765313	-0.243855
C	-0.578903696	 3.3019511207	 1.3533810218	 0.01449
O	 0.7076614285	 3.6535190645	 1.77831451	-0.236815
C	 1.7189741112	 3.1843656341	 0.9262858836	 0.089234
C	 2.3153292832	 1.8381291289	 1.2332281964	-0.302838
C	 1.4259659012	 2.0054737816	 0.0244224407	-0.081413
H	-0.5159266202	 1.8427446253	-0.8732152733	 0.122242
H	-0.834693502	 3.8160903418	 0.4098275641	 0.088107
H	-1.2662940459	 3.5935962286	 2.1480381853	 0.133005
H	 2.3583815078	 3.9817568276	 0.5585862959	 0.110289
H	 3.3741351474	 1.67832188	 1.0665969314	 0.125027
H	 1.8959022481	 1.3260725307	 2.0919863587	 0.146608
H	 1.8942353189	 1.9937822634	-0.9538741581	 0.114951
88.813	143.4561	204.2826	294.7546	374.1198	400.9046	451.4374	509.1182	572.9113	637.9649	731.3562	766.6245	814.8282	858.1102	934.8915	1002.7437	1009.2218	1017.4677	1051.9325	1065.7627	1084.7801	1120.6357	1138.2909	1180.9546	1205.1813	1234.799	1302.5534	1332.489	1354.9973	1362.8067	1402.8089	1444.1962	1474.3781	1511.324	2369.9582	2946.6392	2967.1165	3132.5412	3142.9904	3147.3471	3169.4292	3237.2398
N#CC1OCOC2CC12	N#C[C@H]1OCO[C@H]2C[C@@H]12	
InChI=1S/C6H7NO2/c7-2-6-4-1-5(4)8-3-9-6/h4-6H,1,3H2	InChI=1S/C6H7NO2/c7-2-6-4-1-5(4)8-3-9-6/h4-6H,1,3H2/t4-,5+,6-/m1/s1
