20
gdb 87462	2.8667	1.38835	1.2607	1.3226	80.42	-0.2319	0.0852	0.3171	1118.9183	0.168924	-403.04692	-403.038165	-403.037221	-403.079877	33.767	
C	-0.1224938597	 1.4884304986	-0.0644707879	-0.317922
N	 0.0197936075	 0.0384077081	 0.0004919453	-0.163366
C	 1.3880593628	-0.4997414861	-0.200024409	-0.35655
C	 0.7316233626	-0.5189671537	 1.1122485885	 0.424822
C	 1.1230377725	-0.0156370873	 2.5128626951	-0.052923
C	-0.2592127028	-0.4816665776	 3.0306248122	-0.265067
C	 0.3268726849	-1.6070479662	 2.1288544663	 0.305471
C	-0.1318258814	-3.01158493	 1.9108165142	-0.518849
O	 1.6482775622	-1.3709404187	 2.7877378946	-0.341498
H	 0.7436056065	 2.0338562774	 0.3450502869	 0.101054
H	-0.2554554239	 1.7909683822	-1.1076431448	 0.126056
H	-1.0145694973	 1.7929573542	 0.4924198359	 0.123718
H	 1.4559316359	-1.3928748246	-0.8154043587	 0.118693
H	 2.1945563645	 0.2180818713	-0.3465434629	 0.111105
H	 1.733641512	 0.8310425591	 2.8240755881	 0.095617
H	-0.2875744693	-0.7217065987	 4.0949280131	 0.102467
H	-1.1518090434	 0.0429353683	 2.6796316943	 0.102002
H	-1.0886101299	-3.0105877017	 1.3795516562	 0.137098
H	 0.5977334779	-3.5624511855	 1.309450715	 0.13493
H	-0.2613164116	-3.5321940791	 2.8641569476	 0.133144
132.6496	146.5755	165.0018	190.6126	220.4169	267.8329	318.3249	422.6153	450.3436	483.0292	593.3608	651.927	661.1329	720.1393	804.8184	845.5978	863.3025	899.8303	946.8209	974.8871	1017.7626	1027.8324	1053.6174	1084.18	1103.5545	1117.4387	1147.7476	1160.3281	1175.5543	1203.9308	1211.8097	1226.1946	1228.0565	1336.0774	1410.8907	1444.9762	1451.0792	1476.7625	1485.338	1489.4182	1494.3663	1495.5079	1537.123	2968.2248	3040.9248	3059.0913	3067.8733	3090.7232	3103.3248	3115.4122	3117.4366	3127.8937	3141.802	3177.8115
CN1CC11C2CC1(C)O2	CN1C[C@]21[C@H]1C[C@]2(C)O1	
InChI=1S/C7H11NO/c1-6-3-5(9-6)7(6)4-8(7)2/h5H,3-4H2,1-2H3	InChI=1S/C7H11NO/c1-6-3-5(9-6)7(6)4-8(7)2/h5H,3-4H2,1-2H3/t5-,6+,7+,8?/m1/s1
