15
gdb 46436	3.98761	1.20064	1.09026	3.2651	75.06	-0.2482	-0.0011	0.2472	1103.6258	0.11324	-416.76012	-416.752506	-416.751562	-416.792214	29.252	
N	-0.0726904897	 1.2393048825	 0.3326672418	-0.550438
C	-0.0231062111	 0.0186043657	 0.0208799219	 0.481739
O	 1.1168284908	-0.6853367639	-0.2603610419	-0.254415
C	 0.8235607806	-1.9578006791	-0.8586556522	-0.13772
C	-0.6794211837	-2.1605803749	-0.7021572405	 0.166675
N	-1.0598057496	-2.0949914134	 0.7288269711	-0.361918
C	-1.197687393	-0.8866800903	-0.1159463582	-0.212212
C	-1.4030046572	-2.9749954572	-1.6256170546	 0.163021
C	-1.9894369427	-3.6863099384	-2.3979579556	-0.363087
H	 0.8620644167	 1.6514510869	 0.3254207892	 0.227166
H	 1.1069549836	-1.9330657555	-1.9159694863	 0.126238
H	 1.4014729837	-2.7247967394	-0.3371374562	 0.134688
H	-1.9822550891	-2.5138929599	 0.8366276148	 0.248671
H	-2.1725734584	-0.4746473911	-0.3378857188	 0.1315
H	-2.513797361	-4.3074135719	-3.0818470145	 0.200091
108.163	145.9693	168.7569	275.1022	380.6317	407.3584	483.1567	522.6831	557.8199	608.0674	641.3219	677.6282	698.2233	773.9715	844.7494	863.2411	901.334	957.5643	987.3823	1027.678	1054.5655	1066.814	1090.4897	1158.3975	1227.5684	1258.194	1290.0167	1320.4791	1400.8061	1425.5301	1505.2913	1786.8214	2240.6409	3051.2836	3109.2821	3222.5137	3474.169	3493.273	3499.7327
N=C1OCC2(NC12)C#C	[NH][C]1OC[C@]2(N[C@@H]12)C#C	
InChI=1S/C6H6N2O/c1-2-6-3-9-5(7)4(6)8-6/h1,4,7-8H,3H2	InChI=1S/C6H6N2O/c1-2-6-3-9-5(7)4(6)8-6/h1,4,7-8H,3H2/t4-,6+/m0/s1
