22
gdb 58677	1.74059	1.52795	1.08109	2.3259	83.48	-0.254	-0.0323	0.2217	1275.4368	0.191815	-404.349101	-404.33863	-404.337686	-404.38421	38.326	
C	-3.3455441647	-0.9680390394	 1.0481111692	-0.403757
C	-1.9541543513	-1.3107701804	 0.4916841754	-0.044317
C	-1.6685267901	-0.5834014148	-0.831986996	-0.405149
C	-0.8753245459	-1.0556926566	 1.5391610235	 0.221302
N	-0.6709625169	-2.0999586902	 2.5622120667	-0.372822
C	 0.4088963128	-1.8569177255	 1.6160586314	-0.022654
C	 0.7769996139	-2.9558985948	 0.6495562063	-0.407769
C	-0.7139988403	 0.342004082	 2.0449463771	 0.094197
O	-0.1809068576	 0.6111285124	 3.0986437721	-0.279538
H	-3.447512069	 0.1047202647	 1.2503793144	 0.112454
H	-4.1280515027	-1.2410976284	 0.3330175243	 0.114507
H	-3.530961139	-1.5088017836	 1.9805966665	 0.133321
H	-1.9426695279	-2.3869203666	 0.2943894502	 0.088944
H	-1.705894674	 0.5056298415	-0.7202167607	 0.117914
H	-0.6823107562	-0.8446897402	-1.228012154	 0.118979
H	-2.416197967	-0.8550442211	-1.5838953422	 0.118831
H	-0.4575057547	-1.6271019395	 3.4414506099	 0.24417
H	 1.2563400346	-1.2876222082	 1.9961148794	 0.102317
H	-0.0969698496	-3.5238151186	 0.3260802028	 0.132551
H	 1.2834534571	-2.5506236657	-0.2324898733	 0.121564
H	 1.4640505685	-3.6561253392	 1.1370954385	 0.129269
H	-1.11264162	 1.1465829723	 1.3942447285	 0.085688
71.8889	123.1546	147.3362	185.8505	208.0207	213.0036	230.722	246.3741	263.0239	320.0202	349.5276	455.9268	477.7387	526.4553	609.074	755.7126	781.786	865.6195	896.1082	926.7879	966.8584	975.6794	1012.7102	1037.9275	1050.5282	1080.3221	1134.0451	1144.5328	1157.5426	1195.4667	1258.2632	1274.6461	1328.4923	1344.8348	1376.5625	1398.4078	1405.4909	1420.9111	1437.1562	1453.2643	1484.2729	1488.5501	1494.4167	1498.384	1506.976	1511.2585	1790.9441	2922.7986	3029.6105	3035.7228	3039.7637	3057.738	3093.7154	3098.6847	3103.5593	3107.5366	3114.0266	3114.9614	3140.0551	3456.166
CC(C)C1(NC1C)C=O	CC(C)[C@]1(N[C@H]1C)C=O	
InChI=1S/C7H13NO/c1-5(2)7(4-9)6(3)8-7/h4-6,8H,1-3H3	InChI=1S/C7H13NO/c1-5(2)7(4-9)6(3)8-7/h4-6,8H,1-3H3/t6-,7+/m0/s1
