16
gdb 27796	1.94344	1.78351	0.93544	3.5223	76.73	-0.2092	-0.022	0.1872	1192.8577	0.125505	-437.974366	-437.96635	-437.965406	-438.006834	30.775	
C	 0.0007971476	 1.5105122203	-0.0045796066	-0.491223
C	-0.064238441	 0.0117294299	-0.001985435	 0.430062
C	-1.2202864534	-0.7004395675	-0.1085620829	-0.332261
C	-1.1496760076	-2.1246193183	-0.0935017805	 0.470984
O	-2.3400818725	-2.7609389827	-0.2038344478	-0.429812
C	 0.0456946272	-2.7804673221	 0.0248399011	-0.447254
C	 1.2881885279	-2.0600214985	 0.1396734864	 0.441241
O	 2.4109551376	-2.5273750116	 0.249965778	-0.412478
N	 1.1196917159	-0.6543580155	 0.1153334949	-0.430551
H	 0.6162505871	 1.874971714	-0.8351400554	 0.145097
H	-0.9971063429	 1.9399285861	-0.1030740496	 0.145828
H	 0.4471327303	 1.8852196114	 0.9237457021	 0.14511
H	-2.1782053612	-0.2094875599	-0.2031867144	 0.109898
H	-2.1913348687	-3.7133196643	-0.1840402191	 0.304409
H	 0.1081186832	-3.8627858667	 0.0371406988	 0.097806
H	 1.9863297304	-0.1403492846	 0.1953322101	 0.253146
123.9212	164.7113	205.6124	215.5922	286.4333	356.1609	460.166	500.6034	517.3474	555.7702	556.8528	614.6452	632.3946	710.409	740.4259	798.8155	833.4232	931.6418	990.8936	1032.0625	1051.0531	1063.6748	1174.2474	1203.8038	1243.7491	1267.3765	1336.5316	1414.8417	1463.1989	1479.2642	1482.4412	1514.6332	1614.7831	1676.5138	1779.6554	3032.4006	3085.6817	3141.3472	3192.6358	3234.1535	3603.6235	3806.8122
CC1=CC(O)=CC(=O)N1	Cc1cc(O)cc(=O)[nH]1	
InChI=1S/C6H7NO2/c1-4-2-5(8)3-6(9)7-4/h2-3H,1H3,(H2,7,8,9)	InChI=1S/C6H7NO2/c1-4-2-5(8)3-6(9)7-4/h2-3H,1H3,(H2,7,8,9)
