19
gdb 100381	2.33175	1.11356	0.97557	2.858	78.41	-0.2473	-0.0265	0.2208	1309.1365	0.153626	-422.987606	-422.976813	-422.975869	-423.023935	38.003	
C	-0.3703792116	 1.3197761103	-0.0449910717	-0.251709
O	-0.0643940691	-0.0626154082	-0.013058667	-0.264026
C	 0.6756064481	-0.5454207567	 1.111985169	 0.120003
C	 0.6288210243	-2.0757540319	 0.9801018266	-0.408209
C	 2.1440506144	-0.0360040767	 1.075041048	-0.304165
C	 2.8699592955	-0.3980995582	-0.2053611894	 0.147304
O	 4.0042571734	-0.8021003997	-0.2450633178	-0.245144
C	 0.0578783425	-0.1382273241	 2.3846084161	 0.333521
C	-0.4325573003	 0.1902738453	 3.4318460685	-0.460637
H	 0.5250537781	 1.9484478265	-0.1494679224	 0.105652
H	-1.0005694799	 1.4693534512	-0.924426073	 0.133836
H	-0.9188991947	 1.6351917048	 0.8504723904	 0.127181
H	 1.0616947708	-2.3779501983	 0.0224043589	 0.132641
H	 1.1901713699	-2.5483922082	 1.7892728607	 0.131672
H	-0.4072681832	-2.4170366372	 1.0171617147	 0.137692
H	 2.144430839	 1.0583951525	 1.1590710904	 0.132114
H	 2.7065556472	-0.425065997	 1.9270411166	 0.133894
H	 2.2788867102	-0.2448368506	-1.133273215	 0.095991
H	-0.8705406845	 0.4749127761	 4.3570384863	 0.202389
52.5716	75.1925	96.0722	135.9354	165.7639	207.6014	228.6935	250.7969	289.5348	342.8745	432.6149	444.7209	450.1955	568.8412	597.0354	633.4427	675.0774	703.6215	807.1478	889.2789	923.829	978.0139	1050.1375	1105.6779	1143.8416	1166.3907	1177.8188	1182.2886	1226.6855	1256.239	1312.3041	1408.3416	1419.9803	1447.6717	1473.8676	1478.4083	1492.0018	1496.66	1509.9196	1828.4425	2228.6592	2908.8737	3000.078	3040.7834	3053.4301	3065.4756	3113.2472	3123.6536	3131.1238	3145.0213	3498.0485
COC(C)(CC=O)C#C	CO[C@@](C)(CC=O)C#C	
InChI=1S/C7H10O2/c1-4-7(2,9-3)5-6-8/h1,6H,5H2,2-3H3	InChI=1S/C7H10O2/c1-4-7(2,9-3)5-6-8/h1,6H,5H2,2-3H3/t7-/m1/s1
