21
gdb 96168	2.64443	1.41483	1.00978	1.8002	78.49	-0.24	0.0749	0.3149	1203.2063	0.184234	-424.213842	-424.205626	-424.204682	-424.246203	33.054	
O	-0.1039620268	 1.4677649468	 0.1075630805	-0.441628
C	 0.0040494757	 0.0512276248	-0.0090419691	 0.13875
C	 0.7816699856	-0.5231361634	 1.1850374088	-0.21701
C	 0.9809733409	-2.0412176266	 1.1997936034	-0.083014
O	-0.2398743733	-2.7635288589	 1.3119092172	-0.247071
C	-0.8378645741	-3.021569529	 0.0776075078	 0.119296
C	-2.3312444671	-2.9589672682	 0.0151239982	-0.334868
C	-1.4999364856	-1.8873048609	-0.6660993919	-0.050917
C	-1.4313083876	-0.4814338038	-0.0995385008	-0.218519
H	 0.7797625216	 1.8253779286	 0.2405613462	 0.277049
H	 0.5346408864	-0.2093277486	-0.9420501168	 0.056983
H	 1.77899982	-0.0587866843	 1.2146603201	 0.078835
H	 0.2637225129	-0.2232236595	 2.1040940882	 0.112841
H	 1.5360276186	-2.3699791566	 0.3078208255	 0.088682
H	 1.5770006199	-2.3153331009	 2.0767113401	 0.106032
H	-0.3277592604	-3.7886571727	-0.5074015525	 0.079705
H	-2.8558176269	-3.6888740885	-0.5911545243	 0.111614
H	-2.8394864423	-2.6763389053	 0.9305636024	 0.124384
H	-1.4395418957	-1.9427551837	-1.7500986983	 0.08472
H	-1.8844393746	-0.4407381137	 0.8964301253	 0.105271
H	-2.0046532071	 0.2033597544	-0.7327476101	 0.108864
136.1918	154.3904	264.3604	282.1135	301.7079	307.5577	358.1913	404.5476	453.6887	476.1777	551.5844	623.0675	773.2616	817.7249	834.3544	852.3089	889.6328	931.3944	946.5477	1016.0707	1041.7384	1046.7926	1071.2358	1080.7152	1096.4853	1116.4555	1130.1507	1155.6359	1181.5612	1219.8994	1243.692	1253.7235	1284.3741	1306.363	1328.1434	1352.1331	1374.4253	1400.8792	1410.2379	1424.5863	1437.6576	1470.9919	1480.7027	1494.0817	1499.2029	2940.2045	2988.8452	2999.9999	3046.4378	3061.0548	3072.7373	3082.7135	3087.202	3135.1531	3138.5156	3225.3412	3814.5966
OC1CCOC2CC2C1	O[C@H]1CCO[C@H]2C[C@H]2C1	
InChI=1S/C7H12O2/c8-6-1-2-9-7-4-5(7)3-6/h5-8H,1-4H2	InChI=1S/C7H12O2/c8-6-1-2-9-7-4-5(7)3-6/h5-8H,1-4H2/t5-,6+,7+/m1/s1
