17
gdb 62529	2.49273	1.37169	1.14912	3.9901	74.64	-0.2689	0.0047	0.2736	1129.9328	0.133035	-421.824702	-421.815418	-421.814473	-421.85857	33.985	
C	-0.1296325798	 1.4710841937	-0.133506649	-0.4459
C	-0.0275779866	-0.0436302998	 0.0443827469	 0.063253
C	-1.3805127393	-0.6853122123	 0.3426049908	-0.444987
C	 0.8803749357	-0.7668720209	-1.0106831146	-0.097935
O	 1.8379782984	-1.1104353108	 0.057275173	-0.25711
C	 1.0839297616	-0.4732748849	 1.011330808	 0.46157
O	 1.328464756	-0.3556396934	 2.1683824837	-0.330579
C	 0.3736788779	-1.9277811653	-1.7076068326	 0.344585
C	-0.0580222023	-2.8760962586	-2.3060849806	-0.432153
H	 0.8443647696	 1.9217045869	-0.3476341986	 0.130284
H	-0.8105675756	 1.7158638591	-0.9552120526	 0.128141
H	-0.5185821471	 1.9299191489	 0.7799949808	 0.143039
H	-2.0892568558	-0.4786754863	-0.465396282	 0.127234
H	-1.3006534494	-1.7690045155	 0.4545083831	 0.139641
H	-1.7855283337	-0.2721846589	 1.2707733354	 0.137443
H	 1.3626485396	-0.0756672233	-1.7080888466	 0.122069
H	-0.4315981894	-3.7189449286	-2.8342904852	 0.211405
74.82	139.3102	174.273	199.6902	212.769	221.8832	280.1461	335.1156	340.9792	454.7985	509.4175	614.0195	639.8931	672.5078	684.1512	741.3599	788.7802	838.9093	906.4695	966.7007	994.7012	1026.7712	1063.2723	1110.6158	1184.213	1207.305	1256.589	1298.9078	1362.8646	1403.2984	1424.3158	1481.1294	1483.1528	1502.2402	1504.6847	1936.5094	2240.8568	3036.5061	3044.7308	3067.8926	3107.5133	3114.6129	3118.1609	3129.213	3499.744
CC1(C)C(OC1=O)C#C	CC1(C)[C@@H](OC1=O)C#C	
InChI=1S/C7H8O2/c1-4-5-7(2,3)6(8)9-5/h1,5H,2-3H3	InChI=1S/C7H8O2/c1-4-5-7(2,3)6(8)9-5/h1,5H,2-3H3/t5-/m0/s1
