20
gdb 99112	2.92739	1.03394	0.89106	3.588	76.58	-0.2321	0.0397	0.2718	1382.7694	0.169531	-440.304696	-440.2947	-440.293756	-440.340349	36.333	
C	 1.530854529	 1.6642831315	-1.1549894317	-0.332394
N	 1.3393959557	 0.2332298563	-1.2699422392	-0.303567
C	 0.1045701786	-0.332865533	-1.3378674175	 0.397699
O	-0.9378250444	 0.2980679754	-1.2792414033	-0.383113
C	 0.0937577818	-1.8650864537	-1.4559473443	-0.38421
C	 1.1760443897	-2.4866592494	-2.3185544981	 0.385354
O	 2.492364	-2.3357796005	-1.8164837645	-0.457029
C	 0.8958125303	-3.7432343826	-3.1010029524	-0.320864
C	 1.0929842968	-2.4165374931	-3.8114668974	-0.286317
H	 2.1068133908	 1.9180045488	-0.2576438925	 0.119281
H	 2.0547269007	 2.0705981131	-2.0281873348	 0.12198
H	 0.54429661	 2.1242163587	-1.0870703615	 0.166201
H	 2.1381075325	-0.3792852516	-1.3604245866	 0.255536
H	 0.1517753156	-2.2833640446	-0.4405056787	 0.111369
H	-0.8934701756	-2.1282150913	-1.8414966323	 0.131458
H	 2.5739532327	-2.8916129496	-1.0322612744	 0.286816
H	 1.7026387535	-4.4639939789	-3.1734232317	 0.117542
H	-0.1000619346	-4.1707319323	-3.0611439325	 0.119261
H	 0.2310938589	-1.9300120259	-4.2539517629	 0.128785
H	 2.0255176978	-2.2730771872	-4.3442107235	 0.126213
52.3439	72.3163	84.4422	149.3361	177.0078	271.4162	314.9731	330.7504	357.8215	386.3577	440.1647	490.4671	574.8365	677.5136	701.4024	771.8755	784.4979	863.5236	899.0655	931.2976	937.0987	970.758	1001.5346	1050.6685	1082.7111	1097.1406	1152.2538	1172.9947	1180.2873	1189.0051	1251.6538	1278.4238	1305.556	1338.8097	1391.8962	1437.8507	1452.3362	1458.8338	1497.2634	1501.6046	1502.4381	1585.8325	1777.0556	3012.2271	3023.0989	3071.6699	3113.2033	3134.1042	3143.8456	3151.6873	3220.991	3237.4093	3579.2421	3782.7736
CNC(=O)CC1(O)CC1	CNC(=O)CC1(O)CC1	
InChI=1S/C6H11NO2/c1-7-5(8)4-6(9)2-3-6/h9H,2-4H2,1H3,(H,7,8)	InChI=1S/C6H11NO2/c1-7-5(8)4-6(9)2-3-6/h9H,2-4H2,1H3,(H,7,8)
