21
gdb 41228	3.18771	1.79424	1.67475	0.0614	84.46	-0.2535	0.0913	0.3448	926.6002	0.187496	-349.929719	-349.923507	-349.922563	-349.959687	28.27	
C	-0.0117636908	 1.5169454957	-0.228587377	-0.292744
C	 1.5271697065	 1.4768333625	 0.109722244	-0.334434
C	 1.2283702806	 0.2122206275	 0.9527250852	 0.314343
C	 1.754882389	-1.2195679887	 1.1372982374	-0.321175
C	 0.398010784	-1.787505468	 1.6286462749	-0.053475
C	-0.2875263713	-0.7000651783	 2.4335691891	-0.053519
C	 0.6365547744	 0.5038687916	 2.3620041217	-0.254077
C	-0.7616518221	-0.9632623322	 1.0208358347	-0.122723
C	-0.0282864135	-0.0144281127	 0.0942175628	 0.054042
H	-0.5779052997	 2.1363308513	 0.468762735	 0.109382
H	-0.287166627	 1.7988402891	-1.2470299172	 0.093571
H	 2.1218882072	 1.2625039644	-0.7829523468	 0.10171
H	 1.9616229205	 2.3372571125	 0.6248562954	 0.094324
H	 2.0954924773	-1.6739517042	 0.2016973083	 0.092244
H	 2.5390962065	-1.3379767822	 1.8930586242	 0.089489
H	 0.2696307232	-2.8357894401	 1.8652187062	 0.078782
H	-0.9017962275	-0.9243925321	 3.2962672044	 0.076293
H	 1.4183058386	 0.4937897746	 3.1304346925	 0.089698
H	 0.1068001809	 1.457296341	 2.4302307401	 0.092572
H	-1.7132833622	-1.4363053638	 0.8132206901	 0.075355
H	 0.2426088553	-0.5375841382	-0.8314647448	 0.07034
284.125	293.1766	369.2121	440.9182	477.1771	546.0495	643.7728	662.0588	692.9619	776.5171	793.3445	808.1126	830.099	856.8002	894.9074	902.8027	931.678	941.0078	965.1094	982.1819	994.2526	1025.1665	1061.3494	1063.5713	1079.4942	1090.6414	1100.0653	1125.5715	1156.8116	1170.3768	1196.4268	1226.1052	1244.4142	1247.8894	1260.4693	1271.555	1294.4507	1312.2487	1319.8019	1365.0913	1392.6763	1479.9902	1490.7803	1497.2897	1515.7852	3020.1227	3035.9064	3041.8802	3055.1609	3075.0055	3086.1583	3094.4354	3104.8872	3133.2626	3185.3721	3190.762	3204.0024
C1CC23CC4C(C2)C4C13	C1C[C@@]23C[C@H]4[C@@H](C2)[C@H]4[C@@H]13	
InChI=1S/C9H12/c1-2-9-3-5-6(4-9)8(5)7(1)9/h5-8H,1-4H2	InChI=1S/C9H12/c1-2-9-3-5-6(4-9)8(5)7(1)9/h5-8H,1-4H2/t5-,6+,7-,8-,9+/m1/s1
