19
gdb 113728	3.49849	0.85742	0.75766	4.3062	77.17	-0.2666	0.0093	0.2759	1528.3203	0.158097	-419.1884	-419.178379	-419.177434	-419.224501	35.435	
C	-0.3716242004	 1.559170326	 0.3169917675	-0.385327
C	 0.1974130624	 0.2071491438	-0.1277952509	-0.179477
C	 0.9548899514	-0.4771553519	 0.9883031875	-0.002084
N	 0.1724475293	-1.2299956082	 1.9835983493	-0.329181
C	 1.1296830984	-1.9470970816	 1.1334791969	-0.068597
C	 0.5372012791	-2.9461236192	 0.1512533901	-0.009251
O	 1.2848137155	-3.0549993753	-1.0463369093	-0.40998
C	 0.3855130602	-4.2648614096	 0.8047154027	 0.256326
N	 0.3188213666	-5.2979367254	 1.318264107	-0.317371
H	 0.4252946707	 2.2403666401	 0.6359238194	 0.112897
H	-0.9172983644	 2.0441469731	-0.4974952774	 0.11748
H	-1.0598933322	 1.4298771456	 1.1579551988	 0.13092
H	-0.6199150583	-0.4354215828	-0.4686184034	 0.106272
H	 0.8720305057	 0.3411595577	-0.9820722684	 0.109187
H	 1.7896925421	 0.1101968853	 1.3732650768	 0.088118
H	 0.53825291	-1.1123417972	 2.9235891675	 0.24132
H	 2.0607191112	-2.2869606064	 1.5868152951	 0.094924
H	-0.4577256209	-2.6038751811	-0.1429010752	 0.149054
H	 2.1554188036	-3.4091807929	-0.8315276139	 0.294771
31.7313	73.418	101.3812	154.5013	203.4257	231.2045	247.8228	279.075	331.6291	391.8249	468.9707	511.6328	573.2784	620.8012	760.1966	815.1061	867.0766	897.3916	943.1354	960.7369	989.2967	1041.2121	1066.5925	1079.1853	1110.0513	1154.7619	1195.1705	1240.56	1263.7905	1276.2299	1299.1284	1309.5104	1346.4109	1407.2262	1408.4072	1424.2255	1472.94	1483.0289	1499.055	1508.1315	2354.1059	3034.2995	3039.3028	3078.1345	3094.2342	3097.953	3106.5694	3113.8858	3115.7106	3520.1049	3803.1715
CCC1NC1C(O)C#N	CC[C@H]1N[C@H]1[C@@H](O)C#N	
InChI=1S/C6H10N2O/c1-2-4-6(8-4)5(9)3-7/h4-6,8-9H,2H2,1H3	InChI=1S/C6H10N2O/c1-2-4-6(8-4)5(9)3-7/h4-6,8-9H,2H2,1H3/t4-,5+,6-/m1/s1
