21
gdb 109599	1.87455	1.29576	0.99113	1.5922	86.09	-0.2391	0.0485	0.2876	1328.887	0.179407	-387.042426	-387.031719	-387.030775	-387.077781	39.419	
C	-0.5929181339	 1.2585557707	-1.791604703	-0.419143
C	-0.2733000001	-0.0306825825	-1.0628896849	-0.06015
C	 1.1245596892	-0.5501247813	-0.8407127275	-0.090722
C	 2.3742202698	 0.1658224692	-1.2991319927	-0.082414
O	 3.525395957	-0.2501316221	-0.5783260936	-0.419104
C	 0.2947591862	-0.0614691068	 0.3594576116	 0.087914
C	 0.6415365694	 1.2308247779	 1.0904930374	-0.466349
C	-0.2213042967	-1.0867096338	 1.2299652891	 0.282786
C	-0.6493641162	-1.9327563035	 1.9713731488	-0.455945
H	 0.1345047943	 2.0514325475	-1.6073237283	 0.11969
H	-0.6203093561	 1.0856781865	-2.8730787281	 0.125102
H	-1.5769221312	 1.6355901188	-1.4933190631	 0.125296
H	-1.0075489819	-0.8099949558	-1.2462690375	 0.099232
H	 1.2329180922	-1.6299274523	-0.8901675618	 0.104211
H	 2.5770180215	-0.0891822428	-2.3454722411	 0.114316
H	 2.2548656374	 1.2572894816	-1.2579434658	 0.084232
H	 3.3408639063	-0.1248310995	 0.3581991348	 0.284324
H	 1.0653921234	 1.9870684555	 0.4279974744	 0.119753
H	-0.2533984309	 1.6561046628	 1.5549373555	 0.132882
H	 1.3636949229	 1.0378962587	 1.8907143763	 0.123275
H	-1.0266914725	-2.6832887488	 2.6204777696	 0.190815
84.8373	101.7218	149.6136	157.6546	160.7761	193.6539	237.6325	276.2388	300.1669	331.2216	409.3921	471.5817	521.2116	532.9696	543.693	579.0221	644.2525	669.9548	770.5591	833.656	941.3955	970.4021	995.9577	1027.1221	1055.9238	1071.3289	1101.3858	1128.7637	1148.8081	1168.3273	1218.3957	1266.7098	1297.3689	1346.7964	1383.608	1409.1529	1421.2441	1426.5225	1444.8516	1483.274	1494.0394	1500.4024	1509.1433	1519.2514	2229.4876	3006.5833	3037.7592	3042.6711	3061.6908	3092.5679	3100.008	3123.2973	3135.8679	3145.1976	3155.3773	3503.8714	3816.0299
CC1C(CO)C1(C)C#C	C[C@H]1[C@@H](CO)[C@]1(C)C#C	
InChI=1S/C8H12O/c1-4-8(3)6(2)7(8)5-9/h1,6-7,9H,5H2,2-3H3	InChI=1S/C8H12O/c1-4-8(3)6(2)7(8)5-9/h1,6-7,9H,5H2,2-3H3/t6-,7+,8+/m0/s1
