20
gdb 90047	3.23286	1.39425	1.19028	2.2953	82.23	-0.203	0.0693	0.2722	1131.7898	0.168672	-403.003532	-402.995147	-402.994203	-403.035869	33.257	
C	-0.1173520565	 1.5740700575	 0.0121606731	-0.32062
N	 0.0505118675	 0.1397437612	 0.0750568085	-0.080122
C	-1.1671543846	-0.6978100041	 0.3794893194	-0.268279
C	-0.2205958175	-1.587572903	 1.2025442146	 0.322195
C	 0.4886918594	-2.2895228373	 2.3824076218	-0.345688
C	 1.5660934235	-1.7586534385	 1.3228943076	 0.371314
C	 3.0364554073	-2.0449680106	 1.2634956335	-0.511329
O	 0.711839973	-2.3030619139	 0.2723341003	-0.350987
C	 0.736754637	-0.4163930571	 1.2705347394	-0.043642
H	 0.8587363774	 2.0496912595	-0.1299945289	 0.123865
H	-0.7446082471	 1.8364612197	-0.8464681694	 0.122603
H	-0.582875416	 2.0105717287	 0.9179230278	 0.085015
H	-1.9072854158	-0.1678862735	 0.9979469813	 0.097948
H	-1.6464262755	-1.1526587647	-0.4913737164	 0.123591
H	 0.4271618051	-1.8118620799	 3.3641446307	 0.099153
H	 0.4165088023	-3.3770531295	 2.4247283008	 0.113272
H	 3.219312651	-3.1240811743	 1.2821885419	 0.132221
H	 3.4571281696	-1.6371186798	 0.3396060702	 0.139613
H	 3.5514825953	-1.587954339	 2.113938771	 0.123319
H	 0.7456093648	 0.2355343785	 2.1520615128	 0.066557
149.9511	182.5996	197.4416	212.5075	252.4916	325.5164	365.6192	379.824	480.3711	504.9888	599.7304	648.6026	688.2187	729.0852	774.1233	842.4832	899.71	928.1485	939.781	956.9381	995.9691	1019.7843	1088.4045	1102.1644	1117.7589	1126.5646	1153.1554	1169.6409	1175.2305	1189.6294	1209.3028	1251.4475	1276.17	1312.3224	1364.6921	1405.3372	1449.2071	1474.8836	1476.6861	1482.8923	1486.3804	1493.0989	1499.9926	2909.4686	2992.2126	3031.8139	3038.3063	3054.4816	3060.1054	3096.7008	3098.8072	3112.5906	3117.7104	3147.286
CN1CC23CC(C)(O2)C13	CN1C[C@@]23C[C@@](C)(O2)[C@@H]13	
InChI=1S/C7H11NO/c1-6-3-7(9-6)4-8(2)5(6)7/h5H,3-4H2,1-2H3	InChI=1S/C7H11NO/c1-6-3-7(9-6)4-8(2)5(6)7/h5H,3-4H2,1-2H3/t5-,6-,7-/m1/s1
