23
gdb 91419	2.4566	1.61155	1.25496	1.6215	84.01	-0.2532	0.0661	0.3193	1118.881	0.208337	-388.292166	-388.283799	-388.282855	-388.324486	34.311	
C	 0.100501454	 1.614424713	-0.0489553283	-0.397213
C	 0.0451509752	 0.086282268	-0.0186149924	 0.000834
C	 0.58809226	-0.5563344424	-1.3219144511	-0.220016
C	 1.0110472053	-2.0176659148	-1.0962032854	-0.002195
C	 0.1602563305	-2.6782753315	 0.0304070114	-0.241424
C	 1.1224802936	-1.9728477497	 1.0312065052	-0.033161
C	 2.194362191	-2.0437458837	-0.0955798432	-0.229351
C	 0.6969351983	-0.5145308568	 1.2662283607	 0.128298
O	 1.7719680198	 0.2561785228	 1.7945282253	-0.43309
H	 1.1332571849	 1.9726648718	-0.0829882002	 0.111736
H	-0.4248270298	 2.0016486512	-0.9286826398	 0.103046
H	-0.363714789	 2.0481528583	 0.8423432471	 0.113825
H	-1.0126889662	-0.197053316	 0.0441580581	 0.078068
H	-0.1842765811	-0.4907511483	-2.0974103665	 0.09301
H	 1.4506541666	 0.0077817434	-1.702770884	 0.089157
H	 1.1267028038	-2.557706576	-2.03916368	 0.058816
H	-0.9097602178	-2.4605937039	 0.0852223463	 0.093157
H	 0.3013140647	-3.7622354431	 0.0483533561	 0.095954
H	 1.3490683844	-2.4657277941	 1.9792665657	 0.06569
H	 2.7148226896	-3.0048580662	-0.0866525358	 0.097785
H	 2.945143592	-1.2480595097	-0.1811933582	 0.072127
H	-0.0568076641	-0.4845602893	 2.0622298218	 0.078529
H	 2.5454710141	 0.112279017	 1.2398050073	 0.276416
102.6781	225.0639	228.8845	269.5872	272.5104	338.6228	364.2677	393.9203	435.033	508.346	528.0996	640.0346	727.1229	814.5572	827.2529	854.4469	885.2866	908.6536	930.5128	940.8865	979.005	990.3479	1024.4842	1051.8615	1069.6668	1092.7634	1105.8459	1114.87	1130.8842	1154.8806	1205.583	1219.6202	1243.7679	1261.812	1274.6255	1290.8912	1319.8868	1331.7469	1344.7016	1357.0276	1368.4755	1391.2617	1414.2511	1433.764	1484.828	1491.2919	1495.0887	1497.5459	1515.0512	3008.3782	3014.35	3020.3492	3034.0919	3036.6985	3053.3149	3054.4004	3072.5868	3079.7882	3094.236	3100.1598	3106.0858	3112.8537	3810.5955
CC1CC2CC(C2)C1O	C[C@H]1C[C@@H]2C[C@@H](C2)[C@H]1O	
InChI=1S/C8H14O/c1-5-2-6-3-7(4-6)8(5)9/h5-9H,2-4H2,1H3	InChI=1S/C8H14O/c1-5-2-6-3-7(4-6)8(5)9/h5-9H,2-4H2,1H3/t5-,6-,7+,8-/m0/s1
