13
gdb 28181	5.38431	1.31838	1.06517	2.1089	66.	-0.2136	0.0016	0.2152	1032.2947	0.091472	-452.759878	-452.753091	-452.752147	-452.791181	25.767	
N	-0.0232871894	 1.3487925363	 0.0145728078	-0.591582
C	-0.1139446977	-0.0330541569	 0.0146534243	 0.301924
C	-1.189396579	-0.8694511632	 0.0993594209	-0.343626
C	-0.6547490232	-2.2020267486	 0.0477080488	 0.200408
C	 0.6840642621	-2.0340389142	-0.0624910502	 0.396476
O	 1.331095829	-3.2083176856	-0.1225218858	-0.210677
C	 0.2620278712	-4.100299126	-0.038308881	 0.031211
N	-0.9143945689	-3.5714408454	 0.0618447993	-0.333532
O	 1.1076242343	-0.7772567028	-0.09083397	-0.238221
H	 0.5053241077	 1.7154206089	 0.7994459448	 0.252101
H	 0.3680837887	 1.7243522015	-0.8431340072	 0.252104
H	-2.2104253381	-0.535409042	 0.1859449314	 0.12874
H	 0.5352509235	-5.1421319421	-0.0665064632	 0.154674
112.6406	148.5238	297.3137	321.0434	366.57	525.6764	573.2421	606.8622	632.1299	743.7517	747.8079	769.2964	785.4994	815.7661	840.069	855.5176	936.1077	1027.4208	1130.161	1171.8608	1192.8868	1209.4945	1305.3737	1435.9238	1511.2334	1526.6442	1600.9884	1653.0565	1677.5994	3273.6293	3291.7363	3499.1858	3566.3734
NC1=CC2=C(OC=N2)O1	Nc1cc2c(ocn2)o1	
InChI=1S/C5H4N2O2/c6-4-1-3-5(9-4)8-2-7-3/h1-2H,6H2	InChI=1S/C5H4N2O2/c6-4-1-3-5(9-4)8-2-7-3/h1-2H,6H2
