17
gdb 84476	4.04695	1.19211	1.02935	3.0104	74.9	-0.2581	-0.0402	0.2179	1164.8953	0.134754	-421.826094	-421.81799	-421.817045	-421.858772	30.528	
C	-0.0281896182	 1.604439617	 0.0933688236	-0.395896
C	 0.021936121	 0.0715969584	-0.0074053664	-0.068282
C	 0.7755742418	-0.4425597603	-1.222320281	-0.08077
C	 1.7512902499	-1.2963506561	-0.9083687676	-0.152245
C	 1.8395943704	-1.4491836467	 0.57243478	 0.290634
O	 2.1352143188	-0.2087290144	 1.2776489241	-0.284223
C	 0.7753799465	-0.5845128137	 1.1536994088	-0.036109
C	 2.3356369544	-2.6715676	 1.2513425427	 0.08039
O	 2.5913817513	-3.7000527816	 0.6764231723	-0.254192
H	 0.9832391762	 2.0090922349	 0.1812345568	 0.141704
H	-0.4987300422	 2.0362144091	-0.7950563157	 0.120229
H	-0.6054910993	 1.9221672067	 0.9670707864	 0.120647
H	-1.0066164922	-0.3157538581	-0.0182095344	 0.094596
H	 0.5403785481	-0.0995393415	-2.2241475864	 0.108636
H	 2.4162397307	-1.810811197	-1.5884521274	 0.123313
H	 0.2674117504	-0.8146918827	 2.0877834954	 0.105462
H	 2.4572151725	-2.552557884	 2.3498591586	 0.086106
89.9461	154.7109	173.4798	225.6301	267.9867	279.7291	408.3543	458.7848	517.8141	583.0651	666.0197	745.8281	749.624	818.9609	843.3248	852.1931	925.6455	949.7369	968.8116	1026.9501	1032.7387	1054.3184	1099.2695	1121.6144	1140.5536	1260.8787	1273.0892	1309.8026	1324.7222	1358.1341	1390.4818	1407.857	1430.4727	1494.5622	1503.3751	1665.0444	1817.7788	2904.2605	3010.9299	3041.4041	3108.7245	3127.539	3138.2205	3191.4775	3236.3784
CC1C=CC2(OC12)C=O	C[C@H]1C=C[C@]2(O[C@@H]12)C=O	
InChI=1S/C7H8O2/c1-5-2-3-7(4-8)6(5)9-7/h2-6H,1H3	InChI=1S/C7H8O2/c1-5-2-3-7(4-8)6(5)9-7/h2-6H,1H3/t5-,6-,7-/m0/s1
