20
gdb 41412	3.20105	1.87695	1.50197	1.778	80.77	-0.216	0.083	0.2991	939.9096	0.174383	-365.959558	-365.952951	-365.952007	-365.990051	28.434	
C	-0.0284491742	 1.4934758978	-0.0616507179	-0.23537
C	 1.5356328827	 1.5768067612	-0.0445201577	-0.344191
C	 1.5808408165	 0.0535340903	-0.2329328384	 0.343655
C	 2.4491314551	-1.0289025994	 0.3851154472	-0.310782
C	 1.6483878502	-2.3028972315	-0.0327850661	-0.242545
C	 0.8394010844	-1.8667089163	-1.2642650348	-0.013824
C	 1.1707738485	-0.4818675362	-1.6290376188	-0.102054
N	-0.2338798652	-0.8109704665	-1.1712995915	-0.157064
C	 0.0594617185	-0.0549236711	 0.0786202193	 0.002628
H	-0.5340097849	 2.0092835477	 0.7567347159	 0.101618
H	-0.4859313925	 1.7983687408	-1.0054709804	 0.114932
H	 2.0228336241	 2.1942378832	-0.8045135089	 0.096279
H	 1.9129860942	 1.8783873954	 0.937437857	 0.10258
H	 3.460164143	-1.0416421901	-0.0406434666	 0.096788
H	 2.5432408366	-0.9304739029	 1.4717493326	 0.09532
H	 2.3055817352	-3.1361744236	-0.297615639	 0.102985
H	 0.9999931414	-2.6551249545	 0.776359764	 0.109107
H	 0.6011929952	-2.5978121365	-2.0283406389	 0.095555
H	 1.4042938898	-0.0869024246	-2.6111977104	 0.085324
H	-0.3450597486	-0.4845697531	 0.9998467031	 0.059058
199.6087	222.6947	303.0297	362.535	423.7994	496.8677	656.5848	668.686	703.5325	722.2461	779.2635	794.0535	850.8052	857.1544	885.4621	903.6942	914.5581	935.8864	954.2079	997.6525	1027.0711	1036.1224	1061.0523	1101.8389	1121.6018	1150.1725	1171.3492	1194.4747	1203.2559	1222.1375	1227.9819	1255.8143	1260.0748	1282.1162	1297.3722	1309.3475	1316.1549	1347.5082	1382.7254	1470.8021	1481.6141	1493.4753	1497.6762	3025.0557	3047.284	3048.1365	3060.2903	3072.8571	3074.1953	3092.8539	3094.475	3129.5051	3171.678	3185.0722
C1CC23CCC4C2N4C13	C1C[C@]23CC[C@@H]4[C@H]2N4[C@H]13	
InChI=1S/C8H11N/c1-3-8-4-2-6(8)9-5(1)7(8)9/h5-7H,1-4H2	InChI=1S/C8H11N/c1-3-8-4-2-6(8)9-5(1)7(8)9/h5-7H,1-4H2/t5-,6-,7-,8+,9?/m1/s1
