18
gdb 14430	4.02027	2.17778	1.74421	1.1013	78.92	-0.2043	-0.0273	0.177	810.2867	0.154345	-310.572017	-310.565318	-310.564374	-310.602236	27.473	
C	-0.0286987222	 1.4572275115	-0.0690470621	-0.484366
C	-0.0037265405	-0.0506772087	-0.0383918124	 0.321501
C	 0.5567289081	-0.8976177971	-1.2504874607	-0.30597
C	-0.243057904	-2.0133375371	-0.570349553	 0.051871
C	 0.4298030339	-2.7743267382	 0.3163066973	-0.101482
C	 0.2591197632	-2.1932285941	 1.7164453739	-0.262686
C	-0.2951203369	-0.8064756547	 1.334182439	-0.085829
C	-1.1584434608	-0.9971777762	 0.138171284	-0.146494
H	 0.967916626	 1.878391356	 0.1068276822	 0.120555
H	-0.3753151147	 1.8212098841	-1.0435136505	 0.117101
H	-0.7003177313	 1.8623855046	 0.6945756735	 0.119892
H	 0.1424839554	-0.4790137139	-2.1766600162	 0.098351
H	 1.6348245939	-1.0531518734	-1.3595075302	 0.095613
H	 1.352200922	-3.2847862797	 0.0519523442	 0.092569
H	-0.4306041958	-2.703089199	 2.4054514263	 0.105998
H	 1.2402766872	-2.1759028053	 2.207051895	 0.106305
H	-0.5976801385	-0.1167338752	 2.1206166311	 0.073537
H	-2.222980735	-0.8446954635	 0.0106423088	 0.083534
196.1988	225.6535	280.1923	303.0816	394.928	430.242	555.5938	627.9802	681.8719	734.6846	792.399	850.6911	854.3568	881.1928	915.1928	921.416	967.5327	996.6023	1012.2708	1017.3059	1034.2504	1056.0776	1088.5365	1137.4193	1160.9561	1193.0434	1202.2988	1232.6437	1254.2654	1291.4907	1299.8403	1394.7899	1412.1167	1475.0166	1485.5559	1495.6295	1503.6567	1593.4346	2991.9008	3013.0454	3021.9628	3045.8015	3078.868	3080.9066	3097.1469	3125.9254	3158.2228	3185.3158
CC12CC3=CCC1C23	C[C@@]12C[C]3[CH]C[C@@H]1[C@@H]23	
InChI=1S/C8H10/c1-8-4-5-2-3-6(8)7(5)8/h2,6-7H,3-4H2,1H3	InChI=1S/C8H10/c1-8-4-5-2-3-6(8)7(5)8/h2,6-7H,3-4H2,1H3/t6-,7+,8-/m1/s1
