17
gdb 11130	6.59358	0.98988	0.92624	4.2563	67.33	-0.239	0.0278	0.2668	1224.0619	0.141864	-400.999723	-400.991159	-400.990215	-401.034337	29.27	
O	 0.0734872606	 1.2478444297	-0.410248776	-0.420705
C	 0.005661351	-0.1202215046	-0.0424606634	-0.089538
C	-1.4520602862	-0.4523999331	 0.2035280531	 0.008331
C	-2.3515487877	-0.4604910579	-1.0699123739	-0.187421
N	-2.5587844807	-1.8956244333	-0.8527270722	-0.033492
C	-1.7711225963	-1.9678714796	 0.3761136415	-0.198072
C	-3.2870062332	-2.8457958306	-1.4739255679	 0.129556
O	-3.3723591367	-3.9999226301	-1.1033533327	-0.334169
H	 0.9883370864	 1.465441664	-0.6113605251	 0.29186
H	 0.4008862686	-0.7715592813	-0.8397014338	 0.092522
H	 0.5901944968	-0.3252974694	 0.8690005749	 0.094384
H	-1.8418151349	 0.1794033528	 1.0032529715	 0.095993
H	-3.2649409712	 0.1395841935	-1.0000445863	 0.118232
H	-1.8302576074	-0.2085783626	-1.9996608688	 0.121961
H	-0.9120610412	-2.6457209152	 0.3119733324	 0.120166
H	-2.359871984	-2.2342403169	 1.2595680886	 0.124411
H	-3.8015142538	-2.4496489055	-2.3744226419	 0.065982
25.0834	81.2235	108.4025	186.9748	227.6753	266.8963	320.8263	373.2299	461.6846	544.6693	777.1095	823.4262	889.2512	915.262	946.412	1014.6646	1035.0796	1075.1908	1089.3477	1135.4453	1148.4174	1179.8793	1190.6642	1232.3905	1277.1864	1279.502	1286.4879	1321.5167	1368.5543	1400.8487	1449.1294	1466.9689	1506.9306	1519.24	1528.8593	1790.4948	2915.6272	2960.9178	2991.3249	3030.7444	3036.9018	3075.9128	3078.3331	3105.0096	3831.438
OCC1CN(C1)C=O	OCC1CN(C1)C=O	
InChI=1S/C5H9NO2/c7-3-5-1-6(2-5)4-8/h4-5,7H,1-3H2	InChI=1S/C5H9NO2/c7-3-5-1-6(2-5)4-8/h4-5,7H,1-3H2
