19
gdb 95283	2.10833	1.92686	1.41526	1.8117	70.2	-0.243	0.0511	0.294	1004.8509	0.158948	-460.144096	-460.135639	-460.134695	-460.176816	32.329	
C	-0.1785514207	 1.4966048281	-0.1205105428	-0.474521
C	 0.0403449576	 0.0072128861	 0.0256280502	 0.392959
O	-1.1733964192	-0.6752710641	 0.448701146	-0.322823
C	-0.5534979958	-1.1364383462	 1.6682019068	-0.110733
C	 0.8175515847	-0.5875688053	 1.231489901	 0.024762
O	 1.7330989424	-1.5479952619	 0.7344399406	-0.266007
C	 1.273613767	-1.9577921547	-0.5515403242	-0.14377
C	 0.6870976987	-0.6831186402	-1.1847028988	 0.0765
O	-0.2652594782	-0.8951830628	-2.2018329571	-0.428509
H	 0.7653151561	 2.01338292	-0.3238772452	 0.115542
H	-0.8625600058	 1.6852133136	-0.9538286939	 0.143042
H	-0.620080437	 1.9166591949	 0.7874088807	 0.120502
H	-0.9879771211	-0.6554026044	 2.553919524	 0.100403
H	-0.6012045335	-2.2252670667	 1.7840115275	 0.108258
H	 1.3479672826	 0.0681050289	 1.9232279811	 0.088168
H	 2.1276623234	-2.3765501744	-1.090401293	 0.102886
H	 0.4821249727	-2.7179604061	-0.4859441036	 0.112523
H	 1.5121095252	-0.0416335403	-1.5325487429	 0.071156
H	 0.1970149011	-1.1855828943	-2.9935488365	 0.289661
98.235	197.6109	205.6118	220.6988	235.8643	256.8393	314.8093	392.9286	442.4062	543.1979	570.6002	639.4288	671.6069	827.7099	867.0214	899.1773	918.6941	990.0011	1002.7835	1021.2888	1050.8433	1073.3419	1096.4395	1136.1664	1139.2191	1167.3647	1187.9675	1220.853	1240.0251	1244.5371	1276.8755	1321.5336	1336.9448	1365.4927	1376.0939	1406.7849	1440.5075	1482.2145	1493.0875	1510.2196	1519.8899	2979.0281	3010.7802	3014.2405	3036.9105	3067.3431	3095.7738	3107.1134	3109.3751	3117.1391	3829.5975
CC12OCC1OCC2O	C[C@]12OC[C@H]1OC[C@H]2O	
InChI=1S/C6H10O3/c1-6-4(7)2-8-5(6)3-9-6/h4-5,7H,2-3H2,1H3	InChI=1S/C6H10O3/c1-6-4(7)2-8-5(6)3-9-6/h4-5,7H,2-3H2,1H3/t4-,5-,6-/m1/s1
