16
gdb 43310	2.94954	1.82383	1.43305	4.3499	73.49	-0.2212	-0.0405	0.1807	915.2177	0.126534	-400.725248	-400.718665	-400.717721	-400.756203	26.561	
O	-0.0050479586	-0.0313299101	 0.046908945	-0.341791
C	-0.0301293639	 1.1772581661	 0.0345028891	 0.398166
C	-1.2349133183	 2.0496846172	 0.0320532565	-0.167302
C	-0.9030931461	 3.3487939627	 0.040797107	-0.051177
C	 0.5829047617	 3.5562075352	 0.0382202346	-0.089236
C	 1.3151877318	 3.7918298118	 1.3961615549	-0.065357
N	 0.8364446899	 2.7548344091	 2.3347956365	-0.326601
C	 1.890235396	 2.4224956319	 1.3509378945	-0.047112
C	 1.1799119623	 2.1190958642	 0.0108786632	-0.160105
H	-2.2363873386	 1.6372301919	 0.04990502	 0.113704
H	-1.6112960406	 4.1705988376	 0.0757923793	 0.112543
H	 0.941196283	 4.2333281764	-0.7406289409	 0.088999
H	 1.7374066782	 4.7225613061	 1.7532475417	 0.09859
H	 1.2978234865	 2.9201331164	 3.2282237383	 0.235133
H	 2.8574598165	 2.0547727165	 1.6671697405	 0.102148
H	 1.8654161601	 1.8957040572	-0.8071267601	 0.099398
111.3171	207.3976	262.1331	371.7702	502.1771	514.9786	591.6151	703.914	721.1969	735.757	799.5739	815.7617	835.4518	857.3939	918.5215	932.3449	967.1866	979.4093	997.4287	1019.9005	1034.8453	1086.8412	1101.1931	1116.3516	1168.9129	1182.3635	1208.9223	1224.3963	1284.4281	1299.9145	1316.9104	1360.4007	1380.1771	1635.3802	1813.9578	3084.8495	3115.807	3180.8226	3190.1388	3206.184	3218.7187	3485.1061
O=C1C=CC2C3NC3C12	O=C1C=C[C@H]2[C@H]3N[C@H]3[C@@H]12	
InChI=1S/C7H7NO/c9-4-2-1-3-5(4)7-6(3)8-7/h1-3,5-8H	InChI=1S/C7H7NO/c9-4-2-1-3-5(4)7-6(3)8-7/h1-3,5-8H/t3-,5-,6-,7+/m1/s1
