18
gdb 7173	6.77141	0.79679	0.74647	0.8258	70.45	-0.2566	0.0463	0.3029	1479.2919	0.150422	-384.896658	-384.886766	-384.885822	-384.931725	34.831	
O	-0.1120077213	 1.4791856048	 0.0581515759	-0.423607
C	 0.0212682527	 0.0650920328	 0.0477360717	-0.081684
C	-1.3795988349	-0.529698196	-0.0190704092	-0.184122
C	-1.376698317	-2.061736162	-0.0086918189	 0.121935
O	-0.715570904	-2.5838241113	 1.135261804	-0.420566
C	-2.811674935	-2.6201104621	-0.142357578	-0.390985
C	-2.8673943948	-4.0743842075	-0.202645283	 0.311737
C	-2.9088844206	-5.2735799877	-0.2647078615	-0.434899
H	 0.7658370087	 1.8611170544	 0.1474003419	 0.286158
H	 0.6077699391	-0.2747885409	-0.8219113939	 0.085215
H	 0.5312403604	-0.3028351804	 0.9485664863	 0.100076
H	-1.9626347291	-0.1546642626	 0.8336931497	 0.096083
H	-1.8786097422	-0.163733092	-0.9242423299	 0.106935
H	-0.7863953139	-2.4316771235	-0.8555239537	 0.101345
H	-1.2314676374	-2.3425313093	 1.9132445695	 0.27928
H	-3.4097411148	-2.2584614547	 0.706996497	 0.119753
H	-3.2764400732	-2.1933921045	-1.0402763619	 0.133273
H	-2.9435670926	-6.3334778376	-0.314559726	 0.194074
56.1576	86.9638	107.8895	122.4799	198.9201	264.7582	282.563	314.228	346.4714	380.8262	395.7366	477.8647	607.1706	618.4324	638.7817	800.007	863.3744	940.9453	945.1561	1020.139	1043.8107	1077.0381	1102.5929	1116.718	1191.5449	1211.535	1235.7025	1290.7466	1301.1892	1341.8344	1355.1382	1378.0184	1422.1803	1460.4177	1464.4588	1486.4677	1531.1718	2242.0606	2965.8661	3002.4266	3015.6383	3023.0013	3042.1919	3051.3416	3073.9035	3507.8754	3792.74	3830.9381
OCCC(O)CC#C	OCC[C@@H](O)CC#C	
InChI=1S/C6H10O2/c1-2-3-6(8)4-5-7/h1,6-8H,3-5H2	InChI=1S/C6H10O2/c1-2-3-6(8)4-5-7/h1,6-8H,3-5H2/t6-/m0/s1
