19
gdb 39155	2.87005	2.06296	1.48808	1.3075	79.91	-0.2306	0.0102	0.2407	922.9008	0.162951	-385.883806	-385.877358	-385.876414	-385.914287	27.374	
C	 0.078880995	 1.5558024093	 0.1985132751	-0.229214
C	 1.5740269272	 1.9899219406	-0.0298358628	-0.297267
C	 2.2516418754	 0.7046567199	 0.3472734663	 0.226311
C	 2.852659454	 0.3362575701	 1.480960578	-0.149961
C	 2.5425742407	-1.1087071846	 1.8356698726	-0.27136
C	 1.3635789328	-1.411428736	 0.8925281516	 0.125246
O	 0.115786989	-0.756395733	 1.2827914786	-0.327732
C	 0.0551929211	 0.010209516	 0.0374275359	 0.141295
C	 1.4841969245	-0.440968804	-0.2853552543	-0.161058
H	-0.2455334927	 1.8115952525	 1.2107088101	 0.121644
H	-0.60005602	 2.0425521989	-0.5080075864	 0.097806
H	 1.7279910102	 2.2609952634	-1.0812355213	 0.101865
H	 1.8685368635	 2.8418370277	 0.58669037	 0.106533
H	 3.3316219635	 1.0167630243	 2.1770524989	 0.089769
H	 3.3714495733	-1.8122640989	 1.6739134786	 0.101465
H	 2.2441496821	-1.2025903149	 2.8867714084	 0.116068
H	 1.1975716592	-2.4752090147	 0.6942433835	 0.06665
H	-0.7689110562	-0.3489477582	-0.5879878999	 0.069075
H	 1.7811699775	-0.7515491485	-1.2884750628	 0.072866
162.638	270.2785	330.8308	367.1687	379.5475	571.4321	639.8952	650.3489	743.9652	807.5638	816.0324	838.7877	850.0762	869.8694	886.6571	914.0516	938.847	950.5476	965.1245	984.9868	1023.7947	1035.1001	1053.9519	1123.4262	1138.8523	1176.1724	1204.044	1229.5274	1231.6953	1256.1566	1272.5216	1285.622	1306.8396	1321.552	1326.4282	1337.9474	1371.5554	1465.9492	1468.6977	1494.8584	1706.1303	3008.4604	3031.7716	3042.267	3055.908	3059.8382	3060.5353	3094.7513	3102.4483	3115.8033	3185.9323
C1CC2=CCC3OC1C23	C1C[C]2[CH]C[C@H]3O[C@@H]1[C@@H]23	
InChI=1S/C8H10O/c1-3-6-8-5(1)2-4-7(8)9-6/h1,6-8H,2-4H2	InChI=1S/C8H10O/c1-3-6-8-5(1)2-4-7(8)9-6/h1,6-8H,2-4H2/t6-,7+,8+/m1/s1
