19
gdb 92585	2.69268	1.65504	1.40286	2.0991	76.5	-0.2388	0.0126	0.2514	1001.5054	0.161072	-423.015092	-423.007568	-423.006624	-423.046854	30.38	
O	 0.2789592252	 1.3807576569	-0.1286000387	-0.428848
C	 0.1230737653	-0.00944289	-0.0112614771	 0.122362
C	 0.2205662067	-0.5530286404	 1.4465905621	-0.273317
C	-1.3183539004	-0.5403084658	 1.5225501917	 0.087159
O	-1.7283913314	 0.7200157338	 2.0467205316	-0.275131
C	-3.0551522562	 1.0710275048	 1.6749814362	-0.130164
C	-3.2651803167	 1.0297546622	 0.1832746533	-0.087191
C	-2.4617899347	 0.3206367829	-0.6081323304	-0.060589
C	-1.3750259014	-0.5195742433	-0.0267598556	-0.091012
H	-0.3050701329	 1.7815358763	 0.5280543559	 0.282089
H	 0.7882698385	-0.4576348236	-0.7525695048	 0.082409
H	 0.6218677758	-1.5691600603	 1.4881575601	 0.102926
H	 0.7429246898	 0.0801652284	 2.1669149328	 0.111723
H	-1.832420674	-1.3567391874	 2.0476689443	 0.062531
H	-3.7819497182	 0.4194353451	 2.1914148382	 0.104743
H	-3.2123820475	 2.0853704906	 2.0577809239	 0.118422
H	-4.0909919127	 1.6118216469	-0.2158134617	 0.096156
H	-2.5883430957	 0.3328156272	-1.6872837716	 0.095419
H	-1.4031681496	-1.5388561041	-0.4280871804	 0.080312
103.1605	172.7853	231.6603	340.8683	377.1519	399.479	455.1478	481.0475	527.3435	559.5205	703.0586	761.182	814.4947	820.8214	865.7068	920.5364	922.4201	930.0624	984.3859	996.7916	1022.2094	1053.7546	1063.3468	1089.4879	1130.5504	1142.2396	1183.2923	1203.7252	1227.159	1253.9819	1267.2325	1288.4184	1321.5585	1346.9854	1356.5795	1398.6477	1413.0555	1449.5901	1462.9104	1490.2725	1713.0692	2952.6741	3007.2575	3045.7049	3062.3627	3065.1294	3088.8433	3127.9391	3155.7436	3178.9147	3772.0578
OC1CC2OCC=CC12	O[C@H]1C[C@H]2OCC=C[C@@H]12	
InChI=1S/C7H10O2/c8-6-4-7-5(6)2-1-3-9-7/h1-2,5-8H,3-4H2	InChI=1S/C7H10O2/c8-6-4-7-5(6)2-1-3-9-7/h1-2,5-8H,3-4H2/t5-,6-,7+/m0/s1
