21
gdb 108863	2.26791	1.43117	0.93354	1.3746	81.85	-0.2038	0.0616	0.2654	1317.1776	0.182613	-420.428152	-420.418321	-420.417377	-420.462884	35.273	
C	-0.1062965544	 1.3310120962	-0.0156848743	-0.23201
O	 0.1041857392	-0.0826706639	-0.042426941	-0.267569
C	 0.6884939537	-0.5890504601	 1.0472681375	 0.492588
N	 1.0431465466	 0.0707552215	 2.0841228973	-0.398795
C	 1.6588203433	-0.9151627587	 2.9911442757	 0.054006
C	 1.2043271707	-0.7290903716	 4.434587075	-0.383801
C	 1.2929888593	-2.3018910551	 2.3874539184	-0.192883
N	 0.9535559658	-1.9492817215	 1.0097112547	-0.133071
C	 0.1861488339	-2.8691926183	 0.197362126	-0.337057
H	 0.8459389341	 1.8596526329	 0.0778788115	 0.140474
H	-0.5913387018	 1.5763569738	-0.9612349923	 0.126157
H	-0.7432857563	 1.6085940616	 0.8282316208	 0.140101
H	 2.7502408157	-0.7822172743	 2.9493585983	 0.077189
H	 0.1177224736	-0.8396894834	 4.5122299668	 0.112127
H	 1.675607114	-1.4665613043	 5.0939431877	 0.105101
H	 1.4688462004	 0.2703347317	 4.7904695309	 0.124095
H	 2.111210662	-3.0273215957	 2.4285403332	 0.10619
H	 0.420256108	-2.7429664228	 2.9003362737	 0.086679
H	-0.7650269337	-3.159106441	 0.6743396593	 0.107925
H	-0.0332980462	-2.4055964982	-0.7648683944	 0.148569
H	 0.767177522	-3.7797305988	 0.0198874351	 0.123986
93.8874	112.7703	136.7584	157.293	187.6306	210.9658	238.3314	264.7788	294.2387	362.0732	471.7049	536.6645	597.303	657.8999	739.553	821.3978	867.7881	937.7157	949.8323	1014.2726	1068.9197	1106.668	1133.3573	1137.3999	1165.4959	1184.346	1208.9751	1217.3672	1253.2851	1270.8092	1303.3816	1334.6852	1380.1396	1404.2538	1424.2175	1456.6406	1476.0606	1485.6574	1487.5823	1491.7154	1498.0251	1504.1632	1510.6665	1542.8874	1700.9704	2947.1439	2968.2803	2983.4058	3031.721	3048.2278	3068.9574	3071.0778	3100.6302	3117.1918	3122.7746	3146.3575	3151.6016
COC1=NC(C)CN1C	CO[C]1[N][C@@H](C)CN1C	
InChI=1S/C6H12N2O/c1-5-4-8(2)6(7-5)9-3/h5H,4H2,1-3H3	InChI=1S/C6H12N2O/c1-5-4-8(2)6(7-5)9-3/h5H,4H2,1-3H3/t5-/m0/s1
