18
gdb 80539	2.57165	1.56853	1.30355	1.9048	72.42	-0.2444	-0.0111	0.2334	1034.5878	0.148159	-439.064368	-439.056423	-439.055479	-439.096592	31.061	
C	 0.079753547	 1.3729134352	-0.2126446481	-0.342957
N	 0.0256510478	-0.0724199643	 0.0173614858	-0.120145
C	-1.2485358264	-0.5693579561	 0.6753555696	-0.117808
C	-0.99211118	-2.0817291187	 0.7089274832	-0.268978
C	 0.537073581	-2.070689304	 1.076143758	 0.158087
O	 1.3634379966	-2.5636712245	 0.0495745881	-0.439061
C	 0.7180443872	-0.5533822208	 1.2814080927	-0.156727
C	-0.57797252	-0.0995126926	 1.9890592822	 0.416099
O	-0.865647176	 0.5915811936	 2.9194902351	-0.321181
H	 1.0971177219	 1.6442204292	-0.5077653669	 0.131891
H	-0.590334884	 1.6211892394	-1.0406166758	 0.130912
H	-0.2035361004	 1.9822287675	 0.6597217198	 0.129894
H	-2.1977067899	-0.1824538745	 0.3082799866	 0.093456
H	-1.6120787169	-2.5927673314	 1.4500474934	 0.115885
H	-1.1392862419	-2.5538305712	-0.2651180967	 0.11671
H	 0.769202717	-2.6488068626	 1.9724276977	 0.097678
H	 1.2251922447	-1.9649994989	-0.6976189942	 0.280555
H	 1.7111794523	-0.1706114352	 1.5082850594	 0.095689
123.7891	145.4992	216.577	240.8638	300.0448	336.0904	453.0601	465.9967	513.7677	526.3283	633.9556	676.7851	729.0309	812.4967	818.5309	844.1115	940.2722	955.4862	988.3217	1025.6951	1044.7949	1071.0614	1117.8071	1119.9727	1158.7074	1176.7253	1184.1844	1219.2818	1238.2504	1252.0438	1296.5836	1299.8006	1322.7303	1442.4865	1457.2577	1481.6188	1496.519	1502.9398	1888.0649	2986.7903	3067.218	3081.3647	3100.4122	3116.6429	3122.6518	3141.8227	3151.9579	3748.0412
CN1C2CC(O)C1C2=O	CN1[C@H]2C[C@@H](O)[C@@H]1C2=O	
InChI=1S/C6H9NO2/c1-7-3-2-4(8)5(7)6(3)9/h3-5,8H,2H2,1H3	InChI=1S/C6H9NO2/c1-7-3-2-4(8)5(7)6(3)9/h3-5,8H,2H2,1H3/t3-,4+,5+/m0/s1
