21
gdb 106275	2.69932	1.24384	1.01203	1.4442	79.48	-0.2514	0.0734	0.3248	1248.4889	0.181119	-424.17471	-424.16515	-424.164206	-424.208728	36.393	
C	-0.1393609205	 1.5771147484	-0.0381787555	-0.447485
C	 0.033468456	 0.0663699185	 0.009843214	-0.036328
C	 1.2055437655	-0.6475630667	-0.7171217922	 0.380166
O	 1.3748142673	-0.5890317725	-2.0889186979	-0.473961
C	 2.1739899991	-0.1565017446	 0.4041152721	-0.336831
C	 0.8799935275	-0.6523982005	 1.1193377839	 0.3532
C	 0.6154264819	-0.6574841019	 2.595038619	-0.220577
O	 1.6300045087	-1.4296271787	 3.2241011258	-0.421042
C	 0.9170889363	-1.8926507027	 0.17693756	-0.322454
H	 0.7819329471	 2.1290162411	 0.1625502294	 0.117916
H	-0.4954076341	 1.8803544089	-1.0284304085	 0.128152
H	-0.8877389481	 1.9033510386	 0.6925257787	 0.112151
H	-0.9325998639	-0.4223464903	-0.1671842807	 0.061473
H	 2.169553547	-1.0820734659	-2.3193432836	 0.281332
H	 3.0687028486	-0.7601152209	 0.5763324325	 0.09358
H	 2.403653996	 0.9087315883	 0.4491699087	 0.090884
H	 0.6113938473	 0.3782694786	 2.9725805303	 0.08765
H	-0.3849710161	-1.0798639683	 2.7862518784	 0.086381
H	 1.4664478226	-1.4224485401	 4.1717315393	 0.287883
H	-0.0324785695	-2.4085305932	 0.0077767983	 0.086049
H	 1.7418595013	-2.5909708761	 0.3381223282	 0.091859
83.2872	136.9266	163.1948	194.6147	213.319	245.168	272.6091	317.3275	370.708	417.6802	490.9735	548.9604	587.045	636.0741	663.1581	772.8536	787.4839	821.3962	960.4847	975.5226	995.7477	999.5269	1059.3177	1079.2381	1100.0162	1108.3085	1118.4745	1136.0115	1141.4262	1150.6448	1169.1319	1173.5832	1250.3746	1273.6543	1287.9697	1341.4324	1364.4133	1407.9712	1427.813	1468.1977	1488.8085	1494.6749	1510.9517	1514.7527	1554.0944	2957.7732	2984.672	3025.1721	3036.9187	3049.9701	3068.3743	3093.458	3115.9735	3121.2314	3134.6704	3809.3221	3829.1512
CC1C2(O)CC1(CO)C2	C[C@H]1[C@@]2(O)C[C@]1(CO)C2	
InChI=1S/C7H12O2/c1-5-6(4-8)2-7(5,9)3-6/h5,8-9H,2-4H2,1H3	InChI=1S/C7H12O2/c1-5-6(4-8)2-7(5,9)3-6/h5,8-9H,2-4H2,1H3/t5-,6-,7-/m1/s1
