19
gdb 107573	3.35602	1.28371	1.05365	1.8505	75.93	-0.2445	0.0251	0.2696	1166.4523	0.159973	-423.023042	-423.0148	-423.013856	-423.056063	31.749	
O	 0.1405842944	 1.2455834188	-0.4556941113	-0.417894
C	-0.0078623429	 0.0504091004	 0.2936161326	-0.12977
C	-1.4197157825	-0.48654392	 0.1922928402	 0.344958
C	-2.520360494	 0.4011391796	 0.7410843066	-0.318621
C	-3.851497447	-0.2830003198	 0.8735075546	-0.043187
C	-4.0454726835	-1.5916065856	 0.7340781415	-0.061618
C	-2.9552891813	-2.5779538728	 0.4184726828	-0.291025
C	-1.6480514395	-1.9304609082	 0.0231180635	-0.00242
O	-1.6923445715	-1.0521574715	-1.1091197338	-0.305206
H	-0.09713804	 1.0272996038	-1.3645617641	 0.293412
H	 0.6980641997	-0.7242242356	-0.041280658	 0.090024
H	 0.2362345128	 0.3064001411	 1.3303544596	 0.10862
H	-2.2026097755	 0.7838020491	 1.722271079	 0.113462
H	-2.6042901268	 1.2902091616	 0.1033361012	 0.12494
H	-4.695537817	 0.3601313895	 1.1098661167	 0.088293
H	-5.0441618437	-2.0027681041	 0.8561771439	 0.088082
H	-2.7721723998	-3.2287061337	 1.2865262313	 0.11412
H	-3.2746834324	-3.2526099409	-0.388247683	 0.120486
H	-0.7809214396	-2.5933366417	 0.0295971569	 0.083343
66.3678	114.8311	169.716	281.72	318.4	384.6901	391.6293	408.6211	442.5935	566.7795	607.2127	677.063	707.5231	785.9875	882.5615	888.4473	915.2504	942.5594	965.9509	993.2258	1009.8389	1033.3895	1053.004	1072.7737	1119.2146	1178.6894	1200.9875	1228.7457	1246.1975	1259.118	1315.0851	1371.6995	1378.2031	1394.1437	1420.263	1427.9657	1461.4806	1465.7328	1490.8285	1492.8939	1739.1818	2993.0015	3001.1652	3005.726	3026.9117	3044.133	3073.7944	3091.7729	3147.8709	3170.9335	3794.3663
OCC12CC=CCC1O2	OC[C@]12CC=CC[C@H]1O2	
InChI=1S/C7H10O2/c8-5-7-4-2-1-3-6(7)9-7/h1-2,6,8H,3-5H2	InChI=1S/C7H10O2/c8-5-7-4-2-1-3-6(7)9-7/h1-2,6,8H,3-5H2/t6-,7-/m1/s1
