13
gdb 23949	1.95548	1.93416	0.97238	6.1477	82.92	-0.2281	-0.041	0.187	1112.5305	0.090587	-378.499062	-378.491448	-378.490504	-378.531302	28.545	
C	 0.1144145544	-1.1910203379	-0.0052528987	-0.431867
C	 0.020164575	 0.0097761236	 0.0026723816	 0.270366
C	-0.0746009466	 1.4120911499	 0.0117680204	 0.119478
C	-1.1889155613	 2.2559048879	 0.0319045041	 0.082986
C	-0.7131129502	 3.5984951916	 0.0327540088	-0.228704
C	 0.6584507514	 3.543008913	 0.0134234176	-0.080921
N	 1.0307269091	 2.2259581007	 0.0009554162	-0.31404
C	-2.5402643767	 1.8366029751	 0.0483206665	 0.183713
N	-3.6514540958	 1.5095784657	 0.0619185405	-0.355279
H	 0.1782898984	-2.2512267666	-0.0119491114	 0.203566
H	-1.3231904715	 4.4867691795	 0.0461432993	 0.129881
H	 1.3955648344	 4.3290490098	 0.0075611168	 0.141652
H	 1.9754651195	 1.8802197776	-0.0140702616	 0.279168
104.5078	154.0991	182.9533	201.2422	436.39	472.9496	512.4471	523.8943	541.5126	563.8856	632.0555	642.7212	657.8555	696.5542	717.176	762.8713	850.5453	916.2261	1069.8685	1107.6132	1179.1609	1263.6046	1301.2631	1424.6474	1465.5704	1494.3432	1586.7208	2231.449	2345.3392	3265.9656	3284.06	3499.4303	3674.3343
C#CC1=C(C=CN1)C#N	C#Cc1c(cc[nH]1)C#N	
InChI=1S/C7H4N2/c1-2-7-6(5-8)3-4-9-7/h1,3-4,9H	InChI=1S/C7H4N2/c1-2-7-6(5-8)3-4-9-7/h1,3-4,9H
