22
gdb 10987	2.68037	2.28031	1.65153	0.1219	81.36	-0.2738	0.0848	0.3586	919.5411	0.201996	-313.074224	-313.066437	-313.065493	-313.105479	31.733	
C	-0.1684077125	 1.5367553097	-0.0290102491	-0.437297
C	 0.0050659475	 0.023299962	-0.0016459085	 0.023877
C	 1.1372466327	-0.5928838377	-0.8834681888	-0.018382
C	 2.1143232552	-0.2772677067	 0.2831561289	-0.271743
C	 0.8636592569	-0.5983089272	 1.1614574678	 0.358789
C	 0.7395510648	-0.1454725423	 2.5981826686	-0.503151
C	 0.6860398047	-2.1057341887	 0.869096772	-0.246426
C	 0.8945932709	-2.1008433243	-0.6829206634	-0.220788
H	 0.7728246637	 2.0808712937	 0.089168517	 0.115418
H	-0.6121499653	 1.8537260625	-0.979435545	 0.112954
H	-0.841281579	 1.8665130413	 0.7705596355	 0.113964
H	-0.9785414452	-0.446773722	-0.1338003028	 0.050813
H	 1.3220912071	-0.2433432488	-1.900784723	 0.050475
H	 2.9938806767	-0.9192790854	 0.3992184272	 0.081254
H	 2.4203037276	 0.7683555679	 0.3325879987	 0.092775
H	 0.8607608574	 0.9388370729	 2.6929879288	 0.112125
H	-0.2403699172	-0.4093325438	 3.0141141169	 0.111338
H	 1.5013712825	-0.6202496918	 3.2278394092	 0.112851
H	 1.4287936642	-2.7147160083	 1.3946457251	 0.089131
H	-0.3057285057	-2.4647919555	 1.1628090569	 0.089233
H	 0.0152975246	-2.4572859454	-1.2279568911	 0.091399
H	 1.7504151083	-2.7069335419	-0.994706491	 0.09139
194.7525	206.75	216.8387	241.0941	292.2239	327.1786	373.5375	454.6653	529.5997	598.8228	663.2158	772.1155	805.0761	842.4835	849.1416	899.3557	916.5395	935.6869	966.4526	987.1716	1001.0234	1044.8904	1060.3426	1071.2327	1099.9693	1147.5608	1155.5323	1179.9321	1205.3842	1234.6792	1251.966	1255.9927	1274.1662	1278.4877	1314.9291	1343.4655	1393.0509	1410.8975	1415.0758	1487.6735	1489.7016	1494.8387	1495.8483	1498.9375	1508.6434	1524.8317	3008.932	3019.2562	3030.8704	3038.6361	3048.011	3052.537	3074.6269	3080.307	3086.7219	3090.675	3095.9023	3096.9526	3105.1152	3125.5521
CC1C2CC1(C)CC2	C[C@H]1[C@H]2C[C@]1(C)CC2	
InChI=1S/C8H14/c1-6-7-3-4-8(6,2)5-7/h6-7H,3-5H2,1-2H3	InChI=1S/C8H14/c1-6-7-3-4-8(6,2)5-7/h6-7H,3-5H2,1-2H3/t6-,7+,8-/m0/s1
