20
gdb 85132	2.17796	1.66765	1.16141	3.6	79.75	-0.2389	0.0366	0.2754	1135.92	0.171154	-403.168573	-403.159684	-403.15874	-403.202273	33.392	
C	-0.0766296055	 1.5650412695	-0.0871753378	-0.399982
C	 0.0472125922	 0.0513339991	-0.0138226778	-0.019267
N	 1.1698115278	-0.5281738284	-0.7716969841	-0.359611
C	 1.7655110458	-1.1429445787	 0.302108759	 0.414665
O	 2.7308379131	-1.8541381616	 0.4130887342	-0.377716
C	 0.6980315908	-0.5717976805	 1.2599170823	 0.169861
C	 1.1972780209	 0.2152765228	 2.4984334189	-0.27904
C	 0.922254327	-1.0532621194	 3.3512455676	-0.207778
C	 0.0045513294	-1.5761880472	 2.2135390342	-0.282035
H	 0.8659885356	 2.0485698763	 0.1858655033	 0.125463
H	-0.3459215961	 1.8881936522	-1.0984561519	 0.117662
H	-0.8591964834	 1.9197875488	 0.5918952865	 0.122356
H	-0.9110759568	-0.4242854095	-0.2607601293	 0.080951
H	 1.3482555601	-0.6020528302	-1.7629788659	 0.244114
H	 2.219756916	 0.5982390514	 2.4682199096	 0.112298
H	 0.5176007684	 1.0348779552	 2.7519271418	 0.100854
H	 1.8204998185	-1.6667819352	 3.4468089843	 0.128282
H	 0.4764548227	-0.9122128947	 4.3379333813	 0.096216
H	-1.0448045318	-1.3100513781	 2.3760258908	 0.099695
H	 0.0675528654	-2.6348096818	 1.951339353	 0.113011
74.307	103.3332	168.3523	187.4868	224.3756	260.6967	298.5209	401.4482	488.7879	512.9317	549.5778	697.5887	731.141	741.2337	802.3381	814.0374	891.2381	894.3472	937.491	960.0797	987.5319	1061.1527	1070.676	1084.6253	1147.6106	1161.0272	1183.5666	1211.6415	1214.5726	1249.3669	1255.5268	1279.3957	1300.9857	1301.3814	1380.1784	1388.6822	1410.8967	1470.9455	1479.6211	1488.2028	1495.2037	1501.4109	1881.1331	3015.1139	3033.4095	3049.3462	3053.9355	3071.6423	3099.098	3104.546	3109.7252	3114.9261	3132.2672	3599.2756
CC1NC(=O)C11CCC1	C[C@H]1NC(=O)C21CCC2	
InChI=1S/C7H11NO/c1-5-7(3-2-4-7)6(9)8-5/h5H,2-4H2,1H3,(H,8,9)	InChI=1S/C7H11NO/c1-5-7(3-2-4-7)6(9)8-5/h5H,2-4H2,1H3,(H,8,9)/t5-/m1/s1
