17
gdb 82796	2.58144	2.11506	1.75779	2.2553	70.48	-0.234	-0.0074	0.2266	849.3323	0.13863	-421.796184	-421.789775	-421.788831	-421.826692	26.877	
O	 0.1692042475	 1.3881677811	-0.0870028795	-0.430063
C	 0.0283928164	 0.0042629767	-0.0149899164	 0.138157
C	 0.278779476	-0.6360601308	 1.3750262031	 0.060336
O	-0.223961807	 0.2247176079	 2.4236429915	-0.333161
C	-1.5532237995	-0.4324176622	 2.384328259	 0.070668
C	-2.6007398933	 0.4303689961	 1.732215376	-0.093207
C	-2.5210860136	 0.3265531184	 0.4024230563	-0.061617
C	-1.4389054432	-0.6302459108	-0.0239602617	-0.14559
C	-1.0614908535	-1.3967447523	 1.2801301312	-0.104541
H	-0.0908779456	 1.7165683625	 0.7861385506	 0.288861
H	 0.6482543532	-0.4452613239	-0.7966535169	 0.087806
H	 1.2578611927	-1.0555664198	 1.6156598795	 0.076625
H	-1.7958042222	-0.8210441438	 3.3762371194	 0.082113
H	-3.2615402216	 1.0879626988	 2.2840213146	 0.103351
H	-3.1093648087	 0.8973251978	-0.3070778981	 0.109717
H	-1.6693716402	-1.2086839968	-0.9199903149	 0.071349
H	-1.2000872676	-2.4715378189	 1.3662441961	 0.079195
153.2873	220.817	321.9553	450.651	479.4658	559.8548	581.7531	653.8903	684.976	764.1525	800.6244	812.8407	834.1645	857.7471	902.4271	918.9151	938.7741	975.3123	979.3089	990.8275	1020.5431	1039.3261	1112.683	1130.6266	1156.4094	1189.304	1210.0898	1241.8265	1252.9781	1274.451	1284.8407	1306.3098	1324.5581	1338.5911	1372.3477	1443.9783	1656.2177	3064.4324	3080.1596	3087.5448	3095.4785	3145.7102	3192.4169	3217.965	3730.874
OC1C2OC3C=CC1C23	O[C@H]1[C@H]2O[C@H]3C=C[C@@H]1[C@@H]23	
InChI=1S/C7H8O2/c8-6-3-1-2-4-5(3)7(6)9-4/h1-8H	InChI=1S/C7H8O2/c8-6-3-1-2-4-5(3)7(6)9-4/h1-8H/t3-,4+,5-,6-,7+/m1/s1
