25
gdb 122631	3.65168	0.67863	0.61159	1.6944	90.04	-0.2391	0.0858	0.3249	1957.7928	0.227823	-389.486646	-389.475806	-389.474862	-389.52408	38.747	
C	-0.1259402149	 1.605702444	 0.134272098	-0.379656
C	-0.0618930071	 0.0773375281	 0.0709384207	-0.16657
C	 0.764072499	-0.5373177105	 1.2055921572	-0.15924
C	 0.8356685073	-2.0680828285	 1.1449019066	-0.203513
C	 1.6271328503	-2.6521407482	 2.3029075327	 0.140009
O	 0.996116308	-2.4026021894	 3.5851635408	-0.294633
C	 1.0204158694	-3.8007207138	 3.929762237	-0.07318
C	 1.6321864039	-4.1879899494	 2.5652063814	-0.054498
C	 0.8003920483	-5.1006946122	 1.6731468374	-0.406967
H	 0.8749866093	 2.0468586192	 0.0684425219	 0.112301
H	-0.7248064505	 2.0162371411	-0.6848970067	 0.108897
H	-0.572640451	 1.94381031	 1.0758808238	 0.115379
H	-1.0797389519	-0.3337368912	 0.1013634951	 0.093849
H	 0.3598677432	-0.2325448299	-0.8948552425	 0.090168
H	 1.7823033431	-0.1241370342	 1.1796831036	 0.087977
H	 0.3394615005	-0.2444534105	 2.1734810177	 0.116294
H	-0.1800567867	-2.4808114193	 1.1497093118	 0.094864
H	 1.3050877232	-2.3845796173	 0.2027947539	 0.09027
H	 2.6420493403	-2.2256099629	 2.2958600153	 0.065215
H	 1.6490901878	-3.9972827132	 4.8078813395	 0.095421
H	 0.0128135116	-4.1927379179	 4.1236346011	 0.095013
H	 2.6470645715	-4.5858109185	 2.6499517382	 0.076152
H	-0.2367750881	-4.7604541285	 1.5967220771	 0.12266
H	 1.211917023	-5.1577796757	 0.6599575808	 0.118277
H	 0.7843763904	-6.1177440912	 2.0799132674	 0.115511
36.8873	57.2542	86.326	97.2787	139.5847	201.4771	240.2036	245.5159	286.7314	353.5706	383.7945	450.1076	524.3833	728.8878	743.2645	789.5341	838.8017	882.4599	899.1682	914.8197	930.0325	968.6073	1010.1187	1025.2106	1048.3949	1068.0508	1083.0222	1126.9084	1133.5628	1158.0648	1177.3869	1192.7964	1241.1599	1255.5996	1276.1635	1295.1239	1316.8874	1331.0617	1346.2617	1362.9791	1383.5524	1396.1472	1408.0883	1414.0457	1416.812	1469.6647	1485.2783	1496.686	1498.9512	1499.6046	1499.7588	1512.2431	1529.7069	2976.4579	3001.5706	3007.3302	3009.8392	3015.7642	3028.6978	3032.4404	3037.4756	3039.0079	3054.6445	3067.0451	3074.019	3095.4594	3095.6635	3099.9362	3109.2479
CCCCC1OCC1C	CCCC[C@H]1OC[C@H]1C	
InChI=1S/C8H16O/c1-3-4-5-8-7(2)6-9-8/h7-8H,3-6H2,1-2H3	InChI=1S/C8H16O/c1-3-4-5-8-7(2)6-9-8/h7-8H,3-6H2,1-2H3/t7-,8-/m1/s1
