19
gdb 66474	3.36051	1.5649	1.44125	1.2995	78.33	-0.2287	0.0779	0.3065	985.0054	0.159379	-385.81795	-385.810589	-385.809645	-385.849034	30.913	
C	-0.0307407273	 1.475846536	 0.0351187394	-0.509354
C	 0.0569883959	-0.0279734306	 0.0046827632	 0.351744
C	 1.1247440072	-0.8051163133	-0.8157604712	-0.292699
C	 0.8252444039	-1.9663474818	 0.1606798784	-0.131024
C	 0.369279254	-0.936650019	 1.2653903567	-0.098229
C	-1.0785925117	-1.507253991	 1.2894793698	-0.201818
C	-1.2444988519	-0.867957076	-0.0855807276	-0.159647
C	-0.6881778074	-2.2747087255	 0.039825805	 0.396912
O	-1.3067601935	-3.3267998326	-0.5997104251	-0.464697
H	 0.9380589976	 1.9260316304	 0.27810994	 0.111641
H	-0.3482760616	 1.8731398069	-0.936642878	 0.116508
H	-0.7570093597	 1.8133128295	 0.7834277329	 0.117429
H	 0.9481453256	-0.9661516824	-1.8843628686	 0.093751
H	 2.1266882271	-0.3891923686	-0.6628390606	 0.090647
H	 1.5183428379	-2.7861933188	 0.3511915876	 0.057219
H	 0.9820196304	-0.6359407176	 2.112359928	 0.06435
H	-1.8006191968	-1.6978465174	 2.0722522428	 0.086873
H	-2.157547248	-0.6678529557	-0.6321852582	 0.084941
H	-1.1613731815	-4.1234531622	-0.0777128246	 0.285453
205.7533	229.006	236.4742	293.8225	350.8407	374.6188	439.5689	541.4182	574.9901	639.5496	736.9853	765.3321	812.9705	832.8329	838.9034	863.1498	880.3335	907.9105	916.9355	935.8262	960.2534	991.4472	1006.3319	1067.7756	1077.9783	1111.7118	1142.8324	1162.9401	1164.661	1189.4133	1209.0071	1230.098	1243.6388	1278.6372	1305.6917	1347.1407	1412.4669	1452.3436	1486.0761	1491.143	1492.7436	3019.1678	3035.2386	3081.6581	3089.2439	3092.0768	3111.1911	3138.6299	3192.6349	3204.647	3793.0472
CC12CC3C1C1C2C31O	C[C@@]12C[C@H]3[C@@H]1[C@H]1[C@@H]2[C@@]31O	
InChI=1S/C8H10O/c1-7-2-3-4(7)5-6(7)8(3,5)9/h3-6,9H,2H2,1H3	InChI=1S/C8H10O/c1-7-2-3-4(7)5-6(7)8(3,5)9/h3-6,9H,2H2,1H3/t3-,4+,5-,6-,7+,8+/m0/s1
