20
gdb 10626	2.46596	1.71823	1.23862	0.8715	82.11	-0.236	0.0574	0.2934	1086.9273	0.174738	-311.833738	-311.824345	-311.823401	-311.867276	35.107	
C	-0.3531941745	 1.5362829937	 0.135498752	-0.377817
C	 0.1675162486	 0.1109739361	-0.0774966454	-0.254293
C	 0.8068456194	-0.4843818776	 1.1759722089	 0.144724
C	-0.0965024495	-1.1067086848	 2.2383667292	-0.318565
C	 0.8039595958	-1.9952109915	 1.4282590551	-0.036112
C	 0.2607485422	-2.9994820586	 0.4359407702	-0.416616
C	 1.9702255234	 0.2244083388	 1.645134877	 0.294941
C	 2.9477154461	 0.8198844726	 2.0182836587	-0.472461
H	 0.4550929703	 2.2044417571	 0.4461450698	 0.132194
H	-0.7890538013	 1.9335407549	-0.7862694173	 0.108697
H	-1.1242890007	 1.5610869586	 0.9127409304	 0.114488
H	-0.6564784467	-0.532354668	-0.4007455205	 0.094356
H	 0.9051407045	 0.1056809213	-0.8890524745	 0.104511
H	 0.1374020077	-0.9243631924	 3.2805361211	 0.121116
H	-1.1582862081	-1.1244089178	 2.0098611633	 0.111197
H	 1.6930921438	-2.3378553868	 1.9498197596	 0.097596
H	-0.6720122994	-2.6667842371	-0.0266233784	 0.119299
H	 0.9802568716	-3.2013716302	-0.3649940403	 0.122929
H	 0.051087854	-3.9491725299	 0.9406066155	 0.121144
H	 3.8087811628	 1.3427552215	 2.3531287255	 0.188672
87.8396	142.4622	151.2744	168.3618	213.8909	226.3222	285.2556	345.2225	389.6442	470.5781	540.9195	557.8341	578.5007	641.6192	653.2488	778.1117	802.5799	883.6238	908.3068	922.0944	985.7774	1022.8721	1037.0074	1069.5233	1098.7716	1129.2671	1135.6688	1193.843	1254.3855	1288.2558	1323.92	1362.2438	1405.7697	1410.2426	1426.4149	1476.6375	1489.8827	1495.5452	1496.6167	1504.693	1509.2877	2227.2655	3031.2155	3035.3729	3037.5083	3077.8956	3090.6348	3105.0301	3111.1852	3118.2162	3128.546	3150.5331	3220.6773	3502.9057
CCC1(CC1C)C#C	CC[C@]1(C[C@H]1C)C#C	
InChI=1S/C8H12/c1-4-8(5-2)6-7(8)3/h1,7H,5-6H2,2-3H3	InChI=1S/C8H12/c1-4-8(5-2)6-7(8)3/h1,7H,5-6H2,2-3H3/t7-,8+/m1/s1
