23
gdb 113217	3.47177	0.91724	0.82583	1.3111	86.54	-0.2418	0.0828	0.3246	1521.6541	0.204306	-388.266358	-388.25632	-388.255376	-388.301421	38.123	
C	-0.3180674358	 1.4603851709	 0.3806808542	-0.37253
C	 0.3395986829	 0.1309115124	-0.0060491044	-0.195121
C	 0.8581807177	-0.6343727314	 1.1942368282	-0.02461
C	-0.0742993114	-1.4930431619	 2.0352734178	-0.370004
C	 1.0056058681	-2.1289935562	 1.1871693011	 0.380305
O	 0.5871671208	-2.7443906917	-0.0089583368	-0.467743
C	 2.2067235496	-2.7968154535	 1.7852216528	-0.056157
C	 2.5658247462	-2.7081619687	 3.2440404407	-0.274469
C	 2.0460285533	-4.0069085118	 2.6821292642	-0.275388
H	 0.3877424694	 2.1172995729	 0.9015418441	 0.109273
H	-0.6791851632	 1.9952286291	-0.5035337601	 0.10818
H	-1.1709558876	 1.2983126885	 1.0484220372	 0.114508
H	-0.3700659623	-0.497993241	-0.551291296	 0.111438
H	 1.1701645219	 0.3208735658	-0.6982716664	 0.094929
H	 1.6279822464	-0.1139359436	 1.7607298428	 0.082263
H	 0.0135040822	-1.4691651819	 3.1158995438	 0.105417
H	-1.0874583833	-1.6167434801	 1.6661847828	 0.108894
H	 0.3565191138	-3.654997284	 0.2066850106	 0.279048
H	 3.046142834	-2.8353265764	 1.095201552	 0.090704
H	 3.6178387423	-2.6414286066	 3.4981652664	 0.112692
H	 1.9170863564	-2.1510034439	 3.9105560691	 0.115354
H	 1.0368298084	-4.2955295811	 2.9587227147	 0.110539
H	 2.7340324801	-4.8366510557	 2.5650987412	 0.112477
64.3583	77.5528	138.421	148.6178	226.7968	259.8005	286.2421	303.1276	326.2562	388.6856	453.8552	476.6057	608.3276	670.0685	768.6029	785.8383	812.4066	832.9981	874.406	899.1008	941.6383	946.8831	951.1521	974.7402	1038.1135	1051.7032	1057.7391	1073.4184	1084.8682	1120.479	1141.9594	1148.5285	1193.1764	1198.1391	1215.1246	1235.1944	1271.2921	1290.3301	1331.2759	1365.4201	1399.76	1409.7521	1432.0973	1465.5557	1487.1347	1497.2629	1498.9197	1507.4839	1508.3492	3025.7634	3029.0048	3078.925	3100.5051	3101.962	3127.4946	3129.0605	3129.4895	3134.2108	3139.4287	3209.335	3216.7308	3224.637	3793.8151
CCC1CC1(O)C1CC1	CC[C@H]1C[C@]1(O)C1CC1	
InChI=1S/C8H14O/c1-2-6-5-8(6,9)7-3-4-7/h6-7,9H,2-5H2,1H3	InChI=1S/C8H14O/c1-2-6-5-8(6,9)7-3-4-7/h6-7,9H,2-5H2,1H3/t6-,8+/m0/s1
