22
gdb 88826	2.82012	1.2338	0.95784	2.4262	82.74	-0.228	0.0808	0.3088	1299.1432	0.193985	-404.305987	-404.296733	-404.295789	-404.340244	35.391	
C	-0.1239206871	 1.3769736371	-0.3726503681	-0.4151
C	-0.1378540572	-0.0280662084	 0.1894117764	 0.028575
C	 1.0615572762	-0.9079573118	 0.1066769418	-0.251595
N	 0.5931497477	-0.4149910902	 1.4017696658	-0.105867
C	 1.4278928519	 0.5484414808	 2.1055762813	 0.000145
C	 0.6127303387	 1.3807360128	 3.1327149993	-0.23969
C	 0.9736437406	 0.3498885806	 4.2370149041	-0.252042
C	 2.1069725308	-0.1822061604	 3.3143150257	 0.159175
O	 2.3166371293	-1.5604108426	 3.2048821896	-0.435571
H	 0.8725754253	 1.8240587998	-0.3514010305	 0.123487
H	-0.4576245445	 1.3593681602	-1.4156767522	 0.124046
H	-0.8039106675	 2.0334131128	 0.1806554621	 0.12601
H	-1.1123447508	-0.5112700243	 0.1273854836	 0.090611
H	 0.9666122212	-1.9765404602	-0.0675754518	 0.113342
H	 1.9712975664	-0.4650333966	-0.297105188	 0.111725
H	 2.0982899433	 1.1075210065	 1.4385695118	 0.051823
H	 1.0637169616	 2.3614554813	 3.3040150372	 0.101121
H	-0.4465312519	 1.5150197128	 2.9056073989	 0.102383
H	 1.258684489	 0.7286378153	 5.2211106807	 0.095379
H	 0.1915666705	-0.4036668511	 4.3604292497	 0.105517
H	 3.0719840346	 0.2710482691	 3.5599875025	 0.082091
H	 1.515103722	-1.9056486437	 2.7886691801	 0.284433
59.9204	96.187	137.7562	199.4696	217.1189	250.9446	359.7201	396.3779	413.8634	480.5195	507.8737	596.2708	662.2319	737.1244	760.4598	798.9511	898.7785	902.1938	927.5368	930.9599	958.1176	994.7654	1029.6989	1061.2984	1073.7128	1107.0713	1121.8162	1139.3276	1153.0786	1166.5237	1190.3492	1201.5986	1230.0533	1256.1075	1271.1012	1280.727	1331.3645	1335.7247	1366.369	1404.3671	1422.3065	1443.9391	1470.2006	1487.2114	1492.9084	1499.6133	1510.7739	2991.0558	3038.4229	3062.4811	3065.833	3070.1507	3090.2859	3096.1721	3102.9599	3112.6823	3127.7339	3129.3584	3175.7985	3752.1076
CC1CN1C1CCC1O	C[C@H]1CN1[C@H]1CC[C@H]1O	
InChI=1S/C7H13NO/c1-5-4-8(5)6-2-3-7(6)9/h5-7,9H,2-4H2,1H3	InChI=1S/C7H13NO/c1-5-4-8(5)6-2-3-7(6)9/h5-7,9H,2-4H2,1H3/t5-,6-,7+,8?/m0/s1
