21
gdb 69309	2.86037	1.33169	1.26566	1.2259	83.46	-0.2276	0.0195	0.2471	1135.2044	0.181294	-387.088893	-387.079894	-387.07895	-387.121582	36.079	
C	-0.1068738319	 1.5837850187	 0.042079919	-0.416057
C	 0.0002286545	 0.0487594104	 0.005734144	 0.239668
C	-1.4129890958	-0.5675006801	-0.020037005	-0.420809
C	 0.8042924884	-0.4406937025	-1.1938079311	-0.098453
C	 1.7982483774	-1.2617236733	-0.8542343311	-0.175844
C	 1.8962134531	-1.4140876597	 0.6319170521	 0.372501
O	 2.1639503632	-2.6665466261	 1.1862077047	-0.472924
C	 2.2574428343	-0.1478520408	 1.377661361	-0.366899
C	 0.8016328939	-0.5298660701	 1.183008726	-0.107566
H	 0.8787519346	 2.0560291052	 0.0769904874	 0.113897
H	-0.627449265	 1.9593464453	-0.8459861465	 0.108444
H	-0.6708358014	 1.9119276038	 0.9217159491	 0.112651
H	-1.9600097941	-0.2579846222	-0.9171276991	 0.108063
H	-1.3613538572	-1.6601236762	-0.0143747013	 0.124147
H	-1.9921791535	-0.2457213754	 0.8534469214	 0.10883
H	 0.5665394386	-0.120498041	-2.2034043354	 0.090531
H	 2.4873930606	-1.7496933975	-1.5351960372	 0.091092
H	 3.1197740754	-2.7733960769	 1.2342614203	 0.282206
H	 2.6352714868	-0.2744069714	 2.3879229474	 0.108472
H	 2.6881091142	 0.680935749	 0.8252747411	 0.109613
H	 0.2616483239	-0.844190409	 2.0691056632	 0.088437
130.14	189.7201	221.4205	242.6147	256.9487	302.837	327.6044	350.8329	374.4411	400.9134	472.3054	558.3807	603.9472	645.0126	754.019	777.2868	796.5922	868.357	914.1722	936.5575	943.7127	957.3869	963.0591	979.8483	1028.9601	1037.3506	1056.7639	1064.8246	1117.9138	1181.2347	1201.1753	1236.7029	1255.0573	1278.1114	1331.2737	1350.2922	1394.651	1400.7942	1422.9937	1470.5096	1483.2794	1485.9271	1501.7835	1507.5773	1668.8372	3023.766	3030.3577	3089.4742	3094.6036	3108.7435	3110.2958	3118.6094	3172.7951	3174.6979	3199.2932	3209.894	3802.3027
CC1(C)C=CC2(O)CC12	CC1(C)C=C[C@@]2(O)C[C@@H]12	
InChI=1S/C8H12O/c1-7(2)3-4-8(9)5-6(7)8/h3-4,6,9H,5H2,1-2H3	InChI=1S/C8H12O/c1-7(2)3-4-8(9)5-6(7)8/h3-4,6,9H,5H2,1-2H3/t6-,8+/m0/s1
