22
gdb 66242	3.28303	1.15542	1.12027	1.6584	81.59	-0.2302	0.082	0.3122	1220.2374	0.194909	-404.317083	-404.3082	-404.307256	-404.351338	34.082	
C	 0.147825559	 1.5807712402	-0.4252325313	-0.466524
C	 0.026911163	 0.0704535821	-0.1616544444	 0.318085
C	 0.9373152802	-0.7211896207	-1.1492948764	-0.276207
C	 2.1471315038	-1.1560882931	-0.2888315334	-0.07354
O	 2.0694482545	-0.4024636784	 0.9169214241	-0.246631
C	 0.688543674	-0.2735057171	 1.1955462375	-0.108851
N	-1.326026968	-0.5041093571	-0.18204455	-0.103885
C	-2.4417082925	 0.1824930398	 0.4565858064	-0.231878
C	-2.3747490006	 0.0500136494	-1.0264398232	-0.228311
H	 1.1894357478	 1.8771597229	-0.2708328044	 0.134635
H	-0.1215993229	 1.8428094749	-1.4528230425	 0.115745
H	-0.4670544751	 2.1755008019	 0.2578418444	 0.113907
H	 0.3930569436	-1.5815484659	-1.54285511	 0.111748
H	 1.2440561996	-0.0972836981	-1.9926658922	 0.09971
H	 2.0966857654	-2.2329795693	-0.0653149698	 0.093106
H	 3.1163736257	-0.948437196	-0.7494053213	 0.105318
H	 0.5681580392	 0.5047168976	 1.9541953738	 0.099649
H	 0.2624422285	-1.2160001257	 1.5741426041	 0.091614
H	-3.1036440145	-0.4505076041	 1.0415426991	 0.115866
H	-2.292065706	 1.178202914	 0.8684877177	 0.110825
H	-2.1788212982	 0.9586238014	-1.5906763196	 0.110966
H	-2.9899406867	-0.6796980186	-1.5462310883	 0.114651
41.0451	58.713	205.1836	243.8297	277.8009	296.275	358.1004	366.3569	397.7484	484.1072	562.6337	669.0833	763.9965	805.6742	822.8756	858.2801	907.753	937.8991	941.583	976.747	986.3011	988.0975	1024.9979	1047.6266	1102.0778	1111.6733	1120.9683	1161.4818	1166.254	1176.0042	1192.8133	1211.1882	1241.2972	1258.4365	1284.9422	1313.8239	1338.8761	1356.0893	1389.3253	1408.6575	1485.9198	1490.9937	1494.3616	1507.1655	1512.2892	1524.7777	1525.1064	2979.9759	2985.8189	3035.9956	3065.4403	3088.5673	3091.825	3098.0863	3105.0411	3107.5591	3111.811	3121.1039	3175.853	3190.6921
CC1(CCOC1)N1CC1	C[C@]1(CCOC1)N1CC1	
InChI=1S/C7H13NO/c1-7(8-3-4-8)2-5-9-6-7/h2-6H2,1H3	InChI=1S/C7H13NO/c1-7(8-3-4-8)2-5-9-6-7/h2-6H2,1H3/t7-/m1/s1
