21
gdb 115623	2.49794	1.18157	0.98061	2.8781	79.34	-0.2378	0.0715	0.3094	1318.1913	0.180873	-424.188521	-424.178939	-424.177995	-424.223183	35.537	
C	 0.2834326005	 1.5825013203	 0.1531133316	-0.384426
C	 0.0381775642	 0.0723570053	 0.0805560619	-0.191312
C	 0.4734482665	-0.5125563025	-1.2515370515	 0.096913
O	 1.9059195407	-0.3682473397	-1.4798557689	-0.302451
C	 2.0892369719	-1.7920779129	-1.6201112872	-0.142982
C	 0.6044966877	-2.0299486509	-1.3870268664	 0.26193
C	-0.0936340579	-3.111965391	-0.6080756087	-0.397125
C	-0.3322879841	-2.9448726361	-2.093213047	 0.036245
O	-1.5231820142	-2.3615709762	-2.5365701965	-0.420483
H	 1.3419758994	 1.8033147862	-0.0101769585	 0.136952
H	-0.2928398973	 2.1141173244	-0.6121765351	 0.113987
H	-0.0044627684	 1.9844944538	 1.1290338094	 0.10833
H	 0.5791583896	-0.4380791133	 0.8864493275	 0.095392
H	-1.0286138034	-0.1475628924	 0.2191580361	 0.096744
H	-0.0930479808	-0.051454399	-2.0722106655	 0.085868
H	 2.4668288444	-2.0648946044	-2.6149718453	 0.099608
H	 2.7670239824	-2.1973812898	-0.8568175854	 0.099083
H	 0.4870518823	-3.9645164895	-0.268272463	 0.112899
H	-0.8954589044	-2.8089361884	 0.0581358293	 0.118828
H	 0.0948366268	-3.6936174494	-2.7624304754	 0.08591
H	-2.2301932057	-3.0068739046	-2.4323900314	 0.290091
68.1072	92.309	144.2462	159.6655	218.6236	225.3204	278.6627	316.6432	425.7783	435.7571	449.3253	511.0622	609.7008	762.2824	808.0685	847.3648	879.7423	901.499	935.5674	957.4849	996.3453	1021.103	1034.9658	1055.3433	1095.535	1106.1602	1110.5507	1151.1644	1159.6674	1175.7932	1223.8478	1262.7373	1289.6228	1294.1504	1318.1118	1338.4968	1376.0424	1405.2587	1409.7229	1431.2449	1475.1616	1497.4266	1502.5218	1509.6467	1524.8219	2995.3037	3011.6064	3020.7014	3035.3091	3035.8988	3062.3348	3084.9057	3102.5278	3118.6807	3119.2334	3208.7273	3806.351
CCC1OCC11CC1O	CC[C@H]1OC[C@]21C[C@H]2O	
InChI=1S/C7H12O2/c1-2-6-7(4-9-6)3-5(7)8/h5-6,8H,2-4H2,1H3	InChI=1S/C7H12O2/c1-2-6-7(4-9-6)3-5(7)8/h5-6,8H,2-4H2,1H3/t5-,6-,7-/m1/s1
