16
gdb 86523	3.94784	0.93114	0.83773	3.6131	70.86	-0.2772	-0.0863	0.1909	1336.424	0.122905	-437.888675	-437.87977	-437.878826	-437.923416	31.567	
O	 0.3045899064	 0.8460181124	-0.7283298918	-0.427422
C	-0.2059036635	-0.1944836439	 0.0642623473	 0.156939
C	 0.2224748236	-0.2782501609	 1.5586089227	-0.28474
C	-1.26600608	-0.478182471	 1.93986907	-0.128917
C	-1.6626284547	 0.0475605245	 0.5091560454	-0.252073
C	-1.6647001627	-1.915635955	 2.1282333923	 0.288946
O	-0.9551410513	-2.8764829815	 1.9604796932	-0.274404
C	-3.0821171544	-2.106722001	 2.520413064	 0.229759
N	-4.1886379041	-2.2423996919	 2.8277835574	-0.297175
H	 1.1790331229	 0.5942991153	-1.0418112971	 0.288469
H	-0.0962326865	-1.1701055073	-0.4271441246	 0.088672
H	 0.9103337383	-1.0731311554	 1.8491852083	 0.123773
H	 0.5886283657	 0.6905371279	 1.9055314791	 0.115845
H	-1.667012603	 0.1116363418	 2.7679355583	 0.11448
H	-1.8768171461	 1.1175358445	 0.5433689867	 0.13431
H	-2.4636570006	-0.4653647487	-0.0268837012	 0.123537
36.5623	75.2876	133.6161	200.4519	247.9058	268.7501	296.6877	376.4992	441.4956	468.8612	589.5696	655.9884	716.8981	763.2448	822.6861	890.7897	931.8423	962.1816	977.7564	1057.3276	1071.4572	1119.9249	1139.5648	1175.2067	1195.0319	1247.9477	1264.8023	1270.7046	1318.7454	1365.913	1434.4614	1460.781	1489.9828	1789.0273	2335.5937	3018.0549	3074.2809	3075.6844	3084.5508	3137.3127	3144.6336	3820.8912
OC1CC(C1)C(=O)C#N	O[C@H]1C[C@@H](C1)C(=O)C#N	
InChI=1S/C6H7NO2/c7-3-6(9)4-1-5(8)2-4/h4-5,8H,1-2H2	InChI=1S/C6H7NO2/c7-3-6(9)4-1-5(8)2-4/h4-5,8H,1-2H2/t4-,5-
