23
gdb 113199	3.15738	0.87202	0.85488	1.3161	82.44	-0.2488	0.0689	0.3177	1542.9978	0.201992	-425.419615	-425.408362	-425.407417	-425.456322	40.66	
C	 0.6886595177	 1.484112758	 0.2127424077	-0.373062
C	-0.1734619127	 0.2659094949	-0.1435680479	-0.224286
C	 0.3784257078	-0.4768532344	-1.3366550006	 0.023717
O	 1.5563599019	-1.2779783318	-1.1289743172	-0.309858
C	 0.349180349	-1.9351121066	-1.5538476884	 0.388927
C	-0.2850448237	-2.8887381554	-0.5653325302	-0.492936
C	 0.4343922071	-2.4314114919	-3.0016513125	 0.06664
C	 1.4128748508	-3.5935065245	-3.1683832211	-0.423135
O	-0.8605482341	-2.738050883	-3.5130129786	-0.4322
H	 1.7092459697	 1.1738263722	 0.4559538113	 0.133596
H	 0.7428999819	 2.1897192097	-0.6233869517	 0.115789
H	 0.2788617172	 2.0179925878	 1.075128394	 0.112584
H	-0.239684191	-0.4002331332	 0.7208405507	 0.102338
H	-1.1962172496	 0.5871390215	-0.3803106756	 0.104155
H	 0.4350877552	 0.1381978381	-2.2394636527	 0.082187
H	-0.2940422102	-2.4757193591	 0.4434541207	 0.132194
H	-1.3174154151	-3.1038736433	-0.8588966924	 0.12441
H	 0.2654835281	-3.8345395661	-0.5272423963	 0.124619
H	 0.7907066516	-1.5920799551	-3.6089628675	 0.091388
H	 2.3982836871	-3.3160606433	-2.7843916586	 0.14122
H	 1.0762665264	-4.4845913376	-2.6247012246	 0.107149
H	 1.5058105026	-3.8572091066	-4.225438259	 0.12349
H	-1.0867408078	-3.6306361703	-3.2320969796	 0.281076
41.5838	69.0507	118.6283	153.6837	167.813	224.3764	245.329	251.2246	279.1764	293.7907	300.4541	370.0226	456.9839	475.8124	519.75	582.5886	710.5318	758.8495	837.0526	867.6473	914.7004	934.4885	969.8969	1029.0878	1042.9865	1074.3126	1078.6242	1097.7387	1130.481	1149.3679	1161.543	1273.3756	1288.7605	1293.6823	1322.6813	1346.1214	1390.2284	1398.4833	1406.2176	1407.8814	1418.2235	1470.0773	1474.3997	1487.2514	1495.0752	1497.6279	1501.4269	1505.4135	1517.8786	3029.521	3029.7101	3036.4006	3045.2413	3049.2216	3063.9288	3088.6775	3100.8638	3105.6388	3109.2462	3116.2816	3127.1754	3146.0803	3813.6727
CCC1OC1(C)C(C)O	CC[C@H]1O[C@]1(C)[C@@H](C)O	
InChI=1S/C7H14O2/c1-4-6-7(3,9-6)5(2)8/h5-6,8H,4H2,1-3H3	InChI=1S/C7H14O2/c1-4-6-7(3,9-6)5(2)8/h5-6,8H,4H2,1-3H3/t5-,6-,7-/m1/s1
