18
gdb 105753	2.26676	1.45761	1.16796	2.9507	71.8	-0.2858	0.0121	0.2979	1134.0008	0.147357	-439.098181	-439.089264	-439.08832	-439.132417	32.09	
C	 0.0625355532	 1.5264936906	-0.0810071719	-0.398995
C	 0.0713348954	 0.0023586987	 0.0421054791	-0.219408
C	 0.7017505756	-0.5100476202	 1.3471702206	 0.216308
C	 0.8917626028	-2.0649960693	 1.3637804082	-0.167423
O	 2.264105373	-2.2261811383	 1.0621538428	-0.225777
C	 2.8836203236	-1.1322034507	 1.6826227214	 0.010952
O	 2.0404072883	-0.0167695953	 1.4503850355	-0.273958
C	-0.0805588081	-0.0690917062	 2.5206029538	 0.270936
N	-0.7107664994	 0.2604907161	 3.4314225038	-0.341073
H	 1.0779243435	 1.9242535927	-0.0128484893	 0.140595
H	-0.3618219015	 1.8279871414	-1.0425400493	 0.11998
H	-0.5376699013	 1.9847415862	 0.7111683898	 0.140154
H	-0.948499259	-0.3948208501	-0.0230291772	 0.114516
H	 0.6508193549	-0.4456672762	-0.7728787733	 0.118605
H	 0.6461364322	-2.4792901523	 2.3505789159	 0.123084
H	 0.2999720813	-2.5672900714	 0.5970691378	 0.135481
H	 2.9996565234	-1.3034833117	 2.7668607217	 0.102487
H	 3.8536341122	-0.9499919441	 1.2146178205	 0.133534
46.759	108.5909	160.6279	176.8946	213.65	257.1508	297.5009	373.4552	410.2121	516.6623	569.0921	628.5192	736.7528	774.9833	791.1076	913.4782	963.3439	974.379	1017.2271	1026.6093	1046.0711	1111.1451	1130.2611	1161.8008	1178.9496	1204.8947	1227.9638	1277.5479	1313.174	1363.4742	1365.401	1411.16	1426.6911	1473.5738	1497.5935	1507.7052	1510.9464	1540.8716	2353.7008	2958.0202	3019.9517	3035.7497	3047.612	3079.601	3109.8065	3116.6801	3123.1873	3131.6726
CCC1(COCO1)C#N	CC[C@]1(COCO1)C#N	
InChI=1S/C6H9NO2/c1-2-6(3-7)4-8-5-9-6/h2,4-5H2,1H3	InChI=1S/C6H9NO2/c1-2-6(3-7)4-8-5-9-6/h2,4-5H2,1H3/t6-/m1/s1
