17
gdb 125902	3.89362	1.35514	1.1409	5.0497	74.24	-0.1976	0.0032	0.2007	1075.0643	0.139611	-414.178674	-414.171357	-414.170413	-414.21053	28.482	
C	 0.1880476329	 1.4796397001	 0.0707603415	-0.396392
C	-0.0420751708	-0.0295838042	-0.02790445	 0.046366
C	 0.6644259423	-0.6420050813	-1.3051919483	-0.371115
C	 1.8729585901	-1.2400734739	-0.6671142828	 0.321877
C	 1.7563793217	-1.2640342068	 0.6936237684	 0.349987
N	 0.533514456	-0.7575035735	 1.1500287384	-0.404183
N	 2.8355477174	-1.8448038775	 1.2585703305	-0.305486
N	 3.645774171	-2.1978497612	 0.2803340066	-0.13462
N	 3.0593683168	-1.8459731128	-0.8908337908	-0.323566
H	 1.2594008742	 1.707617801	 0.0872360575	 0.130618
H	-0.2615630993	 1.9985653625	-0.7823928967	 0.120156
H	-0.2638264023	 1.8856419768	 0.9821127711	 0.120208
H	-1.1168357986	-0.2288124853	-0.0708218888	 0.090013
H	 0.0288771103	-1.3983616768	-1.781786065	 0.126047
H	 0.8655044153	 0.13345164	-2.051981956	 0.117087
H	 0.5917252522	-0.1821511119	 1.9819074041	 0.236678
H	 3.5455384408	-2.0460972653	-1.7493671295	 0.276325
75.5296	201.1074	259.6322	278.3077	347.1514	398.3618	465.8362	537.0342	621.6996	660.8569	698.3482	741.349	744.6763	803.9477	870.3268	916.982	938.4392	1029.115	1041.1554	1045.9102	1093.5901	1124.1164	1177.3518	1191.4066	1212.8699	1281.7534	1319.4718	1339.0054	1371.8641	1384.5953	1405.7651	1440.718	1488.739	1493.6327	1497.2589	1557.1436	1630.5281	3023.4611	3028.4077	3056.2316	3065.9515	3099.7357	3106.3326	3550.2635	3666.3386
CC1CC2=C(N1)N=NN2	C[C@H]1Cc2c(N1)nn[nH]2	
InChI=1S/C5H8N4/c1-3-2-4-5(6-3)8-9-7-4/h3H,2H2,1H3,(H2,6,7,8,9)	InChI=1S/C5H8N4/c1-3-2-4-5(6-3)8-9-7-4/h3H,2H2,1H3,(H2,6,7,8,9)/t3-/m0/s1
