18
gdb 87290	2.76141	1.29107	1.09315	1.2341	73.84	-0.2382	-0.0438	0.1944	1160.5405	0.145174	-439.031411	-439.022411	-439.021467	-439.065237	32.731	
C	-0.1211516623	 1.5870095881	 0.2605552343	-0.333758
N	-0.1106550213	 0.1358047244	 0.4333187133	-0.112894
C	 0.9834671427	-0.6225863271	-0.1114352668	-0.258544
C	 0.8152203486	-0.5075389737	 1.3867542714	 0.197648
C	 1.8383435139	 0.2949473863	 2.1227999941	 0.088999
O	 2.4924419757	 1.1985034408	 1.6560455894	-0.269436
C	 0.2361390452	-1.6609387857	 2.1664160378	 0.000884
C	-1.2067578925	-1.8156692945	 2.3985488841	-0.177551
O	-0.5183546302	-2.6165747373	 1.4326813734	-0.234428
H	 0.8720541643	 2.0481138973	 0.2784228427	 0.148725
H	-0.599402863	 1.7965026696	-0.7009487337	 0.129809
H	-0.733545344	 2.0343980499	 1.0492708514	 0.123617
H	 0.7208406682	-1.5738272945	-0.5643028115	 0.142614
H	 1.8250307491	-0.0823058492	-0.5413858498	 0.132821
H	 1.9634910005	 0.0024043282	 3.1896919885	 0.080937
H	 0.9252031631	-2.0998526424	 2.8913720142	 0.094203
H	-1.5577861385	-2.3482441295	 3.2809944495	 0.115373
H	-1.8801896695	-1.0746262808	 1.9762897177	 0.13098
72.247	143.6082	163.8132	190.7276	204.0687	234.0835	266.416	355.4929	415.6314	439.3237	509.106	630.8009	742.6133	756.7185	857.2267	886.4216	921.3279	938.8238	1000.5823	1054.2661	1066.5787	1098.5874	1120.2618	1152.1722	1159.4022	1166.5554	1174.582	1211.4315	1220.5252	1294.3493	1363.914	1430.4958	1442.86	1450.1024	1479.4637	1488.548	1508.053	1512.8057	1799.7747	2875.0964	3029.3464	3084.0671	3095.9395	3100.9411	3103.536	3109.8656	3195.8838	3205.3924
CN1CC1(C=O)C1CO1	CN1C[C@]1(C=O)[C@H]1CO1	
InChI=1S/C6H9NO2/c1-7-3-6(7,4-8)5-2-9-5/h4-5H,2-3H2,1H3	InChI=1S/C6H9NO2/c1-7-3-6(7,4-8)5-2-9-5/h4-5H,2-3H2,1H3/t5-,6+,7?/m1/s1
