13
gdb 133320	2.42144	1.83925	1.04602	3.6518	64.93	-0.2309	-0.0281	0.2028	1017.4995	0.089947	-494.056242	-494.048911	-494.047967	-494.087803	28.335	
N	-0.0379781844	 1.4384229918	 0.1418797815	-0.602957
C	-0.0278071894	 0.0697357617	 0.0342437908	 0.117783
C	-1.1584098269	-0.7243507821	 0.0486308809	 0.220413
F	-2.359244085	-0.1367862894	 0.1123253525	-0.078544
C	-1.0420704054	-2.1102005541	-0.0095625158	-0.0895
N	 0.1281869318	-2.7312908523	-0.0856018521	-0.228191
N	 1.2398697712	-1.9894291685	-0.1109853617	-0.301159
C	 1.1687747014	-0.6762111569	-0.0547618898	 0.413036
O	 2.3225204363	 0.0294474478	-0.0921214649	-0.42807
H	 0.7959996681	 1.9066587641	-0.1763928204	 0.274867
H	-0.9035450951	 1.8967273434	-0.096293799	 0.266419
H	-1.9308979691	-2.7321746395	 0.0047089029	 0.12936
H	 3.0326823564	-0.624792256	-0.1647979549	 0.306543
143.1639	258.671	264.0696	307.7415	319.7451	394.8547	481.1185	508.3714	514.6425	535.8856	587.6052	600.2254	630.4074	714.5978	781.7985	886.6809	917.4037	985.0429	1122.8473	1181.4445	1263.5435	1271.4667	1338.1859	1352.2145	1446.2348	1528.6409	1614.1562	1632.6307	1665.027	3191.3204	3586.3959	3700.1766	3755.8628
NC1=C(F)C=NN=C1O	Nc1c(F)cnnc1O	
InChI=1S/C4H4FN3O/c5-2-1-7-8-4(9)3(2)6/h1H,(H2,6,7)(H,8,9)	InChI=1S/C4H4FN3O/c5-2-1-7-8-4(9)3(2)6/h1H,(H2,6,7)(H,8,9)
