19
gdb 89899	3.58209	1.25658	1.15272	1.3674	75.04	-0.23	0.069	0.2989	1120.6993	0.15866	-422.966745	-422.958838	-422.957893	-422.999086	31.58	
O	-0.7977369857	 1.0846406678	 0.8726957537	-0.435935
C	-0.0768705563	 0.1230202893	 0.1203511964	 0.115879
C	 0.6162057721	-0.9571842945	 1.0014284318	-0.328821
C	-0.662613452	-1.8100289032	 0.8635900555	 0.473343
C	-1.0674963979	-0.9613973623	-0.3628063114	-0.3013
O	-0.5555395674	-3.2446525574	 0.6925526273	-0.332637
C	-1.571392381	-3.4496395849	 1.6811900505	 0.089186
C	-1.1113083127	-2.9566446447	 3.0155027422	-0.30674
C	-1.6675323286	-1.9790620805	 1.9968045152	-0.188239
H	-0.1615303985	 1.6108185657	 1.3679149296	 0.28253
H	 0.5443539029	 0.6027850124	-0.6458821257	 0.065911
H	 1.4526082645	-1.4306986841	 0.4790462313	 0.112331
H	 0.9297163192	-0.6648320063	 2.0076607564	 0.094481
H	-2.1112341155	-0.6554587526	-0.4587021713	 0.110909
H	-0.7315741525	-1.4420821475	-1.2848753694	 0.112217
H	-2.3116843625	-4.2195081936	 1.4996265922	 0.102584
H	-1.7743031351	-3.1613077189	 3.8508597149	 0.112877
H	-0.0505449799	-2.9720495398	 3.2513568932	 0.113843
H	-2.5184091529	-1.338428095	 2.1806945674	 0.107581
79.9519	162.0214	203.5291	294.2804	333.8506	388.0459	400.9589	463.8365	486.8012	534.1114	758.7528	788.4417	811.0226	817.6233	855.6751	896.9033	922.8221	933.7299	964.5322	974.4001	997.5285	1008.9749	1044.7389	1051.7756	1061.7916	1082.0125	1108.8134	1146.8472	1173.7366	1185.9343	1212.1974	1227.4301	1246.9996	1279.7798	1327.2633	1337.3404	1352.1454	1412.5552	1449.406	1471.4261	1476.6074	3018.7854	3053.4065	3071.3297	3112.8654	3113.0736	3132.521	3183.8855	3203.467	3215.5349	3812.0911
OC1CC2(C1)OC1CC21	O[C@H]1C[C@@]2(C1)O[C@H]1C[C@@H]21	
InChI=1S/C7H10O2/c8-4-2-7(3-4)5-1-6(5)9-7/h4-6,8H,1-3H2	InChI=1S/C7H10O2/c8-4-2-7(3-4)5-1-6(5)9-7/h4-6,8H,1-3H2/t4-,5-,6+,7-/m1/s1
