17
gdb 14403	3.37302	2.59154	2.07547	1.3026	66.97	-0.2308	0.0808	0.3115	733.1595	0.144316	-363.815067	-363.808916	-363.807972	-363.844894	25.51	
C	 0.046985549	 1.5003867161	-0.1069832476	-0.516413
C	-0.0417737346	 0.0090407292	-0.0455032094	 0.483278
O	 0.4425350037	-0.7240915463	-1.1754000121	-0.326433
C	-0.2369227524	-1.8690762844	-0.5834776955	 0.049525
C	 0.6739112791	-2.1605820091	 0.6206338805	-0.218581
C	 0.3431831692	-0.809221666	 1.2929713492	-0.095432
N	-1.1187282409	-0.8829128497	 1.5727667095	-0.311794
C	-1.2874927059	-0.8843091886	 0.1180820663	-0.101601
H	 1.0932617244	 1.8238599553	-0.1216748521	 0.128559
H	-0.4422522768	 1.8820851118	-1.0079159451	 0.12822
H	-0.43781952	 1.9358587998	 0.771048698	 0.140074
H	-0.4946304416	-2.6484890166	-1.2980417314	 0.078319
H	 0.3771097007	-3.0122247344	 1.2407831953	 0.089639
H	 1.7109259278	-2.2762803715	 0.2987951164	 0.11117
H	 0.9890369742	-0.4172908815	 2.0779222459	 0.071895
H	-1.4058915513	-1.7384129912	 2.048227521	 0.209043
H	-2.2675890246	-0.7195015728	-0.328202289	 0.08053
207.3863	243.7355	272.6223	451.6388	504.1504	530.3426	614.7818	705.9953	746.3117	780.507	826.4638	863.7956	885.0486	918.9806	935.8636	955.7055	971.5662	997.5572	1019.495	1035.7739	1090.2404	1113.1244	1145.2501	1151.5593	1179.237	1223.7967	1239.2302	1258.8888	1295.0865	1319.8966	1335.48	1371.2267	1418.2926	1475.0979	1480.1842	1492.7279	3039.1409	3056.9198	3106.5543	3120.1088	3123.9862	3124.6409	3127.1126	3143.2331	3448.7401
CC12OC3CC1NC23	C[C@@]12O[C@H]3C[C@@H]1N[C@@H]23	
InChI=1S/C6H9NO/c1-6-4-2-3(8-6)5(6)7-4/h3-5,7H,2H2,1H3	InChI=1S/C6H9NO/c1-6-4-2-3(8-6)5(6)7-4/h3-5,7H,2H2,1H3/t3-,4-,5+,6+/m0/s1
