23
gdb 115950	3.12129	1.22771	1.01872	1.33	85.14	-0.2463	0.0775	0.3238	1283.5009	0.207541	-388.29553	-388.286774	-388.28583	-388.329399	33.694	
C	-0.0318950272	 1.5806401828	-0.1414310287	-0.379716
C	 0.0248421427	 0.059874655	 0.0346753039	-0.200907
C	-1.3457422012	-0.596708275	-0.055747875	 0.141915
O	-1.8932346087	-0.3821470284	-1.3591983512	-0.265789
C	-3.02881195	-1.2330049591	-1.4554086201	-0.093421
C	-2.6355671789	-2.5438257081	-0.7615736903	-0.029731
C	-1.6890089128	-3.4799168561	-1.5632643428	-0.217756
C	-0.4834660915	-3.0127466199	-0.7024678546	-0.224168
C	-1.4313075391	-2.1167946574	 0.1499644684	-0.046302
H	 0.9677804001	 2.0222081131	-0.0863629624	 0.106803
H	-0.4693945651	 1.8382469697	-1.1093150205	 0.136
H	-0.6460600363	 2.0460584955	 0.6376779522	 0.109361
H	 0.6820122317	-0.3750872314	-0.7257958823	 0.104212
H	 0.4589417058	-0.1912926935	 1.0106073904	 0.093332
H	-2.0119815683	-0.1225954556	 0.6906713417	 0.053667
H	-3.8930820013	-0.7747777662	-0.9461292634	 0.083007
H	-3.27409541	-1.3485091589	-2.5155854479	 0.102821
H	-3.4880341718	-3.0310067871	-0.2846379747	 0.065981
H	-1.9275354456	-4.5410298247	-1.4583635045	 0.096844
H	-1.6168010536	-3.2497651103	-2.6302163404	 0.098642
H	 0.0106650618	-3.8061403395	-0.1370907344	 0.096431
H	 0.2808264616	-2.4660549867	-1.2585576042	 0.104604
H	-1.4888322823	-2.3840091281	 1.2068529109	 0.06417
57.2395	93.4032	154.2932	193.5091	231.8532	289.9614	359.7822	391.2538	497.6897	611.3274	683.1507	747.207	756.097	774.8612	831.9125	859.154	881.7507	919.462	952.7002	963.7194	982.4766	1011.5077	1035.7956	1059.7249	1069.519	1111.9279	1127.1732	1145.2959	1179.9652	1182.8326	1226.9042	1241.1212	1260.315	1270.2674	1277.1251	1302.2291	1318.4838	1328.272	1340.5122	1355.9992	1396.8286	1408.0495	1417.3266	1472.3311	1477.2678	1492.721	1497.2013	1508.3542	1509.3964	2912.4295	2963.7933	3032.0259	3035.8908	3052.7996	3066.2136	3074.6652	3079.662	3081.8047	3093.677	3100.6743	3102.0831	3122.7122	3124.3691
CCC1OCC2CCC12	CC[C@H]1OC[C@H]2CC[C@@H]12	
InChI=1S/C8H14O/c1-2-8-7-4-3-6(7)5-9-8/h6-8H,2-5H2,1H3	InChI=1S/C8H14O/c1-2-8-7-4-3-6(7)5-9-8/h6-8H,2-5H2,1H3/t6-,7-,8-/m1/s1
