22
gdb 9851	2.99664	1.56932	1.24421	1.1668	78.69	-0.2475	0.0842	0.3316	1099.7807	0.198099	-350.189488	-350.179783	-350.178839	-350.223681	35.879	
C	 0.0113126897	 1.4909121989	-0.2235448355	-0.234625
O	-0.1610815773	 0.0948388698	-0.2229773721	-0.248111
C	 0.6899385972	-0.6165966877	-1.1159305343	 0.070369
C	 2.0838284493	-0.7954920554	-0.5018241049	-0.401572
C	 0.0196054598	-1.9478996778	-1.4540240391	 0.357404
C	 0.7692030381	-2.7883628791	-2.4716383442	-0.472238
C	-0.7375478508	-2.6656630779	-0.3633733563	-0.293553
C	-1.4878385738	-1.9977255168	-1.4937709116	-0.307423
H	 1.0036142402	 1.7977440847	 0.1386593645	 0.105811
H	-0.1339172337	 1.9180186359	-1.2282770457	 0.104099
H	-0.7433775083	 1.9083890707	 0.4481203343	 0.125986
H	 0.7833706069	-0.0364024818	-2.051424619	 0.05939
H	 2.022790201	-1.4194394266	 0.394840685	 0.124818
H	 2.7717685999	-1.2671911161	-1.2087933215	 0.117512
H	 2.5158404993	 0.1695985804	-0.2219577798	 0.112158
H	 1.7407232943	-3.1267324274	-2.0961608745	 0.116867
H	 0.191486578	-3.6804906799	-2.7312118833	 0.114323
H	 0.945516098	-2.2287627307	-3.3988147026	 0.111089
H	-0.6916839832	-3.7496372531	-0.3397574727	 0.09939
H	-0.7928499203	-2.1906043148	 0.6089039061	 0.122157
H	-2.0288883154	-1.0914018285	-1.2538562066	 0.118028
H	-1.951368339	-2.6254055166	-2.2479281462	 0.09812
71.543	73.4814	189.5423	194.9488	207.0824	226.0272	287.8924	323.2788	351.1792	372.0291	423.5521	464.1556	534.7234	712.6476	794.6784	847.8864	875.1074	916.235	926.7997	954.9804	1014.0602	1050.8172	1072.7337	1083.6198	1086.5185	1115.346	1136.4365	1159.264	1185.3392	1195.6683	1220.6895	1288.0837	1349.1001	1361.1801	1385.7903	1402.6831	1418.6731	1455.415	1477.3764	1483.7793	1490.7943	1491.4076	1496.334	1503.3183	1510.2673	1514.3475	2939.2719	2976.5353	3022.0454	3023.3929	3045.112	3082.3526	3101.149	3108.3394	3114.158	3122.2216	3131.6941	3137.0089	3220.0716	3235.3922
COC(C)C1(C)CC1	CO[C@@H](C)C1(C)CC1	
InChI=1S/C7H14O/c1-6(8-3)7(2)4-5-7/h6H,4-5H2,1-3H3	InChI=1S/C7H14O/c1-6(8-3)7(2)4-5-7/h6H,4-5H2,1-3H3/t6-/m0/s1
