16
gdb 7056	2.76816	1.15493	0.85066	4.3859	71.23	-0.2652	0.0048	0.2699	1333.6483	0.126942	-383.741241	-383.731539	-383.730595	-383.778063	31.746	
C	 0.2793387848	 1.181850966	-0.0863321488	-0.497952
C	 0.0859355673	-0.2594000694	-0.037771346	 0.016973
C	-0.0715503556	-1.452471063	-0.0027581379	 0.144485
C	-0.262986924	-2.8994510499	 0.0373432704	-0.072913
C	-1.7312272893	-3.3052123485	 0.1463411307	-0.388855
O	 0.2413193884	-3.5222496925	-1.1740602664	-0.179163
C	 1.5763546136	-3.6663362778	-1.2724873426	 0.177429
O	 2.1028585872	-4.1397991051	-2.2343314514	-0.27438
H	 0.9777122623	 1.5162549915	 0.6882074905	 0.154015
H	 0.6851277255	 1.4880105913	-1.0564661332	 0.16009
H	-0.6664274208	 1.7138935616	 0.0617294975	 0.155033
H	 0.2916000975	-3.317287396	 0.8890766046	 0.113971
H	-2.1645574224	-2.8894001733	 1.0590488169	 0.132099
H	-2.2895281046	-2.9264052281	-0.7124958914	 0.144957
H	-1.8144950698	-4.3944597957	 0.1719926998	 0.132161
H	 2.1192779598	-3.312650261	-0.3749015326	 0.082051
19.2982	41.9959	101.1918	129.9075	161.2509	217.3331	255.285	297.2936	338.5442	412.6991	484.3315	551.7268	657.9502	740.3668	930.753	1005.8503	1042.8835	1050.8541	1053.1532	1084.2247	1112.9734	1172.9666	1214.9143	1342.9359	1357.6485	1406.9548	1413.8646	1439.3694	1475.1532	1476.7196	1483.175	1494.4401	1865.6489	2371.4172	2953.3682	3008.1073	3031.5368	3055.0514	3094.6956	3095.8519	3135.8883	3141.3567
CC#CC(C)OC=O	CC#C[C@@H](C)OC=O	
InChI=1S/C6H8O2/c1-3-4-6(2)8-5-7/h5-6H,1-2H3	InChI=1S/C6H8O2/c1-3-4-6(2)8-5-7/h5-6H,1-2H3/t6-/m1/s1
