22
gdb 63657	4.09759	0.83556	0.80102	1.7506	83.84	-0.2331	0.0907	0.3238	1553.7898	0.191863	-404.30462	-404.294667	-404.293723	-404.339871	36.775	
C	-0.0333940292	 1.4704162406	-0.1245370399	-0.45607
C	 0.0073024821	-0.0212231698	 0.1362766287	 0.395807
C	-0.9623801232	-0.8316615889	-0.7000234829	-0.451367
O	 1.3212217347	-0.5997388642	 0.2429598355	-0.298658
C	 0.4843772427	-0.5913600962	 1.4101857746	 0.021965
C	 0.9643709525	 0.1996988614	 2.6030821969	-0.195572
N	 1.8791699316	-0.614194155	 3.3983108934	-0.067996
C	 3.2744660327	-0.604298077	 2.9632300792	-0.209309
C	 2.8581365312	 0.1136520461	 4.1991833485	-0.224426
H	 0.7273069739	 2.0066073096	 0.4438942026	 0.126004
H	 0.1399771643	 1.6665896504	-1.1883799556	 0.124323
H	-1.0161529465	 1.8810330754	 0.1318566342	 0.120342
H	-0.771605301	-0.671894415	-1.7670023016	 0.122938
H	-0.8592945263	-1.8988618902	-0.49034033	 0.128021
H	-1.9966592439	-0.5330021935	-0.4969554345	 0.118353
H	 0.1074482311	-1.5791192637	 1.6830513826	 0.090647
H	 1.4282791659	 1.1420763327	 2.2703585202	 0.086415
H	 0.1050202954	 0.4566347086	 3.2364723672	 0.105548
H	 3.7926197459	-1.556505189	 3.0272341842	 0.116694
H	 3.5268139684	-0.0053974896	 2.0912808458	 0.123535
H	 2.8413628496	 1.2020624857	 4.1620994748	 0.106723
H	 3.0685451484	-0.3032284984	 5.1799564661	 0.116084
53.8488	79.1709	125.6546	164.2084	191.785	236.5271	273.2537	326.0376	373.5066	387.1822	434.1029	487.4588	538.04	700.7113	764.9547	815.1376	837.5242	894.9747	905.1724	945.0443	972.7429	998.0711	1027.9461	1036.6183	1082.2711	1109.2234	1116.224	1119.1805	1140.8807	1156.2403	1172.8296	1187.0127	1262.291	1278.6541	1318.6875	1343.1749	1373.9085	1410.2025	1420.0507	1465.8788	1472.6797	1478.279	1487.0116	1493.967	1501.484	1519.696	1526.2511	2969.7754	3032.4653	3038.8643	3039.2316	3092.3809	3093.192	3094.0526	3098.301	3109.7853	3125.0797	3142.1079	3179.0267	3197.9449
CC1(C)OC1CN1CC1	CC1(C)O[C@H]1CN1CC1	
InChI=1S/C7H13NO/c1-7(2)6(9-7)5-8-3-4-8/h6H,3-5H2,1-2H3	InChI=1S/C7H13NO/c1-7(2)6(9-7)5-8-3-4-8/h6H,3-5H2,1-2H3/t6-/m0/s1
