16
gdb 41060	3.27485	2.20717	1.91553	2.1206	69.3	-0.2257	0.0435	0.2692	775.9921	0.126324	-400.592739	-400.587026	-400.586082	-400.622383	24.656	
C	 0.0326240719	 1.4837083022	-0.2199420957	-0.185595
O	 1.4357896497	 1.510028972	 0.2230000941	-0.330201
C	 1.3315391497	 0.1397362121	 0.6156191787	 0.348496
C	 0.819356197	-0.3171138313	 2.0151815309	-0.310845
C	-0.2513598606	-1.058836442	 1.1589330529	-0.149824
C	 0.5516984023	-1.9424761727	 0.1527677045	-0.02785
C	 1.7024902259	-1.0664404107	-0.2425896707	-0.125828
N	 0.4094201677	-1.0499358661	-1.0401630144	-0.206006
C	-0.0525820022	-0.02920996	 0.0031291437	 0.225995
H	-0.6044216875	 2.1060681994	 0.4183834882	 0.119029
H	-0.0668319472	 1.7950064328	-1.2642867417	 0.133183
H	 1.4713003412	-0.909337236	 2.6616804053	 0.105556
H	 0.3983243598	 0.5245329066	 2.5711875435	 0.115891
H	-1.1914820632	-1.4457495873	 1.551455762	 0.081258
H	 0.5447997185	-3.0202888329	 0.0542045045	 0.105866
H	 2.643332097	-1.4260950161	-0.6432953058	 0.100875
242.7894	337.5606	382.5386	474.8777	550.5907	594.5023	727.2632	747.7057	779.9299	798.7277	827.8384	839.2405	864.1247	896.2857	925.7466	931.1791	973.2393	999.4739	1036.7872	1037.8493	1085.8775	1108.9933	1120.4237	1144.0249	1166.3844	1181.3607	1195.69	1219.0655	1236.5588	1285.9737	1295.1747	1319.797	1337.7508	1479.8185	1493.8702	3033.0621	3061.8996	3093.4278	3115.5716	3124.9823	3177.9205	3203.954
C1OC23CC4C5C2N5C134	C1O[C@]23C[C@@H]4[C@@H]5[C@H]2N5[C@]134	
InChI=1S/C7H7NO/c1-3-4-5-7(1)6(3,2-9-7)8(4)5/h3-5H,1-2H2	InChI=1S/C7H7NO/c1-3-4-5-7(1)6(3,2-9-7)8(4)5/h3-5H,1-2H2/t3-,4-,5-,6+,7-,8?/m1/s1
