23
gdb 60118	3.77005	0.83107	0.81491	1.2445	88.68	-0.2254	0.0336	0.259	1571.456	0.205348	-388.313541	-388.303477	-388.302533	-388.349252	37.07	
C	-0.0783758173	 1.5896886018	 0.152112558	-0.393016
C	-0.076266077	 0.0841783101	-0.1176031589	 0.149791
O	 0.9551903651	-0.5710801995	 0.6137096495	-0.428695
C	-1.4571229881	-0.5488543799	 0.1480960797	-0.360255
C	-1.4744152546	-2.0410230438	 0.0062396349	 0.386593
C	-1.8300427334	-2.9272993222	 0.9388073664	-0.1843
C	-1.6892847578	-4.3561583311	 0.473694895	-0.241557
C	-1.48945738	-4.2022036367	-1.0565508158	-0.208533
C	-1.0217818742	-2.7399381455	-1.2618466025	-0.300947
H	 0.9132514413	 2.0084940469	-0.0383815088	 0.122799
H	-0.8040727662	 2.1070039833	-0.4846191708	 0.111503
H	-0.3407966782	 1.7964966658	 1.1968722739	 0.105632
H	 0.1901927223	-0.0855364293	-1.1680799012	 0.091047
H	 0.670380761	-0.6351775401	 1.5319865517	 0.275838
H	-1.7905100537	-0.2689991206	 1.157400171	 0.088642
H	-2.1733192406	-0.09229925	-0.5507745	 0.103423
H	-2.1536896408	-2.6677203573	 1.9422937387	 0.074348
H	-0.8234976662	-4.8369507397	 0.9520200191	 0.103122
H	-2.557533653	-4.9776739144	 0.7217927547	 0.097156
H	-0.7905761051	-4.9335307582	-1.4703708078	 0.094974
H	-2.448862906	-4.3506851841	-1.5626214705	 0.101424
H	-1.4404859387	-2.2881838576	-2.1697464578	 0.091868
H	 0.0705108814	-2.6684769279	-1.3551501587	 0.119143
50.6384	61.6714	111.3664	146.3057	187.3076	238.8779	259.3828	301.6399	337.8515	434.4764	459.0451	492.6326	637.8282	681.3036	807.1126	831.8067	847.766	882.784	896.235	912.2971	926.1189	945.924	965.0267	1035.5109	1049.18	1068.7419	1096.0009	1139.5727	1148.7607	1171.1888	1183.4296	1233.2203	1247.7629	1284.1843	1311.3089	1323.2994	1327.2688	1334.6675	1367.1399	1380.1694	1404.1591	1423.4141	1469.6624	1484.413	1488.7954	1490.9914	1495.3477	1507.3949	1718.5894	2995.2332	3001.0468	3013.3731	3024.7873	3027.27	3037.8743	3045.3521	3046.0939	3059.04	3094.5657	3099.6699	3118.2813	3174.7075	3800.502
CC(O)CC1=CCCC1	C[C@@H](O)CC1=CCCC1	
InChI=1S/C8H14O/c1-7(9)6-8-4-2-3-5-8/h4,7,9H,2-3,5-6H2,1H3	InChI=1S/C8H14O/c1-7(9)6-8-4-2-3-5-8/h4,7,9H,2-3,5-6H2,1H3/t7-/m1/s1
