17
gdb 42885	2.31064	1.81658	1.56184	2.4008	68.1	-0.2282	-0.0466	0.1816	938.2605	0.136769	-458.940644	-458.93332	-458.932376	-458.972257	28.688	
O	 0.098363779	 0.0598711717	-0.0962152274	-0.29169
C	-0.0000217536	 1.2494169267	-0.0763400304	 0.356369
C	-1.1944763339	 2.246933285	 0.0775967432	 0.011444
C	-0.1530644515	 3.2015342822	 0.7470349102	-0.297264
C	 1.014293032	 2.4314138591	 0.0601042252	 0.012406
O	 1.4567815205	 2.9314842723	-1.1877037817	-0.262216
C	 0.4828961127	 3.538454941	-2.0284810398	-0.088827
C	-0.7951314046	 2.7263108343	-2.2471720283	-0.102648
O	-1.7034661117	 2.7258673993	-1.1513577005	-0.261856
H	-2.0500380914	 1.9226228607	 0.6729080832	 0.104861
H	-0.2666961983	 4.2630072304	 0.5283305311	 0.123729
H	-0.1183887448	 3.0567880512	 1.8303501433	 0.120458
H	 1.9146175097	 2.2314165945	 0.644327424	 0.106605
H	 0.2139571395	 4.5390391973	-1.6601002261	 0.105462
H	 0.9860323573	 3.6621981829	-2.9926193527	 0.120814
H	-1.352079839	 3.1728157121	-3.0763073793	 0.119488
H	-0.529710752	 1.6959903896	-2.5304057443	 0.122866
116.4154	193.4911	232.6373	321.428	364.4548	369.8032	437.5908	471.9436	554.944	591.3198	760.381	791.239	826.1165	854.0133	907.689	921.9806	952.617	1029.4989	1036.6647	1068.2806	1098.9391	1106.6025	1135.6598	1170.2706	1190.226	1237.063	1247.3068	1270.5554	1325.525	1346.2717	1366.9426	1396.6064	1410.4481	1455.7231	1486.6992	1496.3619	1891.4879	2992.9226	3006.1427	3073.277	3084.456	3091.7862	3100.6152	3105.1647	3145.2444
O=C1C2CC1OCCO2	O=C1[C@H]2C[C@@H]1OCCO2	
InChI=1S/C6H8O3/c7-6-4-3-5(6)9-2-1-8-4/h4-5H,1-3H2	InChI=1S/C6H8O3/c7-6-4-3-5(6)9-2-1-8-4/h4-5H,1-3H2/t4-,5+
