20
gdb 22704	2.27173	1.3846	1.03526	1.2616	83.63	-0.2332	0.0385	0.2716	1239.8386	0.170202	-403.05758	-403.048582	-403.047638	-403.091316	34.207	
C	-0.0519183207	 1.547592359	 0.0156843071	-0.387786
C	 0.008569023	 0.0166275347	-0.0601062611	-0.314083
C	 0.7171590888	-0.4819454173	-1.2906896845	 0.255342
C	 2.2023613283	-0.2150062638	-1.7520373705	-0.262494
C	 1.6073676253	-1.1167291424	-2.8862659858	-0.14271
C	 0.9711720248	-1.9706529613	-1.737156462	-0.27757
C	 0.3695094703	-0.2490875929	-2.753065065	 0.480078
N	-0.5241470044	 0.3692891206	-3.3902146053	-0.338449
O	-0.3416735474	 0.2262883699	-4.7938389334	-0.404729
H	 0.9526817433	 1.981882117	 0.0526609939	 0.115968
H	-0.563549616	 1.9581477805	-0.8595506174	 0.143718
H	-0.5893186751	 1.8732738943	 0.911100172	 0.111933
H	 0.5111592859	-0.3862823404	 0.8283101088	 0.099528
H	-1.008711129	-0.3943005205	-0.0535919023	 0.109683
H	 2.4662120501	 0.8098703871	-2.0190280311	 0.10971
H	 2.9707488605	-0.6902423737	-1.1349910441	 0.096867
H	 2.0978031477	-1.4673154228	-3.7896973926	 0.097902
H	 1.6842950553	-2.5249445582	-1.119760844	 0.096934
H	 0.092848066	-2.5691474583	-1.9872799762	 0.108386
H	-1.0810680465	 0.7381153788	-5.1377766164	 0.301771
75.8936	132.4019	146.2911	192.2109	228.8973	291.128	310.148	363.6364	421.3544	487.4772	556.473	655.4812	721.9342	746.417	779.9441	801.909	858.0791	920.0942	927.0325	938.5657	990.1913	1015.3801	1024.4962	1029.7026	1081.5553	1082.6083	1102.8828	1149.5614	1178.2122	1201.5696	1207.933	1225.6586	1305.1397	1324.738	1381.7398	1410.1658	1415.1487	1481.4831	1491.3872	1499.7133	1509.5798	1530.8139	1823.2032	3023.433	3038.8063	3050.058	3052.999	3056.657	3105.9123	3119.4546	3126.6322	3130.0913	3164.8711	3822.9054
CCC12CC(C1)C2=NO	CC[C@@]12C[C@@H](C1)C2=NO	
InChI=1S/C7H11NO/c1-2-7-3-5(4-7)6(7)8-9/h5,9H,2-4H2,1H3	InChI=1S/C7H11NO/c1-2-7-3-5(4-7)6(7)8-9/h5,9H,2-4H2,1H3/t5-,7+
