14
gdb 5492	3.43273	1.92531	1.24295	6.1396	70.59	-0.2306	-0.0049	0.2257	915.2152	0.109104	-341.650002	-341.642696	-341.641751	-341.681743	26.62	
C	-0.0341762981	 1.498008285	 0.0598498706	-0.510095
C	-0.0101874948	 0.00213882	 0.0222846284	 0.173694
C	-0.0263598239	-0.8068053178	-1.0854482384	-0.148753
N	 0.0074072123	-2.1203834057	-0.6701745586	-0.240533
C	 0.0453271694	-2.1809098093	 0.686656252	-0.163515
C	 0.0351774161	-0.8791736628	 1.1582404778	 0.093635
C	 0.0648146222	-0.4894775709	 2.5185632544	 0.193583
N	 0.088716829	-0.1486893096	 3.6262497197	-0.358972
H	 0.8558819188	 1.901049236	 0.5552195092	 0.142029
H	-0.0747256111	 1.9141604782	-0.9502019999	 0.122784
H	-0.9024738677	 1.8711934397	 0.6136754685	 0.142139
H	-0.0590439008	-0.5554602857	-2.133285521	 0.132211
H	 0.0044531822	-2.9192562329	-1.2801716545	 0.273628
H	 0.0758185164	-3.1167991143	 1.2193098319	 0.148166
92.7954	135.9203	173.4967	261.0303	322.2069	499.3313	535.6466	536.8701	588.8249	635.709	674.0628	695.7614	741.1321	787.7398	908.9138	1008.2913	1067.0965	1089.8783	1114.2625	1203.0367	1258.3865	1340.0025	1375.1189	1423.1826	1475.6501	1480.8642	1494.1073	1553.7858	1611.9196	2339.7943	3034.6569	3087.4284	3116.0059	3266.3006	3277.7134	3684.2514
CC1=CNC=C1C#N	Cc1c[nH]cc1C#N	
InChI=1S/C6H6N2/c1-5-3-8-4-6(5)2-7/h3-4,8H,1H3	InChI=1S/C6H6N2/c1-5-3-8-4-6(5)2-7/h3-4,8H,1H3
