18
gdb 77233	3.24832	1.05853	0.89496	2.1557	73.29	-0.2405	-0.0409	0.1996	1294.1866	0.145338	-439.079107	-439.06977	-439.068826	-439.114283	32.715	
C	-0.3527316492	 1.318787125	 0.1356855241	-0.413794
C	 0.0591095105	-0.1452520155	 0.1887383903	-0.028696
C	 1.1632772017	-0.5822497466	-0.8363106206	-0.058878
N	 2.1591225317	-0.6692998931	 0.242224379	-0.33477
C	 1.106161536	-0.5673172392	 1.2765389028	-0.061943
C	 1.4184629738	 0.4213560438	 2.3814707313	 0.149286
O	 0.5994749028	 0.8287408455	 3.1655013499	-0.250756
C	 0.8463273602	-1.8912539238	-1.5151020839	 0.145729
O	 1.3678664587	-2.9393538193	-1.2242312712	-0.252726
H	 0.5204346007	 1.9780998279	 0.093096525	 0.129312
H	-0.9644066534	 1.5112741569	-0.7517188752	 0.117227
H	-0.934793744	 1.5887024839	 1.0208774143	 0.148556
H	-0.8270460446	-0.7846740677	 0.1814519176	 0.094907
H	 1.3871007533	 0.1662034533	-1.6108197461	 0.095671
H	 2.6477255653	-1.5607494264	 0.2273419987	 0.23524
H	 0.8291758163	-1.5196411271	 1.7499072037	 0.110996
H	 2.4814295182	 0.7531727879	 2.4044183236	 0.08903
H	 0.0741448918	-1.8298823456	-2.3148497731	 0.085611
47.9438	70.6064	107.0805	167.2242	211.352	251.7202	266.7975	311.8117	340.9374	447.4918	574.265	662.8393	752.7689	786.5822	818.1861	857.5052	956.9514	975.925	988.0609	1028.2011	1049.1327	1104.0209	1107.7169	1141.5404	1148.068	1219.9498	1240.9548	1268.9632	1312.242	1323.9349	1365.6165	1391.508	1411.2787	1413.0842	1426.9697	1493.5131	1497.2785	1816.3255	1824.2947	2881.0837	2881.95	3000.1215	3008.402	3036.7799	3072.1288	3105.927	3121.9538	3507.1351
CC1C(NC1C=O)C=O	C[C@H]1[C@@H](N[C@H]1C=O)C=O	
InChI=1S/C6H9NO2/c1-4-5(2-8)7-6(4)3-9/h2-7H,1H3	InChI=1S/C6H9NO2/c1-4-5(2-8)7-6(4)3-9/h2-7H,1H3/t5-,6-/m0/s1
