20
gdb 58555	2.21502	1.43434	1.36641	3.4318	74.59	-0.2191	0.0098	0.2289	1110.3342	0.169712	-440.291254	-440.281715	-440.280771	-440.325445	35.168	
C	 0.0832211358	 1.4974717344	-0.1686746153	-0.337107
N	 0.0082075459	 0.048343939	 0.018084717	-0.103113
C	 0.7493937355	-0.338384353	 1.2182339754	-0.348018
C	-1.3284655122	-0.5169388503	-0.0570401821	 0.146491
C	-2.1665738748	 0.061400525	-1.198836511	-0.468676
C	-1.4246653488	-2.0673907388	 0.0178894145	-0.120878
O	-2.2518969595	-1.9785597027	 1.2188059355	-0.246064
C	-2.1581079025	-0.6072034172	 1.2607596149	 0.415208
O	-2.5918094398	 0.1251111687	 2.0918472901	-0.336485
H	 1.1359119958	 1.7925745101	-0.1346258483	 0.122077
H	-0.3053831213	 1.7876525256	-1.145634963	 0.125454
H	-0.4531525693	 2.0675484285	 0.6084002699	 0.12131
H	 0.3325321477	 0.0961016795	 2.1423565668	 0.124872
H	 0.7708290833	-1.4239845141	 1.3340265719	 0.125252
H	 1.7845217824	-0.0000912962	 1.1193477285	 0.123736
H	-1.6163255218	-0.0016584281	-2.1427724469	 0.132851
H	-3.0962695387	-0.5046651568	-1.3010820009	 0.131391
H	-2.4366044834	 1.1029533058	-1.0137861594	 0.144036
H	-1.9708532208	-2.5482529159	-0.7960449941	 0.121001
H	-0.4974391534	-2.6035944235	 0.2195809566	 0.126663
67.601	121.4617	137.9099	218.0523	228.3185	236.4757	274.9665	346.3723	363.2682	417.1656	429.8256	449.9509	563.1724	662.7295	734.5667	771.0073	856.0299	901.1139	959.2232	967.9277	1015.1154	1065.8371	1089.1991	1117.271	1149.7995	1156.6938	1166.6833	1184.9621	1213.2277	1286.3532	1316.7646	1349.9438	1408.9773	1443.9945	1476.6873	1483.7712	1491.3715	1498.013	1501.7239	1509.6638	1522.4156	1533.6887	1921.3134	2968.166	2973.1502	3045.3909	3078.9742	3081.926	3084.4916	3117.1735	3123.7237	3129.4035	3137.2577	3144.5783
CN(C)C1(C)COC1=O	CN(C)[C@@]1(C)COC1=O	
InChI=1S/C6H11NO2/c1-6(7(2)3)4-9-5(6)8/h4H2,1-3H3	InChI=1S/C6H11NO2/c1-6(7(2)3)4-9-5(6)8/h4H2,1-3H3/t6-/m0/s1
