12
gdb 133509	4.29325	0.58718	0.57341	1.6169	57.06	-0.2752	-0.0486	0.2265	1787.7239	0.070968	-566.96225	-566.953184	-566.95224	-567.000827	29.648	
F	-0.5584922352	 0.3237249614	-0.5117630798	-0.068736
C	 0.0617992116	 1.3809804978	 0.0288815503	 0.265856
F	 1.3096808661	 1.0047339367	 0.3365361636	-0.067761
F	 0.1445554739	 2.3276399678	-0.9155131227	-0.069692
C	-0.6501635782	 1.8707589563	 1.2065898529	-0.150305
C	-1.2346922608	 2.2588857164	 2.1812837648	 0.116857
C	-1.9436373354	 2.7807579663	 3.3364080035	-0.432571
C	-2.3752289717	 4.2442502828	 3.1590881245	 0.170517
O	-2.4227703571	 5.0228210833	 4.0690543853	-0.218554
H	-2.8617852085	 2.197462471	 3.5019212222	 0.173592
H	-1.3474415583	 2.7048838061	 4.2510684271	 0.172503
H	-2.6631776265	 4.5200919441	 2.1228984182	 0.108294
3.0955	46.6667	80.5199	113.1383	174.0707	314.1065	373.1784	426.23	461.853	483.336	566.0802	615.5728	617.5604	724.271	784.453	1016.7054	1037.8258	1049.2428	1184.3436	1185.9613	1209.9691	1273.7019	1305.2882	1414.6572	1434.6464	1845.206	2388.7529	2916.9662	3014.1227	3089.7602
FC(F)(F)C#CCC=O	FC(F)(F)C#CCC=O	
InChI=1S/C5H3F3O/c6-5(7,8)3-1-2-4-9/h4H,2H2	InChI=1S/C5H3F3O/c6-5(7,8)3-1-2-4-9/h4H,2H2
