15
gdb 51999	4.48583	0.68313	0.66225	3.8242	65.23	-0.2698	-0.0587	0.2112	1633.8448	0.108214	-494.934918	-494.925371	-494.924426	-494.971573	31.435	
O	-0.2550471052	 1.4508456965	 1.068846668	-0.221945
C	 0.0121474258	 1.6072281386	-0.0908819407	 0.163291
C	 1.4384736691	 1.585380238	-0.6349284875	-0.388566
C	 1.6714011913	 2.7365417144	-1.6048105033	 0.357866
O	 0.9217839488	 2.965478377	-2.5214351284	-0.283137
C	 2.8829281513	 3.6212473651	-1.3135501977	-0.205693
O	 3.1782489829	 4.508144832	-2.3694180605	-0.164137
C	 2.3269851473	 5.5484465012	-2.5591330372	 0.191487
O	 2.4543500819	 6.312120494	-3.46329163	-0.263503
H	-0.7621246451	 1.7833713532	-0.8645512625	 0.118705
H	 2.1479174245	 1.5643838998	 0.1955880911	 0.136191
H	 1.5486014632	 0.6583625298	-1.214346473	 0.172073
H	 2.6978605949	 4.1499888552	-0.3646548608	 0.145627
H	 3.7721093641	 3.0018567255	-1.1641385578	 0.15789
H	 1.5472285451	 5.6157359898	-1.7783456495	 0.083849
27.9253	64.9454	81.5479	99.5755	172.6753	207.3638	278.0227	312.749	379.9687	460.1284	493.3585	617.4311	714.4612	780.1099	862.6466	919.7863	999.9411	1032.4327	1056.4373	1080.7062	1091.5865	1161.8444	1204.5479	1282.4805	1301.4044	1382.6356	1407.7158	1428.1917	1440.6939	1465.9948	1810.9212	1846.0456	1882.1753	2939.8932	2969.5553	2996.2732	3033.2442	3095.9924	3117.2629
O=CCC(=O)COC=O	O=CCC(=O)COC=O	
InChI=1S/C5H6O4/c6-2-1-5(8)3-9-4-7/h2,4H,1,3H2	InChI=1S/C5H6O4/c6-2-1-5(8)3-9-4-7/h2,4H,1,3H2
