18
gdb 9261	3.7746	0.99851	0.89534	5.2763	69.18	-0.242	0.0257	0.2677	1305.3683	0.152834	-381.116423	-381.106958	-381.106014	-381.151405	33.017	
C	-0.3677927894	 1.8166600374	-0.0063197086	-0.407646
C	 0.1018368905	 0.3587664632	 0.0210134267	 0.046
C	-1.0886895537	-0.6189778739	 0.093860014	-0.080623
O	-1.8626834065	-0.6010694554	-1.0988726133	-0.418937
N	 0.9631726278	 0.1215807969	-1.1441496823	-0.289291
C	 1.781276938	-1.0827520569	-1.0559844681	-0.275309
C	 2.6549368787	-1.2032013161	-2.2281307591	 0.263454
N	 3.3316227177	-1.3151001618	-3.1573396966	-0.300419
H	 0.4904375256	 2.4911623442	-0.0257154353	 0.136764
H	-0.9622052301	 2.0195098762	-0.9047763289	 0.11193
H	-0.9819864449	 2.0503801382	 0.8695238621	 0.113552
H	 0.7138156656	 0.2057346837	 0.9207207427	 0.08009
H	-0.73085587	-1.6488569091	 0.19687505	 0.111437
H	-1.7030211833	-0.4013304292	 0.9801464356	 0.094522
H	-2.399730164	 0.1969556019	-1.0981234762	 0.291455
H	 0.3688628432	 0.0618241619	-1.9671768001	 0.233771
H	 2.4170243832	-1.0106635192	-0.1646674599	 0.153136
H	 1.2205754016	-2.0295693721	-0.9652429428	 0.136114
46.6789	72.6804	126.2318	143.8064	234.5009	258.2928	277.6816	316.3883	361.2867	390.8493	448.996	545.5595	632.4231	776.4178	834.01	915.164	927.5492	950.7353	991.9212	1027.4136	1085.6804	1114.5094	1130.0386	1177.2813	1226.7288	1255.8198	1327.7138	1343.2306	1378.6178	1403.7892	1404.2038	1416.866	1482.5218	1488.082	1496.9458	1507.2242	1514.7589	2368.1897	2951.0009	2996.4448	3019.2354	3033.5776	3048.5587	3073.7508	3097.4195	3132.0586	3504.5223	3829.169
CC(CO)NCC#N	C[C@@H](CO)NCC#N	
InChI=1S/C5H10N2O/c1-5(4-8)7-3-2-6/h5,7-8H,3-4H2,1H3	InChI=1S/C5H10N2O/c1-5(4-8)7-3-2-6/h5,7-8H,3-4H2,1H3/t5-/m0/s1
