18
gdb 63608	3.2024	1.10673	0.98183	3.4672	81.67	-0.2544	-0.038	0.2165	1269.8393	0.144231	-401.919506	-401.909756	-401.908812	-401.954047	35.54	
C	-0.2816631997	 1.5327065449	-0.1877433595	-0.445331
C	 0.1312508383	 0.0824195023	-0.0383726244	 0.307709
C	-0.8175046549	-0.7844389676	 0.7649917056	-0.444634
C	 0.9466799231	-0.5653200923	-1.1329949714	-0.290498
N	 1.5614770306	-0.1405702779	 0.1079017884	-0.103669
C	 2.1866037918	-0.9315674024	 1.0535617815	 0.248629
O	 1.9474876167	-0.8745318081	 2.2425602569	-0.338174
C	 3.227531387	-1.7886059994	 0.5045684081	 0.259349
C	 4.0802680013	-2.5230362214	 0.0802347623	-0.436655
H	 0.4684093194	 2.0972641131	-0.7466548824	 0.127765
H	-1.2396971296	 1.6059060847	-0.7130830269	 0.121386
H	-0.3980422012	 2.0003696933	 0.7953336566	 0.134907
H	-1.8248156685	-0.7257853178	 0.3403305806	 0.119225
H	-0.5048916302	-1.8315553179	 0.7671938794	 0.126291
H	-0.8590412109	-0.4483109335	 1.8046594668	 0.14911
H	 0.8267714222	-1.6340287805	-1.2952795085	 0.129748
H	 1.2204670174	 0.0052723743	-2.0170422112	 0.123436
H	 4.8392062672	-3.1726785738	-0.2823700118	 0.211405
63.3162	111.1535	142.6226	186.8208	192.2219	236.7417	267.6481	341.8572	372.8967	390.8115	412.1583	551.9344	557.4145	653.0178	691.9818	693.7035	756.1233	781.8043	892.8259	912.647	965.7692	1000.5473	1026.9638	1093.3684	1116.9017	1134.268	1151.2443	1283.8543	1288.8567	1410.6228	1416.0549	1428.6735	1475.485	1484.2605	1495.0044	1503.4942	1516.5298	1748.4677	2221.8169	3037.5302	3044.6998	3100.7382	3104.4514	3114.6976	3124.5453	3126.0778	3189.2175	3496.2343
CC1(C)CN1C(=O)C#C	CC1(C)CN1C(=O)C#C	
InChI=1S/C7H9NO/c1-4-6(9)8-5-7(8,2)3/h1H,5H2,2-3H3	InChI=1S/C7H9NO/c1-4-6(9)8-5-7(8,2)3/h1H,5H2,2-3H3
