18
gdb 38736	2.44415	2.425	2.38119	0.2959	71.61	-0.23	0.0903	0.3202	775.3693	0.153311	-401.950366	-401.945019	-401.944075	-401.979685	24.302	
C	-0.0113369692	 1.56838981	 0.0267686996	-0.221161
C	 1.5018807214	 1.8473272493	-0.0221072963	 0.064722
O	 2.0036533197	 1.4802782793	-1.3138670659	-0.271989
C	 1.9735041628	 0.0471923053	-1.3363794409	 0.064722
C	 0.5104046728	-0.4230423372	-1.427171077	-0.221161
C	 0.006783619	 0.028725411	-0.0422763408	-0.013201
N	 1.1131831567	-0.3728493573	 0.9047743468	-0.126246
C	 2.0478985103	 0.7810121952	 0.9388477383	-0.055841
C	 2.3534081355	-0.3850592529	 0.0874984418	-0.055839
H	-0.435736421	 1.9088769334	 0.9774303924	 0.103262
H	-0.5521608666	 2.0418690617	-0.7964711591	 0.104808
H	 1.8015433704	 2.8751016077	 0.184653517	 0.07893
H	 2.6331025681	-0.2988593635	-2.1326490749	 0.07893
H	-0.0258008562	 0.0327955431	-2.2632885697	 0.104808
H	 0.4608372543	-1.5132414001	-1.5210470015	 0.103262
H	-0.9254057024	-0.443164797	 0.2695475858	 0.07734
H	 2.5351870419	 1.0217074918	 1.877126229	 0.092327
H	 3.1017890324	-1.1408886099	 0.2982094255	 0.092327
368.7863	374.5374	482.6484	568.9325	608.4994	609.0165	763.8556	782.2792	805.3027	821.7725	844.006	858.0248	873.9832	894.9277	909.1205	941.4001	945.3844	981.1341	1001.2463	1021.6959	1023.6438	1051.6702	1084.1851	1096.4333	1158.0218	1159.5439	1213.0723	1223.1925	1257.7908	1273.9524	1284.9365	1308.5896	1314.5011	1332.4844	1354.5147	1358.1813	1384.2187	1474.1657	1488.5777	3049.4159	3049.94	3105.0247	3107.0243	3111.9653	3113.8116	3117.0252	3166.1307	3177.1289
C1C2OC3CC1N1C2C31	C1[C@@H]2O[C@@H]3C[C@H]1N1[C@H]2[C@H]31	
InChI=1S/C7H9NO/c1-3-2-5-7-6(8(3)7)4(1)9-5/h3-7H,1-2H2	InChI=1S/C7H9NO/c1-3-2-5-7-6(8(3)7)4(1)9-5/h3-7H,1-2H2/t3-,4-,5+,6+,7-,8?
