23
gdb 120948	4.32477	0.88462	0.86255	1.4457	85.96	-0.2347	0.0948	0.3296	1491.8519	0.207118	-388.2785	-388.269848	-388.268904	-388.312218	33.801	
C	-0.0579807416	 1.50843035	-0.094105102	-0.382545
C	 0.0785282991	-0.0137515578	-0.0133873594	-0.159702
C	 0.6582081765	-0.4951812401	 1.3222253228	-0.200205
C	 0.8045421431	-2.0102178641	 1.3877825305	 0.149241
O	 1.6859812078	-2.5065874467	 0.3412426633	-0.300008
C	 2.6377210272	-3.2786591289	 1.0922344147	 0.120406
C	 1.7558456711	-4.0625338562	 2.0953856528	-0.238013
C	 1.5095267204	-2.6101760378	 2.6189256018	-0.083261
C	 3.0109768717	-2.3479386318	 2.2702425688	-0.236255
H	 0.9145687527	 2.0000517954	 0.0215895814	 0.112671
H	-0.4746350227	 1.820631834	-1.0569375266	 0.110629
H	-0.7163686436	 1.8928036156	 0.6934747046	 0.109542
H	-0.9035326957	-0.4800232016	-0.1695606794	 0.090246
H	 0.721562724	-0.3767873569	-0.8224218684	 0.117908
H	 1.6306738041	-0.0181218683	 1.4923639918	 0.093964
H	 0.0031663618	-0.1790111748	 2.1465317238	 0.08748
H	-0.1867034428	-2.4673400857	 1.2501124956	 0.067036
H	 3.3574090829	-3.7346619893	 0.4141047379	 0.076736
H	 0.9069461111	-4.6166038085	 1.6871529512	 0.0975
H	 2.3277507608	-4.676630924	 2.7931161546	 0.098553
H	 1.0804387419	-2.3977820433	 3.5975811284	 0.069457
H	 3.6891227548	-2.8115182681	 2.9886235023	 0.098981
H	 3.335207435	-1.3341996611	 2.0289273995	 0.099639
77.5072	84.5336	126.0849	231.7264	250.4544	310.2822	343.9921	487.5569	527.4043	542.917	655.4764	744.5522	819.8696	832.9306	841.8065	862.7543	874.5062	904.755	917.8889	944.4923	972.04	997.5068	1033.3864	1043.705	1048.5977	1060.6683	1089.4962	1111.9249	1134.3211	1140.861	1165.549	1210.4578	1240.9572	1248.1062	1259.7678	1285.683	1287.3415	1301.1131	1324.9292	1350.6516	1386.7152	1409.9226	1416.5922	1471.6799	1480.3057	1493.7814	1500.0738	1509.7332	1512.2203	2986.8482	3010.5762	3019.5795	3026.7924	3057.2131	3065.4315	3071.912	3077.9496	3096.1381	3099.7779	3123.5652	3132.2389	3136.1782	3140.5801
CCCC1OC2CC1C2	CCC[C@H]1O[C@@H]2C[C@H]1C2	
InChI=1S/C8H14O/c1-2-3-8-6-4-7(5-6)9-8/h6-8H,2-5H2,1H3	InChI=1S/C8H14O/c1-2-3-8-6-4-7(5-6)9-8/h6-8H,2-5H2,1H3/t6-,7+,8-/m1/s1
