21
gdb 115208	3.96864	0.95399	0.80842	3.8267	79.57	-0.2147	0.0329	0.2475	1443.7499	0.184782	-420.448349	-420.439193	-420.438249	-420.482505	34.304	
C	-0.0329980276	 1.5557475952	 0.1157190461	-0.382889
C	-0.0303743663	 0.0295618718	 0.0019439835	-0.191573
C	 0.682197217	-0.482259154	-1.254019693	 0.050492
C	 0.8485466321	-2.0079305895	-1.2243743107	-0.166734
N	 1.3437280286	-2.4968762722	-2.5042976917	-0.316596
C	 1.2579880256	-1.8641931813	-3.7124097543	 0.383942
O	 1.6369394077	-2.3815751691	-4.747309003	-0.377899
C	 0.6983122553	-0.4392285438	-3.6755075332	-0.286781
N	-0.0186223645	-0.0479115618	-2.4642651837	-0.290352
H	 0.9868192394	 1.9437650434	 0.2139162011	 0.113732
H	-0.4763222848	 2.0051497119	-0.7760419435	 0.137076
H	-0.6003755696	 1.8842235275	 0.991472305	 0.110791
H	 0.4482045044	-0.4130142949	 0.8845432871	 0.097927
H	-1.0634714788	-0.3459434955	-0.0033081835	 0.093271
H	 1.6855629953	-0.0337861612	-1.2991319922	 0.087452
H	 1.5523601875	-2.297912948	-0.4344051018	 0.11013
H	-0.1202853476	-2.4727904245	-0.9784790399	 0.097789
H	 1.6854791046	-3.4458014789	-2.5614148604	 0.244619
H	 1.5503175884	 0.2378978651	-3.8253982027	 0.135598
H	 0.0531817035	-0.3190256801	-4.5490647524	 0.134078
H	-0.94831398	-0.4602391703	-2.4719515566	 0.215927
69.5974	104.2011	153.5725	168.1332	203.4378	264.6528	349.0984	415.3789	430.4175	484.1034	505.9396	545.7384	646.2014	708.4879	754.897	791.9823	838.4723	886.4644	942.1421	980.5096	1010.9033	1018.5578	1097.3535	1103.0932	1127.3634	1157.5788	1171.5973	1240.9309	1264.7428	1288.1176	1321.966	1338.7102	1344.9103	1384.293	1388.7924	1398.5303	1409.4789	1458.0694	1473.227	1482.8475	1495.6943	1496.8078	1511.3825	1523.4229	1791.0046	2967.2348	3000.6303	3014.3118	3024.9101	3037.8721	3039.7333	3053.0701	3103.7087	3108.1021	3128.876	3488.5836	3600.171
CCC1CNC(=O)CN1	CC[C@H]1CNC(=O)CN1	
InChI=1S/C6H12N2O/c1-2-5-3-8-6(9)4-7-5/h5,7H,2-4H2,1H3,(H,8,9)	InChI=1S/C6H12N2O/c1-2-5-3-8-6(9)4-7-5/h5,7H,2-4H2,1H3,(H,8,9)/t5-/m0/s1
