16
gdb 67303	3.25529	1.60614	1.33381	2.3706	68.81	-0.2355	0.0755	0.3111	960.8155	0.1241	-437.753763	-437.746707	-437.745763	-437.78495	28.394	
O	-0.0860252827	 1.3301102484	 0.026503499	-0.47096
C	-0.0567524624	-0.0341189787	 0.0208781038	 0.310744
C	 0.8080573136	-1.0099594831	-0.870461601	-0.092452
N	 1.959449858	-0.9201248312	 0.086882606	-0.368945
C	 0.7456926125	-1.0115420366	 0.9652391597	-0.091754
C	-0.0738415762	-1.9571246834	 0.022014306	-0.196978
C	-1.2433141809	-0.9755218005	-0.0103913213	 0.469554
C	-2.6055897118	-0.9429621546	 0.499573404	-0.299107
O	-2.3153313919	-0.9608006154	-0.9197838155	-0.290432
H	 0.8284780518	 1.641465501	 0.0295367645	 0.299664
H	 0.9184479335	-1.0170994432	-1.9544495448	 0.097121
H	 2.4794668118	-1.8013108763	 0.1036424722	 0.211382
H	 0.7834036164	-1.0155250759	 2.054680588	 0.088049
H	-0.0678681203	-3.0442004624	 0.0215908996	 0.088846
H	-3.0681800378	-1.849730745	 0.8865433241	 0.117482
H	-3.0252743936	-0.0091775629	 0.8696828556	 0.127786
153.318	203.5072	259.1334	305.2082	345.846	412.0407	507.267	588.6797	599.7683	688.156	742.3061	807.8508	864.1042	872.8714	888.5809	903.3799	921.2108	942.0574	1000.2869	1037.8312	1058.4663	1088.9658	1107.0815	1114.1724	1120.87	1154.4076	1162.9096	1191.6354	1228.3691	1279.4649	1282.2296	1345.5634	1385.8108	1490.4309	1575.5376	3086.3578	3116.1982	3124.2899	3158.9069	3174.2221	3406.7	3777.7971
OC12C3NC1C3C21CO1	O[C@@]12[C@H]3N[C@@H]1[C@H]3[C@]12CO1	
InChI=1S/C6H7NO2/c8-6-3-2(4(6)7-3)5(6)1-9-5/h2-4,7-8H,1H2	InChI=1S/C6H7NO2/c8-6-3-2(4(6)7-3)5(6)1-9-5/h2-4,7-8H,1H2/t2-,3-,4+,5-,6-/m0/s1
