17
gdb 69998	3.09284	1.75358	1.64998	1.8627	65.69	-0.2524	0.0683	0.3207	895.1704	0.137069	-458.93446	-458.927647	-458.926703	-458.965334	27.7	
C	-0.0431633255	 1.517695715	 0.0167382342	-0.508668
C	 0.0714955426	 0.0234094324	 0.0303498945	 0.439742
O	-0.7888570736	-0.7143035809	 0.9092425961	-0.276685
C	 0.633982829	-0.8328369975	 1.0806234194	-0.058672
C	 1.2828858235	-1.9780441758	 0.2775309207	-0.007123
C	 0.1732575005	-2.8356876593	-0.364635093	-0.081397
O	-0.3341225314	-1.9401887457	-1.374451252	-0.253731
C	 0.4680431221	-0.7836509729	-1.2517250231	 0.077446
O	 1.7548371363	-1.2697254786	-0.8983064427	-0.253928
H	 0.8483038129	 1.9666243082	-0.4334160799	 0.134697
H	-0.9143056144	 1.8356733376	-0.5662100742	 0.13625
H	-0.1542457175	 1.9025593832	 1.0335330958	 0.135176
H	 1.0388297764	-0.4837487261	 2.0257174977	 0.103759
H	 2.1033466263	-2.5083562023	 0.7559808501	 0.092704
H	 0.5863892673	-3.7292532591	-0.8433164499	 0.105661
H	-0.6238918773	-3.104484192	 0.3307704403	 0.123475
H	 0.4930182928	-0.2330857963	-2.191476774	 0.091293
184.5607	199.7722	268.1048	311.7726	365.8227	480.878	554.7772	594.7043	607.3764	731.3784	777.1839	828.6394	845.9695	880.0675	895.9012	935.4825	953.0681	963.2596	989.3513	1012.2725	1033.9579	1076.374	1106.4829	1114.1544	1192.5539	1212.0989	1251.8951	1275.1601	1291.5941	1303.0936	1323.3646	1374.4208	1408.5547	1453.5365	1485.2755	1493.7957	1504.8496	3037.0864	3050.0104	3101.5776	3118.6899	3124.1896	3138.0626	3150.3101	3165.0826
CC12OC1C1COC2O1	C[C@]12O[C@H]1[C@H]1CO[C@@H]2O1	
InChI=1S/C6H8O3/c1-6-4(9-6)3-2-7-5(6)8-3/h3-5H,2H2,1H3	InChI=1S/C6H8O3/c1-6-4(9-6)3-2-7-5(6)8-3/h3-5H,2H2,1H3/t3-,4+,5-,6+/m1/s1
