18
gdb 87632	2.85239	1.23763	1.07502	3.5683	74.34	-0.2484	0.0295	0.2779	1183.4245	0.145891	-439.063379	-439.054447	-439.053503	-439.096968	33.497	
C	-0.2804435421	 1.4019789823	 0.0203181852	-0.408628
C	-0.0253412946	-0.0981298403	-0.0346819777	-0.214541
C	 1.2029265578	-0.5605102224	-0.8025215921	 0.427798
N	 1.6053542663	-0.4416344562	-1.9825921277	-0.547647
O	 1.7903820448	-1.1789295043	 0.2916929264	-0.283629
C	 0.6873649712	-0.776884577	 1.134104116	 0.440215
C	 0.8756193894	-0.3525067849	 2.5540258583	-0.401332
C	 0.1466746519	-1.6487656243	 2.2014450675	 0.010227
O	-1.2445097571	-1.7155746699	 2.2855028894	-0.419
H	 0.6113573439	 1.9444137424	 0.3474144879	 0.125936
H	-0.5577131991	 1.7706111084	-0.9709523592	 0.141534
H	-1.0976207201	 1.6301990272	 0.711511672	 0.123183
H	-0.9274291393	-0.6372919514	-0.3367084994	 0.124208
H	 2.5126208715	-0.8911347679	-2.1166355862	 0.227845
H	 1.865862171	-0.437403502	 2.9888715713	 0.130658
H	 0.2800324156	 0.4852991167	 2.9032144201	 0.125762
H	 0.6839970805	-2.5763349483	 2.3999536821	 0.10412
H	-1.4880078015	-1.7716941782	 3.2157845761	 0.293291
76.8111	126.6978	183.8722	214.0689	218.0584	257.4922	313.7981	361.1244	440.7203	493.0252	523.9901	567.2948	658.413	767.9742	821.2963	837.7507	865.9956	872.519	961.4832	971.6018	999.8619	1021.1338	1073.0753	1075.6587	1101.627	1133.5391	1155.7165	1186.1181	1226.7474	1277.0342	1304.0643	1328.8353	1374.7014	1408.492	1416.9361	1492.1387	1496.0267	1507.1764	1831.4633	3042.3949	3079.2067	3105.4039	3114.3888	3123.1596	3127.9122	3222.512	3476.9376	3802.5376
CC1C(=N)OC11CC1O	C[C@H]1[C]([NH])O[C@]21C[C@H]2O	
InChI=1S/C6H9NO2/c1-3-5(7)9-6(3)2-4(6)8/h3-4,7-8H,2H2,1H3	InChI=1S/C6H9NO2/c1-3-5(7)9-6(3)2-4(6)8/h3-4,7-8H,2H2,1H3/t3-,4+,6-/m0/s1
