21
gdb 101582	2.79017	0.87475	0.74918	3.17	76.14	-0.2676	0.007	0.2746	1600.8668	0.179425	-461.408	-461.397137	-461.396193	-461.444896	38.114	
C	-0.0229097352	 1.5665053553	 0.0890391953	-0.389995
C	-0.0562109354	 0.0365245202	 0.0675876103	-0.180285
C	-1.4639625193	-0.546948996	-0.0031822163	 0.141102
C	-1.4915811137	-2.0676514485	-0.0927861057	-0.411063
O	-2.1453139869	-0.1252918613	 1.2184034661	-0.251073
C	-3.4731737682	-0.0181036581	 1.1804731639	 0.415541
O	-4.1725098169	-0.244367582	 0.2183027171	-0.379431
C	-4.0530174848	 0.4382481047	 2.5090348248	-0.144644
O	-5.4467360902	 0.5323861141	 2.4352365694	-0.419842
H	 1.006190791	 1.9346044589	 0.1312036952	 0.117652
H	-0.4908323746	 1.9852264348	-0.8087292372	 0.118264
H	-0.5567389681	 1.9571100066	 0.9595061857	 0.128402
H	 0.4978869747	-0.3384084202	-0.8010956355	 0.104404
H	 0.4458727965	-0.3662623491	 0.9558422733	 0.107664
H	-2.0163188777	-0.1154238755	-0.8435849192	 0.110658
H	-0.9935937418	-2.5154746358	 0.7728950946	 0.124554
H	-2.5202787284	-2.4316737607	-0.1386608868	 0.142198
H	-0.9719797131	-2.3972806391	-0.9976609527	 0.123236
H	-3.7389835158	-0.2756509661	 3.2850648556	 0.123763
H	-3.5965562748	 1.4055025057	 2.7685758945	 0.122781
H	-5.6736719074	 0.287968022	 1.5253421876	 0.296114
48.0743	68.1026	89.1628	119.6898	151.8127	210.6464	230.0268	247.4415	311.7098	351.6356	372.891	410.8039	465.6615	496.496	593.2085	715.3353	774.0008	835.0456	889.5914	946.1928	979.6418	1005.226	1035.8725	1041.1564	1129.8771	1137.6056	1143.571	1200.8541	1242.9166	1262.9468	1300.2953	1317.1976	1332.579	1386.9997	1397.9806	1408.1889	1411.1035	1468.494	1475.1104	1489.8779	1498.0356	1498.6761	1502.5617	1509.2566	1795.329	2995.3052	3016.6298	3031.2862	3039.3769	3044.5286	3062.888	3077.1182	3106.4758	3116.3347	3121.7005	3133.3742	3714.4453
CCC(C)OC(=O)CO	CC[C@@H](C)OC(=O)CO	
InChI=1S/C6H12O3/c1-3-5(2)9-6(8)4-7/h5,7H,3-4H2,1-2H3	InChI=1S/C6H12O3/c1-3-5(2)9-6(8)4-7/h5,7H,3-4H2,1-2H3/t5-/m1/s1
