14
gdb 20196	3.63996	3.15874	2.37541	1.9896	64.4	-0.2411	-0.014	0.2271	623.7316	0.110574	-341.559913	-341.554708	-341.553764	-341.588787	21.673	
C	-0.0246834369	 1.4686322862	 0.0433361182	-0.065888
C	 1.2157988686	 1.984761125	 0.026688893	-0.067057
C	 2.2450820288	 0.8636245927	-0.0306996972	-0.080055
N	 2.4957094593	 0.6720973041	 1.4286948386	-0.205205
C	 1.6456551784	-0.2111735963	 1.7997439143	 0.054479
N	 0.8994132929	-0.9051669398	 0.826460671	-0.172383
C	 0.0131985594	 0.0133974817	-0.1589510036	-0.059644
C	 1.4087133035	-0.3698076773	-0.4415840338	-0.052058
H	-0.938092968	 2.0167131452	 0.2378085885	 0.106216
H	 1.4866632699	 3.0113048473	 0.2382323603	 0.118882
H	 3.1621028069	 1.0575607819	-0.5855360124	 0.083429
H	 1.4764685324	-0.4599590692	 2.8432574911	 0.124211
H	-0.8432830019	-0.551710687	-0.5017244921	 0.1151
H	 1.7123007268	-1.0757976343	-1.2079537359	 0.099974
304.5879	348.2247	391.0527	573.872	612.2319	662.9417	774.2438	792.5115	824.2537	863.4627	872.5177	900.3772	923.5346	945.9358	965.164	989.318	1000.8586	1019.9273	1068.031	1117.5816	1127.6657	1229.7459	1256.5704	1273.9904	1285.2648	1315.8027	1370.2535	1372.4192	1608.6072	1633.3195	3120.921	3159.4106	3187.3167	3201.4509	3213.1219	3229.9485
C1=CC2N=CN3C1C23	C1=C[C@H]2[N][CH]N3[C@@H]1[C@@H]23	
InChI=1S/C6H6N2/c1-2-5-6-4(1)7-3-8(5)6/h1-6H	InChI=1S/C6H6N2/c1-2-5-6-4(1)7-3-8(5)6/h1-6H/t4-,5+,6-,8?/m1/s1
