22
gdb 6411	2.93233	1.29372	1.04475	2.2924	75.16	-0.2467	0.0695	0.3162	1238.6475	0.197446	-387.343309	-387.333031	-387.332087	-387.378637	37.211	
C	-0.4411763674	 1.4441632223	 0.07982843	-0.390431
C	-0.2320696837	-0.0491269332	-0.1474744698	 0.14586
C	 1.1261894872	-0.528312085	 0.3704232129	-0.38438
O	-1.2940241207	-0.7249022885	 0.5316816434	-0.287596
C	-1.6532605735	-2.0124836413	 0.0164843088	 0.099578
C	-2.1350573868	-2.8556573705	 1.1915141534	-0.387483
C	-2.7412358672	-1.8106562251	-1.0480355965	-0.052172
O	-3.8324969103	-1.0790228201	-0.5257380802	-0.423685
H	 0.3513423129	 2.0247112112	-0.4016356931	 0.115309
H	-1.4032587953	 1.7671011028	-0.327952523	 0.116924
H	-0.4307960511	 1.667396592	 1.1514346375	 0.125898
H	-0.2991255495	-0.257058847	-1.2264215074	 0.071322
H	 1.251233956	-1.6059450544	 0.2281663365	 0.116737
H	 1.9415963463	-0.0246190129	-0.1587785995	 0.113784
H	 1.2190053539	-0.3118985293	 1.4393802097	 0.123354
H	-0.7795991519	-2.4904367981	-0.4497911756	 0.06683
H	-2.3728279666	-3.8717841576	 0.8617227132	 0.112157
H	-1.3647522194	-2.9082015648	 1.9647211359	 0.116558
H	-3.037892625	-2.4153739154	 1.6215455768	 0.134063
H	-2.3066807503	-1.3043858686	-1.9262767835	 0.080232
H	-3.1265140051	-2.7787704368	-1.3869998249	 0.102207
H	-3.4328096824	-0.3542253298	-0.0271547245	 0.284936
54.5563	61.1864	131.9821	194.8998	213.9329	222.3123	253.8192	265.7595	297.7317	381.1215	433.371	443.6507	476.4315	497.1163	658.8969	801.5824	842.6428	901.7115	924.3452	927.0706	943.1671	999.1667	1039.1199	1085.232	1132.3953	1142.0996	1153.5687	1181.4333	1206.427	1228.9621	1332.9297	1350.7935	1365.7549	1383.4841	1397.1114	1401.7845	1413.8998	1421.1751	1436.0777	1480.8869	1483.9439	1484.2275	1495.3202	1498.9454	1506.9987	1509.051	2960.4593	2982.7802	3006.225	3035.6962	3041.1692	3047.157	3066.4953	3107.3165	3110.8352	3115.8398	3118.2853	3119.7257	3134.8571	3764.0328
CC(C)OC(C)CO	CC(C)O[C@@H](C)CO	
InChI=1S/C6H14O2/c1-5(2)8-6(3)4-7/h5-7H,4H2,1-3H3	InChI=1S/C6H14O2/c1-5(2)8-6(3)4-7/h5-7H,4H2,1-3H3/t6-/m0/s1
