17
gdb 83455	3.02388	1.13819	1.03335	1.647	73.19	-0.2381	0.0398	0.2778	1200.5814	0.134068	-421.734586	-421.725991	-421.725047	-421.768232	32.386	
O	-0.0567471704	 1.4240169212	 0.0007357923	-0.43507
C	-0.1003550691	 0.0359373192	-0.0461129863	 0.081681
C	-0.4172744024	-0.7725162248	 1.1693784972	-0.041764
O	-1.3159801146	-0.0136526206	 1.9914419449	-0.307251
C	-2.341212183	-0.0735480312	 0.9518671807	-0.140496
C	-1.3884781804	-0.7732977148	-0.0102203824	 0.241148
C	-1.7743011447	-1.8358968446	-1.0104709935	-0.479831
C	-2.5656663691	-1.2997519414	-2.1163877075	 0.311265
C	-3.2247477101	-0.8372320654	-3.0082264398	-0.447234
H	-0.3131990858	 1.6679506323	 0.9009297281	 0.297039
H	 0.6571287311	-0.3797583467	-0.7062330115	 0.107282
H	 0.191931003	-1.5294287182	 1.6520668907	 0.106838
H	-3.1750442483	-0.701546413	 1.283092342	 0.116152
H	-2.7042098242	 0.9188091342	 0.666128512	 0.121506
H	-0.8675913733	-2.313315192	-1.4040130693	 0.134834
H	-2.3421612293	-2.6328334093	-0.5104122514	 0.133994
H	-3.8010519395	-0.432692445	-3.8030019963	 0.199908
50.4898	95.304	217.7291	253.8159	267.6444	288.3817	342.3524	428.8742	451.8941	499.9505	625.7483	641.5417	651.1347	712.9459	795.6769	832.033	893.2619	937.563	947.2352	962.7896	994.5387	1021.5594	1054.6093	1084.3105	1118.0563	1157.2664	1198.7674	1254.4342	1259.2224	1310.7891	1321.4895	1338.5067	1396.9702	1461.7094	1470.5695	1512.7373	2240.2217	3008.8051	3038.156	3043.2548	3093.1118	3147.6668	3169.7348	3506.5756	3749.5918
OC1C2OCC12CC#C	O[C@H]1[C@H]2OC[C@@]12CC#C	
InChI=1S/C7H8O2/c1-2-3-7-4-9-6(7)5(7)8/h1,5-6,8H,3-4H2	InChI=1S/C7H8O2/c1-2-3-7-4-9-6(7)5(7)8/h1,5-6,8H,3-4H2/t5-,6+,7-/m0/s1
