21
gdb 59831	3.62786	0.60638	0.57849	2.4902	84.89	-0.2461	0.0394	0.2855	2024.2533	0.178788	-424.19941	-424.187989	-424.187045	-424.237649	40.251	
C	 0.1773022239	 1.3514635478	 0.6628002769	-0.403076
C	-0.4025739293	-0.0621457067	 0.6106312368	 0.150573
O	-1.757280856	-0.0880671335	 1.0333476781	-0.422146
C	-0.2309337295	-0.6900210001	-0.7925233733	-0.380538
C	-0.7312562922	-2.0555369427	-0.8797023795	 0.011672
C	-1.1475046851	-3.1843841625	-0.9427553502	 0.118422
C	-1.6991140087	-4.5426139148	-0.9475625291	-0.010549
C	-0.9481037521	-5.4611275464	 0.0277681234	-0.381639
O	-3.1017768917	-4.5384358819	-0.6823387545	-0.418115
H	 0.0273137517	 1.7807907146	 1.6565573637	 0.127942
H	 1.2493676752	 1.3532681742	 0.4405028669	 0.117561
H	-0.3170107317	 2.0027927409	-0.0691577172	 0.108009
H	 0.1206831607	-0.6975807954	 1.3338842019	 0.100217
H	-2.2690686129	 0.4562547017	 0.424168843	 0.277709
H	-0.7455990864	-0.052451423	-1.5269745044	 0.116689
H	 0.8324091179	-0.6639481826	-1.064672944	 0.129102
H	-1.6133754656	-4.9616639108	-1.9579519564	 0.112731
H	-1.0120892115	-5.0679981109	 1.0473584922	 0.117696
H	-1.3954072777	-6.458385575	 0.0058120986	 0.122474
H	 0.109304858	-5.5362110565	-0.2430074416	 0.120415
H	-3.2412859572	-3.9824248465	 0.0925010985	 0.284849
20.6893	52.219	66.064	128.6845	190.4745	235.5569	252.7512	276.3426	288.9332	311.998	322.7136	357.4673	401.2836	457.9447	487.89	551.0816	597.1632	738.7269	832.0078	894.0837	898.5557	938.3605	1015.1028	1062.7896	1071.086	1092.6385	1095.7484	1148.0224	1177.9148	1199.1489	1281.282	1305.3049	1334.421	1342.0907	1370.3172	1397.7827	1403.6499	1418.2797	1425.627	1463.2335	1487.3054	1491.7468	1491.9158	1494.7292	2362.3705	2997.1494	3024.7875	3032.0546	3038.9603	3039.8843	3056.6636	3095.5036	3114.5198	3122.5589	3125.4089	3794.1841	3803.6426
CC(O)CC#CC(C)O	C[C@@H](O)CC#C[C@@H](C)O	
InChI=1S/C7H12O2/c1-6(8)4-3-5-7(2)9/h6-9H,4H2,1-2H3	InChI=1S/C7H12O2/c1-6(8)4-3-5-7(2)9/h6-9H,4H2,1-2H3/t6-,7-/m1/s1
