19
gdb 14234	3.89524	1.82475	1.77014	0.901	75.32	-0.2004	0.0943	0.2946	867.5688	0.165662	-327.859026	-327.851686	-327.850741	-327.89001	29.241	
C	 0.0447467531	 1.5184613852	-0.0705269457	-0.328118
N	 0.0400003358	 0.0715809039	 0.091715273	-0.074136
C	-0.8970623623	-0.5391683098	 1.0264850288	-0.066025
C	 0.0571144922	-1.6279490115	 1.3954172345	-0.14987
C	 1.1227981678	-0.5882378538	 0.8779153583	-0.023223
C	 1.1148527128	 0.0397282842	 2.3053576661	-0.299024
C	-0.2737217668	-0.5852480285	 2.4546859988	 0.325869
C	-1.0934291945	-0.7330390956	 3.7006803762	-0.506357
H	 0.9239467117	 1.811041941	-0.6547923479	 0.116496
H	-0.8446310905	 1.8114494517	-0.6390643019	 0.117861
H	 0.0460845234	 2.0927080986	 0.8693314244	 0.098735
H	-1.9675736436	-0.5777504522	 0.8583983481	 0.08719
H	-0.0145871436	-2.7052819135	 1.3592289033	 0.09154
H	 2.0541763104	-0.7938496567	 0.3516013966	 0.071937
H	 1.8388578192	-0.4709263216	 2.9474814172	 0.097236
H	 1.2426732958	 1.1233885566	 2.4060246039	 0.086366
H	-1.4058450311	 0.2438085251	 4.0886633704	 0.119514
H	-2.0011606726	-1.3169613231	 3.5107329374	 0.117208
H	-0.5350785371	-1.2424281002	 4.4951267986	 0.116802
165.3305	193.8115	206.2141	282.798	305.3982	337.2034	479.5032	579.4093	594.6365	684.0315	740.4949	783.6551	827.5364	869.9777	894.7428	902.2518	937.8835	960.2339	1017.8804	1034.2191	1059.0205	1090.4219	1127.4545	1143.2144	1154.0743	1169.1892	1186.6144	1217.0659	1234.7337	1240.6478	1299.7565	1302.6459	1397.0118	1420.9496	1446.0833	1482.3699	1486.2579	1495.4766	1499.7544	1517.356	2976.9999	3017.2073	3034.1928	3059.4694	3075.8193	3085.4685	3089.6289	3095.1007	3120.1903	3175.8833	3220.11
CN1C2C3C1CC23C	CN1[C@H]2[C@H]3[C@@H]1C[C@@]23C	
InChI=1S/C7H11N/c1-7-3-4-5(7)6(7)8(4)2/h4-6H,3H2,1-2H3	InChI=1S/C7H11N/c1-7-3-4-5(7)6(7)8(4)2/h4-6H,3H2,1-2H3/t4-,5+,6-,7+/m0/s1
