16
gdb 79948	3.65204	1.23642	1.15373	5.2325	73.18	-0.2622	-0.0271	0.2351	1091.1605	0.125546	-396.919814	-396.912112	-396.911167	-396.952126	28.829	
C	-0.0871351578	 1.5490866805	 0.0478061702	-0.429548
C	 0.0039658506	 0.0479103644	-0.0776461119	-0.004218
C	 0.7099739198	-0.661940065	-1.1724813164	-0.065208
C	 1.7573829658	 0.1050402649	-2.0004027729	-0.151258
N	 2.8058600246	 0.505991692	-1.0279704433	-0.197422
C	 2.437072579	 0.051172797	 0.1038545556	 0.044331
N	 1.2581703392	-0.7313493672	 0.207809451	-0.136526
C	 2.3218239372	-0.7255489823	-3.0706767913	 0.301455
N	 2.7362621459	-1.3908285732	-3.9188103433	-0.313971
H	 0.8024601021	 2.0648487608	-0.3194526345	 0.146891
H	-0.9504634584	 1.9065266331	-0.5233747992	 0.13756
H	-0.2397184719	 1.8372144158	 1.0925445638	 0.137733
H	-0.8591522167	-0.4747617314	 0.3282527857	 0.1159
H	 0.3072683268	-1.5830158875	-1.5789550436	 0.129177
H	 1.3529831272	 1.0113561044	-2.4684962812	 0.142503
H	 3.0143375865	 0.2198900939	 1.0080863714	 0.1426
95.8644	149.5016	196.9849	222.8859	258.7356	378.4667	473.4347	489.8289	541.6006	602.6292	702.2633	757.1623	811.7561	866.5659	913.3016	941.8608	956.9393	986.3703	1032.7001	1054.1633	1081.9841	1091.4735	1141.148	1170.3995	1237.1955	1280.7999	1293.7614	1326.1573	1370.9564	1410.2845	1426.0311	1492.7593	1504.0746	1663.8354	2366.8125	3032.6384	3042.724	3104.0598	3124.6315	3142.3861	3177.173	3194.1116
CC1C2C(N=CN12)C#N	C[C@H]1[C@H]2[C@@H](N=CN12)C#N	
InChI=1S/C6H7N3/c1-4-6-5(2-7)8-3-9(4)6/h3-6H,1H3	InChI=1S/C6H7N3/c1-4-6-5(2-7)8-3-9(4)6/h3-6H,1H3/t4-,5-,6-,9?/m0/s1
