16
gdb 71106	2.52596	1.76162	1.39779	1.8532	70.29	-0.2458	-0.044	0.2017	955.7937	0.123516	-437.825148	-437.817332	-437.816388	-437.858089	29.281	
O	-0.1844222707	 1.3244257823	-0.5303295328	-0.471583
C	-0.0842688535	 0.0043468998	-0.1551327484	 0.318765
C	 0.3821655967	-1.0579984693	-1.1887641148	-0.285246
C	-0.4168667811	-2.0535224837	-0.3459069665	-0.084816
N	-0.2863857971	-1.7234423988	 1.0969880518	-0.184505
C	 0.5912715615	-0.496262575	 1.142093037	-0.203305
C	-1.2632995312	-0.9601555367	 0.2344715804	 0.22111
C	-2.6679633253	-0.7335541125	 0.5393957583	-0.003072
O	-3.1903539281	 0.3527228603	 0.392076805	-0.285696
H	-1.0115773179	 1.6677714006	-0.1711186018	 0.304
H	-0.0913984421	-0.8950143647	-2.1587017454	 0.123825
H	 1.4577182414	-1.2192024849	-1.3067721841	 0.108154
H	-0.7081609682	-3.0695267914	-0.5807839537	 0.117822
H	 1.6672680346	-0.6999536053	 1.1306008981	 0.108664
H	 0.3197842181	 0.0857451241	 2.0254432661	 0.119006
H	-3.2278561872	-1.608407875	 0.9303929208	 0.096876
47.3304	94.6593	234.7334	249.1125	331.7754	378.6129	457.8709	485.0836	489.5856	635.3379	690.0104	727.2401	808.2816	813.2421	883.6753	908.0936	954.2905	974.1576	1028.6561	1045.7724	1089.281	1100.1911	1146.3133	1155.4968	1166.3823	1219.7976	1249.5759	1279.2287	1313.519	1383.3909	1396.5377	1442.0153	1488.9576	1512.0018	1766.4205	2918.7133	3046.7453	3059.4782	3121.1259	3129.7581	3200.1786	3794.6313
OC12CC3N(C1)C23C=O	O[C@@]12C[C@H]3N(C1)[C@@]23C=O	
InChI=1S/C6H7NO2/c8-3-6-4-1-5(6,9)2-7(4)6/h3-4,9H,1-2H2	InChI=1S/C6H7NO2/c8-3-6-4-1-5(6,9)2-7(4)6/h3-4,9H,1-2H2/t4-,5+,6-,7?/m1/s1
