18
gdb 47507	2.86007	1.43324	1.07189	3.6769	73.6	-0.2373	0.0275	0.2648	1129.7617	0.148887	-439.102403	-439.094472	-439.093528	-439.135012	30.759	
O	-0.0067476802	-0.0314249158	-0.0898923395	-0.373489
C	-0.0079863138	 1.1821921912	-0.0114111202	 0.366297
C	-1.3144072406	 1.9674527146	 0.1264888692	-0.190968
O	-1.1751735659	 3.3274530084	 0.4900755464	-0.2428
C	-0.1731838977	 3.9703367756	-0.275125715	-0.146166
C	 1.1774694145	 3.3692156387	 0.0358045705	 0.38282
C	 2.4343745938	 4.0840721915	-0.3648180893	-0.329212
C	 2.0546766039	 3.9839619142	 1.0996170843	-0.303383
N	 1.1264884997	 1.9359987493	-0.0944782435	-0.377815
H	-1.8509239282	 1.864820146	-0.8316177647	 0.121619
H	-1.9163731684	 1.4821357913	 0.8973192147	 0.145032
H	-0.3892993134	 3.876386282	-1.3528383228	 0.097303
H	-0.1945359055	 5.0293933669	-0.0075033913	 0.114236
H	 3.2660137029	 3.4823435727	-0.7180514966	 0.119124
H	 2.3436498638	 5.0434505798	-0.8638847337	 0.125257
H	 1.702787142	 4.8760795821	 1.6064653405	 0.125329
H	 2.6299137044	 3.3095342946	 1.7243239159	 0.121256
H	 1.9855097488	 1.4098747769	-0.1768093148	 0.24556
92.4854	98.1601	237.2158	258.1529	360.5286	403.2666	442.3701	463.6294	476.8083	534.9273	587.9358	631.2296	764.97	802.3275	857.3625	916.2409	940.0453	960.8354	984.3539	1005.1108	1020.6011	1055.9498	1072.9913	1086.3079	1142.4471	1186.3821	1235.4916	1286.5626	1323.244	1336.6068	1357.9844	1376.9791	1405.2111	1459.9915	1466.1222	1476.1931	1492.012	1510.3852	1796.1919	2965.8734	2976.7942	3101.4329	3117.0479	3125.8441	3134.3661	3206.2137	3225.1198	3595.3437
O=C1COCC2(CC2)N1	O=C1COCC2(CC2)N1	
InChI=1S/C6H9NO2/c8-5-3-9-4-6(7-5)1-2-6/h1-4H2,(H,7,8)	InChI=1S/C6H9NO2/c8-5-3-9-4-6(7-5)1-2-6/h1-4H2,(H,7,8)
