19
gdb 85239	2.6856	1.60696	1.15254	3.5133	77.48	-0.244	0.0233	0.2673	1108.5809	0.159818	-419.21384	-419.205321	-419.204376	-419.246597	32.752	
C	 0.2354197891	 1.5373836905	-0.084593943	-0.401843
C	-0.0373062458	 0.0547012985	 0.1032860402	 0.122948
O	 0.3947019495	-0.6606410727	-1.0830142669	-0.265584
C	 1.0840304799	-1.7959473251	-0.7691708908	 0.410981
N	 1.3908247073	-2.7140730548	-1.5802013745	-0.555568
C	 1.4016485536	-1.8005205702	 0.6936151456	 0.243251
C	 1.6600749653	-3.1035673154	 1.3932511992	-0.488528
N	 2.1669197704	-0.56511423	 1.0395250995	-0.363419
C	 0.710083956	-0.6117541945	 1.2460353793	-0.133843
H	 1.3118693854	 1.711249721	-0.1435901709	 0.148843
H	-0.2375089535	 1.8984603341	-1.0014653161	 0.128423
H	-0.1720545673	 2.1046629825	 0.7586051216	 0.114186
H	-1.1144032148	-0.1269269887	 0.2185867209	 0.087967
H	 1.0359861914	-2.5022261721	-2.5144531461	 0.222241
H	 2.5430390921	-3.5901893443	 0.969524085	 0.152461
H	 1.8222375281	-2.9466591268	 2.4644855487	 0.108513
H	 0.8166397823	-3.7883647747	 1.2669961665	 0.137545
H	 2.6341836788	-0.7291611895	 1.929716775	 0.233249
H	 0.2934394822	-0.5905144377	 2.2471896168	 0.098178
122.5542	146.3174	184.5707	231.8017	238.2761	291.1727	300.6474	398.9511	484.5144	525.6144	573.6817	670.8007	710.717	748.8127	818.9995	859.7708	879.8565	904.6727	927.5651	965.2021	1013.4914	1039.8641	1059.9898	1076.656	1112.4877	1125.3598	1142.0708	1177.3646	1251.2173	1309.9843	1356.172	1376.8028	1394.089	1403.9374	1413.849	1453.4901	1476.6699	1485.6754	1498.3726	1499.7102	1778.5411	3016.6973	3039.9391	3046.4949	3111.8693	3117.1023	3117.8879	3142.2485	3173.5289	3472.0568	3483.6869
CC1OC(=N)C2(C)NC12	C[C@H]1O[C]([NH])[C@@]2(C)N[C@@H]12	
InChI=1S/C6H10N2O/c1-3-4-6(2,8-4)5(7)9-3/h3-4,7-8H,1-2H3	InChI=1S/C6H10N2O/c1-3-4-6(2,8-4)5(7)9-3/h3-4,7-8H,1-2H3/t3-,4+,6+/m1/s1
