17
gdb 78007	3.17884	1.25184	1.05973	3.6296	74.17	-0.2638	0.0141	0.2779	1135.3797	0.13761	-417.987394	-417.979258	-417.978314	-418.019853	31.48	
N	-0.2250970038	 1.502025112	 0.0621743556	-0.528836
C	-0.14282138	 0.0569378117	 0.0337194138	-0.072637
C	-0.4586004274	-0.7511855644	 1.252528728	-0.149281
C	-1.5865359358	-0.1001519215	 2.0819398248	 0.144625
O	-1.3275019156	 1.1183781711	 2.7121574185	-0.435267
C	-2.5282285502	-0.1206267262	 0.8280525203	-0.331697
C	-1.4033485196	-0.7817858459	 0.0161747659	 0.189566
C	-1.5863354471	-1.8234256903	-0.9407273215	 0.186877
N	-1.745963263	-2.6672837634	-1.717528203	-0.349839
H	 0.681074884	 1.8890077703	 0.3109427133	 0.249019
H	-0.4601144701	 1.865768228	-0.856941719	 0.248108
H	 0.644332624	-0.3858737597	-0.5782331203	 0.109318
H	 0.2072308254	-1.5347679107	 1.5936730418	 0.109845
H	-1.9480519516	-0.7856208887	 2.8515189422	 0.103759
H	-1.0510659652	 1.7178096918	 2.0021761335	 0.287665
H	-3.3938649076	-0.7722927598	 0.9546915564	 0.126401
H	-2.8566394764	 0.8562680557	 0.4676618496	 0.112374
119.3553	153.4789	191.7893	233.2047	280.3475	355.981	397.5676	454.0445	502.4505	554.9652	580.7944	649.4188	670.3134	730.4237	779.5082	861.7751	894.6929	938.0676	971.7564	987.6176	1003.0682	1058.656	1081.4275	1129.9832	1150.272	1229.1047	1231.1947	1244.2061	1262.018	1296.4625	1326.5663	1336.5039	1456.0223	1471.2038	1486.1817	1648.8039	2343.4497	3077.08	3089.4596	3094.5576	3137.5668	3191.6041	3488.6885	3564.3124	3698.0016
NC1C2C(O)CC12C#N	N[C@H]1[C@H]2[C@@H](O)C[C@@]12C#N	
InChI=1S/C6H8N2O/c7-2-6-1-3(9)4(6)5(6)8/h3-5,9H,1,8H2	InChI=1S/C6H8N2O/c7-2-6-1-3(9)4(6)5(6)8/h3-5,9H,1,8H2/t3-,4+,5-,6-/m0/s1
