15
gdb 49693	2.42815	1.35503	1.00352	2.959	75.05	-0.2394	-0.0361	0.2034	1162.5361	0.110181	-420.549045	-420.540832	-420.539888	-420.582151	30.328	
O	-0.046144541	 0.0249694618	-0.3062455433	-0.262993
C	-0.0258642226	 1.1893221919	 0.0129340834	 0.152658
C	 1.2208347081	 1.9974716822	 0.0525894876	-0.187869
C	 1.2394909639	 3.4894705124	-0.1372985972	 0.034248
O	 0.0450379182	 4.0962182675	 0.3376520434	-0.278548
C	 0.3650935761	 3.7074641055	 1.7009761883	-0.143696
C	 1.6045202885	 2.9382288185	 1.2281655079	 0.08058
C	 2.83556382	 2.8165080182	 1.921085996	 0.178241
C	 3.8690273435	 2.7146330493	 2.5290604795	-0.386609
H	-0.9551679482	 1.7304334573	 0.2797726677	 0.096648
H	 2.0925402614	 1.482160175	-0.3386189813	 0.128269
H	 1.8191725311	 4.0052349388	-0.8938885201	 0.133853
H	 0.6336398608	 4.586090744	 2.2946303203	 0.133924
H	-0.4411890208	 3.1517339952	 2.1880983643	 0.124496
H	 4.7834393509	 2.6238981023	 3.0615383136	 0.1968
83.6197	128.9895	158.9145	203.6979	242.4427	365.0936	427.8315	486.732	523.5708	527.3867	586.2149	619.8658	667.9995	741.0485	858.2347	919.2502	933.8829	988.7299	1014.4138	1054.5479	1060.3313	1072.0965	1099.9339	1157.1959	1198.0299	1246.1087	1276.4354	1332.5425	1409.5801	1453.016	1517.7404	1809.267	2236.2218	2934.8045	3050.849	3107.9364	3177.4309	3191.7575	3500.1995
O=CC1C2OCC12C#C	O=C[C@H]1[C@H]2OC[C@@]12C#C	
InChI=1S/C7H6O2/c1-2-7-4-9-6(7)5(7)3-8/h1,3,5-6H,4H2	InChI=1S/C7H6O2/c1-2-7-4-9-6(7)5(7)3-8/h1,3,5-6H,4H2/t5-,6+,7-/m0/s1
