16
gdb 18326	3.39633	2.18993	1.58854	1.743	63.6	-0.2415	-0.0248	0.2167	812.2587	0.131971	-383.752751	-383.746154	-383.74521	-383.783742	25.153	
O	 0.0610183892	-0.0151093418	-0.3188006393	-0.316918
C	 0.0078172033	 1.1751780493	-0.1484738714	 0.403373
C	-1.2686317827	 2.0208895808	-0.0437710848	-0.323262
C	-0.8399222587	 3.438403882	-0.4591986634	-0.236221
C	 0.6335370243	 3.5365867852	-0.0539129969	 0.124593
O	 0.8050548476	 3.6886118987	 1.378221526	-0.294338
C	 1.5400314759	 2.4522794835	 1.4656966107	-0.083682
C	 1.2137362081	 2.1046143568	-0.0075696281	-0.182218
H	-2.0727583779	 1.5857734681	-0.6394172848	 0.12912
H	-1.5901530177	 2.0022845591	 1.0052424112	 0.142341
H	-0.9180399253	 3.5598316476	-1.5462920682	 0.108625
H	-1.4300686484	 4.230402882	 0.0088067059	 0.120383
H	 1.1920665954	 4.3005225642	-0.6048869976	 0.079226
H	 2.6085519358	 2.6213072229	 1.648164691	 0.111399
H	 1.1456716734	 1.7821389258	 2.2383217613	 0.11631
H	 2.0443127476	 1.808368616	-0.6463639316	 0.101269
91.5929	160.9902	232.9308	352.3046	440.2531	506.1161	605.4286	674.5615	738.3039	797.3298	839.2716	874.2295	896.638	947.1685	970.4467	985.3285	1029.3707	1049.2026	1086.4107	1149.2176	1150.6523	1173.1658	1194.835	1210.2667	1269.9086	1279.4588	1294.7249	1331.5044	1358.3364	1360.9744	1452.6895	1478.548	1526.4178	1844.6641	3016.1882	3037.8409	3044.2316	3055.4039	3063.9071	3103.7276	3123.2688	3130.9282
O=C1CCC2OCC12	O=C1CC[C@H]2OC[C@@H]12	
InChI=1S/C6H8O2/c7-5-1-2-6-4(5)3-8-6/h4,6H,1-3H2	InChI=1S/C6H8O2/c7-5-1-2-6-4(5)3-8-6/h4,6H,1-3H2/t4-,6+/m0/s1
