17
gdb 44294	3.64361	1.7295	1.4974	3.1522	73.87	-0.2248	-0.0116	0.2132	894.2829	0.138578	-384.668598	-384.662487	-384.661543	-384.698973	25.912	
O	-0.0066492204	-0.029046144	 0.0569371627	-0.325782
C	-0.0365685156	 1.1743810625	 0.0196522652	 0.411778
C	-1.3031839259	 2.0556068107	 0.013954476	-0.349359
C	-0.7467258047	 3.4778991748	 0.0509084292	-0.034236
C	 0.0306121349	 3.8438723833	 1.3226081124	-0.070008
C	 1.2604933143	 4.2707896311	 0.5613081607	-0.104944
C	 1.2793838738	 2.9466279708	 1.2839852568	-0.072699
C	 1.1488654623	 2.1266315502	-0.0217465831	-0.13733
C	 0.6603030358	 3.4681206474	-0.6479250103	-0.08628
H	-1.8614425145	 1.8550196862	-0.9094190101	 0.125385
H	-1.9594283309	 1.7979061203	 0.8507163561	 0.126749
H	-1.4187330805	 4.2645284761	-0.2948016929	 0.073304
H	-0.3518935636	 4.2280663787	 2.2595352172	 0.089444
H	 1.8961857004	 5.1399495428	 0.63952172	 0.096809
H	 1.8070483332	 2.6667371608	 2.1857254248	 0.098041
H	 2.0816550859	 1.6983079299	-0.3852631598	 0.082843
H	 0.7784060155	 3.6815560784	-1.707666135	 0.076286
113.3051	290.287	389.6007	461.9379	574.8001	587.9794	656.8616	723.0825	761.4239	789.9171	804.8578	829.2981	839.1901	880.5254	887.6891	927.4148	969.117	989.7206	1013.6993	1015.7873	1023.9897	1042.7266	1061.7569	1111.4478	1143.3923	1154.8978	1180.0511	1181.3192	1222.239	1246.4597	1253.5915	1274.7086	1293.0925	1340.3046	1363.1914	1444.5853	1844.3503	3036.9552	3092.1019	3102.355	3131.3009	3144.563	3194.7887	3206.6373	3231.2616
O=C1CC2C3C4C3C1C24	O=C1C[C@H]2[C@@H]3[C@H]4[C@@H]3[C@@H]1[C@@H]24	
InChI=1S/C8H8O/c9-3-1-2-4-6(3)8-5(2)7(4)8/h2,4-8H,1H2	InChI=1S/C8H8O/c9-3-1-2-4-6(3)8-5(2)7(4)8/h2,4-8H,1H2/t2-,4-,5-,6+,7+,8+/m1/s1
