16
gdb 14903	4.72121	1.48639	1.21196	0.9579	72.37	-0.2486	0.0115	0.2601	978.3328	0.130884	-346.569717	-346.562416	-346.561472	-346.601215	27.891	
C	-0.0566129396	-1.2163357504	-0.0553290732	-0.466295
C	-0.0198026714	-0.0150987488	-0.0318893851	 0.311801
C	 0.0168212857	 1.443053919	 0.0254940951	-0.214015
C	-0.6962186916	 1.9633731507	 1.2952040417	-0.09119
O	-0.5283902753	 3.3595080491	 1.4219154745	-0.245638
C	 0.816646005	 3.7299944992	 1.6597508349	-0.1181
C	 1.7937640637	 3.0094719834	 0.7737535025	-0.085672
C	 1.4376562359	 1.9801912762	 0.0114217319	-0.054743
H	-0.088576949	-2.2770880239	-0.0867810117	 0.196897
H	-0.5224918836	 1.8370675877	-0.8489748982	 0.121458
H	-1.7714821995	 1.77905508	 1.2390528238	 0.118651
H	-0.2969010874	 1.4321421333	 2.1728090927	 0.102363
H	 0.8680869829	 4.8116671155	 1.487108446	 0.120601
H	 1.0824738996	 3.5645122823	 2.7203701206	 0.101977
H	 2.8190494042	 3.3697955372	 0.7850345085	 0.098181
H	 2.1518147602	 1.4785569195	-0.6335368439	 0.103724
94.7355	146.6902	227.4426	301.7072	381.8972	439.4837	477.9682	522.8793	564.8231	629.4796	646.4845	691.3172	771.9524	890.0375	913.1129	980.1507	994.9911	1018.8292	1032.0678	1068.739	1088.9168	1145.2379	1214.804	1241.608	1287.1825	1290.7636	1327.5577	1363.6404	1404.6344	1419.2018	1484.9901	1498.6565	1723.0465	2236.2591	2936.5673	2986.3092	2998.8856	3050.7016	3103.8587	3160.4527	3187.4804	3505.8934
C#CC1COCC=C1	C#C[C@H]1COCC=C1	
InChI=1S/C7H8O/c1-2-7-4-3-5-8-6-7/h1,3-4,7H,5-6H2	InChI=1S/C7H8O/c1-2-7-4-3-5-8-6-7/h1,3-4,7H,5-6H2/t7-/m1/s1
