19
gdb 111820	2.34762	1.56359	1.15233	4.463	78.1	-0.2225	0.0229	0.2455	1132.0628	0.159608	-419.16785	-419.159282	-419.158338	-419.201857	31.641	
C	 0.2144560928	 1.3810278233	 0.0454116857	-0.379328
C	 0.024789462	-0.1401234398	-0.0283310316	-0.172003
N	-1.3440399745	-0.5907321765	 0.0698427139	-0.063167
C	-2.2586315921	-0.6861424156	 1.2022668985	-0.060637
C	-3.0640030713	 0.5892240953	 1.5494193948	-0.095773
O	-4.0304127676	 0.3153852833	 0.5100223109	-0.283247
C	-3.3950728794	-0.9362997309	 0.1705270764	 0.018998
C	-2.3197888913	-0.7817107306	-0.9082215108	 0.373662
N	-2.364374579	-0.8069231278	-2.1723835574	-0.570048
H	 1.2701026992	 1.637865637	-0.0897335731	 0.12053
H	-0.3644104713	 1.8835513763	-0.7349419468	 0.136144
H	-0.104163338	 1.7751608548	 1.0149028077	 0.123289
H	 0.4157457303	-0.5168245819	-0.9812741614	 0.119703
H	 0.6082535483	-0.6313529292	 0.7602915141	 0.114114
H	-1.9560641903	-1.3600083225	 2.0052328911	 0.092351
H	-3.5341805829	 0.5567650502	 2.5406186372	 0.106776
H	-2.5572469221	 1.549986752	 1.4130067526	 0.109256
H	-4.0801913201	-1.7832834891	 0.1384813499	 0.101424
H	-1.4581496328	-0.5964589083	-2.5950339817	 0.207956
45.7702	88.899	134.7326	209.6182	258.5837	286.464	345.223	409.8455	487.9138	656.4932	663.8014	747.3041	778.1253	817.3585	828.7987	871.0087	899.7417	956.3577	980.0002	992.6643	1016.252	1051.948	1070.6957	1095.7873	1155.4494	1177.7946	1182.1118	1224.2514	1250.6219	1283.658	1294.8779	1342.7318	1361.4559	1386.1956	1404.136	1409.2909	1476.8152	1492.9956	1501.3085	1511.1652	1779.6823	3018.3639	3024.2438	3039.5725	3061.8985	3079.249	3098.765	3111.216	3120.7802	3124.2806	3453.3795
CCN1C2COC2C1=N	CCN1[C@H]2CO[C@H]2[C]1[NH]	
InChI=1S/C6H10N2O/c1-2-8-4-3-9-5(4)6(8)7/h4-5,7H,2-3H2,1H3	InChI=1S/C6H10N2O/c1-2-8-4-3-9-5(4)6(8)7/h4-5,7H,2-3H2,1H3/t4-,5+/m0/s1
