19
gdb 79752	2.43097	1.71817	1.35532	1.9928	73.84	-0.2334	0.0641	0.2975	1015.1802	0.159705	-422.988818	-422.980743	-422.979799	-423.020784	32.586	
O	 0.0152423723	 1.4271711948	 0.1534970754	-0.402342
C	-0.0524502938	 0.0398098213	-0.0161433408	 0.003114
C	-1.3758662531	-0.7065700083	-0.0334335287	-0.125673
C	-2.7129464789	-0.0622141224	-0.3293253145	-0.034063
C	-2.8418639862	 1.4192152712	-0.6079818627	-0.301021
C	-2.6847762984	 0.4560068298	-1.7566897262	-0.032181
C	-1.2951464545	 0.1697711916	-2.335612733	-0.312122
C	-0.5129512978	-0.6364506439	-1.2812807481	 0.311253
O	 0.1706542103	-1.7793014317	-1.7150467776	-0.457156
H	 0.7713682647	 1.7511423934	-0.3476964648	 0.286604
H	 0.7356826302	-0.5085447969	 0.5043238193	 0.088149
H	-1.3920402637	-1.6158321842	 0.5571047499	 0.09462
H	-3.5809433711	-0.5839004889	 0.0573060707	 0.081787
H	-3.8317547064	 1.8437712068	-0.4725403615	 0.099327
H	-2.0250660359	 2.0738319005	-0.3439747009	 0.140467
H	-3.533866103	 0.3120824784	-2.4159768056	 0.081278
H	-1.3796257681	-0.4673544298	-3.2206903702	 0.111513
H	-0.7710978744	 1.0843192128	-2.6398302072	 0.088991
H	 1.0241851479	-1.5067058747	-2.0694705936	 0.277457
150.3139	199.8961	234.0734	266.2561	276.3214	307.7857	378.5174	387.3395	508.1112	570.8145	651.1143	673.7538	699.2357	784.8278	803.7282	827.4373	866.1438	904.931	947.7475	961.9638	997.257	1052.4894	1067.205	1081.0398	1086.3872	1099.7183	1108.5705	1154.1148	1187.9232	1224.9651	1231.2903	1274.5736	1282.3245	1298.3542	1331.6897	1354.2943	1359.028	1384.1554	1462.8672	1480.0927	1491.6125	3029.5084	3076.7255	3087.6787	3140.1684	3160.2929	3167.681	3179.9706	3260.4659	3789.7954	3800.0563
OC1C2C3CC3CC12O	O[C@H]1[C@H]2[C@H]3C[C@H]3C[C@@]12O	
InChI=1S/C7H10O2/c8-6-5-4-1-3(4)2-7(5,6)9/h3-6,8-9H,1-2H2	InChI=1S/C7H10O2/c8-6-5-4-1-3(4)2-7(5,6)9/h3-6,8-9H,1-2H2/t3-,4-,5+,6-,7-/m0/s1
