23
gdb 107012	2.89196	1.21655	1.02658	1.3179	85.94	-0.2421	0.0709	0.313	1297.5157	0.204518	-388.271219	-388.261182	-388.260238	-388.30589	37.847	
C	 0.0898227384	 1.5149926916	 0.2315775972	-0.36802
C	 0.0106810495	 0.0241912331	-0.1285271576	-0.310359
C	-1.3977232053	-0.504950728	-0.0938319638	 0.405033
C	-2.0838517728	-0.943347244	 1.1724369471	-0.330015
C	-1.9404094515	-1.9360699582	 0.0513675618	-0.144735
C	-2.9947517926	-1.6907028189	-1.0358885637	-0.012672
C	-4.4688654569	-1.9020171043	-0.7135711727	-0.409639
C	-2.4516931649	-0.2131187094	-1.1592486888	 0.016878
O	-3.3134548672	 0.8570613368	-0.8201326426	-0.429479
H	 1.1160964783	 1.8879736717	 0.1546015395	 0.103648
H	-0.5414023857	 2.1125407186	-0.4335964425	 0.12722
H	-0.2597324716	 1.6876041672	 1.2544632809	 0.118791
H	 0.4370772028	-0.1337899135	-1.1287739956	 0.090062
H	 0.6329628358	-0.5570298708	 0.563828005	 0.09261
H	-1.4138525077	-1.1027936475	 2.0123075795	 0.104539
H	-3.0516084624	-0.5379392534	 1.4493402807	 0.118879
H	-1.3734647855	-2.8524440282	 0.1723552041	 0.07936
H	-2.7375095531	-2.2432664447	-1.9458948684	 0.065338
H	-4.7808457351	-1.3267408059	 0.1615498094	 0.126458
H	-5.1033100918	-1.5952465026	-1.5538022848	 0.100428
H	-4.675795445	-2.9593570101	-0.5160620398	 0.113789
H	-1.9913007937	-0.0413441858	-2.1423409164	 0.059967
H	-3.9548470118	 0.9644540162	-1.5299928888	 0.28192
74.1298	97.7958	158.6945	170.9376	207.47	213.9991	267.2157	286.1673	327.7338	353.5579	440.6483	513.9008	585.3801	671.3382	708.2843	782.982	799.2505	849.854	863.2253	949.9252	952.836	973.4895	997.8716	1011.4024	1043.6578	1055.447	1080.4919	1101.3511	1122.3617	1136.7128	1153.2594	1182.6089	1238.5022	1251.0735	1278.1347	1297.7868	1341.2753	1356.035	1368.1613	1390.1201	1410.07	1414.5118	1435.1556	1480.476	1489.6012	1494.5061	1496.6972	1505.5596	1507.5032	2993.2727	3008.7227	3027.5609	3035.4593	3043.7984	3045.5208	3086.2089	3105.1395	3109.1137	3117.9566	3123.9972	3170.4691	3204.3733	3812.292
CCC12CC1C(C)C2O	CC[C@]12C[C@H]1[C@@H](C)[C@H]2O	
InChI=1S/C8H14O/c1-3-8-4-6(8)5(2)7(8)9/h5-7,9H,3-4H2,1-2H3	InChI=1S/C8H14O/c1-3-8-4-6(8)5(2)7(8)9/h5-7,9H,3-4H2,1-2H3/t5-,6+,7-,8+/m1/s1
