21
gdb 62724	2.36203	1.66231	1.32937	1.1449	83.73	-0.2188	0.0192	0.238	1079.3028	0.181477	-387.091368	-387.082387	-387.081442	-387.123964	35.843	
C	-0.0968353492	 1.5318464924	 0.0158479971	-0.461848
C	 0.0184104855	 0.0209464616	 0.048004381	 0.287479
C	-1.2062171501	-0.6835506382	-0.5126416842	-0.443376
C	 1.3575667592	-0.6975608819	-0.2391770198	-0.21685
C	 2.6286458326	 0.0614616296	-0.112555702	-0.076045
C	 2.8211585262	 0.514979965	 1.1309571322	-0.085041
C	 1.7001986263	 0.10562083	 2.0593668358	-0.342732
C	 0.7387649575	-0.6890466734	 1.1616697666	 0.355682
O	 0.0990457624	-1.7923173532	 1.7309813409	-0.469809
H	 0.8312934686	 2.0308149715	 0.3003822716	 0.122823
H	-0.361020956	 1.8711363615	-0.9923071739	 0.111404
H	-0.8890691726	 1.8704019567	 0.6941346327	 0.113875
H	-1.3678256251	-0.3892252772	-1.55591143	 0.10711
H	-1.1085356934	-1.7690364596	-0.4650891206	 0.123553
H	-2.1039345334	-0.4107830687	 0.0537881865	 0.116182
H	 1.3021077255	-1.5713774445	-0.8810429973	 0.080265
H	 3.3014468833	 0.2262806182	-0.9472129918	 0.09223
H	 3.6613816301	 1.1164001262	 1.4588237418	 0.092684
H	 2.0578131061	-0.5292538596	 2.8832035511	 0.097316
H	 1.2104091977	 0.9655414459	 2.5333117934	 0.115877
H	 0.7724461089	-2.4470003821	 1.9464084289	 0.27922
174.8085	197.2331	198.635	221.5066	228.1703	294.057	317.6226	363.6449	387.6424	422.6143	453.2789	538.6517	617.7711	665.7513	707.1514	759.1834	805.6087	899.4052	941.6943	948.5163	958.4255	971.8459	975.0297	986.3365	1026.8671	1053.1754	1127.0068	1140.1362	1148.3539	1152.6773	1179.3633	1251.8463	1293.6256	1301.3967	1320.0025	1371.5089	1405.9711	1418.953	1441.9778	1470.0819	1484.148	1488.0535	1506.5468	1512.7317	1660.2246	3003.5735	3025.7242	3031.4433	3043.0256	3080.2631	3085.9143	3126.7728	3135.2868	3157.3366	3181.2535	3206.6982	3792.7104
CC1(C)C2C=CCC12O	CC1(C)[C@H]2C=CC[C@@]12O	
InChI=1S/C8H12O/c1-7(2)6-4-3-5-8(6,7)9/h3-4,6,9H,5H2,1-2H3	InChI=1S/C8H12O/c1-7(2)6-4-3-5-8(6,7)9/h3-4,6,9H,5H2,1-2H3/t6-,8+/m1/s1
