20
gdb 11789	3.95207	1.69834	1.56659	1.414	74.44	-0.2334	0.0868	0.3202	927.8238	0.178385	-348.993932	-348.986523	-348.985579	-349.025401	29.434	
C	 0.0531248774	 1.5450978973	 0.0546628399	-0.38045
C	-0.0762053371	 0.0224977312	-0.0694522575	-0.288126
C	 0.7280993906	-0.5522511681	-1.2064807767	 0.473828
C	 2.2763893529	-0.4679098178	-1.3492606699	-0.268826
C	 1.9890915197	-1.5267594082	-2.4576684113	-0.074145
C	 0.8724330879	-2.0687112309	-1.5130707262	-0.277372
C	 1.1400530666	-0.6836555802	-3.4158597531	-0.072954
O	 0.2695322049	-0.0224957373	-2.4736656594	-0.318148
H	 1.0880789168	 1.8393296377	 0.2590780603	 0.113193
H	-0.2572188243	 2.0328747555	-0.8725762908	 0.137362
H	-0.5687126909	 1.9250600993	 0.870595119	 0.107963
H	 0.2441828896	-0.4632069999	 0.8598830157	 0.094717
H	-1.1275450706	-0.2510857465	-0.222480511	 0.105772
H	 2.7025290038	 0.4932761513	-1.6477538348	 0.096226
H	 2.8112429531	-0.8845407721	-0.4936942771	 0.097212
H	 2.763316231	-2.1613331413	-2.8870091038	 0.069591
H	 1.2685489509	-2.6430890648	-0.6735381807	 0.096743
H	 0.0099104806	-2.5703672253	-1.9599615691	 0.094944
H	 1.7212104577	 0.0565802559	-3.979393037	 0.095969
H	 0.5494616293	-1.2827381059	-4.1196804065	 0.0965
93.4261	172.0783	192.5608	309.1495	348.8414	399.5402	493.4964	515.4958	615.4407	664.3923	775.2697	830.7889	857.9347	880.0205	902.2428	930.9008	953.3732	963.3037	987.1214	995.1903	1030.0476	1060.5195	1081.9849	1101.0749	1124.0827	1158.6762	1188.4856	1190.0035	1215.52	1250.6089	1294.1671	1296.5657	1319.7186	1361.0929	1396.405	1407.5402	1474.1849	1475.344	1495.6422	1506.8911	1510.1533	1533.0098	3016.7982	3028.8633	3040.1057	3055.2403	3060.1083	3064.7922	3066.6113	3104.3257	3125.6461	3126.5849	3126.9985	3133.5709
CCC12CC(C1)CO2	CC[C@@]12C[C@@H](C1)CO2	
InChI=1S/C7H12O/c1-2-7-3-6(4-7)5-8-7/h6H,2-5H2,1H3	InChI=1S/C7H12O/c1-2-7-3-6(4-7)5-8-7/h6H,2-5H2,1H3/t6-,7+
