18
gdb 121432	4.96654	0.6899	0.623	1.7935	75.77	-0.2362	-0.0175	0.2186	1730.4373	0.147522	-472.439224	-472.429408	-472.428464	-472.474963	34.884	
N	-0.0964173456	 0.5637045881	-0.3992007776	-0.569439
C	-0.5510317919	-0.7156891324	-0.3497090478	 0.492922
N	 0.4519678384	-1.7089838094	-0.2830742494	-0.348467
C	 1.8041480898	-1.5690932131	-0.3836904848	 0.17729
O	 2.4100014093	-0.5249312514	-0.5339957064	-0.328355
N	-1.7570102264	-1.1386218999	-0.3262950984	-0.361135
C	-2.8336042756	-0.1647805339	-0.3667832618	-0.166135
C	-4.1605328634	-0.9258426255	-0.3477850692	-0.048948
O	-4.2236325104	-1.7986754521	 0.7597967991	-0.421729
H	 0.8937006203	 0.7109129239	-0.5486519378	 0.288064
H	-0.7517884428	 1.2931309874	-0.6151441145	 0.265556
H	 0.0668980466	-2.6376327181	-0.1905234858	 0.267279
H	 2.3168353793	-2.5447851233	-0.3111147382	 0.104694
H	-2.7926458699	 0.5046521566	 0.5081845375	 0.102433
H	-2.7907423539	 0.4698955284	-1.2696184749	 0.083903
H	-5.0001491818	-0.2275649328	-0.2646912016	 0.097771
H	-4.2688894484	-1.4743614811	-1.2980613113	 0.082579
H	-3.3653118736	-2.2438960113	 0.765260603	 0.281719
39.7267	77.7111	99.7303	150.5038	207.0726	269.4967	301.3042	316.6164	342.4802	398.2385	492.2045	523.4548	559.5881	612.1586	671.3337	731.6157	814.8153	892.7498	908.6671	944.2603	1028.9202	1045.0738	1089.4205	1112.4366	1171.9398	1185.1668	1229.654	1258.4722	1380.5326	1384.8728	1401.7555	1443.8844	1446.6023	1477.9104	1498.7407	1508.3486	1620.4931	1751.2622	1790.1779	2942.5834	2965.0548	2980.1613	2990.1501	3072.317	3528.8774	3625.5086	3720.853	3749.9868
NC(NC=O)=NCCO	NC(=NCCO)NC=O	
InChI=1S/C4H9N3O2/c5-4(7-3-9)6-1-2-8/h3,8H,1-2H2,(H3,5,6,7,9)	InChI=1S/C4H9N3O2/c5-4(7-3-9)6-1-2-8/h3,8H,1-2H2,(H3,5,6,7,9)
