21
gdb 66939	2.43773	1.90231	1.37573	0.3818	86.36	-0.2321	0.094	0.3261	1032.8128	0.183027	-349.892734	-349.884885	-349.883941	-349.924456	32.353	
C	 0.0486385067	 1.4960580864	 0.102139729	-0.518395
C	 0.0386293729	 0.0018309444	-0.0131015504	 0.279147
C	-0.9782031946	-0.8790680513	 0.7463906148	-0.120006
C	-1.0612672214	-2.227950998	 0.0329373755	-0.234316
C	 0.4635664268	-2.0599054654	-0.2225435763	-0.165393
C	 0.5062566884	-1.0346609025	 0.9875323979	-0.124904
C	 0.5351356266	-0.8503451003	-1.164593889	 0.383395
C	 0.2777405245	-0.7706889748	-2.6367295893	-0.342981
C	 1.6698116645	-0.5119700204	-2.0769902013	-0.35593
H	 1.0409380274	 1.9077475731	-0.1151504065	 0.119546
H	-0.665242378	 1.9585864098	-0.5901182826	 0.119412
H	-0.2247288802	 1.8127426282	 1.114321947	 0.119647
H	-1.7102397411	-0.4239926993	 1.4029503254	 0.078609
H	-1.2689014671	-3.0365455666	 0.7400077314	 0.093254
H	-1.7072951713	-2.3274320121	-0.8470789234	 0.087976
H	 1.114684401	-2.9203570454	-0.3675129498	 0.065506
H	 1.1156467677	-0.9557269408	 1.876628986	 0.085193
H	 0.1144437132	-1.6939420561	-3.1846942755	 0.106952
H	-0.2772993304	 0.0780734456	-3.0243075598	 0.107275
H	 2.0405995082	 0.5084721169	-2.0939800837	 0.10838
H	 2.4351794262	-1.2618565914	-2.2524089793	 0.107633
161.3001	191.7331	216.9609	221.3265	274.6483	337.6874	459.9725	493.045	598.3646	614.0534	742.2618	765.1713	794.1982	818.55	823.9586	877.2714	898.971	911.6698	934.7806	958.88	964.2939	976.4967	1002.4096	1042.1293	1048.6048	1068.1148	1072.3226	1092.8483	1102.3195	1148.6432	1153.7702	1182.5335	1196.2315	1207.843	1250.0942	1279.2728	1287.2752	1388.9681	1413.455	1435.9519	1462.1348	1487.6707	1495.7875	1500.8235	1511.2119	3020.2011	3030.8171	3078.1519	3090.1995	3091.9105	3116.5459	3120.5387	3128.1649	3182.5827	3192.5693	3207.4745	3214.3117
CC12C3CC(C13)C21CC1	C[C@]12[C@H]3C[C@H]([C@@H]13)C12CC1	
InChI=1S/C9H12/c1-8-5-4-6(7(5)8)9(8)2-3-9/h5-7H,2-4H2,1H3	InChI=1S/C9H12/c1-8-5-4-6(7(5)8)9(8)2-3-9/h5-7H,2-4H2,1H3/t5-,6+,7-,8-/m0/s1
