18
gdb 77631	2.1032	1.42079	1.29579	4.4882	78.78	-0.2407	0.0204	0.2611	1116.0847	0.146813	-401.939791	-401.930826	-401.929882	-401.973114	33.575	
C	-0.0399316042	 1.5326803558	 0.0209807318	-0.42387
C	 0.1437453163	 0.029223427	 0.0295290644	-0.143793
C	 1.4052226932	-0.7163687713	-0.2292776412	 0.372664
O	 1.5767164755	-1.6809111417	-1.1877881912	-0.440757
C	 2.636863116	-0.0475050897	 0.3666721394	-0.277142
C	 1.9719984921	-0.0544088509	 1.7787946448	-0.292523
C	 0.738052829	-0.7643998008	 1.2027359976	 0.112471
C	 0.0051040695	-1.8002477589	 1.8398063897	 0.181927
N	-0.5845729582	-2.6614665299	 2.3445742308	-0.358311
H	 0.828070313	 2.059055579	 0.4250606001	 0.128742
H	-0.1974193698	 1.8914837353	-1.0016018019	 0.127988
H	-0.9127920762	 1.8186834545	 0.616280391	 0.133974
H	-0.7159462022	-0.5081891476	-0.373849602	 0.101979
H	 0.7347713105	-1.8686607768	-1.6157213168	 0.296932
H	 3.4986432112	-0.7154302851	 0.3220313666	 0.129701
H	 2.9163278139	 0.9194389011	-0.0619348119	 0.108529
H	 2.5114104738	-0.6788971157	 2.4915751065	 0.130302
H	 1.7849902866	 0.9201529457	 2.2376134823	 0.111188
107.8636	143.5975	174.3912	213.5964	231.81	240.9019	262.77	374.1165	425.346	484.6745	547.3447	562.9265	645.589	691.3503	715.2231	753.8745	806.8031	948.4725	969.212	976.04	1038.6542	1090.1758	1098.3396	1120.3502	1129.6615	1187.9105	1212.8851	1242.6622	1251.6956	1295.2713	1330.798	1402.479	1418.7576	1461.9421	1474.8622	1496.7145	1503.046	1513.1684	2329.8818	3040.3769	3059.2021	3067.4156	3100.3503	3103.0486	3118.6955	3124.7761	3135.3674	3819.1812
CC1C2(O)CCC12C#N	C[C@H]1[C@@]2(O)CC[C@@]12C#N	
InChI=1S/C7H9NO/c1-5-6(4-8)2-3-7(5,6)9/h5,9H,2-3H2,1H3	InChI=1S/C7H9NO/c1-5-6(4-8)2-3-7(5,6)9/h5,9H,2-3H2,1H3/t5-,6-,7+/m1/s1
