18
gdb 65394	3.00529	1.1254	1.03366	3.2074	73.72	-0.2535	-0.0024	0.2511	1218.6782	0.145632	-439.055091	-439.046082	-439.045138	-439.089232	32.534	
C	 0.5398555434	 1.3695697827	-0.3395903228	-0.471489
C	-0.0175943988	-0.0227692441	-0.1139956866	 0.262375
C	 0.8493370259	-1.2212346038	-0.4093546589	-0.276801
N	 0.5347330651	-0.847865425	 0.9506873533	-0.087515
C	 1.4733616149	-0.4618645057	 1.8932405062	 0.132983
O	 2.5637224927	-0.9615584519	 2.023550263	-0.287679
C	-1.5037895947	-0.1266927935	-0.3160194655	 0.0215
C	-2.3612820191	-0.9812462403	 0.5094150769	-0.174124
O	-2.311643426	 0.433859082	 0.7218255631	-0.240719
H	 1.6216521492	 1.3967398768	-0.1826299402	 0.136322
H	 0.3344417919	 1.6972166289	-1.3639094923	 0.131234
H	 0.0673021637	 2.0849599975	 0.3401128044	 0.14827
H	 0.3946992307	-2.1417153947	-0.7657014691	 0.126087
H	 1.8680718084	-1.0446268962	-0.7452488347	 0.13774
H	 1.0747416965	 0.3178862635	 2.5687826174	 0.094503
H	-1.8356223618	 0.1266917253	-1.3248377559	 0.097956
H	-3.2957688501	-1.3571686856	 0.0955498244	 0.116034
H	-1.9067670819	-1.582503346	 1.2923332472	 0.133323
74.0284	92.4324	131.4486	212.0226	225.1073	251.7766	259.4878	350.8011	434.8282	483.1803	511.6375	597.3694	761.5985	825.3605	865.0557	886.4608	932.5912	959.7148	1004.1085	1011.5573	1042.9147	1094.9094	1113.2056	1125.6002	1140.8628	1164.6416	1170.9598	1238.2578	1253.9954	1292.9646	1402.7659	1411.6383	1418.0184	1445.4439	1484.2706	1501.691	1509.9916	1521.7447	1798.6441	2963.9388	3039.7971	3090.2525	3097.8371	3108.0514	3108.4531	3122.1469	3193.6343	3197.9968
CC1(CN1C=O)C1CO1	C[C@]1(CN1C=O)[C@H]1CO1	
InChI=1S/C6H9NO2/c1-6(5-2-9-5)3-7(6)4-8/h4-5H,2-3H2,1H3	InChI=1S/C6H9NO2/c1-6(5-2-9-5)3-7(6)4-8/h4-5H,2-3H2,1H3/t5-,6+,7?/m1/s1
