18
gdb 29589	2.86272	1.21796	0.96366	2.2215	83.94	-0.2018	0.045	0.2468	1247.7956	0.147151	-364.820562	-364.811432	-364.810488	-364.854697	34.057	
C	-0.2233596014	 1.4684330589	 0.0696221664	-0.512237
C	-0.0622695161	-0.0205521949	 0.0105086339	 0.197626
C	 0.0223075472	-0.7942606705	-1.1240895641	-0.16293
N	 0.1651946902	-2.1061609797	-0.7442147721	-0.2457
C	 0.1732961551	-2.1880240625	 0.6234662948	-0.173078
C	 0.034548266	-0.9148425395	 1.1257167195	 0.205304
C	 0.0006263298	-0.5400913326	 2.5865238581	-0.476241
C	-1.2941865053	-0.0250587696	 3.0370828496	 0.326184
C	-2.3572679264	 0.401893852	 3.4016584459	-0.473746
H	 0.6303140547	 1.9528222155	 0.5606381827	 0.118536
H	-0.3079110555	 1.8950585089	-0.9341238554	 0.114554
H	-1.1170370722	 1.7535929221	 0.6353535723	 0.138362
H	-0.0079125328	-0.5151706761	-2.1656718612	 0.113801
H	 0.2491453462	-2.8856213377	-1.3715648873	 0.259985
H	 0.273663458	-3.1357790268	 1.1286985689	 0.115928
H	 0.266057345	-1.4154750137	 3.1918843932	 0.129476
H	 0.7698098798	 0.2148531025	 2.8022617227	 0.132483
H	-3.2978658023	 0.7733601338	 3.7243110023	 0.191693
51.1508	104.0943	126.3886	222.078	242.7987	293.1724	334.274	387.4925	438.7657	457.3087	610.7157	620.6344	635.5372	639.2215	670.4279	703.0995	752.224	775.8519	901.2359	933.6239	950.9251	1005.3478	1066.9543	1088.563	1112.3938	1188.9571	1219.8154	1265.6648	1317.3127	1350.9709	1403.107	1420.3338	1459.869	1472.7799	1482.134	1501.5743	1561.3972	1624.2696	2234.6309	3005.3905	3020.7178	3048.3047	3072.4913	3105.8891	3254.4453	3257.3694	3507.6909	3692.2403
CC1=CNC=C1CC#C	Cc1c[nH]cc1CC#C	
InChI=1S/C8H9N/c1-3-4-8-6-9-5-7(8)2/h1,5-6,9H,4H2,2H3	InChI=1S/C8H9N/c1-3-4-8-6-9-5-7(8)2/h1,5-6,9H,4H2,2H3
