19
gdb 46555	4.03566	1.13765	1.05642	4.0406	75.64	-0.2417	0.0603	0.302	1184.9353	0.162296	-419.252543	-419.24474	-419.243796	-419.284849	30.836	
O	-0.0630502839	-0.0302381602	-0.2576408125	-0.409551
C	-0.071492804	 1.1698280311	-0.1054785998	 0.424849
N	-1.134274545	 2.0352573189	-0.3409565574	-0.348229
C	-0.8463320218	 3.3553010658	 0.1962528485	-0.209987
C	 0.7001405761	 3.3748788451	 0.1646724421	 0.367027
C	 1.3169114616	 4.1399075564	-1.0507139123	-0.269282
C	 1.5426251594	 5.3585990719	-0.1163104721	-0.212366
C	 1.367185316	 4.4125907623	 1.1038070407	-0.280506
N	 0.9813745719	 1.9657700259	 0.3372909445	-0.40447
H	-2.059674853	 1.6404021728	-0.285005412	 0.25161
H	-1.282418561	 4.1520937234	-0.4132213966	 0.113826
H	-1.2035634635	 3.4728342803	 1.2306055234	 0.104558
H	 2.2635524327	 3.683134749	-1.3559214802	 0.100047
H	 0.6898623834	 4.2669763863	-1.9365832109	 0.107552
H	 2.4941135504	 5.8852232627	-0.2055765249	 0.105422
H	 0.7350449592	 6.0917441549	-0.1882925938	 0.107656
H	 0.7789912002	 4.7650034694	 1.9557216576	 0.10129
H	 2.327442906	 4.0428777431	 1.4752306129	 0.105652
H	 1.9124522755	 1.605566951	 0.1947191329	 0.244903
101.4693	126.9709	192.2571	277.0646	353.7104	419.4008	443.5986	494.0184	539.2432	556.205	682.4361	722.4765	768.525	789.9905	807.2751	874.547	917.4878	931.3124	962.1308	983.1223	992.2963	1038.1599	1082.8279	1123.0066	1142.7626	1198.4254	1204.9797	1231.2718	1249.3852	1251.399	1270.6239	1291.8206	1306.3045	1372.3084	1404.013	1439.7467	1473.4349	1486.512	1507.177	1526.956	1853.5709	2986.2815	3051.0471	3056.3097	3068.6493	3075.3854	3102.7364	3107.938	3126.9242	3631.3345	3642.675
O=C1NCC2(CCC2)N1	O=C1NCC2(CCC2)N1	
InChI=1S/C6H10N2O/c9-5-7-4-6(8-5)2-1-3-6/h1-4H2,(H2,7,8,9)	InChI=1S/C6H10N2O/c9-5-7-4-6(8-5)2-1-3-6/h1-4H2,(H2,7,8,9)
