17
gdb 106997	3.00222	1.29835	1.02814	2.3714	69.21	-0.2373	-0.0259	0.2114	1153.4489	0.134774	-458.939039	-458.930169	-458.929225	-458.97304	32.376	
O	 0.0032331707	 1.4775426503	 0.2733029456	-0.414748
C	 0.0549074293	 0.0880934311	-0.0036948141	-0.183237
C	-1.3315175165	-0.4997347218	-0.0172576501	 0.203638
C	-2.0474013063	-1.1218326884	 1.1747750921	-0.314496
C	-1.9169663042	-1.9509627419	-0.0541033984	-0.131366
C	-2.9831395226	-1.5332328507	-1.0681127891	-0.00142
O	-4.3096678277	-1.7368663497	-0.6473986099	-0.426539
C	-2.3593895043	-0.1026837552	-1.0177239772	 0.330712
O	-2.5078266671	 0.890518077	-1.6836068507	-0.345292
H	-0.5673300758	 1.872882539	-0.3976285113	 0.298285
H	 0.5482560448	-0.1063255885	-0.9693950031	 0.096742
H	 0.6706784713	-0.3690070247	 0.7777457322	 0.112104
H	-1.3782342417	-1.369844166	 1.9927190226	 0.129971
H	-3.0238898269	-0.7665506676	 1.4846853339	 0.141103
H	-1.3514590815	-2.8723172896	-0.0941150956	 0.112013
H	-2.7944461625	-1.963002636	-2.0646793106	 0.095284
H	-4.8886078889	-1.2640756571	-1.2554313963	 0.297248
61.5826	87.5343	163.1847	193.0554	228.7259	292.4583	309.256	373.4912	451.4548	475.3707	553.9707	630.3198	685.072	809.3929	831.4951	849.094	902.6917	963.576	973.1695	999.3675	1042.9011	1069.9575	1071.3994	1101.2372	1141.0499	1165.6068	1213.1087	1260.0622	1291.1237	1314.9881	1377.2821	1384.2026	1408.955	1437.4659	1495.4594	1507.0661	1853.3966	2975.9788	2985.2664	3071.7371	3133.7397	3208.6494	3220.5097	3782.1482	3811.2318
OCC12CC1C(O)C2=O	OC[C@]12C[C@H]1[C@@H](O)C2=O	
InChI=1S/C6H8O3/c7-2-6-1-3(6)4(8)5(6)9/h3-4,7-8H,1-2H2	InChI=1S/C6H8O3/c7-2-6-1-3(6)4(8)5(6)9/h3-4,7-8H,1-2H2/t3-,4+,6+/m0/s1
