20
gdb 59124	3.33833	1.25746	1.10255	1.417	77.25	-0.2385	0.0628	0.3013	1166.9236	0.171502	-403.085942	-403.077653	-403.076709	-403.119024	32.168	
C	 0.6947343479	-0.2252131074	-1.3596627396	-0.407392
C	 0.0237791407	 0.109443352	-0.027106463	 0.100944
O	-0.0388973661	 1.5190170433	 0.1920004227	-0.431362
C	-1.3670875548	-0.5075035281	 0.0889902089	 0.02042
C	-1.5927816453	-1.9998358841	 0.2741377919	-0.081897
C	-1.5996959665	-2.3146048465	 1.737883964	-0.036996
C	-1.3787952803	-1.0359343947	 2.5240534549	-0.240306
C	-2.1945826278	-0.3881711885	 1.3896415584	-0.03233
N	-2.8439139544	-1.7828301033	 1.0804938008	-0.169001
H	 1.6781398773	 0.2486825626	-1.4194278337	 0.125422
H	 0.8215884209	-1.306294763	-1.4792239491	 0.121366
H	 0.0887245576	 0.1341358473	-2.201166411	 0.106556
H	 0.655609863	-0.2613682386	 0.7871772482	 0.089787
H	-0.5543288779	 1.9036271918	-0.5260788682	 0.27646
H	-1.9897001636	-0.164776566	-0.749327344	 0.072396
H	-1.5458742367	-2.7816773007	-0.4761077728	 0.092095
H	-1.5530997756	-3.3371517767	 2.0961502376	 0.094208
H	-1.9571468182	-1.0538150856	 3.45134111	 0.113009
H	-0.3658107387	-0.6782753185	 2.7302198018	 0.103805
H	-2.8334041416	 0.4728128446	 1.5706358822	 0.082817
57.3944	149.6308	166.8006	236.3199	275.6245	321.6739	384.0363	450.5949	508.1792	533.2409	750.0736	758.9495	776.637	814.8685	831.0194	879.9969	923.7033	941.4246	968.6844	1009.3594	1028.0571	1034.156	1049.6106	1063.6232	1073.8915	1106.6304	1118.6963	1138.6153	1182.3315	1191.7715	1220.7397	1251.8475	1265.5994	1278.3847	1332.0917	1356.4351	1376.2468	1401.7007	1413.2767	1418.9305	1490.0626	1494.4484	1501.4641	3011.0516	3023.2615	3049.944	3058.7056	3093.5307	3106.3912	3118.0688	3148.1046	3168.9915	3181.432	3794.4159
CC(O)C1C2C3CC1N23	C[C@@H](O)[C@H]1[C@H]2[C@H]3C[C@@H]1N23	
InChI=1S/C7H11NO/c1-3(9)6-4-2-5-7(6)8(4)5/h3-7,9H,2H2,1H3	InChI=1S/C7H11NO/c1-3(9)6-4-2-5-7(6)8(4)5/h3-7,9H,2H2,1H3/t3-,4+,5-,6-,7-,8?/m1/s1
