18
gdb 26298	3.48901	1.00677	0.94216	5.2946	74.07	-0.2124	0.0289	0.2413	1317.1035	0.147328	-439.15141	-439.142425	-439.141481	-439.185427	33.069	
C	 0.0037661089	 1.5596233718	 0.0061935798	-0.385706
C	 0.0031627024	 0.0190440901	 0.040998131	-0.099472
C	 0.7774940842	-0.5133559795	 1.2623006594	-0.385669
C	-1.3859219611	-0.5347294229	-0.0172033627	 0.323567
C	-1.9911920827	-1.3123966557	-0.9256562425	-0.142055
O	-3.2952852089	-1.5732415457	-0.5523353449	-0.208673
C	-3.5390119012	-0.9343942477	 0.6478883623	 0.482539
O	-4.5814712644	-0.9642074711	 1.2423895136	-0.403014
N	-2.3568105555	-0.3006025301	 0.966124267	-0.428124
H	 1.0291958436	 1.9412223629	-0.0044355389	 0.121807
H	-0.513673964	 1.9345943088	-0.8809760041	 0.128895
H	-0.4945758965	 1.9791671635	 0.8872999689	 0.113333
H	 0.5082369771	-0.3404988424	-0.8635368993	 0.096104
H	 0.3140701046	-0.189686442	 2.2010105169	 0.113352
H	 0.8086163708	-1.6062625341	 1.264112463	 0.128899
H	 1.8053172406	-0.138141794	 1.2564359888	 0.121793
H	-1.6525503688	-1.7470277182	-1.8494925009	 0.149208
H	-2.2571814191	 0.2446960661	 1.8035411826	 0.273216
58.3816	112.2747	165.6581	212.3242	218.2392	245.2999	315.2749	403.5987	437.6384	456.3174	525.7256	623.3704	665.0878	723.0987	753.284	771.6518	878.1429	927.8285	929.4253	962.9556	997.601	1064.9735	1099.7063	1119.5429	1175.6042	1183.0782	1251.0825	1309.6991	1330.7266	1372.6025	1399.7024	1420.2407	1427.4966	1484.9225	1490.3043	1501.8396	1508.4085	1705.1116	1896.0196	3033.3316	3034.3742	3040.2645	3098.6697	3105.283	3118.1169	3120.004	3296.2331	3698.9505
CC(C)C1=COC(=O)N1	CC(C)c1coc(=O)[nH]1	
InChI=1S/C6H9NO2/c1-4(2)5-3-9-6(8)7-5/h3-4H,1-2H3,(H,7,8)	InChI=1S/C6H9NO2/c1-4(2)5-3-9-6(8)7-5/h3-4H,1-2H3,(H,7,8)
