22
gdb 101859	5.41582	0.5076	0.48359	5.0813	83.88	-0.2731	0.037	0.3101	2213.107	0.192401	-404.369291	-404.358201	-404.357257	-404.406661	38.707	
C	-0.0500408954	 1.5983872273	-0.1280665071	-0.393794
C	 0.0225058907	 0.0680487635	-0.0415092512	 0.030187
C	 0.7262247791	-0.5097112194	-1.2721615299	-0.078539
O	-0.0219369789	-0.1546227695	-2.4249132896	-0.422024
C	 0.7164045597	-0.4313184227	 1.2376035844	-0.194982
C	-0.0207868348	-0.0760645147	 2.5330250681	-0.1893
C	 0.6849886685	-0.6673809797	 3.7701836512	-0.340941
C	 0.0030506237	-0.3396146251	 5.020351493	 0.256766
N	-0.5490785225	-0.0706444527	 5.9992752083	-0.305027
H	 0.9501208497	 2.0408619406	-0.0386898888	 0.105787
H	-0.4666901293	 1.8982458642	-1.0916797101	 0.13909
H	-0.6766389749	 2.024800409	 0.66025182	 0.114491
H	-1.002360398	-0.3290115872	-0.0549391634	 0.085453
H	 1.7546213236	-0.1135710975	-1.326869047	 0.08264
H	 0.8011832964	-1.6047945346	-1.1739186629	 0.082262
H	 0.4586071652	-0.4527338475	-3.2021930984	 0.288173
H	 0.8242922481	-1.5235689774	 1.1827233475	 0.093859
H	 1.7374822429	-0.0250091941	 1.2785194884	 0.096541
H	-0.0899187845	 1.0090711277	 2.6539441137	 0.126501
H	-1.0490838698	-0.453206539	 2.4946655737	 0.121335
H	 0.7493388382	-1.758761051	 3.6861485675	 0.150536
H	 1.7155559221	-0.2977547003	 3.8310198824	 0.150986
42.6492	75.3566	83.1946	114.0867	131.3762	191.7016	236.4165	243.2513	283.1324	299.6816	370.7032	400.4888	427.5808	529.372	562.3836	740.9591	822.0312	855.7986	925.8147	933.2901	960.1955	1004.745	1019.0603	1045.4944	1084.9925	1107.3522	1142.6193	1170.7268	1204.5628	1234.8631	1267.6871	1279.8377	1302.8641	1326.4386	1331.8451	1368.3405	1384.3169	1397.5358	1409.6083	1458.1044	1468.4664	1482.0817	1495.6597	1504.188	1509.684	1520.7013	2362.2855	2952.7505	2981.9223	2999.2745	3012.384	3029.8916	3035.657	3037.7337	3050.0149	3070.5816	3098.1373	3103.0776	3133.43	3835.7347
CC(CO)CCCC#N	C[C@@H](CO)CCCC#N	
InChI=1S/C7H13NO/c1-7(6-9)4-2-3-5-8/h7,9H,2-4,6H2,1H3	InChI=1S/C7H13NO/c1-7(6-9)4-2-3-5-8/h7,9H,2-4,6H2,1H3/t7-/m1/s1
