22
gdb 61170	2.78614	0.95192	0.8685	4.1042	82.54	-0.2789	0.0389	0.3178	1442.6755	0.191179	-404.37823	-404.367336	-404.366392	-404.413813	40.425	
C	-0.0315491941	 1.6472452156	 0.0528572271	-0.423159
C	-0.0386273642	 0.1166333632	-0.048731015	 0.014248
C	-1.4847300466	-0.4379073764	 0.0134186926	-0.362557
C	-2.0996418717	-0.2424638402	 1.322759996	 0.263593
N	-2.5667600626	-0.0803517949	 2.3677935162	-0.317615
C	 0.7156468507	-0.4651890653	-1.283418023	 0.332342
C	 0.065700989	-0.0978388858	-2.6210265793	-0.403549
C	 2.189793332	-0.0361096848	-1.2728352783	-0.438274
O	 0.6460310542	-1.8984289288	-1.2267012962	-0.456804
H	 0.9839366111	 2.0448161393	 0.1182076059	 0.123741
H	-0.5223171648	 2.1094069573	-0.8101807402	 0.121753
H	-0.5690529181	 1.9687224684	 0.9499045028	 0.143663
H	 0.4884618533	-0.2797147696	 0.8307621487	 0.081447
H	-2.1168632116	 0.0491929314	-0.7375304639	 0.146009
H	-1.4682914245	-1.5067526716	-0.2182456264	 0.164173
H	 0.0366847737	 0.9846150362	-2.7681167537	 0.119871
H	 0.6418283694	-0.5396641533	-3.4381300786	 0.127145
H	-0.9528004384	-0.4883378046	-2.6883459002	 0.124728
H	 2.6584825737	-0.2612036908	-0.3069486368	 0.10804
H	 2.7303045447	-0.5819671788	-2.050927417	 0.127583
H	 2.3097500055	 1.0339725406	-1.4599699154	 0.125445
H	 1.1804647492	-2.1927087971	-0.4805286051	 0.278177
66.9789	75.121	138.439	202.1113	230.248	240.9832	264.0565	282.8456	323.8708	329.7036	354.9959	387.4285	403.8778	435.4731	482.791	527.612	560.4707	748.7541	857.7327	889.2394	906.715	932.4546	958.6926	966.3652	1002.6337	1048.031	1103.2181	1125.1233	1136.9752	1210.4824	1229.0266	1256.8138	1279.231	1340.1864	1360.795	1386.5955	1403.2954	1418.9019	1429.5205	1473.077	1478.0537	1488.1728	1499.8127	1502.283	1510.0112	1512.4518	2357.6463	3002.5194	3029.7057	3044.4023	3049.8044	3055.977	3100.7993	3101.5694	3110.2074	3119.124	3124.6573	3128.0901	3134.3092	3797.4271
CC(CC#N)C(C)(C)O	C[C@@H](CC#N)C(C)(C)O	
InChI=1S/C7H13NO/c1-6(4-5-8)7(2,3)9/h6,9H,4H2,1-3H3	InChI=1S/C7H13NO/c1-6(4-5-8)7(2,3)9/h6,9H,4H2,1-3H3/t6-/m0/s1
