21
gdb 78378	2.82701	1.4822	1.32937	1.6647	82.88	-0.2057	0.0622	0.268	1088.8157	0.183016	-383.171024	-383.162707	-383.161763	-383.203446	32.843	
C	-0.0555973869	 1.5726591632	 0.0601208782	-0.438239
C	 0.0392790679	 0.0663888981	-0.0992379758	 0.034424
C	 0.4890013593	-0.7492686863	-1.245430662	-0.074174
C	 1.8076624083	-0.3197075493	-1.92526327	 0.000869
C	 2.4749326395	-0.4011447999	-0.5535126984	 0.01183
C	 2.925052519	 1.0665759262	-0.7703657908	-0.203664
N	 2.1085562291	 1.1307416732	-2.0146937922	-0.075853
C	 2.7409825857	 1.6245769146	-3.2168142625	-0.329741
N	 1.1915219721	-0.8356671702	 0.134090458	-0.190269
H	 0.5577736997	 2.117715756	-0.6505693374	 0.154794
H	-1.0992893762	 1.8649248793	-0.1002195674	 0.112986
H	 0.2061803013	 1.8610739186	 1.0842748239	 0.116771
H	-0.8045057763	-0.4173826643	 0.3965141989	 0.098605
H	-0.1021965625	-1.5858199036	-1.6108773802	 0.088466
H	 2.1187213225	-0.928988466	-2.7780719024	 0.068248
H	 3.2563627544	-1.1181064439	-0.3079194791	 0.089694
H	 2.6767977498	 1.8185070209	-0.0157036709	 0.108172
H	 4.0069166125	 1.1092663566	-0.9681873243	 0.094272
H	 3.6784199136	 1.094779189	-3.4755302924	 0.088413
H	 2.0532124438	 1.5290044994	-4.063670819	 0.122353
H	 2.9797059034	 2.6872832987	-3.1011902441	 0.122042
114.3781	175.7226	203.5462	217.9675	281.949	302.97	341.9111	365.5954	500.4504	601.9818	637.3954	684.6636	705.0954	783.9796	833.6397	873.0238	906.9822	918.4526	955.0554	974.5566	1022.6608	1033.9522	1066.376	1080.9445	1117.534	1138.0349	1165.1007	1170.7388	1191.5704	1203.1606	1222.3775	1251.3518	1284.5829	1302.0994	1322.0356	1341.6477	1368.6618	1400.2796	1447.2678	1453.6374	1484.0131	1490.9418	1500.6309	1507.1856	1529.9239	2916.2857	2987.9007	3036.6124	3053.1858	3069.5871	3076.2528	3081.8982	3089.4786	3096.6243	3121.6163	3132.7714	3196.6773
CC1C2C3C(CN3C)N12	C[C@H]1[C@H]2[C@@H]3[C@@H](CN3C)N12	
InChI=1S/C7H12N2/c1-4-6-7-5(9(4)6)3-8(7)2/h4-7H,3H2,1-2H3	InChI=1S/C7H12N2/c1-4-6-7-5(9(4)6)3-8(7)2/h4-7H,3H2,1-2H3/t4-,5+,6-,7-,9?/m0/s1
