18
gdb 53609	3.4202	0.79588	0.72959	3.8721	82.8	-0.2437	0.0307	0.2744	1614.7123	0.146361	-401.946498	-401.936657	-401.935712	-401.983894	33.277	
C	 0.013937134	 1.4879899315	 0.2818942334	-0.496723
C	 0.0009849567	 0.0411433645	 0.1216442738	 0.046924
C	-0.0009768186	-1.1536977995	-0.0247176701	 0.079811
C	-0.0185687324	-2.6089823391	-0.1746518918	-0.324382
N	-1.3462583853	-3.1778818084	-0.0719829464	-0.060467
C	-2.3933677814	-3.0716234851	 0.947961029	-0.166658
C	-3.31821363	-3.8616009297	-0.0226547578	-0.370708
C	-2.1170972022	-3.8424674439	-0.9976934135	 0.410889
O	-1.8815336959	-4.2240220935	-2.1138913118	-0.369876
H	 0.7997283025	 1.9449243544	-0.32943067	 0.153623
H	-0.9409167584	 1.9286033023	-0.0247614704	 0.151787
H	 0.194046949	 1.774513104	 1.3237376648	 0.148991
H	 0.3557647819	-2.9040341069	-1.1620636125	 0.165103
H	 0.6485230578	-3.0664684484	 0.5699494543	 0.134209
H	-2.1509442635	-3.5763566494	 1.8893340932	 0.110376
H	-2.7019226096	-2.0418550843	 1.15374696	 0.119509
H	-3.6138885213	-4.8577416388	 0.3105678433	 0.133014
H	-4.1937637733	-3.3196203697	-0.3839247373	 0.134581
24.1396	34.5668	55.6256	151.7137	182.9436	195.3101	239.3081	305.7272	375.619	430.4168	540.6325	561.2906	733.9478	761.525	786.8015	824.133	941.7788	951.337	1044.4643	1047.4797	1052.1811	1055.6963	1139.4748	1152.8328	1164.9451	1185.0709	1211.7542	1269.7733	1311.2067	1377.6176	1413.3156	1415.6728	1461.6321	1469.6156	1477.2945	1478.6691	1530.1854	1877.669	2374.1916	3000.4347	3029.3965	3038.7269	3064.8969	3084.6629	3089.4494	3090.8102	3091.8493	3147.4276
CC#CCN1CCC1=O	CC#CCN1CCC1=O	
InChI=1S/C7H9NO/c1-2-3-5-8-6-4-7(8)9/h4-6H2,1H3	InChI=1S/C7H9NO/c1-2-3-5-8-6-4-7(8)9/h4-6H2,1H3
