20
gdb 84075	2.41752	1.48963	0.98524	3.1784	83.68	-0.2005	0.0043	0.2047	1246.4482	0.169982	-403.209286	-403.199551	-403.198607	-403.243676	35.269	
C	-0.1076714845	 1.5532627078	 0.0512231022	-0.393223
C	 0.0390905161	 0.0268117763	-0.0392982169	-0.237264
C	 0.8483907475	-0.4961849422	-1.2090804057	 0.25841
C	 0.5282986741	-0.236611826	-2.6434574398	-0.493097
C	 1.8542359468	-1.2264612714	-0.713882193	-0.130507
N	 1.8410742486	-1.2721765579	 0.6939538688	-0.084118
C	 2.8063546696	-1.9458046396	 1.5306908402	-0.351262
C	 0.785299767	-0.5304008664	 1.1865829896	 0.419855
O	 0.5267099917	-0.3524809861	 2.3589095622	-0.398577
H	 0.8697756311	 2.0430151762	-0.0004215269	 0.12106
H	-0.7266698064	 1.93903331	-0.763717511	 0.115863
H	-0.5741655321	 1.819353861	 1.0032714355	 0.142658
H	-0.9659442997	-0.4193089968	-0.0358107856	 0.112383
H	 0.5361402362	 0.8358502771	-2.8762925107	 0.127782
H	 1.2500503983	-0.7254952971	-3.3047005109	 0.122365
H	-0.4712642548	-0.6060039934	-2.908649724	 0.124434
H	 2.6290981988	-1.762489132	-1.2459993801	 0.119128
H	 2.8135608055	-3.025898957	 1.3439614332	 0.12854
H	 3.8182142971	-1.5559761294	 1.3689738852	 0.128219
H	 2.5149729591	-1.763910143	 2.5667230074	 0.167353
87.742	126.4577	139.2296	180.0454	204.283	227.9252	251.3099	263.6065	308.9981	341.5873	509.9968	557.2326	572.8782	612.7712	735.018	807.6555	823.1543	845.1677	986.7636	1008.9757	1032.1823	1051.8797	1085.6858	1092.1598	1135.9514	1155.7521	1186.6601	1235.3087	1293.3946	1323.4924	1339.0026	1399.4384	1405.9807	1422.3084	1454.2501	1475.8274	1493.4511	1494.4804	1497.7397	1501.195	1514.3354	1713.9055	1807.4625	3009.04	3011.686	3020.6111	3040.9927	3053.7826	3072.456	3100.9484	3111.9877	3125.4249	3142.5521	3221.5286
CC1C(C)=CN(C)C1=O	C[C@H]1C(=CN(C)C1=O)C	
InChI=1S/C7H11NO/c1-5-4-8(3)7(9)6(5)2/h4,6H,1-3H3	InChI=1S/C7H11NO/c1-5-4-8(3)7(9)6(5)2/h4,6H,1-3H3/t6-/m0/s1
