14
gdb 42604	2.70933	2.16326	1.4993	3.791	67.63	-0.2644	-0.0149	0.2496	855.7842	0.102905	-432.825228	-432.818956	-432.818012	-432.855933	25.138	
N	 0.0490912843	 1.2129771459	-0.1595831666	-0.539139
C	-0.0092605517	-0.0322858879	-0.0660095241	 0.401057
C	-1.0941851212	-1.0355927865	 0.0006973798	-0.187133
C	-0.6176882789	-2.2736551797	-0.798876398	 0.070897
O	 0.3703536028	-2.1188417314	-1.7967426039	-0.235647
C	 1.4392155565	-1.4691876378	-1.1989141878	 0.421816
N	 2.5377837657	-1.1968451855	-1.7388899424	-0.534763
N	 1.0545589522	-1.0717878654	 0.1318477452	-0.210782
C	-0.0346288228	-2.0251757202	 0.5217640498	-0.068529
H	 1.0178682226	 1.538334874	-0.1435395376	 0.247627
H	-2.1304612333	-0.8953457063	 0.2776584667	 0.123873
H	-1.3362023549	-3.0512167886	-1.0187255527	 0.140152
H	 2.5513378248	-1.5193421368	-2.7067142625	 0.238224
H	 0.0210186841	-2.6270868837	 1.4172215341	 0.132347
137.1068	151.1301	404.5936	419.6048	474.151	596.4905	651.2493	702.0829	757.5207	776.4694	808.4739	837.6204	849.0959	868.8322	896.1176	924.2425	943.7452	964.316	1013.59	1022.3706	1047.1383	1053.6284	1079.1318	1120.6744	1194.1918	1225.8942	1291.6096	1299.1561	1397.2631	1787.412	1837.0012	3213.6008	3220.4954	3231.9815	3473.1346	3498.9457
N=C1C2C3OC(=N)N1C23	[NH][C]1[C@H]2[C@H]3O[C]([NH])N1[C@@H]23	
InChI=1S/C5H5N3O/c6-4-1-2-3(1)9-5(7)8(2)4/h1-3,6-7H	InChI=1S/C5H5N3O/c6-4-1-2-3(1)9-5(7)8(2)4/h1-3,6-7H/t1-,2+,3-/m1/s1
