18
gdb 7953	3.2891	1.67661	1.31229	2.3433	67.19	-0.2369	-0.0166	0.2203	963.5624	0.153158	-384.975105	-384.966971	-384.966027	-385.007583	30.748	
C	 0.2230506014	 1.6386383022	 0.0695552977	-0.390466
C	 0.0438880885	 0.1160513292	 0.01553726	-0.018186
C	 0.7290858879	-0.5073713704	-1.2149580365	-0.330056
C	 2.1608082402	-0.8275798992	-0.7677086233	 0.405903
O	 3.0779255479	-1.1183530647	-1.489970697	-0.311598
C	 2.2143945786	-0.7241582215	 0.7605857971	-0.360825
C	 0.7427342527	-0.6115201395	 1.1924041294	 0.120301
O	 0.5228421219	 0.0933657164	 2.3994616182	-0.432427
H	 1.2773932605	 1.9298941833	 0.005601712	 0.114465
H	-0.2980995822	 2.1089841232	-0.7701718144	 0.112671
H	-0.1775559509	 2.0441963204	 1.0003773179	 0.138353
H	-1.0269229362	-0.1077833277	 0.0324532052	 0.079486
H	 0.2621966256	-1.4612297403	-1.4955159936	 0.12799
H	 0.7249440177	 0.1223857867	-2.1083082189	 0.127852
H	 2.7652571367	-1.5626887959	 1.1946057757	 0.119897
H	 2.7505988736	 0.195622628	 1.0261922081	 0.139888
H	 0.3165915977	-1.6256724178	 1.263237039	 0.070385
H	 0.9426881084	-0.3935951225	 3.1150114633	 0.286367
67.5866	136.5864	228.9851	267.6603	270.6378	340.6314	344.6573	466.3189	496.387	510.796	561.3432	645.6337	765.1588	788.2899	819.7361	913.5432	955.3966	984.692	1019.0582	1061.5729	1103.4745	1130.2838	1148.8901	1175.4868	1208.0861	1236.0866	1263.0904	1265.6697	1322.0054	1369.8319	1382.9089	1405.0079	1425.6312	1445.4392	1456.4311	1497.2646	1502.3248	1848.4822	2961.8193	3028.7551	3037.2628	3044.0023	3059.7565	3099.5628	3101.8893	3103.4623	3135.515	3825.3889
CC1CC(=O)CC1O	C[C@H]1CC(=O)C[C@H]1O	
InChI=1S/C6H10O2/c1-4-2-5(7)3-6(4)8/h4,6,8H,2-3H2,1H3	InChI=1S/C6H10O2/c1-4-2-5(7)3-6(4)8/h4,6,8H,2-3H2,1H3/t4-,6+/m0/s1
