14
gdb 133775	3.22943	1.00134	0.93163	1.1141	51.05	-0.2801	0.0584	0.3385	1220.4148	0.095903	-605.295985	-605.28731	-605.286366	-605.330995	30.326	
O	-0.0701710553	 1.4895047118	-0.3914444119	-0.414303
C	 0.0652740515	 0.2133248557	 0.2104440891	-0.107813
C	-1.272708854	-0.485331995	 0.2678911769	 0.043536
O	-1.7348195104	-1.1220272644	-0.9406936415	-0.24601
C	-1.5086578609	-1.9340848148	 0.1968819812	-0.122487
C	-0.4210767546	-2.9846285173	 0.0950758739	 0.282171
F	 0.5828790518	-2.6310949891	-0.7110684916	-0.064843
F	 0.0875866056	-3.2377292878	 1.3111373895	-0.074073
F	-0.932765472	-4.1307209811	-0.3738331608	-0.072324
H	-0.3203709888	 1.3479258978	-1.3110356455	 0.294934
H	 0.8046937298	-0.4073874796	-0.3037438944	 0.116908
H	 0.4183970444	 0.3926935521	 1.2317806023	 0.12417
H	-2.0474609331	 0.1003895721	 0.7650476013	 0.114115
H	-2.3996970139	-2.3432665505	 0.6738162915	 0.126019
30.0878	63.8622	147.2251	187.8549	253.8703	303.5259	371.1121	394.0036	467.7305	512.0045	532.8447	617.3955	686.5539	798.0024	815.7503	937.2765	969.8943	1059.6004	1074.3762	1123.6614	1146.4225	1184.7201	1198.8315	1230.8359	1279.3893	1318.6807	1366.6218	1408.7502	1429.7734	1490.5489	1504.3625	3053.1792	3097.22	3110.9296	3120.8205	3809.0042
OCC1OC1C(F)(F)F	OC[C@H]1O[C@H]1C(F)(F)F	
InChI=1S/C4H5F3O2/c5-4(6,7)3-2(1-8)9-3/h2-3,8H,1H2	InChI=1S/C4H5F3O2/c5-4(6,7)3-2(1-8)9-3/h2-3,8H,1H2/t2-,3-/m1/s1
