16
gdb 46814	2.59577	1.61953	1.16541	6.1325	73.95	-0.2611	-0.0341	0.227	1048.1121	0.125576	-400.78671	-400.779092	-400.778148	-400.818919	29.002	
O	 0.043785748	 0.0078130982	 0.080989063	-0.295337
C	-0.0018763131	 1.2035293176	-0.0128633857	 0.361917
C	-1.2667250422	 2.0597644565	-0.1668054803	-0.346954
C	-0.8104939432	 3.3604472077	-0.8570167431	-0.231918
C	 0.6787252927	 3.4959542965	-0.5433907039	-0.074977
C	 1.0987908876	 3.3473391938	 0.8738538828	-0.311769
C	 1.1942870905	 2.1310864288	-0.063979976	 0.072762
C	 2.483376542	 1.6096623509	-0.4019188134	 0.216615
N	 3.5291829132	 1.2018695659	-0.67993928	-0.3399
H	-2.0169798048	 1.5008905114	-0.7281580925	 0.145694
H	-1.6885745856	 2.2415830165	 0.8284916288	 0.140417
H	-0.9429086881	 3.2778085654	-1.9400069853	 0.126962
H	-1.3728896065	 4.2381048552	-0.5248960478	 0.119745
H	 1.30275799	 4.0839847045	-1.2054815774	 0.125138
H	 2.0525776681	 3.7676725466	 1.169066307	 0.154882
H	 0.3556290114	 3.3123385245	 1.6632568339	 0.136725
103.2064	142.3177	168.9992	244.9742	370.0431	400.5015	466.9	530.4861	574.6446	601.6674	642.1338	658.4787	808.7655	818.7548	879.972	886.9434	948.8521	986.5979	1026.2102	1048.6742	1075.5649	1089.8595	1110.8108	1177.2823	1223.6651	1260.3121	1276.6546	1306.9254	1336.7473	1396.1685	1460.4286	1489.5669	1503.206	1848.3205	2358.2848	3051.5515	3055.5619	3095.1948	3126.2493	3142.913	3192.1513	3235.1411
O=C1CCC2CC12C#N	O=C1CC[C@H]2C[C@@]12C#N	
InChI=1S/C7H7NO/c8-4-7-3-5(7)1-2-6(7)9/h5H,1-3H2	InChI=1S/C7H7NO/c8-4-7-3-5(7)1-2-6(7)9/h5H,1-3H2/t5-,7-/m0/s1
