14
gdb 62420	2.55734	1.54372	1.36544	2.8052	68.33	-0.2437	-0.0312	0.2125	983.4819	0.098417	-436.613243	-436.604962	-436.604018	-436.645995	30.696	
O	-0.1774561923	 1.4335185958	 0.1206049966	-0.452718
C	-0.0504985516	 0.0309685163	 0.0614149515	 0.100908
C	 0.8492392171	-0.5079443564	 1.0697281275	 0.25861
C	 1.6272628803	-0.9314576998	 1.8822102883	-0.434996
C	-1.393382047	-0.6981352232	-0.0456078255	-0.033533
C	-2.0981721227	-0.3238549676	-1.274631779	-0.257365
N	-1.0157427247	-1.3569112105	-1.3825077105	-0.175067
C	 0.2170891234	-0.5987955058	-1.3617381127	 0.345791
O	 1.1081381069	-0.5606739523	-2.1456003738	-0.290237
H	 0.7102121467	 1.8077580968	 0.166377022	 0.298207
H	 2.3107579398	-1.3108591607	 2.6019814713	 0.21109
H	-1.8267644748	-1.2937735315	 0.7464734221	 0.127704
H	-3.0811329233	-0.7482669131	-1.4469254406	 0.146047
H	-1.9308631579	 0.653341672	-1.7158601673	 0.155558
109.3605	123.541	172.561	199.0407	270.9976	294.3562	388.8033	465.2156	495.1696	581.9124	633.6351	664.6402	683.9005	691.2434	769.6932	774.7058	858.9446	901.6423	1012.3904	1032.97	1056.5658	1101.9706	1119.4125	1148.3324	1159.5079	1241.5245	1316.9984	1391.3652	1504.7906	1923.8418	2232.0701	3134.0425	3214.7374	3228.2916	3497.1112	3804.7133
OC1(C#C)C2CN2C1=O	O[C@@]1(C#C)[C@H]2CN2C1=O	
InChI=1S/C6H5NO2/c1-2-6(9)4-3-7(4)5(6)8/h1,4,9H,3H2	InChI=1S/C6H5NO2/c1-2-6(9)4-3-7(4)5(6)8/h1,4,9H,3H2/t4-,6+,7?/m1/s1
