19
gdb 76747	2.3817	1.59494	1.38948	2.5742	70.66	-0.2416	0.0429	0.2844	1037.1939	0.15836	-460.11943	-460.1107	-460.109756	-460.152598	33.39	
C	-0.2463046269	 1.5213444165	-0.0555426934	-0.512214
C	 0.0064443887	 0.0344870021	 0.0171828291	 0.269427
C	-1.1356836448	-0.9292405226	 0.3616898858	-0.119577
O	-0.2879938416	-1.6806691599	 1.2683899395	-0.291304
C	 0.7789283552	-0.7242959767	 1.1508983719	 0.034159
C	 1.867047167	-1.1593789472	 0.1527048269	 0.08293
O	 2.1025030651	-2.5493873815	 0.1149923187	-0.423308
C	 1.0001847275	-0.5969005479	-1.0306376439	 0.017281
O	 0.5048833281	-1.5947981524	-1.8807159046	-0.431019
H	 0.6899369216	 2.0846020912	-0.1404791372	 0.115793
H	-0.8561601543	 1.7678516923	-0.9330583324	 0.128141
H	-0.7752484212	 1.8842524789	 0.8321595438	 0.120912
H	-1.9715506615	-0.4599927186	 0.8977770164	 0.092418
H	-1.5169039504	-1.5435968314	-0.4592774446	 0.11581
H	 1.0829583717	-0.3108768092	 2.1176677502	 0.068941
H	 2.7922910781	-0.5877217142	 0.2998467219	 0.07304
H	 2.9054522945	-2.7059319216	-0.3926601211	 0.29469
H	 1.5000573767	 0.1635468941	-1.6415342859	 0.071396
H	 0.6888077063	-2.4337510119	-1.4313645512	 0.292481
63.6186	199.6845	215.779	233.875	250.4025	265.7453	277.5547	312.1861	501.0877	520.1975	537.0251	584.666	625.4196	750.4626	808.4396	835.4049	870.8034	938.023	940.3296	988.541	1004.602	1054.1395	1120.1069	1131.5145	1146.2459	1165.0518	1180.005	1204.9072	1211.3509	1246.5668	1264.5325	1295.0193	1315.5733	1336.6555	1395.1564	1413.3551	1426.4517	1440.6117	1491.429	1493.9	1518.3218	3008.4609	3016.8299	3021.7116	3038.6691	3059.3034	3084.7501	3085.7508	3093.4603	3708.7756	3819.7286
CC12COC1C(O)C2O	C[C@]12CO[C@H]1[C@@H](O)[C@H]2O	
InChI=1S/C6H10O3/c1-6-2-9-5(6)3(7)4(6)8/h3-5,7-8H,2H2,1H3	InChI=1S/C6H10O3/c1-6-2-9-5(6)3(7)4(6)8/h3-5,7-8H,2H2,1H3/t3-,4+,5-,6+/m0/s1
