20
gdb 92101	2.33483	1.76985	1.28894	2.5675	80.28	-0.2129	0.0068	0.2197	1050.8649	0.172661	-403.112969	-403.104798	-403.103854	-403.145285	32.308	
O	 0.1092069506	 1.4653689773	-0.0461559554	-0.424859
C	 0.0837981287	 0.0367874294	 0.097092122	 0.056738
C	-1.377767733	-0.3642848815	 0.3415720447	-0.15855
N	-2.3779882425	-0.2398936976	-0.710044033	-0.090672
C	-2.1250573144	 0.5230251563	-1.9319718719	-0.250841
C	-2.2317987002	-0.9635361125	-1.9640403612	 0.013493
C	-1.0635903194	-1.8872519317	-2.2699232463	-0.290751
C	 0.3431080391	-1.4044255364	-2.0183106805	-0.063875
C	 0.8124213694	-0.629757058	-1.0410760173	-0.079454
H	 1.0103421328	 1.7256003696	-0.2641135131	 0.280181
H	 0.6189410291	-0.2297237732	 1.0266433222	 0.071291
H	-1.3903305221	-1.4041037558	 0.6902890561	 0.102392
H	-1.7163366671	 0.2540474099	 1.1812646112	 0.116574
H	-2.9569087302	 1.1348809921	-2.2740865016	 0.104284
H	-1.1470973251	 0.9691112447	-2.067443171	 0.127508
H	-3.1731231828	-1.3894945739	-2.3143661824	 0.083242
H	-1.216983506	-2.8304340096	-1.7213798711	 0.120681
H	-1.1416683331	-2.1688353074	-3.3276390147	 0.111212
H	 1.072164295	-1.7804776216	-2.7341903335	 0.091967
H	 1.8848143211	-0.42699958	-1.0428488632	 0.079441
106.9449	168.1445	248.8988	252.8298	280.5568	301.0855	355.035	413.5875	483.4371	541.0596	640.6285	714.1691	720.2213	768.2278	822.166	878.2269	910.3684	917.1565	954.6872	969.3482	1015.5267	1042.962	1067.548	1076.8594	1110.0427	1122.224	1154.7956	1176.5859	1242.3432	1257.7192	1264.4433	1309.2608	1348.1024	1358.4809	1381.5014	1386.2957	1418.8327	1439.3905	1446.5302	1468.9529	1481.1322	1521.6754	1737.0621	2926.7564	2984.2936	3029.7085	3037.2564	3067.1096	3086.6331	3103.0144	3109.7946	3141.8752	3216.1261	3811.994
OC1CN2CC2CC=C1	O[C@H]1CN2C[C@H]2CC=C1	
InChI=1S/C7H11NO/c9-7-3-1-2-6-4-8(6)5-7/h1,3,6-7,9H,2,4-5H2	InChI=1S/C7H11NO/c9-7-3-1-2-6-4-8(6)5-7/h1,3,6-7,9H,2,4-5H2/t6-,7-,8?/m1/s1
