19
gdb 59927	2.23441	1.10462	0.78029	4.5412	82.63	-0.2472	0.0034	0.2506	1467.2715	0.156408	-382.033586	-382.023138	-382.022194	-382.069575	37.608	
C	 0.2504753786	 1.4936667822	 0.1929297621	-0.393874
C	 0.0604305937	-0.0252649655	 0.210221931	 0.062395
C	-0.0332026424	-0.5588422019	 1.6492197592	-0.386628
N	-1.0844953418	-0.3435086662	-0.6562060693	-0.272604
C	-1.3003661893	-1.7483275161	-0.9905858224	-0.298593
C	-2.0717598934	-2.5432929968	-0.0176762249	 0.337407
C	-2.7264386876	-3.1593509378	 0.7791421153	-0.443535
C	-1.9577006608	-1.8369004157	-2.3162049252	 0.309583
N	-2.4669051676	-1.9039930707	-3.35032748	-0.320378
H	 1.1426919915	 1.7783868622	 0.7580720035	 0.118754
H	 0.3476194995	 1.8596077547	-0.8318347368	 0.130634
H	-0.607478439	 1.9968614014	 0.6552002616	 0.114453
H	 0.9350957682	-0.483375338	-0.2722611769	 0.088444
H	 0.8656415935	-0.2906277726	 2.2144361641	 0.115211
H	-0.8974822594	-0.1262630749	 2.1664633542	 0.113808
H	-0.1384745923	-1.6461054306	 1.6767503048	 0.125619
H	-1.9417895012	 0.0655313228	-0.2989309703	 0.229137
H	-0.3082843647	-2.2057370778	-1.1067675602	 0.158067
H	-3.3001843154	-3.7087569286	 1.4848377303	 0.212102
36.9989	83.7567	132.2701	140.8601	205.3478	231.0623	257.1003	272.6523	347.8043	358.0873	408.9026	449.4844	505.0818	584.3473	601.6481	654.0588	668.2801	692.9919	839.6886	916.7029	928.6547	948.3592	959.4623	1004.2949	1116.4272	1140.5847	1185.3478	1193.9755	1289.6253	1298.4008	1349.1125	1381.4021	1400.8526	1420.4094	1480.9781	1482.9093	1488.916	1507.4019	1512.7953	2233.8128	2365.7199	3009.347	3024.6576	3030.1429	3035.3093	3095.5194	3103.6422	3121.5655	3129.0747	3499.4877	3529.8302
CC(C)NC(C#C)C#N	CC(C)N[C@@H](C#C)C#N	
InChI=1S/C7H10N2/c1-4-7(5-8)9-6(2)3/h1,6-7,9H,2-3H3	InChI=1S/C7H10N2/c1-4-7(5-8)9-6(2)3/h1,6-7,9H,2-3H3/t7-/m0/s1
