16
gdb 79274	2.64173	1.62438	1.29539	2.2968	68.81	-0.2523	-0.0387	0.2136	988.8872	0.12382	-437.815777	-437.808177	-437.807233	-437.848065	28.911	
O	 0.0517799972	 1.4316063278	-0.0433920823	-0.433206
C	-0.0263742531	 0.0405493593	 0.0162028005	 0.126801
C	 0.2140737994	-0.7374516091	 1.3030457621	-0.117448
C	-0.7661735775	-1.7737669893	 0.8971643528	-0.102092
N	-1.080159572	-0.9071218868	 2.0577990833	-0.144791
C	-2.1148209712	-0.1860439936	 1.2362298925	-0.208219
C	-1.4299810722	-0.6817855778	-0.0400254076	 0.160945
C	-2.1300491932	-0.8660484502	-1.3364463537	 0.029756
O	-3.2385331801	-0.4484410033	-1.5686746508	-0.247205
H	-0.3567405726	 1.8044170669	 0.7444046152	 0.293506
H	 0.6169022932	-0.3427580815	-0.781108919	 0.108371
H	 1.1246597238	-0.8365135472	 1.8790236769	 0.111357
H	-0.7488406252	-2.8545820149	 0.9033199517	 0.115999
H	-3.085267683	-0.6545995471	 1.4066883985	 0.133851
H	-2.198026894	 0.8937103513	 1.4078511697	 0.096237
H	-1.5520781495	-1.4258884645	-2.1072412096	 0.076138
74.484	166.8293	211.6776	249.7997	306.5695	340.4128	440.9109	535.2369	586.3824	699.5138	720.1746	779.6078	812.3914	820.3164	874.0284	931.7703	970.883	982.4245	1014.2426	1020.0271	1077.1008	1113.371	1117.2475	1158.2854	1174.1191	1184.2711	1225.866	1260.4546	1282.2216	1321.6416	1350.586	1425.5861	1434.2083	1517.2685	1808.9351	2867.5738	3036.1458	3081.8271	3125.1046	3205.5379	3221.5241	3824.3337
OC1C2C3N2CC13C=O	O[C@H]1[C@@H]2[C@H]3N2C[C@@]13C=O	
InChI=1S/C6H7NO2/c8-2-6-1-7-3(4(6)7)5(6)9/h2-5,9H,1H2	InChI=1S/C6H7NO2/c8-2-6-1-7-3(4(6)7)5(6)9/h2-5,9H,1H2/t3-,4+,5-,6-,7?/m0/s1
