17
gdb 33758	2.42444	1.65158	1.2711	4.2633	78.55	-0.2584	0.0049	0.2633	1036.1238	0.136971	-380.788133	-380.780626	-380.779681	-380.820045	29.511	
N	 0.0475201328	-1.1021029975	-0.0276413172	-0.34753
C	 0.0212761642	 0.053513914	-0.0059591139	 0.163134
C	-0.0441282158	 1.4939399861	 0.0170301356	 0.142386
C	-0.654114498	 2.4208781597	 1.115224034	-0.265129
C	-0.0074050969	 3.3282360311	 0.0286490247	-0.13971
N	 1.19496513	 2.3850898037	-0.0558129071	-0.341116
C	-0.6661604615	 2.4376455046	-1.0343251828	 0.464145
C	-0.6567183984	 2.4222182206	-2.5129231122	-0.357198
C	-1.9748365668	 2.4451684394	-1.7345095068	-0.369349
H	-1.7421084395	 2.4300808578	 1.2184713241	 0.116796
H	-0.1444075908	 2.3925583833	 2.0819958402	 0.108062
H	 0.1154162187	 4.4100970558	 0.0276683158	 0.101286
H	 1.6566337405	 2.361758414	 0.8607092163	 0.214577
H	-0.3576824428	 3.3240501869	-3.0364694085	 0.12441
H	-0.3857692266	 1.5006482568	-3.0171379114	 0.133775
H	-2.572017766	 1.5388150935	-1.7300768148	 0.13008
H	-2.555382583	 3.3622303103	-1.7418039059	 0.121381
111.1747	153.6105	216.17	267.565	292.5704	480.2361	515.4054	522.6471	555.11	624.7388	682.9836	765.5764	777.3578	797.9566	908.9733	920.2477	939.6252	962.3056	975.5145	1003.3465	1050.6626	1059.5375	1081.2751	1092.1138	1132.4139	1168.6719	1179.2999	1200.239	1211.9529	1261.0741	1276.9752	1297.5634	1419.5668	1460.0713	1498.9636	1529.8849	2353.9438	3053.2022	3126.3116	3127.7264	3133.8747	3136.0883	3206.4366	3221.6148	3370.9575
N#CC12CC(N1)C21CC1	N#C[C@@]12C[C@@H](N1)C12CC1	
InChI=1S/C7H8N2/c8-4-7-3-5(9-7)6(7)1-2-6/h5,9H,1-3H2	InChI=1S/C7H8N2/c8-4-7-3-5(9-7)6(7)1-2-6/h5,9H,1-3H2/t5-,7-/m1/s1
