22
gdb 59602	2.68048	1.15228	1.04167	3.9309	81.97	-0.2363	0.037	0.2733	1290.3431	0.195077	-404.411015	-404.401548	-404.400604	-404.445402	35.813	
C	 0.1460257987	 1.4980224171	 0.0677696243	-0.403609
C	 0.0130116462	-0.0314301656	 0.1001166192	 0.035808
C	 0.6422030152	-0.6058916825	 1.3759208552	-0.398352
C	-1.4585706618	-0.4620901068	-0.1119055192	 0.028175
C	-1.6893276292	-2.0017655174	-0.1750272551	-0.245986
C	-2.3272344964	-2.3843056679	 1.1715587844	-0.329888
C	-2.8686901686	-1.0692132164	 1.7395292313	 0.404657
O	-3.6027425438	-0.9249765478	 2.6924736402	-0.381534
N	-2.3514206906	-0.0646035757	 0.9663335643	-0.295863
H	 1.196548478	 1.8007340532	 0.1162282239	 0.118541
H	-0.2824787709	 1.9209686768	-0.8474996032	 0.111613
H	-0.3618616126	 1.9590655558	 0.9231693987	 0.113816
H	 0.5609818183	-0.431977485	-0.7648931527	 0.075987
H	 0.1082010989	-0.2622824283	 2.2677934039	 0.128103
H	 0.6391704565	-1.7000220297	 1.380877566	 0.114673
H	 1.6833200811	-0.2812324037	 1.467683399	 0.115444
H	-1.792337229	-0.0009970375	-1.0508562612	 0.077964
H	-2.3773800027	-2.2279195675	-0.9937945025	 0.112526
H	-0.7590942834	-2.5365011142	-0.3792838537	 0.109037
H	-3.1353530801	-3.1133429058	 1.0870757261	 0.128864
H	-1.6033845514	-2.7884457394	 1.8865278002	 0.131104
H	-2.5591923322	 0.8955420882	 1.189771531	 0.248919
76.2013	78.2741	128.3276	223.0585	237.1031	252.3729	275.9302	349.3909	415.9861	474.652	486.2103	560.9038	585.0514	648.1915	734.9904	771.4555	826.9216	882.315	914.2032	927.9534	962.8104	978.1174	1006.4554	1042.253	1066.6879	1117.0535	1139.3625	1181.2693	1203.8674	1227.2523	1260.8347	1291.8792	1300.1664	1335.2586	1343.1245	1370.3791	1394.4716	1406.0383	1425.4544	1443.5215	1467.0397	1487.5542	1493.5763	1504.5292	1509.2267	1514.0685	1827.6432	2999.0071	3009.6796	3026.1299	3037.4246	3063.8006	3066.9553	3090.7863	3100.7123	3104.1547	3105.5482	3108.5669	3121.2219	3645.3925
CC(C)C1CCC(=O)N1	CC(C)[C@H]1CCC(=O)N1	
InChI=1S/C7H13NO/c1-5(2)6-3-4-7(9)8-6/h5-6H,3-4H2,1-2H3,(H,8,9)	InChI=1S/C7H13NO/c1-5(2)6-3-4-7(9)8-6/h5-6H,3-4H2,1-2H3,(H,8,9)/t6-/m1/s1
