18
gdb 73555	2.73941	1.79247	1.40341	2.6445	71.42	-0.2529	0.0157	0.2686	971.775	0.149483	-439.099226	-439.091713	-439.090769	-439.130856	29.424	
C	 0.0683328053	 1.4541980188	-0.1299679355	-0.445262
C	-0.0612218458	-0.0703374727	-0.0573930934	 0.297432
C	-1.4880987714	-0.5536792112	 0.2109137455	-0.299739
C	-1.4612214304	-0.6706216934	 1.7744851863	-0.16519
N	-0.0660868111	-1.0234272125	 2.141839749	-0.314594
C	 0.6180586725	-0.7037375095	 1.1285821561	 0.402141
O	 1.8945594306	-0.9970104015	 0.8218297048	-0.263021
C	 1.9820329906	-0.8503334426	-0.6174154811	 0.002663
O	 0.6753772246	-0.6960387537	-1.124102484	-0.306099
H	 1.1129407405	 1.7748620522	-0.0812451996	 0.125481
H	-0.3589273728	 1.8115407424	-1.0713455653	 0.13343
H	-0.4677833048	 1.9292980149	 0.6967500053	 0.132805
H	-2.266058526	 0.1148236032	-0.1652360995	 0.101962
H	-1.6261518424	-1.5437526447	-0.2324652579	 0.123587
H	-1.7634700872	 0.2682719247	 2.2567561579	 0.109296
H	-2.1355892637	-1.4487418778	 2.1419574882	 0.117157
H	 2.6178261748	 0.0204890918	-0.8301657355	 0.112237
H	 2.4225078167	-1.7595169384	-1.0340087511	 0.135714
160.6527	201.6642	223.2824	238.4379	278.8216	352.5715	387.9534	509.9537	637.3614	657.111	706.1409	739.5152	753.5374	843.9515	913.5402	921.1549	932.2387	965.2216	984.8492	1032.6225	1070.1352	1122.1563	1132.088	1147.1595	1210.3048	1220.145	1232.6453	1255.5288	1290.5683	1330.0582	1333.4087	1405.6152	1443.5881	1480.5518	1491.1881	1494.875	1510.0932	1541.5008	1775.5924	3005.5855	3023.9619	3043.7625	3065.5044	3088.4756	3101.86	3116.8483	3120.0016	3121.6929
CC12CCN=C1OCO2	C[C@]12CC[N][C]1OCO2	
InChI=1S/C6H9NO2/c1-6-2-3-7-5(6)8-4-9-6/h2-4H2,1H3	InChI=1S/C6H9NO2/c1-6-2-3-7-5(6)8-4-9-6/h2-4H2,1H3/t6-/m0/s1
