17
gdb 34454	3.62721	1.47423	1.23972	1.3131	78.4	-0.2386	0.0406	0.2792	1015.9494	0.136798	-384.625758	-384.618604	-384.61766	-384.657058	29.09	
C	 0.0568701134	-1.107249812	 0.0029064344	-0.366083
C	 0.0246594161	 0.0953673188	-0.0124843519	 0.127782
C	-0.036288563	 1.5239019616	 0.0008418809	 0.183026
C	-1.2386365513	 2.2160009149	 0.6615311123	-0.160281
O	-1.3987606884	 3.4529899813	-0.0338240726	-0.260057
C	-0.1810951292	 3.6983332605	-0.7140021377	 0.065423
C	 1.036234945	 3.77852212	 0.2682175931	-0.266237
C	 1.2917763628	 2.3000258907	-0.0269226586	-0.115692
C	 0.3537465338	 2.3325711942	-1.2162839828	-0.120492
H	 0.0887862057	-2.1683512304	 0.0090978268	 0.184689
H	-2.1508311247	 1.6226043246	 0.5458374033	 0.117804
H	-1.0705450467	 2.3914306117	 1.7323204638	 0.105146
H	-0.3308628715	 4.5180941613	-1.4144441749	 0.090804
H	 1.83728455	 4.4035232803	-0.1358994793	 0.108741
H	 0.8147895779	 4.0883686002	 1.2941994085	 0.10358
H	 2.2255560595	 1.7624044745	 0.0806865324	 0.098875
H	 0.4366369906	 1.9396650377	-2.2196978177	 0.102971
142.2279	150.3755	242.8941	371.8608	427.2708	494.4065	500.0652	532.9214	582.1915	653.7055	664.5089	699.8344	782.8332	847.2879	864.6887	870.5823	921.2207	968.3067	984.371	1002.2837	1005.9865	1051.485	1080.7905	1097.4245	1117.6824	1177.0002	1196.3863	1217.515	1234.0847	1259.3356	1277.8609	1320.7197	1355.5755	1402.5207	1491.2341	1523.5079	2237.5025	3013.6284	3049.758	3076.173	3104.3705	3136.3021	3192.7846	3219.5356	3504.3061
C#CC12COC3CC1C23	C#C[C@@]12CO[C@H]3C[C@@H]1[C@@H]23	
InChI=1S/C8H8O/c1-2-8-4-9-6-3-5(8)7(6)8/h1,5-7H,3-4H2	InChI=1S/C8H8O/c1-2-8-4-9-6-3-5(8)7(6)8/h1,5-7H,3-4H2/t5-,6+,7-,8-/m1/s1
