16
gdb 20218	3.41503	3.15234	2.1834	0.1759	66.05	-0.2135	0.0586	0.2721	674.0839	0.133404	-342.686617	-342.680864	-342.67992	-342.717025	23.214	
C	-0.0321517636	 1.4787338474	-0.1909097244	-0.161327
C	 1.2596648137	 2.2567380893	 0.1357007263	-0.161327
N	 2.3328497657	 1.4229450263	 0.6780821006	-0.090083
C	 2.573791541	 0.0771603706	 0.2050065279	-0.078384
C	 1.2553429424	-0.7168658366	-0.1283392856	-0.078388
C	 0.752436117	-0.4632355909	 1.2566713563	-0.078383
C	 2.0708653762	 0.3308133957	 1.5900060778	-0.078387
N	 0.0482560037	 0.0470452612	 0.1004964557	-0.090083
H	-0.8818885038	 1.8698273692	 0.3776372818	 0.109434
H	-0.2906459643	 1.5716324989	-1.250533866	 0.109435
H	 1.6606804729	 2.7468669503	-0.7571670068	 0.109434
H	 1.0694569711	 3.045012718	 0.8710210328	 0.109435
H	 3.561988009	-0.1998971082	-0.1441907277	 0.094656
H	 1.2158638325	-1.6128323096	-0.7373690959	 0.094655
H	 0.2401206956	-1.120740798	 1.9498175613	 0.094657
H	 2.586218511	 0.2922446665	 2.542977946	 0.094655
37.981	350.5155	517.7244	529.7958	533.9005	681.2265	731.8566	744.3744	778.552	817.6004	866.3557	870.6571	915.1714	920.324	953.5512	956.3919	978.3614	1043.9366	1051.0768	1058.114	1113.676	1140.3378	1220.9682	1236.8159	1237.0989	1258.2689	1299.8436	1302.1133	1318.0522	1373.2286	1377.1653	1409.27	1490.4049	1504.0588	3036.6998	3046.7857	3067.1673	3092.478	3163.7548	3172.74	3174.5925	3184.7381
C1CN2C3C4C(C23)N14	C1CN2[C@@H]3[C@H]4[C@@H]([C@H]23)N14	
InChI=1S/C6H8N2/c1-2-8-5-3-4(6(5)8)7(1)3/h3-6H,1-2H2	InChI=1S/C6H8N2/c1-2-8-5-3-4(6(5)8)7(1)3/h3-6H,1-2H2/t3-,4+,5-,6+,7?,8?
