13
gdb 25414	5.13439	1.08161	0.8934	1.5105	74.11	-0.2514	-0.0908	0.1606	1189.4131	0.089712	-452.773121	-452.76587	-452.764926	-452.805276	26.481	
N	 0.1416330943	 1.2338141707	 0.5112114618	-0.50629
C	 0.0177907253	 0.0734210041	 0.0278243105	 0.366298
O	 1.0025871214	-0.4899121425	-0.7936959198	-0.215239
C	 0.8252690391	-1.7245731476	-1.2824222461	 0.04756
C	-0.2763264471	-2.4609943733	-1.0146373883	 0.114062
C	-0.4354872317	-3.8185104997	-1.5721199263	 0.097808
O	 0.37616941	-4.3614963375	-2.2866115028	-0.27161
N	-1.2969038303	-1.9657114185	-0.2054383132	-0.272825
C	-1.1463614454	-0.7839933102	 0.2731039803	-0.026148
H	 1.0188416137	 1.6711902038	 0.2269505713	 0.239026
H	 1.6428569336	-2.0667799326	-1.904677857	 0.178269
H	-1.3860130088	-4.3049727567	-1.2699734567	 0.095704
H	-1.916240074	-0.3555536902	 0.9096567464	 0.153383
75.1025	166.8485	191.5	282.9988	384.9252	388.6634	468.5671	498.2132	568.2004	663.8723	747.415	786.0924	818.441	874.6997	931.2855	955.1258	965.8276	1046.5029	1060.6213	1224.2868	1237.3114	1292.8418	1320.2497	1383.6123	1421.9902	1605.778	1651.9121	1741.7375	1801.0934	2928.8769	3174.4223	3227.5076	3492.5841
N=C1OC=C(C=O)N=C1	[NH]C1=C[N]C(=CO1)C=O	
InChI=1S/C5H4N2O2/c6-5-1-7-4(2-8)3-9-5/h1-3,6H	InChI=1S/C5H4N2O2/c6-5-1-7-4(2-8)3-9-5/h1-3,6H
