22
gdb 93797	2.83554	1.25988	0.92759	2.9632	83.49	-0.2175	-0.0126	0.2048	1320.9028	0.19445	-404.375571	-404.366305	-404.365361	-404.409374	35.192	
C	-0.0447935179	 1.5661680625	 0.0057563269	-0.399721
C	 0.0854602621	 0.044651631	 0.014034578	-0.08251
C	 0.7602270464	-0.5233119266	-1.2507340996	-0.2131
C	 0.9526935969	-2.036421134	-1.1606547451	-0.146406
N	 1.7628825128	-2.3800176469	 0.0008434249	-0.065882
C	 2.1222953765	-3.7872444304	 0.0319334453	-0.315493
C	 1.1317617453	-1.9637679278	 1.249349302	-0.243241
C	 0.8039538091	-0.471716019	 1.2565100556	 0.38842
O	 1.0658800538	 0.2264260931	 2.2077369946	-0.309054
H	 0.9403195373	 2.0395916641	-0.0513816921	 0.125091
H	-0.6341501894	 1.8973800143	-0.8547898966	 0.1064
H	-0.5250457053	 1.9228111389	 0.9193126441	 0.131458
H	-0.9204987217	-0.4047860294	 0.0678803654	 0.094764
H	 0.1558244533	-0.2762802248	-2.1303791978	 0.099679
H	 1.7396330776	-0.0485122058	-1.3834947934	 0.112419
H	-0.037222452	-2.5399398976	-1.1334244229	 0.071415
H	 1.4676144805	-2.4015166003	-2.0557551597	 0.101774
H	 2.6590139398	-4.0521685974	-0.8843270312	 0.119606
H	 2.7827031644	-3.9825015547	 0.8825512533	 0.122552
H	 1.2450304209	-4.4571227177	 0.1217064794	 0.092207
H	 0.1832011015	-2.515231577	 1.4391899258	 0.086322
H	 1.800576468	-2.1649431247	 2.0898958331	 0.123301
80.5473	109.8451	190.842	231.3668	252.4152	274.3944	306.9773	349.6387	354.8275	385.7822	435.5289	529.7077	608.1447	650.5567	741.3295	820.0005	867.2072	932.689	965.4019	981.0972	1011.6731	1059.8457	1085.6707	1114.0984	1137.4963	1158.8447	1164.699	1189.7005	1199.5076	1247.5075	1286.3909	1308.3938	1321.9027	1349.8427	1367.7054	1385.7849	1405.7776	1413.3341	1459.4523	1478.5613	1483.0547	1487.8776	1491.373	1496.9103	1505.0577	1508.1824	1817.4414	2852.1001	2879.5027	2922.7646	2972.543	3033.3732	3044.3437	3060.0754	3063.1977	3078.9824	3095.0958	3106.4053	3110.2728	3130.539
CC1CCN(C)CC1=O	C[C@H]1CCN(C)CC1=O	
InChI=1S/C7H13NO/c1-6-3-4-8(2)5-7(6)9/h6H,3-5H2,1-2H3	InChI=1S/C7H13NO/c1-6-3-4-8(2)5-7(6)9/h6H,3-5H2,1-2H3/t6-/m0/s1
