17
gdb 109555	2.00128	1.69605	1.11864	2.7672	65.08	-0.2404	-0.0356	0.2048	1110.5675	0.133197	-496.0752	-496.06571	-496.064766	-496.109436	33.903	
C	-0.0857535605	 1.2254033133	 0.0310731309	-0.246607
O	 0.3468320323	-0.1260992354	-0.0473918226	-0.262373
C	 0.8727799681	-0.6341916345	 1.1508640746	 0.003456
C	-0.2426292124	-1.2358487016	 2.0882215814	 0.040186
O	-1.5219232952	-0.6822977382	 2.1137464299	-0.428666
C	-0.0677516854	-2.5144457453	 1.2520731275	 0.276057
O	-0.8945566057	-3.2648821402	 0.817706781	-0.300449
C	 1.3583791852	-2.0932100454	 0.8211474855	 0.045376
O	 1.8230013623	-2.3650488075	-0.453657879	-0.421817
H	 0.7532418929	 1.8886835145	 0.2863889808	 0.113078
H	-0.4608444242	 1.4938231588	-0.9589126872	 0.132478
H	-0.8818759996	 1.3443589997	 0.7720412965	 0.142751
H	 1.5956991368	 0.0489452621	 1.6104888987	 0.075987
H	 0.1476007673	-1.3419580277	 3.1087406934	 0.109197
H	-2.0681888175	-1.2189945876	 1.5240815939	 0.300757
H	 2.10238756	-2.428933593	 1.5506172275	 0.120386
H	 1.2776728957	-1.8428851621	-1.0574570929	 0.300204
88.4519	134.3131	164.8179	176.7954	191.1854	207.5964	235.7049	298.0192	341.447	399.9881	484.1752	541.4495	594.9571	656.3453	789.413	796.4056	833.3039	937.6507	997.8837	1043.8418	1067.1049	1134.5472	1150.9647	1181.1159	1194.2618	1199.8675	1232.757	1255.9263	1318.3653	1351.4341	1363.3914	1408.6457	1438.6172	1480.4416	1485.731	1515.8965	1877.8844	3001.7834	3027.9098	3047.3777	3072.2198	3087.8925	3132.2228	3758.4784	3768.2994
COC1C(O)C(=O)C1O	CO[C@H]1[C@@H](O)C(=O)[C@H]1O	
InChI=1S/C5H8O4/c1-9-5-3(7)2(6)4(5)8/h3-5,7-8H,1H3	InChI=1S/C5H8O4/c1-9-5-3(7)2(6)4(5)8/h3-5,7-8H,1H3/t3-,4+,5-
