18
gdb 30364	3.04464	1.75407	1.14869	3.8781	78.82	-0.1818	0.0488	0.2306	1051.1844	0.151374	-398.16391	-398.156324	-398.15538	-398.195929	28.841	
C	-0.1249650852	 1.4976186289	-0.0238770903	-0.337226
N	 0.1594323881	 0.0764893005	 0.0118606026	-0.173376
C	 0.7912066724	-0.5374059436	-1.1654380666	-0.170549
C	 1.3612754522	-1.8815971457	-0.6332491938	-0.197167
N	 1.5507878747	-1.5421570273	 0.7638223924	-0.03247
C	 2.0560005854	-2.0722523967	 1.9440459864	-0.166129
C	 1.6353081339	-1.2021145918	 2.9147071211	-0.09058
N	 0.8566331028	-0.1731708758	 2.3903249882	-0.405835
C	 0.8294617989	-0.4456479251	 1.1119042158	 0.481858
H	 0.7682716128	 2.1026515944	-0.2529290935	 0.108287
H	-0.8885292444	 1.7044507477	-0.779553803	 0.1214
H	-0.5053611388	 1.79981222	 0.9535864941	 0.16233
H	 0.0702487562	-0.6809236097	-1.9744350232	 0.119188
H	 1.6118393257	 0.0956481939	-1.5422335973	 0.104232
H	 0.6404343976	-2.7012917545	-0.7471688095	 0.125504
H	 2.2926413104	-2.1631883437	-1.1304569149	 0.12726
H	 2.6698956202	-2.9560747278	 1.9699037841	 0.121147
H	 1.8533891373	-1.2440955136	 3.9712169174	 0.102125
136.5149	150.1933	183.8002	215.8835	259.3512	350.6882	495.8718	598.1573	611.2369	657.5443	676.846	744.2206	757.6515	831.0326	859.8493	939.4662	954.9434	1021.4389	1083.7692	1110.8288	1116.7577	1152.6127	1162.7363	1196.8717	1214.171	1251.725	1285.2387	1297.4747	1318.4085	1374.6212	1403.4186	1451.0639	1488.8205	1490.5407	1501.4604	1518.0437	1527.0301	1538.206	1631.1616	2963.3727	2967.609	3022.1913	3077.6046	3087.2735	3096.4325	3138.9023	3246.4716	3285.805
CN1CCN2C=CN=C12	CN1CCn2ccnc12	
InChI=1S/C6H9N3/c1-8-4-5-9-3-2-7-6(8)9/h2-3H,4-5H2,1H3	InChI=1S/C6H9N3/c1-8-4-5-9-3-2-7-6(8)9/h2-3H,4-5H2,1H3
