15
gdb 27776	2.00955	1.84644	0.96801	3.4885	71.83	-0.2324	-0.0284	0.204	1147.0805	0.114259	-454.043029	-454.035292	-454.034348	-454.075313	29.289	
C	 0.0290155679	 1.5001925228	 0.0133842628	-0.463762
C	-0.0157098482	 0.0002540157	-0.006929867	 0.332811
C	-1.1838188848	-0.694026254	-0.1265662554	-0.301729
C	-1.1990952765	-2.1377822457	-0.143548349	 0.424756
O	-2.1494402475	-2.8875995138	-0.2427997605	-0.384744
N	 0.1126775705	-2.6762528842	-0.0233163711	-0.395797
C	 1.2137360408	-1.9061297604	 0.0906225717	 0.510906
O	 2.3564579451	-2.5955979537	 0.1926428072	-0.39959
N	 1.2162434499	-0.6104482039	 0.1046570417	-0.438951
H	 0.6570537689	 1.8673174472	-0.8053095645	 0.14258
H	-0.9671447739	 1.9364330969	-0.0779713865	 0.128664
H	 0.4884952449	 1.8486715667	 0.9444417031	 0.142579
H	-2.1383283453	-0.1926350655	-0.2128426469	 0.11135
H	 0.1947775958	-3.6842771961	-0.0262178988	 0.274337
H	 3.0597509121	-1.9348184019	 0.2673818932	 0.316589
132.5567	167.2311	188.4591	220.041	299.5643	358.3261	510.9061	533.1915	544.1543	564.1587	594.8267	629.8783	673.7423	738.5654	782.7492	862.9093	944.6068	985.1881	1015.1136	1062.9899	1077.366	1183.7007	1211.9671	1246.257	1323.8686	1401.9909	1432.1381	1472.5598	1479.6084	1545.2348	1610.662	1672.6453	1805.2285	3041.3804	3098.2091	3139.656	3226.4439	3603.5606	3772.3139
CC1=CC(=O)NC(O)=N1	Cc1cc(=O)[nH]c(O)n1	
InChI=1S/C5H6N2O2/c1-3-2-4(8)7-5(9)6-3/h2H,1H3,(H2,6,7,8,9)	InChI=1S/C5H6N2O2/c1-3-2-4(8)7-5(9)6-3/h2H,1H3,(H2,6,7,8,9)
