16
gdb 56802	3.01453	1.21126	0.98049	3.2822	71.3	-0.2592	0.0073	0.2665	1209.6918	0.123539	-437.856113	-437.847313	-437.846369	-437.890493	31.344	
O	 1.107390187	 1.5322835113	-0.43291811	-0.409034
C	 0.3559041161	 0.4137512466	-0.0253507986	-0.120028
C	 0.2596265197	-0.6165399153	-1.0721973461	 0.341793
C	 0.1829404512	-1.4450475387	-1.938151232	-0.477805
C	 0.9552108856	-0.1866665044	 1.2292738702	 0.407017
N	 2.1002563596	 0.1331182287	 1.669235539	-0.334908
C	 2.3178175731	-0.6730144982	 2.8810215766	-0.186488
C	 1.036039764	-1.5418343998	 2.999407392	-0.114587
O	 0.2173614357	-1.1068959811	 1.8824756987	-0.249405
H	 1.9760324715	 1.4340307399	-0.0137773297	 0.298625
H	-0.6613122006	 0.7521335878	 0.2189600077	 0.133507
H	 0.1136951317	-2.1749066497	-2.7066679434	 0.202903
H	 3.2240615547	-1.2764199296	 2.7714291392	 0.1261
H	 2.4629178616	-0.0165458598	 3.7449428069	 0.125059
H	 1.2214970156	-2.6128587862	 2.8850515116	 0.129285
H	 0.4702811336	-1.3726626915	 3.9186064079	 0.127966
50.1691	86.776	110.9995	188.2817	227.0999	263.4174	347.7634	413.9116	436.5948	586.8342	631.2212	649.8616	673.3484	753.8988	807.4494	834.0484	920.0892	951.9198	985.6815	999.3421	1050.8207	1098.7364	1121.3627	1212.8344	1221.7518	1246.7496	1287.6558	1334.7585	1346.875	1385.4888	1456.5231	1503.8772	1525.2985	1741.3296	2238.0764	3010.8295	3048.7267	3065.2681	3080.099	3116.4689	3503.2545	3711.7866
OC(C#C)C1=NCCO1	O[C@@H](C#C)C1=NCCO1	
InChI=1S/C6H7NO2/c1-2-5(8)6-7-3-4-9-6/h1,5,8H,3-4H2	InChI=1S/C6H7NO2/c1-2-5(8)6-7-3-4-9-6/h1,5,8H,3-4H2/t5-/m0/s1
