22
gdb 80574	2.34359	1.49383	1.26147	1.1845	81.68	-0.2125	0.0695	0.282	1142.1848	0.19417	-404.336107	-404.326877	-404.325933	-404.369382	36.047	
C	 0.1093798999	 1.6542130555	 0.0749450732	-0.452636
C	 0.1091995228	 0.143199845	 0.1191193413	-0.022531
N	 1.2518052136	-0.7105644199	-0.2855737176	-0.153175
C	 2.5619555289	-0.0482301792	-0.3587031102	-0.197069
C	 2.9996316982	 0.4283184372	 1.0591361546	 0.10054
O	 3.1293433054	 1.844349132	 1.1895089829	-0.416919
C	 1.8789387293	-0.0556685309	 2.0053401632	-0.298643
C	 0.8067773174	-0.7037626461	 1.1298591502	 0.314287
C	 0.1533890676	-1.9601511696	 1.6579886399	-0.474388
H	 1.0103123269	 2.1040491253	 0.4935656956	 0.153213
H	 0.0039182479	 2.0013288984	-0.960056723	 0.115252
H	-0.7545971955	 2.0349278786	 0.6313273537	 0.115761
H	-0.8221272814	-0.2773887539	-0.262204143	 0.079686
H	 3.27540155	-0.7812058423	-0.7512556334	 0.102202
H	 2.5429222307	 0.796297116	-1.0578044361	 0.100382
H	 3.9584398784	-0.0354733381	 1.3286975294	 0.075708
H	 3.814804394	 2.1371377619	 0.5804474477	 0.28276
H	 2.2615547921	-0.7930934703	 2.7172004817	 0.102042
H	 1.5087963759	 0.7926398361	 2.5882629132	 0.122793
H	-0.4281880679	-1.7487086035	 2.5629883269	 0.113877
H	-0.5194404951	-2.3901015187	 0.911656219	 0.124546
H	 0.9049655811	-2.7167293534	 1.9124002208	 0.112314
100.9493	163.1929	189.9592	220.4051	251.6886	256.1151	300.8963	319.6033	408.4987	429.5225	467.7761	533.8983	591.4985	677.7173	711.4905	765.1119	816.4773	838.6416	907.6566	945.865	987.6941	1011.9469	1030.0907	1039.6789	1067.4113	1100.8694	1133.3031	1148.8572	1168.1977	1207.1437	1232.1569	1254.8205	1270.7134	1310.0881	1328.7019	1355.775	1362.5352	1412.8336	1420.3957	1423.4614	1447.7433	1480.7133	1488.013	1492.0703	1496.4245	1511.041	1518.0624	2995.1652	3024.2596	3027.1261	3029.8808	3056.9623	3067.646	3080.9006	3083.7748	3087.9696	3097.9818	3117.0927	3147.2123	3817.2166
CC1N2CC(O)CC12C	C[C@H]1N2C[C@@H](O)C[C@@]12C	
InChI=1S/C7H13NO/c1-5-7(2)3-6(9)4-8(5)7/h5-6,9H,3-4H2,1-2H3	InChI=1S/C7H13NO/c1-5-7(2)3-6(9)4-8(5)7/h5-6,9H,3-4H2,1-2H3/t5-,6+,7+,8?/m1/s1
