17
gdb 43692	6.70006	0.66291	0.64122	2.6692	76.35	-0.2461	-0.0247	0.2214	1684.7579	0.132124	-421.781688	-421.77249	-421.771546	-421.816814	33.117	
O	 0.1444830031	 0.1023152403	-0.2376531832	-0.284027
C	 0.0313174684	 1.2597511367	 0.0397704202	 0.396357
C	-1.1699815765	 2.194073837	 0.2483381881	-0.372838
C	-0.2031815648	 3.1999253362	 0.9205198365	 0.150322
C	 1.0289731545	 2.3618174831	 0.4357941652	-0.374882
O	-0.3434233538	 4.4969264286	 0.4040007603	-0.252034
C	 0.5434327259	 5.4284796547	 1.0025724088	-0.218814
C	 0.3357655224	 6.7497904942	 0.4271895818	 0.279792
C	 0.1856812992	 7.8492382046	-0.0310173574	-0.410537
H	-1.5398891788	 2.5923779262	-0.7025779609	 0.150087
H	-2.0103432207	 1.8064453523	 0.8274434389	 0.133529
H	-0.2890124131	 3.2049415974	 2.0165401749	 0.080196
H	 1.8056231401	 2.0862257431	 1.1526770171	 0.128928
H	 1.4923142661	 2.8123747579	-0.4491610052	 0.141874
H	 0.3782257975	 5.465045691	 2.0927061082	 0.123165
H	 1.590523998	 5.1187062912	 0.8510071882	 0.124855
H	 0.0476298025	 8.8197398956	-0.4397419716	 0.204026
39.5395	71.9509	100.4374	133.5587	244.2393	330.8138	347.5636	392.0119	426.1714	495.3226	529.4937	614.1702	658.865	673.4075	680.6661	774.0718	902.0001	937.9646	967.9025	1004.3465	1024.8539	1033.2157	1079.5222	1112.6808	1145.5763	1176.4254	1214.2166	1238.1874	1254.7756	1277.9253	1363.7662	1415.2804	1423.7182	1444.9165	1500.829	1898.8832	2249.9761	2960.2938	2982.8871	3001.9568	3052.9083	3062.6159	3121.6991	3128.0734	3506.0094
O=C1CC(C1)OCC#C	O=C1CC(C1)OCC#C	
InChI=1S/C7H8O2/c1-2-3-9-7-4-6(8)5-7/h1,7H,3-5H2	InChI=1S/C7H8O2/c1-2-3-9-7-4-6(8)5-7/h1,7H,3-5H2
