21
gdb 55280	2.40606	1.4292	1.12767	3.5462	79.75	-0.2296	0.0588	0.2884	1186.3771	0.181925	-420.447839	-420.437946	-420.437002	-420.482364	37.023	
C	-0.2683994179	 1.5123404379	 0.1667623199	-0.431395
C	 0.0177599933	 0.0239250947	-0.0072294932	 0.33545
C	-1.250114625	-0.8171517516	 0.1585929221	-0.433549
C	 0.8750159511	-0.3718721106	-1.2570636033	-0.293298
C	 1.9051073526	-1.0167937101	-0.2915900129	-0.18392
N	 1.1490104087	-0.4523122209	 0.826209004	-0.116771
C	 1.1354608081	-0.7506210656	 2.159549628	 0.416724
N	 2.2292508001	-1.4951781497	 2.5904415232	-0.559627
O	 0.2312694389	-0.4152208835	 2.9091268513	-0.412949
H	 0.6439471813	 2.1021329769	 0.0370926457	 0.106847
H	-1.0072056649	 1.8500532096	-0.5681131745	 0.110202
H	-0.6612383385	 1.7012429072	 1.1693453325	 0.147019
H	-2.0025000342	-0.51147429	-0.5764141085	 0.108723
H	-1.0389442339	-1.8808026112	 0.006686436	 0.107529
H	-1.6593646606	-0.6901952695	 1.1627331304	 0.154831
H	 0.3910990728	-1.0563702343	-1.9546602638	 0.110199
H	 1.2678257538	 0.4855656271	-1.8060808732	 0.109063
H	 1.9223188614	-2.1140054229	-0.3054216743	 0.115563
H	 2.9358671695	-0.6509767992	-0.3780844132	 0.103289
H	 3.0980711358	-1.3908569488	 2.0879459604	 0.248194
H	 2.3287736578	-1.4846178355	 3.5944006033	 0.257876
81.6908	88.653	133.2957	170.1283	216.2088	256.9447	311.8487	332.4158	349.646	413.049	436.971	468.8879	544.116	553.2201	678.048	699.1324	771.793	794.2388	872.1232	927.4842	953.9736	973.3109	983.9195	1032.2726	1055.5579	1144.9385	1153.5384	1184.2427	1209.6085	1228.1549	1240.1018	1275.6952	1294.5939	1327.486	1395.0887	1410.6412	1441.9682	1473.0803	1488.8592	1491.8577	1494.1805	1513.472	1526.274	1621.6537	1773.0401	3008.1864	3032.4193	3037.6785	3044.1483	3082.6378	3098.2163	3106.1882	3123.6965	3137.2757	3139.6094	3571.2986	3687.2061
CC1(C)CCN1C(N)=O	CC1(C)CCN1C(=O)N	
InChI=1S/C6H12N2O/c1-6(2)3-4-8(6)5(7)9/h3-4H2,1-2H3,(H2,7,9)	InChI=1S/C6H12N2O/c1-6(2)3-4-8(6)5(7)9/h3-4H2,1-2H3,(H2,7,9)
