23
gdb 72527	2.5373	1.61877	1.59887	0.1729	88.44	-0.2363	0.028	0.2644	1038.8779	0.20945	-351.189924	-351.182089	-351.181144	-351.221458	33.065	
C	-0.0219579084	 1.5515106101	 0.0152382616	-0.468198
C	-0.0167488334	 0.0237171683	 0.0008955321	 0.261034
C	 0.7124383697	-0.5295389593	-1.2597835564	-0.208958
C	 0.6545169396	-2.080838212	-1.2771896289	-0.208474
C	-0.1118866633	-2.5774671413	-0.0225887713	-0.054275
C	 0.6771715527	-2.1042714106	 1.2270231466	-0.208469
C	 0.7353155149	-0.5529183952	 1.2374189158	-0.208966
C	-1.4624230153	-1.9028842579	-0.0039904503	-0.090622
C	-1.4106488571	-0.5698171892	 0.0080498447	-0.079501
H	 0.9979733985	 1.9514024149	 0.0097199969	 0.107869
H	-0.5424104989	 1.9528481622	-0.8615723179	 0.109664
H	-0.5263433017	 1.936284223	 0.9087049571	 0.109664
H	 0.2457510145	-0.1124212119	-2.1574544079	 0.091448
H	 1.7507986499	-0.1770825893	-1.2498252018	 0.087072
H	 0.1535674614	-2.4402571429	-2.1804905189	 0.094089
H	 1.6626274959	-2.5104745717	-1.2792431186	 0.089094
H	-0.1947629104	-3.667372459	-0.0320343242	 0.054569
H	 0.19235665	-2.4804011864	 2.1323234822	 0.094088
H	 1.685002146	-2.5338943386	 1.2030124506	 0.089091
H	 1.7734423681	-0.2003483195	 1.2148375784	 0.087076
H	 0.2854677286	-0.152562245	 2.1511740168	 0.091449
H	-2.3848127954	-2.4744654076	-0.0009441153	 0.083101
H	-2.285736636	 0.0734430291	 0.0220592989	 0.078153
144.049	227.8387	258.0955	283.556	324.5068	377.0457	393.2853	438.3228	526.4965	591.9519	637.8379	707.2059	722.7179	809.3915	810.3711	833.9913	890.9913	904.305	933.9717	944.3236	967.7557	974.6156	1003.9401	1026.6011	1056.7985	1070.0676	1124.9747	1126.1832	1159.468	1189.9483	1204.9246	1232.0474	1238.9008	1272.3905	1296.803	1311.1096	1317.7234	1348.1268	1351.8083	1377.1729	1400.6587	1411.7888	1479.6183	1490.4147	1494.0368	1497.9825	1499.8516	1512.8062	1680.9866	3020.7669	3023.1292	3026.8884	3038.4942	3041.8506	3064.8602	3066.3	3071.9916	3086.2907	3089.3762	3090.6814	3093.2358	3158.2505	3185.8394
CC12CCC(CC1)C=C2	C[C@@]12CC[C@@H](CC1)C=C2	
InChI=1S/C9H14/c1-9-5-2-8(3-6-9)4-7-9/h2,5,8H,3-4,6-7H2,1H3	InChI=1S/C9H14/c1-9-5-2-8(3-6-9)4-7-9/h2,5,8H,3-4,6-7H2,1H3/t8-,9+
