18
gdb 56696	2.0229	1.3494	1.23811	4.0327	81.7	-0.273	0.0257	0.2986	1166.4287	0.145557	-364.784235	-364.774719	-364.773775	-364.818566	35.134	
C	 0.0997884975	 1.4300661352	-0.2710149564	-0.403333
C	 0.0068348788	-0.0734082661	 0.055528786	-0.253273
C	 0.6472551382	-0.3858918006	 1.3328393985	 0.344176
C	 1.1680212412	-0.6313426683	 2.3874010678	-0.457583
C	-1.4456899864	-0.5795660097	 0.0248909226	 0.194059
C	-2.0251452454	-1.0338592052	-1.3071084947	-0.307132
C	-1.6978495974	-2.0505516156	-0.2543029902	-0.292492
C	-2.3476481307	 0.0791111632	 0.9373504837	 0.257879
N	-3.0727264991	 0.6173686786	 1.6605714244	-0.35142
H	 1.1437219935	 1.7514741077	-0.285148321	 0.131291
H	-0.3441072362	 1.6331042951	-1.2500367392	 0.120603
H	-0.4306202232	 2.0200308073	 0.4808111509	 0.153859
H	 0.533816745	-0.6276462641	-0.7328482854	 0.109197
H	 1.6252468592	-0.848800951	 3.3210205135	 0.202939
H	-3.0669274399	-0.8114382779	-1.5034442382	 0.143621
H	-1.3734866113	-0.9502510355	-2.1701039622	 0.12932
H	-0.8163197509	-2.6687297378	-0.3821825892	 0.134675
H	-2.5147673431	-2.5289142153	 0.2718112991	 0.143613
56.3594	115.6482	147.8766	201.7541	224.5962	238.0401	249.6155	318.4272	395.2595	465.6859	535.7041	578.7189	603.6257	636.4997	651.0811	702.543	777.6046	845.2108	911.8865	922.8531	958.7611	974.2746	1025.9878	1070.9984	1092.5965	1100.5638	1123.0053	1193.1449	1258.5643	1285.7913	1324.521	1366.1611	1409.2263	1469.2866	1491.3355	1496.5171	1499.0162	2239.2217	2350.2149	3015.4803	3047.6652	3123.879	3133.4887	3142.0608	3146.9703	3228.493	3242.3649	3503.5459
CC(C#C)C1(CC1)C#N	C[C@@H](C#C)C1(CC1)C#N	
InChI=1S/C8H9N/c1-3-7(2)8(6-9)4-5-8/h1,7H,4-5H2,2H3	InChI=1S/C8H9N/c1-3-7(2)8(6-9)4-5-8/h1,7H,4-5H2,2H3/t7-/m0/s1
