17
gdb 61913	3.7186	0.7338	0.6389	5.7041	69.28	-0.2654	-0.0015	0.2639	1646.9352	0.135967	-455.193323	-455.183872	-455.182927	-455.228811	33.334	
N	 0.0651116429	 0.8778082113	-0.030283857	-0.538517
H	-0.2569479111	-0.0447289879	-0.3077599822	 0.249653
H	 1.4336149837	 0.6248439273	 1.2705990736	 0.308727
H	-0.0016155726	 1.4856049669	-0.8373340771	 0.253149
C	-0.6930004716	 1.3867522607	 1.1230638811	-0.152474
C	-2.1658587735	 0.9645319363	 1.2002771097	-0.185022
C	-3.0143526355	 1.5863049224	 0.0754995477	-0.353372
C	-4.4013319105	 1.1283596773	 0.1012936876	 0.261742
N	-5.4938661201	 0.7536475591	 0.1282860343	-0.29537
C	 0.0413653731	 1.0041468004	 2.4330472873	 0.445051
O	-0.4746207117	 1.0804533544	 3.5154479288	-0.335973
O	 1.3061689853	 0.6179242962	 2.2443642797	-0.366113
H	-0.6394712325	 2.4830535314	 1.0842226215	 0.125957
H	-2.2342880707	-0.1289944851	 1.150562084	 0.123983
H	-2.5559021322	 1.2574684892	 2.1771055413	 0.163061
H	-3.0073080496	 2.6800582167	 0.1565339908	 0.156657
H	-2.5926632337	 1.3403238835	-0.9066014711	 0.138862
53.4013	76.3507	98.2491	112.9067	233.8085	276.7953	310.4626	352.5937	389.3871	424.8274	505.8315	547.4476	623.924	732.8436	767.792	828.4835	847.555	879.308	952.6991	967.7775	1027.5729	1070.4515	1127.9659	1151.0482	1219.8331	1235.1301	1264.2712	1316.1419	1327.5162	1384.2787	1395.4028	1421.1367	1470.2201	1492.725	1655.0478	1868.8313	2365.5712	3028.1101	3032.8678	3048.4547	3070.9215	3125.249	3489.3601	3510.6872	3601.2388
[NH3+]C(CCC#N)C([O-])=O	N[C@@H](CCC#N)C(=O)O	
InChI=1S/C5H8N2O2/c6-3-1-2-4(7)5(8)9/h4H,1-2,7H2,(H,8,9)	InChI=1S/C5H8N2O2/c6-3-1-2-4(7)5(8)9/h4H,1-2,7H2,(H,8,9)/t4-/m0/s1
