18
gdb 37599	2.85057	2.33196	1.99318	0.9768	71.49	-0.2245	0.0836	0.308	793.3818	0.153237	-401.929609	-401.924208	-401.923264	-401.95901	24.44	
C	-0.0335079986	 1.5674960774	-0.0445007403	-0.206289
C	 1.4807896503	 1.794757725	-0.0055548164	 0.049823
O	 1.8872213016	 0.9303110018	-1.0867717585	-0.261054
C	 1.4585541646	-0.2893655353	-0.4688752288	 0.05984
C	 2.2825220071	-0.3058766552	 0.8400338453	-0.054095
C	 2.099802598	 1.1119270453	 1.2500088385	-0.057981
N	 1.4171570864	-0.0001380017	 1.973547381	-0.119523
C	 0.0467133697	-0.330903462	 1.5431593771	-0.1577
C	-0.0100727891	 0.0208334587	 0.0544008084	-0.085855
H	-0.5851801032	 2.0315247646	 0.7767303673	 0.098327
H	-0.4308714235	 1.9296050449	-0.9949894679	 0.104936
H	 1.8428238287	 2.8073124543	-0.1818652322	 0.076883
H	 1.5797254125	-1.1249580131	-1.1553114214	 0.07939
H	 3.1713570456	-0.9114491516	 0.9761616124	 0.090714
H	 2.811003994	 1.6592891423	 1.8577199235	 0.099786
H	-0.0935804155	-1.4019999395	 1.7302715341	 0.101891
H	-0.6928787313	 0.2128543172	 2.1388219888	 0.105383
H	-0.7974750869	-0.4837556731	-0.5047311107	 0.075524
291.3682	435.5491	497.3535	550.2162	600.9377	640.2255	713.27	719.6277	782.0672	801.4645	844.0384	873.6539	888.1841	901.8188	920.7757	954.3443	975.211	981.9518	1005.9393	1012.9867	1027.5911	1051.0013	1085.0595	1104.4658	1160.5929	1167.9109	1229.7513	1237.585	1244.601	1261.4748	1277.1157	1296.5779	1310.0522	1321.3977	1334.5241	1350.88	1377.8894	1484.9812	1511.2779	3035.0746	3065.3606	3083.1934	3113.0091	3120.1458	3125.4514	3143.7118	3170.5886	3181.1459
C1C2OC3C4C2N4CC13	C1[C@@H]2O[C@H]3[C@H]4[C@@H]2N4C[C@@H]13	
InChI=1S/C7H9NO/c1-3-2-8-5-4(1)9-7(3)6(5)8/h3-7H,1-2H2	InChI=1S/C7H9NO/c1-3-2-8-5-4(1)9-7(3)6(5)8/h3-7H,1-2H2/t3-,4+,5-,6-,7-,8?/m1/s1
