23
gdb 101243	2.71138	0.91791	0.81776	1.1126	82.3	-0.2529	0.0674	0.3203	1541.4573	0.202098	-425.416918	-425.405758	-425.404814	-425.453361	40.506	
C	-0.410449473	 2.5842633276	-1.6438767598	-0.413428
C	 0.045024904	 1.3551006696	-0.8436213938	-0.031571
C	-1.1400771684	 0.5930439872	-0.2261910022	-0.06819
O	-1.9050104356	 1.3745786725	 0.6764847183	-0.421764
C	 0.8383184428	 0.4233789301	-1.7360812106	 0.01156
O	 2.1463306657	 0.8448368321	-2.143697344	-0.307603
C	 2.0345567871	-0.3542689478	-1.3526930076	 0.392027
C	 2.6435455246	-0.2803411119	 0.0311254339	-0.457986
C	 2.3464081725	-1.6278695299	-2.1119764406	-0.450776
H	 0.4510842231	 3.089995113	-2.0877138374	 0.140201
H	-1.0892576999	 2.29972078	-2.4577388753	 0.110148
H	-0.9259137247	 3.3063324848	-1.0026493886	 0.109214
H	 0.681326143	 1.6990578553	-0.0223645892	 0.085248
H	-1.7732134068	 0.1789715311	-1.0290465495	 0.084496
H	-0.7682614793	-0.2545689949	 0.3593010102	 0.111355
H	-2.3746544234	 2.0421549885	 0.1679012114	 0.285315
H	 0.2467335533	 0.0118947742	-2.5608372137	 0.075448
H	 2.4527373201	 0.6794987869	 0.5126358139	 0.132409
H	 2.2503412097	-1.0781431633	 0.6706974257	 0.120956
H	 3.7292266963	-0.4127253074	-0.0333638972	 0.124755
H	 3.4295006367	-1.7525469201	-2.2197581471	 0.123994
H	 1.9605166385	-2.5041929172	-1.5797794138	 0.11874
H	 1.9049312136	-1.6035803702	-3.111185143	 0.125451
47.3746	88.3904	108.2614	156.9621	189.9285	205.4103	231.3031	255.5767	301.1045	314.8736	364.3696	375.3204	388.0647	443.3483	526.6236	547.8709	711.2815	812.6078	861.2476	910.1418	927.2216	945.6379	948.8713	1004.2672	1058.4277	1080.9452	1084.363	1120.9043	1149.3481	1158.8968	1169.6501	1229.2713	1264.8651	1282.4959	1348.5412	1364.0928	1388.2059	1402.6098	1409.7559	1419.8104	1422.2509	1466.6429	1473.6006	1486.5247	1495.9055	1498.2107	1502.2633	1509.9859	1520.7566	2963.3334	3024.4702	3032.3465	3038.2288	3045.4553	3062.0627	3073.5474	3092.8646	3094.5048	3098.3313	3117.1137	3123.1635	3141.235	3829.6905
CC(CO)C1OC1(C)C	C[C@@H](CO)[C@H]1OC1(C)C	
InChI=1S/C7H14O2/c1-5(4-8)6-7(2,3)9-6/h5-6,8H,4H2,1-3H3	InChI=1S/C7H14O2/c1-5(4-8)6-7(2,3)9-6/h5-6,8H,4H2,1-3H3/t5-,6+/m0/s1
