19
gdb 51458	3.5807	0.98883	0.95981	3.0632	80.82	-0.2364	-0.0166	0.2197	1294.6044	0.159542	-385.895028	-385.886844	-385.8859	-385.928853	30.81	
O	-0.7434109381	 0.588643253	 0.4016658712	-0.242594
C	 0.1852029668	 0.9222910884	-0.2884554208	 0.163749
C	 1.1970168399	 1.9892245383	 0.0691692568	-0.303763
C	 1.3340248194	 3.0165723307	-1.0384971283	-0.024224
C	 2.5231782895	 3.9345911859	-1.192844763	-0.082889
C	 3.8445738952	 3.5791779279	-0.5064130333	-0.272302
C	 4.255859534	 2.2788165572	-1.16562581	-0.074921
C	 3.3992123603	 1.9115610182	-2.1228425333	-0.076792
C	 2.2585761628	 2.8639717108	-2.2455256958	-0.094722
H	 0.3626228104	 0.4456861919	-1.2810307618	 0.07256
H	 0.8950116599	 2.4548121608	 1.0126317411	 0.117719
H	 2.157911118	 1.483704653	 0.2281644226	 0.12491
H	 0.3910688863	 3.4995055057	-1.2862794183	 0.096205
H	 2.3177196218	 4.9785139497	-1.3984946733	 0.089571
H	 4.595465575	 4.3642228302	-0.6637303274	 0.111842
H	 3.7403728248	 3.4735539434	 0.582278229	 0.112707
H	 5.1340331273	 1.7215730043	-0.8589802952	 0.097386
H	 3.4873834034	 1.0209983956	-2.7350012422	 0.096656
H	 1.8548153834	 3.095654335	-3.225285298	 0.088904
52.3777	63.0966	149.3709	214.8323	273.5446	367.6071	460.5069	517.354	547.2892	697.0714	747.0926	751.2751	783.4844	803.6631	833.5229	906.8441	938.4726	952.2024	961.8619	978.27	1014.4653	1030.0993	1070.4407	1085.1246	1097.8372	1114.548	1138.3032	1185.0578	1202.693	1251.7647	1291.3207	1303.3062	1313.241	1364.208	1381.4516	1425.2649	1426.758	1455.8831	1479.7492	1665.7054	1834.5909	2858.9362	3015.0493	3033.4103	3039.4858	3090.6069	3128.1962	3162.4061	3177.1793	3184.755	3209.2194
O=CCC1C2CC=CC12	O=CC[C@H]1[C@H]2CC=C[C@@H]12	
InChI=1S/C8H10O/c9-5-4-8-6-2-1-3-7(6)8/h1-2,5-8H,3-4H2	InChI=1S/C8H10O/c9-5-4-8-6-2-1-3-7(6)8/h1-2,5-8H,3-4H2/t6-,7+,8-/m1/s1
