14
gdb 19452	5.61391	1.60098	1.58569	5.273	66.26	-0.2403	-0.0288	0.2115	815.8969	0.109856	-341.541908	-341.535884	-341.53494	-341.571957	23.734	
N	-0.0982325166	-1.1572489861	-0.1172399128	-0.325638
C	-0.0348319769	-0.0057300682	-0.0348738988	 0.286503
C	-0.0054831088	 1.4472881243	 0.0200835609	-0.138759
C	 0.0416278819	 2.0876326629	 1.4650826663	-0.052913
N	 1.4821295804	 1.6678879437	 1.471561701	-0.283636
C	 1.4284060289	 2.1134995733	 0.0398385185	-0.052912
C	 1.0242481053	 3.5994304699	 0.1290117426	-0.098104
C	 0.0927262135	 3.5820647804	 1.0864690593	-0.098104
H	-0.7280596721	 1.8734893221	-0.6752554605	 0.122801
H	-0.6031422839	 1.7452426805	 2.2724147139	 0.094524
H	 2.05686482	 2.2893500317	 2.0420674992	 0.212263
H	 2.2237679331	 1.7979713131	-0.6329065079	 0.094523
H	 1.395266123	 4.4091184209	-0.4820737522	 0.119726
H	-0.522467468	 4.3733658516	 1.4890281204	 0.119726
160.5019	165.199	404.3683	466.8214	501.4178	564.4182	575.001	707.6648	746.7669	844.5809	858.9601	894.0949	906.0898	911.6624	919.9986	966.4838	1007.3969	1029.1674	1105.498	1108.3314	1158.1864	1184.0092	1229.0289	1237.7188	1282.0429	1293.8378	1336.7296	1342.7801	1612.8755	2354.3701	3124.5719	3141.8828	3143.6852	3230.8143	3257.4655	3446.8428
N#CC1C2NC1C=C2	N#C[C@H]1[C@H]2N[C@@H]1C=C2	
InChI=1S/C6H6N2/c7-3-4-5-1-2-6(4)8-5/h1-2,4-6,8H	InChI=1S/C6H6N2/c7-3-4-5-1-2-6(4)8-5/h1-2,4-6,8H/t4-,5-,6+
