23
gdb 58314	3.70565	0.67677	0.63859	1.4337	88.45	-0.2535	0.0575	0.311	1847.0458	0.202132	-388.266275	-388.254896	-388.253952	-388.303121	41.496	
C	-0.1233871819	 1.5791345739	 0.1226467056	-0.409527
C	-0.0612320268	 0.0493884243	-0.0056443549	 0.025264
C	-1.4723202018	-0.5541685882	-0.0098822295	-0.393701
C	 0.7242675787	-0.4213617144	-1.2519549744	 0.13517
O	 0.1205837695	 0.0254916702	-2.4674443328	-0.438611
C	 2.2168904593	-0.0706644005	-1.2130907203	-0.213283
C	 2.9905726893	-0.6987407551	-2.3902473689	-0.356056
C	 4.3968030693	-0.3181006529	-2.4138117072	 0.292773
C	 5.5522820684	 0.0141211255	-2.4091903185	-0.441473
H	 0.86951786	 2.0357362507	 0.1740099463	 0.117762
H	-0.6641346711	 2.0279367298	-0.7193385057	 0.109964
H	-0.6622105637	 1.8640559573	 1.0313587773	 0.119829
H	 0.4793479369	-0.3415457343	 0.8675988122	 0.07276
H	-2.0151002023	-0.2471370557	-0.9088983785	 0.127897
H	-1.4361747387	-1.6487984387	-0.0013045592	 0.109295
H	-2.0439492767	-0.2299859557	 0.8654854059	 0.106096
H	 0.6334147475	-1.5149198877	-1.3013149297	 0.081905
H	 0.2131671145	 0.9837787221	-2.5063171672	 0.280914
H	 2.350121185	 1.0175585727	-1.2429558234	 0.103579
H	 2.6508134461	-0.4109947929	-0.2660891389	 0.108877
H	 2.9069372978	-1.7923440656	-2.3375441929	 0.127495
H	 2.5040820601	-0.4042115377	-3.3269141565	 0.141745
H	 6.5750266806	 0.298507763	-2.4178869689	 0.191327
49.293	79.4854	94.5284	111.3146	208.667	213.8826	238.1247	278.1054	287.4087	314.9977	329.3999	352.3039	421.384	462.7521	569.1817	607.2934	613.2893	634.3979	771.5644	801.088	901.123	926.6995	955.6026	965.9191	987.2808	1024.8272	1033.0485	1074.6411	1108.7076	1157.3813	1167.9565	1202.1069	1262.5864	1279.1257	1320.1689	1328.2183	1364.1422	1368.3949	1389.2226	1399.4891	1417.8608	1426.3231	1474.6028	1488.0067	1490.9086	1494.6206	1508.5295	1513.3053	2237.9424	3007.4576	3018.2186	3021.7673	3028.6389	3034.5394	3036.5057	3061.5752	3083.7654	3093.3817	3098.6636	3108.4774	3113.7902	3507.7875	3804.0812
CC(C)C(O)CCC#C	CC(C)[C@@H](O)CCC#C	
InChI=1S/C8H14O/c1-4-5-6-8(9)7(2)3/h1,7-9H,5-6H2,2-3H3	InChI=1S/C8H14O/c1-4-5-6-8(9)7(2)3/h1,7-9H,5-6H2,2-3H3/t8-/m0/s1
