14
gdb 44308	3.49912	1.97182	1.49351	3.9236	66.5	-0.2534	0.0094	0.2628	835.8512	0.101977	-436.560956	-436.555158	-436.554214	-436.590941	24.271	
N	-0.1001979382	 1.1936618038	-0.1784628957	-0.562451
C	-0.0629530065	-0.0483384447	 0.0025172279	 0.370107
O	 1.055708487	-0.8722856567	 0.0653865388	-0.285514
C	 0.5273577899	-2.2367871004	 0.2939872737	 0.03981
C	-0.7044724493	-2.3490203991	-0.6082191429	-0.103474
C	-1.7416825609	-2.7047275263	 0.4815545471	-0.023842
O	-2.5061248892	-1.4115173554	 0.3310531073	-0.376799
C	-1.1188233887	-1.0757274596	 0.2090486443	 0.366763
C	-0.6041094922	-2.0663130838	 1.3111870274	-0.103473
H	 0.8418011788	 1.5744615734	-0.2837999286	 0.233351
H	 1.368438862	-2.9220084556	 0.350935636	 0.103715
H	-0.7873341073	-2.4524861145	-1.6874188438	 0.113545
H	-2.3455382429	-3.5941842446	 0.6441343426	 0.114716
H	-0.5748039825	-1.8538179465	 2.377128056	 0.113546
179.0737	305.076	405.5025	531.3314	540.8439	605.8501	675.5201	703.9585	751.2407	764.7923	804.5045	865.1551	869.8183	892.2097	893.0267	901.6211	952.2644	979.148	1009.5258	1046.8224	1097.9219	1109.6443	1142.6869	1176.7609	1192.7768	1221.7802	1239.7938	1301.4882	1317.2028	1359.0174	1817.1843	3146.9566	3157.1704	3158.0525	3171.1946	3475.7563
N=C1OC2C3C4OC13C24	[NH][C]1O[C@@H]2[C@H]3[C@@H]4O[C@]13[C@H]24	
InChI=1S/C6H5NO2/c7-5-6-1-3(8-5)2(6)4(1)9-6/h1-4,7H	InChI=1S/C6H5NO2/c7-5-6-1-3(8-5)2(6)4(1)9-6/h1-4,7H/t1-,2+,3+,4-,6+
