18
gdb 59190	3.68043	1.01706	0.97069	1.8569	73.5	-0.2506	-0.0006	0.25	1266.6808	0.146859	-439.022402	-439.013802	-439.012858	-439.055873	32.32	
C	 0.0605593253	 1.4987109074	-0.1007278054	-0.410343
C	 0.0402638582	-0.0176429141	 0.0914519552	 0.090871
O	 0.6683599819	-0.3989547186	 1.3146840141	-0.430905
C	-1.3803224427	-0.5773989584	 0.0463240815	 0.031794
C	-2.0939249818	-0.7725539896	-1.3292707182	-0.18053
N	-1.1271630897	-1.9324595854	-1.5660302051	-0.314571
C	-1.5516048997	-2.119620302	-0.1081004367	-0.17104
C	-2.9807700708	-1.8263598638	-0.6206169682	 0.435854
O	-4.0839079515	-2.2755193631	-0.6294142825	-0.324479
H	 1.0844702999	 1.8729617087	-0.0192731512	 0.129156
H	-0.3350748146	 1.7808779426	-1.0815524674	 0.121588
H	-0.5493317894	 2.0005951945	 0.6618528855	 0.105215
H	 0.6342458566	-0.4962066607	-0.6893341668	 0.117888
H	 0.2364561659	 0.0797974491	 2.0313642649	 0.275866
H	-2.0051893971	-0.1223456958	 0.8231891116	 0.07705
H	-2.3177613729	-0.0392653888	-2.101919777	 0.102073
H	-1.5490406122	-2.6463100284	-2.1663362311	 0.233786
H	-1.1462475555	-2.9133095137	 0.5149275569	 0.110727
73.2239	130.4848	132.6489	232.6582	264.876	296.8367	342.4517	399.0845	473.7072	502.6356	542.1227	684.4265	773.9385	798.8318	811.8133	860.9449	896.8205	919.3939	986.1977	993.1704	1057.5512	1064.723	1085.6492	1123.8944	1127.9135	1151.1239	1173.7679	1185.7536	1195.49	1252.1036	1278.1864	1285.0276	1330.5309	1402.0571	1417.1236	1426.3131	1490.3052	1495.564	1906.7707	3021.7106	3049.3581	3086.2963	3112.2528	3120.7741	3142.6234	3158.228	3414.1762	3791.9061
CC(O)C1C2NC1C2=O	C[C@@H](O)[C@H]1[C@H]2N[C@@H]1C2=O	
InChI=1S/C6H9NO2/c1-2(8)3-4-6(9)5(3)7-4/h2-5,7-8H,1H3	InChI=1S/C6H9NO2/c1-2(8)3-4-6(9)5(3)7-4/h2-5,7-8H,1H3/t2-,3-,4+,5-/m1/s1
