16
gdb 7761	3.39072	1.77721	1.24551	3.1048	66.48	-0.2434	-0.0167	0.2267	943.6763	0.130551	-383.767858	-383.760353	-383.759409	-383.799874	28.1	
O	-0.1455606832	 1.4597039554	-0.0155085652	-0.432116
C	 0.063652539	 0.049407904	-0.043907884	 0.074686
C	-1.3178721889	-0.5935432593	 0.1318327401	-0.299743
C	-1.3108284782	-2.0750167329	-0.2006124606	 0.372805
O	-1.7513264699	-2.9166179632	 0.5448696788	-0.306421
C	-0.7242359996	-2.4301291167	-1.5638043054	-0.35258
C	 0.3662792983	-1.4893754917	-2.0036651073	-0.061022
C	 0.7180655792	-0.3970958244	-1.3287006534	-0.085405
H	 0.7148943769	 1.8910140295	 0.0046501461	 0.283453
H	 0.7033084662	-0.2438711713	 0.8061357149	 0.087906
H	-1.7036847477	-0.446255195	 1.1416804942	 0.125805
H	-1.9895542633	-0.0882788618	-0.575371096	 0.133078
H	-0.3761825169	-3.4684194531	-1.5274771374	 0.135453
H	-1.5484701932	-2.4195557902	-2.2939499818	 0.138918
H	 0.8922697669	-1.7531479067	-2.9179120259	 0.099367
H	 1.5310001143	 0.2286834274	-1.6916898272	 0.085815
81.3225	107.8334	241.2083	295.674	335.7183	403.7789	436.7415	494.589	545.7197	577.1192	690.7687	730.3172	838.6609	884.5811	923.6604	960.8627	996.6268	1027.5103	1060.2996	1081.1376	1120.1177	1183.7763	1205.53	1232.9683	1270.3249	1296.6352	1333.7804	1357.2318	1405.6108	1425.9964	1444.3309	1469.2098	1724.1132	1824.4393	2949.2367	2999.5678	3032.5857	3067.1139	3126.81	3140.5441	3165.3294	3815.8155
OC1CC(=O)CC=C1	O[C@H]1CC(=O)CC=C1	
InChI=1S/C6H8O2/c7-5-2-1-3-6(8)4-5/h1-2,5,7H,3-4H2	InChI=1S/C6H8O2/c7-5-2-1-3-6(8)4-5/h1-2,5,7H,3-4H2/t5-/m1/s1
