14
gdb 52006	5.22028	0.74618	0.66596	7.3202	62.58	-0.2711	-0.053	0.2181	1552.9708	0.098446	-511.015552	-511.006395	-511.005451	-511.051211	30.274	
O	 0.0775224858	 0.0525679314	 0.7699442363	-0.235928
C	 0.137398053	 1.1238131222	 0.2407786971	 0.170097
N	 1.3053440605	 1.7839352592	-0.1596231559	-0.354769
C	 2.6204938707	 1.3287517752	-0.0459642599	 0.424575
O	 2.9425740731	 0.2456103333	 0.3608083946	-0.282211
C	 3.6584353314	 2.3902328568	-0.4501000589	-0.226463
O	 4.882061928	 1.7942473482	-0.8144133438	-0.162766
C	 5.6525287565	 1.2977040388	 0.1915766053	 0.192393
O	 6.6715809528	 0.7231015032	-0.0253039414	-0.26299
H	-0.7491316588	 1.7439776706	-0.0004523163	 0.096878
H	 1.1667474884	 2.6935204534	-0.5772299658	 0.261847
H	 3.3270429185	 2.9700720433	-1.3158854438	 0.143003
H	 3.7788780245	 3.0861288366	 0.3936765621	 0.145381
H	 5.2448061056	 1.5159759477	 1.1942390204	 0.090953
42.0398	69.9298	73.5821	181.7173	184.1313	218.6758	296.7713	302.8342	374.1292	528.0278	566.656	627.3274	696.2343	801.345	937.0143	999.1792	1024.813	1027.6811	1074.4592	1080.4323	1154.3708	1193.1415	1297.3913	1390.9942	1427.7942	1443.6447	1477.554	1509.9252	1820.1212	1876.1916	1888.1073	2934.9586	2985.5246	3007.1224	3097.8986	3600.8974
O=CNC(=O)COC=O	O=CNC(=O)COC=O	
InChI=1S/C4H5NO4/c6-2-5-4(8)1-9-3-7/h2-3H,1H2,(H,5,6,8)	InChI=1S/C4H5NO4/c6-2-5-4(8)1-9-3-7/h2-3H,1H2,(H,5,6,8)
