14
gdb 15283	5.04522	1.13903	1.00443	1.8876	70.2	-0.263	0.0126	0.2756	1124.7789	0.103791	-345.307825	-345.299623	-345.298679	-345.340899	29.67	
C	 0.0308237032	-1.1485399683	-0.4090148069	-0.432301
C	 0.0155564273	-0.0065840746	-0.036453039	 0.29625
C	 0.0256870917	 1.3779431178	 0.4217159572	-0.392447
C	 1.3891190124	 2.0268107895	 0.2623133907	 0.080072
O	 1.7129809147	 2.5601342931	-1.0133837532	-0.233156
C	 1.5460550829	 3.4864352809	 0.0759120257	-0.156667
C	 0.4227588019	 4.3834116301	 0.0249110762	 0.339872
C	-0.4972060587	 5.1570337643	 0.0043177461	-0.43135
H	 0.033191604	-2.1554548945	-0.7458323322	 0.199233
H	-0.7132192006	 1.9711240584	-0.1267025863	 0.153028
H	-0.2579838268	 1.4198707965	 1.4819611843	 0.139322
H	 2.2092328658	 1.4975503393	 0.7493068544	 0.10932
H	 2.4774843702	 3.9384022023	 0.415863444	 0.12136
H	-1.3110657081	 5.8392199552	-0.0230669511	 0.207463
54.1341	96.3853	159.5907	214.014	325.1238	336.5314	368.1928	506.6823	553.719	595.929	622.539	633.0074	649.0376	673.7743	813.8363	815.9621	908.4468	973.8044	1010.7544	1032.2251	1123.2296	1142.8424	1238.2594	1280.226	1321.132	1381.1081	1451.6944	1456.7606	2239.4187	2243.5823	3025.3198	3080.7171	3105.2876	3117.1586	3501.3244	3507.26
C#CCC1OC1C#C	C#CC[C@H]1O[C@H]1C#C	
InChI=1S/C7H6O/c1-3-5-7-6(4-2)8-7/h1-2,6-7H,5H2	InChI=1S/C7H6O/c1-3-5-7-6(4-2)8-7/h1-2,6-7H,5H2/t6-,7+/m0/s1
