23
gdb 100466	3.47334	0.6188	0.5802	0.9626	93.37	-0.2404	0.0471	0.2875	2078.6302	0.201923	-388.261787	-388.249975	-388.249031	-388.300734	41.071	
C	 0.0552570721	 1.3838011998	 0.1328094448	-0.229391
O	-0.0516395387	-0.0148825129	 0.002955262	-0.240849
C	 0.608333068	-0.5456120982	-1.1450942729	-0.038938
C	 2.1263462205	-0.6625917189	-0.9287952276	-0.389542
C	 0.0141092746	-1.8481764506	-1.4465886167	-0.000887
C	-0.4514226286	-2.9271057317	-1.7110090916	 0.159258
C	-1.010166198	-4.2445365557	-2.0174947492	-0.127881
C	-0.2825675255	-4.8886610023	-3.2144721198	-0.373719
C	-0.9748469297	-5.1622474778	-0.7793032729	-0.373119
H	 1.0861307587	 1.7199791545	 0.3188244709	 0.104796
H	-0.3202222939	 1.9056760991	-0.7618869964	 0.103535
H	-0.5596119915	 1.6705335264	 0.9894988421	 0.12873
H	 0.4259872846	 0.1287852344	-2.0000329026	 0.086986
H	 2.3286686694	-1.3130423392	-0.0743003216	 0.132444
H	 2.6023003369	-1.0893980929	-1.8158704216	 0.124119
H	 2.5714177554	 0.3185706534	-0.740790403	 0.114012
H	-2.0628313102	-4.1062577956	-2.3018173881	 0.104361
H	-0.7368700947	-5.8542827474	-3.4585577169	 0.111615
H	-0.3351249428	-4.2481342686	-4.0987875604	 0.122122
H	 0.7731286931	-5.0557677392	-2.9790447793	 0.122537
H	-1.5099913751	-4.7103380855	 0.0597170103	 0.127359
H	-1.4391746281	-6.1268562133	-1.0087436845	 0.109969
H	 0.0574309335	-5.3436600178	-0.464289465	 0.122483
15.5225	61.6771	70.8403	99.3052	173.1145	197.3263	216.2095	230.5669	245.4473	276.4624	308.8638	352.441	396.8713	475.0299	495.7822	559.5624	570.3785	724.9542	834.5815	881.8846	931.3533	965.917	981.8059	1047.3569	1090.9366	1107.602	1121.2533	1135.935	1163.8435	1180.3203	1210.4132	1217.843	1326.1829	1345.6498	1350.6043	1372.5536	1394.0556	1396.4043	1415.353	1475.1196	1481.1163	1485.6035	1489.517	1490.6951	1497.6897	1498.1504	1510.3144	1511.3867	2365.2613	2945.8044	2973.1589	3003.9584	3020.0259	3035.5466	3038.9684	3047.2382	3106.3905	3111.5133	3112.3873	3118.1761	3119.9752	3121.4161	3132.5134
COC(C)C#CC(C)C	CO[C@@H](C)C#CC(C)C	
InChI=1S/C8H14O/c1-7(2)5-6-8(3)9-4/h7-8H,1-4H3	InChI=1S/C8H14O/c1-7(2)5-6-8(3)9-4/h7-8H,1-4H3/t8-/m0/s1
