19
gdb 96634	2.89142	0.8253	0.7308	4.38	83.91	-0.2358	0.012	0.2477	1646.6498	0.156217	-419.178184	-419.166916	-419.165972	-419.216158	38.697	
C	-0.2038568188	 1.4129476673	 0.0301212084	-0.337482
N	-0.1301309134	-0.0367770994	-0.0139865219	-0.272205
C	 0.5778881893	-0.5733104272	-0.9254789086	 0.352322
N	 1.2647551993	 0.0629401351	-1.9505058301	-0.560418
C	 0.60161233	-2.0989119866	-1.029898296	-0.112198
O	-0.2363093755	-2.5432043312	-2.0956582564	-0.407361
C	 1.9720411447	-2.6135555436	-1.1613346911	 0.067738
C	 3.0979772248	-3.019828228	-1.3049679708	 0.037055
C	 4.4490504216	-3.5413953319	-1.4553833489	-0.499505
H	 0.7883240267	 1.8960041143	 0.0452001869	 0.098462
H	-0.7559187139	 1.8226115827	-0.8290916573	 0.118518
H	-0.7296898504	 1.7218043009	 0.9369346971	 0.126501
H	 1.3930621737	 1.0589441622	-1.85668331	 0.252702
H	 2.094513966	-0.4201910226	-2.2682883436	 0.252655
H	 0.1383939115	-2.4740225378	-0.1149817163	 0.138734
H	 0.08307107	-2.1252828049	-2.9035749185	 0.284761
H	 4.6075693907	-4.4135789728	-0.8120873628	 0.157296
H	 4.6410833394	-3.8518597081	-2.4882065048	 0.1524
H	 5.1999591342	-2.7899821083	-1.1880495752	 0.150023
26.2159	47.916	83.6987	125.4109	140.9383	173.3635	233.9234	271.5981	295.5294	323.2414	347.6418	397.3478	444.9981	461.6561	548.4626	581.5566	660.7156	750.892	815.7972	880.7322	995.8188	1036.0902	1051.7415	1054.7895	1103.2613	1113.1684	1149.9421	1182.9343	1265.5656	1302.5537	1336.4981	1413.19	1418.5439	1433.8063	1476.5052	1478.0188	1488.8724	1507.0451	1634.3392	1751.2663	2358.7507	2952.9075	3015.3479	3029.8063	3091.3498	3093.3245	3100.0481	3101.658	3553.6053	3666.0431	3802.8503
CN=C(N)C(O)C#CC	CN=C(N)[C@@H](O)C#CC	
InChI=1S/C6H10N2O/c1-3-4-5(9)6(7)8-2/h5,9H,1-2H3,(H2,7,8)	InChI=1S/C6H10N2O/c1-3-4-5(9)6(7)8-2/h5,9H,1-2H3,(H2,7,8)/t5-/m0/s1
