14
gdb 11633	3.42437	1.84473	1.52366	3.4776	64.15	-0.2506	-0.0408	0.2097	841.2932	0.10665	-382.511925	-382.505047	-382.504103	-382.543428	25.126	
O	-0.035370965	-0.0158365923	 0.1301157931	-0.244199
C	 0.021048201	 1.1776689901	-0.0396678081	 0.031479
C	 1.284500923	 1.9547302458	-0.0201947549	 0.109781
C	 2.7501723213	 1.4179280712	-0.0130289395	-0.260105
C	 2.9484875881	 2.9746020492	 0.0145983689	-0.169495
C	 1.7861687412	 3.0433290512	-1.0379916769	-0.274494
C	 1.821663386	 2.9755817361	 1.0475640237	 0.423842
O	 1.5013950278	 3.4651458889	 2.0797615671	-0.303488
H	-0.8970675222	 1.7838422932	-0.2066213341	 0.082633
H	 3.0744909875	 0.8465887111	 0.8565544974	 0.130147
H	 3.0523768512	 0.9453198128	-0.9498140419	 0.11996
H	 3.8829681606	 3.529800481	 0.0102073279	 0.106838
H	 2.0476560168	 2.638985118	-2.0185402202	 0.122383
H	 1.2218288527	 3.9739398537	-1.1142138024	 0.124719
75.5955	180.5387	188.3945	222.5589	409.684	511.0499	546.5444	654.0072	720.379	760.9254	794.6501	830.1606	910.3949	957.9085	993.2398	1020.2117	1023.9013	1034.5028	1079.6774	1134.2981	1143.7343	1188.53	1199.4614	1234.3764	1322.6524	1425.2447	1494.8999	1532.3138	1806.4636	1927.3219	2884.7288	3069.0381	3078.8751	3144.2105	3155.1359	3158.1749
O=CC12CC(C1)C2=O	O=C[C@@]12C[C@@H](C1)C2=O	
InChI=1S/C6H6O2/c7-3-6-1-4(2-6)5(6)8/h3-4H,1-2H2	InChI=1S/C6H6O2/c7-3-6-1-4(2-6)5(6)8/h3-4H,1-2H2/t4-,6+
