19
gdb 102114	2.20869	1.28071	0.8934	3.0302	73.44	-0.2471	-0.0366	0.2106	1327.5478	0.154994	-460.131348	-460.121116	-460.120172	-460.167708	35.186	
C	 0.1853313555	 1.5994176469	 0.2153095919	-0.246519
O	-0.165805319	 0.2505494153	-0.0298925887	-0.230555
C	 0.6245446969	-0.3576114496	-1.0192797092	-0.005572
C	 2.0063307883	-0.7213479294	-0.454781502	 0.128807
O	 2.9684283777	-0.9527556756	-1.137047313	-0.239677
C	-0.001129757	-1.6404530712	-1.5541039118	 0.033688
O	-0.6108636561	-2.5369125065	-0.6319397794	-0.254799
C	-1.4322600736	-1.9696267725	-1.6665339289	 0.076404
C	-2.592866192	-1.0992253842	-1.2613447528	-0.431705
H	 1.2289396931	 1.7022729609	 0.5473840191	 0.118187
H	 0.0465277785	 2.2201886768	-0.6822848385	 0.116807
H	-0.4720959104	 1.9621024544	 1.0078440658	 0.139064
H	 0.7851990027	 0.3105406195	-1.8820894078	 0.0982
H	 2.0261215436	-0.7847576121	 0.6564124161	 0.10018
H	 0.6792485125	-2.1152703191	-2.2654706253	 0.110235
H	-1.6717200188	-2.6913484118	-2.4521864472	 0.091076
H	-2.3176200039	-0.4295343258	-0.4495920306	 0.15439
H	-2.9320090474	-0.5057519796	-2.1179413727	 0.116904
H	-3.4310786508	-1.7283503964	-0.9434536949	 0.124887
42.5568	58.5583	103.068	163.5054	173.0826	191.5381	220.0059	250.236	316.4813	351.8537	403.2738	516.4765	538.4886	675.5078	766.4558	781.603	915.4557	970.8488	995.8246	1032.1175	1048.3358	1080.6027	1111.5999	1153.1557	1181.1489	1181.8353	1190.5812	1230.0803	1271.9332	1306.3397	1348.6898	1389.7663	1394.1943	1416.0387	1467.848	1482.9499	1489.6063	1497.4276	1506.2231	1510.8858	1835.3785	2888.2352	2970.7309	2984.2988	3034.2451	3038.9814	3067.9931	3085.1805	3094.1759	3127.8533	3181.2837
COC(C=O)C1OC1C	CO[C@@H](C=O)[C@H]1O[C@H]1C	
InChI=1S/C6H10O3/c1-4-6(9-4)5(3-7)8-2/h3-6H,1-2H3	InChI=1S/C6H10O3/c1-4-6(9-4)5(3-7)8-2/h3-6H,1-2H3/t4-,5-,6-/m0/s1
