19
gdb 53700	6.18638	0.50578	0.48217	2.2108	83.02	-0.2453	0.0374	0.2826	2268.0478	0.155747	-422.959279	-422.948739	-422.947795	-422.997878	34.989	
C	-0.0240785084	 1.4554142198	 0.0757861602	-0.498929
C	-0.0297592328	 0.0004419437	 0.0571238978	 0.139105
C	-0.0444899418	-1.202423832	 0.0425017713	 0.002805
C	-0.0338451887	-2.6576987388	 0.028540691	-0.205234
O	-1.3539436467	-3.1561380242	-0.1062206094	-0.246598
C	-1.393036492	-4.565275754	-0.1577487572	-0.063136
C	-2.8257324388	-4.996083708	-0.3042042016	 0.082323
C	-3.2645929659	-6.3301700496	 0.1197514033	-0.182423
O	-3.5767486278	-5.1752825114	 0.8966793097	-0.224629
H	 0.5333702011	 1.8649464162	-0.7737052923	 0.148083
H	-1.0448556797	 1.8495524888	 0.0235348978	 0.154732
H	 0.4331154594	 1.8414329354	 0.9934072151	 0.149192
H	 0.5956652575	-3.0221252095	-0.8026833859	 0.11091
H	 0.4232127219	-3.0406287545	 0.9575429688	 0.115506
H	-0.8040169202	-4.9370356895	-1.0157534852	 0.08866
H	-0.9703242869	-5.0112199057	 0.7575472172	 0.095803
H	-3.3702103514	-4.4945957717	-1.1045002141	 0.103757
H	-4.1054110918	-6.8051718646	-0.383372905	 0.117383
H	-2.547913117	-7.0168246203	 0.5698587086	 0.11269
18.2082	40.8054	67.009	80.5978	130.0306	172.4962	210.161	298.3551	316.8254	376.9183	405.5032	453.304	549.7476	780.7331	817.3592	873.0976	950.9911	989.5577	1023.3235	1034.1717	1051.5317	1058.5283	1104.0382	1131.4129	1154.6793	1161.5148	1175.2	1182.0659	1252.9214	1269.1664	1292.9108	1359.5481	1413.1092	1418.0629	1468.7544	1476.3938	1478.8135	1491.8561	1512.6196	1533.8321	2381.1651	2938.6632	2947.186	2961.4051	2988.792	3028.1954	3080.6914	3089.0221	3091.1059	3116.6668	3166.1675
CC#CCOCC1CO1	CC#CCOC[C@H]1CO1	
InChI=1S/C7H10O2/c1-2-3-4-8-5-7-6-9-7/h7H,4-6H2,1H3	InChI=1S/C7H10O2/c1-2-3-4-8-5-7-6-9-7/h7H,4-6H2,1H3/t7-/m0/s1
