19
gdb 87415	3.55696	1.34198	1.28997	2.575	78.84	-0.2327	0.0748	0.3074	1071.9468	0.160592	-381.981291	-381.97377	-381.972825	-382.013123	30.003	
C	-0.1346152753	 1.5212474663	-0.0589216256	-0.39284
C	-0.0553264082	 0.0204002904	 0.0819943103	-0.09749
N	 1.2934132818	-0.5894950545	-0.0605442712	-0.405426
C	 0.6017275685	-0.6510932391	 1.2210897829	 0.430463
C	 1.2535656654	-0.1918486946	 2.4957617968	-0.136565
C	 0.429443251	-0.7102691719	 3.632411376	-0.042879
C	-0.7527345587	-1.487571179	 3.0740630435	-0.239984
C	 0.2549342858	-1.9210155141	 1.9895887932	-0.12295
N	 1.4360253248	-1.6128250978	 2.9770491663	-0.159337
H	 0.7276776114	 1.9975641455	 0.414832386	 0.126259
H	-0.1430353335	 1.8146235767	-1.1140554876	 0.121661
H	-1.045977316	 1.9097675227	 0.4085572039	 0.11559
H	-0.8834091313	-0.5265099059	-0.3703348933	 0.079823
H	 1.2355544025	-1.4828918926	-0.5445407858	 0.228769
H	 2.0360092661	 0.5470541821	 2.6187220363	 0.103208
H	 0.5742062182	-0.3591775025	 4.6483629549	 0.09782
H	-1.0150571427	-2.3176558481	 3.734984048	 0.112465
H	-1.6574983157	-0.9565806661	 2.7606194377	 0.09919
H	 0.1986669559	-2.8903867276	 1.4951394877	 0.082222
126.4188	153.616	185.0572	238.8598	365.4242	419.5261	474.4169	498.6226	609.0765	746.1181	775.5113	810.8535	813.4964	823.8552	872.3747	920.0486	939.9743	945.4936	997.7152	1014.7603	1031.2889	1035.8734	1050.0485	1072.6946	1084.6915	1121.3061	1124.1984	1141.2909	1188.9054	1226.9929	1244.699	1247.2262	1281.6904	1291.2804	1358.2441	1381.8225	1413.8623	1479.9466	1491.3885	1493.9495	1518.7179	3033.9295	3044.2033	3095.2938	3096.7271	3105.1333	3122.7907	3124.6392	3174.0866	3196.5779	3486.9582
CC1NC11C2C3CC1N23	C[C@H]1N[C@]21[C@H]1[C@H]3C[C@@H]2N13	
InChI=1S/C7H10N2/c1-3-7(8-3)5-2-4-6(7)9(4)5/h3-6,8H,2H2,1H3	InChI=1S/C7H10N2/c1-3-7(8-3)5-2-4-6(7)9(4)5/h3-6,8H,2H2,1H3/t3-,4-,5+,6-,7+,9?/m1/s1
