18
gdb 77970	3.30956	1.19494	1.02328	2.9399	75.14	-0.2385	0.0104	0.2489	1193.5399	0.146595	-439.027022	-439.018473	-439.017529	-439.060029	32.22	
C	-0.1390893239	 1.7419117348	-0.0496879396	-0.448608
C	-0.0774741546	 0.2242260387	-0.0838777184	 0.059186
C	 1.0878269483	-0.5918011319	-0.7460787671	-0.110061
C	 1.9945510781	-0.3204929579	 0.5209634589	 0.145646
O	 2.5294434923	 0.9353177122	 0.8198205772	-0.428314
C	 0.567024481	-0.6569435772	 1.0433516544	-0.102165
N	 0.5549375688	-1.7666787342	 0.0202062225	-0.067224
C	 1.162075354	-2.9946908374	 0.1233358362	 0.127797
O	 1.7943880788	-3.5335660877	-0.7582790522	-0.316933
H	-0.4288036603	 2.1169128854	-1.0377122478	 0.117906
H	-0.9149513694	 2.0628498246	 0.6543369211	 0.118505
H	 0.8014619988	 2.2047505906	 0.2374821987	 0.149619
H	-1.0457692839	-0.189941875	-0.3781146259	 0.090552
H	 1.3675641576	-0.6788400119	-1.7945885938	 0.106209
H	 2.7261920329	-1.1182569541	 0.6957706348	 0.094648
H	 3.4030453404	 0.9933175926	 0.4201310071	 0.293563
H	 0.2329189305	-0.8178096253	 2.0689743733	 0.095203
H	 0.9171373507	-3.4912999562	 1.0850388705	 0.074471
103.1505	152.4729	173.2857	248.6437	262.6467	281.5305	291.0855	369.3545	394.1659	483.7401	621.6185	664.5836	738.4988	792.6249	795.3905	858.4868	889.6414	975.9628	1028.1425	1031.2575	1067.5554	1084.2992	1114.4132	1129.65	1138.5209	1148.3229	1189.4496	1228.216	1235.355	1261.1867	1315.7521	1349.6722	1397.5084	1415.2419	1421.9854	1470.6513	1497.3618	1513.1243	1786.0769	2920.8525	3038.3359	3039.0758	3072.4694	3089.1695	3117.8704	3141.3532	3185.4776	3822.3582
CC1C2C(O)C1N2C=O	C[C@H]1[C@H]2[C@@H](O)[C@@H]1N2C=O	
InChI=1S/C6H9NO2/c1-3-4-6(9)5(3)7(4)2-8/h2-6,9H,1H3	InChI=1S/C6H9NO2/c1-3-4-6(9)5(3)7(4)2-8/h2-6,9H,1H3/t3-,4-,5+,6+
