19
gdb 105309	2.40093	1.50564	1.16284	4.7972	79.11	-0.2548	0.0207	0.2754	1131.6802	0.159249	-382.038551	-382.029876	-382.028931	-382.071729	32.871	
C	-0.0445881261	 1.6170488669	 0.0763794606	-0.398703
C	-0.1217986657	 0.0897322844	-0.0221295929	-0.238957
C	 0.7076539053	-0.4917602135	-1.1739698828	 0.157835
C	 2.2744654283	-0.4470847953	-1.1028090264	-0.308528
C	 2.233566204	-1.9675647158	-1.2202740444	-0.002765
C	 1.4331685046	-2.5593058222	-0.1377346613	-0.246163
N	 0.7138227971	-2.0103361373	-1.3072063516	-0.154613
C	 0.2258113342	 0.0500698234	-2.4498213765	 0.298398
N	-0.1460399007	 0.5085799849	-3.4433337048	-0.351325
H	 0.9856153127	 1.955587887	 0.23056472	 0.121096
H	-0.4239447986	 2.0958291287	-0.8306525694	 0.149742
H	-0.6407546729	 1.9727859234	 0.9211012117	 0.123871
H	 0.2244784945	-0.3526514852	 0.9163428794	 0.105143
H	-1.1603285861	-0.2317595191	-0.1600768596	 0.128869
H	 2.7252206862	 0.059952048	-1.9551220434	 0.139854
H	 2.7012493179	-0.0462375718	-0.1791606487	 0.114589
H	 2.8501538575	-2.5571119893	-1.8893622798	 0.108695
H	 1.3542110137	-3.6410172974	-0.0991274953	 0.134581
H	 1.3750396642	-2.07140463	 0.8307720454	 0.118381
93.8154	145.8423	173.1168	190.6022	203.5882	275.3032	364.7649	391.7053	486.8722	511.3902	569.4271	629.2162	760.9765	763.1764	792.0093	849.9451	873.7045	932.9205	950.8593	987.7977	997.0081	1038.7361	1066.4686	1097.7913	1109.358	1135.2441	1139.3275	1182.921	1233.498	1253.7339	1273.8652	1321.3937	1354.9059	1369.8741	1417.2085	1480.6336	1485.8785	1499.2266	1504.9094	1509.2268	2356.0813	3040.2395	3047.0709	3065.0286	3086.8554	3109.8739	3122.5482	3125.3003	3142.6549	3178.3711	3209.881
CCC1(CC2CN12)C#N	CC[C@]1(C[C@H]2CN12)C#N	
InChI=1S/C7H10N2/c1-2-7(5-8)3-6-4-9(6)7/h6H,2-4H2,1H3	InChI=1S/C7H10N2/c1-2-7(5-8)3-6-4-9(6)7/h6H,2-4H2,1H3/t6-,7-,9?/m0/s1
