15
gdb 132548	3.14897	1.338	0.94449	0.9615	71.87	-0.2345	-0.0178	0.2167	1158.5409	0.113029	-461.991248	-461.983549	-461.982605	-462.023521	29.095	
C	-0.0541477522	 1.5149950161	 0.0021953994	-0.502131
C	-0.000068593	 0.0124622152	 0.0006555113	 0.110116
C	 0.0152989792	-0.7523195569	-1.1598357613	-0.061556
N	 0.0630250683	-2.0896810964	-1.1987125291	-0.373478
C	 0.0983692714	-2.7343132672	-0.0399867379	 0.453098
O	 0.1464673771	-4.081603848	-0.0758045392	-0.417902
C	 0.0885951776	-2.0999921105	 1.206334784	-0.367707
C	 0.0388348171	-0.7222703546	 1.1899973076	 0.286207
F	 0.0270945442	-0.0590067157	 2.3477249381	-0.068821
H	 0.8155467649	 1.9485727647	 0.5074885986	 0.139075
H	-0.0783004844	 1.8990773174	-1.0206403289	 0.12782
H	-0.9424146445	 1.8852873797	 0.5252196156	 0.139075
H	-0.0128169789	-0.2518449435	-2.1253638887	 0.11255
H	 0.1452141944	-4.3198865168	-1.0135761288	 0.299098
H	 0.118399929	-2.6586053734	 2.1318907893	 0.124555
112.9462	142.9325	227.0511	262.8088	335.3229	346.6023	453.3643	474.2116	534.9246	539.6081	572.724	694.4297	763.6114	768.0282	786.9782	872.9721	951.031	976.1717	1023.2983	1067.9582	1158.4107	1202.8883	1232.0589	1316.5857	1335.0495	1367.4707	1419.5603	1468.7749	1480.0655	1506.5424	1531.9362	1634.2563	1663.2579	3035.7191	3088.9774	3119.7099	3151.1794	3228.4001	3766.3644
CC1=CN=C(O)C=C1F	Cc1cnc(O)cc1F	
InChI=1S/C6H6FNO/c1-4-3-8-6(9)2-5(4)7/h2-3H,1H3,(H,8,9)	InChI=1S/C6H6FNO/c1-4-3-8-6(9)2-5(4)7/h2-3H,1H3,(H,8,9)
