17
gdb 49796	2.65614	1.54656	1.00365	1.7517	79.22	-0.2262	-0.0203	0.2058	1147.5049	0.138327	-418.063153	-418.055336	-418.054392	-418.095656	29.653	
N	-0.0219277495	 1.3310741188	-0.0899999371	-0.467195
C	-0.0055681994	 0.0617360579	-0.0578978545	 0.088837
N	-1.1871931317	-0.679710784	 0.0547373189	-0.146601
C	-2.4327513749	-0.0119598394	 0.118300961	 0.042831
C	-3.562826921	-0.6331574192	 0.4470933725	-0.137572
C	-3.5715694481	-2.1016856693	 0.7681245952	-0.276543
C	-2.4340726378	-2.8057891575	 0.0161592008	-0.323653
C	-1.1001391084	-2.0825860429	 0.0870044502	 0.419704
O	-0.0341608537	-2.6573231045	 0.1132919185	-0.352131
H	 0.9256459317	 1.6897240179	-0.1872716155	 0.234572
H	 0.8651673437	-0.5907174746	-0.1118508087	 0.14506
H	-2.3520776713	 1.0448006269	-0.0941172492	 0.154632
H	-4.4816594785	-0.0615136034	 0.5005170225	 0.104998
H	-3.4614558092	-2.251943558	 1.8522350341	 0.12409
H	-4.5284380518	-2.5585312849	 0.4966912549	 0.116681
H	-2.2652018875	-3.8269133583	 0.3619052115	 0.134245
H	-2.6907070526	-2.8608661954	-1.0510031153	 0.138044
91.9082	148.1614	181.4271	258.0732	268.1193	385.0483	433.7513	515.3841	528.9614	580.4129	655.8751	729.2285	764.7516	797.4962	833.8717	886.9415	916.0032	979.7516	1023.7453	1043.6438	1082.8667	1115.1174	1144.0042	1176.8556	1189.4364	1262.4189	1293.9885	1340.1117	1368.7781	1379.5191	1404.5223	1419.9601	1463.3992	1485.2669	1714.4829	1730.8685	1800.0619	3001.2981	3025.8651	3071.8874	3122.1123	3146.2483	3200.9365	3244.1737	3511.7238
N=CN1C=CCCC1=O	[NH][CH]N1C=CCCC1=O	
InChI=1S/C6H8N2O/c7-5-8-4-2-1-3-6(8)9/h2,4-5,7H,1,3H2	InChI=1S/C6H8N2O/c7-5-8-4-2-1-3-6(8)9/h2,4-5,7H,1,3H2
