21
gdb 73958	2.22624	1.43501	0.91097	3.7066	88.61	-0.2394	-0.0458	0.1936	1305.8421	0.183115	-387.137364	-387.128322	-387.127378	-387.171146	34.025	
C	-0.0074559865	 1.5536019697	 0.1522168759	-0.486355
C	-0.0295036633	 0.0571938691	-0.0294185111	 0.222135
C	-0.0854454513	-0.5954777335	-1.2130602995	 0.109059
C	-0.063562506	-2.1076179058	-1.3218067988	-0.276119
C	 0.4022839978	-2.7987020505	-0.0387154858	-0.213111
C	-0.3019432523	-2.1874015288	 1.1740035268	-0.20838
C	 0.0328545543	-0.6968806385	 1.2820443945	-0.268754
C	-0.1922160919	 0.1084506883	-2.5039813632	 0.084435
O	-0.2426005929	-0.4623972974	-3.5746093502	-0.27892
H	 0.8327522784	 1.832387155	 0.8005931508	 0.132516
H	 0.0807793237	 2.1254126347	-0.7698549307	 0.135466
H	-0.9161239798	 1.8838169966	 0.6715511573	 0.135216
H	-1.0698946616	-2.4563530887	-1.5932408715	 0.113582
H	 0.5665809633	-2.3827288492	-2.1731238832	 0.123548
H	 0.2112068153	-3.8749545366	-0.1008718438	 0.096041
H	 1.4878276119	-2.6768643462	 0.073689021	 0.09644
H	-1.3869170401	-2.3113378741	 1.063232118	 0.10123
H	-0.0190149313	-2.7001316181	 2.0992568323	 0.095023
H	 1.0456585335	-0.5675742756	 1.6951293535	 0.116157
H	-0.6309487365	-0.2023207898	 2.0037571361	 0.10697
H	-0.2384806747	 1.2143828094	-2.4682137185	 0.063821
94.7373	121.9605	138.8174	162.935	241.7092	298.191	339.1424	354.6213	431.7281	448.0668	516.1704	566.4973	609.965	735.3482	825.3544	850.8049	882.3433	897.6956	943.423	1011.6058	1020.0318	1035.1608	1078.3229	1108.8534	1121.6362	1154.3749	1160.5152	1198.4566	1248.3316	1270.7579	1301.3199	1369.9393	1371.7759	1384.738	1388.8186	1406.2693	1439.2278	1463.0883	1474.6712	1481.1731	1491.0117	1492.6692	1500.8261	1689.6603	1767.5764	2929.7895	2989.5549	3012.7946	3018.937	3023.3822	3025.8336	3036.7349	3066.8292	3072.7967	3074.7415	3080.3088	3156.3122
CC1=C(CCCC1)C=O	CC1=C(CCCC1)C=O	
InChI=1S/C8H12O/c1-7-4-2-3-5-8(7)6-9/h6H,2-5H2,1H3	InChI=1S/C8H12O/c1-7-4-2-3-5-8(7)6-9/h6H,2-5H2,1H3
