19
gdb 47839	2.47712	1.54708	1.06767	4.3424	77.48	-0.2459	-0.0084	0.2374	1141.6538	0.161164	-423.061723	-423.053722	-423.052778	-423.094273	31.066	
O	 0.0555023846	 0.0598901806	-0.5529882475	-0.316191
C	-0.0278284184	 1.1357989069	-0.027722172	 0.410572
C	-1.3550200998	 1.8751076284	 0.1376801442	-0.382593
C	-1.500859999	 2.8524451917	-1.0054675893	-0.052416
C	-1.0523000534	 4.1065784186	-0.9909381197	-0.040895
C	-0.3739327239	 4.7825580329	 0.1763219091	-0.259908
C	 1.0480521058	 4.2724763282	 0.5025772967	-0.196097
C	 1.1519515336	 2.917268695	 1.2093288152	-0.073609
O	 1.1107089469	 1.7656867243	 0.3553664396	-0.22021
H	-2.1358227249	 1.1144382108	 0.1029948618	 0.133099
H	-1.4150945922	 2.3881355825	 1.1012836629	 0.114888
H	-1.9491587116	 2.4528309012	-1.9104963808	 0.107807
H	-1.1686547777	 4.7025966664	-1.8928578598	 0.095465
H	-0.3090032621	 5.8558016438	-0.0274867639	 0.1075
H	-0.9920827062	 4.6881800292	 1.0803933483	 0.109138
H	 1.6605297379	 4.2403741389	-0.4052285154	 0.121871
H	 1.5204849978	 5.0005670462	 1.1741680713	 0.104697
H	 2.136560335	 2.8443267727	 1.6792967476	 0.126362
H	 0.4074332774	 2.8300426818	 2.0093689417	 0.110522
90.6149	154.5403	196.1139	257.3985	282.9521	353.4836	443.1677	467.2587	490.0344	575.0972	598.1232	700.7449	720.7474	798.4973	841.2849	886.912	924.8697	943.0569	986.8557	1001.4726	1022.2112	1068.3216	1097.0263	1112.8049	1134.2696	1214.9502	1253.158	1275.2992	1285.1585	1293.3632	1321.5978	1362.6202	1385.8868	1415.9457	1421.3556	1469.5087	1478.6257	1491.8887	1512.2374	1722.7047	1839.7271	3010.371	3027.3841	3036.8357	3067.9228	3074.0208	3081.3211	3093.7637	3128.7841	3151.5242	3178.9018
O=C1CC=CCCCO1	O=C1CC=CCCCO1	
InChI=1S/C7H10O2/c8-7-5-3-1-2-4-6-9-7/h1,3H,2,4-6H2/b3-1-	InChI=1S/C7H10O2/c8-7-5-3-1-2-4-6-9-7/h1,3H,2,4-6H2/b3-1-
