21
gdb 103274	3.31671	1.08297	1.00417	1.8166	78.73	-0.252	0.0659	0.3179	1271.0535	0.18156	-424.18616	-424.176673	-424.175729	-424.220035	36.264	
C	-0.0771282025	 1.6124383455	 0.0312051979	-0.491969
C	 0.0150420627	 0.0959120435	 0.0590696932	 0.325564
C	-1.2525772979	-0.5885969735	-0.4408442953	-0.131634
O	-1.5393860023	-0.3240206051	-1.8073029075	-0.424795
C	 1.2640800454	-0.6759299199	-0.266247118	-0.080374
C	 2.5278242747	 0.0359657381	 0.2279223454	-0.308823
C	 1.9655073409	-0.0670904242	 1.690383379	 0.100393
O	 1.7918197429	 1.1024176789	 2.4662312613	-0.428753
C	 0.6817684853	-0.6940671201	 1.1628326411	-0.115416
H	 0.7704320829	 2.0924001097	 0.5172226346	 0.141922
H	-0.1371373272	 1.9804000651	-1.0006543137	 0.102487
H	-0.9772864129	 1.9454728105	 0.56236288	 0.111292
H	-1.1439693262	-1.6759573861	-0.3700120028	 0.102107
H	-2.1008307782	-0.3006941282	 0.201046655	 0.087078
H	-1.7738589386	 0.605502297	-1.8849107643	 0.284553
H	 1.2531566839	-1.4732143574	-0.9995363298	 0.091274
H	 3.4426598504	-0.544913676	 0.0899042754	 0.099596
H	 2.6918193794	 1.0478862203	-0.1533154378	 0.098861
H	 2.5381977778	-0.8166126857	 2.2531032115	 0.075898
H	 2.6560948179	 1.3796750965	 2.7869928026	 0.282839
H	 0.1499477313	-1.4890048189	 1.6747836622	 0.077901
81.607	145.3471	159.1888	193.9544	247.6831	274.2727	292.7636	303.0074	364.815	406.0187	442.1589	489.5215	604.3262	678.538	704.5566	817.1574	844.7004	881.7608	941.6269	961.9287	993.7557	1002.0551	1012.6423	1031.0201	1060.9138	1070.3989	1102.8921	1121.7528	1151.6963	1177.8283	1195.1639	1242.4577	1257.8637	1273.2139	1312.781	1326.5619	1381.4915	1413.3505	1421.4816	1424.5454	1434.7086	1483.4793	1496.5997	1505.3986	1511.127	2973.7392	3003.5892	3020.1619	3056.1651	3069.9887	3072.8687	3108.8878	3160.7045	3162.3182	3186.3983	3813.5953	3827.1158
CC1(CO)C2CC(O)C12	C[C@@]1(CO)[C@H]2C[C@@H](O)[C@@H]12	
InChI=1S/C7H12O2/c1-7(3-8)4-2-5(9)6(4)7/h4-6,8-9H,2-3H2,1H3	InChI=1S/C7H12O2/c1-7(3-8)4-2-5(9)6(4)7/h4-6,8-9H,2-3H2,1H3/t4-,5+,6-,7+/m0/s1
