27
gdb 85853	2.00733	1.37044	1.26273	0.0558	95.27	-0.2695	0.0736	0.3432	1283.9747	0.249861	-353.566688	-353.55581	-353.554866	-353.600937	43.255	
C	-1.1936640984	 0.4114448604	-1.3611862754	-0.422737
C	 0.0364736032	-0.3333259399	-0.8608481202	 0.020859
C	 1.4447780309	 0.2173973373	-1.1968628498	-0.281688
C	 1.9504033384	-0.2604339237	 0.197755084	 0.308768
C	 2.6108733754	-1.6417557818	 0.0966660036	-0.437621
C	 2.8923460871	 0.684862785	 0.943944424	-0.456566
C	 0.4271308466	-0.3231642779	 0.6604889248	 0.286838
C	-0.0295212099	 0.9542080965	 1.3764962084	-0.440978
C	-0.026204591	-1.534292636	 1.4765012301	-0.457168
H	-1.1734774907	 1.4694996328	-1.0816999542	 0.111875
H	-1.2541629961	 0.3620448231	-2.4544060436	 0.111263
H	-2.118495641	-0.0216022393	-0.9627876848	 0.110896
H	-0.0315308064	-1.3764869505	-1.1908533772	 0.06452
H	 1.952555284	-0.1917603329	-2.0757082203	 0.085615
H	 1.4440325227	 1.3094907652	-1.2794294277	 0.087953
H	 3.5842559714	-1.5535040361	-0.3995327819	 0.107039
H	 2.7832152968	-2.0801062902	 1.0857597943	 0.109866
H	 2.0135889666	-2.3513354971	-0.4834169244	 0.111058
H	 2.5021724873	 1.7038671076	 1.0053811837	 0.108697
H	 3.0839518697	 0.3368968337	 1.9663042359	 0.108152
H	 3.8604770069	 0.734975942	 0.4316947316	 0.108162
H	 0.2308078008	 1.8654512177	 0.8308279597	 0.111676
H	-1.1171648977	 0.9509717106	 1.5078478142	 0.108785
H	 0.4204730378	 1.0262747376	 2.3725417256	 0.109964
H	 0.4097060096	-1.5270434965	 2.4829732837	 0.107902
H	-1.1162681128	-1.5265345833	 1.5969282147	 0.107975
H	 0.2440813188	-2.4812434141	 1.0022042912	 0.108895
106.9786	192.0753	203.8662	218.5239	224.1674	250.7268	271.3782	275.8337	308.6375	330.7497	351.9816	358.9879	379.4025	420.43	474.959	508.7427	568.1462	652.2639	736.8802	835.8554	874.7283	909.8093	942.7936	945.3984	953.3922	964.3868	994.7085	1001.5408	1043.8241	1048.7177	1103.8213	1147.3722	1176.8438	1190.9122	1224.9183	1232.0887	1250.2124	1275.1657	1290.4	1308.7505	1379.1318	1399.4746	1403.0662	1408.5779	1415.4997	1426.048	1478.4809	1481.6609	1486.7383	1488.3086	1492.5764	1496.3063	1497.7623	1504.6218	1508.8608	1512.806	1519.7652	3020.3467	3021.0303	3023.5391	3026.1878	3027.6651	3032.511	3039.8609	3076.2146	3077.8545	3084.727	3086.538	3088.8172	3091.1362	3099.0325	3102.4431	3105.0284	3110.9429	3112.4684
CC1CC(C)(C)C1(C)C	C[C@H]1CC(C)(C)C1(C)C	
InChI=1S/C9H18/c1-7-6-8(2,3)9(7,4)5/h7H,6H2,1-5H3	InChI=1S/C9H18/c1-7-6-8(2,3)9(7,4)5/h7H,6H2,1-5H3/t7-/m0/s1
