14
gdb 125695	3.37014	1.1475	0.87148	3.209	65.67	-0.2604	-0.0225	0.2379	1238.4089	0.101033	-470.030857	-470.022528	-470.021584	-470.064999	28.403	
C	-0.0830315033	 1.4930862205	 0.0364285992	-0.500187
C	 0.0085969293	 0.005021785	 0.0289088832	 0.224635
N	-0.1357046024	-0.7372720908	-1.0712936619	-0.247819
N	 0.0157775754	-1.9829969132	-0.6431655139	-0.083374
N	 0.2644364575	-2.140931074	 0.6536998736	-0.280954
C	 0.253802314	-0.8879090382	 1.0912307255	 0.331674
O	 0.4912714573	-0.5370108706	 2.3843403326	-0.220091
C	 0.0327099644	-1.3646918333	 3.3791869411	 0.162472
O	 0.2877166572	-1.1541224167	 4.5207949903	-0.250591
H	 0.858485815	 1.9462457622	 0.3628977308	 0.147901
H	-0.3147671486	 1.854946081	-0.9667447506	 0.149728
H	-0.8630207993	 1.8386114862	 0.7224057166	 0.143373
H	-0.0368493808	-2.7703509598	-1.2679526324	 0.299794
H	-0.5731433156	-2.1943325883	 2.984591366	 0.123438
64.2991	73.3179	118.6085	164.3518	257.0683	271.0645	393.1722	456.3519	483.0459	521.5265	688.3763	711.8499	747.4587	878.9878	980.5891	1020.4276	1038.3364	1070.0252	1090.2093	1197.2005	1209.5246	1270.6075	1375.4617	1408.9624	1417.4972	1462.9108	1480.6912	1486.6867	1549.2908	1576.4601	1881.2649	3038.2783	3045.3347	3099.5116	3142.4485	3676.9836
CC1=NNN=C1OC=O	Cc1n[nH]nc1OC=O	
InChI=1S/C4H5N3O2/c1-3-4(9-2-8)6-7-5-3/h2H,1H3,(H,5,6,7)	InChI=1S/C4H5N3O2/c1-3-4(9-2-8)6-7-5-3/h2H,1H3,(H,5,6,7)
