16
gdb 34327	2.3442	1.85258	1.33838	4.49	74.46	-0.2491	-0.0028	0.2464	978.4945	0.127105	-396.9191	-396.911806	-396.910862	-396.950806	28.131	
N	-0.2669378533	-1.2308673055	-0.1830538115	-0.340233
C	-0.1884711375	-0.0798419549	-0.1001235591	 0.272028
C	-0.1264338667	 1.3672257783	-0.0019161235	 0.033585
C	-0.0895875332	 1.8690934762	 1.4968263904	-0.231992
N	 1.395468143	 2.0404437893	 1.3535194468	-0.354377
C	 1.2589759662	 2.0050229701	-0.0263255254	 0.366136
N	 1.6715875801	 2.5924657464	-1.0653317472	-0.29915
C	 0.5953707577	 2.3495208207	-2.0680405296	-0.165087
C	-0.7124426462	 2.0928269052	-1.2357917404	-0.302191
H	-0.6267185472	 2.8135486477	 1.6305964685	 0.128223
H	-0.3787832077	 1.1415578121	 2.2557184797	 0.143594
H	 1.8921669352	 2.8031375261	 1.798955146	 0.253669
H	 0.5002085278	 3.2274456766	-2.7114598364	 0.120812
H	 0.8398320375	 1.4935811038	-2.7096431097	 0.128177
H	-1.4690164175	 1.5139324067	-1.7684304178	 0.127574
H	-1.1485927881	 3.0504664813	-0.9360060609	 0.119233
119.7294	152.3025	229.2859	275.4007	325.4538	410.8376	522.2738	560.55	594.5127	653.1331	685.8409	747.9691	819.3214	854.1152	896.387	902.0253	954.6733	966.6403	999.4654	1025.593	1129.2396	1137.5775	1162.7915	1195.9613	1226.0498	1268.647	1293.1492	1307.5758	1322.9446	1357.7903	1478.992	1499.6444	1505.5182	1784.8671	2349.1353	3034.4256	3051.5961	3062.9062	3101.9151	3128.9782	3136.5171	3561.0751
N#CC12CNC1=NCC2	N#C[C@@]12CN[C]1[N]CC2	
InChI=1S/C6H7N3/c7-3-6-1-2-8-5(6)9-4-6/h1-2,4H2,(H,8,9)	InChI=1S/C6H7N3/c7-3-6-1-2-8-5(6)9-4-6/h1-2,4H2,(H,8,9)/t6-/m0/s1
