25
gdb 114693	3.53472	0.9643	0.86939	0.2354	92.58	-0.2493	0.0817	0.331	1494.2793	0.229754	-352.370274	-352.36073	-352.359786	-352.40442	37.408	
C	 0.0145425251	 1.549612145	 0.1443611439	-0.384072
C	-0.0104436463	 0.0250471976	-0.0060356775	-0.187971
C	 0.7413017504	-0.4921405823	-1.2353778764	 0.076755
C	 2.2679379403	-0.2113693399	-1.2466424713	-0.244232
C	 2.8709400734	-1.3088544186	-2.1220924332	-0.075534
C	 3.1159922301	-2.65396232	-1.4790723593	-0.324269
C	 1.8542217145	-2.4272856243	-2.2753339492	 0.376583
C	 1.644811576	-3.1659224475	-3.5765316901	-0.484132
C	 0.6203786938	-2.0213420861	-1.456003913	-0.320413
H	 1.0367618398	 1.9253823479	 0.2571545695	 0.118083
H	-0.4225730521	 2.0400241352	-0.7329532476	 0.111701
H	-0.5548553883	 1.8714205214	 1.0220502393	 0.109473
H	 0.4174379849	-0.4405052409	 0.8929400266	 0.089402
H	-1.0531732894	-0.3152984498	-0.0557249774	 0.091097
H	 0.3191994496	-0.0040699074	-2.1256996878	 0.064835
H	 2.4944544023	 0.7851653873	-1.6365337898	 0.096591
H	 2.674134388	-0.2489860768	-0.2265679649	 0.091896
H	 3.5045081349	-1.023344139	-2.9557412872	 0.075728
H	 3.8800097076	-3.289352963	-1.9172375239	 0.100233
H	 3.0465034521	-2.7269649579	-0.3966970358	 0.098503
H	 2.5900016312	-3.3019444842	-4.112473938	 0.110646
H	 1.2159621472	-4.1612353079	-3.4078368372	 0.114145
H	 0.9617828428	-2.620518272	-4.2390781545	 0.11098
H	 0.5915131298	-2.5482643136	-0.4931545745	 0.091292
H	-0.3075122475	-2.2753072333	-1.9789153606	 0.092682
64.8699	111.5696	176.9057	212.6139	231.9069	240.0315	299.085	370.9681	389.0735	414.3273	438.1099	555.1882	591.4906	741.3148	772.8245	817.2505	845.1014	862.5472	879.6134	934.4694	952.8655	957.6629	984.1146	988.3605	1029.5195	1054.5771	1064.724	1071.7396	1102.3768	1108.5935	1141.9044	1157.846	1188.5493	1242.2296	1267.1706	1283.0454	1295.4478	1311.3443	1313.9052	1342.7395	1363.7085	1390.3887	1401.925	1411.2709	1419.5368	1482.0833	1485.7594	1488.5173	1492.6809	1500.2846	1501.1314	1506.7586	1508.9282	2992.9951	3007.0281	3011.969	3015.7609	3021.0571	3030.152	3041.3362	3070.7091	3073.6668	3080.1377	3091.7193	3095.8425	3102.7202	3107.2528	3154.4786	3192.7229
CCC1CC2CC2(C)C1	CC[C@H]1C[C@H]2C[C@@]2(C)C1	
InChI=1S/C9H16/c1-3-7-4-8-6-9(8,2)5-7/h7-8H,3-6H2,1-2H3	InChI=1S/C9H16/c1-3-7-4-8-6-9(8,2)5-7/h7-8H,3-6H2,1-2H3/t7-,8-,9+/m0/s1
