18
gdb 122726	8.80716	0.43155	0.41566	5.6957	88.73	-0.2769	-0.0498	0.2271	2526.4425	0.145285	-401.926807	-401.916425	-401.91548	-401.963918	34.808	
C	-0.0388985412	 1.4916265442	 0.0601389262	-0.385261
C	 0.0130678224	-0.0363318562	-0.0169945125	-0.186865
C	 0.7291852799	-0.5267252818	-1.2664051291	-0.024771
O	 0.7304416542	-1.9461954855	-1.2556468178	-0.244712
C	 1.3754415478	-2.4933319261	-2.3795824319	-0.217598
C	 1.3426982496	-3.9480832946	-2.3078650058	 0.01851
C	 1.3294060355	-5.1543980605	-2.272688577	 0.125441
C	 1.3128289147	-6.5191157815	-2.2301994885	 0.208313
N	 1.3001686389	-7.6800805132	-2.1965491136	-0.333104
H	 0.9665902668	 1.926114441	 0.0788798635	 0.118997
H	-0.5691754099	 1.918174374	-0.7983484319	 0.118996
H	-0.5576628824	 1.8185940025	 0.9653852535	 0.123686
H	 0.5260663623	-0.4458414329	 0.8602656627	 0.114272
H	-0.9999405689	-0.453746785	-0.011293816	 0.114272
H	 0.2236786275	-0.1556773596	-2.1743744454	 0.091349
H	 1.7651214431	-0.1476616866	-1.2940467202	 0.091349
H	 0.8903467253	-2.1696984634	-3.3175971	 0.133565
H	 2.4270429646	-2.1610390547	-2.439916466	 0.13356
37.5305	53.0133	91.1914	129.5199	151.3539	160.0264	223.2911	233.5762	359.7521	360.889	385.1016	525.1568	575.7895	587.5087	755.0228	765.8899	902.533	915.7627	1007.9115	1019.1599	1054.3821	1135.889	1148.8006	1177.105	1190.4672	1245.4988	1269.0595	1318.1903	1333.0764	1387.2212	1413.2649	1448.6966	1488.1078	1492.8127	1499.0965	1507.1526	1527.5242	2271.2247	2408.0501	2944.6717	2955.3881	2964.4282	2982.1083	3033.4468	3044.4313	3077.0836	3103.1097	3112.3009
CCCOCC#CC#N	CCCOCC#CC#N	
InChI=1S/C7H9NO/c1-2-6-9-7-4-3-5-8/h2,6-7H2,1H3	InChI=1S/C7H9NO/c1-2-6-9-7-4-3-5-8/h2,6-7H2,1H3
