19
gdb 93050	2.3263	1.89003	1.24159	2.3398	75.51	-0.2415	0.0122	0.2537	1033.9448	0.161639	-423.01942	-423.011765	-423.010821	-423.051658	30.179	
O	 0.024182967	 1.4033264895	-0.0151347806	-0.444867
C	 0.0534288498	-0.01427638	 0.0266809081	 0.115941
C	 0.7964340615	-0.5347721002	 1.2686863711	-0.282105
C	 0.64184938	-2.0231283413	 1.4403456663	-0.074086
C	-0.4453767267	-2.6848916513	 1.0409266037	-0.06097
C	-1.6240185298	-2.0068101315	 0.4119423589	-0.136748
C	-2.6230911814	-1.3284345259	 1.3959420937	-0.071306
O	-2.19758274	-0.0090903369	 0.9933380915	-0.310976
C	-1.366087076	-0.5547650863	-0.0644831335	 0.105214
H	-0.6362159056	 1.6751145511	 0.6353280824	 0.291023
H	 0.5979325842	-0.3356288217	-0.8695265286	 0.089799
H	 1.8509681368	-0.2514178192	 1.1992398418	 0.109879
H	 0.3988092086	-0.013024671	 2.150687704	 0.116022
H	 1.4532071831	-2.5624294615	 1.9221452731	 0.091775
H	-0.5203689025	-3.7574506829	 1.2015875599	 0.089493
H	-2.1062510818	-2.6499626649	-0.3271772233	 0.082162
H	-3.6830844916	-1.4960913631	 1.1667632808	 0.101957
H	-2.4439957751	-1.5128057547	 2.4603381994	 0.10862
H	-1.7929329004	-0.3148887781	-1.0463391387	 0.079173
80.3874	135.7695	232.7284	272.2977	359.476	430.5304	442.7766	483.9281	513.1479	630.8568	702.1403	727.2668	795.9613	838.7222	887.767	934.8913	946.1893	979.7287	1001.0513	1011.9139	1037.3199	1059.5213	1091.6272	1105.6789	1147.2488	1165.0139	1173.6674	1206.402	1243.2578	1254.9394	1289.6164	1325.4123	1341.6454	1355.0417	1368.1494	1386.7443	1417.4244	1435.2175	1477.8449	1521.2564	1714.0747	3013.2989	3014.7299	3024.2157	3044.6331	3071.3839	3080.0528	3085.6801	3147.8283	3171.0081	3773.8615
OC1CC=CC2COC12	O[C@H]1CC=C[C@H]2CO[C@@H]12	
InChI=1S/C7H10O2/c8-6-3-1-2-5-4-9-7(5)6/h1-2,5-8H,3-4H2	InChI=1S/C7H10O2/c8-6-3-1-2-5-4-9-7(5)6/h1-2,5-8H,3-4H2/t5-,6-,7+/m0/s1
