17
gdb 69713	3.91721	1.33359	1.2205	4.0664	72.12	-0.2338	-0.0203	0.2135	1050.1295	0.134318	-421.789201	-421.781485	-421.780541	-421.821325	30.045	
C	-0.1118269297	 1.5160707379	 0.0644984083	-0.506429
C	 0.1600043811	 0.0496910245	 0.0098450122	 0.414953
O	-0.7448437166	-0.8375090435	 0.687396222	-0.279413
C	 0.6552649552	-0.9278845385	 0.9970785028	-0.048538
C	 1.334617704	-1.784098264	-0.1020995013	-0.197211
C	 0.7862200038	-0.7633902034	-1.1637582349	-0.114118
C	-0.1057866284	-1.8653444623	-1.80386884	-0.365884
C	 0.4299054504	-2.8623048916	-0.7500543246	 0.431545
O	 0.2671521804	-4.0290621954	-0.5563430908	-0.296455
H	 0.7787795973	 2.0867069101	-0.2174668784	 0.127928
H	-0.9173311319	 1.7850255092	-0.6285791132	 0.134758
H	-0.4160476912	 1.8105159603	 1.0723515168	 0.138895
H	 0.9331408362	-0.8337257739	 2.0409016045	 0.111703
H	 2.394183154	-1.9988791424	 0.0353491317	 0.097252
H	 1.4692054019	-0.2147529304	-1.8096936617	 0.083708
H	-1.1860428562	-1.7087084335	-1.7785983748	 0.139619
H	 0.1959446397	-2.1469216331	-2.8177236987	 0.127688
84.4273	174.8989	198.8324	263.0935	298.7533	409.4008	428.3346	492.5911	567.3644	636.174	662.4332	759.2316	771.1424	832.8539	838.917	881.5758	916.4427	949.6908	977.4175	1003.8497	1037.1937	1053.7022	1079.5099	1105.378	1134.7893	1172.5959	1198.1947	1219.9374	1228.2282	1249.4597	1290.2345	1403.8723	1420.9819	1462.8576	1482.4589	1493.2356	1896.8085	3033.6517	3061.1344	3096.8084	3122.2771	3123.0733	3126.4848	3136.7939	3181.5737
CC12OC1C1C2CC1=O	C[C@]12O[C@H]1[C@@H]1[C@H]2CC1=O	
InChI=1S/C7H8O2/c1-7-3-2-4(8)5(3)6(7)9-7/h3,5-6H,2H2,1H3	InChI=1S/C7H8O2/c1-7-3-2-4(8)5(3)6(7)9-7/h3,5-6H,2H2,1H3/t3-,5-,6+,7-/m1/s1
