13
gdb 25241	3.44549	1.6735	1.13446	7.9343	65.21	-0.2529	-0.0185	0.2344	967.9229	0.092925	-452.80825	-452.801922	-452.800978	-452.839082	24.177	
O	-0.045260761	-0.0254707642	 0.0047607952	-0.332247
C	 0.059380673	 1.1632832215	 0.0098304657	 0.407638
O	-1.0719826053	 1.9921320932	 0.0286322327	-0.256799
C	-0.7372717534	 3.3894911008	 0.0302954944	-0.182797
C	 0.75103464	 3.3590485798	 0.0093412765	 0.293591
C	 1.2070416799	 2.0776720178	-0.0027918772	 0.082702
N	 2.5808296782	 2.0229967434	-0.0230720658	-0.32763
C	 2.9389646768	 3.2834646113	-0.0219784088	-0.000238
N	 1.8568329483	 4.1526385697	-0.0024779961	-0.387529
H	-1.1875040424	 3.8629634997	-0.8505918005	 0.139968
H	-1.1626962505	 3.8548829404	 0.9276623845	 0.139932
H	 3.9536535099	 3.6536234672	-0.0347378893	 0.145885
H	 1.9037409364	 5.1584000595	 0.0014979888	 0.277523
165.7851	207.2634	247.4005	319.7896	526.0072	544.8621	630.2441	646.2159	662.8642	670.4414	774.0207	787.1726	824.2867	959.4542	1004.5184	1026.2825	1028.8809	1066.6854	1122.6036	1191.1028	1274.2038	1327.6732	1379.8561	1400.34	1466.9544	1499.6252	1531.3648	1606.9583	1897.5301	3026.5199	3060.6798	3253.3799	3658.3458
O=C1OCC2=C1N=CN2	O=C1OCc2c1nc[nH]2	
InChI=1S/C5H4N2O2/c8-5-4-3(1-9-5)6-2-7-4/h2H,1H2,(H,6,7)	InChI=1S/C5H4N2O2/c8-5-4-3(1-9-5)6-2-7-4/h2H,1H2,(H,6,7)
