22
gdb 12276	2.78088	1.48268	1.24547	1.2808	77.65	-0.2591	0.0754	0.3345	1109.0476	0.199417	-350.19359	-350.184151	-350.183206	-350.227414	35.064	
C	 0.7225196004	 1.4444885362	-0.2922726668	-0.399705
C	 0.0877257523	 0.0927027387	 0.0246676685	 0.018397
C	 0.5855883191	-1.0911331494	-0.8581619831	-0.235447
C	 1.358853999	-1.683441131	 0.3541065468	 0.01988
C	 2.8701259313	-1.5525165899	 0.2633305252	-0.093475
O	 3.3103400486	-2.4460866608	-0.7518658043	-0.423465
C	 0.6145785788	-0.6728266643	 1.2896128713	 0.009661
C	 1.3721184545	 0.0761882564	 2.3813812662	-0.413347
H	 1.8148302187	 1.3870615607	-0.3474223953	 0.112838
H	 0.3688324874	 1.8103813359	-1.2627605534	 0.112485
H	 0.467144315	 2.199046352	 0.4599013207	 0.11058
H	-1.0002689392	 0.2156271041	 0.0280578698	 0.061608
H	-0.2200395857	-1.7382561646	-1.2133332838	 0.093853
H	 1.2062693646	-0.8203084127	-1.7170325152	 0.099312
H	 1.1372939927	-2.7344130077	 0.5636156904	 0.070341
H	 3.1578297404	-0.5169543865	 0.0220699003	 0.082287
H	 3.3284760063	-1.7994327302	 1.234785122	 0.082577
H	 4.2624625281	-2.3490108688	-0.8445273652	 0.284045
H	-0.2277784381	-1.19326206	 1.7578461265	 0.069955
H	 2.2341977366	 0.6277109662	 1.9943252711	 0.113181
H	 0.7179570941	 0.8004129503	 2.8797610537	 0.111943
H	 1.7385638251	-0.6138651548	 3.1496072247	 0.112497
72.8394	115.9823	171.2188	211.949	218.1549	243.2389	259.7269	288.7086	341.4582	400.4422	472.7431	499.5499	696.0565	766.5656	823.3941	839.1066	898.4251	928.3681	956.5193	981.301	1022.7663	1035.744	1067.9687	1098.8098	1115.5959	1164.7734	1168.6268	1187.9018	1216.072	1251.6983	1261.8173	1271.1465	1294.7627	1304.163	1362.945	1368.4229	1373.2746	1406.7317	1411.9311	1459.1285	1486.8086	1488.1707	1490.8488	1502.3432	1504.5605	1522.091	2963.5737	2990.4976	3024.8882	3028.2835	3029.5497	3044.13	3054.221	3062.5821	3086.9927	3090.3969	3094.6959	3101.9651	3108.4553	3828.7745
CC1CC(CO)C1C	C[C@H]1C[C@@H](CO)[C@H]1C	
InChI=1S/C7H14O/c1-5-3-7(4-8)6(5)2/h5-8H,3-4H2,1-2H3	InChI=1S/C7H14O/c1-5-3-7(4-8)6(5)2/h5-8H,3-4H2,1-2H3/t5-,6-,7-/m0/s1
