20
gdb 119122	2.49506	1.22837	0.91499	5.9449	76.38	-0.2506	0.0282	0.2788	1321.4591	0.171376	-440.308081	-440.298871	-440.297927	-440.342252	34.214	
C	 3.5113887848	 0.5433629904	-1.3827824003	-0.322074
N	 2.7988212221	-0.7332193627	-1.3700101027	-0.300638
H	 3.1693965783	-1.34275355	-2.0938458416	 0.235699
H	 2.5061975786	-1.7702812458	 0.0323200549	 0.304409
C	 1.3450492017	-0.6087612337	-1.5499098486	-0.25455
C	 0.6594690548	-1.9562041974	-1.4243852454	 0.157192
C	-0.7030953069	-2.1219546344	-2.0560377166	-0.2937
C	 0.4718061909	-2.8043792789	-2.6813496096	-0.289197
C	 0.8877449659	-2.7598644402	-0.1570958046	 0.382054
O	 0.1538435845	-3.6548314212	 0.1826215081	-0.35252
O	 1.9728837765	-2.4281205532	 0.5529190619	-0.387305
H	 3.3344488674	 1.1307082905	-2.2974181618	 0.111998
H	 3.1904056873	 1.1458620235	-0.5274014685	 0.139322
H	 4.5850480286	 0.3635640429	-1.2866129119	 0.133695
H	 0.9822998447	 0.0697955489	-0.7670862605	 0.125008
H	 1.0815705982	-0.1479214913	-2.5159355314	 0.097392
H	-1.4001082189	-2.7367100906	-1.5006101521	 0.151162
H	-1.1264383883	-1.2587989086	-2.5581408941	 0.111303
H	 0.8673079897	-2.4098069127	-3.6122418227	 0.109076
H	 0.5546596801	-3.8778723154	-2.5616452626	 0.141672
78.9753	99.156	145.0431	195.3054	248.9545	274.5935	292.9647	331.7461	360.4158	402.9684	503.4645	611.7589	758.865	761.6836	795.8147	819.2779	870.7118	935.73	945.8362	967.122	990.6168	1012.2997	1034.1456	1068.5459	1097.447	1128.286	1158.278	1188.6114	1204.1111	1211.5062	1275.2231	1315.6149	1348.7763	1398.2129	1453.1512	1459.4686	1472.4481	1487.3719	1491.9829	1504.608	1509.8584	1519.1657	1838.608	2968.2134	2984.411	3043.1383	3078.324	3121.4263	3131.7871	3142.8131	3209.3848	3225.8662	3244.1438	3506.9737
C[NH2+]CC1(CC1)C([O-])=O	CNCC1(CC1)C(=O)O	
InChI=1S/C6H11NO2/c1-7-4-6(2-3-6)5(8)9/h7H,2-4H2,1H3,(H,8,9)	InChI=1S/C6H11NO2/c1-7-4-6(2-3-6)5(8)9/h7H,2-4H2,1H3,(H,8,9)
