19
gdb 67832	2.50759	2.06929	1.58297	1.8227	80.37	-0.2266	0.0165	0.2431	931.1121	0.159469	-385.811076	-385.803786	-385.802841	-385.842159	30.438	
C	-0.161572163	 1.6225251114	-0.2329936309	-0.479553
C	-0.0357740965	 0.1116844489	-0.0454083637	 0.297665
C	-1.3779524453	-0.5302297494	 0.2288939128	-0.149952
C	-1.4497560638	-0.9589663956	 1.4963178037	-0.046902
C	-0.1261282208	-0.8585214091	 2.2663152402	-0.404761
C	 0.7806754693	-0.56540826	 1.0959171047	 0.385169
C	 2.1104738978	-0.0336442214	 0.5181174449	-0.3282
C	 1.2213903656	-0.6233213119	-0.6406790902	-0.021193
O	 0.956751248	-1.7693586372	 0.2165964395	-0.335007
H	 0.7968093424	 2.1143537849	-0.4169660881	 0.116564
H	-0.8019757828	 1.8308353395	-1.097976149	 0.121326
H	-0.6322806687	 2.0955405326	 0.6354597064	 0.122452
H	-2.2150073403	-0.5170573971	-0.4610766398	 0.089369
H	-2.3408411326	-1.3696369812	 1.9593833363	 0.095726
H	-0.1415831105	-0.0601565451	 3.0187805938	 0.11484
H	 0.1407929349	-1.7918875508	 2.7724015175	 0.126168
H	 2.3142826077	 1.0370642216	 0.5669926783	 0.099371
H	 2.9898324428	-0.6393571478	 0.7378479314	 0.110229
H	 1.5105324059	-0.8167736124	-1.676136248	 0.08669
163.1	204.7362	266.2207	327.7753	345.7745	447.2826	460.5053	524.2644	613.8367	630.6805	696.0737	733.4981	760.0216	798.6354	812.3871	876.1917	913.2649	937.3608	953.8227	969.1578	983.2712	1022.3742	1038.8447	1078.2064	1112.1607	1135.582	1154.1322	1173.5603	1185.4569	1192.5478	1227.7438	1242.8858	1287.7341	1323.7039	1366.187	1408.2431	1462.1778	1482.5343	1491.7155	1507.1532	1639.122	3031.0951	3032.8585	3076.1212	3082.6421	3088.1766	3091.9299	3115.0239	3155.249	3175.739	3200.0239
CC12C=CCC11CC2O1	C[C@]12C=CC[C@@]31C[C@H]2O3	
InChI=1S/C8H10O/c1-7-3-2-4-8(7)5-6(7)9-8/h2-3,6H,4-5H2,1H3	InChI=1S/C8H10O/c1-7-3-2-4-8(7)5-6(7)9-8/h2-3,6H,4-5H2,1H3/t6-,7-,8+/m1/s1
