18
gdb 76802	2.19782	1.82418	1.25769	1.7897	67.17	-0.261	0.0463	0.3073	1026.2533	0.148586	-476.176788	-476.168755	-476.167811	-476.209266	31.783	
O	 0.2825046691	 1.1957312663	-0.1464647118	-0.444231
C	 0.1237322038	-0.1987288517	-0.0384865595	 0.049329
C	 0.2582748872	-0.6475185147	 1.460891817	 0.04369
O	 0.8118437993	 0.3133128445	 2.3152822676	-0.438593
C	-1.276765692	-0.7840299728	 1.5040311874	 0.258798
C	-2.1756405299	-1.3684258873	 2.5140927571	-0.317943
N	-2.096436178	 0.0962434059	 2.3335916151	-0.373573
C	-1.3997609528	-0.5932173829	-0.0144673113	 0.030838
O	-2.2535853832	 0.4669338983	-0.3777961148	-0.441921
H	-0.602904121	 1.5263665817	-0.3821431251	 0.29502
H	 0.7593690928	-0.7171808754	-0.7625025958	 0.076908
H	 0.7874344983	-1.5966319789	 1.593384712	 0.083496
H	 0.7919988226	 1.1347388744	 1.7951926376	 0.292639
H	-3.1221535654	-1.8130603803	 2.2180574994	 0.126377
H	-1.7266819475	-1.7996688538	 3.4056960808	 0.12665
H	-1.4941149903	 0.5195902373	 3.0389955403	 0.247985
H	-1.6386958541	-1.4900457381	-0.5938584367	 0.083518
H	-2.641636169	 0.7652670976	 0.4662274909	 0.301013
71.3562	209.7704	230.3918	271.1862	278.0885	307.68	441.2549	484.2069	528.1985	573.4524	600.5723	658.769	681.0851	733.8076	819.0024	841.138	849.816	875.8137	951.5116	987.706	997.8535	1067.712	1104.4332	1118.4183	1135.4434	1148.6767	1174.0478	1227.8607	1240.0925	1274.5804	1278.2656	1325.5459	1335.7977	1351.4784	1403.6918	1414.2521	1440.045	1445.8281	1510.143	3051.8485	3058.7647	3071.0843	3104.5148	3190.732	3475.7721	3590.9539	3626.9109	3662.3508
OC1C(O)C2(CN2)C1O	O[C@H]1[C@@H](O)[C@]2(CN2)[C@H]1O	
InChI=1S/C5H9NO3/c7-2-3(8)5(1-6-5)4(2)9/h2-4,6-9H,1H2	InChI=1S/C5H9NO3/c7-2-3(8)5(1-6-5)4(2)9/h2-4,6-9H,1H2/t2-,3+,4-,5+
