13
gdb 128943	7.63152	0.77806	0.71206	3.1469	64.79	-0.2574	-0.0282	0.2292	1439.7189	0.090614	-448.928589	-448.920862	-448.919918	-448.962167	26.759	
N	-0.0039886317	-1.1207365983	 0.1813388876	-0.285365
C	 0.0155457792	 0.0232858931	 0.0276719259	 0.255635
C	 0.0421751987	 1.469537305	-0.194730584	-0.269208
N	 1.382497507	 1.9945345942	 0.003404719	-0.398961
C	 1.5615247528	 3.3470124317	-0.0004479484	 0.485691
N	 0.5708104432	 4.2094961349	 0.0717273723	-0.219343
O	 1.2483256009	 5.4489138602	 0.0997574327	-0.161015
C	 2.5430954346	 5.1645196864	 0.0224233337	 0.122533
N	 2.8243515618	 3.9029566875	-0.0445953446	-0.332606
H	-0.3568370947	 1.6824194266	-1.1981481376	 0.163611
H	-0.6319805472	 1.9573679099	 0.5175573059	 0.19214
H	 2.1512770817	 1.4632708379	-0.3762506901	 0.274846
H	 3.2320290837	 5.9968938208	 0.0230764676	 0.17204
37.8426	102.6683	129.6268	221.8332	334.8529	382.4185	432.2396	461.1706	560.4838	608.6699	770.2827	795.9737	914.171	920.8524	953.5097	978.6169	997.7791	1051.5168	1132.0134	1167.5796	1241.7314	1296.1168	1325.9932	1401.2351	1487.99	1495.2884	1587.7564	1638.4353	2374.923	2999.0197	3076.4074	3265.1392	3630.7236
N#CCNC1=NOC=N1	N#CCNc1nocn1	
InChI=1S/C4H4N4O/c5-1-2-6-4-7-3-9-8-4/h3H,2H2,(H,6,8)	InChI=1S/C4H4N4O/c5-1-2-6-4-7-3-9-8-4/h3H,2H2,(H,6,8)
