27
gdb 60446	3.91158	0.52503	0.51078	1.3906	93.97	-0.2614	0.0736	0.335	2347.6166	0.249235	-390.709722	-390.697574	-390.69663	-390.747946	44.053	
C	-0.0504618822	 1.5696922291	-0.0381818185	-0.387612
C	 0.0363163075	 0.039123596	 0.0367656444	 0.043837
C	 0.90238634	-0.3907037266	 1.2297923853	-0.379825
C	-1.3729036051	-0.5801536075	 0.0770359502	-0.167489
C	-1.4176843803	-2.1080780696	-0.0385147098	-0.191682
C	-2.8475962301	-2.6566970612	-0.0952993442	-0.165544
C	-2.9162985925	-4.1763944679	-0.2414588242	 0.129341
C	-4.3528576089	-4.6998554886	-0.2185525799	-0.401833
O	-2.273821689	-4.4989267923	-1.4749713755	-0.433537
H	 0.9444500159	 2.0223649183	-0.1071045906	 0.106111
H	-0.6289186018	 1.8953850645	-0.9092520564	 0.107457
H	-0.5381445708	 1.9778424761	 0.855558523	 0.10866
H	 0.527611612	-0.3153655948	-0.8813369172	 0.070264
H	 1.0501325388	-1.4739223037	 1.2630190679	 0.1138
H	 1.8923131069	 0.0755857877	 1.1833627477	 0.106967
H	 0.4384680339	-0.0872573282	 2.176669773	 0.107181
H	-1.8735781153	-0.2656000882	 1.0051587765	 0.083104
H	-1.9645178676	-0.1501249903	-0.7428960547	 0.086737
H	-0.8823312874	-2.4288816767	-0.9391139001	 0.113984
H	-0.8955277096	-2.5661351427	 0.8114840436	 0.088641
H	-3.394090065	-2.3695205299	 0.8122240675	 0.087796
H	-3.3838928237	-2.2086301176	-0.9425671744	 0.097926
H	-2.3596057949	-4.6317191809	 0.5964325876	 0.059292
H	-4.934905369	-4.2533232873	-1.0312289913	 0.122893
H	-4.3747479727	-5.7890130644	-0.3433330855	 0.100601
H	-4.8438459325	-4.4660176892	 0.7318856235	 0.113579
H	-2.2953772168	-5.4550195741	-1.5801852778	 0.279354
38.2633	58.1802	92.4878	123.0113	136.3473	217.4237	230.9182	241.3594	247.9381	257.9867	284.4289	362.9654	381.6361	428.7987	440.0265	487.2442	512.4833	743.3052	814.495	826.7761	864.7473	926.5519	939.8643	950.718	963.6251	980.2787	1028.9848	1046.4064	1064.2851	1089.5249	1111.3301	1161.9847	1169.6441	1192.6841	1218.3225	1265.3959	1281.7775	1318.2201	1328.6746	1333.5909	1364.2281	1372.1372	1386.451	1397.9016	1399.8757	1407.0904	1419.5456	1429.1222	1472.6927	1478.9862	1489.6789	1493.0785	1495.0709	1498.5903	1503.7914	1506.7541	1512.3155	2944.0698	2990.5457	2998.63	3014.6758	3020.7455	3023.3376	3025.8339	3026.4662	3034.3852	3052.4066	3081.3901	3084.5388	3090.5593	3090.9123	3096.2971	3105.7575	3110.2073	3820.5781
CC(C)CCCC(C)O	CC(C)CCC[C@@H](C)O	
InChI=1S/C8H18O/c1-7(2)5-4-6-8(3)9/h7-9H,4-6H2,1-3H3	InChI=1S/C8H18O/c1-7(2)5-4-6-8(3)9/h7-9H,4-6H2,1-3H3/t8-/m1/s1
