19
gdb 120471	3.91876	0.80457	0.71495	1.3172	72.36	-0.252	-0.0312	0.2207	1562.7157	0.157146	-460.158045	-460.148107	-460.147163	-460.19363	35.187	
O	 0.0787852464	 1.4058032077	 0.0612790494	-0.417255
C	 0.0255030092	-0.0055317557	-0.068803291	-0.067628
C	-1.3934363833	-0.5566419705	 0.1130680284	-0.224076
C	-1.4451753814	-2.0777458327	 0.0360300053	-0.101304
C	-2.815163812	-2.8355548123	 0.0941943682	-0.30651
C	-2.3135774433	-3.8210354716	-1.023380401	 0.078498
O	-3.150167854	-4.2557423722	-2.049095148	-0.43373
C	-1.2944991938	-2.7286754902	-1.3464346581	 0.330208
O	-0.8849012371	-2.3329878365	-2.4054415627	-0.318904
H	-0.3629261861	 1.7878530244	-0.7036050237	 0.283307
H	 0.4313206182	-0.3408603662	-1.0334813862	 0.116023
H	 0.6796705547	-0.4000410242	 0.717577745	 0.107653
H	-1.7861810683	-0.2150297631	 1.0776077495	 0.112614
H	-2.044981462	-0.1353280223	-0.6645734444	 0.092899
H	-0.7408036535	-2.5290554322	 0.7457445941	 0.104112
H	-3.0954695175	-3.2848878066	 1.0467560862	 0.117411
H	-3.6312937695	-2.2130217519	-0.2810662896	 0.12052
H	-1.8339988519	-4.6870330691	-0.548747728	 0.1104
H	-2.9705137347	-3.700034765	-2.8180391934	 0.295762
64.3006	85.4007	93.1146	154.8321	170.0315	207.4219	270.6521	303.4557	333.8476	366.5302	415.2257	568.962	600.5998	708.6936	766.0135	810.7694	854.5646	942.2998	959.3855	988.6384	1019.3408	1064.4427	1074.9359	1082.8024	1120.6715	1145.1334	1164.9465	1205.9211	1241.3871	1254.6901	1302.3607	1311.4355	1335.7684	1367.2315	1405.0835	1413.3549	1421.3041	1481.9011	1485.4981	1514.4354	1856.5623	3010.0713	3017.2801	3027.5774	3039.5909	3056.4937	3075.9859	3079.7638	3145.3073	3774.1288	3818.8194
OCCC1CC(O)C1=O	OCC[C@H]1C[C@@H](O)C1=O	
InChI=1S/C6H10O3/c7-2-1-4-3-5(8)6(4)9/h4-5,7-8H,1-3H2	InChI=1S/C6H10O3/c7-2-1-4-3-5(8)6(4)9/h4-5,7-8H,1-3H2/t4-,5+/m0/s1
