22
gdb 97052	3.63999	1.00197	0.9663	2.68	85.59	-0.2395	0.0366	0.2761	1375.6406	0.193149	-404.380191	-404.370223	-404.369279	-404.41567	36.664	
C	-0.0568903443	 1.4417859244	-0.0359182213	-0.333491
N	-0.0340079528	-0.0121424113	-0.0476035206	-0.331347
C	-1.1145144451	-0.6561842174	-0.0111925579	 0.432858
C	-1.2482584034	-2.1630342704	-0.039329594	-0.347031
C	-2.6597614575	-2.4148844182	 0.532496632	 0.27117
C	-3.3297015203	-3.6751707263	-0.018932048	-0.448616
C	-2.6167258951	-2.4522270226	 2.0696790646	-0.425825
C	-3.3645255417	-1.1269165567	 0.0533461065	-0.102769
O	-2.3691969128	-0.0966060598	 0.0668555012	-0.25146
H	 0.4981627099	 1.8012000448	 0.8386222323	 0.12102
H	 0.4752138147	 1.8138812661	-0.9191570661	 0.121236
H	-1.0602540071	 1.8815573447	-0.0193035537	 0.120781
H	-1.1828839548	-2.5095990242	-1.0781878506	 0.118218
H	-0.4424620042	-2.6407859002	 0.5197923784	 0.127896
H	-2.7933910569	-4.5750731044	 0.2996885154	 0.121711
H	-4.3613798742	-3.763941825	 0.3401427517	 0.116331
H	-3.3537363938	-3.669190186	-1.1138166586	 0.114632
H	-2.168616735	-1.5409095802	 2.4780567424	 0.131534
H	-3.6246676502	-2.5489556444	 2.4873215692	 0.113196
H	-2.0245198406	-3.3034989527	 2.4209991993	 0.117422
H	-3.7524701783	-1.2401210368	-0.9681908622	 0.100206
H	-4.1841486764	-0.8106890735	 0.7048094099	 0.112327
29.0273	72.254	165.6814	200.9115	225.6143	231.8474	262.7199	302.3489	329.6593	383.4255	401.7693	491.1689	582.8333	605.8622	691.099	796.2159	833.1352	908.2314	933.8187	950.7221	961.8481	1002.6741	1032.41	1047.8446	1070.1079	1128.2823	1136.3504	1146.7399	1201.2346	1215.5851	1227.7221	1261.1399	1306.8063	1313.8384	1390.801	1404.5613	1427.4322	1437.9399	1470.917	1484.7236	1491.5726	1495.4515	1497.0622	1506.0502	1508.6846	1522.5267	1805.0758	3009.9823	3015.8274	3025.8553	3031.5133	3037.6444	3072.368	3087.1564	3087.5776	3091.9883	3099.6595	3100.5735	3107.2878	3121.3657
CN=C1CC(C)(C)CO1	CN=C1CC(C)(C)CO1	
InChI=1S/C7H13NO/c1-7(2)4-6(8-3)9-5-7/h4-5H2,1-3H3	InChI=1S/C7H13NO/c1-7(2)4-6(8-3)9-5-7/h4-5H2,1-3H3
