23
gdb 121354	3.21344	0.88563	0.7645	1.6682	82.08	-0.2404	0.0681	0.3085	1585.5298	0.20556	-425.432682	-425.422568	-425.421624	-425.468362	36.705	
C	 0.107620384	 1.5555869092	-0.1437933417	-0.379829
C	 0.0169653984	 0.0389015855	 0.0455530041	-0.17398
C	-1.4250991871	-0.4812314716	-0.0145864242	-0.189017
C	-1.5346476555	-2.0015475303	 0.1101937773	-0.008478
C	-1.0744094286	-2.6024434407	 1.4471106633	-0.067795
O	-1.6724682824	-3.895657585	 1.5259404365	-0.266637
C	-2.7722511882	-3.9684072995	 0.6248552912	-0.084865
C	-2.9614941754	-2.5693497773	 0.0239828039	 0.06711
O	-3.8040777929	-1.7471919994	 0.8235101085	-0.434713
H	 1.1439762039	 1.9041053176	-0.094415343	 0.110241
H	-0.3001070583	 1.8574918032	-1.1150466365	 0.113049
H	-0.4596043506	 2.0848320307	 0.6298504683	 0.115838
H	 0.618844486	-0.4630795114	-0.7242178828	 0.091891
H	 0.4688868605	-0.2333815536	 1.0080016572	 0.100526
H	-2.0237801965	-0.0141252153	 0.7744379563	 0.116708
H	-1.8787784523	-0.1692870618	-0.9649811478	 0.089809
H	-0.9541460099	-2.4744304612	-0.6936816073	 0.074835
H	 0.0105251504	-2.7248883072	 1.518777122	 0.101225
H	-1.4108886449	-1.9742441358	 2.2854851327	 0.097973
H	-2.5591974153	-4.7090503507	-0.1604033642	 0.091949
H	-3.6718294777	-4.2977201495	 1.1634203576	 0.086261
H	-3.3317097839	-2.6152580525	-1.0102202417	 0.063373
H	-4.6611874638	-2.1773419433	 0.8979527504	 0.284527
78.9313	82.6259	90.4995	120.7615	164.3381	246.0994	265.6969	286.2648	305.1372	344.4162	430.2057	543.3382	666.3788	744.692	768.3555	849.7457	865.4607	886.4235	906.7242	941.0685	991.1567	1010.5438	1018.7645	1042.7433	1086.3133	1099.5426	1134.3893	1151.331	1167.5095	1195.6018	1229.7437	1241.9717	1272.4594	1292.7699	1323.9827	1329.8783	1345.388	1363.0784	1377.3664	1389.7163	1402.3005	1412.6736	1430.6151	1484.9989	1495.143	1499.2768	1509.1201	1511.7546	1524.6625	2983.2115	2991.5902	3003.5509	3011.7374	3017.5033	3020.3593	3025.6073	3029.5352	3043.9196	3075.0008	3081.3503	3097.2009	3101.6823	3826.0114
CCCC1COCC1O	CCC[C@H]1COC[C@H]1O	
InChI=1S/C7H14O2/c1-2-3-6-4-9-5-7(6)8/h6-8H,2-5H2,1H3	InChI=1S/C7H14O2/c1-2-3-6-4-9-5-7(6)8/h6-8H,2-5H2,1H3/t6-,7+/m0/s1
