16
gdb 105293	2.35295	1.14641	0.9135	2.3439	74.4	-0.2544	-0.0455	0.2089	1282.9145	0.121354	-437.820256	-437.810836	-437.809892	-437.855107	33.691	
O	 0.1569565006	 1.3800814147	-0.1083650035	-0.406996
C	 0.0419059175	 0.0529776671	 0.3533432957	-0.113008
C	-1.3586593537	-0.4931819432	 0.0950971337	 0.059979
N	-1.6167976937	-0.8138514287	-1.319647481	-0.369258
C	-1.5985888642	-1.9243058337	-0.3562064474	-0.159937
C	-0.4943505608	-2.9207522025	-0.503503554	 0.163885
O	-0.5247587659	-4.0129099908	 0.0034922056	-0.248774
C	-2.417472632	 0.1183379234	 0.8569318917	 0.304167
C	-3.2992408377	 0.6334325442	 1.4915513112	-0.426372
H	-0.0267202573	 1.3627064304	-1.0549988022	 0.293798
H	 0.7831357821	-0.6055561841	-0.1182982786	 0.094631
H	 0.2395660513	 0.0745237692	 1.4284913275	 0.128572
H	-2.5752272077	-0.582589393	-1.5679792579	 0.254726
H	-2.5381364999	-2.3580852183	-0.0249926211	 0.123093
H	 0.354080542	-2.584680117	-1.136447216	 0.094164
H	-4.0736506306	 1.0934292325	 2.0546957566	 0.207329
64.0455	83.4436	110.5613	151.711	204.2955	272.3205	332.1143	361.4494	420.0531	451.7218	481.0016	561.0913	596.0222	622.1763	665.9465	724.4251	834.7581	913.233	970.0555	986.1048	1031.1094	1067.3669	1083.3403	1091.8004	1189.4094	1217.0571	1279.2352	1325.0163	1369.2574	1388.3408	1424.9235	1443.759	1491.8066	1822.0491	2235.7946	2909.8842	3019.6402	3100.6729	3160.3173	3499.8575	3515.7037	3795.3958
OCC1(NC1C=O)C#C	OC[C@]1(N[C@H]1C=O)C#C	
InChI=1S/C6H7NO2/c1-2-6(4-9)5(3-8)7-6/h1,3,5,7,9H,4H2	InChI=1S/C6H7NO2/c1-2-6(4-9)5(3-8)7-6/h1,3,5,7,9H,4H2/t5-,6+/m0/s1
