15
gdb 20762	5.24922	1.29745	1.06408	2.1938	64.06	-0.2531	-0.0069	0.2462	1075.3788	0.118444	-399.797585	-399.789736	-399.788791	-399.830295	27.799	
C	-0.1426950149	 1.4625733725	 0.0238186412	-0.494125
C	-0.0183939767	-0.0274120613	 0.0279418927	 0.391716
N	 0.3554441161	-0.6586463109	-1.0605129714	-0.201006
O	 0.3679021339	-2.0167714505	-0.7262533312	-0.2154
C	 0.0072320466	-2.1545477449	 0.5597170443	 0.398479
C	-0.0399951999	-3.5448215635	 1.1168827803	-0.171949
O	-0.8276312901	-3.6208181278	 2.2877925782	-0.401369
C	-0.2579439929	-0.9373489478	 1.1012976075	-0.412248
H	 0.5226301284	 1.912129408	 0.7680715764	 0.139076
H	 0.1151645282	 1.8578994875	-0.9603416237	 0.150915
H	-1.1643246063	 1.770481226	 0.2693030627	 0.137196
H	-0.3782513854	-4.2359321311	 0.330265276	 0.121836
H	 0.9663898579	-3.8662644661	 1.4092775637	 0.143986
H	-1.7286712969	-3.3754900858	 2.0516578968	 0.290042
H	-0.5606668479	-0.7191577444	 2.1114959164	 0.12285
65.8813	129.9862	146.9797	187.7547	307.3694	347.7001	361.7245	445.3369	619.0211	650.3466	678.5229	754.3151	822.0663	932.9082	980.34	987.331	1027.9782	1044.6256	1066.9065	1092.141	1148.4312	1203.2886	1264.9561	1381.5733	1404.8571	1418.5066	1454.3226	1478.5093	1482.2272	1493.0196	1533.0139	1644.2451	2998.6687	3043.083	3061.4218	3099.1991	3140.6346	3281.5798	3810.1434
CC1=NOC(CO)=C1	Cc1noc(CO)c1	
InChI=1S/C5H7NO2/c1-4-2-5(3-7)8-6-4/h2,7H,3H2,1H3	InChI=1S/C5H7NO2/c1-4-2-5(3-7)8-6-4/h2,7H,3H2,1H3
