17
gdb 50175	2.69549	1.55884	1.43571	1.9752	74.78	-0.2323	-0.0237	0.2087	985.9088	0.135832	-421.800778	-421.793067	-421.792122	-421.833467	28.762	
O	-0.8865349897	 1.2538308261	-0.2193891207	-0.245292
C	 0.174204987	 1.0332192062	 0.30943881	 0.164354
C	 1.4072327094	 1.8788591892	 0.1480358936	-0.166618
C	 1.2383453344	 3.1193104755	-0.7994749366	-0.326826
C	 0.9349077426	 3.8993323785	 0.4630850214	 0.223078
C	-0.0643171635	 4.5011356292	 1.0956145354	-0.213375
C	-0.0560013282	 4.018683235	 2.5367602578	-0.111031
O	 0.8364388096	 2.8791738249	 2.5574895926	-0.275495
C	 1.5876185485	 2.9118888904	 1.3686269235	 0.082729
H	 0.3029204204	 0.1692944021	 0.997440453	 0.086463
H	 2.2788814744	 1.2375610597	-0.0152233896	 0.092287
H	 2.1779948576	 3.3845904858	-1.2905874023	 0.115186
H	 0.4338288387	 3.053284411	-1.5319241556	 0.140237
H	-0.8694413777	 5.0919080546	 0.6789005969	 0.11298
H	 0.2943184871	 4.7681350668	 3.2630258033	 0.109445
H	-1.0533163221	 3.6883083971	 2.8527263056	 0.122774
H	 2.6570605715	 3.0358956577	 1.5849108115	 0.089104
67.0038	122.0495	181.6781	195.9668	295.1493	348.641	453.9327	627.9121	663.8776	710.7898	752.0675	794.43	806.6921	835.889	909.3313	932.6253	961.5513	981.7628	1002.5212	1028.5866	1036.4906	1102.1868	1107.7998	1132.2304	1157.5114	1194.4891	1231.222	1240.9678	1294.5528	1325.1706	1356.0768	1384.5936	1423.4867	1467.0632	1514.4172	1728.2279	1818.1007	2894.75	2985.4944	3011.1267	3042.7448	3063.6923	3073.6096	3142.7907	3221.9709
O=CC1CC2=CCOC12	O=C[C@H]1C[C]2[CH]CO[C@@H]12	
InChI=1S/C7H8O2/c8-4-6-3-5-1-2-9-7(5)6/h1,4,6-7H,2-3H2	InChI=1S/C7H8O2/c8-4-6-3-5-1-2-9-7(5)6/h1,4,6-7H,2-3H2/t6-,7-/m1/s1
