15
gdb 32315	2.73728	1.47171	0.9628	3.0799	71.78	-0.2302	-0.051	0.1792	1142.2001	0.112963	-457.817172	-457.809237	-457.808293	-457.850017	29.116	
O	 0.0143568975	 1.4464981225	 0.0068584018	-0.423077
C	 0.003245982	 0.0319338036	 0.0020381791	-0.15185
C	-1.4197292023	-0.4497083423	 0.0124492045	 0.047286
C	-2.4994738742	 0.3718641413	 0.0239632466	-0.131699
C	-3.8219739475	-0.1714811124	 0.033435702	-0.188249
C	-3.9587336659	-1.5116694094	 0.0306449751	 0.078443
O	-2.9101648936	-2.3525410703	 0.0193120788	-0.212224
C	-1.5872442545	-1.8930811721	 0.0093546521	 0.398714
O	-0.70615366	-2.7148518493	-0.0001661734	-0.34932
H	 0.9298985973	 1.7377297671	-0.0000342756	 0.295852
H	 0.51147506	-0.3820203111	-0.8835171261	 0.119222
H	 0.5264370299	-0.3881768155	 0.8758933309	 0.119247
H	-2.3448800807	 1.4445205405	 0.0259346137	 0.138218
H	-4.6979814372	 0.4628353321	 0.0426935307	 0.116794
H	-4.9018158409	-2.0448886246	 0.0370382397	 0.142644
80.0632	138.1207	201.4456	206.0236	248.6525	351.1935	400.9018	513.8739	547.344	565.1159	579.3858	764.3321	776.6251	794.8081	879.1283	933.6122	955.0457	983.4612	1049.1528	1060.8526	1105.984	1114.6406	1205.61	1229.2551	1240.8807	1287.4379	1381.6258	1444.9808	1463.084	1500.3771	1607.4303	1687.0537	1819.3661	2975.0515	2993.7729	3206.4605	3211.6534	3232.8207	3848.1839
OCC1=CC=COC1=O	OCc1cccoc1=O	
InChI=1S/C6H6O3/c7-4-5-2-1-3-9-6(5)8/h1-3,7H,4H2	InChI=1S/C6H6O3/c7-4-5-2-1-3-9-6(5)8/h1-3,7H,4H2
