20
gdb 86070	2.22067	1.35994	0.93274	5.5088	87.72	-0.2022	-0.0243	0.1779	1301.7148	0.170536	-403.193928	-403.184482	-403.183538	-403.228253	34.774	
C	 0.213645445	 1.5156693934	 0.0450413567	-0.394232
C	-0.027531438	 0.0051347559	-0.0133686907	 0.031602
C	 0.6649280313	-0.6764546063	-1.2256898477	-0.323428
C	 1.8968550065	-1.3097293332	-0.6095152554	 0.110389
C	 2.9606636177	-1.8856926653	-1.3836367861	 0.045356
O	 2.9994054592	-1.896080403	-2.6039381186	-0.316739
C	 1.7812157186	-1.2699450774	 0.7484921528	 0.283043
C	 2.7048770716	-1.7884322157	 1.8035620235	-0.504826
N	 0.5969281307	-0.6889203024	 1.1345685171	-0.329585
H	 1.2854179699	 1.7370612218	 0.0062205433	 0.12888
H	-0.2684767277	 2.0105265762	-0.803880323	 0.127241
H	-0.197042107	 1.9509127913	 0.9632124404	 0.108353
H	-1.1045374477	-0.1897593699	-0.0069998305	 0.087175
H	 0.018968499	-1.4374626889	-1.6791391356	 0.117002
H	 0.9107891754	 0.0378347096	-2.016979907	 0.1216
H	 3.7919867304	-2.3369416022	-0.7948738483	 0.038563
H	 3.0255924907	-0.9782099087	 2.4696344967	 0.134829
H	 2.1942161422	-2.534567438	 2.4224953117	 0.146715
H	 3.5941289398	-2.2468158524	 1.3718914975	 0.152613
H	 0.5373142324	-0.2600097848	 2.0473692634	 0.235449
75.669	116.8115	133.4815	184.0796	198.4846	253.7782	299.6435	339.7938	375.4506	408.1241	503.7991	547.0688	601.5806	616.2595	711.3422	822.8278	838.0944	923.3595	944.0275	999.185	1012.3398	1051.5968	1061.227	1081.2515	1096.5387	1133.9343	1206.0831	1267.5619	1293.4686	1315.8455	1360.2833	1381.7148	1404.6478	1409.7977	1432.4332	1466.837	1478.0503	1486.3177	1492.8979	1495.079	1502.8512	1666.5218	1744.5751	2854.9376	3027.9282	3032.2805	3032.6029	3052.6757	3082.28	3084.1335	3098.1345	3111.1637	3153.3258	3592.5388
CC1CC(C=O)=C(C)N1	C[C@H]1CC(=C(C)N1)C=O	
InChI=1S/C7H11NO/c1-5-3-7(4-9)6(2)8-5/h4-5,8H,3H2,1-2H3	InChI=1S/C7H11NO/c1-5-3-7(4-9)6(2)8-5/h4-5,8H,3H2,1-2H3/t5-/m0/s1
