18
gdb 29571	2.8663	1.30939	0.95839	2.3252	79.47	-0.2018	0.0428	0.2445	1225.8084	0.1483	-401.965145	-401.956652	-401.955708	-401.998746	31.587	
C	 0.1540672859	 1.5567483871	-0.117450373	-0.509251
C	 0.0422184916	 0.0631703631	-0.0481200597	 0.164314
C	 0.0486567822	-0.8085538979	-1.1130627546	-0.156553
N	-0.0806726356	-2.0860514498	-0.6263988959	-0.250631
C	-0.1687900796	-2.0536944337	 0.7392321264	-0.171713
C	-0.100269033	-0.7354341641	 1.1334902968	 0.192972
C	-0.1595505682	-0.2519238564	 2.5279122085	-0.046666
C	-1.3306501041	-0.4694862538	 3.4010914058	-0.17149
O	-0.1456491702	-1.2492379771	 3.5561912661	-0.234674
H	 1.0115607772	 1.9305691187	 0.4557481197	 0.123748
H	 0.2818493292	 1.8925250617	-1.1506817176	 0.118796
H	-0.7368127829	 2.0558975763	 0.2825178019	 0.123302
H	 0.1348983674	-0.619119328	-2.171493213	 0.11623
H	-0.0826712068	-2.9206179074	-1.1850907135	 0.260868
H	-0.2489983862	-2.9515236488	 1.3289526559	 0.132659
H	 0.4582835462	 0.6193984284	 2.752907939	 0.088514
H	-1.543415688	 0.2238435623	 4.2148379537	 0.109199
H	-2.190250235	-1.0020209507	 2.9972247735	 0.110375
58.5836	127.7398	153.1389	166.5682	254.6009	279.2993	418.1384	467.1089	485.3983	598.7452	639.6252	669.3368	719.1615	727.9353	779.192	854.239	895.707	919.4214	1000.7991	1008.3523	1064.6013	1085.7868	1096.6924	1103.9641	1149.1096	1171.0711	1191.2173	1256.2107	1278.8179	1331.7793	1376.8008	1420.0885	1443.146	1475.2901	1484.3827	1499.5416	1517.5345	1564.8593	1620.9491	3018.8657	3063.8743	3075.3609	3088.5127	3102.6476	3168.8964	3255.9525	3277.0588	3689.8568
CC1=CNC=C1C1CO1	Cc1c[nH]cc1[C@H]1CO1	
InChI=1S/C7H9NO/c1-5-2-8-3-6(5)7-4-9-7/h2-3,7-8H,4H2,1H3	InChI=1S/C7H9NO/c1-5-2-8-3-6(5)7-4-9-7/h2-3,7-8H,4H2,1H3/t7-/m1/s1
