21
gdb 113108	6.28304	0.62277	0.59711	2.9374	81.18	-0.2449	-0.0211	0.2238	1858.6024	0.180296	-424.215198	-424.205242	-424.204298	-424.251559	35.093	
C	 0.0629179853	 1.1847798136	 0.2999723614	-0.242023
O	-0.320822683	-0.0693623263	-0.2189311117	-0.239153
C	 0.516791007	-0.5259800025	-1.2436802439	 0.167124
C	 1.909835287	-1.1181710266	-0.8754730834	-0.283856
C	 1.6306381372	-2.2569495813	-1.896744774	 0.022318
C	 2.0857115877	-3.6754461262	-1.541601186	-0.295603
C	 1.6104394775	-4.6932879955	-2.5539301757	 0.160464
O	 2.3295049281	-5.4136010102	-3.198110524	-0.239533
C	 0.1170506752	-1.8959309309	-1.821714564	-0.27941
H	 1.0635075831	 1.1537694774	 0.7568143233	 0.108714
H	 0.0646876183	 1.9630544804	-0.4794631587	 0.105291
H	-0.6651204517	 1.4559906743	 1.0680406895	 0.128594
H	 0.6119493193	 0.2380567309	-2.0317778638	 0.065532
H	 2.8021396096	-0.5056751131	-1.0221683249	 0.100749
H	 1.8924486549	-1.4959801748	 0.1521182414	 0.107323
H	 2.0334402506	-1.9843675495	-2.8781881088	 0.086817
H	 3.1764613947	-3.7373534293	-1.4745268932	 0.120171
H	 1.6637695111	-3.9492936104	-0.5635857646	 0.11318
H	 0.5033805271	-4.7322733695	-2.683385814	 0.075334
H	-0.3948840756	-2.4786131284	-1.0492495287	 0.112597
H	-0.4756369834	-1.9161005621	-2.7383936363	 0.105369
42.7718	60.6024	74.8172	112.4973	191.8207	197.4928	245.262	358.8969	373.9896	436.2687	460.0336	501.8	610.9506	770.1689	812.483	836.9089	912.8797	947.3418	966.5611	997.6961	1018.9938	1057.9783	1096.9752	1112.5234	1140.4124	1172.7522	1179.3897	1187.7319	1219.4935	1243.8387	1258.2864	1267.441	1273.9552	1293.3398	1319.6316	1370.6264	1400.6319	1431.4195	1462.9947	1470.4781	1482.2414	1487.6838	1500.2135	1509.7672	1833.	2858.2221	2969.8913	2978.1566	3009.8894	3022.7197	3046.5928	3051.7174	3059.4914	3090.9223	3114.0947	3116.7144	3119.3104
COC1CC(CC=O)C1	CO[C@H]1C[C@@H](CC=O)C1	
InChI=1S/C7H12O2/c1-9-7-4-6(5-7)2-3-8/h3,6-7H,2,4-5H2,1H3	InChI=1S/C7H12O2/c1-9-7-4-6(5-7)2-3-8/h3,6-7H,2,4-5H2,1H3/t6-,7+
