20
gdb 12782	3.59906	1.51229	1.29527	1.7134	75.05	-0.2277	0.0833	0.311	1051.094	0.175944	-348.972961	-348.964498	-348.963554	-349.005614	31.961	
C	 0.1611830304	 1.5358519908	 0.1095117234	-0.378415
C	-0.1831022668	 0.0567318452	-0.0972912275	-0.200535
C	 0.6047600471	-0.5626033365	-1.2371431662	 0.114224
O	 2.0536410207	-0.5258956613	-1.0439801716	-0.311907
C	 2.1382946414	-1.9173729093	-1.3590066134	 0.069827
C	 1.4162753618	-2.7349858758	-0.3336078653	-0.351139
C	 0.6397272524	-2.080647598	-1.4649691476	 0.244355
C	-0.2365837603	-2.828111113	-2.4264230007	-0.496757
H	 1.2272886575	 1.6522342032	 0.3233071312	 0.138357
H	-0.0671384935	 2.1253828402	-0.7853984363	 0.112318
H	-0.4048337907	 1.9608738902	 0.9436240798	 0.109851
H	 0.0062293369	-0.5023565994	 0.825499965	 0.099136
H	-1.2517491827	-0.0564431499	-0.3240932865	 0.095784
H	 0.3687963008	-0.0454631377	-2.1796079668	 0.071266
H	 2.9640136672	-2.2504358426	-1.9779292533	 0.099578
H	 1.5165894124	-3.8117267784	-0.4381152776	 0.109286
H	 1.3582570006	-2.3792580516	 0.6910084557	 0.112804
H	-1.2478763814	-2.965087823	-2.0242553174	 0.122062
H	-0.3263541449	-2.2964534724	-3.380726315	 0.119131
H	 0.166896391	-3.8238782107	-2.6364589997	 0.120777
93.6778	157.1798	168.673	198.1864	234.5284	272.73	322.8053	413.7058	487.7371	509.2585	632.738	730.1815	781.6408	820.9114	887.8394	899.0673	927.6535	971.0029	985.5373	1003.9281	1030.994	1060.6202	1075.7867	1092.2968	1116.9063	1138.3074	1160.8088	1242.6266	1260.1069	1282.5553	1298.0632	1341.5563	1387.906	1409.0983	1417.04	1427.9089	1476.7383	1488.145	1490.2326	1497.8479	1499.6153	1509.6732	2987.7702	3020.2043	3023.8679	3036.6174	3069.8587	3077.6212	3096.7072	3103.5051	3114.3845	3120.0475	3173.5652	3202.4346
CCC1OC2CC12C	CC[C@H]1O[C@H]2C[C@@]12C	
InChI=1S/C7H12O/c1-3-5-7(2)4-6(7)8-5/h5-6H,3-4H2,1-2H3	InChI=1S/C7H12O/c1-3-5-7(2)4-6(7)8-5/h5-6H,3-4H2,1-2H3/t5-,6+,7+/m1/s1
