17
gdb 10941	4.82325	1.4859	1.41785	2.8512	69.19	-0.2474	-0.0309	0.2166	933.2907	0.141697	-363.836015	-363.82832	-363.827376	-363.867956	28.575	
C	-0.0791922672	 1.4806137296	-0.1312216918	-0.485902
C	-0.1076218314	-0.0035646565	 0.0717835364	 0.355939
C	-1.3666514985	-0.8485869598	 0.354589538	-0.310449
C	-0.5177751383	-1.7939153165	 1.2597130641	-0.098805
C	-0.3365523445	-3.2207424738	 0.8343171667	 0.143543
O	-0.4804946218	-3.6035018215	-0.3046690846	-0.257128
C	 0.7334564607	-0.9114399509	 0.927436738	-0.113989
N	 0.947332142	-0.8274987684	-0.5060516068	-0.351721
H	 0.9514783464	 1.843880566	-0.1426437326	 0.134508
H	-0.5409399301	 1.749952115	-1.0887297626	 0.125403
H	-0.6281438212	 1.9995927993	 0.6618250649	 0.115586
H	-2.1264291972	-0.316447789	 0.9320033256	 0.10808
H	-1.8326427747	-1.314041306	-0.5177214686	 0.11896
H	-0.7819262166	-1.7340301818	 2.318534046	 0.087931
H	 0.0122639472	-3.9220137762	 1.6255866826	 0.082911
H	 1.5601493534	-0.7136669291	 1.6006447941	 0.09865
H	 0.6079658419	-1.6464172103	-1.0102546694	 0.246482
98.882	137.7145	197.2174	210.1208	266.0241	345.3977	398.1973	508.1297	608.2411	683.4058	729.6368	796.8036	846.1421	870.1526	925.2132	972.7864	980.8656	1006.5387	1055.5593	1076.7148	1093.8044	1131.0314	1136.673	1196.4787	1213.289	1248.8158	1261.4979	1303.2818	1345.4685	1402.2178	1419.8672	1455.2853	1481.9144	1484.6833	1494.9939	1799.7318	2877.8844	3029.1315	3063.3418	3081.9708	3088.1826	3119.7545	3122.2264	3174.4269	3458.0036
CC12CC(C=O)C1N2	C[C@]12C[C@@H](C=O)[C@H]1N2	
InChI=1S/C6H9NO/c1-6-2-4(3-8)5(6)7-6/h3-5,7H,2H2,1H3	InChI=1S/C6H9NO/c1-6-2-4(3-8)5(6)7-6/h3-5,7H,2H2,1H3/t4-,5+,6-/m0/s1
