14
gdb 18812	4.45819	2.30777	1.92207	3.7426	61.36	-0.2297	0.0148	0.2445	701.473	0.11019	-378.669558	-378.664061	-378.663117	-378.698973	22.542	
N	-0.0817323544	 1.259588264	 0.1238986445	-0.558137
C	-0.0401895835	 0.0091111281	-0.0122502073	 0.495799
O	 1.1011919264	-0.7613103458	-0.0728302718	-0.24531
C	 0.7162931559	-2.0727907332	-0.4542721234	 0.09639
C	-0.3464299366	-2.7940300083	 0.3512449176	-0.060353
N	-1.0553526355	-1.7963517221	 1.1730907392	-0.32449
C	-1.2041932634	-0.949390502	-0.0873624003	-0.147796
C	-0.6841146921	-2.1166983296	-0.9749574762	-0.145352
H	 0.8608765359	 1.6484579663	 0.1874848984	 0.225986
H	 1.5232461335	-2.6328981019	-0.9067678942	 0.119206
H	-0.265129023	-3.835841851	 0.6392925411	 0.103443
H	-1.9776132078	-2.1673734315	 1.3900191511	 0.230344
H	-2.1749125607	-0.4909532988	-0.2463575482	 0.105085
H	-1.0177047247	-2.4495894942	-1.9493687704	 0.105186
167.2789	350.1516	410.7068	513.5182	608.3609	706.0325	717.7433	762.4572	799.0238	819.3914	849.1804	864.4963	908.4125	919.5181	966.1874	1009.198	1019.458	1037.1911	1054.2212	1069.8381	1107.3355	1124.6531	1188.0577	1228.7811	1230.7727	1271.0044	1339.2736	1374.1035	1423.9211	1797.0976	3176.7596	3180.5004	3192.8734	3219.0722	3472.2065	3489.1554
N=C1OC2C3NC1C23	[NH][C]1O[C@H]2[C@H]3N[C@@H]1[C@@H]23	
InChI=1S/C5H6N2O/c6-5-3-1-2(7-3)4(1)8-5/h1-4,6-7H	InChI=1S/C5H6N2O/c6-5-3-1-2(7-3)4(1)8-5/h1-4,6-7H/t1-,2-,3+,4+/m0/s1
