17
gdb 7080	2.21775	1.82841	1.14835	4.6606	66.17	-0.2466	-0.0177	0.2288	1057.5653	0.139868	-401.038147	-401.028903	-401.027958	-401.07336	31.496	
C	 0.0020226844	 1.8567670804	 0.3535449933	-0.405885
C	-0.0412266664	 0.3704702451	-0.0062270879	 0.028721
C	 0.8378228004	-0.4713472229	 0.9460048947	-0.264636
C	 0.9159580667	-1.93429121	 0.5540752946	 0.164102
O	 0.6104405381	-2.8409093593	 1.2853803335	-0.247545
N	-1.4239177451	-0.0975574247	-0.020431854	-0.270598
C	-1.870111248	-1.0340873736	-0.8987144141	 0.161779
O	-1.1893217022	-1.550177177	-1.761806961	-0.330883
H	 1.0287400174	 2.2311563853	 0.3189585254	 0.12959
H	-0.6029165962	 2.4413472018	-0.3448335693	 0.13093
H	-0.3787071866	 2.0294578655	 1.3672955482	 0.119327
H	 0.3231446327	 0.2291129499	-1.028367085	 0.126137
H	 1.8586803789	-0.0648214265	 0.9152321496	 0.118679
H	 0.4739989252	-0.4067553181	 1.9767801078	 0.111126
H	 1.2883159746	-2.1211237915	-0.4754943977	 0.096143
H	-2.0494840905	 0.2187583595	 0.7045956571	 0.248352
H	-2.9408088234	-1.2718754641	-0.7484296252	 0.084661
36.8268	54.1111	101.0055	184.2031	218.3142	231.8734	261.191	331.8196	427.2335	468.5024	502.9726	541.6638	732.8244	809.8789	890.0325	932.7208	976.8056	1010.4464	1030.8663	1104.6131	1140.8037	1160.2595	1190.7186	1244.6089	1284.369	1348.0426	1392.1346	1412.6408	1426.1318	1431.9235	1455.1826	1491.9	1497.6151	1523.3875	1792.7011	1830.1977	2912.2016	2949.6379	3016.8601	3032.739	3069.8622	3089.5332	3105.7125	3123.4556	3624.3246
CC(CC=O)NC=O	C[C@@H](CC=O)NC=O	
InChI=1S/C5H9NO2/c1-5(2-3-7)6-4-8/h3-5H,2H2,1H3,(H,6,8)	InChI=1S/C5H9NO2/c1-5(2-3-7)6-4-8/h3-5H,2H2,1H3,(H,6,8)/t5-/m0/s1
