17
gdb 72048	2.46761	1.64655	1.2704	1.622	80.72	-0.2259	0.0268	0.2527	1043.8433	0.134511	-384.595418	-384.587444	-384.586499	-384.627642	31.246	
C	-0.155627651	 1.4495933415	-0.0279221856	-0.502747
C	 0.0275605301	-0.0359955684	-0.0360713709	 0.225878
C	 0.9730768008	-0.8835327868	-0.8933643723	-0.288645
C	 0.1601183854	-2.0970888696	-0.3877955041	 0.008856
O	 0.4636242898	-2.1442450751	 1.0342530861	-0.289424
C	-0.2874494241	-0.9433356196	 1.1568147534	-0.009503
C	-1.0689555755	-1.1301048577	-0.1205700717	 0.243983
C	-2.4313342599	-1.1043151636	-0.4732113318	-0.019699
C	-3.5939133594	-1.0816107889	-0.789566753	-0.364058
H	 0.7419341729	 1.9520330698	 0.3503929993	 0.128574
H	-0.3585232289	 1.832775185	-1.0336663956	 0.12925
H	-0.995929494	 1.7394192921	 0.6117015054	 0.129078
H	 0.8127752529	-0.698465088	-1.9587781047	 0.109883
H	 2.0418649277	-0.8862058093	-0.6555690542	 0.102531
H	 0.1522838219	-3.072031019	-0.8685710455	 0.100041
H	-0.5981547596	-0.6060944734	 2.1371788265	 0.11828
H	-4.6197474791	-1.0657269288	-1.0620991913	 0.177722
111.4277	143.858	192.9613	259.0309	284.7435	411.952	452.855	492.4829	557.9482	571.6858	588.4434	617.6478	666.9153	750.9415	790.4682	837.3813	889.7148	924.1226	946.6481	976.5346	995.2637	1027.8408	1061.7461	1093.2621	1139.6006	1162.3263	1201.7935	1232.0532	1240.1613	1293.0984	1337.5338	1414.6629	1433.9652	1483.2578	1489.5484	1498.6519	2225.6423	3027.0168	3046.5806	3090.6242	3098.0923	3111.6932	3158.9769	3209.9698	3502.2948
CC12CC3OC1C23C#C	C[C@@]12C[C@H]3O[C@@H]1[C@@]23C#C	
InChI=1S/C8H8O/c1-3-8-5-4-7(8,2)6(8)9-5/h1,5-6H,4H2,2H3	InChI=1S/C8H8O/c1-3-8-5-4-7(8,2)6(8)9-5/h1,5-6H,4H2,2H3/t5-,6+,7-,8+/m1/s1
