20
gdb 17787	5.77715	1.09315	1.07539	0.9617	76.79	-0.2501	0.0901	0.3402	1196.1581	0.177808	-348.936513	-348.928663	-348.927718	-348.96939	29.339	
C	-0.4239944592	 1.3678737408	 0.5998110332	-0.221417
O	-0.30690603	-0.0273840958	 0.7240516814	-0.232642
C	 0.9863345326	-0.5025006846	 0.400147795	-0.118415
C	 0.9629670555	-2.013004151	 0.5154597699	 0.057696
C	 2.2763881596	-2.858320023	 0.5404486697	-0.063447
C	 2.4992396489	-2.401746961	 2.0135910376	-0.225178
C	 0.9826899539	-2.7368494532	 1.9012788754	-0.035761
C	 1.4121654111	-4.0154730604	 1.1234139875	-0.217742
H	-0.2248390641	 1.7065638627	-0.4300414704	 0.100629
H	-1.4490729941	 1.6372884041	 0.8667752594	 0.124917
H	 0.26877133	 1.9004092816	 1.2716987949	 0.100522
H	 1.2481356754	-0.214983893	-0.6341015584	 0.081157
H	 1.7354120511	-0.0356562855	 1.0578431822	 0.085215
H	 0.1976816285	-2.4002225964	-0.1666597808	 0.068589
H	 3.0260196892	-2.9319925312	-0.2497922771	 0.066
H	 3.0936165408	-3.0742295887	 2.6384249894	 0.088402
H	 2.7828449556	-1.3635544462	 2.1912028003	 0.091749
H	 0.2291441495	-2.6646569803	 2.6858949808	 0.07392
H	 0.668646939	-4.4589307506	 0.4552298083	 0.08861
H	 1.9459690566	-4.7786737285	 1.6958716015	 0.087195
62.1825	88.5626	137.9778	229.2995	318.7859	364.8319	384.5843	565.7274	609.2823	765.967	792.5867	837.0165	893.1536	901.1529	904.7075	984.7695	1002.9035	1012.0376	1030.8367	1040.3942	1094.8376	1111.9278	1122.1966	1142.3566	1154.3755	1172.8353	1185.3511	1190.2867	1214.1672	1224.4544	1243.6724	1248.6674	1262.4792	1279.283	1384.8589	1443.1548	1480.4833	1484.7563	1498.8152	1507.741	1524.2728	1545.3087	2942.3922	2963.9393	2992.5453	3004.5426	3043.8053	3048.5702	3059.7902	3091.6929	3109.2569	3110.4106	3113.7466	3125.0942
COCC1C2CC1C2	COC[C@H]1[C@H]2C[C@@H]1C2	
InChI=1S/C7H12O/c1-8-4-7-5-2-6(7)3-5/h5-7H,2-4H2,1H3	InChI=1S/C7H12O/c1-8-4-7-5-2-6(7)3-5/h5-7H,2-4H2,1H3/t5-,6+,7-
