17
gdb 42842	3.12413	1.79129	1.6389	2.7957	70.62	-0.2469	-0.0051	0.2418	877.8798	0.138672	-421.783851	-421.777664	-421.77672	-421.814166	26.24	
O	 0.0023989501	-0.0166129092	 0.1415333075	-0.321272
C	-0.0149119002	 1.1625768403	-0.0189126342	 0.437099
C	-1.0516607803	 2.3127952032	 0.0208501863	-0.034349
O	-0.0266396715	 2.9749993465	 0.8311250206	-0.282407
C	 0.9926683575	 2.3390362605	-0.0069047041	-0.03435
C	 0.9879969179	 3.0323620553	-1.4190813057	-0.056113
C	-0.0715135608	 4.1732134962	-1.3405265476	-0.202024
C	-1.103132514	 3.0055159074	-1.3906894411	-0.056112
C	-0.0603199222	 2.285312775	-2.3012701146	-0.243575
H	-2.0034646127	 2.2159416419	 0.5428831014	 0.101952
H	 1.9604692105	 2.2668472575	 0.4890581628	 0.101952
H	 1.9901359563	 3.2267669513	-1.802348277	 0.072997
H	-0.0683073645	 4.8358155121	-0.4778047348	 0.119667
H	-0.0914920527	 4.7475410005	-2.2685969665	 0.101676
H	-2.1199667122	 3.1740040038	-1.7465399004	 0.072996
H	-0.0791236288	 2.6693713923	-3.3235535301	 0.100745
H	-0.0466638124	 1.1923280654	-2.3288081024	 0.121119
161.2393	252.1961	451.4651	459.7892	503.284	521.8332	530.8542	620.9062	765.2767	799.2514	825.0618	838.4997	869.4863	873.0253	906.6529	907.5713	920.5587	1001.9069	1013.1459	1018.0811	1045.8925	1070.01	1100.7731	1107.2423	1128.8785	1178.568	1227.1785	1234.8409	1238.9723	1254.2618	1291.8087	1302.8396	1311.0741	1341.6098	1479.9822	1520.4243	1913.9209	3058.3657	3085.6649	3103.5117	3103.6363	3114.4757	3126.465	3129.8487	3159.8293
O=C1C2OC1C1CC2C1	O=C1[C@H]2O[C@@H]1[C@@H]1C[C@H]2C1	
InChI=1S/C7H8O2/c8-5-6-3-1-4(2-3)7(5)9-6/h3-4,6-7H,1-2H2	InChI=1S/C7H8O2/c8-5-6-3-1-4(2-3)7(5)9-6/h3-4,6-7H,1-2H2/t3-,4+,6-,7+
