22
gdb 82878	2.41979	1.92395	1.40732	1.0173	86.16	-0.1973	0.093	0.2904	1035.6028	0.195579	-367.163063	-367.155075	-367.154131	-367.194883	32.783	
C	 0.1625227501	 1.4441466002	-0.3184271255	-0.334818
N	 0.0927679292	 0.0219124102	-0.0236496461	-0.086646
C	-1.1130865084	-0.476392644	 0.7299382295	-0.067159
C	-0.8624064533	-1.9867495335	 0.5706398299	-0.195976
C	 0.448344397	-1.9546081519	 1.394152717	-0.06303
C	-0.0970208558	-1.5810029509	 2.7913992866	-0.279603
C	-0.4068792346	-0.2158690015	 2.1475201814	 0.349606
C	-0.7721938639	 0.9839918796	 2.9893063446	-0.515146
C	 0.8169694435	-0.4170176582	 1.1858966161	-0.041179
H	 1.1376699707	 1.663620948	-0.7680760774	 0.117357
H	-0.6044237104	 1.6930391529	-1.0598309978	 0.115804
H	 0.036240915	 2.1225146595	 0.5407071041	 0.096511
H	-2.0836165966	-0.0532910685	 0.4668079578	 0.060584
H	-1.6185575284	-2.6305738115	 1.0291955896	 0.085383
H	-0.7363193171	-2.2492334632	-0.4804388507	 0.101873
H	 1.1767954013	-2.7507146814	 1.2495899922	 0.063118
H	-0.9108826395	-2.1882544507	 3.2023367213	 0.085454
H	 0.6926447649	-1.4701926836	 3.5423699779	 0.090262
H	-0.0049965308	 1.1820039215	 3.7466471016	 0.114846
H	-0.90796339	 1.8956712928	 2.4026590025	 0.122676
H	-1.7140538262	 0.7969205339	 3.5209800281	 0.116262
H	 1.8380316234	-0.0766083798	 1.3641026173	 0.063819
157.9033	190.3745	224.6334	235.849	281.01	308.1159	421.3206	479.346	489.4664	604.3875	658.4175	729.6754	753.8576	820.9567	847.6318	882.7822	899.6981	926.6287	936.0609	963.2403	981.8479	994.5047	1024.2594	1059.8012	1081.9674	1117.0743	1124.8568	1154.0687	1161.7488	1188.7733	1190.6463	1206.2264	1214.0865	1238.5758	1262.7609	1263.9618	1305.0744	1322.667	1344.1646	1409.8533	1451.4849	1481.3461	1483.5475	1488.2017	1498.0502	1507.0743	1508.3318	2972.7222	3020.6807	3032.9898	3051.3876	3060.4083	3076.1907	3085.8219	3088.6532	3105.4499	3108.768	3114.2381	3124.4317	3131.2854
CN1C2CC3CC2(C)C13	CN1[C@H]2C[C@@H]3C[C@@]2(C)[C@H]13	
InChI=1S/C8H13N/c1-8-4-5-3-6(8)9(2)7(5)8/h5-7H,3-4H2,1-2H3	InChI=1S/C8H13N/c1-8-4-5-3-6(8)9(2)7(5)8/h5-7H,3-4H2,1-2H3/t5-,6+,7-,8-/m1/s1
