19
gdb 41740	3.67312	1.45695	1.24313	1.3396	73.82	-0.2229	0.081	0.304	1044.7006	0.162024	-423.017078	-423.009987	-423.009043	-423.048347	28.628	
C	 0.2455180897	 1.310779079	-0.4903326845	-0.224362
C	 1.4245368732	 1.9939040337	 0.2549853064	-0.226929
C	 2.1283177549	 0.8801038527	 1.0203877119	-0.173567
C	 2.4641939808	-0.3819136468	 0.245339389	 0.018333
O	 3.2345687591	-1.3544764989	 0.9161741956	-0.272075
C	 2.5553874881	-1.6630747413	 2.1244618575	 0.001915
O	 1.1928804778	-1.3179620783	 1.9646618668	-0.305112
C	 1.1693589899	-0.3143117205	 0.9894574687	 0.436219
C	-0.138902513	 0.080224137	 0.3625028279	-0.304555
H	-0.5953989375	 1.9908728359	-0.6444046116	 0.1037
H	 0.5709430413	 0.979903961	-1.4820468709	 0.109217
H	 2.0838798283	 2.5320961042	-0.4348235412	 0.101508
H	 1.0453084771	 2.7277910904	 0.9754163077	 0.106278
H	 2.7319214852	 1.1328055457	 1.8855310657	 0.092567
H	 2.6016277118	-0.4195812582	-0.8299779715	 0.104305
H	 2.6373754879	-2.7358577595	 2.3261890567	 0.119946
H	 2.9939108869	-1.0898206021	 2.9576962806	 0.094604
H	-0.8493770747	 0.3491854449	 1.1533572088	 0.11073
H	-0.5908617267	-0.7206188689	-0.2308361936	 0.107277
176.0829	195.8319	229.3117	257.6494	350.2341	402.5823	487.6502	613.6218	665.4671	724.9578	757.3936	833.6039	871.5515	887.2743	922.7493	944.343	959.4838	965.8301	1010.408	1027.3021	1038.7937	1085.5417	1107.2371	1134.4674	1156.5323	1170.1619	1182.311	1219.6151	1237.3487	1251.3031	1274.1949	1288.2174	1327.2783	1337.0656	1363.5751	1425.2399	1437.5686	1491.7072	1496.0625	1513.445	1546.9067	2962.4104	3033.5004	3037.3888	3049.8128	3071.2807	3073.1007	3083.6856	3106.0313	3166.2957	3168.7583
C1CC2C3OCOC23C1	C1C[C@@H]2[C@H]3OCO[C@@]23C1	
InChI=1S/C7H10O2/c1-2-5-6-7(5,3-1)9-4-8-6/h5-6H,1-4H2	InChI=1S/C7H10O2/c1-2-5-6-7(5,3-1)9-4-8-6/h5-6H,1-4H2/t5-,6-,7+/m1/s1
