17
gdb 35184	3.40688	1.19818	1.09379	2.1576	79.2	-0.2383	0.0467	0.285	1145.1015	0.134318	-384.595559	-384.587596	-384.586651	-384.628077	31.106	
C	-0.0349520227	-1.1605739892	-0.0887337923	-0.462601
C	-0.0175544665	 0.0415834849	-0.0388663853	 0.335604
C	 0.0154563938	 1.4726465278	 0.015362463	-0.261159
C	 0.5287572589	 2.1769153998	 1.2702155772	-0.360828
C	 1.3490022397	 2.1921434728	 0.0246112824	 0.357908
C	 2.7682501374	 1.6053834816	-0.1685337605	-0.343167
C	 3.0961481481	 2.8715215424	-0.9843815842	 0.036709
O	 2.1752844533	 2.9312191364	-2.077555679	-0.240738
C	 1.7368428456	 3.4077515886	-0.7973947973	-0.072805
H	-0.0563935828	-2.220887047	-0.1349446119	 0.195225
H	-0.7885043521	 1.9735044831	-0.5172524787	 0.115906
H	 0.0186806822	 3.0876103671	 1.5678998467	 0.119996
H	 0.8552270841	 1.548590179	 2.0915028868	 0.128425
H	 3.3273916636	 1.5349270235	 0.7681903606	 0.110924
H	 2.83754841	 0.6644288505	-0.718371317	 0.12709
H	 4.0449041741	 3.3814352884	-1.1003407012	 0.108211
H	 1.3650664232	 4.4244868001	-0.7384250591	 0.105299
90.7797	120.1469	176.4977	275.4949	313.528	388.5091	475.0025	517.0005	531.1487	572.2066	620.5082	651.5898	783.3527	809.072	844.1648	860.3307	870.6139	893.8657	949.8892	965.1456	972.6809	1017.748	1054.2037	1071.7081	1077.707	1120.5823	1153.7237	1186.4282	1222.5507	1232.0898	1268.2832	1319.304	1378.7539	1416.1043	1471.9161	1484.9039	2235.1991	3066.1854	3125.9574	3128.9663	3142.5625	3179.6854	3197.0528	3220.0626	3505.6231
C#CC1CC11CC2OC12	C#C[C@H]1C[C@]21C[C@H]1O[C@@H]21	
InChI=1S/C8H8O/c1-2-5-3-8(5)4-6-7(8)9-6/h1,5-7H,3-4H2	InChI=1S/C8H8O/c1-2-5-3-8(5)4-6-7(8)9-6/h1,5-7H,3-4H2/t5-,6+,7+,8+/m0/s1
