17
gdb 26450	4.27558	1.05829	0.85289	1.4645	79.83	-0.1989	0.0151	0.2139	1297.3664	0.137177	-418.027856	-418.01944	-418.018495	-418.061902	30.827	
C	-0.017807606	 1.4492315298	-0.0303608542	-0.355438
N	-0.0127671345	-0.0041201042	 0.0348106974	-0.163342
C	-0.0180235316	-0.6341585977	 1.2568858257	 0.090423
N	-0.0273756027	 0.0023269605	 2.3634000751	-0.497305
C	-0.0022266205	-0.7072157138	-1.1685963696	 0.316839
C	 0.0038865999	-0.1522384182	-2.4189519105	-0.112952
O	 0.0137559988	-1.1325728736	-3.3713528791	-0.147828
C	 0.0138773202	-2.314823628	-2.7199390025	 0.018775
C	 0.004425922	-2.1342531413	-1.3747700513	-0.29826
H	 0.8747902321	 1.8106120231	-0.5544026355	 0.128058
H	-0.9058854213	 1.8038157265	-0.5665627518	 0.128061
H	-0.0261707038	 1.8320957247	 0.9881075095	 0.17675
H	-0.0133198701	-1.7225532643	 1.1659871951	 0.099974
H	-0.0298341393	-0.651294793	 3.1418423233	 0.223078
H	 0.002622668	 0.8589358284	-2.7831331328	 0.135238
H	 0.0211619702	-3.1968380816	-3.3390141107	 0.139939
H	 0.0024885988	-2.9187816473	-0.6367992181	 0.11799
29.2827	109.7731	176.8494	199.2322	251.8676	336.0875	358.262	456.0332	474.7967	609.7839	639.8423	694.8744	755.1687	759.4872	784.4781	808.8346	887.1509	932.7381	1021.165	1029.3238	1073.6883	1099.1656	1132.6518	1160.2101	1215.9911	1238.5932	1265.9441	1361.8912	1367.6794	1425.5461	1428.3147	1454.4822	1499.0662	1513.5921	1547.6111	1652.8067	1712.8497	3021.8377	3073.8036	3099.1552	3174.7201	3264.851	3286.243	3302.4027	3525.6996
CN(C=N)C1=COC=C1	CN(C=N)c1cocc1	
InChI=1S/C6H8N2O/c1-8(5-7)6-2-3-9-4-6/h2-5,7H,1H3	InChI=1S/C6H8N2O/c1-8(5-7)6-2-3-9-4-6/h2-5,7H,1H3
