23
gdb 117175	3.66492	0.7469	0.67996	1.7814	83.47	-0.2612	0.0197	0.2809	1795.3941	0.202861	-425.479889	-425.46846	-425.467516	-425.518112	39.639	
C	-0.0985218756	 1.5071341142	-0.2462046126	-0.391187
C	-0.064021114	 0.0006406088	-0.0745041233	-0.042372
O	 0.6048563691	-0.5545192797	-1.2234341349	-0.252198
C	 0.7570938975	-1.8964185198	-1.2276464695	 0.446023
O	 0.3510854426	-2.6118653897	-0.3452238387	-0.363053
C	 1.5120994994	-2.3531348127	-2.4682872653	-0.092871
C	 2.9824400548	-1.8987164346	-2.3617563632	-0.399493
C	 1.3547583269	-3.8689639823	-2.6639587547	-0.161185
C	 1.9088918236	-4.3834578885	-3.9953880071	-0.397485
H	 0.9138038865	 1.9162006396	-0.3107452195	 0.128319
H	-0.6394947254	 1.7846900509	-1.155306358	 0.12906
H	-0.6023003492	 1.9676226334	 0.6088779654	 0.12263
H	 0.4756777409	-0.2976215701	 0.8298788016	 0.120918
H	-1.0694524481	-0.4274850162	-0.0087827614	 0.120462
H	 1.0618995385	-1.8262588558	-3.3197528281	 0.095037
H	 3.4822416316	-2.3985911194	-1.5247718016	 0.124472
H	 3.5303922664	-2.1408384679	-3.2757088397	 0.122055
H	 3.0445072005	-0.8195542253	-2.2040787229	 0.129243
H	 1.8376921317	-4.3854732319	-1.8269197459	 0.109853
H	 0.2912529959	-4.1203114689	-2.5904357039	 0.106205
H	 1.4408554879	-3.8738132194	-4.8456258784	 0.11215
H	 2.9906879244	-4.238921743	-4.0771753293	 0.117514
H	 1.714446504	-5.4546643919	-4.1051707189	 0.115905
26.0529	58.8897	67.0527	110.173	131.3884	212.331	223.0606	237.4958	261.6002	296.2061	324.8645	356.534	388.9009	473.4769	684.2231	754.8772	779.3216	807.5074	839.6077	876.5921	931.8001	972.5958	987.2733	1038.0206	1057.1821	1107.9609	1134.0123	1146.6145	1178.7908	1183.1079	1212.5012	1289.7259	1290.5052	1328.0646	1342.9212	1385.81	1399.1301	1405.2389	1415.4195	1423.292	1481.3892	1486.1046	1494.9202	1496.5109	1501.255	1507.8174	1511.9495	1520.3745	1811.3664	3024.6269	3031.5648	3041.4376	3045.2363	3045.6113	3050.2388	3073.8989	3087.2703	3099.8591	3106.1634	3113.8098	3119.884	3124.9806	3129.3711
CCOC(=O)C(C)CC	CCOC(=O)[C@@H](C)CC	
InChI=1S/C7H14O2/c1-4-6(3)7(8)9-5-2/h6H,4-5H2,1-3H3	InChI=1S/C7H14O2/c1-4-6(3)7(8)9-5-2/h6H,4-5H2,1-3H3/t6-/m0/s1
