20
gdb 13676	5.43014	0.80615	0.75398	2.928	76.91	-0.2463	-0.0185	0.2278	1517.1925	0.175122	-349.006213	-348.996896	-348.995952	-349.041367	32.831	
C	 0.0771345164	 1.5412728694	-0.2958864905	-0.405512
C	 0.074429523	 0.0445088788	-0.0707719473	-0.006016
C	 1.3646247283	-0.7381517773	 0.0081397694	-0.292565
C	 0.4896048289	-0.5992930878	 1.2337937755	 0.015447
C	 0.9553661011	 0.1908099981	 2.4396581056	-0.224633
C	 1.835978212	-0.6556843853	 3.3809470492	-0.261834
C	 2.3823907938	 0.1617088574	 4.5266830265	 0.156518
O	 2.2207476211	-0.0813867119	 5.6947759333	-0.237292
H	 0.936944325	 2.0277196394	 0.1735443745	 0.115152
H	 0.1216920403	 1.7690908206	-1.3665417277	 0.119327
H	-0.8291821115	 2.0092015531	 0.1047792519	 0.118281
H	-0.7422955713	-0.4644779535	-0.5770231177	 0.084779
H	 1.4337331793	-1.7004819072	-0.4871950719	 0.110524
H	 2.2886331781	-0.1662015665	-0.0088979989	 0.105366
H	-0.0767720858	-1.4887345167	 1.5016552969	 0.083747
H	 1.5205164286	 1.074000289	 2.1197975616	 0.100245
H	 0.0886608469	 0.565040918	 2.9996384618	 0.11204
H	 1.2849398087	-1.5082071195	 3.7888265054	 0.119453
H	 2.6902380982	-1.0429211358	 2.8071865965	 0.120871
H	 2.9691308486	 1.0567172177	 4.2067039057	 0.0661
51.9105	66.3189	91.39	126.8635	192.278	234.3463	297.2366	346.8628	428.2665	472.0943	543.6594	753.7788	771.9189	822.4007	847.8804	867.0497	908.1985	956.8075	987.6547	1031.5981	1052.9305	1077.0178	1100.0118	1112.6253	1151.1968	1169.0522	1198.8419	1220.9569	1249.4427	1263.0678	1315.8161	1353.7611	1394.84	1418.0775	1427.3167	1432.5846	1463.3652	1486.764	1493.6373	1499.1378	1505.9566	1836.0423	2839.6531	3014.0449	3024.8432	3031.2268	3061.7727	3088.2079	3098.2142	3103.8719	3120.5138	3123.6998	3136.9762	3205.7233
CC1CC1CCC=O	C[C@H]1C[C@H]1CCC=O	
InChI=1S/C7H12O/c1-6-5-7(6)3-2-4-8/h4,6-7H,2-3,5H2,1H3	InChI=1S/C7H12O/c1-6-5-7(6)3-2-4-8/h4,6-7H,2-3,5H2,1H3/t6-,7+/m0/s1
