18
gdb 76315	1.89453	1.83065	1.26983	4.9034	71.82	-0.2357	0.0243	0.26	1059.932	0.148771	-435.253745	-435.244485	-435.243541	-435.288035	34.102	
N	-0.0575439098	 1.5616749779	-0.0102735039	-0.50825
C	-0.0620102067	 0.1231927293	 0.0036440959	 0.018203
C	 0.3738820904	-0.6575171019	 1.2871037399	 0.1032
O	 0.2150094797	 0.1361129413	 2.4299274332	-0.437918
C	-0.8606093432	-1.6063333041	 1.1109702632	-0.019339
N	-1.5870975632	-1.8509881847	 2.3440241456	-0.531208
C	-1.4700386018	-0.5801798798	 0.0845683607	-0.215313
C	-2.5377501156	 0.2284817254	 0.6429642172	 0.302412
N	-3.4090639065	 0.8177454918	 1.1253122447	-0.346471
H	-0.2441530569	 1.8928003144	 0.9338008725	 0.251454
H	 0.8618372013	 1.9078816564	-0.2648667728	 0.232586
H	 0.4605696465	-0.2542335062	-0.8795722764	 0.084356
H	 1.366474171	-1.1272765214	 1.2630566765	 0.060673
H	-0.4028833178	-0.364031413	 2.9966140898	 0.292069
H	-0.5934110458	-2.5320544437	 0.5943004252	 0.084823
H	-2.535204122	-1.4920894982	 2.3132393171	 0.260731
H	-1.6173422588	-2.8311574631	 2.5907971935	 0.245382
H	-1.8227974908	-1.0160003003	-0.853376182	 0.122612
63.3663	82.8071	135.0773	170.492	234.3913	282.4572	296.8978	360.6001	407.7929	502.4313	550.3983	594.9455	644.056	669.9843	757.7291	788.552	795.1686	837.7	889.6974	924.0457	935.0674	1043.2544	1095.8974	1115.4018	1143.9827	1172.7966	1211.7434	1213.0979	1244.2532	1249.3082	1284.7804	1332.6039	1367.6801	1384.4543	1416.4798	1433.3889	1649.6817	1671.6063	2344.7002	3004.3748	3065.5443	3072.4182	3087.8216	3487.9496	3522.1538	3570.4369	3577.2009	3616.4266
NC1C(O)C(N)C1C#N	N[C@H]1[C@@H](O)[C@@H](N)[C@H]1C#N	
InChI=1S/C5H9N3O/c6-1-2-3(7)5(9)4(2)8/h2-5,9H,7-8H2	InChI=1S/C5H9N3O/c6-1-2-3(7)5(9)4(2)8/h2-5,9H,7-8H2/t2-,3+,4-,5+
