22
gdb 113547	2.93322	1.00995	0.90981	1.3887	83.2	-0.2378	0.0706	0.3084	1419.1354	0.193763	-404.317222	-404.307619	-404.306675	-404.35183	36.287	
C	-0.2755791901	 1.5051402958	 0.2048069175	-0.373819
C	 0.3236646072	 0.1318217728	-0.1178613159	-0.181004
C	 0.9634438983	-0.5108868578	 1.0910298927	-0.084588
N	 0.0461820647	-1.1602243159	 2.0540751856	-0.399628
C	 1.0035435381	-1.9758085843	 1.3198963417	 0.306312
C	 0.6943553537	-3.1193824782	 0.3468435542	-0.302522
C	 2.1463630347	-3.6330130222	 0.5817576743	-0.260626
C	 2.2224959334	-2.7414462843	 1.8561977081	 0.073663
O	 3.4014834884	-2.0502534543	 2.1831369472	-0.426117
H	 0.4930732038	 2.2020145201	 0.5578138303	 0.109404
H	-0.7484890947	 1.9496200187	-0.6761610565	 0.110277
H	-1.0325045702	 1.4145376571	 0.9896836566	 0.132
H	-0.460855554	-0.5321797116	-0.4962703312	 0.105775
H	 1.073182004	 0.2264452784	-0.9151663894	 0.088383
H	 1.7936103958	 0.0500428118	 1.5238006852	 0.080249
H	 0.3707407781	-1.0162114118	 3.008468456	 0.230437
H	-0.0634873439	-3.7992695652	 0.745739567	 0.112529
H	 0.4210895257	-2.8514362236	-0.6756756929	 0.106712
H	 2.2974373269	-4.7062718503	 0.7099069303	 0.104762
H	 2.8341493043	-3.2691930258	-0.1886231096	 0.096142
H	 1.9621546176	-3.3155385543	 2.7529341769	 0.09401
H	 3.6755697181	-1.5553240354	 1.4031337017	 0.27765
68.6495	99.3224	141.0341	145.4506	218.9248	252.509	287.3157	341.6556	409.6801	449.2992	496.7045	538.6924	572.6529	714.3816	769.0218	787.825	828.4926	876.1416	919.1544	937.6055	964.0031	980.1785	1023.0647	1057.7213	1069.0378	1093.5211	1101.6759	1113.8426	1146.2612	1183.3448	1222.0541	1228.6728	1242.8919	1270.6681	1291.4821	1301.8711	1314.5143	1335.4205	1367.5452	1406.95	1430.8333	1475.2587	1475.9882	1482.5785	1497.2997	1499.8504	1509.6542	3019.4604	3032.866	3046.2169	3055.1674	3064.1521	3067.6773	3092.6445	3101.9098	3111.4822	3113.8933	3124.3761	3479.3759	3802.3079
CCC1NC11CCC1O	CC[C@H]1N[C@]21CC[C@H]2O	
InChI=1S/C7H13NO/c1-2-5-7(8-5)4-3-6(7)9/h5-6,8-9H,2-4H2,1H3	InChI=1S/C7H13NO/c1-2-5-7(8-5)4-3-6(7)9/h5-6,8-9H,2-4H2,1H3/t5-,6-,7+/m1/s1
