21
gdb 94836	3.63804	1.19224	1.04907	0.1804	79.43	-0.2335	0.0943	0.3278	1229.3036	0.182931	-424.215754	-424.207312	-424.206368	-424.24841	33.418	
C	 0.0587608855	 1.5151189098	 0.0355296892	-0.407833
C	 0.0205725945	-0.0035729814	-0.0024372035	 0.131124
C	 0.7056453542	-0.585145333	-1.2408016173	-0.096135
O	 0.7180596467	-2.0078104265	-1.1943070606	-0.295308
C	 1.3445003901	-2.4666662196	-0.022576334	 0.437479
C	 1.8504832511	-3.8685048586	-0.0747741995	-0.336458
C	 2.8322348828	-2.7098193733	-0.0829267486	-0.319885
C	 0.6958969435	-1.9007942961	 1.2175964955	-0.150279
O	 0.6736586555	-0.4812779973	 1.1711230011	-0.265
H	 1.0924329309	 1.874126895	 0.0188400311	 0.125317
H	-0.4724817706	 1.9376655736	-0.8227957547	 0.115967
H	-0.4135960129	 1.880736408	 0.9508403135	 0.12846
H	-1.0256387607	-0.3570550622	 0.0024490386	 0.067829
H	 0.1660046782	-0.3093644016	-2.1517111827	 0.104152
H	 1.7343015723	-0.196405477	-1.3032947943	 0.09168
H	 1.7727332161	-4.4813332584	 0.8172151391	 0.113489
H	 1.6979834965	-4.3993924943	-1.007522169	 0.126033
H	 3.3270618481	-2.4901330021	-1.0221095728	 0.119268
H	 3.4292984614	-2.526660093	 0.8039437226	 0.115128
H	-0.3326103878	-2.2910014207	 1.3005206449	 0.090863
H	 1.2489847848	-2.1797830213	 2.1188622314	 0.104108
94.4049	192.0665	220.2029	232.5909	254.9565	316.6422	359.6727	400.5002	474.3307	496.5309	502.5508	624.2129	748.3356	774.6936	828.5448	874.5142	910.2159	931.2609	935.9365	955.0858	998.2674	1046.5398	1063.5649	1069.1973	1081.6335	1107.078	1140.3049	1157.7159	1163.8745	1188.0771	1258.8433	1279.1508	1306.499	1341.3833	1345.8352	1385.3144	1411.9656	1417.3969	1418.4793	1453.4347	1479.4028	1484.0618	1487.0529	1501.3374	1502.8074	2949.7345	2965.7787	2986.882	3043.3359	3087.8675	3088.6948	3115.9268	3123.7082	3133.394	3136.4503	3217.8333	3231.2689
CC1COC2(CC2)CO1	C[C@H]1COC2(CC2)CO1	
InChI=1S/C7H12O2/c1-6-4-9-7(2-3-7)5-8-6/h6H,2-5H2,1H3	InChI=1S/C7H12O2/c1-6-4-9-7(2-3-7)5-8-6/h6H,2-5H2,1H3/t6-/m0/s1
