15
gdb 67817	3.09349	1.92391	1.64385	1.6952	63.72	-0.2312	-0.0006	0.2305	836.7174	0.113679	-457.738698	-457.732395	-457.731451	-457.768881	26.69	
O	-0.0653629474	 1.3592837589	-0.0627102019	-0.46936
C	 0.0531894973	-0.0282293313	-0.0634376238	 0.25486
C	 1.0977494384	-0.6912095468	-0.8512450391	-0.142256
C	 1.0832400993	-2.0315025366	-0.8314078794	-0.075223
C	-0.0237596489	-2.6056595601	 0.0000923142	 0.104931
O	-1.2770117114	-2.0821366752	-0.4769928367	-0.255946
C	-1.2930404771	-0.7800882877	 0.0256454741	 0.015801
C	-0.3989948836	-0.7854453233	 1.2199482272	-0.03226
O	 0.0868789212	-2.0891170033	 1.3403158549	-0.256802
H	 0.6329709754	 1.7219748275	 0.4942520123	 0.289322
H	 1.8095776028	-0.0903501584	-1.4078827397	 0.106424
H	 1.7817960638	-2.666287852	-1.3606698481	 0.105295
H	-0.0841895708	-3.6916996611	 0.0414871759	 0.100514
H	-2.2282726748	-0.2520898351	-0.0918857423	 0.131761
H	-0.5557072242	-0.2662366554	 2.1550308423	 0.122939
256.4395	317.329	344.5963	397.1018	413.6715	477.6784	531.4016	646.7878	668.9497	688.5586	744.5175	749.807	843.5123	849.9508	881.7033	888.2304	936.1028	945.616	980.1596	1007.3965	1064.0203	1088.2608	1116.4989	1148.254	1185.2643	1222.9139	1266.1248	1310.0264	1332.0425	1342.1157	1391.7498	1419.3047	1659.6504	3143.827	3180.4479	3218.0712	3220.3472	3232.7095	3788.3081
OC12C=CC3OC1C2O3	O[C@]12C=C[C@@H]3O[C@H]1[C@H]2O3	
InChI=1S/C6H6O3/c7-6-2-1-3-8-4(6)5(6)9-3/h1-5,7H	InChI=1S/C6H6O3/c7-6-2-1-3-8-4(6)5(6)9-3/h1-5,7H/t3-,4+,5-,6-
