18
gdb 84808	2.65429	1.59947	1.22214	2.6643	71.31	-0.2484	0.0213	0.2696	1054.9826	0.148258	-439.074203	-439.066088	-439.065144	-439.107406	30.14	
C	 0.1988128924	 1.574699057	-0.1358154229	-0.40362
C	 0.0847881519	 0.056429813	-0.0057751493	 0.013289
N	 0.7489052752	-0.6269240805	-1.1352493016	-0.265272
C	 1.4963053095	-1.5084062931	-0.6259126339	 0.121279
O	 1.5497379788	-1.6583890529	 0.7227390765	-0.230058
C	 0.7414559508	-0.5875767542	 1.2672560772	 0.03995
C	 1.6101048883	 0.3255819605	 2.1053478262	 0.065525
C	 2.9065331658	-0.0973572049	 2.6475124778	-0.178921
O	 2.8246971072	 0.7824582571	 1.5199613973	-0.230062
H	 1.2423085148	 1.8954918718	-0.1091403903	 0.152258
H	-0.2341234439	 1.885394969	-1.0897921328	 0.129836
H	-0.3462468715	 2.0825708233	 0.6667421591	 0.107972
H	-0.9777563626	-0.2147716075	-0.0383520825	 0.091559
H	 2.1244226827	-2.2020825363	-1.1735167519	 0.141645
H	-0.0107202967	-1.0418523417	 1.9209888161	 0.096912
H	 1.050182906	 1.0899420719	 2.6471087148	 0.099191
H	 3.2762057382	 0.3570141664	 3.565305148	 0.116056
H	 3.271902563	-1.095859099	 2.4246468524	 0.13246
57.4138	105.3434	191.5913	226.4391	250.7247	321.001	360.5166	459.709	551.5014	619.9846	729.8373	786.1395	839.4888	857.8419	897.4776	918.7514	948.7711	959.9892	990.7513	1059.3792	1085.5454	1099.709	1119.0507	1126.2872	1151.2711	1168.9625	1170.8499	1286.1141	1290.1026	1309.8367	1336.9277	1358.1311	1383.0371	1409.3497	1432.3963	1491.5711	1501.6487	1521.1906	1717.8454	3018.9279	3044.6953	3054.0675	3094.1894	3101.9046	3116.0996	3139.6006	3197.8743	3217.9288
CC1N=COC1C1CO1	C[C@H]1N=CO[C@H]1[C@H]1CO1	
InChI=1S/C6H9NO2/c1-4-6(5-2-8-5)9-3-7-4/h3-6H,2H2,1H3	InChI=1S/C6H9NO2/c1-4-6(5-2-8-5)9-3-7-4/h3-6H,2H2,1H3/t4-,5-,6-/m1/s1
