18
gdb 72838	2.58886	1.51084	1.31896	3.7791	71.1	-0.2216	-0.0191	0.2025	1035.7596	0.148204	-439.084364	-439.076257	-439.075313	-439.117042	31.308	
O	 0.093640651	 1.4178288201	-0.2674416931	-0.477441
C	 0.0456430038	 0.0386052561	-0.0001111839	 0.393838
C	 0.2947421489	-0.906800492	-1.2098288851	-0.220722
N	-0.9505721389	-1.6371792904	-0.8688265722	-0.326841
C	-1.3872897338	-0.554139652	 0.0599817551	-0.146966
C	-1.571758808	-1.1355817069	 1.4617803334	 0.438439
O	-2.6131084114	-1.320496561	 2.0344681261	-0.319109
C	-0.1650256259	-1.4238950028	 1.9992761243	-0.327308
C	 0.7292166779	-0.3562692589	 1.3348096176	-0.300067
H	 1.0083295344	 1.711307123	-0.1896880422	 0.279987
H	 0.253155468	-0.342296487	-2.1493071523	 0.103014
H	 1.1972970991	-1.5296742248	-1.1987963729	 0.096439
H	-1.5841931516	-1.810797907	-1.6391248356	 0.231176
H	-2.2049389554	 0.0885058936	-0.2736595303	 0.090018
H	-0.1479820239	-1.4093500331	 3.0901435762	 0.125249
H	 0.1099887447	-2.432381725	 1.6708825575	 0.144647
H	 1.7613890336	-0.6904059912	 1.1909877042	 0.101802
H	 0.7508686777	 0.5416926793	 1.9617280933	 0.113845
81.2908	121.9499	216.3952	238.9631	303.7295	359.7552	394.9079	461.3267	516.5268	565.1347	606.1091	660.4571	694.9931	781.2473	850.924	888.7345	933.0967	962.2328	987.6147	992.6837	1024.1098	1054.3124	1099.6615	1108.3461	1149.6546	1183.4126	1212.4211	1224.4476	1243.1262	1271.3669	1300.6829	1323.6755	1324.9037	1371.7926	1397.1928	1456.2991	1491.2108	1511.6157	1853.7295	3012.7722	3042.2216	3057.07	3062.0358	3089.3728	3093.3012	3126.5585	3553.7622	3796.8464
OC12CNC1C(=O)CC2	O[C@]12CN[C@H]1C(=O)CC2	
InChI=1S/C6H9NO2/c8-4-1-2-6(9)3-7-5(4)6/h5,7,9H,1-3H2	InChI=1S/C6H9NO2/c8-4-1-2-6(9)3-7-5(4)6/h5,7,9H,1-3H2/t5-,6+/m0/s1
