18
gdb 72251	2.38059	1.78033	1.4947	1.73	71.53	-0.2138	0.0668	0.2806	977.5928	0.147873	-439.02623	-439.01831	-439.017366	-439.058151	31.179	
C	-0.0778854503	 1.4918717537	-0.0218940845	-0.514687
C	-0.0430911366	-0.0021598066	-0.0421371446	 0.256182
N	 0.8834718226	-0.7598236624	-0.9153996966	-0.352195
C	-0.0415117378	-1.954037925	-0.7973029046	-0.131197
C	 0.5204307442	-2.8346781193	 0.3105046807	-0.057323
O	 0.54354772	-1.9747865969	 1.4624698021	-0.268111
C	-0.3186916375	-0.8983546576	 1.1800164729	-0.01033
C	-1.1153777139	-1.0814479044	-0.0668799144	 0.261433
O	-2.4816831261	-1.0550282125	-0.2544477921	-0.462307
H	 0.892447952	 1.8961640497	 0.2865923646	 0.136281
H	-0.3167997052	 1.8975894279	-1.0123156598	 0.120757
H	-0.8383561412	 1.8541553637	 0.6761192455	 0.129002
H	 0.7870723174	-0.3828020765	-1.8577017053	 0.21526
H	-0.2990144223	-2.4505277137	-1.7318695331	 0.084362
H	-0.1221978878	-3.7102330203	 0.4969351432	 0.083901
H	 1.5420983576	-3.1672179757	 0.1095751295	 0.118188
H	-0.7403267944	-0.4249200649	 2.0599239875	 0.103214
H	-2.8977837105	-1.6075205193	 0.4173541691	 0.287568
160.8084	187.4007	218.8469	249.3773	270.3574	319.11	336.3072	444.3542	543.9673	580.6361	625.9722	726.5088	764.6844	778.7738	863.8033	883.2951	911.5018	936.9948	966.5601	994.8807	1029.9521	1049.9796	1083.583	1111.1862	1127.0575	1180.1746	1185.673	1231.2038	1256.3084	1279.8166	1308.1367	1322.967	1353.8018	1387.0259	1412.3487	1479.436	1486.5487	1499.6182	1516.1688	2976.4529	3024.8377	3085.3771	3095.2328	3109.7554	3131.8727	3183.8361	3456.2903	3780.0806
CC12NC3COC1C23O	C[C@@]12N[C@H]3CO[C@@H]1[C@@]23O	
InChI=1S/C6H9NO2/c1-5-4-6(5,8)3(7-5)2-9-4/h3-4,7-8H,2H2,1H3	InChI=1S/C6H9NO2/c1-5-4-6(5,8)3(7-5)2-9-4/h3-4,7-8H,2H2,1H3/t3-,4-,5+,6+/m0/s1
