15
gdb 67581	2.98661	2.03567	1.50302	3.2929	62.56	-0.2363	0.0564	0.2927	850.8027	0.112226	-457.653164	-457.646643	-457.645699	-457.683748	26.709	
O	-0.0468988212	 1.3792794518	 0.1016985319	-0.473524
C	 0.0346968593	 0.0021845312	 0.0541129082	 0.393578
C	 0.9500183755	-0.7608407545	 1.008115214	-0.076026
O	 0.2427066719	-1.5879709261	 1.9486207974	-0.252793
C	 0.6457439403	-2.154506788	 0.6858218791	 0.016129
C	-0.401139832	-2.0149017423	-0.4055964541	-0.092852
C	-1.2959713546	-0.7866034643	-0.0635894355	 0.029974
O	-1.4266361336	-0.4496266771	-1.4906146357	-0.31754
C	-0.0219540524	-0.8036083127	-1.3242566849	-0.025364
H	 0.8326569549	 1.7526383786	-0.0175136743	 0.288005
H	 1.9188709872	-0.3844058144	 1.3233873977	 0.102141
H	 1.3597971648	-2.9696056715	 0.7307248472	 0.108776
H	-0.8742155405	-2.8795889443	-0.8636712831	 0.094225
H	-2.1811325002	-0.7297033031	 0.5662494619	 0.110659
H	 0.6239781106	-0.7621668932	-2.2030062399	 0.094613
179.447	259.3227	285.7826	326.864	419.8149	499.3589	547.8287	678.7109	711.7259	721.2108	785.253	810.6588	857.9772	875.6963	888.5862	917.9528	934.0661	982.4711	983.1921	1044.8086	1052.1085	1091.3784	1138.6616	1149.3342	1162.3439	1194.1434	1234.7277	1242.1758	1285.2245	1306.9388	1331.6077	1366.1513	1433.4863	3104.9095	3147.533	3156.1915	3161.3932	3179.8106	3812.5686
OC12C3OC3C3C1OC23	O[C@@]12[C@H]3O[C@H]3[C@H]3[C@@H]1O[C@@H]23	
InChI=1S/C6H6O3/c7-6-3-1(4(6)9-3)2-5(6)8-2/h1-5,7H	InChI=1S/C6H6O3/c7-6-3-1(4(6)9-3)2-5(6)8-2/h1-5,7H/t1-,2-,3-,4+,5-,6-/m0/s1
