12
gdb 131246	5.6515	1.33388	1.07917	7.5856	61.55	-0.2325	0.0004	0.2329	989.7822	0.079668	-464.963559	-464.956869	-464.955925	-464.994492	25.299	
O	-0.1260624028	 1.3116117778	 0.0114174796	-0.41544
C	 0.0667811699	-0.0174133007	 0.0026273799	 0.411361
C	 1.1865080573	-0.7979282709	-0.0084999033	-0.284295
N	 0.6953300196	-2.1082369256	-0.0129613835	 0.0503
N	 1.1220472863	-3.3968516597	-0.0227204872	-0.175238
N	 0.0288125386	-4.1079410314	-0.0206555871	-0.106677
N	-1.107183246	-3.3560165035	-0.0091492359	-0.35743
C	-0.6520398054	-2.1178968293	-0.0049067709	 0.545198
N	-1.0691147501	-0.8135697437	 0.004973035	-0.44807
H	 0.7252516699	 1.7620339638	 0.0080698727	 0.323173
H	 2.2318232911	-0.5515497346	-0.0133497138	 0.160369
H	-2.0166115884	-0.4789677722	 0.0128443946	 0.296748
148.3654	241.1461	299.9513	331.795	336.1907	373.354	515.2647	582.0651	620.7778	665.7068	697.3812	764.0628	818.5841	863.0004	1005.7778	1020.8428	1098.9081	1128.8978	1163.5019	1211.6747	1289.3514	1297.438	1379.3113	1472.7992	1507.6326	1632.7969	1663.2555	3308.9859	3694.3173	3837.0229
OC1=CN2N=NN=C2N1	Oc1cn2nnnc2[nH]1	
InChI=1S/C3H3N5O/c9-2-1-8-3(4-2)5-6-7-8/h1,9H,(H,4,5,7)	InChI=1S/C3H3N5O/c9-2-1-8-3(4-2)5-6-7-8/h1,9H,(H,4,5,7)
