21
gdb 100841	2.95915	0.80874	0.73455	4.3559	76.68	-0.2387	-0.0147	0.224	1620.1257	0.17847	-461.362699	-461.351655	-461.350711	-461.399866	38.391	
C	 0.1615978399	 1.3304156225	 0.2671371816	-0.237993
O	 0.0488498011	-0.059225104	 0.0539620195	-0.268609
C	 0.6046108986	-0.5461937582	-1.1664687048	 0.116016
C	 2.1321963393	-0.5911876489	-1.1292173445	-0.412118
C	-0.0072635247	-1.9493594337	-1.3321049414	 0.111492
O	 0.2606451847	-2.7353096864	-0.1802761224	-0.440074
C	-1.5202832581	-1.8784088699	-1.6196591342	-0.29715
C	-2.1459333835	-3.2446516256	-1.7879116718	 0.149652
O	-2.8928149775	-3.5428410916	-2.6864353826	-0.247417
H	 1.2035904932	 1.6521329819	 0.3983510969	 0.115988
H	-0.2772732585	 1.9009073901	-0.5649850327	 0.111925
H	-0.3904628006	 1.5600162006	 1.1817163929	 0.132582
H	 0.2690407878	 0.0926150612	-1.9991924721	 0.071015
H	 2.5220988611	-0.9310288177	-2.0939633956	 0.121501
H	 2.5599444252	 0.3948692572	-0.9297745355	 0.116916
H	 2.4669166723	-1.287075123	-0.3560439278	 0.137749
H	 0.497462447	-2.4516825807	-2.1655787658	 0.094021
H	 0.0587404758	-2.1673759802	 0.5751747284	 0.291656
H	-1.997960086	-1.3828812163	-0.7633337132	 0.126699
H	-1.7309756942	-1.2863502303	-2.5158056408	 0.112827
H	-1.8638247729	-3.9780500071	-1.0032316942	 0.093323
52.98	68.3501	83.0641	101.6852	153.6254	198.8484	217.9672	232.167	284.3287	325.3147	358.4075	440.1122	464.7761	486.2327	552.3878	674.5705	796.0714	831.103	881.3231	959.7779	997.4814	1031.626	1063.0933	1094.6179	1123.328	1141.6424	1164.2948	1182.25	1198.2136	1214.2013	1270.289	1313.8191	1338.773	1371.496	1381.5697	1403.2356	1421.4615	1433.4164	1459.3041	1478.7397	1483.2928	1494.0027	1503.2095	1512.4067	1827.0024	2915.7536	2976.2877	2989.7433	3025.9245	3042.277	3046.5233	3051.2834	3095.084	3113.6668	3116.371	3132.7098	3767.882
COC(C)C(O)CC=O	CO[C@@H](C)[C@@H](O)CC=O	
InChI=1S/C6H12O3/c1-5(9-2)6(8)3-4-7/h4-6,8H,3H2,1-2H3	InChI=1S/C6H12O3/c1-5(9-2)6(8)3-4-7/h4-6,8H,3H2,1-2H3/t5-,6-/m0/s1
