14
gdb 7624	4.96594	1.39126	1.21342	2.1865	59.34	-0.2542	0.0122	0.2665	959.7794	0.107395	-415.891622	-415.884055	-415.883111	-415.924184	27.403	
N	 0.4911211066	-0.0898817962	 0.8414203835	-0.517605
C	-0.2102227685	 0.5823324204	-0.1030921925	 0.365572
O	 0.0260060672	 1.7125143241	-0.4818104889	-0.36336
C	-1.3639305483	-0.1993778667	-0.7173711486	 0.032052
C	-1.1231441499	-0.7763311546	-2.1308455948	-0.361913
C	-1.32076323	-2.1131374312	-1.4492117726	 0.438989
N	-1.3249254616	-3.3079958183	-1.8174119466	-0.527355
O	-1.5254638402	-1.558830205	-0.1893010363	-0.277185
H	 1.2537945519	 0.3745609837	 1.305684214	 0.267989
H	 0.2060211603	-1.0108684438	 1.1281892232	 0.275602
H	-2.2861090064	 0.3731180345	-0.5989718063	 0.129131
H	-1.8743793962	-0.5282202567	-2.8809443973	 0.149817
H	-0.1270696941	-0.608361026	-2.5422793247	 0.156194
H	-1.5121555508	-3.9434411841	-1.0402397722	 0.232073
52.4957	85.7565	210.5595	293.9317	316.3833	407.2565	478.0641	495.4646	534.9908	619.8129	718.3043	759.0455	790.7606	870.3872	937.2765	960.007	1000.4309	1018.9716	1041.7054	1092.7796	1120.3472	1206.7058	1231.6365	1295.0556	1331.303	1386.9503	1467.5582	1600.8681	1807.3225	1835.4292	3097.4546	3101.1089	3153.6856	3481.266	3600.6224	3739.4366
NC(=O)C1CC(=N)O1	NC(=O)[C@H]1C[C]([NH])O1	
InChI=1S/C4H6N2O2/c5-3-1-2(8-3)4(6)7/h2,5H,1H2,(H2,6,7)	InChI=1S/C4H6N2O2/c5-3-1-2(8-3)4(6)7/h2,5H,1H2,(H2,6,7)/t2-/m1/s1
