17
gdb 88890	3.21993	0.94713	0.79038	5.8879	78.07	-0.2275	-0.0284	0.1991	1426.6973	0.134605	-455.141822	-455.132747	-455.131802	-455.176622	32.677	
O	-0.0334743289	 1.426638759	 0.4322706095	-0.434637
C	 0.0631680718	 0.079216757	 0.1189196893	 0.139243
C	-0.409363978	-0.975444504	 1.0774386535	-0.341803
C	-1.2116098637	-0.6908524133	-0.1925158074	 0.001348
N	-2.3742839287	 0.0941792518	-0.0247511395	-0.184744
C	-3.4161952468	-0.1472959611	-0.6945172598	 0.081996
N	-4.5728354853	 0.631649634	-0.6278976947	-0.324364
C	-4.7529699438	 1.8503742807	 0.0043208368	 0.166392
O	-3.9324726709	 2.4587255238	 0.6395590919	-0.268708
H	-0.9792291233	 1.6233158067	 0.5207621548	 0.303342
H	 0.939284456	-0.1347878099	-0.4859522176	 0.10015
H	 0.1203699837	-1.9206874517	 1.1279147904	 0.112596
H	-0.8513764818	-0.6365980819	 2.0073597603	 0.129247
H	-1.2073770357	-1.4408225162	-0.9856976416	 0.076119
H	-3.5215680893	-0.987131582	-1.3938076581	 0.099584
H	-5.3625945874	 0.2916810467	-1.1547094501	 0.259671
H	-5.788361268	 2.2123529904	-0.1583863877	 0.08457
49.6335	74.8464	120.3027	187.0146	216.8149	285.6189	328.3854	386.5464	459.1214	474.9229	516.0351	584.9971	633.3357	773.0387	790.1843	852.0258	922.7443	963.2672	996.0901	1008.133	1018.1817	1025.4508	1051.1427	1108.8497	1129.071	1180.4787	1217.5083	1225.0415	1349.268	1357.8468	1423.3658	1433.7879	1452.4106	1476.6225	1528.901	1759.3235	1837.6241	2928.6851	3028.2522	3075.7404	3134.8887	3154.6026	3232.4062	3630.4477	3701.5959
OC1CC1N=CNC=O	O[C@H]1C[C@H]1N=CNC=O	
InChI=1S/C5H8N2O2/c8-3-6-2-7-4-1-5(4)9/h2-5,9H,1H2,(H,6,7,8)	InChI=1S/C5H8N2O2/c8-3-6-2-7-4-1-5(4)9/h2-5,9H,1H2,(H,6,7,8)/t4-,5+/m1/s1
