22
gdb 87139	2.71949	1.25789	1.09331	2.2919	82.45	-0.2305	0.0629	0.2934	1242.0882	0.19263	-404.311386	-404.301521	-404.300577	-404.345946	38.023	
C	-0.21062109	 1.5832484278	 0.0891468824	-0.405352
C	-0.0642627119	 0.0801483653	 0.0128953132	-0.028084
C	 1.2676956423	-0.5588969103	-0.3340917087	-0.363115
C	 0.7035327805	-0.6897581029	 1.0619456988	 0.293624
O	 1.2884901275	 0.1247819512	 2.0530763841	-0.460157
C	 0.1859876704	-2.0106543523	 1.6005495258	 0.312157
C	-0.4820077934	-2.9582071885	 0.6243558794	-0.476727
C	 0.8767433201	-2.5980174711	 2.7813784584	-0.282538
N	-0.4533281546	-1.9752429981	 2.9303512897	-0.356778
H	 0.6632641382	 2.0402235327	 0.5577203565	 0.126694
H	-0.3321245213	 2.0115762148	-0.9116826683	 0.112779
H	-1.0885103097	 1.8631362052	 0.6813443248	 0.119502
H	-0.9340070229	-0.4309713616	-0.3882130501	 0.089828
H	 1.2845663554	-1.4225602909	-0.9887858217	 0.113763
H	 2.1178599441	 0.1076745204	-0.4446934335	 0.108065
H	 2.2092722565	-0.1389928029	 2.1496565967	 0.288063
H	 0.210292939	-3.2936532697	-0.1545982814	 0.115171
H	-0.8392653749	-3.8375614345	 1.1645547239	 0.131002
H	-1.3503011589	-2.4999017445	 0.1408313641	 0.124581
H	 0.8989615491	-3.6777118546	 2.9052592242	 0.109899
H	 1.7309535772	-2.0798070846	 3.206421177	 0.090423
H	-0.3169689429	-1.0445951309	 3.3215986248	 0.2372
35.9002	150.2814	179.7958	206.9689	211.5277	291.4961	315.2401	328.5859	366.3084	380.9863	408.4854	457.109	482.8286	558.4335	628.9828	791.9843	815.1036	835.1714	886.8681	907.0822	922.6679	940.5601	985.6473	1016.9195	1031.4756	1039.2219	1084.0228	1097.232	1105.6196	1127.56	1136.557	1186.8478	1216.5083	1255.9947	1284.6337	1328.8101	1357.7124	1359.3388	1403.6659	1420.321	1421.4588	1478.0688	1491.2494	1493.5722	1499.7079	1502.286	1507.5415	3035.3009	3040.9858	3092.0394	3103.5937	3108.3259	3125.5507	3126.0592	3127.937	3156.6915	3191.0217	3215.875	3486.6845	3810.223
CC1CC1(O)C1(C)CN1	C[C@H]1C[C@]1(O)[C@@]1(C)CN1	
InChI=1S/C7H13NO/c1-5-3-7(5,9)6(2)4-8-6/h5,8-9H,3-4H2,1-2H3	InChI=1S/C7H13NO/c1-5-3-7(5,9)6(2)4-8-6/h5,8-9H,3-4H2,1-2H3/t5-,6+,7+/m0/s1
