18
gdb 56866	3.37249	0.95569	0.77492	3.3352	76.87	-0.2547	-0.0325	0.2222	1417.969	0.14592	-401.977288	-401.968125	-401.967181	-402.011989	33.234	
C	 0.0723586043	 1.4864908387	-0.137575577	-0.397862
C	-0.0132301005	-0.0421588899	 0.0334363322	-0.165173
C	 0.7438498471	-0.4722748841	 1.2155528956	 0.276642
N	 1.3272063906	-0.8099787589	 2.154514426	-0.322085
C	-1.4635892892	-0.5425745656	 0.1253957431	 0.03374
C	-2.320620826	-0.4282930153	-1.1758148387	-0.37738
C	-2.7101487156	-1.9054498541	-0.9823760035	 0.406879
O	-3.5334272355	-2.6133478782	-1.480757144	-0.280714
C	-1.6883387679	-2.0873433376	 0.1510159088	-0.36972
H	 1.1107677164	 1.8142397333	-0.2257955439	 0.141761
H	-0.4645471639	 1.7893822623	-1.0405040159	 0.131861
H	-0.3758197	 1.9971107747	 0.7193327872	 0.140443
H	 0.4580185422	-0.520690194	-0.8364097951	 0.123878
H	-1.9574436972	-0.0573139827	 0.97125821	 0.101358
H	-3.1437547345	 0.2897495813	-1.1896980416	 0.137855
H	-1.7217480427	-0.2864491744	-2.0834799701	 0.132715
H	-0.8135677587	-2.6615899065	-0.1753407536	 0.140454
H	-2.0641815886	-2.5336863091	 1.0742090904	 0.14535
51.2854	75.0299	123.7126	207.2824	230.2702	248.1766	344.6839	359.1763	419.1033	481.4333	511.4258	576.3136	662.4524	681.854	753.7569	847.1225	911.8268	935.7696	979.5561	997.1897	1022.8955	1079.0864	1100.353	1116.5908	1146.5388	1196.4391	1211.4687	1239.4848	1266.044	1293.3346	1331.1115	1377.1965	1412.7873	1427.3312	1447.5009	1493.7939	1499.156	1900.7396	2356.1462	3016.4422	3045.4949	3049.5252	3053.552	3077.3433	3116.0132	3120.6878	3125.7645	3131.0322
CC(C#N)C1CC(=O)C1	C[C@@H](C#N)C1CC(=O)C1	
InChI=1S/C7H9NO/c1-5(4-8)6-2-7(9)3-6/h5-6H,2-3H2,1H3	InChI=1S/C7H9NO/c1-5(4-8)6-2-7(9)3-6/h5-6H,2-3H2,1H3/t5-/m0/s1
