18
gdb 93985	2.92862	1.3391	0.95868	5.8973	74.34	-0.2455	-0.0302	0.2152	1213.8114	0.147815	-439.157427	-439.148673	-439.147729	-439.191218	31.592	
C	-0.1484361096	 1.581652433	-0.0581295706	-0.402397
C	 0.0837697785	 0.0744795665	-0.0299186285	-0.106918
C	 0.9006806908	-0.523218686	-1.1850903158	-0.234839
C	 1.4830457182	-1.812903488	-0.586431393	-0.187664
N	 1.6480241741	-1.4823152873	 0.8347062321	-0.131425
C	 2.4726573841	-2.2335010235	 1.6650355135	 0.157073
O	 2.6445986563	-2.0654793639	 2.8414127561	-0.266124
C	 0.85213685	-0.3785225529	 1.2186255248	 0.438211
O	 0.7901013825	 0.1034252997	 2.3163288321	-0.327992
H	 0.7987122992	 2.1209695085	-0.1628196029	 0.123903
H	-0.7960462543	 1.8637505521	-0.893181025	 0.11612
H	-0.6155756757	 1.9059826689	 0.8748211483	 0.14712
H	-0.8885503374	-0.4384114519	 0.0239718428	 0.110278
H	 0.3123929937	-0.7155875308	-2.0844410874	 0.115858
H	 1.7132263776	 0.1613128821	-1.4531277257	 0.118776
H	 0.7897751413	-2.6553894339	-0.7070998848	 0.122217
H	 2.4405467696	-2.0973335927	-1.0302845733	 0.128064
H	 2.977786511	-3.03520759	 1.0868206273	 0.079741
62.881	129.151	188.5127	193.487	202.0808	239.565	273.6364	376.7568	463.712	498.7855	560.6529	677.0611	717.3998	755.3492	851.4102	923.7231	967.0152	995.9356	1023.8952	1031.4963	1104.6911	1136.1427	1151.4518	1182.9341	1225.8504	1229.9911	1296.437	1316.7393	1324.2733	1364.661	1389.6584	1411.3952	1455.7501	1491.5103	1496.9215	1498.2562	1523.7941	1801.8876	1877.7753	2912.8399	2999.3034	3020.2341	3042.0766	3050.4931	3091.0577	3109.6168	3115.3224	3129.8127
CC1CCN(C=O)C1=O	C[C@H]1CCN(C=O)C1=O	
InChI=1S/C6H9NO2/c1-5-2-3-7(4-8)6(5)9/h4-5H,2-3H2,1H3	InChI=1S/C6H9NO2/c1-5-2-3-7(4-8)6(5)9/h4-5H,2-3H2,1H3/t5-/m0/s1
