23
gdb 99161	4.79351	0.70881	0.66741	2.3327	86.61	-0.2398	-0.0061	0.2337	1795.7133	0.204151	-388.310501	-388.300205	-388.299261	-388.347595	36.868	
C	 0.1587647474	 1.5804779389	 0.1920062122	-0.374623
C	 0.2122285265	 0.0684049243	-0.0112362511	-0.275151
C	 0.893632188	-0.3519950629	-1.3084166825	 0.383018
O	 1.4528949143	 0.4480435891	-2.0248895645	-0.302021
C	 0.826978869	-1.8360983064	-1.6565483897	-0.342052
C	 1.7225639775	-2.2362250544	-2.8170081672	 0.079227
C	 3.261993169	-2.2925995006	-2.6072208146	-0.214683
C	 3.2957997649	-3.5640690096	-3.4975661091	-0.209643
C	 1.771237721	-3.7285472566	-3.2503310467	-0.245524
H	 1.1632196284	 2.0098340343	 0.1731233037	 0.133996
H	-0.4137088339	 2.0622815616	-0.6052396237	 0.127538
H	-0.3086600152	 1.8269652548	 1.1494668479	 0.108377
H	 0.754962812	-0.4192786271	 0.8114265176	 0.122111
H	-0.7916318778	-0.3768544257	 0.0115458164	 0.11561
H	 1.0603938155	-2.4228517401	-0.7568111456	 0.107255
H	-0.2254833108	-2.0671934387	-1.8828912968	 0.120105
H	 1.4991584627	-1.5983107461	-3.6769441684	 0.087013
H	 3.8443749904	-1.4239166556	-2.9191553323	 0.108284
H	 3.5142600923	-2.5255864588	-1.5663863459	 0.08865
H	 3.5114041669	-3.3205066072	-4.5418410007	 0.103097
H	 3.9505314858	-4.3834989312	-3.1920039354	 0.093555
H	 1.5730032413	-4.3963705505	-2.4046827501	 0.092371
H	 1.1417954449	-4.0379394114	-4.0889283137	 0.093489
31.5919	45.0808	75.6879	106.353	164.594	188.5551	254.2505	310.1588	336.5001	422.641	471.0833	624.8352	657.9048	729.4416	772.1725	782.8189	832.2443	869.5668	902.0584	932.9135	956.5468	971.4774	995.5013	1009.0747	1027.7997	1082.5188	1124.2094	1128.2083	1156.1868	1199.197	1215.7536	1251.2931	1256.7556	1260.9362	1274.7091	1284.5055	1298.027	1332.5517	1370.373	1397.7433	1412.8137	1443.5879	1455.555	1480.4759	1487.557	1491.7417	1498.3578	1512.4702	1802.6844	2998.5045	3015.074	3030.4825	3040.0236	3043.4013	3044.6881	3050.9968	3058.2981	3069.8744	3094.5948	3107.2891	3119.9547	3120.491	3129.2187
CCC(=O)CC1CCC1	CCC(=O)CC1CCC1	
InChI=1S/C8H14O/c1-2-8(9)6-7-4-3-5-7/h7H,2-6H2,1H3	InChI=1S/C8H14O/c1-2-8(9)6-7-4-3-5-7/h7H,2-6H2,1H3
