16
gdb 98809	2.82694	1.25879	0.92656	2.618	67.83	-0.2502	-0.0489	0.2014	1234.6649	0.122314	-475.039495	-475.030307	-475.029362	-475.074713	31.46	
C	-0.1856205577	 1.4262914389	 0.1341141967	-0.333429
N	-0.1273252739	-0.021092933	 0.2301638021	-0.314098
C	 0.7439956329	-0.6605660449	 1.0559979553	 0.370914
O	 1.5535052342	-0.1252173883	 1.7812419036	-0.35344
C	 0.639101287	-2.1924341514	 0.9371826023	-0.097955
O	 1.033986933	-2.914359809	 2.1154422845	-0.264484
C	-0.2544326964	-3.5444863925	 2.2847588356	-0.177025
C	-0.7630353728	-2.7967516498	 1.051126393	 0.331815
O	-1.7918894262	-2.6673387235	 0.4565655475	-0.287024
H	 0.6645984225	 1.8273731907	 0.6866896778	 0.172017
H	-0.1249926329	 1.7497992543	-0.9098260183	 0.130273
H	-1.109429171	 1.8212495045	 0.5715619994	 0.132836
H	-0.8458124507	-0.5707655429	-0.219308575	 0.26474
H	 1.1956257954	-2.5128920535	 0.0448306484	 0.137905
H	-0.215662896	-4.6364228778	 2.1862585169	 0.140305
H	-0.7417644175	-3.2770911715	 3.2305446402	 0.14665
55.1082	77.0151	99.2581	114.7783	157.6306	252.9739	306.173	387.6996	415.4746	504.0089	564.044	624.3648	718.299	753.7155	825.557	922.4794	981.3474	1010.9923	1025.4191	1085.7104	1109.2542	1135.2402	1152.0122	1176.8835	1208.2844	1251.2607	1275.054	1308.1916	1442.6138	1476.8652	1495.6199	1499.8274	1576.23	1809.8118	1905.2038	3012.1525	3025.0999	3032.6948	3072.3685	3088.4116	3155.9176	3598.4157
CNC(=O)C1OCC1=O	CNC(=O)[C@H]1OCC1=O	
InChI=1S/C5H7NO3/c1-6-5(8)4-3(7)2-9-4/h4H,2H2,1H3,(H,6,8)	InChI=1S/C5H7NO3/c1-6-5(8)4-3(7)2-9-4/h4H,2H2,1H3,(H,6,8)/t4-/m0/s1
