23
gdb 59213	2.80601	1.23833	1.14744	1.815	84.01	-0.2403	0.0751	0.3154	1231.2117	0.206837	-388.279467	-388.270692	-388.269748	-388.312815	34.556	
C	-0.1224601554	 1.5439811295	-0.0052208064	-0.38987
C	 0.0581887003	 0.0277446492	-0.1744992437	-0.013228
C	 0.9297668003	-0.2929902512	-1.3983244519	-0.389871
C	 0.6622567726	-0.5825216065	 1.0864616006	 0.062236
C	-0.085210447	-0.6924002097	 2.4428276263	 0.041611
C	-1.384443262	-1.4613592835	 2.1207146537	-0.219866
C	-0.7357489555	-2.5939460325	 1.261807342	-0.219867
C	 0.7254529928	-2.1077803874	 1.3694733574	 0.041612
O	 0.8235937638	-1.7838278762	 2.7924211212	-0.301171
H	 0.8423897039	 2.0363482825	 0.1644237757	 0.114577
H	-0.570365023	 1.9903598192	-0.8990986212	 0.111193
H	-0.7694131494	 1.7799028577	 0.8462329148	 0.114091
H	-0.9334067367	-0.4092221968	-0.3472767718	 0.073411
H	 1.9357516978	 0.1275704768	-1.2831604318	 0.114577
H	 1.0365774939	-1.372954628	-1.5447821917	 0.114091
H	 0.4969290572	 0.1270418745	-2.3121704348	 0.111193
H	 1.6540032147	-0.1592705261	 1.2773643577	 0.0785
H	-0.1168885483	 0.1121905539	 3.1779085278	 0.074084
H	-1.8506704003	-1.8394389339	 3.0325794362	 0.106127
H	-2.1207639928	-0.862455332	 1.5777084445	 0.098179
H	-0.8525859383	-3.582036718	 1.7110679994	 0.106126
H	-1.1056094227	-2.6348686019	 0.2335863785	 0.09818
H	 1.524510274	-2.7536174198	 1.0046225875	 0.074084
66.1427	153.6051	178.8082	219.1102	240.7974	303.6617	308.3194	410.4527	431.0981	510.3783	557.4327	737.3364	790.5018	837.6935	845.976	864.3994	868.1184	886.2484	923.9445	929.2946	956.7041	966.2485	990.4452	1007.989	1016.3515	1064.9623	1122.1249	1122.2806	1172.4284	1179.1257	1201.9581	1209.1707	1227.3484	1246.7781	1276.3981	1301.5335	1309.725	1327.2125	1343.5303	1352.8475	1400.2214	1412.2042	1426.333	1480.9002	1486.2312	1491.7446	1499.7847	1505.2331	1508.9595	3024.0051	3024.7801	3027.8557	3061.3501	3061.3704	3069.653	3089.3777	3095.8278	3097.3821	3100.261	3107.1852	3116.6809	3120.2721	3124.7581
CC(C)C1C2CCC1O2	CC(C)[C@H]1[C@H]2CC[C@@H]1O2	
InChI=1S/C8H14O/c1-5(2)8-6-3-4-7(8)9-6/h5-8H,3-4H2,1-2H3	InChI=1S/C8H14O/c1-5(2)8-6-3-4-7(8)9-6/h5-8H,3-4H2,1-2H3/t6-,7+,8+
