19
gdb 7531	4.30444	1.27042	1.21278	3.6219	72.77	-0.2436	0.0313	0.2749	1083.3498	0.164	-365.082818	-365.073714	-365.07277	-365.116446	33.144	
C	-0.1104460757	 1.5490195338	-0.0308262385	-0.41282
C	 0.0426208103	 0.0452494932	 0.0256416258	-0.054338
C	 1.3645383696	-0.6343924454	-0.2444858483	-0.293879
C	 0.7721265488	-0.670363495	 1.1442153992	 0.344117
C	 1.4507591872	 0.0729979359	 2.278800902	-0.451571
N	 0.171124033	-1.9230496253	 1.5422612184	-0.324326
C	 0.8913137484	-3.0336884173	 1.8616975634	 0.149387
O	 2.0967345967	-3.134677701	 1.7846880435	-0.323622
H	 0.7959638097	 2.0651077183	 0.2966064338	 0.12101
H	-0.3162614153	 1.8725292708	-1.0568333679	 0.123076
H	-0.9376762661	 1.8956826421	 0.5988403829	 0.116216
H	-0.8243760098	-0.4979298645	-0.3445541055	 0.081259
H	 1.3746141229	-1.554620611	-0.8151932887	 0.123288
H	 2.2378382149	-0.0062434207	-0.3879127474	 0.114077
H	 1.9169332254	 0.998623426	 1.9335892239	 0.116086
H	 0.7358035437	 0.3267363445	 3.0697969281	 0.107845
H	 2.2324083867	-0.559460406	 2.7084555698	 0.151267
H	-0.8171347685	-1.9347854602	 1.7450588205	 0.243018
H	 0.2337669181	-3.8625333283	 2.1975827249	 0.069911
53.8169	137.5425	176.2771	199.272	213.4951	232.9362	270.43	363.0698	418.0636	434.9258	478.4573	533.6447	669.4697	763.6733	848.1935	875.9724	908.7105	968.144	985.4561	1027.2863	1032.3702	1055.5828	1114.8838	1126.7676	1135.6102	1180.0096	1199.0151	1275.3373	1321.8356	1403.2675	1416.3267	1423.7516	1433.1354	1477.9732	1489.0266	1494.3344	1497.7674	1506.6654	1515.4357	1807.2208	2915.7192	3031.4561	3036.3997	3089.9645	3104.1088	3108.9191	3126.9607	3131.6389	3138.799	3228.9314	3609.6188
CC1CC1(C)NC=O	C[C@H]1C[C@]1(C)NC=O	
InChI=1S/C6H11NO/c1-5-3-6(5,2)7-4-8/h4-5H,3H2,1-2H3,(H,7,8)	InChI=1S/C6H11NO/c1-5-3-6(5,2)7-4-8/h4-5H,3H2,1-2H3,(H,7,8)/t5-,6-/m0/s1
