20
gdb 58886	3.24829	1.31143	1.09019	2.3848	79.99	-0.2233	0.0183	0.2416	1170.4212	0.171251	-403.131569	-403.12293	-403.121985	-403.164533	33.765	
C	 0.2112622485	 1.5323714775	-0.1802366322	-0.412741
C	-0.0888683501	 0.0503808662	 0.0618800299	 0.00866
O	 0.3953133182	-0.7518604569	-1.0143828575	-0.442362
C	 0.5671438836	-0.467941606	 1.3243130639	 0.354569
N	 2.0134907683	-0.8321169096	 1.2958108292	-0.385963
C	 0.9905091802	-1.8803037623	 1.528803761	-0.099454
C	 0.7905378131	-2.2348125034	 2.9984343648	-0.272329
C	 0.2807164569	-0.9367326552	 3.5931144316	-0.073668
C	 0.1369835063	 0.0196587834	 2.6736753189	-0.140108
H	 1.2902778619	 1.6965460749	-0.2545600596	 0.134098
H	-0.2600911851	 1.8752960544	-1.1089548278	 0.103305
H	-0.178337152	 2.1529222034	 0.6320922871	 0.126127
H	-1.1789056902	-0.0810652616	 0.1642488082	 0.074446
H	 0.1115580523	-0.3474460404	-1.8394599182	 0.286666
H	 2.2731276995	-0.9023427513	 0.3111645755	 0.23232
H	 0.8427931185	-2.6249393123	 0.755930941	 0.099543
H	 0.0678240506	-3.0518078868	 3.1246569344	 0.103063
H	 1.726788495	-2.5598752296	 3.4681768093	 0.119149
H	 0.0952868934	-0.8152262736	 4.6546840541	 0.093882
H	-0.204416219	 1.030239139	 2.8651539464	 0.090797
77.4963	159.059	208.4686	244.3734	258.9095	290.6459	318.4711	414.596	449.8445	493.4737	515.0826	669.8029	712.5105	744.0155	787.5998	863.2704	894.1808	910.857	919.6121	949.4388	969.7208	996.6888	1020.8241	1045.9605	1069.2533	1118.0247	1127.0652	1139.9782	1170.2639	1198.8224	1225.852	1287.7816	1294.7404	1331.7921	1365.9845	1377.8985	1405.9627	1409.2165	1443.0402	1463.3605	1492.6971	1501.3745	1669.0422	2961.8588	3020.5932	3029.8084	3057.594	3097.8324	3121.4259	3184.0615	3187.3524	3209.1441	3461.7666	3832.0981
CC(O)C12NC1CC=C2	C[C@@H](O)[C@]12N[C@H]1CC=C2	
InChI=1S/C7H11NO/c1-5(9)7-4-2-3-6(7)8-7/h2,4-6,8-9H,3H2,1H3	InChI=1S/C7H11NO/c1-5(9)7-4-2-3-6(7)8-7/h2,4-6,8-9H,3H2,1H3/t5-,6+,7+/m1/s1
