21
gdb 78349	2.24607	1.60124	1.39855	1.7075	81.96	-0.2373	0.0803	0.3176	1076.5346	0.182038	-387.041332	-387.032547	-387.031603	-387.074134	34.731	
C	-0.2094710337	 1.5709268649	-0.1166934469	-0.419626
C	 0.0346265977	 0.0672105607	-0.0380624775	-0.051889
C	 1.0716740885	-0.5764724524	-0.9766560688	-0.119245
C	 2.4906608301	-0.2581586413	-0.5950836246	 0.125429
O	 2.9392108268	 0.9784658698	-0.1101867375	-0.431593
C	 1.7641539038	-1.2654110763	 0.2354052147	-0.215771
C	 0.7958989963	-0.55416241	 1.1613787746	 0.353496
C	 1.1062883783	 0.0740226457	 2.5030955723	-0.342443
C	 0.1783683571	-1.1172665638	 2.3988600128	-0.351805
H	 0.7264685311	 2.1289644452	-0.0534584336	 0.132555
H	-0.6895158472	 1.8295799439	-1.0669073852	 0.114285
H	-0.8764004252	 1.9054453838	 0.6867401362	 0.104865
H	-0.9188938929	-0.4628067021	-0.1450568316	 0.076902
H	 0.8351409911	-1.0015282451	-1.9457590525	 0.082972
H	 3.2214288102	-0.6838216627	-1.2792466149	 0.099559
H	 2.695873546	 1.0305839414	 0.8201503303	 0.294884
H	 2.0971021134	-2.2904423377	 0.3575775097	 0.086313
H	 2.0855897613	-0.0860907545	 2.9450851964	 0.11441
H	 0.6649688408	 1.0395993859	 2.7300798057	 0.118845
H	-0.8818982364	-0.9500086462	 2.5621267217	 0.113686
H	 0.538291023	-2.0750561589	 2.7615765485	 0.11417
119.9408	171.8583	198.2867	211.5137	230.0289	262.8325	320.4402	340.894	440.9492	524.5293	587.6263	664.0287	728.0369	740.77	778.993	805.119	880.4978	904.7814	924.0328	945.6127	973.4789	983.3029	999.8684	1017.3237	1049.116	1067.6803	1082.0477	1099.2988	1110.8484	1141.2103	1186.3657	1192.1492	1227.3683	1249.5101	1275.4602	1322.626	1348.6974	1365.4832	1398.8531	1406.6033	1445.0249	1464.4718	1492.4469	1500.9194	1508.9625	3028.0466	3034.787	3087.0113	3116.6853	3121.4093	3136.0467	3136.954	3163.0807	3175.2633	3195.6953	3210.458	3810.0133
CC1C2C(O)C2C11CC1	C[C@H]1[C@H]2[C@@H](O)[C@H]2C21CC2	
InChI=1S/C8H12O/c1-4-5-6(7(5)9)8(4)2-3-8/h4-7,9H,2-3H2,1H3	InChI=1S/C8H12O/c1-4-5-6(7(5)9)8(4)2-3-8/h4-7,9H,2-3H2,1H3/t4-,5+,6-,7+/m0/s1
