19
gdb 49243	2.82163	1.46527	1.07465	3.3382	83.12	-0.2466	-0.0529	0.1936	1138.1222	0.160653	-385.910699	-385.902915	-385.901971	-385.943324	29.907	
O	-0.0301023638	 0.1266999849	 0.4866600027	-0.272705
C	 0.0778690738	 1.3303737833	 0.3953933423	 0.068437
C	 1.3238491462	 2.0239926683	 0.058119357	 0.242585
C	 1.4303960772	 3.3582887757	-0.0552580922	-0.146693
C	 2.8153673389	 3.8057824404	-0.4449932219	-0.281084
C	 3.6399111317	 2.5053367759	-0.3491171654	-0.011691
C	 4.2012572717	 2.1327823974	 1.0574173951	-0.225309
C	 3.3954497486	 0.8031584905	 1.0318583998	-0.217523
C	 2.6256980796	 1.3158104344	-0.2202334986	-0.123406
H	-0.7955147933	 2.0001968003	 0.566350375	 0.064087
H	 0.6074260096	 4.0506553914	 0.098565184	 0.10628
H	 2.8079404312	 4.2335514486	-1.4576552255	 0.116258
H	 3.1981123343	 4.5962129326	 0.2139522951	 0.114331
H	 4.3790975029	 2.40723603	-1.1454500839	 0.070192
H	 5.2870131072	 2.0382200555	 1.1311925717	 0.10097
H	 3.8673558975	 2.8240219991	 1.8368932365	 0.099085
H	 4.0183591033	-0.0643458111	 0.8004206492	 0.103715
H	 2.7916856269	 0.5674367853	 1.9106340446	 0.108747
H	 2.5314338668	 0.6018214673	-1.0426724353	 0.083724
83.2059	122.3436	162.8809	253.3011	282.7164	360.861	470.6862	521.8116	660.6868	707.1889	726.904	772.2246	804.4809	828.3568	880.5977	893.1211	947.6417	958.1235	981.0839	1003.1122	1037.6348	1057.4722	1070.5318	1104.6603	1167.3964	1192.3032	1202.8696	1235.2172	1247.0626	1264.1086	1270.2445	1290.985	1315.5007	1333.7464	1376.5406	1421.7824	1470.0273	1479.2157	1496.081	1670.4183	1783.0425	2870.4229	3007.3514	3038.9829	3055.5453	3064.1892	3073.2335	3092.7408	3106.6099	3123.5501	3177.6371
O=CC1=CCC2CCC12	O=CC1=CC[C@H]2CC[C@@H]12	
InChI=1S/C8H10O/c9-5-7-2-1-6-3-4-8(6)7/h2,5-6,8H,1,3-4H2	InChI=1S/C8H10O/c9-5-7-2-1-6-3-4-8(6)7/h2,5-6,8H,1,3-4H2/t6-,8+/m0/s1
