13
gdb 25136	3.86538	1.22649	0.93106	1.2125	80.84	-0.2381	-0.0763	0.1618	1156.7201	0.089559	-415.606069	-415.598701	-415.597757	-415.638097	27.687	
N	-0.0003491202	 1.3404292042	 0.0103086284	-0.531644
C	-0.0232253316	 0.075035481	 0.0034954472	 0.400135
O	 1.1774857129	-0.6645649727	-0.0070275697	-0.220022
C	 1.1349305395	-2.0094515496	-0.0141526413	 0.133686
N	 0.1020255129	-2.7546329532	-0.012671184	-0.324192
C	-1.1337871949	-2.0888967598	-0.0023802601	 0.139965
C	-1.2182606685	-0.735028721	 0.0054882401	-0.209007
C	-2.2914851868	-2.9163222875	-0.0006910586	 0.241869
C	-3.2739619306	-3.6109980989	 0.0007831033	-0.358616
H	 0.9567858377	 1.6929506025	 0.007087691	 0.230166
H	 2.1360547051	-2.4307622509	-0.021842997	 0.151113
H	-2.1663938706	-0.2156444377	 0.0134340497	 0.140445
H	-4.1387016049	-4.2279199666	 0.002053581	 0.206103
120.3506	141.7348	147.9848	319.3971	410.19	449.7762	453.6722	552.7784	574.4202	629.2879	659.011	675.2531	751.6627	766.0768	845.8939	850.2404	909.6183	951.7654	965.4794	1072.3213	1138.3396	1196.497	1289.199	1341.9525	1413.1632	1612.657	1663.0414	1747.7869	2233.5905	3191.2823	3238.5719	3497.5506	3501.2622
N=C1OC=NC(=C1)C#C	[NH]C1=C[C@H](N=CO1)C#C	
InChI=1S/C6H4N2O/c1-2-5-3-6(7)9-4-8-5/h1,3-4,7H	InChI=1S/C6H5N2O/c1-2-5-3-6(7)9-4-8-5/h1,3-5,7H/t5-/m1/s1
