16
gdb 18035	4.21981	1.99728	1.45638	1.7682	66.98	-0.2412	0.0085	0.2496	839.8813	0.132372	-383.704622	-383.698216	-383.697272	-383.735036	24.936	
C	 0.0048446587	 1.4731127903	 0.1231544154	-0.156964
O	 1.4416456992	 1.4415746163	-0.1339851928	-0.306162
C	 1.3418813217	 0.1123129073	-0.7167751559	 0.089053
C	 2.1719150632	-1.0382271326	-0.1553200931	-0.124611
O	 1.4684245114	-2.2239058236	-0.5205805078	-0.256827
C	 0.1980932211	-2.403088505	 0.0938430032	-0.092622
C	-0.5825330474	-1.1247949731	 0.2894888324	-0.241826
C	-0.0489153401	-0.0046938639	-0.168382183	 0.234004
H	-0.2338882158	 1.7944168398	 1.1432173021	 0.11991
H	-0.5115229035	 2.1268537934	-0.5934492794	 0.109898
H	 1.4371371058	 0.1596892408	-1.8096179402	 0.088624
H	 3.1662875923	-1.1322891847	-0.5986446219	 0.111581
H	 2.2703769612	-0.9287744339	 0.9345853758	 0.098897
H	-0.334250853	-3.1224278602	-0.5400594403	 0.123722
H	 0.3211029631	-2.8790949679	 1.0831951601	 0.103887
H	-1.4793822078	-1.163337103	 0.9010950554	 0.099436
152.4231	231.518	278.3789	331.7259	383.1889	470.3825	531.2453	668.3167	791.7798	808.4073	839.8694	889.7253	950.1018	975.2129	985.1041	1014.8706	1029.6456	1074.1305	1097.5389	1129.9924	1139.2048	1150.9468	1230.646	1246.6113	1282.5432	1304.4032	1331.123	1364.6447	1377.0449	1400.4559	1485.7584	1501.9125	1511.1398	1789.5897	2948.6577	3001.3104	3004.0236	3019.3016	3046.5262	3063.2224	3100.6636	3171.1719
C1OC2COCC=C12	C1O[C@H]2COC[CH][C]12	
InChI=1S/C6H8O2/c1-2-7-4-6-5(1)3-8-6/h1,6H,2-4H2	InChI=1S/C6H8O2/c1-2-7-4-6-5(1)3-8-6/h1,6H,2-4H2/t6-/m0/s1
