20
gdb 57308	3.08692	0.95646	0.88031	5.8627	79.94	-0.2644	-0.0332	0.2312	1408.9952	0.167248	-403.189536	-403.178928	-403.177984	-403.225653	38.101	
C	-0.0042168455	 1.5458835815	 0.0899986105	-0.39997
C	-0.0169468519	 0.0120619102	-0.0023368145	 0.145145
C	 0.6672800604	-0.5982910457	 1.2376246772	-0.425053
C	-1.4791875911	-0.4884744249	-0.0941236283	-0.41467
C	 0.6970191852	-0.4112964986	-1.2984587943	 0.383478
O	 0.9276697294	 0.3557499559	-2.1966499416	-0.282355
C	 1.1145490368	-1.8973482338	-1.4149570482	-0.474888
C	 1.4513069	-2.2909533362	-2.7769200729	 0.292783
N	 1.7140736652	-2.6310829018	-3.8484099083	-0.29578
H	 1.0181876695	 1.9290469273	 0.1546138707	 0.122177
H	-0.4684441123	 1.9961915267	-0.7892364382	 0.137042
H	-0.5497759152	 1.870214765	 0.9814850595	 0.10947
H	 0.1628411628	-0.2472297177	 2.1431600413	 0.127201
H	 0.6237085254	-1.6915853803	 1.2470059658	 0.118048
H	 1.7175113248	-0.2956502283	 1.3072443933	 0.12594
H	-1.9825331713	-0.0751203978	-0.9730736142	 0.137804
H	-1.5456020308	-1.5800124684	-0.1432943905	 0.116831
H	-2.0311498153	-0.1662526905	 0.7945854103	 0.128609
H	 1.9874817391	-2.0533339588	-0.7691110867	 0.180149
H	 0.3306668847	-2.5547834436	-1.0263816107	 0.16804
33.7369	62.837	132.1086	193.2016	220.4732	240.7847	259.0845	280.8747	321.4618	351.9127	365.6025	384.1044	421.4398	463.2798	573.8208	596.12	781.2671	836.8473	916.5692	939.15	944.2433	947.2939	964.5987	1025.4306	1041.7015	1073.0312	1205.6117	1230.133	1243.9236	1269.3207	1324.8061	1397.7941	1402.4081	1432.9566	1438.6382	1478.0945	1482.531	1485.8143	1500.7259	1507.2047	1518.242	1819.434	2374.6295	3032.5567	3034.8808	3046.1735	3048.0272	3090.9873	3101.9839	3103.4088	3107.3284	3113.4024	3115.0805	3136.2334
CC(C)(C)C(=O)CC#N	CC(C)(C)C(=O)CC#N	
InChI=1S/C7H11NO/c1-7(2,3)6(9)4-5-8/h4H2,1-3H3	InChI=1S/C7H11NO/c1-7(2,3)6(9)4-5-8/h4H2,1-3H3
