16
gdb 48720	3.78962	1.35786	1.16416	2.4012	68.32	-0.2484	-0.0303	0.2181	1030.8831	0.125179	-437.859033	-437.851976	-437.851032	-437.890566	27.562	
O	-0.3879847343	 0.5365744005	 0.7013459739	-0.269143
C	 0.3007963595	 0.9060783031	-0.2181036995	 0.123286
C	 1.3767697945	 1.9243439364	-0.1000915785	 0.201864
C	 1.7800426778	 2.4325998319	 1.2818286853	-0.343843
C	 2.1969960638	 3.8811936271	 1.0867016803	 0.038721
O	 3.3085195464	 4.068090719	 0.1928541648	-0.258707
C	 1.9842028907	 4.268669936	-0.3179863393	 0.029099
C	 1.461421301	 3.0710677733	-1.0921538099	-0.098198
N	 2.3425824775	 1.9250337206	-1.216907326	-0.361671
H	 0.1759590894	 0.5150469197	-1.2510461381	 0.088468
H	 0.9085440662	 2.369151349	 1.9411680136	 0.141223
H	 2.5766169651	 1.8336241909	 1.735799321	 0.128554
H	 2.1602757349	 4.5836571974	 1.915487785	 0.110211
H	 1.7485071455	 5.2757399949	-0.6470351168	 0.109962
H	 0.7413873944	 3.2272992485	-1.8886841582	 0.106074
H	 3.2653650575	 2.1840085916	-0.8678246777	 0.2541
107.2537	196.15	227.0034	327.1847	333.2254	420.3714	503.3231	597.3671	682.7069	699.3306	743.8017	781.573	848.1831	868.3787	892.6027	932.051	966.685	1023.8303	1033.2651	1045.1574	1074.6558	1107.0673	1118.8777	1171.5977	1199.3403	1251.117	1285.2998	1292.2266	1325.5972	1346.6062	1388.0472	1420.4607	1426.7995	1474.6494	1813.4188	2906.7248	3055.2096	3099.4089	3147.7616	3163.9798	3176.8389	3472.2786
O=CC12CC3OC3C1N2	O=C[C@]12C[C@H]3O[C@H]3[C@H]1N2	
InChI=1S/C6H7NO2/c8-2-6-1-3-4(9-3)5(6)7-6/h2-5,7H,1H2	InChI=1S/C6H7NO2/c8-2-6-1-3-4(9-3)5(6)7-6/h2-5,7H,1H2/t3-,4-,5-,6-/m1/s1
