20
gdb 91838	3.55533	1.16485	1.05645	1.8798	85.6	-0.2302	0.0394	0.2696	1220.465	0.17089	-365.964089	-365.955412	-365.954468	-365.997044	34.005	
C	 0.6758618736	 1.5024093057	 0.0144990186	-0.404105
C	 0.0092658138	 0.1208395032	-0.0361853492	 0.009264
C	 0.4813863687	-0.7819306831	-1.2162755527	-0.176844
N	 1.2994237711	-1.8958065945	-0.7057400489	-0.123526
C	 2.4516869365	-1.4790436643	 0.0924082228	-0.27997
C	 1.1857550373	-1.8821160777	 0.7795867758	 0.147866
C	 0.2529033985	-0.7529696976	 1.2245557124	-0.301242
C	 1.0975057264	-3.1376686969	 1.4736060387	 0.197848
C	 1.0126845597	-4.1647134156	 2.0933669929	-0.372778
H	 1.760682419	 1.4421633518	 0.1468726903	 0.120448
H	 0.4888749365	 2.0576728836	-0.9108957521	 0.117358
H	 0.2770725427	 2.0969618365	 0.8434283696	 0.1178
H	-1.0666477682	 0.2921330957	-0.1416168147	 0.081781
H	-0.3791552839	-1.2269733859	-1.725575565	 0.110709
H	 1.0515423261	-0.2220312459	-1.9659212004	 0.105749
H	 3.2865598638	-2.1731963427	 0.0765776494	 0.124064
H	 2.73232262	-0.4296977217	 0.1197654227	 0.112446
H	 0.6792064096	-0.1770099004	 2.0519170607	 0.110739
H	-0.6803946179	-1.1930516688	 1.5859232263	 0.115255
H	 0.9426227266	-5.0802302814	 2.6264522226	 0.187137
98.9156	132.3607	163.3976	210.2224	275.9776	350.8211	365.5861	401.7493	505.1736	527.1636	558.7213	605.9389	646.5783	683.9473	715.2133	791.3934	811.4386	890.1831	917.7826	921.6117	943.1591	951.2815	1034.7942	1063.693	1093.1892	1113.758	1147.8035	1178.0705	1210.3227	1231.577	1263.051	1278.0682	1312.1975	1348.2103	1371.4898	1375.5198	1415.0346	1489.2732	1491.0067	1498.7247	1504.2103	1516.3323	2238.2645	3031.3597	3036.6578	3045.1342	3057.2953	3081.3075	3095.2767	3098.3091	3103.6253	3115.3655	3200.9752	3503.5618
CC1CN2CC2(C1)C#C	C[C@H]1CN2C[C@]2(C1)C#C	
InChI=1S/C8H11N/c1-3-8-4-7(2)5-9(8)6-8/h1,7H,4-6H2,2H3	InChI=1S/C8H11N/c1-3-8-4-7(2)5-9(8)6-8/h1,7H,4-6H2,2H3/t7-,8-,9?/m1/s1
