15
gdb 5431	3.49872	1.89701	1.23958	2.8531	77.55	-0.1974	0.0193	0.2167	938.861	0.11898	-325.543923	-325.536181	-325.535237	-325.575797	29.03	
C	-0.0020844026	 1.5026126267	 0.0770171711	-0.52134
C	 0.0139027676	 0.0151938735	-0.0202854344	 0.201963
C	-0.0005615071	-0.8118508506	-1.1375746547	 0.1048
C	 0.0281424056	-2.1670215353	-0.6675475714	-0.268089
C	 0.0581405731	-2.1249015594	 0.6997801607	-0.079088
N	 0.0491143837	-0.8006399324	 1.0781828886	-0.285594
C	-0.0367937467	-0.3774738368	-2.4825439209	 0.240132
C	-0.0674370933	-0.0113170746	-3.6309995078	-0.466626
H	 0.895092551	 1.8939516604	 0.5726561308	 0.128635
H	-0.0421866656	 1.9274938256	-0.9279278042	 0.155112
H	-0.8727496699	 1.8706340968	 0.6338634412	 0.128143
H	 0.0257843726	-3.0504268697	-1.2855914269	 0.101545
H	 0.0846881799	-2.9125379264	 1.4349279517	 0.121395
H	 0.0660757497	-0.4730020701	 2.0284991577	 0.26086
H	-0.0938958578	 0.3081967224	-4.6425386814	 0.17815
100.7805	142.2617	165.3127	238.0215	323.8328	464.1304	494.3603	512.1494	519.9659	587.1633	630.5532	649.2935	685.4471	699.5906	722.6641	830.7313	916.2239	983.3554	1061.0323	1080.8319	1108.9933	1166.2174	1265.1674	1308.9886	1401.6807	1425.5684	1469.5146	1483.966	1496.856	1525.4913	1608.3175	2224.5626	3018.4218	3063.8078	3132.0174	3257.5663	3277.5414	3506.6889	3677.0897
CC1=C(C=CN1)C#C	Cc1c(cc[nH]1)C#C	
InChI=1S/C7H7N/c1-3-7-4-5-8-6(7)2/h1,4-5,8H,2H3	InChI=1S/C7H7N/c1-3-7-4-5-8-6(7)2/h1,4-5,8H,2H3
