21
gdb 17349	4.00999	1.34017	1.12489	1.1901	80.33	-0.2214	0.0889	0.3103	1146.4755	0.187769	-329.086053	-329.077182	-329.076238	-329.119611	33.204	
C	 0.0072585398	 1.6158601043	-0.0317476259	-0.400315
C	-0.0279719927	 0.1042277248	-0.030133597	-0.011266
C	 1.2390267166	-0.6968233864	-0.2257642392	-0.311891
C	 0.5486867292	-0.6995047048	 1.1154011293	 0.057123
N	 1.1885496432	 0.0155277776	 2.1830070491	-0.081604
C	 0.6112266596	-0.0755274539	 3.5200671521	-0.255541
C	 1.9282273927	-0.710378674	 3.2197441025	 0.032093
C	 2.0958081385	-2.2138552124	 3.2147589179	-0.410295
H	 0.8845166822	 1.9807921183	 0.5064721162	 0.132557
H	 0.0381130781	 2.0056649121	-1.0552550015	 0.108483
H	-0.8805388577	 2.0331339396	 0.45692543	 0.109275
H	-0.9219628798	-0.326956107	-0.4740409709	 0.078633
H	 1.2130888204	-1.5979703175	-0.8287177999	 0.104594
H	 2.1676865604	-0.138659257	-0.2823666991	 0.115132
H	 0.0006478865	-1.6052247617	 1.3814417851	 0.068109
H	 0.5449181784	 0.8535648098	 4.0810354389	 0.11005
H	-0.2353357314	-0.7480364026	 3.6598983001	 0.103146
H	 2.8224103017	-0.1743639795	 3.5371342639	 0.086839
H	 1.1636053723	-2.7372200121	 2.9891890754	 0.119055
H	 2.8455129284	-2.5249446611	 2.4791666848	 0.125724
H	 2.4358404734	-2.5528676366	 4.1991286484	 0.120099
47.911	131.4435	178.0655	183.2594	224.6773	232.4406	343.9831	386.7502	440.0304	456.9651	577.1744	726.6567	778.6407	797.1298	850.1584	879.2234	902.2845	927.0415	971.0638	1015.1047	1032.9305	1059.6464	1078.3742	1095.8504	1114.3983	1120.4267	1147.3402	1150.3803	1187.2884	1196.0097	1202.8046	1233.0006	1333.7375	1382.1964	1402.2992	1408.6477	1420.2273	1422.16	1482.8517	1491.8346	1496.0486	1498.3602	1504.2914	1510.8868	3030.5775	3035.7195	3068.1985	3081.711	3084.9096	3094.8442	3098.4731	3122.7932	3124.3247	3131.2676	3140.2693	3167.4001	3218.6052
CC1CC1N1CC1C	C[C@H]1C[C@H]1N1C[C@H]1C	
InChI=1S/C7H13N/c1-5-3-7(5)8-4-6(8)2/h5-7H,3-4H2,1-2H3	InChI=1S/C7H13N/c1-5-3-7(5)8-4-6(8)2/h5-7H,3-4H2,1-2H3/t5-,6+,7+,8?/m0/s1
