21
gdb 72694	2.58591	1.91333	1.59506	1.6918	81.64	-0.2441	0.0877	0.3318	958.3651	0.184445	-387.030162	-387.022898	-387.021954	-387.061128	31.138	
C	-0.0858969224	 1.5165473367	 0.1093331413	-0.448324
C	 0.0332396761	-0.0038535142	 0.1391250683	 0.464734
C	-1.3505107554	-0.6998630988	 0.2779358572	-0.314866
C	-1.0732521987	-1.3835002036	 1.6565266695	-0.020234
C	 0.2313610515	-2.118545262	 1.2829088524	-0.232304
C	 0.793138768	-0.6730612071	 1.2824436029	 0.265827
C	 2.0351153542	-0.4377699865	 0.4078362838	-0.242863
O	 1.1474577658	-0.375459743	-0.7570529782	-0.361085
C	-0.1328737569	-0.4125274421	 2.4997074493	-0.343049
H	 0.8688329101	 2.0092035476	 0.3139590045	 0.114712
H	-0.4089644044	 1.8187867155	-0.8928453098	 0.127093
H	-0.8267157255	 1.8889983558	 0.8225184436	 0.1132
H	-2.172937658	 0.0201945027	 0.2796023106	 0.092518
H	-1.5565800722	-1.4516797445	-0.4884705034	 0.114743
H	-1.9079514297	-1.8906144016	 2.1417297078	 0.065542
H	 0.6534378024	-2.7076744755	 2.1016022653	 0.090216
H	 0.2576667001	-2.6816790247	 0.3473901631	 0.102531
H	 2.5727450706	 0.5070282364	 0.5506290707	 0.10245
H	 2.7490125951	-1.2630844975	 0.334068439	 0.107266
H	-0.4528124806	 0.6134579378	 2.6934208896	 0.09917
H	 0.16888221	-0.8944664215	 3.4324081526	 0.102722
185.5983	231.5272	280.6572	330.88	384.4097	415.0089	461.063	527.2068	535.974	595.2838	706.4728	785.0599	805.615	822.4711	862.3104	890.6511	906.1937	916.4471	947.0157	956.0082	965.4582	991.708	1018.0925	1058.1945	1078.6173	1117.5122	1138.4241	1150.6179	1173.039	1197.5754	1198.1764	1210.2962	1222.6287	1250.2484	1275.5053	1297.4802	1309.7249	1332.4757	1410.9573	1480.4402	1485.5835	1490.4341	1498.0204	1517.871	1526.0597	3027.0935	3037.915	3056.0656	3060.9557	3067.1179	3090.0387	3102.382	3106.8734	3111.2835	3115.1238	3119.5274	3126.7089
CC12CC3CC1(CO2)C3	C[C@]12C[C@H]3C[C@]1(CO2)C3	
InChI=1S/C8H12O/c1-7-2-6-3-8(7,4-6)5-9-7/h6H,2-5H2,1H3	InChI=1S/C8H12O/c1-7-2-6-3-8(7,4-6)5-9-7/h6H,2-5H2,1H3/t6-,7-,8+/m0/s1
