18
gdb 29865	3.03823	1.40599	0.97278	5.9301	86.4	-0.201	-0.0113	0.1897	1207.4661	0.149384	-398.174258	-398.165619	-398.164675	-398.20776	31.771	
C	-0.1919072862	 1.4747840937	 0.0169791096	-0.345671
N	 0.0590634206	 0.0441340606	-0.0047080681	-0.071085
C	 0.1947017904	-0.6539065153	-1.171784244	 0.090959
N	 0.4166889236	-1.9143910578	-1.2730831719	-0.345458
C	 0.5394202513	-2.6909850406	-0.1026274753	 0.268279
N	 0.7611234554	-3.9549707639	-0.1283514514	-0.539
C	 0.4029609141	-1.9958283359	 1.1864609675	 0.218436
C	 0.5276150945	-2.7893845685	 2.4496516809	-0.470467
C	 0.1706294393	-0.6695888506	 1.1814545677	-0.086346
H	 0.612733345	 2.0066649064	 0.5362671891	 0.145799
H	-0.245149575	 1.8444192248	-1.0084660171	 0.147789
H	-1.14059287	 1.699377788	 0.5165329197	 0.145801
H	 0.0992812224	-0.0509978956	-2.0742351822	 0.119869
H	 0.8243293109	-4.252401305	-1.1041346814	 0.208536
H	 1.5010291868	-3.2888559079	 2.4895672992	 0.146237
H	 0.4077037179	-2.1610747551	 3.3371019204	 0.101267
H	-0.2190446969	-3.5898124427	 2.4702665026	 0.146222
H	 0.057932066	-0.0852357247	 2.0875127548	 0.118833
70.5276	110.8643	159.8307	186.4459	274.9787	294.026	338.2535	427.8394	472.9927	504.1081	510.7425	581.841	707.0631	778.8905	813.7055	873.8309	904.6285	962.0845	990.0429	1015.7749	1061.0902	1067.0465	1111.1985	1152.3637	1191.5634	1270.9608	1312.3131	1397.7635	1412.9355	1421.8714	1457.3159	1461.7771	1470.3912	1480.7113	1487.9388	1521.9082	1632.8234	1669.1702	1723.6612	3028.8626	3035.6272	3085.8578	3096.5194	3114.5837	3132.8867	3139.7759	3196.1411	3458.5331
CN1C=NC(=N)C(C)=C1	CN1CN=C([NH])C(=C1)C	
InChI=1S/C6H9N3/c1-5-3-9(2)4-8-6(5)7/h3-4,7H,1-2H3	InChI=1S/C6H10N3/c1-5-3-9(2)4-8-6(5)7/h3,7H,4H2,1-2H3
