17
gdb 51044	2.41014	1.27229	0.99279	1.895	71.72	-0.2389	-0.0532	0.1858	1217.6764	0.134179	-455.111185	-455.101999	-455.101055	-455.146571	31.812	
N	-0.2962934286	 1.4077350052	-0.1052631226	-0.435368
C	-0.1894353337	 0.154611712	-0.029239115	 0.110342
O	-1.2933659839	-0.621044626	-0.1484700436	-0.239417
C	-1.1000868283	-2.0241512169	-0.0506125432	 0.286614
C	-0.7006845257	-2.5937444778	 1.3378545431	-0.221198
N	-2.0882291336	-3.0653243769	 1.5592644242	-0.307258
C	-2.4687280783	-2.7378575872	 0.1675352814	-0.207407
C	-0.320289285	-2.5450709535	-1.2443916253	 0.094954
O	 0.2765797263	-3.5904680871	-1.2500132794	-0.24584
H	 0.6168227113	 1.8447198946	 0.0008970626	 0.23503
H	 0.7366254681	-0.4144217238	 0.1317746954	 0.100408
H	 0.0540664292	-3.3810742663	 1.2376963571	 0.126462
H	-0.366513356	-1.8477052158	 2.0663705129	 0.117287
H	-2.1558100778	-4.0503360934	 1.7848210474	 0.228938
H	-3.3180719947	-2.0530617343	 0.0858203848	 0.135658
H	-2.6224378295	-3.595487813	-0.4972702301	 0.114657
H	-0.37305955	-1.8863610697	-2.1395178298	 0.106138
46.0376	74.9133	90.1161	118.3641	177.1569	264.6628	282.3138	379.0008	452.7748	461.0122	639.8058	675.6531	747.3702	820.6191	867.5217	903.5669	926.3682	966.7117	1001.9845	1041.8544	1046.0948	1080.3507	1127.5836	1141.3438	1167.7679	1215.5354	1256.5849	1278.6067	1287.2991	1351.5309	1386.4364	1403.3083	1422.6601	1486.2161	1506.7176	1747.7024	1825.7388	2895.834	3020.6457	3029.5062	3036.1426	3086.1677	3090.1047	3520.9845	3548.9402
N=COC1(CNC1)C=O	[NH][CH]OC1(CNC1)C=O	
InChI=1S/C5H8N2O2/c6-4-9-5(3-8)1-7-2-5/h3-4,6-7H,1-2H2	InChI=1S/C5H8N2O2/c6-4-9-5(3-8)1-7-2-5/h3-4,6-7H,1-2H2
