23
gdb 109175	3.77755	0.93322	0.82229	1.1412	89.24	-0.233	0.0279	0.2609	1517.8427	0.205705	-388.313216	-388.303576	-388.302632	-388.347797	36.399	
C	 0.1761742651	 1.5539430071	-0.1865062658	-0.374398
C	-0.0685101024	 0.0520582299	 0.0488121088	-0.273628
C	 0.6184876065	-0.4974285262	 1.2735408946	 0.297099
C	-0.0422169171	-0.9723301155	 2.3304271908	-0.173233
C	 0.6533533783	-1.4818553446	 3.5639699872	-0.251646
C	 2.1271573461	-1.0588330312	 3.5695833821	 0.139119
C	 2.968517087	-1.8113004846	 4.5884329308	-0.402975
O	 2.702095152	-1.2996282601	 2.2897070564	-0.259191
C	 2.1309096421	-0.5048617003	 1.2710684708	-0.157073
H	 1.2358589643	 1.7729586175	-0.3503369828	 0.120289
H	-0.371687691	 1.9010260148	-1.068023154	 0.11406
H	-0.1574185216	 2.142023484	 0.6744223647	 0.119559
H	-1.1456797401	-0.1280876431	 0.1365727722	 0.101018
H	 0.2689960574	-0.5015011012	-0.8393443757	 0.099857
H	-1.1301485218	-0.9996984518	 2.3190893758	 0.076514
H	 0.1577116185	-1.0984938452	 4.4656941327	 0.099434
H	 0.5822630101	-2.5780447444	 3.6198056591	 0.106658
H	 2.1748714653	 0.0239325404	 3.783031991	 0.060741
H	 2.9640224645	-2.882823211	 4.3649391001	 0.123375
H	 4.0039403334	-1.4612444317	 4.565660684	 0.120427
H	 2.571844038	-1.6654363014	 5.5978920533	 0.111817
H	 2.5012052265	-0.9157328737	 0.322946447	 0.109262
H	 2.5143728389	 0.5303384822	 1.3363509965	 0.092914
58.3143	85.797	190.1192	197.6526	215.1652	239.2409	285.8494	319.0697	376.3342	405.763	469.2111	505.7253	562.9092	669.9903	785.0795	786.2777	838.2992	886.3892	916.5947	938.9592	956.6632	1013.8398	1024.006	1065.2821	1078.6619	1107.8895	1120.044	1146.8489	1163.1346	1190.9004	1238.19	1277.3125	1284.3771	1321.3892	1347.7153	1360.9012	1388.4988	1393.1058	1407.5187	1410.1307	1413.0079	1470.5848	1481.3833	1483.5562	1487.6101	1498.2796	1501.9267	1507.9978	1740.1227	2930.3323	2941.8145	3000.759	3003.9042	3036.0767	3037.3886	3038.0798	3041.5305	3059.7949	3106.8013	3109.2288	3114.0689	3120.4652	3140.1873
CCC1=CCC(C)OC1	CCC1=CC[C@@H](C)OC1	
InChI=1S/C8H14O/c1-3-8-5-4-7(2)9-6-8/h5,7H,3-4,6H2,1-2H3	InChI=1S/C8H14O/c1-3-8-5-4-7(2)9-6-8/h5,7H,3-4,6H2,1-2H3/t7-/m1/s1
