16
gdb 44809	3.06359	1.37368	1.13756	1.139	69.64	-0.25	-0.0279	0.2221	1078.6586	0.123652	-437.826744	-437.819043	-437.818099	-437.859685	28.653	
O	-0.1492093268	 0.1467657226	-0.4765110258	-0.306333
C	-0.0332237603	 1.2775199755	-0.1010487166	 0.355597
C	-0.9453600584	 2.5211635002	-0.0959048541	-0.29105
N	 0.2627809849	 3.3945210175	 0.1324172341	-0.152568
C	 0.7775392469	 2.9868665943	 1.4324230334	-0.266411
C	 1.1438999398	 2.1390348102	 0.2543756198	 0.183071
C	 2.5325921201	 1.9978174541	-0.2647546935	-0.052424
C	 3.1289048743	 2.9890152687	-1.171185995	-0.17063
O	 3.5006864821	 2.9297384119	 0.2114653546	-0.235557
H	-1.3817924328	 2.6981213297	-1.0823419888	 0.146655
H	-1.7175554823	 2.6106729917	 0.6732655386	 0.133205
H	 1.587504032	 3.6102742312	 1.7974004997	 0.15642
H	 0.0895444409	 2.6118166571	 2.1876642395	 0.123526
H	 2.8736217367	 0.9636836191	-0.3176407145	 0.116303
H	 3.9001978755	 2.6816122643	-1.8750121838	 0.122457
H	 2.5362712673	 3.856115192	-1.4522821576	 0.137739
52.0571	124.2486	177.8575	198.9721	322.4096	439.1871	486.3454	549.4485	562.9553	634.6908	690.7892	780.4762	835.2018	868.1638	879.491	917.101	983.6188	1014.9144	1024.4992	1050.2936	1096.2865	1105.8654	1133.1226	1161.3777	1169.7923	1197.8516	1236.7339	1254.9178	1279.2434	1335.9546	1442.9004	1460.9381	1498.1813	1519.7639	1886.68	3061.459	3096.1971	3103.0768	3114.9779	3123.2846	3194.724	3211.0651
O=C1CN2CC12C1CO1	O=C1CN2C[C@@]12[C@H]1CO1	
InChI=1S/C6H7NO2/c8-4-1-7-3-6(4,7)5-2-9-5/h5H,1-3H2	InChI=1S/C6H7NO2/c8-4-1-7-3-6(4,7)5-2-9-5/h5H,1-3H2/t5-,6+,7?/m1/s1
