19
gdb 95553	2.42392	1.64321	1.21911	0.7023	75.8	-0.24	-0.0021	0.2379	1069.5262	0.160666	-423.006674	-422.998673	-422.997729	-423.038966	31.528	
O	 0.1602385352	 1.4084666818	-0.1333432746	-0.430556
C	 0.058450551	-0.0087932323	-0.0284141936	 0.089886
C	 0.6640557509	-0.4885223569	 1.3029055854	-0.207145
C	 0.5409126068	-1.9973879723	 1.6600128296	-0.266608
C	 0.3786465067	-2.9552370919	 0.5017769602	-0.09881
C	-0.6171328233	-2.9264533145	-0.3879213291	-0.036287
C	-1.6862644081	-1.9013062425	-0.4649890882	 0.012644
O	-2.0692273905	-1.184331163	 0.7238406972	-0.255939
C	-1.3705358414	-0.4663047962	-0.2935536867	-0.004972
H	-0.3051396771	 1.7908843609	 0.6191005607	 0.278318
H	 0.6762126882	-0.3827227182	-0.8537793498	 0.102513
H	 1.7173870774	-0.1914207971	 1.2782049426	 0.10964
H	 0.1994061307	 0.0903421779	 2.1110491004	 0.093819
H	 1.4223754404	-2.2851365914	 2.2404585382	 0.096709
H	-0.3213050006	-2.1214788195	 2.3194858622	 0.13933
H	 1.1108959424	-3.7539477929	 0.4163183878	 0.095107
H	-0.6571149373	-3.6834310567	-1.1669691693	 0.088926
H	-2.5316627421	-2.1548741847	-1.1034346854	 0.095544
H	-1.9717991091	 0.2679185895	-0.8314426977	 0.097882
107.915	145.4995	247.8718	273.7219	304.8475	340.1923	375.9085	392.1484	532.0115	579.2546	611.9777	708.9364	753.8475	787.2688	848.6825	857.2613	884.4112	940.8001	961.4333	990.3345	1038.5781	1059.1936	1073.7278	1080.303	1131.3615	1151.6287	1198.2454	1230.441	1266.496	1277.3891	1304.5939	1330.9957	1348.4933	1371.6302	1393.2099	1419.3253	1428.0382	1450.4966	1475.5747	1497.3546	1712.027	3024.6182	3041.4463	3057.5544	3073.7547	3101.8435	3103.8521	3118.7249	3149.9761	3172.1558	3797.0206
OC1CCC=CC2OC12	O[C@H]1CCC=C[C@H]2O[C@@H]12	
InChI=1S/C7H10O2/c8-5-3-1-2-4-6-7(5)9-6/h2,4-8H,1,3H2	InChI=1S/C7H10O2/c8-5-3-1-2-4-6-7(5)9-6/h2,4-8H,1,3H2/t5-,6+,7-/m0/s1
