20
gdb 120813	2.55286	0.94661	0.77316	2.9126	81.77	-0.2408	0.0446	0.2854	1511.4903	0.169125	-403.074447	-403.064659	-403.063715	-403.110005	35.965	
O	 0.4957626112	 1.175515423	-0.5526285912	-0.421723
C	 0.2950352557	-0.1726779464	-0.1891446421	-0.044796
C	-1.1676425599	-0.4347531175	 0.1725473963	-0.162351
N	-1.9886532938	-0.0257795628	-0.9677698384	-0.088039
C	-2.5153901346	-1.0514040389	-1.8643404458	-0.270378
C	-3.4264486466	-0.2634765618	-0.9863175643	 0.02458
C	-4.1623446029	-0.9385533559	 0.1661674741	-0.384308
C	-4.4558165565	-0.0222507811	 1.2643798129	 0.307931
C	-4.6911175728	 0.7499087517	 2.1546756324	-0.445235
H	-0.2619683405	 1.395088661	-1.1122992968	 0.284826
H	 0.5954663989	-0.8586728935	-1.0003633094	 0.079954
H	 0.9366207454	-0.3834790384	 0.6733878752	 0.102535
H	-1.3001536894	-1.4916839009	 0.4547591629	 0.082165
H	-1.4484147966	 0.1865468196	 1.0295107045	 0.127776
H	-2.4493938204	-0.846642786	-2.9293820869	 0.120481
H	-2.3450190287	-2.0929937762	-1.5916054089	 0.11013
H	-3.9901267282	 0.5564989716	-1.4278566505	 0.104713
H	-5.1009778477	-1.353406045	-0.2239890912	 0.138496
H	-3.587258443	-1.7930998567	 0.5392023061	 0.132584
H	-4.8991118094	 1.4260868841	 2.9465781911	 0.200659
43.9563	68.9762	126.7746	143.9712	186.3427	247.4866	328.911	352.5626	409.7894	442.4098	498.1428	518.106	577.2	627.4843	645.6382	731.9685	804.2281	883.9649	906.0242	941.6208	966.0457	982.0941	1036.0298	1076.9495	1098.0451	1126.2611	1130.5861	1139.1934	1169.5438	1225.7759	1244.8743	1275.6733	1314.4849	1335.1181	1379.2691	1381.7091	1419.3705	1445.7034	1465.2202	1481.728	1509.5682	1511.5905	2239.6439	2951.6433	2972.8632	3026.2518	3065.463	3066.7794	3080.5144	3086.2831	3121.7728	3176.9317	3506.1816	3742.7283
OCCN1CC1CC#C	OCCN1C[C@H]1CC#C	
InChI=1S/C7H11NO/c1-2-3-7-6-8(7)4-5-9/h1,7,9H,3-6H2	InChI=1S/C7H11NO/c1-2-3-7-6-8(7)4-5-9/h1,7,9H,3-6H2/t7-,8?/m1/s1
