20
gdb 87454	2.79487	1.38933	1.27015	1.6193	80.36	-0.2447	0.0699	0.3146	1112.0086	0.170269	-403.055381	-403.046843	-403.045899	-403.088029	33.639	
C	-0.0465614071	 1.5070110996	 0.0453351514	-0.407138
C	-0.0021213603	-0.0067366252	 0.0300952016	-0.139856
C	 1.3388751051	-0.7234092739	-0.1864900753	-0.410732
C	 0.6494024355	-0.7653212174	 1.1268304418	 0.433385
N	 1.1681350236	-0.2136837961	 2.4482513438	-0.180869
C	-0.1798750658	-0.6873062921	 3.0208773332	-0.235199
C	 0.2406150274	-1.8635613714	 2.0954728567	 0.256491
O	-0.4284974504	-3.0170853766	 1.7344645244	-0.467523
C	 1.6565912441	-1.6511602065	 2.7013404058	-0.232992
H	 0.8082608132	 1.9125069162	 0.5937043919	 0.133549
H	-0.0269397339	 1.9123916108	-0.9721682089	 0.115257
H	-0.9564547086	 1.8740716846	 0.5328618008	 0.115023
H	-0.8606913201	-0.4907812107	-0.4308310418	 0.093801
H	 1.3534556855	-1.6197061471	-0.7985029724	 0.118829
H	 2.221182063	-0.0961846246	-0.2755354407	 0.118786
H	-0.1533821947	-0.8443508456	 4.1030839669	 0.092955
H	-1.0258517109	-0.0693159321	 2.7147062137	 0.108957
H	-0.5682692392	-3.5565566707	 2.5203806935	 0.284525
H	 2.5211292892	-1.9298820408	 2.0962438295	 0.109859
H	 1.8049749344	-1.8709084906	 3.7625871543	 0.092891
133.057	149.7712	183.9338	221.3472	243.9269	282.1585	372.4114	413.8574	470.2034	500.767	622.7999	650.4253	657.6775	775.9164	807.6093	819.6932	888.3021	898.3735	957.4014	961.422	979.0778	1012.3289	1042.0263	1080.6772	1087.902	1096.518	1107.4141	1141.2915	1154.9529	1172.8571	1184.9062	1186.045	1246.5761	1287.5413	1294.5231	1363.8057	1414.1247	1440.7632	1492.2636	1496.1278	1498.6523	1515.5915	1555.4789	3030.3442	3052.1309	3058.4888	3088.7273	3110.5751	3120.5209	3132.1506	3133.2102	3134.9126	3207.6636	3808.0109
CC1CC11N2CC1(O)C2	C[C@H]1C[C@]21N1C[C@]2(O)C1	
InChI=1S/C7H11NO/c1-5-2-7(5)6(9)3-8(7)4-6/h5,9H,2-4H2,1H3	InChI=1S/C7H11NO/c1-5-2-7(5)6(9)3-8(7)4-6/h5,9H,2-4H2,1H3/t5-,7+/m0/s1
