21
gdb 68870	2.39253	1.83169	1.57434	1.1243	81.5	-0.2357	0.0814	0.3172	988.7898	0.183858	-387.052196	-387.044312	-387.043368	-387.083792	32.897	
C	-0.0484729799	 1.4576374883	 0.0752541186	-0.477976
C	 0.0017965173	-0.0472845181	-0.005801998	 0.308367
C	 1.3244710016	-0.7520229272	-0.2864297633	-0.441615
C	 0.6353938442	-0.92270644	 1.0477485035	 0.384972
O	 1.1790807244	-0.3543034153	 2.2006488303	-0.475291
C	-0.4574639901	-2.0001439962	 1.2248501385	-0.089228
C	-1.7249198994	-1.0777729599	 1.2843261847	-0.22115
C	-1.322719616	-0.8241785559	-0.2144247696	-0.080879
C	-0.912292869	-2.3210865763	-0.2238131761	-0.242277
H	 0.8361201918	 1.8508007425	 0.5842204441	 0.126049
H	-0.0981313084	 1.9112863977	-0.9214280016	 0.112134
H	-0.9279292708	 1.7939244908	 0.6361223355	 0.114971
H	 1.4239625338	-1.5580869596	-1.0039248441	 0.106304
H	 2.1862506806	-0.0913891145	-0.2540213133	 0.106568
H	 1.9123912187	-0.9075668683	 2.4896310157	 0.282347
H	-0.2648638115	-2.7841393366	 1.9590730764	 0.052882
H	-2.6622199121	-1.6301079332	 1.3945274978	 0.086864
H	-1.6928751772	-0.2303791607	 1.9733326871	 0.103684
H	-2.0255344747	-0.4189689223	-0.9440330689	 0.056247
H	-0.1900744729	-2.6847674583	-0.9553546944	 0.091023
H	-1.7874063905	-2.9747646967	-0.2290850532	 0.096005
176.8523	201.0455	207.4066	273.774	304.5314	355.5512	479.433	506.434	517.6339	533.1001	550.1864	715.0907	733.8942	797.6219	839.1369	843.4424	888.3945	903.4952	913.4219	959.9331	969.9783	1009.998	1033.9903	1047.333	1049.707	1071.6171	1077.4612	1101.4166	1121.3237	1177.6204	1215.9866	1219.2107	1224.2289	1240.8447	1257.42	1281.5397	1292.3233	1339.1212	1406.9602	1417.301	1484.1706	1489.5836	1501.2927	1502.8761	1540.9246	3025.0775	3056.9485	3074.2278	3081.2026	3098.9515	3103.3223	3108.3187	3120.0386	3123.147	3131.9501	3208.2148	3798.1206
CC12CC1(O)C1CC2C1	C[C@@]12C[C@]1(O)[C@H]1C[C@@H]2C1	
InChI=1S/C8H12O/c1-7-4-8(7,9)6-2-5(7)3-6/h5-6,9H,2-4H2,1H3	InChI=1S/C8H12O/c1-7-4-8(7,9)6-2-5(7)3-6/h5-6,9H,2-4H2,1H3/t5-,6+,7-,8-/m0/s1
