18
gdb 91586	3.13292	1.12046	0.96071	2.8004	74.3	-0.2419	0.014	0.2559	1262.2468	0.145742	-439.033226	-439.024439	-439.023495	-439.0672	32.343	
C	-0.0342818928	 1.5853167355	-0.2443268821	-0.416518
C	 0.1220698581	 0.0845386816	-0.1397107089	 0.091408
O	 1.3250184684	-0.4350279806	-0.7928585193	-0.304685
C	 1.6639413064	-1.1863732079	 0.3725695389	 0.025125
C	 1.9749364837	-0.2712444335	 1.5272579443	-0.362392
C	 0.539595132	-0.5940810744	 1.1693708219	 0.32352
O	-0.3584884644	-1.2127742748	 2.0264179241	-0.222331
C	-0.6836319395	-0.5387053895	 3.1598710501	 0.106229
N	-1.5546343536	-1.014227501	 3.9353196869	-0.435541
H	 0.8102702796	 2.1113143895	 0.2087739928	 0.122508
H	-0.0994111039	 1.8848358897	-1.2948373638	 0.136928
H	-0.9564497479	 1.9022460812	 0.2546394386	 0.125471
H	-0.7539923207	-0.4323353958	-0.5514203779	 0.1014
H	 2.0312533021	-2.1979161951	 0.2543637924	 0.124581
H	 2.3211190176	-0.7846101656	 2.4196293746	 0.129953
H	 2.4096571611	 0.7083078817	 1.3516466941	 0.122724
H	-0.1141984173	 0.3900720539	 3.2856319912	 0.09849
H	-1.675728449	-0.4019878548	 4.7395363021	 0.23313
59.6583	111.1988	136.3843	205.9361	213.1951	267.4919	370.5388	382.1526	450.7851	484.3106	561.2126	702.8586	754.7063	825.3268	848.0443	871.7387	904.5324	961.3779	992.5459	1012.2598	1037.4632	1051.1415	1062.6172	1080.7676	1084.8849	1134.532	1146.9758	1224.5142	1260.1542	1278.3334	1287.7231	1374.1251	1396.5177	1408.5385	1416.5089	1479.6495	1486.1096	1495.2812	1747.6914	3032.5102	3040.2763	3049.9824	3109.5351	3118.2402	3122.8612	3198.7404	3212.9236	3518.6491
CC1OC2CC12OC=N	C[C@H]1O[C@H]2C[C@@]12O[CH][NH]	
InChI=1S/C6H9NO2/c1-4-6(8-3-7)2-5(6)9-4/h3-5,7H,2H2,1H3	InChI=1S/C6H9NO2/c1-4-6(8-3-7)2-5(6)9-4/h3-5,7H,2H2,1H3/t4-,5+,6-/m1/s1
