22
gdb 103807	2.59469	1.13818	1.02864	3.1124	83.91	-0.2398	0.0152	0.255	1331.2911	0.191247	-404.368766	-404.358084	-404.35714	-404.404693	38.435	
C	-0.2237764497	 1.4787292649	 0.0739911401	-0.383678
C	 0.2701536419	 0.0288799116	 0.1427403855	-0.235694
C	 0.6180904708	-0.5497353721	-1.220989974	 0.322506
C	 1.7450659162	 0.1323944842	-1.9748485109	-0.45309
C	 0.4012907083	-2.0261734119	-1.4619107464	-0.312766
N	-0.5187114503	-1.0358661389	-1.9800464926	-0.095776
C	-0.8405374482	-0.7496660864	-3.2989157494	 0.374388
C	-1.2885613547	-1.9488009651	-4.1153238121	-0.476269
O	-0.8287825915	 0.3843590056	-3.7303814788	-0.351179
H	 0.5634164159	 2.1592040327	-0.2642334207	 0.1192
H	-1.0622774547	 1.5660849901	-0.623560229	 0.14136
H	-0.5571793075	 1.8214645332	 1.0579547503	 0.111531
H	 1.153177607	-0.0399385243	 0.7912226258	 0.096223
H	-0.5055729824	-0.5993188478	 0.5938784432	 0.100396
H	 2.6309447244	 0.209797872	-1.3360078318	 0.115477
H	 2.018784821	-0.4266924522	-2.8735534562	 0.116647
H	 1.453042399	 1.1355837265	-2.2930387273	 0.153373
H	 1.0674425797	-2.5246457252	-2.163882765	 0.117977
H	 0.0232428538	-2.6616251254	-0.6638199362	 0.117528
H	-0.4160471698	-2.5247428262	-4.4444626769	 0.137092
H	-1.9207529234	-2.617670599	-3.5254675006	 0.138467
H	-1.8262074359	-1.5990796962	-4.9967036868	 0.146286
72.3407	86.1368	95.8671	120.5508	154.4913	202.7969	222.2243	261.3828	318.9201	378.3734	402.425	424.3688	507.1148	577.1997	616.0996	693.9457	740.7389	797.3996	893.9601	911.0198	959.3438	1006.0559	1013.6764	1041.6206	1050.3804	1065.5603	1113.4558	1127.5566	1133.2389	1145.9818	1254.9827	1279.5063	1329.9925	1361.9282	1385.4567	1411.5824	1415.2116	1435.5322	1469.152	1473.5589	1479.3349	1490.5189	1492.2573	1501.4099	1509.398	1514.7923	1779.7808	3024.9913	3041.2602	3043.8793	3044.2477	3068.0461	3090.0078	3110.069	3110.3639	3112.0173	3117.2718	3132.2151	3159.4287	3175.5231
CCC1(C)CN1C(C)=O	CC[C@@]1(C)CN1C(=O)C	
InChI=1S/C7H13NO/c1-4-7(3)5-8(7)6(2)9/h4-5H2,1-3H3	InChI=1S/C7H13NO/c1-4-7(3)5-8(7)6(2)9/h4-5H2,1-3H3/t7-,8?/m0/s1
