19
gdb 57938	2.77851	0.97078	0.8712	2.7954	73.9	-0.2599	-0.0527	0.2072	1417.2634	0.154955	-460.204703	-460.19415	-460.193206	-460.241917	36.814	
C	 0.7316804772	 0.6828133497	-0.5796111526	-0.403338
C	-0.2994513	-0.0680174271	 0.2814761498	 0.056389
O	-0.0621760128	 0.1741756893	 1.6421370339	-0.436739
C	-1.7285322125	 0.3293363737	-0.0749742357	 0.355045
O	-2.4192854713	 0.9019381006	 0.7432275663	-0.332558
C	-2.2764306306	-0.0803183721	-1.4341339062	-0.383635
C	-3.140387102	-1.3453425695	-1.2347983119	 0.381174
C	-4.5684491438	-1.1013850775	-0.8062017799	-0.481441
O	-2.6638153907	-2.4413253637	-1.3944951808	-0.283353
H	 1.7318122683	 0.3999988272	-0.2435848226	 0.142731
H	 0.64404842	 0.4386234268	-1.6419959094	 0.119183
H	 0.6210915985	 1.7635936299	-0.4500419306	 0.128845
H	-0.2159204346	-1.1476893155	 0.0679335155	 0.11153
H	-0.8598530311	 0.6171174601	 1.9714002271	 0.292629
H	-2.886694943	 0.7403626574	-1.8195351925	 0.137411
H	-1.4764137673	-0.3282385762	-2.1316196998	 0.13642
H	-5.1220700972	-0.6397809112	-1.6326966849	 0.145484
H	-5.0454851416	-2.0419537545	-0.5294480721	 0.146308
H	-4.5909512456	-0.3911753875	 0.0267332764	 0.167915
25.9904	53.5557	68.0598	144.1855	174.1884	207.8958	226.7609	299.1382	356.1637	389.8432	413.7747	455.9045	501.1707	540.157	609.1676	734.8142	753.3146	812.2003	898.6934	926.0203	993.0451	1027.1438	1049.6172	1091.4838	1099.1712	1155.0608	1183.769	1238.323	1253.5284	1294.951	1349.8806	1385.0222	1399.3476	1430.8877	1459.817	1470.649	1473.1215	1489.1612	1498.2264	1773.2847	1824.9533	2966.2655	3037.5938	3045.3599	3075.0205	3102.6322	3121.2267	3131.3364	3151.5076	3158.7487	3696.0885
CC(O)C(=O)CC(C)=O	C[C@@H](O)C(=O)CC(=O)C	
InChI=1S/C6H10O3/c1-4(7)3-6(9)5(2)8/h5,8H,3H2,1-2H3	InChI=1S/C6H10O3/c1-4(7)3-6(9)5(2)8/h5,8H,3H2,1-2H3/t5-/m1/s1
