20
gdb 81092	1.90292	1.797	1.13215	2.2584	81.53	-0.2271	-0.0359	0.1912	1159.4159	0.168939	-403.077625	-403.068467	-403.067523	-403.111553	34.163	
C	-0.23787652	 1.5489488068	 0.0185411026	-0.444629
C	 0.0617100886	 0.0630754044	 0.0648541225	 0.023441
C	 1.2427817699	-0.597651505	-0.7079917583	-0.037006
C	 2.242685374	 0.0336235909	 0.3032660359	-0.306155
C	 1.0636548858	-0.569882833	 1.1110351693	 0.252406
C	 0.848935403	-0.6551786163	 2.5829101842	 0.025538
O	 1.3988510569	 0.0525886565	 3.3899215119	-0.248002
N	 1.0197538949	-1.7965907065	 0.2052222155	-0.139165
C	 2.0844632469	-2.7918930898	 0.3213861001	-0.340606
H	 0.6477662299	 2.1823692398	 0.0988996468	 0.127164
H	-0.7392792615	 1.7954545906	-0.923893667	 0.125738
H	-0.9184177443	 1.8257630749	 0.8304808937	 0.13009
H	-0.8469526275	-0.5386514885	-0.0116150565	 0.089171
H	 1.3527978595	-0.7219324074	-1.7871747617	 0.082599
H	 3.2113225789	-0.4500821142	 0.417301067	 0.109874
H	 2.3626754933	 1.1164606423	 0.3062593185	 0.109764
H	 0.1032966026	-1.4245553965	 2.8880414194	 0.082467
H	 1.8743110664	-3.4269731113	 1.187899113	 0.125774
H	 2.0480729133	-3.4289472113	-0.5683903166	 0.12634
H	 3.1113369593	-2.4118282066	 0.4220990197	 0.105194
64.2121	150.825	163.5652	182.8316	204.9737	213.1792	264.6367	405.7538	425.4168	479.0765	536.1819	578.5371	677.8669	709.7996	767.7583	806.1092	860.2687	932.1322	976.1049	1003.224	1008.1794	1057.042	1071.2946	1097.5253	1113.6475	1157.471	1164.8375	1175.9065	1184.8551	1221.0701	1227.9433	1244.1237	1302.4412	1381.9959	1410.0386	1421.1201	1442.3088	1482.6291	1492.9181	1497.5317	1499.6431	1538.1824	1816.4268	2873.4245	2995.4034	3039.6385	3068.8543	3084.8788	3093.0183	3096.3752	3100.2897	3105.649	3128.9917	3157.7206
CC1C2CC1(C=O)N2C	C[C@H]1[C@H]2C[C@]1(C=O)N2C	
InChI=1S/C7H11NO/c1-5-6-3-7(5,4-9)8(6)2/h4-6H,3H2,1-2H3	InChI=1S/C7H11NO/c1-5-6-3-7(5,4-9)8(6)2/h4-6H,3H2,1-2H3/t5-,6+,7+/m0/s1
