15
gdb 66823	2.83322	2.24958	1.85486	2.8916	67.58	-0.2032	-0.0578	0.1454	789.1232	0.112852	-416.662091	-416.655673	-416.654729	-416.692336	26.948	
N	-0.2306600983	 1.5215031182	 0.130064003	-0.630787
C	-0.1525637722	 0.1065398234	-0.0144063667	 0.290983
C	-1.3483005369	-0.828516392	-0.0609790793	-0.152055
C	-0.7526116249	-1.9794025794	-0.8588353658	-0.014832
N	 0.5014538098	-1.7275511527	-1.5311717576	-0.190344
C	 0.8832423148	-0.6745170538	-0.9122398374	 0.129751
O	 1.8594455958	-0.7879432248	 0.0997254249	-0.289482
C	 0.6063873536	-0.8008158084	 0.9524112403	 0.055991
C	-0.5222525559	-1.8798950054	 0.6800747502	-0.130923
H	 0.701655653	 1.9039808972	 0.2676786898	 0.243912
H	-0.5960376114	 1.9416409058	-0.7211056658	 0.239595
H	-2.3978193153	-0.5818561375	 0.0014869164	 0.109044
H	-1.3894955989	-2.772193898	-1.2334655994	 0.110744
H	 0.8381401193	-0.5473593902	 1.9856625588	 0.121709
H	-0.8371674825	-2.6540840225	 1.3645628787	 0.106695
198.7892	260.4935	296.2381	393.3637	493.5029	548.1711	590.4052	651.6875	678.0932	714.2931	731.8654	759.2402	807.7066	833.8228	858.1391	869.4796	911.2478	945.1986	971.2982	999.9812	1021.1729	1035.6729	1042.4519	1102.107	1152.271	1192.6516	1204.1324	1234.6115	1293.3739	1358.5232	1377.9726	1542.3945	1645.9683	3142.405	3189.4978	3221.794	3233.066	3477.0639	3556.0148
NC12C3C4N=C1OC2C34	N[C@@]12[C@H]3[C@H]4[N][C]1O[C@@H]2[C@@H]34	
InChI=1S/C6H6N2O/c7-6-2-1-3(2)8-5(6)9-4(1)6/h1-4H,7H2	InChI=1S/C6H6N2O/c7-6-2-1-3(2)8-5(6)9-4(1)6/h1-4H,7H2/t1-,2+,3-,4+,6+/m0/s1
