22
gdb 104248	2.10102	1.28724	1.09085	4.1009	86.26	-0.2951	0.0285	0.3236	1274.7534	0.193697	-367.232532	-367.222736	-367.221792	-367.266904	36.859	
C	 0.0732705751	 1.5656664407	-0.0704486925	-0.402811
C	-0.0493046118	 0.0535416011	 0.148512334	-0.222799
C	-1.4833639526	-0.4957273797	 0.0606346121	 0.32806
C	-2.4141766381	 0.1330999162	 1.0922389758	-0.466617
C	-2.0144761214	-0.5481899772	-1.4103925954	-0.262152
C	-1.6032004456	-2.0380092731	-1.5078892987	-0.236351
C	-1.507890337	-2.0791543803	 0.0469403717	-0.178933
C	-0.4140523529	-2.8128904565	 0.6589433401	 0.274212
N	 0.4684066488	-3.3864172556	 1.1394557371	-0.343232
H	 1.1259225925	 1.8632614653	-0.0791841235	 0.121182
H	-0.3635817505	 1.8756119061	-1.02602787	 0.117243
H	-0.420918677	 2.1350753555	 0.7219681516	 0.121928
H	 0.577028714	-0.4649255113	-0.58777381	 0.103854
H	 0.3674480041	-0.2085026356	 1.128616642	 0.116299
H	-2.5366686735	 1.2062117795	 0.9159473065	 0.125128
H	-3.4101096524	-0.320499463	 1.0522696625	 0.111631
H	-2.0250485631	 0.0031145755	 2.1088124155	 0.12453
H	-3.0987183293	-0.4138251323	-1.4584211219	 0.103908
H	-1.5503747397	 0.1379221637	-2.1217338853	 0.107205
H	-2.3111013378	-2.733410859	-1.9613800383	 0.114338
H	-0.6277221865	-2.177769774	-1.976714774	 0.126713
H	-2.4475253752	-2.4365193661	 0.4791208307	 0.116663
87.1029	118.6479	126.867	186.0403	216.124	240.9489	273.7408	325.3891	352.0287	376.3162	422.2769	531.7633	577.0196	616.7932	702.5507	773.118	790.2249	868.2035	898.3143	945.6448	958.5159	990.5462	1021.1056	1029.807	1051.4259	1067.6344	1111.3161	1158.1072	1185.1246	1215.6589	1232.758	1264.9731	1273.1159	1290.0573	1334.8358	1359.3014	1375.1243	1411.2129	1415.9113	1479.198	1481.0089	1492.1181	1495.7786	1501.1652	1506.3453	1514.2343	2346.8384	3025.9451	3029.2088	3039.5274	3060.5809	3061.2716	3063.8211	3081.6559	3093.0237	3102.9252	3104.4149	3113.9939	3115.9073	3138.3491
CCC1(C)CCC1C#N	CC[C@@]1(C)CC[C@H]1C#N	
InChI=1S/C8H13N/c1-3-8(2)5-4-7(8)6-9/h7H,3-5H2,1-2H3	InChI=1S/C8H13N/c1-3-8(2)5-4-7(8)6-9/h7H,3-5H2,1-2H3/t7-,8-/m0/s1
