15
gdb 124666	3.68821	1.05218	0.92814	2.6219	67.17	-0.2595	-0.0499	0.2096	1229.1543	0.110691	-453.931441	-453.923079	-453.922135	-453.965778	29.204	
C	-0.4669870563	 1.4752290557	-0.1121168867	-0.40671
C	 0.0880309287	 0.0521429878	-0.0477011895	-0.185305
C	-0.9794431622	-0.9600146372	 0.3887475035	 0.147975
O	-2.0878742403	-0.6569600532	 0.7400502976	-0.229872
C	 0.7103113212	-0.4138492819	-1.3295516776	 0.237959
C	 0.6211313657	 0.0427934403	-2.60771056	-0.043253
O	 1.3508371661	-0.7362063673	-3.4022276428	-0.159064
N	 1.9215293714	-1.7398824904	-2.5638164952	 0.000471
N	 1.5333747674	-1.5230628639	-1.3884895437	-0.175787
H	 0.3227100985	 2.1898572287	-0.3577033637	 0.123472
H	-1.2598164348	 1.5538110587	-0.8618179455	 0.132099
H	-0.9069621037	 1.7498362975	 0.847968172	 0.144182
H	 0.8692145561	-0.012491649	 0.72510769	 0.130333
H	-0.6418178951	-2.0180753076	 0.3590288819	 0.107628
H	 0.1099681073	 0.8720722118	-3.0670437703	 0.175872
35.8914	76.7742	150.0028	199.4694	234.6219	264.7609	372.143	423.7375	587.9904	638.54	646.6942	704.2573	729.7506	850.5092	854.1133	935.4162	980.4095	1025.0424	1077.3847	1103.4072	1119.3621	1155.8016	1224.6351	1290.3709	1311.3393	1346.5392	1405.9359	1424.4069	1462.8805	1490.1858	1497.4425	1611.7588	1834.9556	2910.6615	3002.4493	3052.6993	3121.4859	3142.2086	3291.816
CC(C=O)C1=CON=N1	C[C@@H](C=O)c1conn1	
InChI=1S/C5H6N2O2/c1-4(2-8)5-3-9-7-6-5/h2-4H,1H3	InChI=1S/C5H6N2O2/c1-4(2-8)5-3-9-7-6-5/h2-4H,1H3/t4-/m0/s1
