16
gdb 10871	3.11966	1.9686	1.60358	1.8471	65.11	-0.2402	0.0058	0.246	854.8803	0.129296	-383.706223	-383.698384	-383.69744	-383.738272	28.997	
C	-0.1417790438	 1.5599589762	 0.0273082366	-0.44248
C	 0.0517202809	 0.0510566239	 0.0707632369	-0.008658
C	 1.1964087911	-0.6497425749	-0.7564611438	-0.201334
C	 2.217759513	-0.1253358929	 0.3097705391	-0.296527
C	 0.9867929947	-0.6034308663	 1.1680684312	 0.267049
O	 0.8373097057	-0.5429606076	 2.5297781215	-0.47019
C	 0.994764918	-1.8106097575	 0.2276888803	 0.387936
O	 0.8988883036	-2.9997965504	 0.2767863834	-0.339283
H	 0.7878469904	 2.12981381	 0.0823049506	 0.125037
H	-0.6527382451	 1.8471822225	-0.8973805309	 0.124216
H	-0.7723656708	 1.87389918	 0.8654448621	 0.134199
H	-0.9199913084	-0.4447677275	-0.0235602961	 0.086033
H	 1.3171607322	-0.6707155743	-1.834274251	 0.100507
H	 3.1495019784	-0.6825077932	 0.4221551627	 0.114215
H	 2.3953286712	 0.9480336008	 0.3041118634	 0.11659
H	 0.7390550989	-1.4431103687	 2.8619796342	 0.30269
102.1145	166.5517	170.7705	191.305	231.0168	371.0024	396.6906	517.2165	542.0878	642.8344	728.228	755.0721	788.6062	795.7345	861.5891	929.5599	983.2656	1018.5491	1027.6344	1078.1568	1094.6298	1112.7151	1139.2947	1164.8663	1205.6609	1223.6006	1311.9271	1378.7034	1412.0644	1430.1549	1492.6607	1498.3493	1527.7467	1910.5404	3041.8322	3052.2053	3087.8914	3101.5055	3126.7671	3165.9816	3184.0214	3793.4119
CC1C2CC1(O)C2=O	C[C@H]1[C@H]2C[C@]1(O)C2=O	
InChI=1S/C6H8O2/c1-3-4-2-6(3,8)5(4)7/h3-4,8H,2H2,1H3	InChI=1S/C6H8O2/c1-3-4-2-6(3,8)5(4)7/h3-4,8H,2H2,1H3/t3-,4+,6+/m0/s1
