17
gdb 16279	3.29842	1.78493	1.43776	1.2652	76.4	-0.2221	0.0312	0.2533	928.0812	0.141524	-326.653886	-326.646113	-326.645169	-326.685567	30.061	
C	-0.0608107334	 1.5652405483	 0.0685970237	-0.412475
C	 0.0471798554	 0.0521638042	-0.0289473662	-0.034454
C	 1.1649753574	-0.5780625195	-0.9412301604	-0.237839
C	 1.7192456765	-1.3035326874	 0.2856950037	-0.117082
N	 2.0917014877	-0.2560171409	 1.2534138146	-0.372267
C	 0.6665926275	-0.7022531976	 1.1727937573	 0.225066
C	-0.0121340665	-1.2362661113	 2.2998190369	 0.167417
C	-0.6146328861	-1.670850618	 3.2477162663	-0.410215
H	 0.8994825329	 1.9979046171	 0.3604536123	 0.137714
H	-0.3568561216	 1.9971444986	-0.8935391127	 0.111406
H	-0.8109540363	 1.8577802301	 0.8112535964	 0.118078
H	-0.9212924142	-0.3937816544	-0.2713392094	 0.082247
H	 0.7593107789	-1.2489714839	-1.7008236294	 0.10459
H	 1.8607556946	 0.1260205871	-1.4044250557	 0.109827
H	 2.1607551006	-2.2913776718	 0.3374888826	 0.10454
H	 2.4925701069	-0.7183032549	 2.0695170158	 0.235924
H	-1.1418006704	-2.0589422756	 4.0837408342	 0.187524
120.2185	157.1985	201.524	225.4259	297.8319	401.9405	471.2063	523.4827	540.2839	576.5095	619.9312	660.1638	672.1909	803.6848	854.2526	870.2744	908.8829	937.6407	995.2125	1027.6781	1082.1702	1093.3307	1111.2802	1151.0132	1191.0127	1221.98	1238.0833	1288.9313	1318.9851	1368.4465	1396.7064	1409.7437	1479.0117	1489.6598	1504.2152	2228.8418	3033.4517	3065.1939	3070.9196	3095.1299	3122.6123	3126.9371	3190.8712	3475.856	3502.0513
CC1CC2NC12C#C	C[C@H]1C[C@H]2N[C@@]12C#C	
InChI=1S/C7H9N/c1-3-7-5(2)4-6(7)8-7/h1,5-6,8H,4H2,2H3	InChI=1S/C7H9N/c1-3-7-5(2)4-6(7)8-7/h1,5-6,8H,4H2,2H3/t5-,6+,7-/m0/s1
