19
gdb 83388	2.737	1.73041	1.57297	2.7311	74.8	-0.2225	0.0653	0.2878	950.452	0.160731	-422.948863	-422.941644	-422.940699	-422.979924	30.105	
O	-0.1679102642	 1.5210113829	 0.0168908888	-0.440807
C	-0.0177576958	 0.1259920367	 0.0343265848	 0.09159
C	 0.1181024559	-0.6243039253	 1.3849445562	-0.189376
C	-1.1519062849	-0.020370751	 2.0785918758	-0.080158
O	-2.1476088647	-0.0404644742	 1.0008944687	-0.34038
C	-1.3640576379	-0.6844554883	 0.0196073187	 0.456535
C	-1.6804402695	-1.5140281948	-1.2205056721	-0.334043
C	-0.4593752688	-2.4164210853	-0.7699410117	-0.284746
C	-0.5880589178	-1.8245609889	 0.6884680946	-0.037526
H	 0.7077542426	 1.916836724	-0.0232138804	 0.284339
H	 0.6999830099	-0.209183289	-0.7169476914	 0.072323
H	 1.0270817534	-0.6560021327	 1.9903875504	 0.062068
H	-1.5136760994	-0.6210291961	 2.919681809	 0.099889
H	-0.9890779291	 1.0128576058	 2.3923280088	 0.115419
H	-2.6242733483	-2.0582220662	-1.1304391462	 0.117189
H	-1.6361749296	-1.0205981339	-2.1946044368	 0.105803
H	-0.6430875374	-3.4908596463	-0.8090616224	 0.108603
H	 0.4671434138	-2.2095149252	-1.3069482004	 0.113487
H	-1.1470700785	-2.4947973422	 1.3434278156	 0.079792
208.2544	235.9647	254.1063	303.4376	313.6177	372.2524	454.496	551.8541	619.1363	673.2058	732.0669	772.2131	801.2525	824.207	863.1385	875.2702	889.4448	933.7267	948.2261	1010.0633	1024.4441	1048.3201	1079.7473	1098.1127	1129.1028	1166.359	1169.4414	1189.5932	1207.8518	1219.0044	1224.564	1243.1644	1250.8251	1298.2426	1311.2277	1329.8437	1363.3355	1444.7113	1480.3053	1494.868	1501.5695	3046.0265	3060.9459	3075.0054	3082.5713	3086.6154	3096.4894	3113.6615	3114.4102	3138.1273	3828.3188
OC1C2COC11CCC21	O[C@H]1[C@H]2CO[C@]31CC[C@@H]23	
InChI=1S/C7H10O2/c8-6-4-3-9-7(6)2-1-5(4)7/h4-6,8H,1-3H2	InChI=1S/C7H10O2/c8-6-4-3-9-7(6)2-1-5(4)7/h4-6,8H,1-3H2/t4-,5-,6-,7+/m0/s1
