19
gdb 60311	3.69974	0.76785	0.67101	2.1112	80.44	-0.2776	-0.0398	0.2378	1690.2716	0.155608	-423.028326	-423.017885	-423.016941	-423.064847	36.727	
C	-0.0346653589	 1.5508648183	 0.106547741	-0.38494
C	 0.0043657036	 0.0184591846	 0.053060101	 0.009473
C	 0.646108798	-0.4857768858	-1.2463946762	-0.394932
C	 0.7503954504	-0.5665089103	 1.2471819052	-0.054293
O	 0.0437311476	-0.1887611179	 2.4495808191	-0.237331
C	 0.6002831899	-0.5915862047	 3.6024198235	 0.298245
O	 1.6188445742	-1.2310678401	 3.6932483172	-0.354216
C	-0.1885632185	-0.1545296756	 4.735449688	 0.221641
C	-0.8030975226	 0.182564846	 5.7111657381	-0.359498
H	 0.9774561579	 1.9687692559	 0.0441395533	 0.112462
H	-0.612854393	 1.9539409553	-0.7306364674	 0.113668
H	-0.4885754241	 1.9020152018	 1.0363757682	 0.130957
H	-1.02654408	-0.3567405506	 0.1000905296	 0.088129
H	 1.6874675437	-0.1526562903	-1.3271192911	 0.118835
H	 0.6383490828	-1.5791719023	-1.3046852728	 0.116702
H	 0.1078045477	-0.099508935	-2.1169144938	 0.119246
H	 0.8006854609	-1.659226371	 1.2005400354	 0.121218
H	 1.7774943502	-0.1891187108	 1.3074867037	 0.122685
H	-1.3467945598	 0.4804226527	 6.5744804779	 0.211948
36.5347	59.4482	97.9194	163.4313	196.5535	214.4792	246.856	266.9697	299.7925	341.8597	421.3278	426.2974	566.7151	609.6704	656.8431	697.0474	775.0552	823.8108	911.6497	927.0125	933.6242	957.996	978.5087	1022.5548	1153.8991	1187.7818	1200.1964	1254.3997	1274.2408	1329.8832	1373.3924	1399.7912	1405.4711	1427.6839	1488.2972	1490.4239	1502.7482	1506.0359	1514.1087	1790.7271	2237.1537	3020.5165	3028.3346	3032.3414	3043.3034	3087.4344	3094.0884	3100.4229	3107.6862	3123.4484	3498.2486
CC(C)COC(=O)C#C	CC(C)COC(=O)C#C	
InChI=1S/C7H10O2/c1-4-7(8)9-5-6(2)3/h1,6H,5H2,2-3H3	InChI=1S/C7H10O2/c1-4-7(8)9-5-6(2)3/h1,6H,5H2,2-3H3
