16
gdb 34896	1.9584	1.92399	1.2106	4.1892	77.75	-0.2717	0.0147	0.2865	1045.1338	0.124041	-363.559927	-363.551878	-363.550934	-363.592691	30.486	
C	-0.1909026582	-1.2627537442	-0.0061356335	-0.444307
C	-0.1216350289	-0.0630736569	 0.0203974672	 0.348257
C	-0.0162848036	 1.3805619468	 0.0641809815	-0.222231
C	-0.2833072031	 2.0951130513	 1.4045614317	-0.046684
C	 0.7444994154	 1.7042814429	 2.423599698	-0.289473
C	 1.1046752815	 2.7296752564	 1.3872639315	-0.052416
C	 1.4335705388	 2.0524191893	 0.046667029	-0.192468
C	 2.6022188429	 1.1857633655	 0.0009061509	 0.299891
N	 3.5310169141	 0.4979146982	-0.0237889285	-0.333001
H	-0.2489431777	-2.3229595613	-0.0328434739	 0.204954
H	-0.6043675889	 1.8248959007	-0.7430514272	 0.117961
H	-1.2346270261	 2.5372600148	 1.6700306196	 0.104835
H	 0.5801575589	 2.103030843	 3.4188228688	 0.124663
H	 1.1924921503	 0.714800425	 2.4040133481	 0.142962
H	 1.4056490639	 3.7381280923	 1.6383547782	 0.107037
H	 1.4925074807	 2.7687663863	-0.7754756513	 0.130019
95.8296	98.4933	161.8279	206.842	310.8045	389.191	435.0933	515.4536	574.3459	609.157	639.2616	653.2986	730.8667	761.8559	798.6288	814.365	927.2976	977.6429	979.2283	1028.1717	1045.7943	1051.9288	1067.194	1074.4102	1092.25	1154.6435	1199.7604	1244.7558	1282.0549	1327.3312	1341.1161	1368.2354	1491.5229	2237.2316	2354.8756	3070.3026	3092.8655	3126.2871	3195.0038	3202.7194	3217.493	3502.1558
C#CC1C2CC2C1C#N	C#C[C@H]1[C@H]2C[C@H]2[C@H]1C#N	
InChI=1S/C8H7N/c1-2-5-6-3-7(6)8(5)4-9/h1,5-8H,3H2	InChI=1S/C8H7N/c1-2-5-6-3-7(6)8(5)4-9/h1,5-8H,3H2/t5-,6+,7+,8-/m0/s1
