17
gdb 23487	4.03062	1.31943	1.17006	1.1279	74.96	-0.2402	0.009	0.2492	1055.1142	0.137645	-417.925757	-417.918728	-417.917784	-417.957115	28.378	
O	-0.1325993126	 1.3306338542	-0.0732501794	-0.395857
N	 0.0302520623	-0.0701047953	-0.0386331528	-0.258698
C	-1.0965429109	-0.6519264599	 0.0325469324	 0.438566
C	-2.4917853719	-0.0588124334	 0.1225069957	-0.256456
N	-3.3690174649	-1.1729792004	 0.5309271546	-0.105795
C	-3.389105706	-2.3816298142	-0.3124388504	-0.038301
C	-2.1377556876	-2.5413559791	-1.1838745855	-0.254459
C	-1.2716163228	-2.1390050294	 0.0659019358	-0.153121
C	-2.5613884508	-2.317904933	 0.9313712867	-0.057035
H	 0.7792045371	 1.6402474052	-0.0837871937	 0.306701
H	-2.5321805704	 0.7281261507	 0.8817755252	 0.139435
H	-2.8186487526	 0.3860527303	-0.823166832	 0.13143
H	-4.3571745237	-2.8372989835	-0.4872831982	 0.096149
H	-1.9816376328	-3.591145213	-1.443788053	 0.114765
H	-2.0382238897	-1.928496491	-2.0854753065	 0.10504
H	-0.3749245696	-2.7196585305	 0.2649520882	 0.090174
H	-2.6657539231	-2.7686163478	 1.9107221529	 0.097462
105.7292	213.3576	253.8132	359.8175	414.2452	423.2252	453.8787	563.1757	668.9061	720.4669	736.4573	791.4118	829.5007	838.8911	885.7826	919.3152	955.3414	968.1541	977.5786	1003.8789	1025.0825	1050.3317	1078.7071	1124.2715	1172.1734	1189.6013	1216.6131	1231.8103	1250.9756	1262.7559	1286.9114	1299.4669	1352.3388	1410.1223	1474.1886	1497.2075	1767.1556	3048.446	3054.8056	3091.7341	3108.3495	3158.202	3173.4599	3190.7217	3820.624
ON=C1CN2C3CC1C23	ON=C1CN2[C@H]3C[C@@H]1[C@@H]23	
InChI=1S/C6H8N2O/c9-7-4-2-8-5-1-3(4)6(5)8/h3,5-6,9H,1-2H2	InChI=1S/C6H8N2O/c9-7-4-2-8-5-1-3(4)6(5)8/h3,5-6,9H,1-2H2/t3-,5-,6+,8?/m0/s1
