17
gdb 113295	2.63595	1.13079	0.90609	2.8426	71.89	-0.2564	-0.0608	0.1956	1313.2021	0.131811	-458.959583	-458.950007	-458.949063	-458.994486	33.319	
C	-0.0396550075	 1.3541734726	-0.5628668811	-0.382656
C	-0.1344907901	 0.0392035876	 0.2243614295	-0.233577
C	-1.4864225821	-0.6019825376	 0.0400669913	 0.033263
O	-1.7477975065	-1.2877798355	-1.1645074905	-0.261509
C	-1.7147568825	-2.0906126343	 0.0196374424	 0.171374
C	-0.5762782686	-3.0598094253	 0.1883976069	 0.090704
O	 0.472045786	-2.9821174347	-0.3994283713	-0.250267
C	-3.0634714936	-2.5455504731	 0.4905297058	 0.103354
O	-3.2355906196	-3.4315173108	 1.2881434179	-0.249646
H	 0.9397579609	 1.8172622574	-0.4162479157	 0.126048
H	-0.1733394661	 1.1737690712	-1.633335058	 0.140279
H	-0.8018740918	 2.0722841319	-0.241668879	 0.117953
H	 0.6397935846	-0.6566304598	-0.1038084746	 0.150994
H	 0.0125548518	 0.229217505	 1.2946861194	 0.110771
H	-2.3350883772	-0.0106992283	 0.3983739128	 0.104725
H	-0.7958759718	-3.8687945656	 0.9107942906	 0.124827
H	-3.900992606	-1.9765298109	 0.0302833437	 0.103363
70.2657	103.7516	134.8064	152.6602	197.065	204.0408	254.69	283.8622	297.7553	431.097	503.0519	504.4866	676.6372	748.5374	783.7931	828.5808	888.8627	960.2154	1002.7371	1038.5026	1060.9258	1067.806	1131.7485	1163.6955	1232.1616	1294.6066	1319.4406	1348.2897	1403.9907	1409.0756	1414.4277	1460.2034	1479.6586	1498.796	1506.9882	1814.422	1826.5444	2899.0382	2962.3372	3039.0048	3040.8058	3063.7646	3102.9575	3121.7577	3130.662
CCC1OC1(C=O)C=O	CC[C@H]1OC1(C=O)C=O	
InChI=1S/C6H8O3/c1-2-5-6(3-7,4-8)9-5/h3-5H,2H2,1H3	InChI=1S/C6H8O3/c1-2-5-6(3-7,4-8)9-5/h3-5H,2H2,1H3/t5-/m1/s1
