17
gdb 26767	3.6456	1.08176	0.84021	1.6895	91.59	-0.1767	0.0052	0.1819	1338.4452	0.135455	-380.881398	-380.871929	-380.870985	-380.915465	34.897	
C	-0.0432958663	 1.4966469042	 0.127541889	-0.522787
C	-0.0096866134	 0.0134123229	-0.0161903871	 0.265015
C	-0.0368587721	-0.7693890625	-1.1622054111	 0.19883
N	-0.1471693353	-0.2652356381	-2.4799302659	-0.61747
C	-0.0044098652	-2.1267211467	-0.7597300339	-0.345051
C	 0.0465551409	-2.1550899887	 0.6280603162	 0.186648
N	 0.0558156302	-0.8436138674	 1.0541021319	-0.377027
C	 0.0881204366	-3.2319623451	 1.5311506526	 0.255885
C	 0.1265757867	-4.1445294734	 2.3195409833	-0.457696
H	 0.9502044916	 1.9377923793	 0.2872041637	 0.126448
H	-0.4591443485	 1.9388928528	-0.7823275057	 0.146234
H	-0.6756991035	 1.808555187	 0.9668901593	 0.125051
H	 0.6159442418	 0.3568231487	-2.7208885278	 0.239282
H	-0.1603043817	-1.0156045108	-3.1591356902	 0.238527
H	-0.0176871673	-2.9956705952	-1.3998474422	 0.092797
H	 0.0870606345	-0.567542974	 2.020237738	 0.260605
H	 0.158443901	-4.9549475429	 3.0040728799	 0.184709
96.4787	118.1287	132.8421	138.954	223.1105	249.3191	307.0373	395.2563	425.8551	463.8759	501.7549	527.4459	569.7736	634.915	661.6664	673.2252	674.9748	777.8557	793.1421	817.5006	998.5019	1019.3897	1059.0693	1091.0359	1183.1402	1217.8351	1268.3631	1341.1033	1410.5261	1429.6787	1481.1674	1490.6846	1507.7428	1528.0964	1635.996	1657.3621	2218.9975	3006.9084	3060.3146	3109.8153	3248.5248	3504.4217	3519.8937	3607.201	3679.049
CC1=C(N)C=C(N1)C#C	Cc1c(N)cc([nH]1)C#C	
InChI=1S/C7H8N2/c1-3-6-4-7(8)5(2)9-6/h1,4,9H,8H2,2H3	InChI=1S/C7H8N2/c1-3-6-4-7(8)5(2)9-6/h1,4,9H,8H2,2H3
