15
gdb 32486	6.67527	0.8724	0.77744	4.6868	75.95	-0.2158	-0.0704	0.1454	1402.092	0.112666	-453.977494	-453.969167	-453.968223	-454.010828	29.491	
C	 0.0894584927	 1.3925299631	 0.1225549215	-0.333921
N	-0.1194898856	-0.0253751208	-0.0980202092	-0.38043
C	 0.5599512492	-0.6470177385	-1.1171340134	 0.311349
C	 1.2019797294	-0.117749419	-2.2109722809	-0.115018
O	 1.6723132793	-1.1571042451	-2.9604017495	-0.146598
C	 1.3060950929	-2.2611535749	-2.2836293644	 0.294918
C	 1.6561393089	-3.5897161492	-2.7970769625	 0.079507
O	 2.2674940538	-3.7938408478	-3.8184963632	-0.261012
N	 0.6450243125	-2.0187890029	-1.1817657449	-0.348814
H	 1.1437166476	 1.6560234612	 0.3013365038	 0.119593
H	-0.2589303617	 1.9594899443	-0.7480960898	 0.137133
H	-0.5022719664	 1.7120947247	 0.9822788144	 0.136283
H	-0.1900201313	-0.5974292263	 0.7299978086	 0.252318
H	 1.3932485312	 0.8735102073	-2.5799695217	 0.149923
H	 1.2915694775	-4.3998135062	-2.1348608387	 0.104769
76.0668	129.9782	151.0246	182.0815	236.9326	276.5607	364.7878	386.3616	486.5362	609.5319	668.3545	688.0948	713.2088	742.5835	790.0314	982.8977	1002.7764	1023.5754	1103.1381	1138.323	1156.4706	1172.6764	1266.26	1317.3041	1382.7558	1393.2442	1461.3295	1481.677	1492.358	1521.206	1570.0787	1646.897	1797.2461	2944.3469	2982.5698	3062.9794	3129.9985	3305.8567	3616.7457
CNC1=COC(C=O)=N1	CNc1coc(C=O)n1	
InChI=1S/C5H6N2O2/c1-6-4-3-9-5(2-8)7-4/h2-3,6H,1H3	InChI=1S/C5H6N2O2/c1-6-4-3-9-5(2-8)7-4/h2-3,6H,1H3
