23
gdb 119915	2.99873	0.94611	0.9004	2.1011	83.71	-0.2432	0.0702	0.3134	1472.7297	0.203423	-425.403594	-425.392913	-425.391969	-425.43894	39.433	
C	-0.3751679315	 1.2867902086	-0.355589675	-0.22943
O	-0.3345742372	-0.1127618273	-0.5256234643	-0.242747
C	 0.9742255863	-0.5919679809	-0.8467328692	-0.10825
C	 0.9199751467	-2.0957360364	-0.9439714843	-0.131639
C	-0.0795590553	-2.715048867	-1.8997264035	 0.07658
O	-0.8281630825	-1.8625485689	-2.7136089607	-0.433413
C	 1.3958872184	-2.874314216	-2.1733406261	 0.281137
C	 1.9955654505	-2.1480908748	-3.3614819055	-0.455738
C	 2.0092430815	-4.2342792157	-1.8960850759	-0.451397
H	 0.2775026376	 1.610059068	 0.4696978269	 0.109564
H	-0.0646907065	 1.8196498191	-1.2678292186	 0.109173
H	-1.4062705309	 1.5594244864	-0.1184881887	 0.129924
H	 1.3101979466	-0.1288154779	-1.7842578847	 0.100563
H	 1.6797233225	-0.2795707805	-0.0611569447	 0.095019
H	 1.0387550065	-2.6048495563	 0.0083387828	 0.083076
H	-0.6227314892	-3.5960774827	-1.5556471928	 0.078016
H	-1.1537511432	-1.1594675443	-2.1344061041	 0.292364
H	 1.3774797242	-1.304476824	-3.6716490965	 0.134621
H	 3.0095292599	-1.7904134777	-3.1475281133	 0.106402
H	 2.0617585234	-2.8305881369	-4.2163906306	 0.114175
H	 1.9248190179	-4.8866057194	-2.7730408443	 0.116483
H	 3.0736312057	-4.1450221329	-1.6477842131	 0.113561
H	 1.5152216187	-4.7362832323	-1.0579808036	 0.111956
74.2137	110.4233	130.2563	182.3354	211.7388	224.1547	236.0032	268.2053	288.5759	304.4048	335.7458	407.2999	472.8454	495.4913	552.8823	659.0172	713.5755	812.8168	855.1523	953.6518	973.2508	987.2137	998.7955	1025.8954	1046.3445	1098.7182	1125.984	1152.8127	1166.9852	1183.5536	1188.3709	1222.8285	1252.2684	1281.4362	1325.1344	1355.9614	1389.3219	1405.1473	1417.2822	1428.9104	1448.9994	1479.6607	1485.6208	1486.3825	1489.7485	1500.9485	1507.1038	1513.2322	1528.1181	2973.8712	2985.3431	3019.7454	3022.7615	3027.6211	3030.9255	3080.132	3082.928	3085.8046	3096.4526	3116.5767	3136.4971	3143.9712	3734.7416
COCC1C(O)C1(C)C	COC[C@H]1[C@@H](O)C1(C)C	
InChI=1S/C7H14O2/c1-7(2)5(4-9-3)6(7)8/h5-6,8H,4H2,1-3H3	InChI=1S/C7H14O2/c1-7(2)5(4-9-3)6(7)8/h5-6,8H,4H2,1-3H3/t5-,6+/m0/s1
