18
gdb 6109	2.89519	1.81088	1.50826	2.2614	68.01	-0.2481	-0.025	0.2231	926.2964	0.151013	-384.952233	-384.943402	-384.942458	-384.985023	32.743	
C	-0.15176773	 1.5030423393	 0.123039431	-0.434041
C	-0.0272752739	-0.0170637534	 0.0160970954	 0.256054
C	-1.3578961839	-0.6799854852	-0.3197643225	-0.456897
C	 1.2042336165	-0.4397603663	-0.8665820855	-0.373038
C	 1.9978576915	-0.4885722708	 0.4404401864	 0.339003
O	 3.116288473	-0.1903833338	 0.7608050619	-0.313488
C	 0.729347739	-0.6184434265	 1.274968257	 0.036913
O	 0.691768524	 0.0097658057	 2.5193291149	-0.429617
H	 0.8157904125	 1.9775094578	 0.3193132155	 0.118417
H	-0.5471933007	 1.9245159894	-0.8068744768	 0.115884
H	-0.8236551706	 1.7775711531	 0.9411175438	 0.131777
H	-1.740716558	-0.3306118931	-1.2851735556	 0.118794
H	-1.2578177662	-1.7694281057	-0.373553907	 0.111736
H	-2.1117049627	-0.4485366056	 0.4408159019	 0.127105
H	 1.079820565	-1.4296785091	-1.3166118846	 0.124841
H	 1.5642716202	 0.2601099517	-1.6233917836	 0.129004
H	 0.4382911848	-1.6736054826	 1.3815802125	 0.099845
H	 1.5417227295	 0.452239935	 2.6385098854	 0.297707
89.5678	164.0124	210.9681	222.753	234.1936	253.7104	300.2241	330.1879	370.3209	413.1691	531.3976	604.8499	657.0405	756.7992	775.1548	835.9695	896.2612	962.1974	982.9937	998.6096	1044.0672	1095.185	1133.5434	1152.0374	1192.4313	1227.6153	1268.4038	1284.3738	1343.8106	1405.026	1406.9805	1423.0258	1450.1928	1481.5966	1489.2725	1503.3509	1503.6623	1869.5025	3005.1484	3023.6809	3033.85	3061.1335	3092.0324	3095.0788	3098.537	3114.1108	3125.4425	3773.7492
CC1(C)CC(=O)C1O	CC1(C)CC(=O)[C@H]1O	
InChI=1S/C6H10O2/c1-6(2)3-4(7)5(6)8/h5,8H,3H2,1-2H3	InChI=1S/C6H10O2/c1-6(2)3-4(7)5(6)8/h5,8H,3H2,1-2H3/t5-/m1/s1
