18
gdb 78948	2.49963	2.15366	1.60058	1.8596	73.33	-0.2313	0.0745	0.3058	898.392	0.14823	-401.864954	-401.857733	-401.856789	-401.896112	29.519	
C	 0.000314896	 1.4919527847	-0.0157191051	-0.506561
C	-0.0398826379	 0.0011296243	 0.1466731371	 0.304252
C	-1.3193136806	-0.8134868364	 0.4262703683	 0.12833
O	-2.272317356	-0.9790846859	-0.5846952961	-0.447186
C	-0.3413021205	-1.9564594456	 0.7965967254	-0.125952
C	 0.5048914327	-2.1745971179	-0.4713158695	-0.066513
C	 1.6436721643	-1.3604101164	 0.0034476979	-0.057206
C	 0.7521044948	-0.8726496548	 1.174260839	-0.133307
N	 0.6842507201	-0.7591357611	-0.9735820362	-0.199526
H	 1.026310683	 1.8456631732	-0.1589128137	 0.124639
H	-0.5839236027	 1.7908186287	-0.892869606	 0.131758
H	-0.4192402445	 1.9926997402	 0.8626399557	 0.117149
H	-1.8382927639	-0.4345729823	 1.3135467921	 0.089923
H	-1.7899265262	-1.1577242135	-1.4010427233	 0.29393
H	-0.6078977299	-2.8066208625	 1.4203766859	 0.074918
H	 0.464426188	-2.9665606148	-1.2085541315	 0.098825
H	 2.7113867472	-1.4192969836	-0.1706180825	 0.097328
H	 1.0258902361	-0.5949132564	 2.1878873925	 0.075198
171.9144	197.042	221.1132	289.2779	315.6874	389.7685	567.2261	588.189	642.7731	742.5342	762.2048	786.4522	807.3666	836.8019	847.7158	870.3055	879.9958	925.1743	939.3047	978.4688	1004.2087	1036.003	1068.1447	1111.0261	1115.0017	1136.632	1149.6883	1183.0676	1194.3715	1219.3171	1248.4472	1272.6409	1305.6214	1331.9681	1336.5921	1413.1134	1437.5435	1483.6028	1487.4902	3032.3666	3063.7695	3101.6757	3106.4783	3144.275	3158.1664	3180.078	3195.9445	3789.0693
CC12C(O)C3C4C(C13)N24	C[C@]12[C@@H](O)[C@H]3[C@@H]4[C@H]([C@@H]13)N24	
InChI=1S/C7H9NO/c1-7-3-2(6(7)9)4-5(3)8(4)7/h2-6,9H,1H3	InChI=1S/C7H9NO/c1-7-3-2(6(7)9)4-5(3)8(4)7/h2-6,9H,1H3/t2-,3+,4-,5+,6+,7-,8?/m1/s1
