18
gdb 22389	2.71354	1.51804	1.15197	1.2738	75.52	-0.2411	0.0133	0.2544	1082.479	0.148248	-439.03727	-439.02939	-439.028446	-439.069297	31.65	
O	-0.0748765579	 1.2498593906	-0.0144723212	-0.395054
N	-0.0050703203	-0.1544467086	 0.0213390635	-0.311416
C	-1.1512598585	-0.6915909311	 0.0269080093	 0.41592
C	-2.5725890699	-0.1665652213	 0.0038682267	-0.315925
C	-3.2769748262	-1.5473816604	 0.0336826164	-0.041571
C	-2.4563889877	-2.3603455003	-1.0094337332	-0.281715
C	-1.3221823688	-2.1876539535	 0.063194237	 0.363077
O	-0.1819460955	-2.9620074065	 0.0904527102	-0.491844
C	-2.471089919	-2.3067600673	 1.1274263287	-0.281717
H	 0.8544518738	 1.5033314865	-0.0144636574	 0.30653
H	-2.7943917106	 0.4615455486	 0.8724140616	 0.12563
H	-2.7821267336	 0.4170674365	-0.8981077293	 0.125635
H	-4.364417161	-1.5511945043	 0.0262914601	 0.07513
H	-2.775832714	-3.4017857676	-1.0817523912	 0.109539
H	-2.2989581352	-1.9322284808	-2.0032341988	 0.098323
H	 0.5710545989	-2.3551218902	 0.0804580619	 0.291599
H	-2.3271963888	-1.8293146997	 2.1005903667	 0.098323
H	-2.7918328858	-3.3433839706	 1.2474493489	 0.109537
114.3695	176.0883	276.8581	290.1978	326.469	374.5544	396.9793	453.0374	459.2769	579.3413	592.3534	596.3565	702.6734	817.1373	830.8238	888.8892	893.8834	897.4089	976.4474	978.1695	993.0424	1006.5744	1064.0951	1064.4063	1126.4851	1132.5374	1157.9605	1179.5966	1216.6552	1243.0549	1270.2463	1304.8562	1353.3421	1406.393	1421.3878	1472.5553	1483.113	1526.2062	1792.9417	3053.5919	3058.3935	3063.4709	3095.2253	3127.5731	3131.6802	3143.2535	3746.4207	3816.8932
ON=C1CC2CC1(O)C2	ON=C1C[C@H]2C[C@]1(O)C2	
InChI=1S/C6H9NO2/c8-6-2-4(3-6)1-5(6)7-9/h4,8-9H,1-3H2	InChI=1S/C6H9NO2/c8-6-2-4(3-6)1-5(6)7-9/h4,8-9H,1-3H2/t4-,6-
