16
gdb 25030	4.99077	0.98377	0.86497	3.6657	72.17	-0.1983	0.0246	0.223	1288.7203	0.126811	-434.094999	-434.087089	-434.086145	-434.127979	29.614	
O	-0.3565254159	-0.0055315601	-0.6169632076	-0.428174
C	-0.1522770163	 1.1440972755	-0.2854325477	 0.443328
N	-0.9487219678	 1.9747207907	 0.4980486096	-0.333354
C	-0.3657795745	 3.2261988813	 0.6640303797	-0.188413
C	 0.8120714878	 3.2245429727	-0.0017296254	 0.324302
N	 0.9334209332	 1.9580775772	-0.5864779349	-0.409292
C	 1.8348129543	 4.2669832309	-0.1762144617	-0.128305
C	 1.9993077298	 5.3345331202	 0.8398147418	-0.231701
N	 3.0375773749	 4.3028858583	 0.699406605	-0.311141
H	-1.8273891586	 1.6644435506	 0.872515521	 0.270318
H	-0.846028367	 4.017439925	 1.2128474993	 0.141404
H	 1.7188765833	 1.6216215961	-1.1156801285	 0.270807
H	 2.0781316307	 4.5090780772	-1.2095025308	 0.105746
H	 2.2935912489	 6.3307662682	 0.5238292961	 0.125205
H	 1.3570196135	 5.307950044	 1.7154342427	 0.115623
H	 2.9193303238	 3.6155847422	 1.4414337016	 0.233649
60.2307	122.9979	170.6467	212.9395	353.635	394.6815	424.8025	496.3229	533.7967	599.6471	673.8538	729.825	755.5392	762.8898	828.6685	864.2824	955.8109	983.0937	991.1264	1017.4422	1090.8322	1112.6895	1142.3485	1179.1707	1189.3103	1220.8873	1274.7646	1301.4279	1356.5577	1382.4735	1398.2248	1447.8604	1506.3067	1681.551	1848.6856	3115.2165	3118.0497	3201.2726	3287.602	3488.5129	3688.9679	3698.8614
O=C1NC=C(N1)C1CN1	O=c1[nH]cc([nH]1)[C@H]1CN1	
InChI=1S/C5H7N3O/c9-5-7-2-4(8-5)3-1-6-3/h2-3,6H,1H2,(H2,7,8,9)	InChI=1S/C5H7N3O/c9-5-7-2-4(8-5)3-1-6-3/h2-3,6H,1H2,(H2,7,8,9)/t3-/m1/s1
