18
gdb 82634	2.37247	1.74543	1.35305	3.3475	71.25	-0.2173	0.0635	0.2807	1007.878	0.147716	-439.009624	-439.001478	-439.000534	-439.04178	32.216	
C	-0.1517003751	 1.4459674795	 0.0108013852	-0.518164
C	-0.0177455811	-0.0450691787	 0.0828351507	 0.236488
C	-0.0441233858	-0.9453060843	-1.1796984058	-0.192191
N	 0.7323711031	-2.1575582592	-0.828008359	-0.333921
C	 0.0166172757	-2.1189183227	 0.4931429349	-0.193688
C	 0.709474489	-0.889008761	 1.1396047626	 0.160152
O	 2.1039506351	-0.8980327998	 1.20260848	-0.451615
C	-1.0774880731	-1.1081052852	-0.0906827492	 0.304729
O	-2.4342875233	-0.9600854285	 0.0206720918	-0.444689
H	 0.8194747031	 1.9171681043	-0.1738152417	 0.130857
H	-0.8325863848	 1.7479411929	-0.7919813665	 0.120874
H	-0.5484332694	 1.8497966385	 0.9485233447	 0.126037
H	-0.0867315734	-0.5255939193	-2.1767547345	 0.098335
H	 0.3760821137	-2.9417076154	-1.3711642079	 0.217838
H	-0.1158250494	-3.0610016932	 1.021277222	 0.076078
H	 0.3185656333	-0.6796543882	 2.1394859761	 0.086955
H	 2.3814713598	-1.3216864545	 0.3757843571	 0.283987
H	-2.8666463974	-1.6429153652	-0.5051316206	 0.29194
161.3027	174.9688	180.3697	237.5454	298.2755	320.6377	379.3808	402.0295	544.9809	547.4789	608.5895	648.717	681.7921	732.8755	805.7149	823.8733	889.8868	917.6834	951.1662	974.7534	1009.6454	1013.2661	1051.2536	1106.1829	1109.3534	1142.1956	1154.4654	1212.4503	1229.5026	1273.939	1294.3507	1308.7199	1335.6012	1360.2964	1416.3733	1446.2163	1484.2145	1490.0271	1509.6039	3029.2003	3079.6927	3093.6127	3098.0571	3141.9306	3200.6182	3475.1008	3709.5943	3782.4972
CC12C3NC(C1O)C23O	C[C@@]12[C@H]3N[C@@H]([C@H]1O)[C@@]23O	
InChI=1S/C6H9NO2/c1-5-3(8)2-6(5,9)4(5)7-2/h2-4,7-9H,1H3	InChI=1S/C6H9NO2/c1-5-3(8)2-6(5,9)4(5)7-2/h2-4,7-9H,1H3/t2-,3+,4+,5-,6-/m0/s1
