16
gdb 29396	5.51334	0.98373	0.83912	0.6822	76.57	-0.2043	-0.0099	0.1943	1325.214	0.126071	-434.148287	-434.140072	-434.139128	-434.181352	30.08	
C	-0.0645925628	 1.5110580159	 0.0726107212	-0.48864
C	 0.0110985695	 0.0227749195	-0.0220493527	 0.281935
C	 0.2430198847	-0.7537473041	-1.1272741319	-0.18717
N	 0.2137594105	-2.0648118832	-0.6845602854	-0.28397
C	-0.0310265512	-2.0050883369	 0.6459073242	 0.478724
N	-0.1326453305	-3.139246661	 1.4481993045	-0.392189
C	-0.0040621883	-4.4250379497	 1.0197336294	 0.151448
O	 0.2186290606	-4.75550756	-0.1309410415	-0.33522
N	-0.1607488457	-0.7799691499	 1.0938662622	-0.398425
H	 0.0961480325	 1.9737380596	-0.9048424974	 0.117913
H	-1.0419461005	 1.8344187854	 0.4472264316	 0.131411
H	 0.6896803759	 1.9022457496	 0.764104868	 0.131422
H	 0.4216015428	-0.5091647396	-2.1607426824	 0.127148
H	 0.3392247172	-2.9322072581	-1.1855340135	 0.288411
H	-0.3176054747	-2.951387888	 2.4222555119	 0.276744
H	-0.12550305	-5.1505640895	 1.8424750218	 0.10046
79.6501	118.7975	181.0767	194.9685	273.1449	283.8824	395.5445	423.3674	589.8011	597.3143	630.0297	676.5376	712.9749	716.7796	741.6502	875.8164	992.6521	1011.0716	1014.4471	1025.2223	1065.7165	1111.2963	1150.8033	1255.953	1297.0229	1362.8583	1415.7158	1427.1949	1445.5783	1475.7432	1491.7792	1540.5688	1605.2545	1629.2961	1775.0973	2988.7557	3032.882	3085.9073	3116.0691	3278.6609	3619.6331	3632.2012
CC1=CNC(NC=O)=N1	Cc1c[nH]c(NC=O)n1	
InChI=1S/C5H7N3O/c1-4-2-6-5(8-4)7-3-9/h2-3H,1H3,(H2,6,7,8,9)	InChI=1S/C5H7N3O/c1-4-2-6-5(8-4)7-3-9/h2-3H,1H3,(H2,6,7,8,9)
