18
gdb 26171	2.66207	1.35559	1.09391	1.9736	75.56	-0.1989	0.0202	0.2191	1169.7088	0.148027	-435.279326	-435.27025	-435.269306	-435.313356	33.132	
C	 0.2610667705	 1.0869956306	-0.4732281895	-0.322329
N	 0.0153263526	-0.1271488301	 0.3056773798	-0.187446
C	 0.4383398003	 0.0208195533	 1.699847919	-0.326404
C	-1.2933332911	-0.6255943096	 0.1669733427	 0.199401
C	-1.6377750465	-1.8582720131	-0.2963519129	 0.294154
N	-0.9033012975	-2.9680748217	-0.6686621042	-0.599131
O	-2.9927647154	-1.9647872471	-0.2731160794	-0.17492
C	-3.4158565545	-0.7543447699	 0.2121904255	 0.05183
N	-2.4674359898	 0.0649596298	 0.4966924021	-0.289163
H	 1.3277309037	 1.3322014335	-0.4333595919	 0.111032
H	-0.0154058217	 0.9134335661	-1.5165540438	 0.116577
H	-0.3087912306	 1.9549013811	-0.1049706139	 0.118117
H	-0.110089017	 0.8156260152	 2.2310392875	 0.115258
H	 0.2787813368	-0.9209857223	 2.23099812	 0.122505
H	 1.5068833176	 0.2597233085	 1.731216086	 0.111111
H	 0.0723498604	-2.7135659117	-0.7689864259	 0.260101
H	-1.2479497716	-3.4207673255	-1.5070516308	 0.255898
H	-4.4828365161	-0.6223043371	 0.2904318498	 0.143409
49.0853	150.697	152.1968	218.0468	234.2175	257.1412	282.1366	309.7507	380.7105	469.631	533.5804	613.5804	653.5129	731.1747	751.327	776.9189	798.7171	936.2928	959.0211	1038.0424	1056.0688	1098.1922	1116.0991	1153.9224	1188.9492	1222.7685	1227.432	1284.3481	1365.2731	1433.78	1437.2414	1471.0836	1478.2131	1493.842	1500.487	1516.4679	1574.5248	1619.3405	1708.472	2975.6839	2982.9805	3063.3887	3065.2793	3110.7777	3114.4767	3278.9834	3522.3387	3620.3332
CN(C)C1=C(N)OC=N1	CN(C)c1c(N)ocn1	
InChI=1S/C5H9N3O/c1-8(2)5-4(6)9-3-7-5/h3H,6H2,1-2H3	InChI=1S/C5H9N3O/c1-8(2)5-4(6)9-3-7-5/h3H,6H2,1-2H3
