21
gdb 89383	2.63639	1.42037	1.16592	2.2268	77.47	-0.2309	0.0661	0.2971	1149.2291	0.181783	-424.223573	-424.214476	-424.213532	-424.256561	36.133	
C	 0.7448064395	 1.463746601	 0.059030509	-0.397851
C	-0.0296366259	 0.140212526	 0.0145557983	 0.019694
C	 0.3057139194	-0.7369084451	-1.2340778238	-0.297887
C	 1.153399352	-1.888779104	-0.7238296225	 0.314806
O	 1.0559954627	-3.1340796001	-1.3597027759	-0.478731
C	 2.407406218	-1.5768622878	 0.0698673426	-0.423755
C	 1.1025884564	-1.910807768	 0.777027173	 0.415387
O	 1.0008073745	-3.121249501	 1.4566052835	-0.48782
C	 0.2236108954	-0.7729931465	 1.257061803	-0.287054
H	 1.8287413294	 1.3138897426	 0.094398856	 0.119136
H	 0.5262319595	 2.0733119341	-0.8243032044	 0.112232
H	 0.4666463647	 2.0461799337	 0.9437587222	 0.114947
H	-1.0927118585	 0.3976664284	-0.0170777519	 0.080327
H	-0.6050245799	-1.164901201	-1.6663285838	 0.106607
H	 0.7946630703	-0.1506343204	-2.0215000448	 0.088973
H	 1.75791361	-3.2057025594	-2.0143747917	 0.288474
H	 3.1462777549	-2.3710180988	 0.108070841	 0.109102
H	 2.815503401	-0.5720519319	 0.0744461271	 0.111078
H	 0.937220978	-3.8059769729	 0.7762430835	 0.286782
H	 0.6612481639	-0.2125302946	 2.090329583	 0.099012
H	-0.7120326854	-1.2120106943	 1.6182306967	 0.106539
117.02	154.2892	224.9868	227.6817	268.9827	292.0922	325.7613	373.0482	384.2854	433.618	454.7829	517.3554	558.1015	639.7513	699.4063	765.927	806.2808	880.5942	904.2019	924.8539	939.4723	942.7987	952.6199	1013.4898	1052.7027	1089.2587	1109.2264	1149.1449	1193.5521	1208.8404	1225.996	1253.5882	1281.8531	1303.4375	1308.8438	1353.5546	1368.7007	1390.338	1411.9608	1418.6661	1472.1839	1489.2826	1497.8583	1501.5893	1507.7063	3027.1966	3030.4827	3038.7622	3049.4595	3075.0406	3083.5614	3097.2279	3100.4346	3126.771	3218.8845	3744.5479	3811.3443
CC1CC2(O)CC2(O)C1	C[C@H]1C[C@@]2(O)C[C@@]2(O)C1	
InChI=1S/C7H12O2/c1-5-2-6(8)4-7(6,9)3-5/h5,8-9H,2-4H2,1H3	InChI=1S/C7H12O2/c1-5-2-6(8)4-7(6,9)3-5/h5,8-9H,2-4H2,1H3/t5-,6+,7-
