16
gdb 48115	3.02674	1.27543	1.10148	0.4641	69.33	-0.2408	-0.1008	0.14	1113.4323	0.123198	-437.847072	-437.838925	-437.837981	-437.881028	29.21	
O	-0.3512898801	 1.5164463458	-1.1288387814	-0.218925
C	 0.3075602333	 1.0555891802	-0.2340080523	 0.091615
C	 1.1713443949	 1.9117170771	 0.7040521145	 0.279904
O	 1.8080750552	 1.3498532246	 1.5671710067	-0.288138
C	 1.1932221569	 3.3904369996	 0.4332190203	-0.111625
C	 2.0960453655	 4.3088933392	 1.2876937417	-0.19743
N	 2.8666502227	 4.7821468998	 0.0781954826	-0.119608
C	 3.5026931121	 3.57827047	-0.4833032825	-0.237188
C	 2.0706428142	 3.8075209284	-0.7644475064	-0.050362
H	 0.3530161021	-0.028637855	 0.0018946431	 0.110905
H	 0.1730771235	 3.7613310121	 0.3174806499	 0.117078
H	 1.5634239439	 5.143944664	 1.7440224719	 0.120535
H	 2.7118445188	 3.8068357576	 2.0382392446	 0.128289
H	 4.2038531278	 3.804409896	-1.2802523454	 0.128917
H	 3.8120283272	 2.779704444	 0.1875697579	 0.132266
H	 1.687138812	 4.0607265766	-1.7462312752	 0.113769
34.25	121.7049	131.04	147.6357	261.5874	335.4649	462.4844	499.3694	562.472	635.4162	706.4749	759.9447	773.9021	802.9412	944.2359	969.5803	978.4395	1010.0008	1032.7285	1061.0832	1081.437	1120.978	1125.9936	1177.3151	1191.9367	1204.1645	1233.3877	1293.2693	1347.9796	1361.0649	1373.398	1490.1592	1508.079	1793.7387	1821.1859	2925.1456	3071.1745	3098.6185	3109.8402	3134.3276	3178.7529	3205.0793
O=CC(=O)C1CN2CC12	O=CC(=O)[C@H]1CN2C[C@@H]12	
InChI=1S/C6H7NO2/c8-3-6(9)4-1-7-2-5(4)7/h3-5H,1-2H2	InChI=1S/C6H7NO2/c8-3-6(9)4-1-7-2-5(4)7/h3-5H,1-2H2/t4-,5-,7?/m0/s1
