18
gdb 11112	6.70251	1.00453	0.93619	5.0716	73.	-0.2477	0.0176	0.2653	1247.3534	0.154438	-343.980062	-343.971722	-343.970778	-344.013187	30.242	
C	 0.3348424698	 1.3764970618	 0.4069712271	-0.385653
C	 0.0660121711	-0.1118393752	 0.1632619127	-0.192687
C	-1.3280592533	-0.3872003981	-0.3996944397	 0.07169
C	-1.723737639	-1.8874715568	-0.4556453219	-0.268274
C	-2.5953765699	-1.6012415372	 0.8030444782	-0.108308
N	-2.4715370299	-0.154308759	 0.527574861	-0.314123
C	-3.966578815	-2.1153403657	 0.8151448235	 0.290125
N	-5.0414707568	-2.5399907376	 0.8250987489	-0.32377
H	 1.3423361686	 1.5364565682	 0.8016091612	 0.121713
H	 0.2423020276	 1.9503267007	-0.5213036126	 0.124784
H	-0.3700446074	 1.8035463037	 1.1292631018	 0.115436
H	 0.8049106421	-0.5067909052	-0.5463298953	 0.105048
H	 0.2028784706	-0.6759576645	 1.0961754504	 0.09474
H	-1.4519955449	 0.1600681335	-1.3419821727	 0.082172
H	-2.3210727951	-2.1522988633	-1.3277442643	 0.133847
H	-0.9215371096	-2.6140644066	-0.3223701558	 0.117626
H	-2.1026916667	-1.9395408664	 1.7243818193	 0.112334
H	-2.2830039222	 0.4260178677	 1.3383781482	 0.223302
66.0412	109.3213	146.6756	211.4824	242.4415	250.9389	375.9292	437.1348	541.0873	562.1631	630.602	762.9119	781.7372	820.6818	917.1923	966.2961	978.0662	983.3847	1004.8281	1056.205	1089.3787	1111.2755	1139.307	1178.4643	1244.2718	1257.2707	1277.2671	1306.5727	1344.7001	1347.4303	1381.0588	1415.2187	1421.9185	1480.2227	1484.8368	1501.2736	1503.0766	2356.3216	3007.5962	3013.0725	3024.9104	3033.403	3050.1725	3092.0538	3097.3132	3109.7853	3153.5926	3523.5897
CCC1CC(N1)C#N	CC[C@H]1C[C@@H](N1)C#N	
InChI=1S/C6H10N2/c1-2-5-3-6(4-7)8-5/h5-6,8H,2-3H2,1H3	InChI=1S/C6H10N2/c1-2-5-3-6(4-7)8-5/h5-6,8H,2-3H2,1H3/t5-,6+/m0/s1
