18
gdb 47537	2.71073	1.5513	1.08601	2.7427	72.66	-0.2625	0.0096	0.2721	1096.5361	0.149417	-439.073715	-439.066034	-439.065089	-439.106121	29.702	
N	-0.0322470621	 1.381563906	-0.1962973636	-0.469258
C	-0.0318847516	 0.13440687	 0.020163551	 0.351198
C	-1.3310369054	-0.6385605072	 0.0925195502	-0.291339
C	-1.6277399523	-1.1941052506	 1.4763703367	 0.036264
O	-2.0265881884	-2.5681110249	 1.5536117566	-0.25424
C	-0.7459030216	-2.2039974892	 2.0717927449	 0.058618
C	 0.494657595	-2.6543255357	 1.3223453906	-0.260508
C	 1.4711326251	-1.4948940333	 1.1087866261	-0.074225
O	 1.142270451	-0.580326644	 0.0535333023	-0.259156
H	 0.9315945504	 1.7218534167	-0.237635163	 0.21983
H	-2.1279616284	 0.0338619204	-0.2278515385	 0.135746
H	-1.2847453564	-1.4754168704	-0.6106888106	 0.13233
H	-2.1796667387	-0.5306597166	 2.1409801159	 0.106851
H	-0.6794493309	-2.246874691	 3.1596471414	 0.096595
H	 1.0115409381	-3.4374649016	 1.8884890442	 0.111375
H	 0.2141041329	-3.0884363322	 0.3586855928	 0.129198
H	 1.5971629419	-0.9309173195	 2.0443185289	 0.107882
H	 2.4521488513	-1.879790677	 0.819459924	 0.122841
81.8393	126.2346	235.9215	300.8001	313.3327	370.7023	456.3789	472.4472	541.4721	568.9161	675.6104	767.0919	816.0656	841.0358	893.0765	937.321	960.4522	965.8835	1008.0017	1034.7429	1053.5721	1091.1324	1117.9611	1136.6243	1160.1026	1207.067	1221.8023	1286.6936	1307.6079	1315.2653	1335.0147	1356.4057	1389.8091	1429.0174	1467.2046	1480.4604	1490.5792	1504.05	1738.8078	3004.8761	3046.8064	3069.1271	3093.3401	3098.3977	3108.4168	3117.4415	3136.6185	3454.8577
N=C1CC2OC2CCO1	[NH][C]1C[C@H]2O[C@H]2CCO1	
InChI=1S/C6H9NO2/c7-6-3-5-4(9-5)1-2-8-6/h4-5,7H,1-3H2	InChI=1S/C6H9NO2/c7-6-3-5-4(9-5)1-2-8-6/h4-5,7H,1-3H2/t4-,5+/m0/s1
