22
gdb 9145	4.69943	0.7413	0.68581	0.0846	88.54	-0.2386	0.0599	0.2985	1767.8689	0.198128	-313.061291	-313.050647	-313.049703	-313.098145	37.182	
C	 0.1707525914	 1.4169238455	-0.4469717751	-0.361955
C	-0.0464673414	 0.1670035213	 0.4255858327	-0.313228
C	-1.4009527342	-0.3694709434	 0.3299688872	 0.087975
C	-2.5264953029	-0.7884395897	 0.2270394621	 0.040472
C	-3.8867210277	-1.3214946526	 0.1315339985	-0.139372
C	-3.8623459006	-2.7853572138	-0.3540890895	-0.381623
C	-4.6313911715	-1.1495068251	 1.4790175762	-0.155301
C	-6.1213760113	-1.4975167255	 1.4215906443	-0.393235
H	 1.1967014574	 1.7832630892	-0.343391092	 0.111278
H	-0.0097424552	 1.190084599	-1.5013035583	 0.126073
H	-0.5130969164	 2.2181506774	-0.1537651041	 0.125955
H	 0.6755091763	-0.6082790099	 0.1375753265	 0.124931
H	 0.1778397277	 0.409975738	 1.4724585504	 0.12488
H	-4.4304089664	-0.7292904494	-0.6199913537	 0.096083
H	-3.3626219849	-3.4248756649	 0.3806731944	 0.120591
H	-4.8752747771	-3.1662616467	-0.5113300596	 0.112997
H	-3.31753474	-2.8688091167	-1.2980471313	 0.121729
H	-4.1291904821	-1.7642715807	 2.2361580579	 0.101736
H	-4.5126190959	-0.1094934482	 1.8018343055	 0.10401
H	-6.6037295951	-1.2881466878	 2.3814027288	 0.113241
H	-6.6373542474	-0.9062383438	 0.6562834712	 0.113504
H	-6.2901292328	-2.5545230421	 1.1949747779	 0.11926
24.5508	70.8678	90.9522	115.5768	186.4653	213.3001	214.9985	267.5963	296.4175	327.0399	378.7169	491.1533	509.338	536.001	717.0788	781.4862	786.4119	835.9826	936.7127	969.7097	981.9348	1031.111	1071.334	1085.2074	1104.1209	1132.8707	1156.8177	1200.3814	1283.0895	1287.3886	1314.3627	1343.9245	1351.7733	1375.8837	1405.9699	1408.2047	1414.6441	1476.9297	1482.9754	1492.2406	1494.6064	1498.1825	1504.3644	1505.957	1509.5904	2361.4105	2988.0404	3016.5004	3031.2552	3033.7846	3041.2878	3042.5381	3042.734	3068.7054	3098.7245	3106.9196	3113.6977	3115.3426	3120.4068	3122.3706
CCC#CC(C)CC	CCC#C[C@@H](C)CC	
InChI=1S/C8H14/c1-4-6-7-8(3)5-2/h8H,4-5H2,1-3H3	InChI=1S/C8H14/c1-4-6-7-8(3)5-2/h8H,4-5H2,1-3H3/t8-/m0/s1
