17
gdb 116998	4.3369	0.55243	0.50383	3.0848	83.12	-0.2762	-0.0814	0.1947	2129.4729	0.13188	-421.822027	-421.811547	-421.810603	-421.859747	34.437	
C	-0.1193865874	 1.5827294095	-0.2634050379	-0.39416
C	-0.005092263	 0.0720119276	-0.0458302592	-0.169468
C	 0.6641256298	-0.63589548	-1.2244159549	-0.288852
C	 0.7968747677	-2.1343303802	-1.0352739878	 0.207968
O	 0.4123351817	-2.7339670937	-0.0558768872	-0.279019
C	 1.4349316389	-2.8471749267	-2.1355325852	 0.021461
C	 1.9534825949	-3.4428193646	-3.0528458012	 0.12081
C	 2.601535998	-4.1597004979	-4.1254219974	 0.019471
O	 2.0366414599	-4.5340352102	-5.1251916398	-0.21514
H	 0.8661784109	 2.0430430376	-0.3948919755	 0.116371
H	-0.7138353465	 1.8147792583	-1.1540666145	 0.117649
H	-0.6002741925	 2.0658929884	 0.5920725746	 0.121275
H	 0.5639651604	-0.1377427352	 0.8659929683	 0.117594
H	-0.9963288772	-0.3643937673	 0.1154149109	 0.119015
H	 0.1116360745	-0.4676612371	-2.1600713643	 0.137923
H	 1.6696650973	-0.2338029529	-1.4153839369	 0.133217
H	 3.6813475524	-4.3423862754	-3.9558562419	 0.113884
42.9455	50.424	76.3947	83.3233	115.0503	184.184	242.6059	266.4579	271.617	341.9365	385.0104	564.6862	575.8339	675.3077	745.55	811.4705	879.8265	901.5795	989.8731	1017.0153	1048.0029	1107.2877	1108.6571	1161.5749	1245.7967	1319.7348	1321.5816	1393.5749	1413.6015	1417.4831	1444.6343	1487.615	1499.3946	1508.0892	1767.3873	1772.8281	2293.6476	2931.7877	3011.987	3031.0053	3038.702	3051.8984	3078.9053	3103.623	3108.6587
CCCC(=O)C#CC=O	CCCC(=O)C#CC=O	
InChI=1S/C7H8O2/c1-2-4-7(9)5-3-6-8/h6H,2,4H2,1H3	InChI=1S/C7H8O2/c1-2-4-7(9)5-3-6-8/h6H,2,4H2,1H3
