18
gdb 101525	2.82579	0.97507	0.80763	1.9694	77.4	-0.2647	-0.0327	0.232	1436.6411	0.144841	-439.052871	-439.04282	-439.041876	-439.088336	36.158	
C	-0.0140860263	 1.5587470199	 0.1092861535	-0.399872
C	-0.0448581189	 0.0358771591	 0.0911985153	 0.115104
C	-1.4485608072	-0.5469466466	-0.0605349171	-0.072093
O	-2.0872753445	-0.1233267775	-1.2493052095	-0.419084
O	 0.6717425228	-0.462706258	-1.0735286185	-0.269067
C	 2.0084065252	-0.5849905689	-0.9933849632	 0.259539
N	 2.6679148087	-0.2871027365	 0.0538110303	-0.534426
C	 2.5654198853	-1.0896510722	-2.2203410789	 0.274642
C	 3.0760467188	-1.5072782053	-3.2253486689	-0.407706
H	 1.0151094122	 1.9200310019	 0.1421575786	 0.138954
H	-0.5197169792	 1.9565234443	-0.7735190965	 0.132664
H	-0.5352488201	 1.925857625	 0.9992269362	 0.118829
H	 0.4358819874	-0.3695336307	 0.9860320363	 0.113057
H	-1.3871060305	-1.6445256888	-0.0063105792	 0.094694
H	-2.0710374084	-0.2038363376	 0.7723068358	 0.112215
H	-1.5118421013	-0.3859243972	-1.9767381325	 0.292932
H	 3.6594901223	-0.4630731581	-0.0880244226	 0.237366
H	 3.5261477537	-1.8762434427	-4.1144580392	 0.212252
62.718	86.8783	90.2984	153.8959	218.6129	227.8816	279.4557	286.7956	332.1513	416.2375	426.7235	531.1166	568.939	653.0217	661.8155	665.0356	731.4003	830.9502	842.916	883.7897	927.4467	948.4517	1008.435	1073.6652	1109.4015	1142.7851	1152.7368	1240.969	1326.5296	1357.8899	1386.2797	1395.9191	1416.6298	1429.8892	1489.5697	1493.5256	1500.8419	1679.7312	2235.6777	2991.4805	3051.5497	3078.9925	3082.3632	3123.7287	3148.6252	3498.7557	3530.3761	3804.8631
CC(CO)OC(=N)C#C	C[C@@H](CO)O[C]([NH])C#C	
InChI=1S/C6H9NO2/c1-3-6(7)9-5(2)4-8/h1,5,7-8H,4H2,2H3	InChI=1S/C6H9NO2/c1-3-6(7)9-5(2)4-8/h1,5,7-8H,4H2,2H3/t5-/m0/s1
