19
gdb 108060	2.57504	1.58889	1.22427	1.8486	74.86	-0.2255	0.0606	0.2861	1072.5053	0.158077	-422.957533	-422.948955	-422.948011	-422.990866	32.672	
C	 0.0809003443	 1.4224754741	-0.02418059	-0.502643
C	 0.0640984791	-0.0657917746	 0.0444539022	 0.440366
O	 0.0889820292	-0.8111082325	-1.1809227798	-0.328658
C	-0.2525862291	-1.9800264496	-0.3868509115	 0.068722
C	 1.0437724591	-2.2654255386	 0.4072626715	-0.298061
C	 0.7367119602	-0.9439355417	 1.127311321	 0.216792
C	 1.3767568651	-0.3936292447	 2.3650703907	-0.188932
O	 2.6381379501	 0.2209010803	 2.122611596	-0.413597
C	-0.756467079	-1.0685992204	 0.7899239511	-0.256606
H	 1.0129726732	 1.7734977699	-0.4781217035	 0.13988
H	-0.7582372883	 1.7918871903	-0.6215900127	 0.128962
H	 0.0107994137	 1.8564694313	 0.976559015	 0.129778
H	-0.8002554803	-2.7402563142	-0.9393719238	 0.086992
H	 0.9321821094	-3.1175783496	 1.0843677684	 0.1006
H	 1.9595453593	-2.3604497648	-0.1864066795	 0.095339
H	 0.7476002308	 0.3915908325	 2.7987557205	 0.108251
H	 1.463750327	-1.1861086035	 3.1263550645	 0.089898
H	 3.2086269335	-0.4362854642	 1.7112852168	 0.284603
H	-1.6523304672	-1.0191968802	 1.3943225932	 0.098312
57.985	130.6261	180.1617	213.7621	252.2419	297.0088	353.9119	408.8129	461.389	525.4644	632.6201	695.4793	745.1299	791.8281	813.2957	872.4555	912.7209	922.517	929.4875	936.7617	1009.4675	1036.9901	1053.0242	1084.429	1094.9371	1122.4475	1142.3292	1163.5257	1199.6728	1240.1107	1263.8683	1288.364	1346.2156	1370.6779	1402.9343	1418.918	1455.1011	1470.8601	1485.681	1496.9465	1503.5527	2969.4388	3036.4286	3041.8149	3061.8306	3099.302	3107.8784	3123.7965	3145.5522	3201.6416	3816.3996
CC12OC3CC1(CO)C23	C[C@@]12O[C@H]3C[C@]1(CO)[C@@H]23	
InChI=1S/C7H10O2/c1-6-5-4(9-6)2-7(5,6)3-8/h4-5,8H,2-3H2,1H3	InChI=1S/C7H10O2/c1-6-5-4(9-6)2-7(5,6)3-8/h4-5,8H,2-3H2,1H3/t4-,5+,6-,7-/m0/s1
