14
gdb 133240	3.24051	1.39653	0.98199	4.9075	69.8	-0.2333	-0.0445	0.1887	1103.8748	0.100816	-477.993236	-477.985536	-477.984592	-478.025877	27.994	
C	-0.0297313102	 1.4913788383	 0.016200469	-0.336644
N	-0.0063809946	 0.031687662	 0.0257779428	-0.065087
N	-0.0424109987	-0.5854611932	-1.175841422	-0.19747
C	-0.0227775798	-1.8806675082	-1.19587148	-0.080371
C	 0.0359825889	-2.7765910785	-0.0217505102	 0.364739
O	 0.0512420025	-3.9954860847	-0.126845543	-0.386798
C	 0.0718893295	-2.0346912124	 1.2268198391	-0.435562
C	 0.0488171674	-0.6841200665	 1.179050158	 0.433504
F	 0.0783134194	 0.0744135807	 2.2670290222	-0.053401
H	 0.8719606017	 1.8979000868	 0.4815387358	 0.154016
H	-0.0742721684	 1.7893474889	-1.0292916194	 0.169249
H	-0.9057290332	 1.8699062778	 0.5492966607	 0.154016
H	-0.0530915563	-2.3372409779	-2.180552461	 0.143476
H	 0.1162019719	-2.5462710932	 2.1785654581	 0.136334
87.7029	111.6215	202.6454	237.7435	315.3757	366.6967	459.88	478.1154	504.1244	585.4167	668.3489	730.456	740.88	789.9785	863.7405	944.6541	946.406	1027.149	1151.689	1207.2869	1220.2564	1270.4233	1281.6712	1351.982	1434.0724	1485.9922	1486.8533	1513.0916	1595.9236	1670.8172	1744.8403	3054.9666	3120.1253	3182.6498	3187.8248	3231.6767
CN1N=CC(=O)C=C1F	Cn1ncc(=O)cc1F	
InChI=1S/C5H5FN2O/c1-8-5(6)2-4(9)3-7-8/h2-3H,1H3	InChI=1S/C5H5FN2O/c1-8-5(6)2-4(9)3-7-8/h2-3H,1H3
