19
gdb 88232	3.83029	0.72593	0.66884	2.2616	88.04	-0.2358	0.0263	0.2621	1729.0111	0.157587	-385.831988	-385.822512	-385.821568	-385.868229	34.012	
C	-0.6065950098	 1.2596836154	 0.2426193035	-0.424331
C	 0.0013036402	-0.1081050448	 0.0849485255	 0.097675
O	 1.3815369702	-0.1756616571	-0.2621332949	-0.245877
C	 0.989498986	-0.6685917256	 1.0364023559	-0.166865
C	 1.4462436893	 0.0425638794	 2.1975555064	 0.07885
C	 1.8325078792	 0.6014947839	 3.1950889355	 0.126772
C	 2.3021395563	 1.262908209	 4.3757169256	-0.161246
C	 2.2782888577	 2.7819161674	 4.4632729358	-0.250506
C	 1.3235126453	 1.9808049811	 5.2948513606	-0.251625
H	 0.034704381	 1.9010970673	 0.8505386497	 0.136345
H	-0.7441300482	 1.7281128974	-0.7374068398	 0.128896
H	-1.5885757867	 1.1864766353	 0.7222355353	 0.121105
H	-0.6190524416	-0.835931966	-0.4432804862	 0.090053
H	 1.0401167924	-1.7548065045	 1.1170818861	 0.108641
H	 3.1395306069	 0.7772292447	 4.8684198923	 0.113613
H	 3.119574783	 3.260341679	 4.9516012809	 0.121568
H	 1.8864175646	 3.3172439019	 3.6069449838	 0.129115
H	 0.2796140685	 1.9690708066	 5.00558687	 0.12712
H	 1.5008907757	 1.9025812496	 6.3614518242	 0.120698
19.3069	67.0871	94.2296	170.4638	181.0469	223.8371	321.9807	385.8083	420.3226	495.0448	555.1466	584.4674	716.202	771.9655	794.5516	822.1558	839.3062	893.9021	912.8152	950.151	1008.1879	1062.9372	1067.0022	1081.246	1087.0198	1117.3334	1154.9809	1164.2684	1193.3562	1201.259	1232.8041	1288.4323	1372.6383	1394.6115	1414.1357	1449.1403	1467.1124	1485.3582	1496.0556	1497.3982	2352.4921	3039.4821	3079.3655	3102.4131	3103.7478	3137.3196	3142.0936	3143.7867	3148.4354	3226.7686	3241.7974
CC1OC1C#CC1CC1	C[C@H]1O[C@H]1C#CC1CC1	
InChI=1S/C8H10O/c1-6-8(9-6)5-4-7-2-3-7/h6-8H,2-3H2,1H3	InChI=1S/C8H10O/c1-6-8(9-6)5-4-7-2-3-7/h6-8H,2-3H2,1H3/t6-,8+/m1/s1
