17
gdb 117327	4.96055	0.67135	0.59965	4.677	67.47	-0.2482	-0.0051	0.2431	1771.4533	0.1343	-492.340216	-492.329906	-492.328962	-492.377757	35.24	
N	-0.2796254777	 1.3789548277	-0.0511476942	-0.566569
C	 0.1280746223	 0.0570730593	 0.071083864	 0.464912
O	 1.268608844	-0.2754284032	 0.2636413317	-0.329971
N	-0.9707045856	-0.8249467673	 0.0123710879	-0.408997
C	-0.9237730572	-2.2202758046	-0.0567012611	 0.434215
O	 0.086991371	-2.8543720393	-0.227186432	-0.311761
C	-2.2997935885	-2.8591828278	 0.0898109481	-0.323771
C	-2.2464561216	-4.3729495101	-0.0587586613	-0.073076
O	-3.5767445543	-4.8477249713	 0.0882863844	-0.426104
H	 0.4979090058	 2.0156219023	-0.1440691999	 0.267831
H	-1.0589758515	 1.5862930059	-0.6576208649	 0.251804
H	-1.8840527449	-0.4144727153	 0.1339809237	 0.251841
H	-2.7202290362	-2.6007830884	 1.0700497917	 0.135188
H	-2.9865916788	-2.4420465527	-0.6577539088	 0.12721
H	-1.8252058327	-4.6319421494	-1.0400142219	 0.106891
H	-1.5740125277	-4.7924780458	 0.7015222935	 0.111054
H	-3.5596859465	-5.8061755602	 0.014723389	 0.289302
22.3035	47.1109	79.9213	111.4693	121.014	233.2422	268.5041	306.4878	390.7002	406.3725	431.9828	528.8961	556.7175	586.6772	595.1909	754.7878	780.1959	814.0025	924.0069	970.3654	1048.7819	1073.172	1080.6781	1108.5091	1166.5494	1208.267	1253.4639	1305.5382	1306.1358	1354.5192	1455.7982	1471.4266	1509.7511	1522.8786	1626.7612	1807.5799	1871.7788	3004.0558	3028.9692	3034.0807	3070.0186	3571.6425	3619.5175	3686.8706	3834.4029
NC(=O)NC(=O)CCO	NC(=O)NC(=O)CCO	
InChI=1S/C4H8N2O3/c5-4(9)6-3(8)1-2-7/h7H,1-2H2,(H3,5,6,8,9)	InChI=1S/C4H8N2O3/c5-4(9)6-3(8)1-2-7/h7H,1-2H2,(H3,5,6,8,9)
