17
gdb 80319	3.59544	1.14078	1.10684	1.3227	84.09	-0.2219	-0.0284	0.1935	1152.8605	0.13561	-384.653308	-384.645258	-384.644314	-384.685662	31.68	
O	-0.0150378621	 1.4310238769	 0.0473658782	-0.424889
C	-0.0631103629	 0.0412640346	 0.0089190589	 0.130022
C	-1.3516161076	-0.7302418203	 0.0156935276	-0.11676
C	-2.6155001584	 0.0418994938	-0.3552873214	-0.332381
C	-2.3725445615	 0.4876675369	-1.7961073222	 0.137459
C	-1.2010424009	 0.0071770129	-2.2622950653	-0.195584
C	-0.4506691227	-0.7508921038	-1.2343062796	-0.135518
C	-3.2934484496	 1.3022144748	-2.4951900504	 0.222898
C	-4.11076165	 1.9928068065	-3.0504329618	-0.41793
H	-0.4746939429	 1.7704074465	-0.731004225	 0.288357
H	 0.7520624491	-0.3758400772	 0.5919929679	 0.108126
H	-1.4388801642	-1.5993921615	 0.6572949369	 0.090367
H	-3.5167574098	-0.5770964397	-0.2871015074	 0.121598
H	-2.7703893082	 0.906384514	 0.3019776155	 0.130436
H	-0.8275843093	 0.1783899167	-3.2648927673	 0.107358
H	 0.153037539	-1.6039114825	-1.523746229	 0.091837
H	-4.8220986179	 2.6000373216	-3.5530410756	 0.194606
97.2369	157.8806	197.6613	237.989	306.1477	373.551	492.6718	519.7234	531.9834	557.3707	591.8161	631.4299	640.3637	731.4983	747.2691	789.5267	862.0956	902.6333	923.9429	965.991	991.7326	1025.4999	1049.6407	1066.2622	1101.4384	1179.2206	1189.824	1198.9819	1271.1137	1302.6274	1329.7156	1339.7769	1359.7772	1441.0152	1473.9769	1642.8661	2219.2767	3034.4929	3069.2809	3159.384	3167.438	3179.4029	3207.1146	3503.3799	3763.9464
OC1C2CC(=CC12)C#C	O[C@H]1[C@H]2CC(=C[C@@H]12)C#C	
InChI=1S/C8H8O/c1-2-5-3-6-7(4-5)8(6)9/h1,3,6-9H,4H2	InChI=1S/C8H8O/c1-2-5-3-6-7(4-5)8(6)9/h1,3,6-9H,4H2/t6-,7+,8-/m1/s1
