20
gdb 79703	2.58694	1.72523	1.31532	0.4471	78.05	-0.226	0.0735	0.2995	1033.2716	0.172681	-403.076237	-403.068491	-403.067547	-403.107917	31.73	
C	-0.0610977776	 1.6631421763	 0.0095601699	-0.466304
C	 0.025426429	 0.1308624976	 0.0015158469	 0.046213
C	 0.5327393171	-0.7289975496	-1.196512706	-0.101213
C	 2.0496441872	-0.5227887214	-1.2346905146	-0.040559
C	 2.7185722927	 0.5846938415	-0.5030905603	-0.25196
N	 2.4140142395	-0.6598928396	 0.2194705521	-0.115708
C	 1.0386590953	-0.7779313392	 0.7790807999	-0.084291
C	 0.529592222	-1.9261955492	-0.1797487155	 0.161276
O	-0.7499688031	-2.4639938846	 0.0349477782	-0.443046
H	 0.3892170967	 2.1173892373	-0.8772631404	 0.126755
H	-1.1084032914	 1.9801958229	 0.0324307298	 0.111232
H	 0.423204938	 2.1011661919	 0.8893325953	 0.124174
H	-0.9569921224	-0.2621158318	 0.2630089293	 0.104696
H	-0.0029605631	-0.7846382461	-2.1440111614	 0.069272
H	 2.6239333195	-1.1177931181	-1.9399791499	 0.094853
H	 3.7852001185	 0.7060397904	-0.6763098568	 0.114083
H	 2.211201443	 1.5033340151	-0.2562360291	 0.12146
H	 1.0301748591	-0.8645866947	 1.8666269653	 0.063576
H	 1.2746053424	-2.7091653104	-0.3626637427	 0.078153
H	-0.6890941424	-3.1001224182	 0.75438457	 0.28734
142.4875	223.4457	248.4689	272.73	303.537	323.3322	427.5208	445.5282	518.7918	651.4616	660.0648	716.3266	732.5229	789.3137	837.4865	876.9592	908.3445	930.2495	991.8006	1005.079	1030.7949	1051.731	1078.5936	1095.1771	1112.1954	1125.5914	1130.0937	1142.8515	1165.1229	1178.6446	1202.7336	1224.5429	1254.4674	1276.8247	1278.9027	1314.1327	1367.4375	1406.2943	1425.2326	1451.7534	1496.2407	1506.209	1519.2241	3031.483	3039.3693	3085.9849	3099.3837	3105.3452	3113.7688	3120.3302	3128.6781	3143.5997	3269.1298	3820.7562
CC1C2C3CN3C1C2O	C[C@H]1[C@H]2[C@H]3CN3[C@@H]1[C@H]2O	
InChI=1S/C7H11NO/c1-3-5-4-2-8(4)6(3)7(5)9/h3-7,9H,2H2,1H3	InChI=1S/C7H11NO/c1-3-5-4-2-8(4)6(3)7(5)9/h3-7,9H,2H2,1H3/t3-,4+,5-,6-,7-,8?/m0/s1
