20
gdb 115014	2.28797	1.62263	1.0557	2.224	81.43	-0.2253	0.0181	0.2434	1177.7049	0.171454	-403.119791	-403.111155	-403.110211	-403.153284	32.728	
C	 0.1389727288	 1.5528275358	-0.3569437395	-0.237517
O	-0.2894521453	 0.2169017043	-0.500067344	-0.246799
C	 0.6634408008	-0.6288359156	-1.1017837902	 0.043501
C	 1.88167196	-1.0209631681	-0.2211435271	-0.298365
C	 2.1503440637	-2.4478381854	-0.6463996527	-0.091276
C	 1.1366512022	-2.9591389974	-1.346190432	-0.118667
C	 0.037251112	-1.9713656957	-1.4969690151	 0.300435
C	-1.3936130632	-2.2780749897	-1.2241650258	-0.281439
N	-0.921311405	-2.0785285392	-2.60701038	-0.379751
H	 0.9904517194	 1.6434399605	 0.3329622034	 0.111827
H	 0.4315443046	 1.9902954269	-1.3244825492	 0.105787
H	-0.7017434378	 2.1206695923	 0.0487093777	 0.12871
H	 1.0420052562	-0.1488897895	-2.0220883095	 0.071937
H	 2.7429721708	-0.3598062632	-0.3637913627	 0.102349
H	 1.6029112308	-0.9655119387	 0.8405296906	 0.116729
H	 3.0564481801	-2.9769487954	-0.3744424149	 0.0965
H	 1.0659375386	-3.9634277015	-1.7458213785	 0.104998
H	-1.6895562436	-3.2960155946	-0.9847653489	 0.111344
H	-1.9816594637	-1.4962183177	-0.7555914354	 0.130018
H	-1.1791675994	-1.141051838	-2.911542386	 0.22968
74.7317	96.2517	184.8695	203.0351	261.786	275.5174	326.1921	454.0214	474.7256	496.3956	561.8194	696.8848	750.0646	799.5662	875.183	889.1378	927.8927	965.3976	972.0294	988.6213	1006.2396	1029.7637	1044.3479	1075.6413	1116.1877	1134.6917	1156.3865	1172.3519	1186.291	1229.635	1266.6939	1281.8761	1305.6278	1336.4312	1338.0042	1394.4376	1420.3385	1479.2049	1483.8404	1492.0405	1502.5559	1509.6048	1675.3175	2937.353	2977.5254	3013.6323	3028.9928	3065.1445	3114.2387	3115.5669	3190.9266	3211.2543	3218.2733	3475.1309
COC1CC=CC11CN1	CO[C@H]1CC=C[C@]21CN2	
InChI=1S/C7H11NO/c1-9-6-3-2-4-7(6)5-8-7/h2,4,6,8H,3,5H2,1H3	InChI=1S/C7H11NO/c1-9-6-3-2-4-7(6)5-8-7/h2,4,6,8H,3,5H2,1H3/t6-,7+/m0/s1
