17
gdb 82841	2.75896	1.64304	1.59698	2.172	66.6	-0.2463	0.0533	0.2996	922.1613	0.13661	-458.905334	-458.898149	-458.897205	-458.936521	29.33	
O	 0.1297534325	 1.3675543911	 0.1233705885	-0.44426
C	-0.0014376755	-0.0188748052	-0.0002553304	 0.172175
C	-1.4285849453	-0.6657797518	 0.0048035696	-0.144112
C	-2.412155198	 0.1096554543	-0.9057668959	-0.250153
C	-1.6923471402	-0.456539936	-2.1489409966	 0.015718
O	-0.4199258765	 0.2070585315	-2.3832083816	-0.314425
C	 0.2659960516	-0.6090997964	-1.4035444392	-0.056711
C	-0.9903271821	-1.5266680106	-1.2344778631	 0.363819
O	-1.0840625668	-2.8960234655	-1.2546340027	-0.469441
H	-0.0863306908	 1.7268750589	-0.7483195324	 0.288457
H	 0.6291445955	-0.4971988264	 0.7564292423	 0.09196
H	-1.7944583728	-1.0853549499	 0.9403311344	 0.077845
H	-3.4242233378	-0.2995456213	-0.8299146278	 0.110911
H	-2.4517889533	 1.1973889477	-0.803157884	 0.106704
H	-2.2401371327	-0.6226217072	-3.0789273876	 0.082284
H	 1.2767753378	-0.877283122	-1.7186358193	 0.078223
H	-0.7440657357	-3.2206118511	-2.0968284542	 0.291008
151.4593	251.8396	257.3397	296.9645	353.7774	424.8414	485.4415	527.6748	546.5258	618.2666	661.9488	730.1546	808.4028	834.019	872.7071	930.5792	953.8537	989.5342	999.9826	1020.1287	1033.7403	1079.8424	1107.9505	1117.9359	1148.9746	1154.236	1187.8813	1223.8275	1259.5177	1272.8798	1295.8784	1313.0043	1328.0414	1342.8619	1411.3087	1434.462	1472.5968	3052.4361	3060.5242	3087.2939	3092.2513	3108.9135	3127.7261	3746.7123	3788.7817
OC1C2CC3OC1C23O	O[C@H]1[C@H]2C[C@H]3O[C@@H]1[C@@]23O	
InChI=1S/C6H8O3/c7-4-2-1-3-6(2,8)5(4)9-3/h2-5,7-8H,1H2	InChI=1S/C6H8O3/c7-4-2-1-3-6(2,8)5(4)9-3/h2-5,7-8H,1H2/t2-,3-,4+,5+,6-/m1/s1
