18
gdb 66637	3.4204	1.8438	1.68884	0.2457	72.93	-0.234	0.0915	0.3255	878.8089	0.150577	-401.918473	-401.912105	-401.911161	-401.948871	26.861	
C	-0.1149108545	 1.4892451918	-0.0265699653	-0.527835
C	 0.0660889714	 0.0064105138	 0.0424783546	 0.370877
C	 0.7848156562	-0.8788939849	-0.9037464106	-0.122497
C	 1.4338210784	-2.0049485869	-0.056890895	 0.043934
C	 0.2790187873	-3.0234261993	 0.0437749116	-0.214838
C	-0.7287721013	-1.9404439145	 0.4125255984	-0.031006
C	 0.1306405497	-0.9258632693	 1.2697146426	-0.016328
O	 1.4477531398	-1.4644100491	 1.2776717265	-0.254168
N	-0.7130017165	-0.987645037	-0.7684930898	-0.194643
H	 0.7448009759	 2.0057480953	 0.4143258578	 0.129199
H	-0.2150895461	 1.8152289452	-1.0661072808	 0.132114
H	-1.0146987034	 1.8053506874	 0.5122938923	 0.124463
H	 1.1632514385	-0.5464234267	-1.8616459299	 0.095944
H	 2.4261507049	-2.3451206331	-0.3436589075	 0.081846
H	 0.0263813301	-3.5026708068	-0.9054595912	 0.111228
H	 0.4586924622	-3.7686019627	 0.8215012519	 0.108545
H	-1.7295214976	-2.2146220545	 0.7371582666	 0.080242
H	-0.173415875	-0.5947324086	 2.2599832276	 0.082925
179.9599	220.569	261.1891	443.7928	528.7045	565.1387	613.9012	662.7179	745.0414	791.5422	813.7233	839.9303	846.3478	886.2054	902.4141	922.2384	942.3591	959.1004	974.6626	988.3053	1029.8939	1039.4186	1060.4302	1097.4013	1132.8527	1176.7682	1181.8601	1220.7434	1239.1105	1249.7155	1278.5891	1287.2947	1292.5196	1332.2699	1403.454	1441.0831	1470.5565	1483.4089	1492.1511	3030.664	3070.7316	3094.3727	3110.2399	3132.8946	3147.2557	3152.9356	3157.3257	3201.768
CC12C3C4CC(C1O4)N23	C[C@@]12[C@H]3[C@@H]4C[C@@H]([C@H]1O4)N23	
InChI=1S/C7H9NO/c1-7-5-4-2-3(8(5)7)6(7)9-4/h3-6H,2H2,1H3	InChI=1S/C7H9NO/c1-7-5-4-2-3(8(5)7)6(7)9-4/h3-6H,2H2,1H3/t3-,4-,5+,6+,7+,8?/m0/s1
