18
gdb 85133	2.11423	1.75431	1.16989	3.9689	72.65	-0.23	0.0163	0.2463	1098.163	0.147234	-439.089118	-439.080435	-439.07949	-439.122836	31.793	
C	-0.1549112826	 1.5249134717	 0.005065662	-0.409494
C	 0.0347506044	 0.017640311	 0.04346559	 0.0147
N	 1.0929943651	-0.5166877249	-0.83065278	-0.362491
C	 1.8036156534	-1.1645140644	 0.1492241165	 0.397776
O	 2.7843669554	-1.8587737931	 0.1401317551	-0.367867
C	 0.8294881268	-0.6140380724	 1.2344063699	 0.266717
C	 1.3677119706	 0.1520943361	 2.4556278569	-0.355493
C	 0.6993650574	-0.9770500468	 3.2650239837	-0.073242
O	 0.1485432822	-1.5589416592	 2.0592087887	-0.308863
H	 0.7916195601	 2.0464156582	 0.177849624	 0.123763
H	-0.5463941867	 1.8463355134	-0.9658216699	 0.122596
H	-0.8730326008	 1.8397609686	 0.769390317	 0.127781
H	-0.9214992013	-0.5029716085	-0.0857121037	 0.098133
H	 1.198692861	-0.5105236417	-1.8345075597	 0.249339
H	 2.4545362098	 0.212471918	 2.5220724322	 0.132798
H	 0.9337452251	 1.1427647892	 2.6003718808	 0.116754
H	 1.3914387998	-1.6642433087	 3.7630721786	 0.119904
H	-0.0875169497	-0.6802563065	 3.9667890079	 0.107186
77.313	83.2382	173.093	195.8235	229.1115	263.5083	297.1055	407.7162	498.6174	510.3007	605.401	725.4961	731.9769	777.6814	841.549	873.8235	893.2633	971.232	987.867	1026.2538	1072.9334	1088.8276	1135.0896	1144.0648	1164.843	1190.4983	1220.5942	1229.3506	1273.7477	1285.7659	1349.7065	1377.1221	1388.0473	1410.5762	1480.2215	1489.256	1498.2841	1528.2309	1894.3638	3033.3324	3033.8378	3038.4517	3079.4781	3084.7453	3101.1628	3112.5684	3142.6405	3610.1563
CC1NC(=O)C11CCO1	C[C@H]1NC(=O)[C@]21CCO2	
InChI=1S/C6H9NO2/c1-4-6(2-3-9-6)5(8)7-4/h4H,2-3H2,1H3,(H,7,8)	InChI=1S/C6H9NO2/c1-4-6(2-3-9-6)5(8)7-4/h4H,2-3H2,1H3,(H,7,8)/t4-,6-/m1/s1
