15
gdb 22717	3.64021	1.03746	0.88831	2.2091	74.16	-0.248	-0.0447	0.2033	1257.7705	0.111	-453.858444	-453.850314	-453.84937	-453.891475	30.115	
O	-0.0803970376	 1.2749989258	-0.013250197	-0.381786
N	 0.0117072451	-0.11950542	 0.0793701385	-0.254711
C	-1.1243608885	-0.6605547544	-0.0517078256	 0.489035
C	-2.578613088	-0.1987028175	-0.1437051298	-0.376048
C	-2.9690371943	-1.6740916193	 0.0384267024	 0.239821
N	-2.3561323086	-2.4274825985	-1.0764299071	-0.34838
C	-1.495523139	-2.1019122509	 0.0705894003	-0.211476
C	-4.0130421499	-2.2409949512	 0.8958109603	 0.061698
O	-4.8206089259	-1.5905832871	 1.5141352389	-0.258951
H	 0.8341845286	 1.5507512979	 0.112682666	 0.312287
H	-2.8666127649	 0.4283238496	 0.7029915646	 0.155921
H	-2.8972867286	 0.2623205368	-1.079931366	 0.13878
H	-2.6251149032	-3.4099747781	-0.9886110075	 0.242689
H	-1.015594107	-2.8739657534	 0.6586901992	 0.125902
H	-3.9930302482	-3.3561415597	 0.9471088129	 0.06522
74.9638	150.1088	157.7771	234.9697	294.9187	336.8288	395.9645	458.0403	479.3643	505.2193	595.7255	671.3027	746.6631	777.0315	837.4606	934.181	945.8242	982.0637	1002.9232	1031.8269	1080.0498	1105.8324	1121.5431	1158.2002	1215.1278	1262.656	1336.6205	1391.5025	1418.4278	1431.137	1458.7962	1792.6328	1803.5761	2843.3322	3083.0232	3141.1422	3206.2023	3446.0334	3814.4254
ON=C1CC2(NC12)C=O	ON=C1C[C@]2(N[C@@H]12)C=O	
InChI=1S/C5H6N2O2/c8-2-5-1-3(7-9)4(5)6-5/h2,4,6,9H,1H2	InChI=1S/C5H6N2O2/c8-2-5-1-3(7-9)4(5)6-5/h2,4,6,9H,1H2/t4-,5-/m0/s1
