20
gdb 102276	2.86484	0.95567	0.75538	6.0998	77.35	-0.2336	-0.003	0.2306	1517.6966	0.167917	-440.337373	-440.326516	-440.325571	-440.374361	37.664	
C	-0.0387889581	 1.5240226402	 0.1355469763	-0.390282
C	-0.1193980788	 0.0169269079	-0.1198054979	-0.198037
C	 0.7621198425	-0.46714648	-1.2990034794	-0.032141
C	 0.8823187267	-1.995297765	-1.2990782936	-0.352806
C	 1.727157866	-2.5015482316	-2.4637088732	 0.413304
N	 2.3326060696	-3.7057782624	-2.2722048379	-0.525591
O	 1.8303579339	-1.8765287774	-3.5040042817	-0.344103
C	 0.1531239283	 0.0459716392	-2.5981610471	 0.19166
O	 0.3585574237	 1.1403380393	-3.0550151213	-0.269242
H	 0.9770696434	 1.8172636045	 0.4208549029	 0.117074
H	-0.3058233061	 2.0957116478	-0.7565118648	 0.147738
H	-0.7126843538	 1.814603011	 0.9472580078	 0.110222
H	 0.1855917124	-0.5265560167	 0.7832662976	 0.096018
H	-1.1614982907	-0.2774027444	-0.308883389	 0.09995
H	 1.7551455176	-0.0135085905	-1.2092628763	 0.101603
H	 1.2841521678	-2.3467781086	-0.3423716787	 0.107395
H	-0.1155422933	-2.4470781719	-1.3959071906	 0.132502
H	 2.2595353079	-4.2169274664	-1.4108423965	 0.261201
H	 2.8715637351	-4.0974057441	-3.0272172154	 0.26545
H	-0.5923229042	-0.6411640609	-3.0604072513	 0.068086
40.2443	68.2361	106.9898	124.1061	141.1123	150.4708	229.0019	262.888	309.0864	338.8241	353.2026	424.3486	509.0343	565.6637	619.7716	698.1886	777.9381	849.1004	856.7324	907.9406	966.4483	1014.6379	1039.4419	1070.5775	1099.1825	1121.1866	1155.7807	1211.6934	1252.5245	1277.6284	1328.892	1350.3991	1368.7952	1402.3441	1418.941	1428.0473	1460.2435	1489.8714	1497.1902	1508.5072	1618.4682	1786.3217	1828.0583	2863.5571	3008.1902	3016.2077	3038.996	3043.1769	3057.5473	3071.0597	3104.2736	3128.5289	3604.9525	3742.661
CCC(CC(N)=O)C=O	CC[C@@H](CC(=O)N)C=O	
InChI=1S/C6H11NO2/c1-2-5(4-8)3-6(7)9/h4-5H,2-3H2,1H3,(H2,7,9)	InChI=1S/C6H11NO2/c1-2-5(4-8)3-6(7)9/h4-5H,2-3H2,1H3,(H2,7,9)/t5-/m0/s1
