17
gdb 125541	5.03091	1.27379	1.02948	2.2488	83.79	-0.2124	-0.0234	0.1889	1143.6303	0.138587	-380.91049	-380.903097	-380.902153	-380.942508	28.313	
C	-0.0201903394	 1.4317746087	-0.0917278924	-0.488958
C	 0.0046244345	-0.058522653	 0.0459853967	 0.370105
N	-0.0309282908	-0.8359656737	-1.0466511661	-0.352481
N	 0.0067850871	-2.0818587385	-0.5529496963	 0.036628
C	-0.0024748252	-3.3890851973	-1.1766280529	-0.230847
C	 0.0608223715	-4.2833918688	 0.0463488353	-0.098975
C	 0.0984592365	-3.5453548737	 1.1708373011	-0.208072
C	 0.0645386988	-2.1370365671	 0.8050025016	 0.44402
C	 0.0651749315	-0.8248323729	 1.2411797329	-0.480498
H	 0.882345907	 1.8895874757	 0.3285396855	 0.125659
H	-0.0840093122	 1.705512725	-1.1469865222	 0.137614
H	-0.8781851704	 1.8693687894	 0.4306384689	 0.125366
H	-0.9122520601	-3.5466271438	-1.7688409385	 0.143746
H	 0.8579356543	-3.5235028238	-1.8436014861	 0.143732
H	 0.0720941404	-5.3617581308	-0.0240122223	 0.115411
H	 0.1460147636	-3.9182615234	 2.1840948322	 0.118237
H	 0.102694593	-0.4600910621	 2.2546659427	 0.099312
83.6098	123.9931	234.0849	275.2566	308.207	442.6968	498.054	561.8458	653.7169	678.7395	748.6199	756.4683	783.5125	786.13	893.357	942.4061	944.2844	984.0027	985.4041	1026.9888	1063.4373	1091.5469	1154.4828	1174.6159	1184.8644	1276.4794	1334.0521	1352.4786	1396.5628	1408.4614	1442.3225	1477.123	1483.7958	1487.2805	1497.477	1583.608	1626.6141	3031.6422	3032.7793	3063.3378	3082.5208	3130.8148	3229.394	3250.1465	3265.4909
CC1=NN2CC=CC2=C1	Cc1nn2CC=Cc2c1	
InChI=1S/C7H8N2/c1-6-5-7-3-2-4-9(7)8-6/h2-3,5H,4H2,1H3	InChI=1S/C7H8N2/c1-6-5-7-3-2-4-9(7)8-6/h2-3,5H,4H2,1H3
