23
gdb 121812	3.16641	0.73914	0.69729	1.4581	89.26	-0.2538	0.0592	0.313	1753.8891	0.201694	-388.25057	-388.239095	-388.238151	-388.28745	41.363	
C	-0.1030785024	 1.3549611358	-0.1429993963	-0.228139
O	-0.0237917662	-0.0456234562	-0.0474196786	-0.229327
C	 0.6638115847	-0.4798656609	 1.1076005091	-0.080588
C	 0.6744335081	-2.0058245885	 1.0813147445	-0.198764
C	 1.3867586214	-2.7073771124	 2.2728620202	 0.044344
C	 2.8852716612	-2.3265871642	 2.3379616892	-0.403588
C	 0.7045803213	-2.3649981159	 3.6190357705	-0.403584
C	 1.2826317781	-4.1556152841	 2.052306636	 0.345868
C	 1.1961707088	-5.3409128868	 1.8695217934	-0.490592
H	 0.8946229209	 1.8204954022	-0.1930362657	 0.101619
H	-0.6477161732	 1.590807205	-1.0606192001	 0.126777
H	-0.6412330279	 1.7953340127	 0.7120448506	 0.101613
H	 1.6881841205	-0.0718941809	 1.1115580229	 0.086355
H	 0.160450625	-0.0979609155	 2.0112487801	 0.086352
H	-0.3632671294	-2.3528057235	 1.0373531293	 0.114151
H	 1.1493039919	-2.3270305637	 0.1483258513	 0.114133
H	 3.0081807897	-1.2642714434	 2.5686887216	 0.11387
H	 3.3909535777	-2.9025879652	 3.1177201852	 0.123348
H	 3.3831715445	-2.5344822288	 1.386616542	 0.12344
H	-0.362960822	-2.600647503	 3.5873957638	 0.123451
H	 1.1547057275	-2.9418614044	 4.4315215176	 0.123347
H	 0.8182921408	-1.3028156877	 3.8550171586	 0.113861
H	 1.1203398089	-6.3877188807	 1.7085434349	 0.192054
54.1546	73.9021	104.6728	130.4769	177.9891	189.7463	237.0299	260.3744	267.3047	291.4935	351.523	360.9996	389.0573	466.2879	552.492	576.6432	627.3407	629.9347	732.3751	798.3574	892.2726	939.8217	964.6236	995.0235	1012.98	1059.0063	1064.8272	1161.8405	1175.7243	1203.9082	1207.8188	1224.889	1243.719	1268.3023	1325.3626	1338.2166	1397.3379	1419.5286	1429.7447	1481.9137	1482.5252	1485.7926	1486.7851	1491.9077	1501.4814	1505.5663	1512.3611	1535.0815	2231.0724	2955.9584	2969.3681	2985.8592	3007.2861	3039.2193	3042.7906	3048.5398	3091.2708	3112.3487	3112.4134	3116.7389	3117.5561	3119.9595	3502.6082
COCCC(C)(C)C#C	COCCC(C)(C)C#C	
InChI=1S/C8H14O/c1-5-8(2,3)6-7-9-4/h1H,6-7H2,2-4H3	InChI=1S/C8H14O/c1-5-8(2,3)6-7-9-4/h1H,6-7H2,2-4H3
