22
gdb 116691	3.28915	0.7507	0.70235	2.6985	91.1	-0.2224	0.022	0.2444	1751.702	0.19131	-404.334189	-404.323197	-404.322253	-404.371446	38.158	
C	-0.2308141798	 1.3993960454	 0.1569142934	-0.247983
O	 0.1068064273	 0.0394634774	-0.079650989	-0.197359
C	 0.6100157734	-0.6261119183	 0.9812573372	 0.118737
N	 0.9404354406	-1.8360067068	 0.8791979123	-0.209084
C	 1.4648526432	-2.4919366405	 2.0230911302	 0.027161
C	 1.139999082	-3.9674526897	 2.2140523469	-0.045742
C	 0.195359587	-4.6939428101	 1.2817891909	-0.403584
C	 2.5370425275	-3.5524786364	 1.8115291579	-0.045762
C	 3.1152340818	-3.8266223588	 0.4404742468	-0.403582
H	 0.6460418198	 1.9863049973	 0.4576195755	 0.125699
H	-0.6138883338	 1.7902236127	-0.7864875072	 0.145384
H	-1.0080848294	 1.4941770622	 0.9254492324	 0.125736
H	 0.6960957679	-0.0258467085	 1.9003998218	 0.072434
H	 1.5475170361	-1.8891222308	 2.9314779726	 0.063746
H	 1.0388723091	-4.2640246286	 3.2556150188	 0.077592
H	 0.2293222827	-4.2842493409	 0.2715093284	 0.140306
H	 0.4370333683	-5.761641538	 1.2321243006	 0.108578
H	-0.837815714	-4.6042524329	 1.6354268533	 0.110622
H	 3.2714801144	-3.6008888533	 2.6123360928	 0.07759
H	 2.3863399024	-3.64344294	-0.349985456	 0.140308
H	 3.9748240185	-3.1747701926	 0.2487763148	 0.110627
H	 3.4612763451	-4.8633190189	 0.3606815957	 0.108574
36.6475	69.4057	113.793	136.834	145.9288	146.2192	203.4629	209.9034	264.605	277.7962	420.88	450.7204	465.2286	589.2942	645.3041	739.5572	779.5589	894.0506	947.987	964.0487	981.3881	1026.6974	1043.375	1061.0606	1094.8987	1131.1676	1152.6456	1162.8418	1177.3446	1186.7735	1197.9101	1258.4935	1277.6953	1368.9345	1370.9467	1406.8225	1414.6897	1422.1503	1453.6057	1485.6488	1486.4297	1493.5787	1493.6465	1500.8433	1501.9747	1513.4348	1770.5997	2991.022	3012.8758	3031.4935	3034.3396	3048.5311	3072.0629	3084.1918	3085.8823	3116.2258	3129.1626	3140.2108	3143.4162	3149.139
COC=NC1C(C)C1C	COC=N[C@H]1[C@@H](C)[C@H]1C	
InChI=1S/C7H13NO/c1-5-6(2)7(5)8-4-9-3/h4-7H,1-3H3	InChI=1S/C7H13NO/c1-5-6(2)7(5)8-4-9-3/h4-7H,1-3H3/t5-,6+,7-
