16
gdb 5534	3.30484	1.8846	1.25177	2.6789	68.64	-0.193	0.0223	0.2153	964.973	0.131017	-379.950581	-379.942442	-379.941498	-379.983707	28.589	
C	-0.1232872956	 1.42530924	-0.1358916003	-0.333465
N	 0.4991780466	 0.130794875	 0.1473173481	-0.391914
C	 0.8140789402	-0.6874590288	-0.9212499741	 0.314671
C	 0.6745925864	-2.01686399	-1.1907369508	 0.169976
C	 0.0034986241	-3.0863893024	-0.3961977855	-0.500236
N	 1.3066021856	-2.2795375947	-2.4100046528	-0.298591
C	 1.7572943704	-1.1406579405	-2.8039933238	 0.053275
O	 1.5059819007	-0.1090942962	-1.9494758475	-0.175537
H	 0.5409006202	 2.0099061516	-0.7752922557	 0.152387
H	-1.1003548586	 1.3429619949	-0.6352758204	 0.115562
H	-0.2513950974	 1.965146748	 0.8050755075	 0.12762
H	 0.0160994935	-0.387454636	 0.8677985293	 0.243297
H	-0.623136316	-3.7096391962	-1.0417844846	 0.140471
H	 0.7249121292	-3.7503496488	 0.095115809	 0.134448
H	-0.638131142	-2.6606561441	 0.3827668461	 0.105472
H	 2.2832408726	-0.8940067317	-3.7120412045	 0.142562
55.8403	105.7689	155.5427	183.9162	245.6517	276.1268	365.1988	469.8381	609.1073	642.6308	667.8749	713.5612	767.3505	787.6608	950.1958	972.3101	1051.2171	1062.6513	1087.8726	1115.9815	1152.1567	1194.8854	1260.3756	1301.125	1401.1755	1429.5744	1460.3353	1469.6717	1477.2231	1491.5909	1497.7646	1516.6913	1573.1912	1690.1123	2991.2814	3024.5491	3079.1596	3097.1479	3102.0881	3139.1577	3280.576	3593.7035
CNC1=C(C)N=CO1	CNc1c(C)nco1	
InChI=1S/C5H8N2O/c1-4-5(6-2)8-3-7-4/h3,6H,1-2H3	InChI=1S/C5H8N2O/c1-4-5(6-2)8-3-7-4/h3,6H,1-2H3
