16
gdb 69152	2.941	1.69251	1.31027	4.1367	68.46	-0.2466	-0.0296	0.217	976.87	0.124141	-437.865855	-437.858464	-437.85752	-437.8975	28.719	
C	-0.1217010624	 1.4984234663	 0.0335994278	-0.49983
C	 0.1195558084	 0.0178479208	-0.0264552592	 0.418884
O	-0.4428517805	-0.785846007	 1.0172419431	-0.285933
C	 0.9966881237	-0.7496782249	 0.8743760495	-0.1692
C	 1.4494776667	-1.9910497267	 0.121345834	 0.414836
O	 2.1117807437	-2.8919745608	 0.5536195559	-0.310313
N	 0.9801410958	-1.9082097643	-1.2346524549	-0.145212
C	-0.4753542944	-2.0580541828	-1.4698340544	-0.252128
C	 0.1383259602	-0.7091388691	-1.3641702786	-0.100812
H	 0.606518167	 2.0327316355	-0.5846814464	 0.135419
H	-1.1232554282	 1.7398127883	-0.3376515368	 0.139421
H	-0.0410149303	 1.8572571847	 1.0619456799	 0.141705
H	 1.5557682462	-0.3607026159	 1.7199078567	 0.11871
H	-0.7291742873	-2.4588806714	-2.4466040706	 0.132837
H	-1.08407362	-2.399192637	-0.6405272598	 0.155759
H	 0.3050612615	-0.1079730858	-2.2536121163	 0.105854
127.3057	194.0935	211.3465	273.0443	313.5724	381.1293	459.0005	536.9512	577.472	634.8214	716.5068	753.9713	787.8379	844.4448	860.2371	878.0919	946.257	1009.7426	1021.117	1069.071	1080.5836	1101.7625	1117.8277	1139.7142	1155.2077	1231.3557	1260.9544	1284.765	1367.269	1412.4659	1450.5782	1483.5551	1491.3357	1497.9727	1859.5142	3041.7531	3106.2308	3127.6417	3133.351	3152.0989	3169.1339	3230.6877
CC12OC1C(=O)N1CC21	C[C@]12O[C@H]1C(=O)N1C[C@@H]21	
InChI=1S/C6H7NO2/c1-6-3-2-7(3)5(8)4(6)9-6/h3-4H,2H2,1H3	InChI=1S/C6H7NO2/c1-6-3-2-7(3)5(8)4(6)9-6/h3-4H,2H2,1H3/t3-,4-,6+,7?/m0/s1
