19
gdb 31133	1.95779	1.67537	0.96873	2.1036	78.86	-0.1797	0.0528	0.2325	1231.0796	0.159218	-419.23793	-419.227973	-419.227029	-419.272826	36.331	
C	-0.2063324995	 1.6401578165	 0.133399183	-0.364117
C	 0.0764415284	 0.1300829701	 0.0190269767	-0.331974
C	 0.775140673	-0.4461781832	 1.2144498225	 0.120822
C	 2.1002710526	-0.8438017079	 1.3034998938	 0.168041
N	 3.1726582908	-0.8546923104	 0.3789170115	-0.613493
N	 2.3247499449	-1.2935523974	 2.5752436534	-0.254437
C	 1.1720158452	-1.2059575189	 3.3270810959	-0.18156
C	 0.2059912315	-0.6794316067	 2.5033776771	 0.23733
O	-1.0816570997	-0.4215615249	 2.8944330857	-0.454232
H	 0.7267618567	 2.2034933961	 0.2325250439	 0.116269
H	-0.7413226969	 2.0138955164	-0.7461085578	 0.106658
H	-0.8110947285	 1.8601256314	 1.0191886411	 0.11974
H	-0.87336409	-0.3975000619	-0.1583551087	 0.090361
H	 0.6823531711	-0.0599452758	-0.8751058078	 0.088433
H	 3.062354832	-1.5747176351	-0.329035111	 0.241685
H	 3.2590678665	 0.0319000633	-0.1051640042	 0.242816
H	 3.2248274542	-1.6041408729	 2.8957461879	 0.257798
H	 1.1296590294	-1.5148939087	 4.3570952238	 0.116787
H	-1.6125088416	-0.2752124101	 2.1061717231	 0.293072
61.0456	101.5888	132.3218	179.0265	194.6741	215.8376	282.6181	301.5189	321.0398	401.2385	482.1241	526.8843	571.6926	627.5589	667.7794	693.7969	729.7379	757.3447	799.8934	803.2829	962.8266	989.1544	1077.2457	1086.1261	1138.6727	1178.5785	1200.0898	1230.2063	1293.5136	1301.9147	1346.8106	1360.8985	1408.4023	1454.7029	1484.2432	1494.8334	1501.1163	1512.2605	1563.6673	1643.9625	1670.0468	2985.1823	3031.6125	3045.5289	3101.8197	3106.2266	3281.3815	3493.2519	3567.3904	3689.1158	3836.8826
CCC1=C(N)NC=C1O	CCc1c(N)[nH]cc1O	
InChI=1S/C6H10N2O/c1-2-4-5(9)3-8-6(4)7/h3,8-9H,2,7H2,1H3	InChI=1S/C6H10N2O/c1-2-4-5(9)3-8-6(4)7/h3,8-9H,2,7H2,1H3
