27
gdb 117984	2.61365	0.88447	0.7989	0.9528	92.98	-0.2499	0.0756	0.3255	1653.6717	0.248845	-390.692007	-390.680041	-390.679097	-390.728751	44.359	
C	 0.0590981862	 1.3968755971	 0.0347643021	-0.227688
O	 0.0152263627	-0.0031056135	-0.0802384499	-0.231381
C	-1.2782757962	-0.5347996119	 0.1381075987	-0.076199
C	-1.1886332661	-2.0640480531	 0.0499556748	 0.027163
C	-0.3382652422	-2.5823370692	 1.2221736499	-0.421243
C	-2.5832775833	-2.7572473815	-0.1009643429	 0.257369
C	-3.1959361006	-2.4085096806	-1.4737318807	-0.410234
C	-2.411076566	-4.2888026582	-0.0464560263	-0.411492
C	-3.5644220928	-2.3297230182	 1.0090919316	-0.409598
H	 1.0894885518	 1.7103296914	-0.1517470337	 0.124626
H	-0.5991795591	 1.8899974844	-0.6989264912	 0.100763
H	-0.2388185846	 1.7365187766	 1.0399714187	 0.101296
H	-1.6465406156	-0.2255744704	 1.1313561573	 0.082064
H	-1.975091256	-0.123353841	-0.6081037164	 0.082347
H	-0.6343306177	-2.2746205349	-0.8751103297	 0.077186
H	-0.8712613124	-2.5001956568	 2.176219865	 0.107949
H	-0.0455200333	-3.6263161151	 1.0895061387	 0.111704
H	 0.5727925311	-1.9842431051	 1.2973500541	 0.130439
H	-2.528993418	-2.7077367054	-2.2898930417	 0.110045
H	-4.1467834032	-2.9345746202	-1.6123707894	 0.106812
H	-3.3996422165	-1.3395270309	-1.5836556876	 0.110641
H	-2.0992565048	-4.6326296157	 0.9434104879	 0.113412
H	-3.3584422629	-4.785230106	-0.2830526251	 0.105129
H	-1.6659467515	-4.6317281347	-0.773323043	 0.108024
H	-3.8043033781	-1.263038461	 0.955132083	 0.110567
H	-4.5069736281	-2.8801906831	 0.9153681233	 0.107732
H	-3.1650906128	-2.5346896431	 2.0074818025	 0.112565
59.098	90.893	99.5064	163.1527	211.9942	229.777	231.7017	256.4901	273.0993	295.5529	303.1555	316.5512	367.691	377.2405	393.2297	452.5952	510.1732	526.4691	734.9476	853.7767	925.1595	931.7204	936.1339	941.5558	959.5181	988.7144	1011.1107	1031.9678	1082.9945	1125.1765	1155.2834	1169.1841	1191.2344	1208.6407	1236.3605	1248.6076	1269.4376	1282.7042	1333.9359	1367.218	1398.0615	1400.2793	1406.629	1423.3801	1435.8712	1479.2601	1481.9591	1484.3303	1485.7042	1487.0869	1496.2401	1503.4736	1508.0665	1511.9185	1514.8466	1524.4503	1529.4912	2952.5936	2967.0155	2994.707	3006.4349	3013.4561	3026.354	3029.0471	3035.355	3041.7749	3088.2173	3092.0177	3096.6676	3102.6014	3107.2593	3109.3903	3109.9667	3112.4183	3130.1666
COCC(C)C(C)(C)C	COC[C@@H](C)C(C)(C)C	
InChI=1S/C8H18O/c1-7(6-9-5)8(2,3)4/h7H,6H2,1-5H3	InChI=1S/C8H18O/c1-7(6-9-5)8(2,3)4/h7H,6H2,1-5H3/t7-/m1/s1
