22
gdb 119279	2.08259	1.18838	0.89177	4.011	86.52	-0.2992	0.0332	0.3324	1425.725	0.194051	-367.230362	-367.220511	-367.219567	-367.26545	36.225	
C	 0.2751905552	 1.5698680581	 0.0463893296	-0.381288
C	 0.1278277049	 0.0471939231	-0.0233349701	-0.186329
C	 0.6602440759	-0.6511617192	 1.2325530421	-0.233968
C	 0.5625033117	-2.1896318693	 1.2090585159	 0.16065
C	 1.6071828203	-2.8767010331	 0.2570745553	-0.251274
C	 2.5121844068	-3.1580587861	 1.484537448	-0.214679
C	 1.3099515461	-2.858175578	 2.4171958943	-0.259464
C	-0.8201965377	-2.6194832658	 1.0303649477	 0.246658
N	-1.9129782804	-2.9743269623	 0.8942319593	-0.360813
H	 1.32546606	 1.8647505079	 0.1507249434	 0.113134
H	-0.1159639369	 2.0463455286	-0.8573984946	 0.117777
H	-0.2704407891	 1.9816289255	 0.902420619	 0.118868
H	-0.9272154563	-0.2161034044	-0.1619719831	 0.126095
H	 0.6562534747	-0.3309549891	-0.9075259883	 0.100263
H	 1.7147268576	-0.3871459189	 1.3849132719	 0.099588
H	 0.1190091859	-0.2843144421	 2.1139208371	 0.111037
H	 1.2100205097	-3.7899452349	-0.189842188	 0.1248
H	 2.0098931257	-2.2448994728	-0.5373266111	 0.111938
H	 2.9447996799	-4.1574742651	 1.5524910722	 0.110896
H	 3.3185288686	-2.4284466255	 1.5893964723	 0.111566
H	 1.4809380828	-2.2061905548	 3.2770197495	 0.110614
H	 0.8054066946	-3.7645425217	 2.7572559573	 0.123929
75.2476	95.542	112.7969	145.1956	185.1993	214.2538	249.6818	308.9758	359.246	388.1887	543.6543	564.9153	637.4295	713.8498	748.234	794.7973	853.011	871.5879	890.6771	944.9343	950.9243	962.7731	994.6122	1049.6455	1056.3283	1066.0496	1140.1498	1176.2305	1209.041	1215.5428	1260.0072	1266.7391	1271.5401	1278.5645	1312.075	1321.0655	1345.3439	1396.257	1413.1311	1473.1607	1482.5457	1484.8564	1493.0582	1500.5321	1505.9224	1510.3672	2343.7872	3017.6	3028.4299	3031.9947	3051.43	3067.6204	3071.1067	3071.5526	3077.1586	3099.0587	3106.84	3113.3227	3127.0467	3137.5342
CCCC1(CCC1)C#N	CCCC1(CCC1)C#N	
InChI=1S/C8H13N/c1-2-4-8(7-9)5-3-6-8/h2-6H2,1H3	InChI=1S/C8H13N/c1-2-4-8(7-9)5-3-6-8/h2-6H2,1H3
