19
gdb 74526	4.22266	1.31219	1.2011	1.8929	82.38	-0.2255	0.0031	0.2286	1096.2707	0.159695	-385.817195	-385.809834	-385.808889	-385.848587	30.251	
C	 0.1158083219	 1.4711514714	 0.0257883367	-0.487724
C	-0.0383813059	-0.0155888355	-0.0007906847	 0.33823
C	-0.0732202196	-0.8012772551	-1.0939321391	-0.355801
C	-0.1100169628	-2.2044206428	-0.6201880207	 0.437002
C	-0.5622381865	-3.6732425647	-0.7802056348	-0.305775
C	 0.1834795011	-3.4991523017	 0.5890447674	 0.019136
O	 1.2251416544	-2.7502805046	-0.1075193109	-0.356481
C	-0.6173519135	-2.1830416575	 0.8255712008	-0.011389
C	-0.092439039	-0.8233966973	 1.3106767982	-0.360954
H	 1.0343659458	 1.758603752	 0.552973792	 0.134798
H	 0.154040849	 1.8952415615	-0.9808306884	 0.126895
H	-0.7132670026	 1.9421582235	 0.569069063	 0.127772
H	 0.022846994	-0.4646438253	-2.1182714496	 0.101218
H	-1.6376712031	-3.8716651007	-0.7757476766	 0.095774
H	-0.0175006978	-4.2693631514	-1.5127020495	 0.108583
H	 0.4997665351	-4.2756858961	 1.2875570104	 0.087863
H	-1.6987189896	-2.2952949031	 0.9465446524	 0.071859
H	 0.919049188	-0.8917572913	 1.7249386705	 0.131679
H	-0.7297780689	-0.3496368314	 2.0644592728	 0.097313
133.4717	181.4166	273.2108	288.2925	378.4768	439.4253	473.304	503.3279	566.7027	654.85	699.3678	748.9796	779.5255	821.8584	835.9496	867.9506	889.9075	971.6742	982.9193	999.0091	1006.9671	1033.1161	1066.9553	1086.749	1094.5464	1130.9267	1161.7626	1186.6134	1197.1796	1212.5161	1244.1348	1249.1097	1304.7095	1349.0916	1382.8572	1410.4423	1461.2099	1477.4736	1482.3984	1490.1404	1658.3363	3019.1432	3045.9561	3056.528	3066.301	3067.4126	3088.543	3102.3078	3115.4034	3148.818	3210.9099
CC1=CC23CC(O2)C3C1	CC1=C[C@@]23C[C@@H](O2)[C@H]3C1	
InChI=1S/C8H10O/c1-5-2-6-7-4-8(6,3-5)9-7/h3,6-7H,2,4H2,1H3	InChI=1S/C8H10O/c1-5-2-6-7-4-8(6,3-5)9-7/h3,6-7H,2,4H2,1H3/t6-,7-,8+/m1/s1
