16
gdb 44280	3.3529	1.85258	1.44579	3.1503	71.	-0.2126	-0.0151	0.1976	887.8715	0.126145	-400.693626	-400.687343	-400.686399	-400.724263	26.018	
O	 0.0368148628	-0.032689617	 0.3472777939	-0.334651
C	-0.0213309146	 1.1457955941	 0.0717871204	 0.394645
C	-1.3353921182	 1.8717125807	-0.1422475136	-0.272074
N	-1.2141312134	 3.2888109566	-0.4651760952	-0.102544
C	-0.1669089562	 3.8091896917	-1.3173353027	-0.06571
C	 1.2251506394	 3.1288782032	-1.1111679171	-0.104738
C	 1.1724047453	 3.4662347449	 0.3504818157	-0.104715
C	-0.2194098413	 4.1463200418	 0.1420785183	-0.065625
C	 1.1735656433	 2.0037791061	-0.0826616509	-0.162736
H	-1.8857537461	 1.3735391605	-0.9485724696	 0.142075
H	-1.9464506042	 1.7685019598	 0.7617571809	 0.142153
H	-0.4314030656	 4.393378484	-2.1909015637	 0.104199
H	 2.0525363768	 3.2127686401	-1.8023753205	 0.106019
H	 1.9517862939	 3.85728938	 0.9900231011	 0.106036
H	-0.5336143539	 5.0499045325	 0.6511562102	 0.104199
H	 2.1158140119	 1.487038341	 0.0706951728	 0.113465
94.2679	270.9131	425.2767	471.4799	480.2156	503.152	587.8403	685.2757	723.5946	729.1016	751.5903	820.9069	858.1267	898.4533	905.9274	925.2264	932.711	1000.7386	1003.6932	1033.0576	1047.8979	1050.4087	1079.8961	1101.6115	1228.5423	1251.8093	1254.936	1264.1198	1264.3878	1293.259	1336.3539	1365.0284	1405.6421	1444.1373	1808.7148	3041.5123	3082.1059	3170.4259	3173.815	3184.4697	3204.6786	3216.0301
O=C1CN2C3C4C(C23)C14	O=C1CN2[C@@H]3[C@H]4[C@@H]([C@H]23)[C@@H]14	
InChI=1S/C7H7NO/c9-2-1-8-6-4-3(2)5(4)7(6)8/h3-7H,1H2	InChI=1S/C7H7NO/c9-2-1-8-6-4-3(2)5(4)7(6)8/h3-7H,1H2/t3-,4+,5-,6+,7-,8?
