19
gdb 78501	2.46319	1.61582	1.28631	0.9522	75.34	-0.2222	0.0666	0.2888	1074.8967	0.157617	-422.963749	-422.955158	-422.954214	-422.996355	33.443	
C	 0.0508577307	 1.5926060992	 0.0237505946	-0.418213
C	 0.084167325	 0.0722909155	 0.0120523163	 0.030738
C	 0.7561280355	-0.6884330106	-1.1353985087	-0.219145
C	 2.2623736803	-0.8021145184	-0.7216565933	 0.365097
C	 3.4186327376	-0.8770297079	-1.6576588039	-0.513152
O	 2.3982012159	-0.1054436712	 0.5202506444	-0.314637
C	 1.1174252099	-0.6602158181	 0.9184540772	-0.040758
C	 1.2502601788	-1.7790505548	-0.2124055793	 0.271678
O	 1.0431357718	-3.1292145573	-0.2902366538	-0.448282
H	 1.0610378713	 1.9976566291	-0.0715984803	 0.130924
H	-0.5558199462	 1.9768488949	-0.803491413	 0.110486
H	-0.383488143	 1.969962484	 0.9565558622	 0.109605
H	-0.9084274445	-0.3553313205	 0.1918577515	 0.078974
H	 0.4503483262	-0.780642655	-2.170568299	 0.088575
H	 3.6801133191	 0.115140404	-2.0406844753	 0.134845
H	 4.3004966486	-1.2937660028	-1.159929319	 0.1273
H	 3.1699350632	-1.5159414858	-2.5101198852	 0.132103
H	 1.0029930688	-0.7614280752	 1.9963963198	 0.079762
H	 1.755603431	-3.5765521592	 0.1817988247	 0.2941
155.7308	173.9086	186.1141	201.0649	233.8147	285.9586	338.5819	372.0575	403.633	552.2063	591.8097	643.1223	671.57	713.1785	742.3083	849.2788	889.0012	904.3805	921.1511	951.4023	993.2591	1025.9952	1040.4497	1082.1235	1106.7635	1117.5595	1137.6953	1169.4957	1198.3636	1254.5399	1283.2546	1301.025	1355.643	1385.4352	1403.556	1420.4669	1472.3751	1490.3047	1491.4202	1502.1996	1518.6396	3031.3535	3033.6246	3051.3524	3091.0681	3096.2038	3114.6471	3126.783	3136.3514	3194.1222	3779.7267
CC1C2C3(C)OC1C23O	C[C@H]1[C@H]2[C@@]3(C)O[C@@H]1[C@@]23O	
InChI=1S/C7H10O2/c1-3-4-6(2)7(4,8)5(3)9-6/h3-5,8H,1-2H3	InChI=1S/C7H10O2/c1-3-4-6(2)7(4,8)5(3)9-6/h3-5,8H,1-2H3/t3-,4-,5-,6+,7-/m0/s1
