17
gdb 50548	2.68261	1.12144	0.84015	1.8208	74.13	-0.2499	-0.0404	0.2095	1326.3244	0.132897	-421.773622	-421.764318	-421.763374	-421.809142	32.484	
O	-0.956523005	 1.3423367515	 0.4265945739	-0.24353
C	 0.1228982555	 0.9165389849	 0.1023942013	 0.120246
C	 1.3530829732	 1.7863806607	-0.0569443643	 0.026754
O	 2.4365194975	 1.0850654627	-0.6868868034	-0.289011
C	 2.5428581017	 2.0828610328	-1.730134259	-0.074283
C	 1.3496480648	 2.8830392057	-1.1624048493	-0.052413
C	 0.10673309	 3.0028239915	-2.0531797804	-0.386689
C	 0.3332517808	 3.92295627	-3.1612560519	 0.281658
C	 0.557361512	 4.6827860036	-4.0652010837	-0.418084
H	 0.3051030633	-0.1611739173	-0.1093236288	 0.098365
H	 1.6275434253	 2.1667193263	 0.9383062083	 0.11247
H	 3.5108193401	 2.5946451715	-1.7043907693	 0.1134
H	 2.3903910536	 1.6511275211	-2.7263483958	 0.115406
H	 1.6219004293	 3.8692579992	-0.7844161832	 0.103853
H	-0.1685404026	 2.0158200431	-2.4473780656	 0.134687
H	-0.7459916365	 3.3324895703	-1.4485250971	 0.158371
H	 0.7361606471	 5.3537527725	-4.8685792017	 0.198802
50.5346	67.1555	81.6871	115.7766	173.7994	286.8516	329.824	360.4024	415.6471	496.7165	567.8068	626.6753	648.0757	768.259	838.0911	889.6394	904.5345	944.9732	980.3688	1005.5251	1054.3996	1074.2793	1105.9721	1138.8655	1161.6456	1218.5378	1237.3582	1267.3862	1320.516	1327.3997	1351.8346	1383.3315	1395.589	1466.8815	1526.0216	1823.1406	2239.3986	2888.3752	2996.3229	3023.7001	3028.9225	3066.0188	3074.1255	3106.4073	3506.0541
O=CC1OCC1CC#C	O=C[C@H]1OC[C@H]1CC#C	
InChI=1S/C7H8O2/c1-2-3-6-5-9-7(6)4-8/h1,4,6-7H,3,5H2	InChI=1S/C7H8O2/c1-2-3-6-5-9-7(6)4-8/h1,4,6-7H,3,5H2/t6-,7-/m1/s1
