16
gdb 13549	3.75519	1.3558	1.11393	1.3062	67.22	-0.2607	0.0221	0.2829	1073.4431	0.127067	-383.675298	-383.666313	-383.665369	-383.709275	31.938	
C	 0.1317342549	 1.5290059537	-0.2738891857	-0.418329
C	-0.0102931576	 0.0660053754	 0.0564826772	 0.078296
O	 1.1826505196	-0.7339473892	 0.0934120602	-0.256236
C	 0.4398990023	-0.576613983	 1.2997853422	 0.047657
C	 1.1099320165	 0.1789744086	 2.441707678	-0.081141
O	 0.1254603042	 0.7236717146	 3.3183240008	-0.414904
C	 2.0543254824	-0.6857621883	 3.1521849669	 0.291241
C	 2.7798784251	-1.4272923782	 3.7592552544	-0.440044
H	 0.9797197825	 1.9878310355	 0.2377956139	 0.130218
H	 0.281354783	 1.6557619266	-1.3510066565	 0.129752
H	-0.7782604767	 2.0692151185	 0.0069396458	 0.13216
H	-0.8387131947	-0.42794167	-0.4560290589	 0.09189
H	-0.0843794272	-1.4765417942	 1.6300221263	 0.090427
H	 1.6507516708	 1.035671383	 2.0292075396	 0.124989
H	-0.1522567422	 0.0217435086	 3.9169053591	 0.289566
H	 3.4414884071	-2.0690627716	 4.2872887269	 0.204458
41.1041	115.4256	164.4705	176.0164	228.2709	245.2844	276.9404	391.5246	422.5091	487.4645	550.7084	596.9837	639.9373	678.26	784.5357	856.3036	911.8177	987.5625	1007.5482	1053.5578	1096.6586	1105.7558	1169.0187	1180.5187	1244.3574	1291.9126	1302.8652	1394.7771	1404.1374	1420.7858	1468.065	1490.8094	1512.4905	2234.2584	3043.4645	3069.9603	3080.6023	3090.6171	3105.6553	3137.5964	3502.5835	3812.9237
CC1OC1C(O)C#C	C[C@H]1O[C@H]1[C@@H](O)C#C	
InChI=1S/C6H8O2/c1-3-5(7)6-4(2)8-6/h1,4-7H,2H3	InChI=1S/C6H8O2/c1-3-5(7)6-4(2)8-6/h1,4-7H,2H3/t4-,5+,6-/m1/s1
