19
gdb 100393	1.84869	1.30633	0.95067	3.2165	72.6	-0.2536	-0.039	0.2147	1310.5242	0.154072	-460.179198	-460.168491	-460.167546	-460.215715	37.183	
C	 0.6917027072	-0.5826817672	 1.3891199157	-0.422339
C	 0.105082554	 0.0286034407	 0.112948622	-0.197409
C	 0.8441544863	-0.3750822749	-1.1904917357	 0.244542
O	 2.2330763953	-0.0628953355	-1.1216525604	-0.467886
C	 0.6079261965	-1.8499067898	-1.5654169234	-0.340011
C	 1.5412466703	-2.3008052479	-2.670989969	 0.164761
O	 2.2634382705	-3.2604809668	-2.593133782	-0.244864
C	 0.3072025382	 0.5522085634	-2.2829267159	 0.155802
O	-0.6878075066	 0.3375118329	-2.9237371256	-0.261323
H	 0.6499098414	-1.6761726189	 1.385958278	 0.130429
H	 1.7330564653	-0.2774347902	 1.535491522	 0.122703
H	 0.1305765773	-0.236965751	 2.2617342495	 0.131899
H	-0.9501041638	-0.2448375684	 0.0044296139	 0.120398
H	 0.1423015312	 1.1218630048	 0.1966680309	 0.111294
H	 2.6496672822	-0.6515703926	-0.4837429272	 0.295689
H	 0.7473640844	-2.5142301442	-0.7087711364	 0.116513
H	-0.4254934565	-1.9421704001	-1.9226532879	 0.148003
H	 1.5113126871	-1.6771353793	-3.5915298501	 0.087696
H	 0.9099772298	 1.477888055	-2.4040464783	 0.104102
59.2232	75.0306	81.2718	104.4116	184.571	220.1834	235.4178	262.2195	298.5698	325.6113	347.1645	428.4938	488.3627	506.7014	636.5564	740.1088	784.6127	850.9094	901.3847	956.7746	1004.1547	1023.8734	1031.1848	1063.8257	1106.555	1146.0164	1189.9202	1224.7243	1302.022	1317.7731	1335.7528	1388.3882	1399.559	1414.2785	1431.4707	1452.5175	1477.1506	1501.7371	1510.8397	1834.4183	1836.0752	2891.314	2911.7409	3029.8694	3040.216	3042.4014	3075.8375	3108.3157	3110.7735	3116.0842	3823.5135
CCC(O)(CC=O)C=O	CC[C@@](O)(CC=O)C=O	
InChI=1S/C6H10O3/c1-2-6(9,5-8)3-4-7/h4-5,9H,2-3H2,1H3	InChI=1S/C6H10O3/c1-2-6(9,5-8)3-4-7/h4-5,9H,2-3H2,1H3/t6-/m1/s1
