15
gdb 125648	3.44457	1.65018	1.12344	4.6309	73.12	-0.2132	0.0158	0.229	1019.6027	0.115764	-413.017915	-413.010369	-413.009424	-413.049893	28.067	
C	-0.0177495848	 1.4908982346	-0.0451068578	-0.495513
C	 0.0027927246	 0.000483473	 0.0482364609	 0.227338
N	-0.0054332293	-0.7487372822	-1.0521552965	-0.291449
N	 0.0177518819	-2.0653973388	-0.6452408181	-0.371694
C	 0.0403900066	-2.1257148232	 0.7013696874	 0.458097
C	 0.0320076655	-0.8351970617	 1.1998540066	 0.170495
N	 0.0548844467	-0.8542281832	 2.585287245	-0.343782
C	 0.0761047137	-2.1244245083	 2.8884733668	-0.012208
N	 0.0687849325	-2.9717989826	 1.7755488851	-0.415234
H	 0.8649863349	 1.9282750134	 0.4337146632	 0.13354
H	-0.0383376148	 1.7994622955	-1.0921838775	 0.136635
H	-0.8957208517	 1.9057714019	 0.4616875703	 0.133541
H	 0.0164229402	-2.787381583	-1.3416911276	 0.270251
H	 0.0976497041	-2.5368193837	 3.8869015083	 0.130933
H	 0.0819113099	-3.9764065117	 1.7909452839	 0.26905
110.8374	166.9166	197.2801	249.2472	273.4202	355.3464	427.2089	532.1312	619.7714	640.3432	662.8927	701.8243	766.8924	804.2932	831.6289	950.6291	991.9863	1048.9959	1065.1873	1085.8079	1132.6847	1225.4047	1313.0963	1336.2382	1374.7163	1412.3367	1435.4094	1480.1979	1491.5774	1499.0519	1528.6048	1566.5236	1643.5832	3037.6184	3089.3394	3135.0657	3246.5561	3681.6574	3702.4212
CC1=NNC2=C1N=CN2	Cc1n[nH]c2c1nc[nH]2	
InChI=1S/C5H6N4/c1-3-4-5(9-8-3)7-2-6-4/h2H,1H3,(H2,6,7,8,9)	InChI=1S/C5H6N4/c1-3-4-5(9-8-3)7-2-6-4/h2H,1H3,(H2,6,7,8,9)
