15
gdb 6751	7.55655	0.68482	0.63638	5.201	69.08	-0.2453	-0.0401	0.2052	1688.2701	0.117438	-399.784063	-399.774995	-399.774051	-399.819651	30.25	
C	-0.1462281737	 1.7115873407	 0.0413371538	-0.310237
N	-0.0928594606	 0.2541890826	 0.0410388536	-0.282301
H	-1.0222572871	-0.1240077986	 0.1915403593	 0.226112
H	 0.1225500875	-4.3031752713	-0.5748577154	 0.311162
C	 0.8015995474	-0.2659419345	 1.0729738091	-0.289554
C	 0.8240126498	-1.7232050474	 1.0934737462	 0.022415
C	 0.837542216	-2.9284164364	 1.1297816114	 0.004593
C	 0.8664083388	-4.375986637	 1.1797395757	 0.338112
O	 1.2731640907	-5.0188241864	 2.1069004877	-0.293641
O	 0.382224376	-4.9783363279	 0.0654327423	-0.357685
H	 0.8330267323	 2.111759354	-0.2448479584	 0.129001
H	-0.8734067265	 2.0466186527	-0.7026896851	 0.127633
H	-0.4166310694	 2.1554945875	 1.0159583701	 0.101044
H	 1.8173694842	 0.0960291491	 0.8597997744	 0.149404
H	 0.5617297546	 0.0978797329	 2.0911032554	 0.123942
28.2173	66.6689	75.3553	156.2452	189.6569	242.0627	316.2502	379.8854	422.8044	515.3916	579.3712	606.6018	763.7263	766.754	789.2238	968.285	984.1551	1061.0537	1137.3842	1155.0118	1181.5394	1195.8625	1270.8754	1319.1871	1374.5376	1457.8549	1482.1887	1484.0846	1493.6849	1516.7271	1849.5504	2346.652	2914.8756	2949.2793	3022.2632	3059.9989	3114.4422	3523.9012	3787.8634
C[NH2+]CC#CC([O-])=O	CNCC#CC(=O)O	
InChI=1S/C5H7NO2/c1-6-4-2-3-5(7)8/h6H,4H2,1H3,(H,7,8)	InChI=1S/C5H7NO2/c1-6-4-2-3-5(7)8/h6H,4H2,1H3,(H,7,8)
