17
gdb 36461	2.99299	1.09826	0.878	4.2336	79.16	-0.2434	0.0072	0.2507	1296.4247	0.135028	-380.817684	-380.808765	-380.807821	-380.852001	32.234	
C	-0.1473672919	-1.293571049	 0.0603103562	-0.481813
C	-0.1186339369	-0.0907179071	 0.0680451409	 0.344134
C	-0.0507095653	 1.3672618008	 0.0633332166	-0.159357
C	-0.1582262201	 2.0169891097	 1.4803343915	-0.238433
C	 1.3807179643	 2.1520948617	 1.4348672605	-0.165151
N	 1.3184647807	 1.9531705834	-0.029212415	-0.071623
C	 2.3691158875	 1.2127140153	-0.698907885	-0.295638
C	 3.6215682406	 1.9763915621	-0.6945015314	 0.278093
N	 4.6148879032	 2.5654532531	-0.6739414835	-0.304093
H	-0.1880883369	-2.3551777731	 0.0534839433	 0.207701
H	-0.7284126099	 1.7637060569	-0.7010768582	 0.111319
H	-0.6740120037	 2.9769523537	 1.4462377161	 0.124279
H	-0.5810516403	 1.389877388	 2.2629553021	 0.124098
H	 1.8262646963	 3.102217999	 1.7402006044	 0.125008
H	 1.8868206678	 1.3310613253	 1.9653254605	 0.104023
H	 2.5662560607	 0.2230813827	-0.2499284211	 0.139368
H	 2.0732289941	 1.0354106774	-1.739573888	 0.158084
56.9596	96.65	115.9176	162.6616	222.6876	315.1664	323.8305	388.246	463.7879	508.9905	586.6808	631.624	668.8211	744.2107	760.6055	844.1809	924.5541	937.7171	959.7713	975.1754	1024.6572	1085.5413	1098.3479	1153.329	1209.0636	1218.572	1234.9037	1266.4473	1275.1474	1332.394	1346.0878	1376.8768	1472.1991	1482.396	1521.3233	2222.8311	2366.4874	2952.9817	2989.4384	3038.266	3061.3523	3088.7704	3100.6706	3165.0765	3499.2305
C#CC1CCN1CC#N	C#C[C@H]1CCN1CC#N	
InChI=1S/C7H8N2/c1-2-7-3-5-9(7)6-4-8/h1,7H,3,5-6H2	InChI=1S/C7H8N2/c1-2-7-3-5-9(7)6-4-8/h1,7H,3,5-6H2/t7-/m0/s1
