19
gdb 105765	2.25226	1.4486	1.19275	4.9897	75.27	-0.2453	0.0294	0.2747	1143.5345	0.160566	-419.218849	-419.209773	-419.208829	-419.253294	33.263	
N	 0.1010952578	 1.4111881692	-0.1114896856	-0.502359
C	 0.0520567899	-0.0379740583	-0.0089335414	-0.208319
C	 0.8042398156	-0.5086331492	 1.2404216956	 0.2465
C	 0.856672147	-2.0640087067	 1.3894874103	-0.299833
C	 2.3658506289	-2.3768019824	 1.518802564	-0.209999
C	 2.9737818789	-1.004480993	 1.8287363127	-0.092836
O	 2.1588107929	-0.0829170576	 1.1078590987	-0.273485
C	 0.2228492939	 0.0975096241	 2.4644873157	 0.28902
N	-0.2130261398	 0.5148099753	 3.4500461944	-0.351577
H	 1.0620462585	 1.7102740483	-0.240644857	 0.244019
H	-0.430552477	 1.7310342286	-0.9130847724	 0.233666
H	-0.993438575	-0.3549994772	 0.0737964027	 0.119848
H	 0.5006005589	-0.5843350171	-0.85683977	 0.089715
H	 0.2932870729	-2.3875350157	 2.2657356676	 0.134973
H	 0.4133056474	-2.5414096123	 0.512592901	 0.117854
H	 2.5776015934	-3.1162352851	 2.2941149555	 0.114986
H	 2.7615448687	-2.7554211801	 0.5726601759	 0.114921
H	 2.937652933	-0.7841919086	 2.9056798222	 0.115382
H	 4.0003593742	-0.8773705722	 1.4789105102	 0.117524
36.1537	119.7288	147.175	182.0258	221.4837	243.8415	295.1962	399.349	405.7067	500.2896	590.4068	618.7445	656.8917	763.0306	817.4633	835.1435	879.048	912.9694	930.321	999.773	1011.0369	1052.5066	1076.6972	1087.3297	1136.1045	1174.264	1198.6703	1231.6554	1258.3719	1270.7319	1314.4614	1333.3569	1340.3522	1386.2369	1425.2535	1486.4492	1491.3888	1501.4818	1518.5775	1652.5631	2351.8539	2949.4495	3003.3507	3064.5236	3067.4739	3077.6267	3107.1377	3114.7461	3132.3822	3513.1229	3596.5915
NCC1(CCCO1)C#N	NC[C@]1(CCCO1)C#N	
InChI=1S/C6H10N2O/c7-4-6(5-8)2-1-3-9-6/h1-4,7H2	InChI=1S/C6H10N2O/c7-4-6(5-8)2-1-3-9-6/h1-4,7H2/t6-/m1/s1
