20
gdb 102057	1.912	1.46765	0.89608	0.9224	80.89	-0.224	-0.007	0.217	1339.7812	0.17007	-436.507205	-436.49698	-436.496036	-436.542471	36.908	
C	-0.5524464648	-0.134254084	 0.5154222099	-0.373303
C	 0.6689964946	-0.7424353161	-0.1718347263	-0.151397
N	 0.9634221656	-0.1245772862	-1.4765877887	-0.140619
C	 1.9760220863	 0.7937829043	-1.5445454063	 0.177829
O	 2.3656857676	 1.4050032107	-2.5246601124	-0.357758
C	 0.1813414225	-0.5541173416	-2.5919255911	 0.479189
N	 0.3525095429	 0.1645972032	-3.7401155727	-0.576657
N	-0.6247342916	-1.5277477157	-2.3986492168	-0.328299
C	-1.43223387	-1.9529580818	-3.5224489645	-0.339493
H	-0.4161872647	 0.9374506716	 0.6920513814	 0.115321
H	-1.4419109258	-0.2819006954	-0.099633447	 0.147162
H	-0.7158001321	-0.6215842962	 1.4818184862	 0.117976
H	 1.560712466	-0.6184220875	 0.4489497337	 0.106152
H	 0.5154021691	-1.807572005	-0.3430773839	 0.14806
H	 2.4468225079	 0.9398318522	-0.5569581185	 0.095944
H	 1.1594029083	 0.7764601922	-3.7878124006	 0.284794
H	 0.0075184042	-0.2513939292	-4.5875877951	 0.256072
H	-2.0717989802	-1.1456001521	-3.9144844126	 0.111944
H	-0.8279895365	-2.329175802	-4.3660138587	 0.103678
H	-2.0868445492	-2.7699788215	-3.2088161661	 0.123405
68.0052	85.8397	134.2819	168.8361	211.244	225.6447	241.1598	292.7319	347.597	365.312	397.8238	440.2852	472.5762	559.8123	644.9727	676.8119	739.047	784.2111	813.109	966.9011	1018.6252	1029.2391	1097.7757	1115.5408	1119.2284	1127.0032	1189.1733	1221.1593	1293.5062	1364.8303	1395.2615	1410.4333	1423.9988	1440.0679	1450.5917	1485.4182	1490.3076	1496.8449	1506.4232	1508.2286	1613.6798	1725.4641	1774.4194	2950.3824	2980.1277	2995.9128	3042.6978	3068.9552	3097.3759	3106.7838	3135.7972	3147.1027	3494.8784	3698.5435
CCN(C=O)C(N)=NC	CCN(C=O)C(=NC)N	
InChI=1S/C5H11N3O/c1-3-8(4-9)5(6)7-2/h4H,3H2,1-2H3,(H2,6,7)	InChI=1S/C5H11N3O/c1-3-8(4-9)5(6)7-2/h4H,3H2,1-2H3,(H2,6,7)
