19
gdb 23477	3.36169	1.12584	0.92621	1.3162	81.46	-0.2118	0.0066	0.2184	1291.2771	0.158405	-419.116983	-419.108294	-419.10735	-419.150452	32.778	
C	 0.0566776137	 1.5219419054	 0.0812549111	-0.325444
N	 0.0919455456	 0.081108038	 0.1554809847	-0.065775
C	-1.1724895533	-0.6638326904	 0.3157895283	-0.176146
C	-0.4860500468	-1.6025080275	 1.3267153316	-0.046351
C	 0.4968556279	-2.6662031089	 0.7360325922	-0.339839
C	 1.6342999029	-1.6811765106	 0.96823924	 0.474752
N	 2.8979400854	-1.7295607316	 1.0009565484	-0.255129
O	 3.3655501839	-2.9999388456	 0.6112315787	-0.392215
C	 0.6928511204	-0.5629861895	 1.3532362043	-0.1142
H	 1.0774175681	 1.916639247	 0.0502601982	 0.128318
H	-0.4480530148	 1.830595711	-0.8407257075	 0.122079
H	-0.4707758095	 1.9960972067	 0.9316884188	 0.088051
H	-1.9691842352	-0.0673032432	 0.7903879916	 0.085773
H	-1.5680787782	-1.1041636086	-0.6078640596	 0.10015
H	-1.0376876405	-1.898449404	 2.2160301298	 0.083386
H	 0.5940234718	-3.5890838878	 1.3146624739	 0.127809
H	 0.3205665417	-2.9332556359	-0.310105809	 0.127136
H	 4.3192858952	-2.9001358999	 0.7012057155	 0.305862
H	 0.9394762817	 0.0997345453	 2.188059299	 0.071784
81.706	101.2536	184.8178	213.8329	273.8805	292.9013	358.5091	366.9873	414.1548	464.4353	543.2482	672.3967	744.4497	784.7909	814.8954	844.0485	921.0003	952.853	974.5981	990.4284	1030.452	1054.5379	1104.7268	1131.5125	1150.1468	1161.8606	1182.8087	1210.648	1220.6381	1228.7798	1254.6195	1297.0046	1314.9948	1338.74	1404.4704	1450.3708	1456.2695	1486.3788	1500.502	1514.9511	1782.9306	2917.0442	2963.0345	3039.7568	3054.8147	3057.5234	3067.4679	3099.3113	3104.4026	3138.7214	3817.2227
CN1CC2CC(=NO)C12	CN1C[C@H]2CC(=NO)[C@@H]12	
InChI=1S/C6H10N2O/c1-8-3-4-2-5(7-9)6(4)8/h4,6,9H,2-3H2,1H3	InChI=1S/C6H10N2O/c1-8-3-4-2-5(7-9)6(4)8/h4,6,9H,2-3H2,1H3/t4-,6+/m1/s1
