18
gdb 71471	4.27321	1.21119	1.09813	2.2977	84.37	-0.2333	0.0354	0.2686	1145.77	0.14663	-364.717283	-364.709284	-364.70834	-364.749297	31.945	
C	 0.0619570978	 1.5627352309	 0.0455715407	-0.509909
C	 0.0363316204	 0.058478767	 0.0521430285	 0.277015
C	-1.2489457238	-0.7652243316	 0.271997489	-0.184968
N	-0.4345803559	-1.8895930697	 0.8379845015	-0.178539
C	 0.6676900123	-0.9369339126	 1.1134609086	-0.153005
C	 0.8277899811	-1.9012398695	-0.0154864207	 0.225633
C	 0.7416098942	-0.7760611879	-1.0528136118	-0.336142
C	 1.5740968823	-3.1079516074	-0.1019429068	 0.1307
C	 2.2293507928	-4.1106401456	-0.2120716403	-0.348858
H	 1.0868424129	 1.94580311	-0.0005384606	 0.123109
H	-0.4782013261	 1.9540982329	-0.8245892714	 0.124928
H	-0.4113977485	 1.9732902783	 0.9439996276	 0.122231
H	-1.8814849871	-0.3729946382	 1.073682051	 0.109622
H	-1.8633713278	-1.018135262	-0.6000758501	 0.099298
H	 1.1787971633	-0.8418824835	 2.0630236249	 0.104702
H	 0.1915041626	-0.9601016114	-1.981978378	 0.100256
H	 1.7411533446	-0.3961170673	-1.2784303912	 0.11277
H	 2.7990456548	-5.0021940324	-0.2998441311	 0.181157
130.0081	143.6078	212.9586	274.9074	291.0818	404.4998	450.7762	507.525	510.0422	546.1641	599.2061	619.2382	656.0185	712.9478	755.5004	826.5824	862.2658	920.3055	951.6619	965.8099	977.7518	1000.6581	1043.488	1103.4943	1119.4757	1135.4226	1160.1516	1182.7887	1220.8297	1240.7138	1268.8407	1358.0057	1368.6641	1417.4052	1487.7501	1492.0402	1494.2331	1512.6646	2240.9428	3025.1786	3031.2255	3044.325	3090.0229	3095.3541	3097.717	3109.4225	3199.6225	3503.9099
CC12CN3C1C3(C2)C#C	C[C@]12CN3[C@H]1[C@@]3(C2)C#C	
InChI=1S/C8H9N/c1-3-8-4-7(2)5-9(8)6(7)8/h1,6H,4-5H2,2H3	InChI=1S/C8H9N/c1-3-8-4-7(2)5-9(8)6(7)8/h1,6H,4-5H2,2H3/t6-,7+,8+,9?/m1/s1
