20
gdb 103801	2.66409	1.09163	0.93833	2.2245	76.78	-0.2431	0.0295	0.2727	1324.4883	0.16935	-440.310807	-440.300499	-440.299555	-440.346036	37.661	
C	-0.4812642291	 1.8114115321	 0.482469828	-0.475421
C	-0.1619999619	 0.4004991869	 0.0297206033	 0.291469
C	-1.3810091693	-0.3198796144	-0.54135619	-0.136246
O	-1.1449868216	-1.650401217	-0.9729831896	-0.412336
C	 1.188336567	 0.0971530377	-0.5409502155	-0.336177
C	 0.81721555	-0.4738183817	 0.8141911055	-0.14798
C	 1.5257381114	 0.0486201511	 2.0229454951	 0.414957
N	 1.5057151916	-0.7958794622	 3.0976272723	-0.534727
O	 2.0930812605	 1.1288614157	 2.0661951373	-0.381783
H	 0.3869091723	 2.2821690768	 0.9442799476	 0.164321
H	-0.7998759514	 2.4209101236	-0.3714340588	 0.109568
H	-1.2993153663	 1.8133400107	 1.2131130032	 0.109853
H	-2.1505732682	-0.3912032363	 0.2366227225	 0.111854
H	-1.8037970058	 0.2898067865	-1.3554464008	 0.094927
H	-0.6885892865	-1.613461079	-1.8186319865	 0.288649
H	 1.2858150506	-0.6081424294	-1.3597522818	 0.092154
H	 1.9252169271	 0.8924417148	-0.5221029314	 0.138502
H	 0.5564983516	-1.5269851023	 0.8245136975	 0.091647
H	 0.9686492825	-1.6446290912	 3.1023707384	 0.258416
H	 1.9140376354	-0.4738286227	 3.9594994738	 0.258354
70.2023	100.1578	133.595	155.3048	176.4186	227.1258	241.2863	312.4296	324.6349	365.1373	395.7203	442.6896	520.5648	578.8	627.1434	680.387	755.4408	819.4566	862.2527	910.7025	960.7206	982.1185	1013.2974	1060.73	1069.2543	1084.8726	1093.9478	1117.4184	1130.0817	1231.5211	1256.0519	1288.3925	1332.9704	1392.5159	1416.1737	1417.5005	1433.4253	1478.1594	1493.4866	1507.1206	1508.8822	1615.1358	1772.0264	2980.5385	3024.5301	3054.4203	3077.4908	3129.1866	3147.2083	3165.3272	3223.0705	3605.1601	3742.919	3831.0765
CC1(CO)CC1C(N)=O	C[C@@]1(CO)C[C@H]1C(=O)N	
InChI=1S/C6H11NO2/c1-6(3-8)2-4(6)5(7)9/h4,8H,2-3H2,1H3,(H2,7,9)	InChI=1S/C6H11NO2/c1-6(3-8)2-4(6)5(7)9/h4,8H,2-3H2,1H3,(H2,7,9)/t4-,6-/m0/s1
