14
gdb 123890	4.74599	1.27344	1.04004	4.2755	72.69	-0.2456	-0.0798	0.1658	1082.9354	0.102362	-428.99736	-428.990293	-428.989349	-429.029447	25.525	
C	-0.1966385427	 1.2010159518	-0.4412139148	-0.221651
C	 1.2158366589	 1.135183129	 0.0682353129	-0.217702
N	 0.3140158313	 0.0140108472	 0.2082673574	-0.094686
C	-0.1365478188	-0.4910666986	 1.392220743	 0.454466
N	-1.4464211495	-0.7162878226	 1.5378314746	-0.278783
C	-1.7370263127	-1.307770461	 2.6862094074	 0.1137
N	-0.8692559378	-1.6539575423	 3.6429750806	-0.190795
N	 0.4078800298	-1.3578498704	 3.4353627004	-0.051173
N	 0.8002813511	-0.7817273221	 2.3265545306	-0.231228
H	-0.9132502562	 1.7997181557	 0.1141087441	 0.143621
H	-0.3951026221	 1.1067978809	-1.5041834131	 0.140492
H	 2.0366865194	 0.992941001	-0.627454329	 0.141441
H	 1.4612857142	 1.6890188975	 0.9697467036	 0.148218
H	-2.7814697849	-1.5342712761	 2.8871193923	 0.144082
93.1131	108.2407	195.5452	232.3249	339.3649	487.2001	525.7817	589.3789	700.4596	787.4868	808.5526	862.2761	954.7279	972.9492	985.8832	1010.8635	1041.6666	1054.2872	1132.86	1139.5683	1150.9964	1169.0748	1173.5456	1248.2245	1300.0056	1389.4411	1488.3032	1497.8099	1528.5341	1551.1587	1566.7536	3121.2947	3125.2773	3170.684	3207.6054	3220.4393
C1CN1C1=NC=NN=N1	C1CN1c1ncnnn1	
InChI=1S/C4H5N5/c1-2-9(1)4-5-3-6-8-7-4/h3H,1-2H2	InChI=1S/C4H5N5/c1-2-9(1)4-5-3-6-8-7-4/h3H,1-2H2
