16
gdb 65879	3.26251	1.12281	1.08412	2.4637	65.82	-0.2524	-0.0497	0.2027	1144.2149	0.123866	-475.075561	-475.067252	-475.066308	-475.108764	30.906	
O	 0.306703054	 1.5394231184	-0.2680686716	-0.477595
C	-0.000449754	 0.2171428792	 0.0629371395	 0.31848
C	 0.5177781731	-0.1499957116	 1.4899691663	-0.237145
N	-0.4694695949	-1.0938934337	 1.9691829454	-0.305385
C	-1.6815141107	-1.0477478325	 1.3252127784	 0.409561
O	-2.6732640821	-1.6651806817	 1.6346271502	-0.369107
C	-1.5199756759	-0.069108789	 0.1596256712	-0.405747
C	 0.6342748679	-0.7187836703	-0.9530465581	 0.118485
O	 1.2653670037	-0.3005930054	-1.892480781	-0.271085
H	 0.8217517839	 1.4951968468	-1.090336503	 0.295689
H	 1.5233795048	-0.585812579	 1.4739234196	 0.120713
H	 0.5571789397	 0.7757356902	 2.077753814	 0.134543
H	-0.3880025691	-1.5797174406	 2.849013332	 0.257836
H	-2.0328413832	 0.8674385381	 0.3990899177	 0.156111
H	-1.9698850961	-0.4704080502	-0.7512775532	 0.137889
H	 0.4846554687	-1.8034178386	-0.7819118272	 0.116757
72.9589	111.5291	156.0973	281.3439	291.3018	349.2671	375.1525	454.456	486.2006	494.4691	531.4464	598.3442	680.0873	731.6659	833.1327	869.4388	892.4124	943.4113	999.9593	1071.7434	1078.5053	1131.5874	1145.6853	1192.0915	1247.527	1256.2581	1303.0382	1346.1846	1385.8054	1437.9127	1446.3224	1462.2341	1530.3378	1814.9986	1841.4283	2944.7226	3020.5916	3060.7936	3069.6739	3118.7894	3634.2426	3677.6381
OC1(CNC(=O)C1)C=O	O[C@]1(CNC(=O)C1)C=O	
InChI=1S/C5H7NO3/c7-3-5(9)1-4(8)6-2-5/h3,9H,1-2H2,(H,6,8)	InChI=1S/C5H7NO3/c7-3-5(9)1-4(8)6-2-5/h3,9H,1-2H2,(H,6,8)/t5-/m1/s1
