18
gdb 55187	2.89673	1.46728	1.20033	10.4429	71.85	-0.194	0.0029	0.1969	1061.1347	0.149513	-439.045616	-439.037851	-439.036906	-439.078968	29.36	
O	 0.0711302274	 0.0288861456	 0.6202246875	-0.473029
C	-0.0314920108	 1.0090133325	-0.1417360203	 0.367507
O	 0.6405276134	 1.4428954814	-1.0801985638	-0.436648
C	-1.2689167477	 1.936692735	 0.1414721472	-0.119355
C	-2.1510732559	 2.3740511137	-1.051406083	-0.246964
C	-3.3576777093	 1.6673813616	-0.4017961299	 0.021247
C	-3.5738060368	 0.1705961689	-0.7377307272	-0.248112
C	-2.7651644325	-0.2058412272	 0.531607444	-0.175827
N	-2.5060906025	 1.2644944082	 0.8136034855	-0.106517
H	-2.7229295705	 1.579923004	 1.7552274255	 0.278204
H	-0.9596760491	 2.7538966188	 0.7946843594	 0.12582
H	-2.2762702805	 3.4518302466	-1.1670960559	 0.119738
H	-1.8160741706	 1.9512948152	-1.9987472313	 0.15186
H	-4.2441871563	 2.2600895482	-0.1785721069	 0.116091
H	-4.6150053657	-0.1531315358	-0.7261536116	 0.127064
H	-3.1138686215	-0.1363342388	-1.6775484277	 0.150726
H	-3.3641015951	-0.6289792989	 1.3387344352	 0.131352
H	-1.8107649361	-0.7232151687	 0.4265055233	 0.216843
43.464	67.0118	204.4351	263.6943	340.2379	356.4019	456.8851	569.0971	691.6374	709.8463	752.7173	760.4642	797.8965	838.8434	853.1126	907.0727	931.6465	947.8748	972.6376	1020.2317	1037.7388	1070.7064	1104.4238	1141.864	1170.617	1214.484	1239.6722	1249.3082	1253.2098	1273.0468	1291.2545	1314.1915	1324.2949	1335.4636	1362.2414	1489.2917	1502.8542	1512.7131	1800.8968	3082.4499	3086.6307	3092.3425	3109.8657	3122.4465	3142.84	3147.1831	3159.3439	3511.981
[O-]C(=O)C1CC2CC[NH+]12	[O]C(=O)[C@H]1C[C@H]2CC[N@@H]12	
InChI=1S/C6H9NO2/c8-6(9)5-3-4-1-2-7(4)5/h4-5H,1-3H2,(H,8,9)	InChI=1S/C6H9NO2/c8-6(9)5-3-4-1-2-7(4)5/h4-5,7H,1-3H2/t4-,5-/m1/s1
