21
gdb 102275	2.85251	0.93276	0.74391	5.0579	80.8	-0.2392	-0.0223	0.2169	1575.1911	0.178051	-424.265646	-424.254678	-424.253734	-424.302736	38.011	
C	-0.0432525771	 1.5472077938	 0.1674083358	-0.390439
C	-0.0549038733	 0.0352724995	-0.070435148	-0.197656
C	 0.7739723872	-0.4129730719	-1.3016682135	-0.040545
C	 0.9850651754	-1.9301784186	-1.2953137645	-0.339723
C	 1.7672605507	-2.4416788402	-2.4983626785	 0.379174
C	 2.3485146899	-3.8373211365	-2.3913255955	-0.477191
O	 1.9011900638	-1.7631386617	-3.4921730067	-0.281421
C	 0.0547471048	 0.0477716831	-2.5617244594	 0.18702
O	 0.1525328545	 1.1488873077	-3.0370519374	-0.264201
H	 0.9709983537	 1.9001631625	 0.38197878	 0.117659
H	-0.4012927426	 2.0933586118	-0.7086849498	 0.147412
H	-0.6771028607	 1.8083383193	 1.0202989118	 0.111388
H	 0.3395698692	-0.4804223957	 0.813959922	 0.098361
H	-1.0886711333	-0.319455416	-0.1875380387	 0.100291
H	 1.7426842807	 0.0982363042	-1.2815077284	 0.102837
H	 1.4775655762	-2.2520572824	-0.3701906406	 0.119119
H	 0.0148090221	-2.4518334315	-1.2989374895	 0.130244
H	 1.5876351293	-4.5513140998	-2.0575550348	 0.138566
H	 2.7575209131	-4.1474562794	-3.3533706457	 0.148396
H	 3.1446040099	-3.8477465461	-1.6374377866	 0.145591
H	-0.6612166137	-0.6975153221	-2.9823730416	 0.065118
44.5432	69.7008	108.364	116.3552	129.6614	142.7788	229.5251	254.0515	304.7358	313.9762	352.0707	416.0906	476.3418	539.7385	636.4452	777.6193	791.7911	839.3819	881.4979	946.1702	957.0093	994.2568	1029.3555	1041.7686	1093.2211	1130.1515	1157.0861	1185.9649	1213.2557	1259.8419	1304.2379	1348.9201	1364.7843	1368.996	1386.3059	1418.7411	1425.8843	1449.7425	1462.6191	1476.1828	1489.6356	1497.5583	1508.5559	1806.4392	1830.2196	2846.9532	3001.178	3009.7909	3036.105	3039.7791	3044.2541	3055.4344	3066.3402	3096.6053	3104.8125	3128.0527	3154.4804
CCC(CC(C)=O)C=O	CC[C@@H](CC(=O)C)C=O	
InChI=1S/C7H12O2/c1-3-7(5-8)4-6(2)9/h5,7H,3-4H2,1-2H3	InChI=1S/C7H12O2/c1-3-7(5-8)4-6(2)9/h5,7H,3-4H2,1-2H3/t7-/m0/s1
