16
gdb 31930	3.27201	1.09432	0.86133	2.2365	76.76	-0.2588	-0.066	0.1927	1321.3346	0.124239	-437.941023	-437.932637	-437.931693	-437.975217	29.464	
C	-0.0921415306	 1.4671142791	 0.4487514123	-0.384413
C	-0.098133685	 0.0321005521	-0.1073169089	-0.293251
C	-1.4614756223	-0.5616807638	-0.1668945725	 0.399444
N	-2.1312386152	-0.9416559458	-1.2221810952	-0.300725
C	-3.3269530402	-1.4022376306	-0.7205004487	-0.157958
C	-3.3334173091	-1.2790272667	 0.6396705253	 0.229155
O	-2.1251599742	-0.7346859402	 0.9960307314	-0.186476
C	-4.3226946293	-1.606127484	 1.6507642285	 0.061319
O	-4.1919662175	-1.4410668972	 2.8423627189	-0.275646
H	 0.9306049748	 1.8511772179	 0.4852876922	 0.126577
H	-0.6854254052	 2.1341308217	-0.1831822015	 0.133422
H	-0.5059361877	 1.4958688612	 1.4599690816	 0.143882
H	 0.3064048412	 0.0037395239	-1.1214312524	 0.141653
H	 0.5355951473	-0.6061034273	 0.5201191924	 0.135272
H	-4.1042113067	-1.791060488	-1.3608269922	 0.143559
H	-5.2477876303	-2.0390803321	 1.2120192587	 0.084187
38.1086	119.0899	141.7979	166.214	224.7192	275.4906	366.1105	421.6391	506.2649	648.4881	651.6858	742.4517	791.2223	805.752	889.9935	962.974	998.2518	1004.1678	1018.8693	1077.9519	1093.2023	1174.2972	1227.0864	1285.3856	1286.9573	1344.0225	1377.5952	1409.4657	1430.0787	1472.67	1497.95	1505.4278	1566.1617	1608.6926	1789.4785	2896.6849	3043.0061	3049.4118	3110.3211	3123.9654	3133.7373	3257.6479
CCC1=NC=C(O1)C=O	CCc1ncc(o1)C=O	
InChI=1S/C6H7NO2/c1-2-6-7-3-5(4-8)9-6/h3-4H,2H2,1H3	InChI=1S/C6H7NO2/c1-2-6-7-3-5(4-8)9-6/h3-4H,2H2,1H3
