23
gdb 60010	2.92984	0.76109	0.69566	1.9357	88.53	-0.2564	0.0575	0.3139	1739.2445	0.201946	-388.266604	-388.255241	-388.254297	-388.30381	41.531	
C	-1.7366303948	 1.6908769891	-1.2351206989	-0.402008
C	-1.8096197897	 0.168087799	-1.3591349492	 0.125429
O	-0.9558091518	-0.3056810557	-2.3994003756	-0.424235
C	-1.5128669399	-0.5323997483	-0.0245867973	-0.203866
C	-1.5644117184	-2.07007102	-0.0623456441	 0.039154
C	-0.9196887761	-2.670146751	 1.1923629494	-0.404204
C	-3.0198404441	-2.5756202937	-0.2332549694	-0.362125
C	-3.1223149998	-4.0198429936	-0.4059069447	 0.305465
C	-3.1904465739	-5.2110003542	-0.5552597426	-0.445776
H	-1.9287251895	 2.1596559737	-2.2038880469	 0.124467
H	-2.4694344581	 2.0668216397	-0.51369885	 0.115941
H	-0.742385346	 2.0056736314	-0.8930933376	 0.105833
H	-2.8160203683	-0.1020563146	-1.7009622582	 0.091445
H	-0.0540435761	-0.0482034603	-2.1757039538	 0.275669
H	-0.5080797819	-0.2239900055	 0.300490446	 0.078801
H	-2.2042925437	-0.1551428756	 0.7419195676	 0.09118
H	-0.9987040967	-2.3981807821	-0.9413568608	 0.098039
H	-1.4352951143	-2.3332128326	 2.1003323802	 0.107996
H	-0.9602286508	-3.7624052259	 1.1703677853	 0.130999
H	 0.1296265695	-2.3689267257	 1.2759151668	 0.107014
H	-3.6094471712	-2.2709090907	 0.643277893	 0.121614
H	-3.4836466212	-2.0876248708	-1.0983497644	 0.131494
H	-3.2610838532	-6.2617594123	-0.6890527246	 0.191672
31.0284	58.8038	103.7493	156.6951	170.1696	237.6899	240.3593	278.6379	300.8426	338.7755	348.4463	380.142	413.1771	462.3177	494.0933	559.9932	611.5255	633.2958	815.7128	833.0098	873.5673	901.1259	927.6019	963.8412	983.8897	1027.2015	1063.0557	1092.7496	1119.9998	1144.7088	1177.6324	1195.8938	1262.8295	1290.9047	1324.2323	1336.1802	1358.6455	1380.0305	1397.6682	1403.4575	1409.9645	1418.8842	1466.6789	1472.8417	1491.4898	1495.4651	1497.5308	1503.1136	2235.6978	2994.3492	3008.0058	3022.4165	3025.6569	3028.8882	3042.4682	3053.8029	3062.4899	3091.7104	3093.5134	3116.3876	3118.9857	3507.4937	3792.4763
CC(O)CC(C)CC#C	C[C@@H](O)C[C@@H](C)CC#C	
InChI=1S/C8H14O/c1-4-5-7(2)6-8(3)9/h1,7-9H,5-6H2,2-3H3	InChI=1S/C8H14O/c1-4-5-7(2)6-8(3)9/h1,7-9H,5-6H2,2-3H3/t7-,8+/m0/s1
