18
gdb 74598	3.80539	1.66522	1.47259	1.4721	79.19	-0.2274	0.009	0.2365	939.9899	0.149836	-364.754611	-364.748029	-364.747085	-364.78526	27.491	
C	-0.0202675064	 1.5240470219	 0.0469989273	-0.50461
C	 0.0628611246	 0.0346499287	-0.041725281	 0.337784
C	 0.0028091975	-0.752023658	-1.1297346843	-0.194613
C	-0.0179450959	-2.1861820566	-0.6862721867	-0.078293
C	-1.2789607351	-2.5387312903	 0.1726795387	-0.048612
C	-0.4843250328	-2.9484183265	 1.345174414	-0.071073
C	 0.7267062793	-2.2105139568	 0.6921880567	-0.086474
C	 0.1088177619	-0.8761965849	 1.1542202932	-0.075106
N	-1.223401163	-1.6546566112	 1.3759487416	-0.157029
H	 0.8351107736	 1.9416582918	 0.5927688821	 0.124297
H	-0.0497712051	 1.9852555637	-0.9441316795	 0.122969
H	-0.9203557212	 1.8347166973	 0.5924138005	 0.137952
H	-0.1249270381	-0.4166526888	-2.1528518014	 0.09347
H	 0.2530427159	-2.959085721	-1.4047915169	 0.069929
H	-2.258640497	-2.8468969006	-0.1680350722	 0.095291
H	-0.5894415832	-3.7256276767	 2.0895120636	 0.095472
H	 1.7908544424	-2.4340610303	 0.7557641072	 0.070911
H	 0.4239413426	-0.4534674316	 2.108281297	 0.067734
164.0749	173.5834	280.566	398.626	466.6519	559.6521	576.6075	702.0064	756.7049	785.9929	791.5403	825.3776	847.2328	857.2313	894.8665	922.6594	930.1288	931.7877	962.1156	983.204	1012.0536	1026.828	1036.1644	1065.7036	1125.6495	1143.9795	1182.6081	1198.5325	1221.0923	1229.1208	1237.5883	1278.3785	1299.8525	1335.7836	1349.7841	1412.2479	1479.1465	1487.9479	1679.656	3018.4165	3065.7718	3108.4868	3113.4825	3119.0669	3128.1011	3192.9668	3197.5006	3213.9862
CC1=CC2C3C4C2C1N34	CC1=C[C@@H]2[C@H]3[C@H]4[C@@H]2[C@@H]1N34	
InChI=1S/C8H9N/c1-3-2-4-5-6(3)9-7(4)8(5)9/h2,4-8H,1H3	InChI=1S/C8H9N/c1-3-2-4-5-6(3)9-7(4)8(5)9/h2,4-8H,1H3/t4-,5-,6+,7-,8+,9?/m0/s1
