16
gdb 10473	3.2974	1.27364	0.99622	0.9147	81.26	-0.227	0.0351	0.2621	1200.9999	0.127562	-309.397361	-309.388319	-309.387375	-309.432264	32.09	
C	-0.0180564866	 1.4577583306	 0.0176056732	-0.501305
C	-0.0005438156	 0.0023211637	 0.008237347	 0.089551
C	 0.0217792872	-1.2016542749	-0.0042331912	-0.017198
C	 0.044280879	-2.6438782565	-0.016532533	 0.039852
C	-0.4996430639	-3.3797663647	 1.2176205246	-0.286631
C	-1.3032427182	-3.3815705614	-0.0396485653	-0.28664
C	 1.144141911	-3.2581905946	-0.7186418552	 0.256568
C	 2.0563417425	-3.7818654948	-1.3009858696	-0.46533
H	 0.8880536623	 1.8628951862	-0.446258139	 0.152208
H	-0.8773745827	 1.8530308002	-0.535622088	 0.146895
H	-0.0700590138	 1.8514734108	 1.0388700866	 0.146832
H	 0.0201081402	-4.2868219857	 1.5014807917	 0.133933
H	-0.8230772753	-2.7524297471	 2.0392566288	 0.132473
H	-2.1855205919	-2.7554341255	-0.0923995185	 0.1325
H	-1.3414564814	-4.2898871869	-0.62868771	 0.133928
H	 2.8657766675	-4.2342341795	-1.817788852	 0.192365
19.5482	84.4812	129.5246	183.5508	211.0025	297.0193	298.2072	440.9636	462.6658	534.27	566.3638	578.8838	591.9159	651.2656	781.4189	834.8438	854.0901	955.3947	967.4462	1050.9066	1054.4311	1064.0938	1077.4561	1086.947	1199.0348	1269.582	1331.3155	1414.6367	1460.0097	1476.9671	1479.2813	1486.9478	2238.7298	2372.0464	3025.6853	3084.6547	3088.3535	3147.2413	3150.8291	3236.0846	3250.7457	3504.2369
CC#CC1(CC1)C#C	CC#CC1(CC1)C#C	
InChI=1S/C8H8/c1-3-5-8(4-2)6-7-8/h2H,6-7H2,1H3	InChI=1S/C8H8/c1-3-5-8(4-2)6-7-8/h2H,6-7H2,1H3
