16
gdb 19994	3.67523	1.53181	1.21697	3.0662	70.68	-0.2579	0.0129	0.2708	995.3465	0.130635	-342.747864	-342.740324	-342.73938	-342.780132	27.835	
N	-0.245647727	-1.174181126	 0.1360815122	-0.336921
C	-0.1342056151	-0.02339756	 0.0954782708	 0.286708
C	 0.0020882602	 1.4106387089	 0.0150741411	-0.14441
C	 0.5240275908	 2.154321349	 1.2119342479	-0.239218
N	 1.3309323222	 2.0419025487	 0.0137661331	-0.084601
C	 2.4948698889	 1.1939424461	 0.0608039644	 0.069813
C	 3.3054251256	 1.0807347669	-1.1995181359	-0.272182
C	 3.8288020185	 1.8824511754	-0.0315660261	-0.282896
H	-0.7270669397	 1.8860041598	-0.6347501534	 0.139566
H	 0.1228918601	 3.138884232	 1.4346666373	 0.133467
H	 0.7968428734	 1.5540036045	 2.0776182242	 0.136241
H	 2.4278253824	 0.3086205314	 0.6940279778	 0.102025
H	 3.7607823441	 0.1237320516	-1.4255518105	 0.123468
H	 2.9479160676	 1.6333725211	-2.0603214524	 0.125189
H	 3.8155267185	 2.9620930188	-0.123435947	 0.125062
H	 4.6488321697	 1.4817144916	 0.5531472865	 0.118689
67.2419	121.1996	186.6171	253.9412	284.7608	376.6852	455.6108	560.8533	638.0116	705.901	778.28	801.7803	836.456	884.4414	924.9358	968.7115	1014.0234	1033.4467	1061.1565	1079.8328	1090.2434	1123.065	1129.3947	1144.7688	1186.2787	1196.3077	1232.4819	1323.3052	1366.4778	1402.7455	1457.1897	1496.1343	1506.5942	2350.6342	3094.2331	3103.267	3142.6049	3147.2372	3151.5407	3195.8065	3227.2891	3240.8259
N#CC1CN1C1CC1	N#C[C@H]1CN1C1CC1	
InChI=1S/C6H8N2/c7-3-6-4-8(6)5-1-2-5/h5-6H,1-2,4H2	InChI=1S/C6H8N2/c7-3-6-4-8(6)5-1-2-5/h5-6H,1-2,4H2/t6-,8?/m0/s1
