22
gdb 120510	3.70877	0.74701	0.66589	2.3425	86.81	-0.2443	0.0352	0.2795	1785.2414	0.192845	-404.358578	-404.348285	-404.347341	-404.394888	36.468	
C	 0.2033426538	 1.5930782966	 0.3798734047	-0.382573
C	 0.03657887	 0.1329058071	-0.047159665	-0.166539
C	-1.329682897	-0.4491005836	 0.334727952	-0.18616
C	-1.5099569889	-1.8864391432	-0.1080182128	 0.133165
C	-2.9291674722	-2.495830749	-0.0631194074	-0.410859
C	-2.7751071264	-2.5762546376	-1.5652725511	 0.466982
O	-1.5027192156	-2.0203560498	-1.5734574968	-0.27918
N	-3.4880930451	-2.9879162407	-2.5056562531	-0.326452
C	-2.9800955944	-2.9074616613	-3.8681650294	-0.338003
H	 1.1857916748	 1.9802852752	 0.0932596611	 0.115392
H	-0.5549093048	 2.2311443199	-0.0872391044	 0.117174
H	 0.1051825199	 1.7043524908	 1.465634341	 0.113151
H	 0.1642312001	 0.0435370389	-1.1319145777	 0.119051
H	 0.8284740342	-0.4772019202	 0.4071569641	 0.09525
H	-1.4651420438	-0.4097918489	 1.4246976758	 0.100602
H	-2.1314328018	 0.159190614	-0.1043086255	 0.101954
H	-0.729621879	-2.5314149889	 0.3107716851	 0.088776
H	-3.0280829261	-3.4581418167	 0.4417144135	 0.133035
H	-3.7163275712	-1.8213874094	 0.2811858266	 0.131063
H	-3.6683740928	-2.3059378028	-4.4724298072	 0.125026
H	-1.9748017963	-2.4774852308	-3.9486047784	 0.123791
H	-2.9681017874	-3.9119453795	-4.3057513252	 0.125355
55.3877	77.3289	92.8688	113.0723	145.0964	215.9774	234.9109	250.9966	320.2638	372.2873	471.9324	530.4679	563.1663	705.857	754.4769	830.0745	863.0821	901.2853	932.9108	954.7326	1001.213	1038.0061	1054.5424	1081.9413	1098.4219	1118.1954	1130.2999	1135.283	1183.8509	1198.2501	1244.4989	1261.4037	1281.0614	1323.909	1338.1934	1382.6655	1410.9857	1417.7517	1440.1771	1467.8589	1473.7652	1494.0555	1495.484	1497.6293	1501.0574	1510.4057	1848.069	3011.2908	3015.9023	3022.8489	3030.6593	3040.7891	3056.5622	3071.5434	3080.1047	3080.2451	3085.3842	3098.7058	3104.9346	3135.0996
CCCC1CC(O1)=NC	CCC[C@H]1CC(=NC)O1	
InChI=1S/C7H13NO/c1-3-4-6-5-7(8-2)9-6/h6H,3-5H2,1-2H3	InChI=1S/C7H13NO/c1-3-4-6-5-7(8-2)9-6/h6H,3-5H2,1-2H3/t6-/m0/s1
