22
gdb 116759	4.03894	0.6646	0.66046	4.5047	84.55	-0.2432	0.0103	0.2535	1838.0095	0.19025	-441.487184	-441.475898	-441.474954	-441.524498	39.971	
C	 0.0531647633	 1.3240723323	-0.2213446023	-0.249694
O	-0.0596765903	-0.0891423138	-0.0909457625	-0.193282
C	 0.5775336589	-0.6306254567	 0.9623185618	 0.13419
N	 0.50554677	-1.8654833672	 1.1920016898	-0.236928
C	 1.2162015206	-2.4061341221	 2.3359681188	-0.171779
C	 0.2797252499	-3.3521635415	 3.1250169529	 0.365799
C	 1.080334969	-4.1411622378	 4.1604464257	-0.403549
C	-0.8573640811	-2.5636821204	 3.7942533467	-0.411177
O	-0.2606012569	-4.3058418447	 2.2158256939	-0.471719
H	 1.1011270337	 1.6374972669	-0.2995942056	 0.129783
H	-0.4683043389	 1.5891959216	-1.1414646121	 0.1501
H	-0.41884763	 1.8428496449	 0.6215448792	 0.130626
H	 1.1512806386	 0.0855260931	 1.5709683492	 0.079035
H	 2.0556341676	-3.006432919	 1.9631905635	 0.108236
H	 1.6241778797	-1.6254917433	 2.999212114	 0.078897
H	 1.5384566658	-3.4750508511	 4.8985701627	 0.104442
H	 0.4234755428	-4.8390568175	 4.6873305429	 0.121638
H	 1.8683065678	-4.7214258818	 3.6716835319	 0.116535
H	-1.4215566425	-1.9953203775	 3.0490014099	 0.115118
H	-1.5451163273	-3.2560462993	 4.2872956957	 0.119152
H	-0.4746470777	-1.8612959412	 4.543724868	 0.098003
H	-0.486321383	-3.8051884736	 1.4193423358	 0.286576
38.1453	62.0148	79.1933	142.3897	175.5749	204.2406	232.3246	257.6828	283.3893	317.1836	351.3157	403.5951	432.1771	457.4993	488.038	531.963	643.2132	776.916	898.5175	921.4766	942.7098	985.7541	994.0606	1026.8993	1035.7352	1091.2415	1162.1109	1176.1852	1178.7588	1195.5958	1242.2879	1275.1006	1299.9556	1347.5962	1389.3319	1406.4216	1414.3521	1426.5447	1472.3302	1481.4519	1485.4685	1489.0196	1494.6953	1499.0206	1500.7077	1508.2837	1776.9884	2964.6882	2995.5233	3018.6457	3030.9505	3039.9182	3042.8472	3081.2096	3101.7206	3112.9926	3116.2498	3119.9805	3148.3459	3741.597
COC=NCC(C)(C)O	COC=NCC(C)(C)O	
InChI=1S/C6H13NO2/c1-6(2,8)4-7-5-9-3/h5,8H,4H2,1-3H3	InChI=1S/C6H13NO2/c1-6(2,8)4-7-5-9-3/h5,8H,4H2,1-3H3
