23
gdb 114889	2.95473	1.20109	1.08179	1.4516	84.68	-0.2477	0.0777	0.3253	1264.0806	0.208029	-388.292248	-388.283696	-388.282751	-388.325739	33.352	
C	 0.0495093735	 1.4821626256	-0.2845092253	-0.385878
C	 0.0177259621	-0.0424969793	-0.133762266	-0.198708
C	-1.3910555521	-0.5799510527	 0.0982362846	 0.056375
C	-2.3818302021	-0.5290688293	-1.1039178596	-0.246566
C	-2.6769445327	-2.0458797276	-0.9426294991	-0.024669
C	-2.1035321818	-2.948318069	-2.0364183171	-0.093262
O	-0.696781812	-2.969411037	-1.8129753358	-0.2502
C	-0.5274315124	-3.0370030852	-0.3997274356	-0.094385
C	-1.6043283305	-2.1265182303	 0.2006129048	-0.073883
H	 1.0661543727	 1.8436158041	-0.4674233557	 0.111013
H	-0.5747613944	 1.8108239897	-1.1225003665	 0.118536
H	-0.3239184375	 1.977596526	 0.6188758597	 0.110925
H	 0.4369136517	-0.5095129195	-1.0335222021	 0.112857
H	 0.6652819172	-0.3395309016	 0.7023722592	 0.089531
H	-1.819213014	-0.0861532791	 0.9779632307	 0.062979
H	-3.2438418664	 0.1300627756	-0.977367561	 0.094598
H	-1.8996384426	-0.2846733162	-2.0561952563	 0.098991
H	-3.7051144948	-2.2986256607	-0.6790904457	 0.067137
H	-2.5204125822	-3.9665728863	-1.9577437083	 0.083102
H	-2.2740298573	-2.5798311964	-3.0524032732	 0.105325
H	-0.6746168664	-4.0710710148	-0.0461606057	 0.083056
H	 0.5000143895	-2.7407294218	-0.1741755412	 0.10826
H	-1.9342409975	-2.4803085141	 1.1793368751	 0.064866
55.8191	122.2677	167.9107	225.2494	245.9778	308.1161	378.6302	401.4265	473.2061	586.5276	698.8186	753.3884	772.6804	801.9076	844.503	875.1053	919.9159	933.338	942.9531	960.7287	999.2185	1011.2189	1021.2227	1044.4163	1085.6807	1115.2985	1137.2461	1143.797	1170.5285	1203.924	1210.8613	1247.1184	1261.5736	1278.8631	1284.4337	1301.0035	1320.619	1336.5375	1346.6251	1353.398	1391.7773	1399.7946	1411.6956	1477.5034	1492.3299	1500.4709	1502.9567	1508.5503	1517.4014	2960.609	2967.603	3013.8324	3028.2758	3030.4031	3045.7136	3057.7466	3082.0778	3084.8218	3093.6219	3096.2561	3098.0032	3102.0913	3108.4013
CCC1CC2COCC12	CC[C@H]1C[C@H]2COC[C@@H]12	
InChI=1S/C8H14O/c1-2-6-3-7-4-9-5-8(6)7/h6-8H,2-5H2,1H3	InChI=1S/C8H14O/c1-2-6-3-7-4-9-5-8(6)7/h6-8H,2-5H2,1H3/t6-,7-,8-/m0/s1
