13
gdb 20330	6.53563	1.39806	1.15996	3.1557	63.95	-0.2657	0.0056	0.2713	953.7118	0.096902	-357.624612	-357.617637	-357.616693	-357.657387	24.504	
C	-0.4738315998	-0.7265194167	-1.0064942026	-0.413664
C	-0.1247530338	 0.1446170214	-0.2580817506	 0.27249
C	 0.2713740582	 1.1953409522	 0.6682815568	-0.267486
N	 1.5183967127	 1.8465903472	 0.2815856944	 0.030435
C	 2.3379086601	 1.6414300314	-0.7701801784	 0.034298
N	 3.3637545863	 2.4727419741	-0.719043842	-0.285062
C	 3.11313899	 3.1811343848	 0.414357241	 0.037716
N	 2.0077411952	 2.842766972	 1.0595235162	-0.248968
H	-0.7858198216	-1.4985995941	-1.6665603424	 0.215338
H	-0.5090212682	 1.9621598555	 0.7312766474	 0.168792
H	 0.3992005903	 0.7865074769	 1.6769247619	 0.168901
H	 2.1457044699	 0.8943186307	-1.5231223914	 0.157496
H	 3.7594661808	 3.9669119646	 0.7762853697	 0.129713
16.9984	135.0797	191.9422	321.5451	324.5841	475.4022	632.186	649.9592	693.5486	694.4524	756.385	865.8852	911.423	965.8275	988.1301	998.6025	1035.1971	1165.5344	1228.5584	1239.5903	1249.9526	1315.9993	1365.9567	1385.2147	1468.9479	1506.2979	1545.9776	2251.5632	3040.7391	3071.91	3259.2908	3281.4822	3500.7246
C#CCN1C=NC=N1	C#CCn1cncn1	
InChI=1S/C5H5N3/c1-2-3-8-5-6-4-7-8/h1,4-5H,3H2	InChI=1S/C5H5N3/c1-2-3-8-5-6-4-7-8/h1,4-5H,3H2
