17
gdb 69710	3.93543	1.35159	1.24006	5.1021	72.36	-0.2257	0.0287	0.2545	1038.1333	0.136791	-417.97163	-417.964101	-417.963157	-418.003344	29.725	
C	-0.0876744173	 1.5178840624	 0.0380631829	-0.517019
C	 0.1103028352	 0.0348806243	 0.0163214073	 0.332404
N	-0.777569288	-0.9059351388	 0.7278993223	-0.369707
C	 0.6805548959	-0.9212234226	 1.0072525267	-0.104928
C	 1.3531687624	-1.7671036492	-0.1023189283	-0.211822
C	 0.7628676531	-0.7845049925	-1.1539590076	-0.038067
N	 0.0364163703	-1.9101660535	-1.7356793138	-0.318316
C	 0.4332805398	-2.8304029044	-0.7673785352	 0.433697
O	 0.1470886817	-3.9783268	-0.5821751233	-0.353958
H	 0.8033920832	 2.0396209643	-0.3274356801	 0.129475
H	-0.9314177912	 1.8144166633	-0.5966982734	 0.130996
H	-0.2905562958	 1.8743934802	 1.0538282735	 0.122705
H	-1.223882718	-0.3886028449	 1.4847024541	 0.230274
H	 1.054995247	-0.7577520123	 2.0099297164	 0.100393
H	 2.419058965	-1.960944103	-0.0104604151	 0.100074
H	 1.3863026188	-0.2100194304	-1.8400760962	 0.087263
H	-0.8468602422	-1.9077823329	-2.2278721801	 0.246536
123.9596	182.3793	205.0936	287.0676	296.8501	420.9375	475.6202	484.9491	553.2715	631.8096	714.3381	729.1236	785.2694	822.1217	868.351	893.912	911.7231	950.0598	976.4053	1006.6052	1017.9628	1057.2645	1104.2901	1109.2123	1131.9055	1150.2723	1208.0497	1230.5284	1282.9677	1288.5295	1336.2628	1347.7276	1411.5408	1445.3657	1482.9418	1496.7967	1900.2069	3022.356	3084.6461	3096.6265	3106.006	3153.5378	3194.6299	3475.5833	3589.0569
CC12NC1C1C2NC1=O	C[C@]12N[C@H]1[C@@H]1[C@H]2NC1=O	
InChI=1S/C6H8N2O/c1-6-3-2(4(6)8-6)5(9)7-3/h2-4,8H,1H3,(H,7,9)	InChI=1S/C6H8N2O/c1-6-3-2(4(6)8-6)5(9)7-3/h2-4,8H,1H3,(H,7,9)/t2-,3+,4-,6+/m0/s1
