17
gdb 8124	4.23031	1.70149	1.42844	3.699	68.25	-0.2361	0.0286	0.2647	902.4182	0.143405	-363.9022	-363.894988	-363.894044	-363.933342	28.272	
C	-0.0579194759	 1.5152379952	 0.0325533383	-0.478045
C	 0.0417891132	 0.008904541	-0.0017101054	 0.339273
C	-0.8134546807	-0.817468802	 0.9422636221	-0.340742
C	 0.6892758603	-0.7760423946	 1.1175560718	-0.038556
N	 1.4436648669	-1.8268883383	 0.5003954548	-0.303108
C	 1.2809415218	-1.9072728171	-0.8652919472	 0.39354
O	 1.6859333355	-2.7992373099	-1.5748376395	-0.369383
C	 0.4799259569	-0.6656304646	-1.2953928827	-0.409372
H	 0.8712437977	 1.9817174613	-0.3142085555	 0.121305
H	-0.8698408323	 1.8716736044	-0.6117508625	 0.124233
H	-0.2573337093	 1.8786763526	 1.04566605	 0.116478
H	-1.4220268402	-0.2685013107	 1.6537724425	 0.114298
H	-1.2521118284	-1.7467051202	 0.5912858172	 0.116941
H	 1.1419393794	-0.2912639446	 1.97572864	 0.101812
H	 1.7573776368	-2.6428925506	 1.0036747748	 0.250035
H	-0.3440258946	-0.9770731592	-1.9437419571	 0.133046
H	 1.1285647428	-0.0125846426	-1.8903446016	 0.128244
107.7789	206.6747	234.1757	307.6995	367.8697	456.7768	473.2878	487.1961	562.1395	603.3417	691.0383	743.3371	837.2988	867.4035	889.166	925.3116	972.127	998.6905	1028.3909	1051.3113	1088.5779	1107.6117	1131.8974	1185.7681	1234.1066	1248.4727	1317.4246	1333.2824	1393.3902	1418.1968	1424.946	1461.1724	1486.4095	1491.8097	1502.0863	1832.5265	3024.7852	3049.3083	3086.0698	3095.4248	3099.2817	3121.3858	3165.8898	3211.5253	3625.0522
CC12CC1NC(=O)C2	C[C@]12C[C@H]1NC(=O)C2	
InChI=1S/C6H9NO/c1-6-2-4(6)7-5(8)3-6/h4H,2-3H2,1H3,(H,7,8)	InChI=1S/C6H9NO/c1-6-2-4(6)7-5(8)3-6/h4H,2-3H2,1H3,(H,7,8)/t4-,6-/m1/s1
