16
gdb 8125	4.24074	1.796	1.4955	4.0064	64.51	-0.232	0.0525	0.2845	862.0659	0.132075	-379.960231	-379.953104	-379.95216	-379.991123	27.968	
C	-0.0137376584	 1.551790261	 0.0364927412	-0.462844
C	 0.0688797278	 0.047694897	 0.0180436249	 0.34119
C	-0.8237227983	-0.8171054791	 0.8966628165	-0.349413
C	 0.6814523366	-0.7861855284	 1.1177159655	-0.039925
N	 1.4951126552	-1.7583951643	 0.4493789848	-0.338262
C	 1.2657723963	-1.7377992964	-0.926722086	 0.408631
O	 1.6051148776	-2.574743388	-1.7310306467	-0.398786
N	 0.5742085468	-0.5577278122	-1.1869276353	-0.385408
H	 0.9429224706	 1.9957959939	-0.2551572891	 0.133021
H	-0.7823159416	 1.9124433921	-0.6570480682	 0.122303
H	-0.2768157503	 1.9126581858	 1.0348052279	 0.122147
H	-1.4336954792	-0.3028675588	 1.6318384578	 0.116181
H	-1.2640582474	-1.7141250049	 0.4742967707	 0.118802
H	 1.0932303121	-0.3335377289	 2.0130192592	 0.10761
H	 1.6927405214	-2.6581909696	 0.8580082215	 0.253993
H	 0.0781997708	-0.5009330091	-2.0623070648	 0.250759
148.0306	205.3379	231.4144	302.7902	408.0474	438.1669	478.1516	491.7106	512.9531	605.6691	705.2506	772.7709	777.292	830.6677	891.9603	948.7275	976.7174	998.3961	1029.6614	1034.309	1086.4845	1122.0554	1149.1116	1248.1292	1273.9947	1350.1573	1377.7602	1380.1001	1413.3011	1427.7465	1476.0034	1485.9125	1502.0169	1852.3009	3031.8731	3095.2561	3117.4866	3127.9959	3166.5337	3222.3921	3638.734	3640.744
CC12CC1NC(=O)N2	C[C@]12C[C@H]1NC(=O)N2	
InChI=1S/C5H8N2O/c1-5-2-3(5)6-4(8)7-5/h3H,2H2,1H3,(H2,6,7,8)	InChI=1S/C5H8N2O/c1-5-2-3(5)6-4(8)7-5/h3H,2H2,1H3,(H2,6,7,8)/t3-,5+/m1/s1
