17
gdb 14256	4.70466	1.57474	1.37039	3.2121	69.75	-0.2188	-0.0208	0.1981	931.5769	0.141696	-363.835673	-363.8283	-363.827356	-363.867398	27.784	
C	-0.0326486121	 1.6021349591	 0.1925381392	-0.32581
N	 0.0245930856	 0.1607476372	 0.1281726234	-0.070463
C	-1.2264188389	-0.6018684628	 0.3185135769	-0.177983
C	-0.4643198012	-1.6088491766	 1.2137602988	-0.176601
C	 0.7160920704	-0.5814730132	 1.2086820452	 0.004068
C	 1.695700482	-1.6393717181	 0.6429714069	-0.342424
C	 0.4760605312	-2.5710296764	 0.4539753012	 0.408153
O	 0.3146357581	-3.636746334	-0.0627353444	-0.294467
H	 0.9785602053	 2.0174350302	 0.1270383353	 0.123239
H	-0.6061729586	 1.9872104449	-0.6573173811	 0.125233
H	-0.5020105148	 1.9849106624	 1.1194069873	 0.090615
H	-1.9843738434	-0.0528960434	 0.8995776551	 0.093572
H	-1.6879683579	-0.9790161957	-0.6003139495	 0.11715
H	-0.9628883776	-2.0047011539	 2.0973253641	 0.100742
H	 1.0093888542	 0.0011710171	 2.0856595752	 0.069612
H	 2.2647249435	-1.3720531375	-0.2496394024	 0.130883
H	 2.3727972945	-2.0535558893	 1.4007439988	 0.12448
72.7961	163.2321	210.5617	279.0289	309.6098	396.625	436.2749	524.3713	610.4205	702.1397	737.3587	835.2396	860.9915	931.9057	953.9507	978.694	1000.2671	1026.3295	1057.9228	1106.0554	1133.9991	1135.8599	1175.3331	1192.6889	1212.2852	1234.1372	1247.6433	1264.6115	1304.2156	1346.2097	1422.5188	1454.0758	1487.3359	1501.4148	1518.5706	1892.8467	2920.2505	2975.0336	3038.9877	3055.4622	3062.5015	3077.4164	3098.7236	3122.2691	3129.3406
CN1CC2C1CC2=O	CN1C[C@@H]2[C@H]1CC2=O	
InChI=1S/C6H9NO/c1-7-3-4-5(7)2-6(4)8/h4-5H,2-3H2,1H3	InChI=1S/C6H9NO/c1-7-3-4-5(7)2-6(4)8/h4-5H,2-3H2,1H3/t4-,5-/m1/s1
