17
gdb 81234	2.46677	1.94978	1.70801	2.2862	67.77	-0.2494	0.0477	0.297	882.3696	0.136533	-458.862474	-458.855448	-458.854504	-458.893474	28.629	
O	 0.1195860624	 1.4586430734	-0.0855934967	-0.414863
C	 0.039149607	 0.0701232186	 0.0341187128	 0.090835
C	-0.0009406191	-0.6360165271	 1.4079865148	 0.00691
C	-1.0714781612	 0.2544652501	 2.1470990199	-0.312923
C	-2.1664720965	 0.0380896952	 1.0780632021	 0.149997
O	-2.7601690844	 0.8959135825	 0.0382109412	-0.305236
C	-2.4494870385	-0.1393269732	-0.9539401522	-0.207707
C	-1.3431265275	-0.6029050541	 0.0061247046	 0.333009
O	-0.7217267164	-1.7337800734	 0.703399336	-0.368694
H	 1.036720589	 1.6989635194	-0.2479603319	 0.29231
H	 0.7060915839	-0.4617461952	-0.6522991338	 0.089071
H	 0.8735625459	-0.9923573204	 1.9508379725	 0.085323
H	-1.3649853117	-0.1159417872	 3.1300333693	 0.106129
H	-0.6975275993	 1.2765058339	 2.2286397336	 0.134253
H	-2.9530279014	-0.6239571734	 1.4577886172	 0.086007
H	-3.2857053719	-0.8364282217	-1.0865010079	 0.114861
H	-2.1407101502	 0.2918708228	-1.9097107012	 0.12072
187.5845	225.021	250.3619	297.9924	386.2546	402.0127	455.8302	555.8357	625.532	682.6714	732.6848	790.6181	811.6804	829.1747	889.0531	904.2124	918.1062	965.1701	1013.1156	1021.7409	1071.2818	1115.6985	1131.4728	1160.8879	1165.8845	1181.3704	1202.175	1240.0638	1265.7726	1275.3448	1287.5966	1315.3926	1331.9461	1396.9208	1445.1326	1472.0098	1500.8814	3027.7087	3035.8812	3061.1241	3086.9967	3105.4598	3136.1489	3145.9279	3827.5085
OC1C2CC3OCC13O2	O[C@H]1[C@H]2C[C@H]3OC[C@@]13O2	
InChI=1S/C6H8O3/c7-5-3-1-4-6(5,9-3)2-8-4/h3-5,7H,1-2H2	InChI=1S/C6H8O3/c7-5-3-1-4-6(5,9-3)2-8-4/h3-5,7H,1-2H2/t3-,4-,5+,6+/m1/s1
