20
gdb 106434	2.63588	1.29241	1.03017	2.1234	86.	-0.2283	0.0258	0.254	1240.3006	0.170182	-365.903354	-365.894528	-365.893584	-365.936929	34.018	
C	 0.052125774	 1.5473060346	 0.0497047754	-0.381831
C	-0.0431375535	 0.0207746873	-0.0564247923	-0.319158
C	-1.4641893162	-0.4889096731	-0.0291293038	 0.322238
C	-2.5400792234	-0.3973404733	 1.0808604053	-0.207845
N	-3.2893211294	-1.1868926178	-0.0066484304	-0.152345
C	-2.6509464286	-0.1744049982	-0.9767302146	-0.222532
C	-1.9517292553	-1.9693884659	-0.14491677	-0.223083
C	-1.739093654	-2.7282893685	-1.3585189686	 0.335339
C	-1.5262855029	-3.377397908	-2.3487424935	-0.430657
H	 1.0939050952	 1.8791265397	 0.0189357392	 0.117432
H	-0.4779980135	 2.0348202736	-0.7751745442	 0.121109
H	-0.3854839307	 1.9093450164	 0.986072406	 0.119015
H	 0.4309485473	-0.320253907	-0.9856035205	 0.110997
H	 0.5174437965	-0.4460393072	 0.764141744	 0.1005
H	-2.3832778014	-0.9624155357	 2.0048520107	 0.098227
H	-2.9887662817	 0.5782831901	 1.2817137362	 0.1024
H	-3.1053313206	 0.8176566232	-0.9149050327	 0.099584
H	-2.5986791065	-0.528956797	-2.0075305757	 0.118075
H	-1.7676105259	-2.5969472906	 0.7336006466	 0.096147
H	-1.3506797395	-3.9512970624	-3.224990887	 0.196386
67.985	111.9275	180.1848	192.3822	211.7922	321.7131	351.6654	442.1825	513.9506	548.4968	603.2617	626.5027	648.9543	652.9799	754.6375	785.4684	825.3842	889.5846	904.5643	950.1674	955.1959	987.1543	1021.2442	1051.8048	1075.8494	1101.1814	1135.09	1165.0844	1175.8242	1191.2445	1199.1183	1253.4129	1303.5909	1315.5048	1370.8753	1388.9013	1412.7138	1480.5785	1500.8232	1506.1934	1510.3197	1549.8138	2229.0562	3018.7893	3035.1616	3045.7895	3051.6837	3052.7728	3065.853	3102.5218	3109.2558	3118.0013	3135.1898	3501.9169
CCC12CN(C1)C2C#C	CC[C@@]12CN(C1)[C@H]2C#C	
InChI=1S/C8H11N/c1-3-7-8(4-2)5-9(7)6-8/h1,7H,4-6H2,2H3	InChI=1S/C8H11N/c1-3-7-8(4-2)5-9(7)6-8/h1,7H,4-6H2,2H3/t7-/m0/s1
