19
gdb 40726	4.16296	1.13762	1.0761	1.3662	75.21	-0.2437	0.0804	0.324	1175.0741	0.160765	-422.97569	-422.968386	-422.967442	-423.007957	28.922	
C	 0.1432003562	 1.4458287665	 0.0005534087	-0.178237
O	 1.1802471706	 0.4727576707	-0.1404057192	-0.239051
C	-0.1738182487	 0.0154136829	-0.0637521353	 0.059353
C	-0.518966795	-0.758186604	 1.1831891559	 0.119093
O	-1.951105857	-0.7551512545	 1.4070487045	-0.300098
C	-2.2391754247	-2.1636381168	 1.5120245917	 0.117339
C	-1.095480331	-2.6965963741	 2.4073950444	-0.238438
C	-0.2602485366	-2.2754839213	 1.1540235	-0.081381
C	-1.479859006	-2.7731639055	 0.3111289885	-0.239521
H	 0.1097355641	 1.9583121376	 0.9609948747	 0.117132
H	-0.0307557969	 2.0750441976	-0.8707220119	 0.116894
H	-0.5698405125	-0.378315659	-0.9995959118	 0.093137
H	-0.006799097	-0.2817528913	 2.0297210482	 0.077464
H	-3.3002251921	-2.3041898766	 1.7104169816	 0.081123
H	-0.9142216377	-2.1755032418	 3.3507316691	 0.10139
H	-1.1227456203	-3.7773782047	 2.5543708617	 0.102729
H	 0.762571303	-2.6049820884	 0.9796565162	 0.086363
H	-1.5358686819	-3.8619621354	 0.2696913987	 0.10323
H	-1.6650998166	-2.3396027019	-0.6736398156	 0.10148
61.7803	159.9098	168.2234	324.1713	431.3057	433.6658	505.3564	535.0248	674.7835	820.9872	842.3308	858.3343	860.4033	873.1275	881.9404	926.3011	934.6059	975.5418	982.7741	1012.5546	1036.9365	1053.2608	1083.1406	1098.3662	1108.7445	1131.2667	1150.545	1164.0374	1185.9662	1211.5607	1242.365	1249.3512	1281.0961	1286.7938	1290.3279	1329.3906	1335.5206	1462.0643	1478.3152	1511.4366	1529.0445	3015.7629	3067.1133	3075.708	3085.4622	3114.5486	3134.1765	3135.9357	3139.4536	3142.823	3173.9388
C1OC1C1OC2CC1C2	C1O[C@H]1[C@H]1O[C@@H]2C[C@H]1C2	
InChI=1S/C7H10O2/c1-4-2-5(1)9-7(4)6-3-8-6/h4-7H,1-3H2	InChI=1S/C7H10O2/c1-4-2-5(1)9-7(4)6-3-8-6/h4-7H,1-3H2/t4-,5+,6-,7+/m1/s1
