25
gdb 113845	3.47448	0.82046	0.729	0.0914	94.24	-0.2566	0.087	0.3435	1696.2266	0.22946	-352.339285	-352.329449	-352.328504	-352.374684	37.221	
C	 0.4381199346	 1.6367168225	 0.1850910407	-0.372865
C	-0.1150064054	 0.23017768	-0.0743407866	-0.196055
C	 0.5164200765	-0.4245610531	-1.2872794358	 0.015454
C	 1.813754592	-1.1902685679	-1.1765936052	-0.309789
C	 0.5330246857	-1.9217615418	-1.5160948562	-0.034521
C	-0.0823595597	-2.9119892667	-0.5651885426	 0.056138
C	-1.5776504794	-3.3126328326	-0.7455225254	-0.228902
C	-1.1926933627	-4.7714774259	-0.3824600401	-0.209847
C	 0.2827006838	-4.4201738595	-0.7126293869	-0.232537
H	 1.5192585242	 1.6077620148	 0.3565627548	 0.117311
H	 0.2577363421	 2.2957702759	-0.6714724336	 0.112176
H	-0.0315643511	 2.0942834741	 1.0615997938	 0.107631
H	 0.0476712258	-0.389766494	 0.814641026	 0.094827
H	-1.2031458194	 0.2859889152	-0.2116782943	 0.095895
H	 0.4071610723	 0.1671618525	-2.194493171	 0.075375
H	 2.5710375712	-1.0687840608	-1.9435986837	 0.104835
H	 2.2167193677	-1.3399393288	-0.1785962501	 0.104438
H	 0.4323327454	-2.2194987359	-2.5587983074	 0.070965
H	 0.0884249076	-2.6029547141	 0.4714042643	 0.062489
H	-2.3215006798	-2.8036605662	-0.127048558	 0.092187
H	-1.8821872877	-3.226491156	-1.794052026	 0.095213
H	-1.3315901398	-4.9731697056	 0.6839041944	 0.098772
H	-1.6628412923	-5.5784723003	-0.9493864238	 0.093228
H	 0.5303615819	-4.6628214626	-1.7514856956	 0.095437
H	 1.0680328065	-4.8222484434	-0.0674738715	 0.092143
56.0268	79.2858	102.9398	143.5709	184.4433	232.6212	281.0431	328.0562	363.5807	438.5889	550.2075	631.36	750.5229	759.1295	786.5847	800.314	853.2381	885.652	908.2205	931.9751	946.6818	949.3787	963.8324	985.513	1029.1683	1054.4594	1056.8142	1066.5946	1100.0409	1120.5159	1147.0098	1197.605	1201.5474	1203.5378	1236.6517	1254.1266	1258.244	1260.0046	1276.1422	1286.0629	1299.7366	1326.0752	1345.6023	1407.2203	1416.011	1442.8095	1479.1339	1482.9492	1486.8182	1496.5276	1498.031	1506.7721	1511.3502	3017.4081	3030.366	3042.7877	3043.7871	3048.3459	3055.415	3060.2132	3093.2177	3097.9205	3098.2727	3103.3958	3107.8344	3114.8515	3120.073	3122.8553	3204.4221
CCC1CC1C1CCC1	CC[C@H]1C[C@H]1C1CCC1	
InChI=1S/C9H16/c1-2-7-6-9(7)8-4-3-5-8/h7-9H,2-6H2,1H3	InChI=1S/C9H16/c1-2-7-6-9(7)8-4-3-5-8/h7-9H,2-6H2,1H3/t7-,9+/m0/s1
