18
gdb 84347	2.15001	1.59331	1.29231	3.7655	76.31	-0.2736	-0.017	0.2566	1068.188	0.148146	-401.973479	-401.964788	-401.963843	-402.006898	32.613	
C	-0.8217728534	 1.1864688996	-0.0911874646	-0.403858
C	-0.0160348098	-0.1069555972	-0.0562878601	-0.033333
C	 1.0586021327	-0.2461053042	-1.1732315965	 0.085922
O	 1.6556705833	 0.9793126441	-1.5821807638	-0.424783
C	 2.0716580392	-1.1791133646	-0.5492342694	-0.096087
C	 1.9385015426	-1.2494725921	 0.7733725099	-0.071791
C	 0.7650079851	-0.411995605	 1.2680032263	-0.219196
C	 1.2519124042	 0.7880258094	 1.9575779154	 0.275681
N	 1.6567105776	 1.737980992	 2.4786873698	-0.334698
H	-0.1781836443	 2.0629007458	 0.0083744898	 0.141783
H	-1.3550641146	 1.273158389	-1.0424324354	 0.1226
H	-1.5613622156	 1.2118901754	 0.7152445213	 0.117468
H	-0.6961066407	-0.9574425769	-0.1804338642	 0.093974
H	 0.6098799348	-0.6473540868	-2.0872546314	 0.093384
H	 2.2019761538	 1.3042290802	-0.8567221627	 0.289269
H	 2.8522343673	-1.6577368519	-1.1291363535	 0.113677
H	 2.5808935351	-1.7889056715	 1.4590455	 0.121702
H	 0.1319573027	-0.9603472652	 1.9746532393	 0.128284
58.4508	142.8075	172.1826	210.3239	250.2601	292.576	349.8123	380.4312	457.8535	515.1972	549.3248	592.0564	694.7779	769.2664	778.504	833.7436	871.7263	955.5357	979.7839	988.0192	999.6284	1009.7274	1082.6018	1129.9793	1144.4699	1161.8742	1211.9901	1259.5947	1288.1125	1312.7063	1345.6093	1349.8005	1364.1907	1420.0536	1434.728	1491.7608	1496.0645	1679.1395	2346.5146	3036.8671	3046.0923	3051.9204	3068.4642	3110.4659	3133.9291	3195.8556	3219.9571	3793.6596
CC1C(O)C=CC1C#N	C[C@H]1[C@@H](O)C=C[C@H]1C#N	
InChI=1S/C7H9NO/c1-5-6(4-8)2-3-7(5)9/h2-3,5-7,9H,1H3	InChI=1S/C7H9NO/c1-5-6(4-8)2-3-7(5)9/h2-3,5-7,9H,1H3/t5-,6+,7+/m1/s1
