18
gdb 15153	9.1221	0.6596	0.64721	1.7941	77.58	-0.2428	0.0623	0.3051	1738.8758	0.151689	-347.761059	-347.751637	-347.750693	-347.797319	31.762	
C	 0.0416008396	 1.4731253686	-0.0026524552	-0.496881
C	-0.0095437018	 0.0202100901	-0.0867546303	 0.103126
C	-0.0400256273	-1.1811611527	-0.1629317606	 0.02538
C	-0.1078078135	-2.6355960519	-0.2414489435	-0.345686
C	-1.4293425171	-3.2102874252	 0.3136340209	-0.207109
C	-1.45949042	-4.7158239112	 0.2351118177	 0.093309
C	-2.6767436413	-5.4640124879	-0.0994005271	-0.181681
O	-1.6424699692	-5.2820541966	-1.0677773281	-0.236921
H	 0.9182803883	 1.8099823408	 0.5618980923	 0.145637
H	 0.0946148932	 1.9291325867	-0.9976042446	 0.146446
H	-0.8466150124	 1.8754984297	 0.4972850468	 0.145094
H	 0.0033117342	-2.9628845723	-1.2826538641	 0.143892
H	 0.7366061529	-3.075482129	 0.3068651783	 0.122461
H	-1.5549560772	-2.8972474305	 1.356911814	 0.110674
H	-2.2704641419	-2.798274999	-0.2529735639	 0.113849
H	-0.7001544174	-5.2303946284	 0.8287333249	 0.090493
H	-2.8063107408	-6.4831617182	 0.262517904	 0.114152
H	-3.6008570684	-4.9211422829	-0.2950812213	 0.113764
22.9345	53.6336	79.0882	96.0075	202.7	216.5013	286.6868	376.1437	391.9899	454.8171	504.9573	749.0716	774.752	811.8161	876.2641	946.3723	997.6113	1029.3943	1053.4651	1054.5387	1098.9857	1119.9661	1159.4848	1169.2562	1171.8324	1219.4768	1278.2178	1297.4029	1313.7457	1371.7666	1416.0129	1446.8863	1470.9103	1479.395	1479.9187	1485.3732	1530.5636	2374.5401	3012.3407	3025.1348	3039.9919	3050.7307	3077.1418	3082.0703	3084.5156	3085.0412	3097.5774	3166.8569
CC#CCCC1CO1	CC#CCC[C@H]1CO1	
InChI=1S/C7H10O/c1-2-3-4-5-7-6-8-7/h7H,4-6H2,1H3	InChI=1S/C7H10O/c1-2-3-4-5-7-6-8-7/h7H,4-6H2,1H3/t7-/m0/s1
