20
gdb 118306	4.30288	0.58498	0.53538	4.1921	74.08	-0.2485	0.0335	0.2819	1999.8736	0.169214	-477.438777	-477.428053	-477.427109	-477.476022	37.179	
O	-0.0455509658	 1.40064913	-0.0865355654	-0.421323
C	-0.0210449741	-0.0144363127	-0.1897122356	-0.076937
C	-1.4258042786	-0.5206237843	 0.1160587188	-0.194386
C	-1.5335889345	-2.0439285835	 0.0910801571	 0.098508
O	-0.6638132754	-2.6623721707	 1.0479161415	-0.437817
C	-2.9724184596	-2.5255621214	 0.3022617576	-0.166442
N	-3.0185283398	-3.9739037974	 0.3305660553	-0.276075
C	-3.9502478973	-4.7042794716	-0.3332458338	 0.153412
O	-4.8772966096	-4.2467451052	-0.9690774733	-0.326768
H	 0.8421160743	 1.7297883855	-0.2546622779	 0.287836
H	 0.2746139979	-0.3382567756	-1.2011047011	 0.088894
H	 0.6933921655	-0.4611612276	 0.516560808	 0.096469
H	-1.7300723627	-0.1432352321	 1.1024871642	 0.100214
H	-2.1264969168	-0.0910491486	-0.6092230684	 0.118678
H	-1.1813452714	-2.4266100781	-0.8747632175	 0.100334
H	-0.8481160316	-2.2652099739	 1.9077865217	 0.282452
H	-3.3634901815	-2.104143101	 1.2415326099	 0.099683
H	-3.6286963551	-2.1891365018	-0.5039616445	 0.147826
H	-2.251989274	-4.4391089281	 0.7925984056	 0.252417
H	-3.7696033098	-5.792471112	-0.2260169022	 0.073023
37.4373	66.6069	95.3208	110.0181	129.8851	228.0819	238.0974	267.2619	320.7506	334.7057	376.2346	393.2019	479.9403	586.0282	602.903	772.1404	797.4243	889.1669	963.4789	977.8761	1032.6091	1041.4973	1061.6521	1085.3194	1114.7977	1122.6677	1206.5967	1214.1986	1228.7196	1246.4896	1297.3519	1299.5541	1341.0603	1365.9759	1402.6408	1421.9216	1428.9587	1462.8315	1485.2125	1500.696	1520.8882	1531.5196	1803.4635	2935.1867	2968.4049	2984.127	3012.0064	3019.2904	3045.7513	3074.7801	3112.5895	3625.8234	3783.6699	3831.7309
OCCC(O)CNC=O	OCC[C@@H](O)CNC=O	
InChI=1S/C5H11NO3/c7-2-1-5(9)3-6-4-8/h4-5,7,9H,1-3H2,(H,6,8)	InChI=1S/C5H11NO3/c7-2-1-5(9)3-6-4-8/h4-5,7,9H,1-3H2,(H,6,8)/t5-/m1/s1
