18
gdb 38193	3.29714	1.85962	1.85237	1.0638	75.17	-0.2356	0.0694	0.305	845.5677	0.15067	-401.799311	-401.793383	-401.792439	-401.829062	26.553	
C	-0.0430262223	 1.5828906967	 0.0265449109	-0.312788
C	 1.4881899314	 1.2535790979	-0.0185333781	 0.092755
C	 1.1767610606	 0.0782614479	 0.969769382	-0.312788
C	-0.0557430646	 0.0292591966	 0.0250644212	 0.27
N	-0.9861399107	-1.0980199799	-0.5699725096	-0.233719
C	-0.8357682056	-0.308489839	-1.8941657712	-0.244022
C	 0.5938672456	-0.2647535034	-1.2840274336	 0.340132
C	 0.3487017223	-1.7695573203	-0.9782508585	-0.244022
O	 1.7067759721	 0.6127232574	-1.323503961	-0.332329
H	-0.3373092907	 2.0461950238	 0.969980334	 0.108397
H	-0.4540694855	 2.126935542	-0.8231923725	 0.11201
H	 2.2621321097	 1.995704572	 0.1644343479	 0.095393
H	 1.8807684034	-0.753130184	 0.9822697981	 0.11201
H	 0.9698284631	 0.4338177564	 1.9807504564	 0.108397
H	-1.0092825682	-0.9348354819	-2.7713444926	 0.10632
H	-1.426513049	 0.6060519145	-1.9294541189	 0.113968
H	 0.8774505655	-2.2359308347	-0.1478702816	 0.113968
H	 0.2259641126	-2.458538122	-1.816164763	 0.10632
300.159	339.2001	436.9486	477.7258	509.2897	532.2742	576.9831	608.2985	707.3833	771.9886	800.9794	820.4505	866.4151	873.6588	894.068	944.0511	953.465	978.5438	1005.6532	1025.9825	1042.0932	1071.4457	1077.7115	1101.8174	1111.9686	1112.4783	1153.6652	1164.2202	1182.7309	1220.3658	1221.883	1233.6967	1254.4329	1278.4923	1323.067	1481.1678	1512.8215	1516.363	1550.9769	3076.2754	3081.6357	3081.7998	3090.0546	3146.1449	3150.8452	3155.7268	3158.5586	3160.4852
C1C2CC11N3CC1(C3)O2	C1[C@H]2C[C@]31N1C[C@@]3(C1)O2	
InChI=1S/C7H9NO/c1-5-2-6(1)7(9-5)3-8(6)4-7/h5H,1-4H2	InChI=1S/C7H9NO/c1-5-2-6(1)7(9-5)3-8(6)4-7/h5H,1-4H2/t5-,6-
