18
gdb 124496	2.58427	1.2744	1.0483	4.8076	75.66	-0.2221	-0.0144	0.2077	1216.6472	0.14621	-435.259493	-435.250128	-435.249184	-435.294198	34.352	
C	-0.0316843329	 1.5589143515	 0.0040790469	-0.378194
C	-0.045564791	 0.0190726012	-0.0249777685	-0.099773
C	-1.4860117108	-0.523603414	 0.0001336719	-0.377471
C	 0.7202066815	-0.5124148293	-1.2009651263	 0.205329
C	 1.8829943017	-1.2500417752	-1.2723768225	 0.344239
N	 2.7433486722	-1.6975462218	-0.3063961069	-0.591623
O	 2.1935216641	-1.484586933	-2.5344806347	-0.226402
N	 1.11863796	-0.8259915105	-3.3303942469	-0.047184
N	 0.3420430564	-0.3092165585	-2.5013388441	-0.156523
H	 0.9910663818	 1.9451573934	 0.0425244395	 0.116998
H	-0.5078122544	 1.9589299693	-0.8964323055	 0.137002
H	-0.5761618108	 1.9363390498	 0.8757062463	 0.109499
H	 0.4663152527	-0.3365057899	 0.8808147854	 0.06264
H	-2.0229036203	-0.2157460705	-0.9021597529	 0.139161
H	-1.4987412908	-1.6170079569	 0.0394412253	 0.111105
H	-2.030044999	-0.1410439992	 0.8696555186	 0.109981
H	 2.3437895919	-1.8091336051	 0.6128025593	 0.268429
H	 3.3365391578	-2.4650011612	-0.5850036848	 0.272788
26.1834	136.9207	165.7414	228.1004	251.5814	270.1775	283.6776	310.0945	361.0164	451.4468	455.9849	542.8294	594.1666	628.4379	677.1587	749.9505	770.8272	890.8101	927.7308	962.0354	984.5726	1067.5893	1090.9893	1126.9879	1167.912	1223.2863	1302.791	1326.1376	1384.496	1397.137	1417.8314	1471.5669	1481.5089	1485.0721	1491.6207	1501.7608	1512.9369	1616.361	1664.2427	2998.0247	3033.9513	3038.0284	3105.1944	3109.0823	3113.2296	3117.1403	3579.3895	3685.1103
CC(C)C1=C(N)ON=N1	CC(C)c1c(N)onn1	
InChI=1S/C5H9N3O/c1-3(2)4-5(6)9-8-7-4/h3H,6H2,1-2H3	InChI=1S/C5H9N3O/c1-3(2)4-5(6)9-8-7-4/h3H,6H2,1-2H3
