21
gdb 111982	3.97273	1.04908	0.93474	1.3444	84.14	-0.2232	0.0238	0.247	1322.3111	0.182653	-387.085562	-387.076604	-387.07566	-387.118898	34.655	
C	 0.0487052466	 1.5775878402	 0.056625339	-0.486268
C	 0.0326604142	 0.0686616152	-0.0063819123	 0.326298
C	-0.8977035137	-0.7390103084	 0.8791986258	-0.323809
C	 0.6005971092	-0.8384775143	 1.0755942592	-0.112611
C	 1.3731200543	-1.9721854156	 0.3976686429	-0.042814
C	 1.0148382913	-3.3714626504	 0.8997670005	-0.080668
O	 1.8320690806	-4.302301801	 0.2012200041	-0.422908
C	 1.0804094064	-1.7498105442	-1.0749832291	-0.080448
C	 0.3819279447	-0.6324679833	-1.2838633995	-0.151159
H	 1.0223541979	 1.9800299056	-0.2450664846	 0.118402
H	-0.7094645827	 2.0101264902	-0.6072614282	 0.116082
H	-0.1620297759	 1.9325503605	 1.0703714952	 0.113361
H	-1.4456146537	-0.2020699599	 1.64822932	 0.103215
H	-1.4417172741	-1.5650805989	 0.4340869537	 0.108343
H	 1.0063367629	-0.410278763	 1.985671503	 0.080117
H	 2.4508694462	-1.8498590415	 0.5807946856	 0.086621
H	 1.1891973354	-3.4269287433	 1.9862395138	 0.083772
H	-0.0529850188	-3.5695272947	 0.7245544048	 0.085926
H	 1.5768512842	-5.1890529592	 0.4710493917	 0.286202
H	 1.4004696927	-2.4549233805	-1.8320510511	 0.104557
H	 0.0635809425	-0.2593841835	-2.2521736243	 0.08779
94.3815	136.4069	173.2928	206.8257	253.1044	261.8815	303.9156	367.7783	402.0731	479.6673	557.084	616.7358	718.855	758.666	784.5677	837.4891	844.0981	926.1231	936.908	961.2107	977.8122	984.374	1048.5494	1059.131	1074.7779	1077.5201	1082.2578	1106.9465	1125.378	1145.3526	1236.7876	1239.5729	1265.5397	1277.5402	1317.4486	1346.659	1350.1465	1406.5315	1420.0559	1452.9154	1481.6168	1488.5385	1502.1153	1519.5095	1669.6163	2970.3409	2991.6342	3014.517	3022.114	3080.6883	3098.3743	3119.0126	3165.3073	3177.637	3206.9065	3218.6367	3832.4239
CC12CC1C(CO)C=C2	C[C@]12C[C@H]1[C@@H](CO)C=C2	
InChI=1S/C8H12O/c1-8-3-2-6(5-9)7(8)4-8/h2-3,6-7,9H,4-5H2,1H3	InChI=1S/C8H12O/c1-8-3-2-6(5-9)7(8)4-8/h2-3,6-7,9H,4-5H2,1H3/t6-,7+,8+/m1/s1
