12
gdb 48193	2.68464	0.82131	0.64925	3.8278	80.89	-0.2787	-0.0747	0.204	1580.9539	0.074218	-398.294793	-398.285662	-398.284718	-398.330056	30.813	
O	-0.0317389539	 0.0200965582	 0.045744948	-0.212942
C	 0.0000779184	 1.2135604707	 0.0250633173	 0.177459
C	 1.3376561528	 2.0224252908	-0.000245594	-0.439261
C	 1.3708625156	 2.8179390512	-1.2258411054	 0.304952
C	 1.3377776527	 3.442023999	-2.2507656424	-0.408854
C	 1.4162254084	 2.8426419714	 1.2034611432	 0.133641
C	 1.4365646531	 3.4948894264	 2.2191160362	 0.035464
C	 1.4701616419	 4.2398344606	 3.3631548569	 0.218989
N	 1.4974076068	 4.8732150716	 4.3361812685	-0.326317
H	-0.90315201	 1.8541524918	 0.0092198292	 0.123962
H	 2.1439124742	 1.2783774389	 0.0037056622	 0.172084
H	 1.33171434	 4.0012762794	-3.1545150396	 0.220825
52.1972	77.0356	90.6343	168.3876	197.0838	226.1571	340.0141	423.1747	446.2051	484.6795	506.8214	575.3358	581.0751	665.6375	669.1949	777.8832	943.9762	977.6708	1034.657	1173.819	1206.042	1305.5655	1398.3841	1850.8718	2243.6728	2268.7316	2402.993	2949.3319	3041.9468	3498.9354
O=CC(C#C)C#CC#N	O=C[C@@H](C#C)C#CC#N	
InChI=1S/C7H3NO/c1-2-7(6-9)4-3-5-8/h1,6-7H	InChI=1S/C7H3NO/c1-2-7(6-9)4-3-5-8/h1,6-7H/t7-/m0/s1
