20
gdb 66164	3.66949	0.91635	0.87092	3.5619	76.76	-0.2459	0.0322	0.2781	1400.6098	0.170156	-440.3006	-440.291018	-440.290074	-440.336202	34.389	
C	-0.5208929518	 1.5518230323	-0.2714252813	-0.436264
C	-0.0856530923	 0.1038583491	-0.1284238429	 0.42223
C	-1.2515428738	-0.8473695913	 0.1653871437	-0.198422
N	-1.7673856434	-0.6207354152	 1.5007822237	-0.268759
C	-3.0784233412	-0.3961763719	 1.7743563908	 0.15365
O	-3.9752935136	-0.3874201679	 0.9568037653	-0.327235
C	 0.9165427447	-0.4301970472	-1.1821814842	-0.339124
C	 1.8592287343	-0.6464904951	 0.016232998	-0.066092
O	 0.915076249	-0.0459086975	 0.9300781852	-0.333927
H	 0.3504535863	 2.200322004	-0.3951404789	 0.118915
H	-1.1728937045	 1.6691925814	-1.1435953929	 0.125173
H	-1.0729502218	 1.8813174938	 0.6132903532	 0.131079
H	-2.0777366759	-0.6999442049	-0.5344230863	 0.145536
H	-0.9039834439	-1.8843066247	 0.0673691042	 0.101064
H	-1.0874150853	-0.5788497355	 2.2448716304	 0.258235
H	-3.2452468937	-0.2206531559	 2.855786696	 0.073802
H	 0.6052219149	-1.3274023426	-1.7204822439	 0.112523
H	 1.2516783716	 0.3209859337	-1.8987730184	 0.114164
H	 2.0646532335	-1.6938843532	 0.2692737276	 0.104514
H	 2.807099527	-0.0975257713	-0.0058522294	 0.108936
36.0133	68.7504	88.5767	183.0549	223.5512	235.6171	292.4607	321.1902	366.58	414.7787	494.5766	603.6147	684.6523	769.3718	789.1758	859.2549	886.9768	928.4812	945.9778	975.79	996.1687	1020.9044	1034.577	1041.8357	1150.0905	1162.7547	1207.7189	1209.1317	1212.5732	1249.3644	1269.8614	1312.1176	1349.5952	1386.3328	1411.0161	1428.8666	1478.5537	1487.4234	1492.217	1495.4501	1525.4752	1532.7846	1802.597	2935.9086	3014.8178	3020.8718	3040.4886	3063.4228	3078.2775	3111.2629	3116.1567	3122.6734	3134.0069	3626.0188
CC1(CNC=O)CCO1	C[C@@]1(CNC=O)CCO1	
InChI=1S/C6H11NO2/c1-6(2-3-9-6)4-7-5-8/h5H,2-4H2,1H3,(H,7,8)	InChI=1S/C6H11NO2/c1-6(2-3-9-6)4-7-5-8/h5H,2-4H2,1H3,(H,7,8)/t6-/m0/s1
