18
gdb 29338	1.9364	1.86676	0.96181	2.6316	89.54	-0.1948	0.02	0.2148	1216.877	0.146421	-364.838656	-364.829092	-364.828148	-364.872919	35.118	
C	-0.0375676389	 1.5198796705	 0.0188287451	-0.514789
C	-0.0076939059	 0.0242610458	 0.0031244109	 0.173773
C	-0.0043455126	-0.7981659268	-1.092578654	-0.17186
N	 0.0275722129	-2.1057253152	-0.6538746363	-0.304157
C	 0.0447610412	-2.1511022611	 0.712019621	 0.211859
C	 0.0796154576	-3.4280767233	 1.4800310296	-0.520056
C	 0.0236170216	-0.8357039713	 1.1591541002	 0.01749
C	 0.0316566939	-0.4214343325	 2.5102024942	 0.248665
C	 0.0381064208	-0.0505141977	 3.6581063945	-0.480942
H	 0.839779546	 1.9342276676	 0.5284932462	 0.130824
H	-0.0583079118	 1.9242915162	-0.997216489	 0.114562
H	-0.9179452537	 1.89885519	 0.550322297	 0.130826
H	-0.0216024339	-0.5642901218	-2.1451549586	 0.118065
H	 0.0358486695	-2.9141768917	-1.2510568055	 0.259101
H	 0.972621344	-4.023147198	 1.2515213909	 0.127864
H	 0.089653361	-3.2052929587	 2.5489008861	 0.153928
H	-0.7956674453	-4.0571968491	 1.27532402	 0.127909
H	 0.0437964035	 0.274582507	 4.6682440976	 0.176938
96.6464	98.8633	126.637	138.239	201.5818	247.1408	301.5795	363.5758	459.1791	483.8369	509.8832	532.5489	554.2271	630.9164	653.3877	654.2771	712.294	720.0006	759.3018	979.6019	1003.4513	1050.0473	1059.6175	1067.3385	1109.1277	1215.4112	1263.9867	1334.2699	1395.7216	1419.8481	1420.7759	1463.9363	1479.4175	1484.2668	1493.836	1509.6533	1564.2816	1625.3498	2220.1823	3017.6825	3027.8604	3062.7421	3077.542	3107.4099	3131.0236	3259.0489	3505.1935	3678.4854
CC1=CNC(C)=C1C#C	Cc1c[nH]c(C)c1C#C	
InChI=1S/C8H9N/c1-4-8-6(2)5-9-7(8)3/h1,5,9H,2-3H3	InChI=1S/C8H9N/c1-4-8-6(2)5-9-7(8)3/h1,5,9H,2-3H3
