19
gdb 74044	2.64798	1.6533	1.12233	3.3303	78.48	-0.2422	0.0066	0.2488	1108.1977	0.160433	-423.035982	-423.027872	-423.026928	-423.068884	30.398	
C	-0.1112988498	 1.4247508041	-0.1948051457	-0.496391
C	-0.0629882468	-0.0525262526	 0.0180387207	 0.164656
C	-1.0311633289	-0.8958919381	 0.367941018	 0.10789
C	-2.5178770394	-0.9522445131	 0.2704279062	-0.340894
C	-2.6131937402	-2.1451214786	-0.7238865476	-0.061095
O	-1.5037708881	-3.0130446563	-0.4422261876	-0.273022
C	-0.5302694619	-2.3111825306	 0.3154206184	 0.19867
O	 0.754498931	-2.238586557	-0.2678821374	-0.272677
C	 1.1767047665	-0.8736623465	-0.2742671294	-0.151713
H	 0.5602931836	 1.9474586287	 0.4978954935	 0.135718
H	 0.2161332124	 1.6900267091	-1.2077014382	 0.131865
H	-1.1188527164	 1.8200260534	-0.0423554482	 0.129647
H	-2.9955775672	-1.2084798457	 1.2233812967	 0.116792
H	-2.9821118047	-0.0437265149	-0.1190193595	 0.112041
H	-3.5327544631	-2.7276553255	-0.6155601184	 0.108643
H	-2.552434352	-1.7761916825	-1.7569234528	 0.10248
H	-0.4372343746	-2.8376694321	 1.2785543093	 0.070843
H	 1.5927861259	-0.6212590666	-1.2604581152	 0.111084
H	 1.9812356936	-0.7273152354	 0.4643695373	 0.10546
94.3611	130.4503	158.1822	176.6573	242.8958	320.5146	438.6081	447.0934	567.3895	643.8309	666.3151	714.5476	841.1078	870.4678	912.6245	937.6313	960.1626	972.7315	987.3533	1027.5461	1052.1495	1082.2676	1092.3651	1128.8017	1175.7703	1195.3332	1208.7456	1224.2851	1262.3493	1295.9482	1343.8078	1364.4833	1395.455	1405.7336	1416.0563	1478.1519	1481.9972	1488.3437	1515.8433	1522.9741	1778.5426	2969.5175	2976.2343	3008.7664	3011.752	3021.5231	3037.5085	3067.9966	3082.6211	3111.2714	3114.9783
CC1=C2CCOC2OC1	C[C]1[C]2CCO[C@H]2OC1	
InChI=1S/C7H10O2/c1-5-4-9-7-6(5)2-3-8-7/h7H,2-4H2,1H3	InChI=1S/C7H10O2/c1-5-4-9-7-6(5)2-3-8-7/h7H,2-4H2,1H3/t7-/m0/s1
