18
gdb 105984	2.75582	1.6171	1.24051	2.2893	74.68	-0.2168	0.062	0.2788	1048.2792	0.146587	-401.82777	-401.819676	-401.818732	-401.860386	31.281	
C	-0.1507865184	 1.4574120971	 0.1151981409	-0.526327
C	 0.1195444733	-0.0048117934	 0.0163915668	 0.290699
C	 0.2368014408	-0.9734777853	-1.1949369319	-0.168783
C	-0.4976655852	-1.9959725939	-0.3716249764	-0.009508
C	 1.0039698196	-1.9641032785	-0.3068795648	-0.165692
C	 0.875582681	-0.9652541824	 0.8731180313	 0.278342
C	 1.5521272893	-0.8538232671	 2.1969318393	-0.197974
O	 1.3292036721	-2.0044328899	 2.9953453553	-0.41643
N	-0.6443146157	-1.0422658543	 0.8107490039	-0.274197
H	 0.6717053703	 2.0413365795	-0.3126014515	 0.125389
H	-1.0704049513	 1.7193003952	-0.4198711607	 0.130935
H	-0.2750599485	 1.7513278748	 1.1616845411	 0.135235
H	 0.2959008042	-0.8240914523	-2.263604319	 0.098067
H	-1.2064270988	-2.7727361833	-0.6292378641	 0.100546
H	 1.7480694202	-2.6966418689	-0.5841729155	 0.101703
H	 2.6373909694	-0.7672673507	 2.0727824987	 0.113105
H	 1.201573855	 0.0629416204	 2.6982687371	 0.093099
H	 0.3744915928	-2.145362997	 2.9917731995	 0.291791
83.4242	131.1171	202.5846	225.9191	279.5434	305.1288	408.5127	457.5128	589.1004	652.5355	703.0631	737.8196	760.7875	803.0209	817.4421	854.3541	875.4807	908.2293	961.516	996.4823	999.2485	1016.27	1031.0266	1054.4245	1085.7442	1106.4925	1159.1307	1182.0776	1206.8562	1268.328	1325.5986	1343.5029	1363.5152	1403.1399	1426.5342	1466.5769	1480.0904	1486.9475	1494.8719	2975.8717	3029.0667	3065.9778	3092.0326	3111.8074	3189.1082	3213.9954	3226.9235	3785.5435
CC12C3C4C3C1(CO)N24	C[C@@]12[C@@H]3[C@H]4[C@@H]3[C@]1(CO)N24	
InChI=1S/C7H9NO/c1-6-3-4-5(3)8(6)7(4,6)2-9/h3-5,9H,2H2,1H3	InChI=1S/C7H9NO/c1-6-3-4-5(3)8(6)7(4,6)2-9/h3-5,9H,2H2,1H3/t3-,4+,5-,6+,7-,8?/m0/s1
