13
gdb 56485	2.91789	1.09551	0.83003	3.0477	61.49	-0.2879	-0.0668	0.2211	1274.5202	0.087372	-489.927469	-489.918564	-489.91762	-489.962279	30.261	
O	 0.1140975241	 1.4498237725	-0.2414408886	-0.403308
C	 0.0231987671	 0.0760757377	-0.06032011	-0.087686
C	 0.5753912499	-0.6762566966	-1.202807454	 0.251901
N	 0.991829122	-1.329473641	-2.0604156393	-0.307866
C	 0.7531853651	-0.319873497	 1.2617299785	 0.427142
O	 1.1155150593	 0.5594977707	 2.0013102858	-0.314674
N	 0.8839550538	-1.6750039742	 1.4776480236	-0.359327
C	 1.4224965447	-2.3017732075	 2.6138714116	 0.170036
O	 1.7899495707	-1.7480434202	 3.6074357366	-0.231417
H	 0.5637495604	 1.7796823304	 0.5578590377	 0.312785
H	-1.0287994854	-0.2388931139	 0.0524401906	 0.151826
H	 0.6310429465	-2.2846988497	 0.7104651894	 0.279707
H	 1.4526941119	-3.3976340012	 2.4632494082	 0.110879
53.6483	65.892	123.1609	180.8454	214.9594	262.5479	313.8876	382.0021	442.9498	478.197	550.3277	606.7259	633.3232	658.3298	854.8026	929.2274	970.6035	1028.0029	1068.008	1154.2326	1206.9329	1237.6847	1353.3182	1428.3274	1442.8034	1527.7757	1810.1068	1879.1079	2353.4546	2959.9744	2963.815	3584.0225	3632.7915
OC(C#N)C(=O)NC=O	O[C@@H](C#N)C(=O)NC=O	
InChI=1S/C4H4N2O3/c5-1-3(8)4(9)6-2-7/h2-3,8H,(H,6,7,9)	InChI=1S/C4H4N2O3/c5-1-3(8)4(9)6-2-7/h2-3,8H,(H,6,7,9)/t3-/m0/s1
