18
gdb 65649	3.70055	1.21488	1.13224	1.2596	72.48	-0.2268	-0.042	0.1849	1119.862	0.147398	-439.044265	-439.036228	-439.035284	-439.077242	30.686	
O	 0.0209900192	 1.328405421	 0.2453753693	-0.474287
C	 0.0411399967	-0.0482193208	 0.0546592436	 0.318585
C	 0.3255539871	-0.9298996039	 1.314510062	-0.24613
N	-0.9177560826	-1.7334460025	 1.1090123447	-0.127987
C	-2.0600954236	-1.2244255212	 1.9388054339	-0.165009
C	-2.4652476827	-0.1938522125	 0.8473932275	-0.258636
C	-1.3331229052	-0.7965582379	-0.0091397665	-0.03978
C	 0.9138232809	-0.3996034808	-1.124473804	 0.103192
O	 1.4491357913	 0.4497609407	-1.7967322188	-0.281245
H	 0.5314618163	 1.7061692464	-0.4900977796	 0.293877
H	 1.2370884183	-1.5357079681	 1.2870618127	 0.108625
H	 0.3308098882	-0.3223947706	 2.2256035483	 0.120476
H	-2.799701713	-2.0113084402	 2.1126274027	 0.109797
H	-1.7545910053	-0.8166720099	 2.9081190945	 0.107461
H	-3.4681728817	-0.3149289659	 0.4346904465	 0.108212
H	-2.3090804677	 0.8553033245	 1.1033991353	 0.133647
H	-1.6155980679	-1.2423048394	-0.9679729849	 0.076519
H	 1.0274124716	-1.4800315289	-1.3445254974	 0.112685
59.4428	100.8896	204.2295	276.3087	318.0974	357.1669	393.4934	451.2715	513.6799	537.0871	727.8313	744.798	784.7484	840.4878	858.9513	888.7721	916.5549	935.1387	981.1508	1004.8127	1019.9956	1067.0301	1088.6553	1115.1051	1166.17	1191.471	1214.9498	1223.0424	1260.4544	1270.3954	1302.867	1315.8115	1324.1683	1388.0874	1436.9944	1485.8437	1487.4176	1513.0875	1805.9901	2939.7895	3033.3891	3040.6568	3051.8109	3080.9683	3086.4292	3088.541	3137.3981	3668.8676
OC1(CN2CCC12)C=O	O[C@]1(CN2CC[C@@H]12)C=O	
InChI=1S/C6H9NO2/c8-4-6(9)3-7-2-1-5(6)7/h4-5,9H,1-3H2	InChI=1S/C6H9NO2/c8-4-6(9)3-7-2-1-5(6)7/h4-5,9H,1-3H2/t5-,6+/m0/s1
