18
gdb 117499	2.33934	0.78572	0.61149	3.105	81.73	-0.2658	0.0207	0.2865	1806.7377	0.144853	-401.930671	-401.919696	-401.918752	-401.969621	36.408	
C	-0.0446799523	 1.4802125968	 0.0172863962	-0.500323
C	-0.0125745407	 0.025522029	-0.0054238288	 0.14079
C	 0.0223754151	-1.1763397027	-0.0272465291	 0.040031
C	 0.0335967481	-2.6399927777	-0.0459624276	-0.340479
C	-1.4010440292	-3.2305179142	-0.0058986916	-0.169487
C	-1.4212983085	-4.7526896182	 0.0757041993	-0.092568
O	-2.778971123	-5.1416107828	 0.1926370398	-0.420174
C	 0.7797312879	-3.140732178	-1.2158496401	 0.298518
N	 1.3550789489	-3.5564722088	-2.1273848449	-0.332917
H	 0.9680739798	 1.896972793	 0.0157223341	 0.15677
H	-0.5707791436	 1.8770851586	-0.8573377654	 0.156753
H	-0.557035257	 1.8502844292	 0.9117424236	 0.153818
H	 0.5733526989	-3.0016942939	 0.8415642249	 0.151141
H	-1.9072447359	-2.8150978816	 0.8699552449	 0.128444
H	-1.954123142	-2.9017500422	-0.889900728	 0.13456
H	-0.9528425703	-5.1826951556	-0.8216484172	 0.116651
H	-0.8317691459	-5.0867251804	 0.9466782009	 0.087388
H	-2.8240432604	-6.1004587904	 0.137091439	 0.291083
10.8396	70.7527	79.1723	85.8052	107.4988	186.8874	242.5326	251.6861	274.9554	311.8979	384.8487	391.9714	477.6478	545.4502	596.7739	783.0172	816.7466	881.8673	1022.2618	1041.3612	1052.78	1053.4862	1088.2367	1093.1448	1178.5583	1217.0827	1237.7458	1294.7791	1306.7077	1330.5366	1349.743	1414.4241	1468.3505	1475.9848	1477.0423	1491.5353	1528.8354	2359.5532	2382.397	2956.8188	3003.1643	3012.6007	3032.579	3067.7992	3095.773	3096.7574	3118.2544	3834.3337
CC#CC(CCO)C#N	CC#C[C@@H](CCO)C#N	
InChI=1S/C7H9NO/c1-2-3-7(6-8)4-5-9/h7,9H,4-5H2,1H3	InChI=1S/C7H9NO/c1-2-3-7(6-8)4-5-9/h7,9H,4-5H2,1H3/t7-/m0/s1
