17
gdb 46950	2.75012	2.00125	1.48818	4.9352	71.32	-0.24	0.036	0.276	903.393	0.139762	-418.007736	-418.001076	-418.000132	-418.03872	26.935	
O	-0.0449436496	-0.0098762093	 0.3066348405	-0.368262
C	-0.0709946299	 1.1738280032	 0.0543721052	 0.386875
N	-1.2265195335	 1.8436368378	-0.2704301872	-0.317128
C	-1.4358543959	 3.278860444	-0.0978514267	-0.165835
C	-0.1998681987	 3.9082629831	 0.5297030155	-0.05126
C	 0.3079721793	 3.3154561452	 1.8944321049	-0.265978
C	 1.5356070947	 2.7498988916	 1.1588735068	-0.047034
C	 1.0921369485	 3.3937379028	-0.123776186	-0.055204
N	 1.1249240469	 1.9493081887	 0.0098040819	-0.120718
H	-2.0377839236	 1.2443073495	-0.2501129091	 0.250473
H	-1.6445644555	 3.7581016829	-1.0649167325	 0.112804
H	-2.3141401693	 3.4428490928	 0.5397256889	 0.112642
H	-0.293616037	 4.9950523958	 0.5518230044	 0.087114
H	 0.5756185586	 4.1069355773	 2.5976083983	 0.111977
H	-0.3327762899	 2.5892175344	 2.4033307854	 0.118665
H	 2.5292437585	 2.5985457606	 1.5622325535	 0.108488
H	 1.6637358264	 3.8500063097	-0.9236613538	 0.102382
115.6549	183.6855	319.5292	355.7759	490.4745	514.0388	539.0629	578.4746	701.0777	716.5045	793.186	830.0398	845.0963	854.0479	891.8655	929.1612	966.5623	984.1396	1021.5281	1056.0119	1072.7386	1085.8738	1114.8773	1144.4016	1200.868	1228.3955	1245.6233	1253.3804	1291.0241	1300.8709	1342.8703	1371.3618	1409.3126	1467.6653	1490.3016	1519.8357	1814.4888	2999.1119	3035.9052	3059.6158	3098.7135	3118.6667	3179.1718	3195.835	3621.6536
O=C1NCC2CC3C2N13	O=C1NC[C@H]2C[C@@H]3[C@H]2N13	
InChI=1S/C6H8N2O/c9-6-7-2-3-1-4-5(3)8(4)6/h3-5H,1-2H2,(H,7,9)	InChI=1S/C6H8N2O/c9-6-7-2-3-1-4-5(3)8(4)6/h3-5H,1-2H2,(H,7,9)/t3-,4-,5+,8?/m1/s1
