17
gdb 35513	3.20121	1.48429	1.37975	1.6706	72.1	-0.2514	0.0285	0.2799	986.1777	0.137414	-421.798186	-421.790991	-421.790047	-421.829822	28.705	
C	-0.1711540281	-1.2486154463	-0.2091810866	-0.460406
C	-0.0881163911	-0.0573451388	-0.0728324726	 0.329699
C	 0.0032536184	 1.3895902689	 0.0513985321	-0.056786
O	-0.5240078775	 1.8633165906	 1.311215783	-0.285113
C	 0.5203842156	 2.6798463434	 1.8490832577	 0.189115
C	 1.602207636	 1.7704210343	 2.4565688363	-0.23437
C	 2.2873375893	 1.2576877253	 1.1524313299	-0.233782
C	 1.4429243026	 1.9846889356	 0.0876108215	 0.026012
O	 1.1522235862	 3.2420662697	 0.7139948801	-0.246186
H	-0.2485268425	-2.3016839634	-0.3248424217	 0.202493
H	-0.5658644382	 1.8608693154	-0.7603563085	 0.114095
H	 0.0852049932	 3.4529062673	 2.4813154017	 0.095844
H	 2.2886656839	 2.3426701866	 3.0854171184	 0.107232
H	 1.1557631974	 0.9740126859	 3.0536572277	 0.119205
H	 3.3281192792	 1.5806641296	 1.0879961001	 0.109765
H	 2.2510211228	 0.1732485039	 1.0427392912	 0.125948
H	 1.8970530529	 2.1371535119	-0.8894135003	 0.097235
96.0737	154.2549	233.0306	334.7776	399.5921	502.019	515.3929	580.3705	631.6359	643.1465	668.7929	784.5429	812.2978	835.3578	852.4596	881.7801	912.8801	949.8248	976.3019	1009.04	1027.665	1051.1966	1067.4266	1095.5276	1152.7503	1227.288	1232.6884	1263.1051	1299.4634	1301.9806	1325.8952	1343.2395	1351.2324	1363.0405	1476.2296	1499.0936	2237.0213	3019.1837	3071.0896	3084.3588	3125.1038	3137.7451	3141.5786	3148.2768	3501.868
C#CC1OC2CCC1O2	C#C[C@H]1O[C@H]2CC[C@@H]1O2	
InChI=1S/C7H8O2/c1-2-5-6-3-4-7(8-5)9-6/h1,5-7H,3-4H2	InChI=1S/C7H8O2/c1-2-5-6-3-4-7(8-5)9-6/h1,5-7H,3-4H2/t5-,6+,7-/m1/s1
