15
gdb 23892	2.69064	1.77942	1.37788	1.9443	50.84	-0.2707	0.0813	0.352	921.658	0.113313	-531.304411	-531.295729	-531.294785	-531.338148	30.178	
C	-0.4949061183	 1.0773205541	-0.0319109811	-0.244913
O	 0.5010251384	 0.0782283112	 0.1109739099	-0.242857
C	 0.947362697	-0.5210436187	-1.0820494532	-0.013491
C	 2.3928611675	-0.9634100433	-0.8838202679	-0.409716
C	 0.0589764311	-1.7195202143	-1.4438398165	 0.27639
F	-1.2246005424	-1.3554055635	-1.6055371279	-0.081018
F	 0.4636136584	-2.2747259914	-2.5996888154	-0.079512
F	 0.0916623856	-2.6663603273	-0.5013327838	-0.071916
H	-0.1777326594	 1.8554909454	-0.7419800981	 0.109032
H	-1.4543700627	 0.6667611985	-0.3636484971	 0.127251
H	-0.6215337849	 1.5312937364	 0.9534957876	 0.132645
H	 0.8728792539	 0.1795406186	-1.9278291615	 0.091025
H	 2.4592826783	-1.6370822364	-0.0262741662	 0.144759
H	 2.7660444085	-1.4800130235	-1.7708677908	 0.133115
H	 3.0163799691	-0.0885320557	-0.689954138	 0.129205
55.3299	93.9077	190.8024	215.8539	225.188	246.9318	297.9394	351.7541	422.472	496.6321	536.3109	583.2218	672.786	803.4744	883.8699	1018.8455	1075.226	1129.4934	1162.6959	1177.4965	1184.4188	1195.5588	1238.8383	1297.2563	1359.8638	1395.951	1409.9186	1478.1658	1488.268	1492.4333	1501.3665	1514.0689	2994.3193	3000.3787	3060.8518	3076.6943	3124.9687	3141.9151	3143.3513
COC(C)C(F)(F)F	CO[C@@H](C)C(F)(F)F	
InChI=1S/C4H7F3O/c1-3(8-2)4(5,6)7/h3H,1-2H3	InChI=1S/C4H7F3O/c1-3(8-2)4(5,6)7/h3H,1-2H3/t3-/m0/s1
