20
gdb 87175	2.46466	1.2879	1.06771	3.9233	76.41	-0.2451	0.0185	0.2636	1237.219	0.168925	-440.310196	-440.300221	-440.299277	-440.345561	36.687	
C	-2.4578762691	 0.7297260338	-2.0676783932	-0.480499
C	-2.3771432481	-0.6935762568	-1.5422862317	 0.417658
O	-3.0160294858	-1.5992551669	-2.0646027596	-0.405337
N	-1.5764987895	-0.8733933388	-0.456288141	-0.348637
C	-1.2255442148	-2.1557243123	 0.104098672	 0.28355
C	 0.0235344622	-2.7752808704	-0.4903282553	-0.442323
C	-1.5290079456	-2.3438867014	 1.5815143681	-0.361752
C	-2.3569561092	-3.0589937914	 0.5501770738	 0.107819
O	-3.6746186862	-2.6687386873	 0.3946433357	-0.43229
H	-3.4925865867	 1.0738184793	-1.9879906152	 0.158477
H	-1.807210546	 1.4341466488	-1.5438620977	 0.113821
H	-2.1981917589	 0.7232040853	-3.1293041356	 0.156227
H	-1.0633592171	-0.074092987	-0.1178800792	 0.245283
H	 0.9012506977	-2.139034672	-0.3245367844	 0.109119
H	 0.2289727772	-3.7486370574	-0.035546501	 0.121386
H	-0.0966282229	-2.9210206855	-1.5688260273	 0.135305
H	-0.8240954206	-2.9051635051	 2.1849495239	 0.112103
H	-2.0235560479	-1.5207518764	 2.0847070406	 0.121379
H	-2.1652955153	-4.1252730906	 0.4166943017	 0.084061
H	-3.7845169834	-2.4970887679	-0.5564164546	 0.30465
40.943	75.8151	113.8942	180.5916	224.7686	233.1273	271.2909	326.5792	407.841	415.0066	460.8319	517.9123	524.2845	600.3462	626.5556	660.8871	787.7545	816.0537	892.8989	903.6967	965.3253	1000.2526	1036.4595	1045.5709	1052.4928	1060.0202	1124.6072	1133.1901	1205.7023	1263.3247	1277.2517	1334.0007	1381.1934	1397.278	1411.472	1433.9808	1469.9398	1475.4473	1485.5725	1488.2862	1499.8633	1531.9388	1747.0736	3025.4151	3052.3334	3080.7978	3090.6152	3112.4649	3129.0244	3133.5706	3136.2863	3230.2824	3615.5273	3641.9707
CC(=O)NC1(C)CC1O	CC(=O)N[C@@]1(C)C[C@H]1O	
InChI=1S/C6H11NO2/c1-4(8)7-6(2)3-5(6)9/h5,9H,3H2,1-2H3,(H,7,8)	InChI=1S/C6H11NO2/c1-4(8)7-6(2)3-5(6)9/h5,9H,3H2,1-2H3,(H,7,8)/t5-,6+/m1/s1
