23
gdb 115972	3.24201	1.02926	0.81972	1.2029	89.	-0.2325	0.0296	0.2622	1489.1751	0.205532	-388.315352	-388.305714	-388.30477	-388.349674	36.445	
C	-0.0395972996	 1.5518132014	 0.0383396586	-0.387254
C	-0.0247573185	 0.0228528387	-0.0290545577	-0.185479
C	 0.7096419321	-0.5202844537	-1.2510879195	 0.135216
C	 0.8225754775	-2.0492485912	-1.2598536885	-0.303297
C	 1.2754365972	-2.564433125	-2.6074667382	 0.305806
C	 1.7723176454	-3.9815667561	-2.6660839474	-0.476267
C	 1.2203967075	-1.7653356276	-3.6732187467	-0.159621
C	 0.6793692289	-0.3639830917	-3.610857671	-0.120949
O	 0.000804989	-0.0800628484	-2.4043074626	-0.261198
H	 0.9771494697	 1.9540311267	 0.1129763609	 0.108118
H	-0.5001700406	 1.96905469	-0.860411822	 0.134115
H	-0.6013294965	 1.903647538	 0.9089133663	 0.107599
H	 0.4483814506	-0.3930000251	 0.8691491724	 0.091963
H	-1.0521600192	-0.3613978807	-0.052195063	 0.102797
H	 1.7306965576	-0.0970610285	-1.2763657039	 0.058628
H	 1.5301253023	-2.3674404901	-0.4819558362	 0.096833
H	-0.1457191643	-2.4964145894	-0.99107128	 0.106872
H	 1.0035614575	-4.6834177305	-2.3167827471	 0.12303
H	 2.0573301446	-4.2695590149	-3.6816896138	 0.119035
H	 2.6419317041	-4.1248935151	-2.0115207239	 0.120674
H	 1.5686227643	-2.107462416	-4.6453129556	 0.079425
H	 1.4970340439	 0.3640073096	-3.7738624798	 0.091518
H	-0.0491437833	-0.1993721306	-4.4144677613	 0.112434
78.2095	117.7595	161.42	184.6971	202.8526	249.0564	277.9826	301.7692	390.9665	422.2045	456.9066	474.5085	546.2859	707.5028	764.7483	806.4582	849.0827	871.5907	934.2038	943.1857	979.9624	1030.9354	1038.6759	1047.1775	1052.2048	1083.2804	1125.9971	1150.5541	1168.3332	1187.2837	1227.9422	1263.413	1300.3383	1309.2734	1336.2887	1375.8185	1379.2044	1403.0531	1410.8483	1411.5108	1417.5861	1465.0993	1476.1644	1479.1595	1491.3089	1492.0998	1497.5695	1510.078	1748.5006	2920.7639	2933.9954	2999.6198	3013.3759	3026.5734	3034.8762	3036.1414	3041.7943	3058.3916	3064.3406	3100.1953	3109.0542	3126.3509	3151.5489
CCC1CC(C)=CCO1	CC[C@H]1CC(=CCO1)C	
InChI=1S/C8H14O/c1-3-8-6-7(2)4-5-9-8/h4,8H,3,5-6H2,1-2H3	InChI=1S/C8H14O/c1-3-8-6-7(2)4-5-9-8/h4,8H,3,5-6H2,1-2H3/t8-/m0/s1
