17
gdb 126520	3.24618	0.99075	0.79976	2.9597	72.53	-0.2375	-0.036	0.2014	1424.4436	0.134753	-455.131852	-455.122891	-455.121947	-455.166663	31.871	
C	 0.029917794	 1.6182805896	-0.1837796011	-0.383883
C	 0.0525326559	 0.0896086965	-0.133774149	-0.164362
C	-1.3466725563	-0.50640146	 0.1218342046	-0.310858
C	-1.3610052823	-1.9919941807	 0.1631166587	 0.330945
C	-1.608763	-2.9110900201	 1.1389725374	 0.230876
O	-1.9453610515	-2.7022390056	 2.4254897554	-0.428066
N	-1.4605235501	-4.155903256	 0.5985662672	-0.205377
N	-1.1412594721	-4.0608558762	-0.6264983503	-0.020931
O	-1.0658820851	-2.6955634351	-0.9469339079	-0.209858
H	 1.0307045814	 2.0204437934	-0.3661357634	 0.12019
H	-0.6255989028	 1.9793759394	-0.9838316584	 0.119432
H	-0.3331530783	 2.0417527626	 0.7591955751	 0.118814
H	 0.4418189819	-0.312125278	-1.0757651796	 0.119912
H	 0.7341593502	-0.2510988507	 0.6542112834	 0.109359
H	-1.7413314395	-0.143895556	 1.0769184328	 0.131054
H	-2.0360407547	-0.1596059892	-0.658810589	 0.128759
H	-2.0626623108	-3.565765294	 2.839439594	 0.313995
41.1554	80.5514	112.3334	235.1038	247.2672	270.7533	308.2498	315.2619	387.6338	484.7361	664.1321	694.418	727.7792	742.4229	763.9928	806.867	877.0407	898.9795	1016.4895	1044.7621	1084.1394	1110.425	1137.812	1223.9531	1283.1602	1290.2672	1324.1885	1345.2267	1385.4922	1413.2915	1414.2163	1449.7429	1477.6317	1492.7408	1499.2228	1509.3747	1714.9041	3025.549	3031.9495	3041.2658	3066.4178	3086.3991	3103.8381	3109.1739	3809.2777
CCCC1=C(O)N=NO1	CCCc1c(O)nno1	
InChI=1S/C5H8N2O2/c1-2-3-4-5(8)6-7-9-4/h8H,2-3H2,1H3	InChI=1S/C5H8N2O2/c1-2-3-4-5(8)6-7-9-4/h8H,2-3H2,1H3
