15
gdb 44917	3.1612	1.52597	1.50395	3.6118	66.34	-0.2483	-0.0092	0.2391	922.9582	0.116099	-453.986709	-453.980213	-453.979269	-454.017573	26.115	
N	-0.0974588916	 1.2836583201	 0.0237361047	-0.553648
C	-0.0008245639	 0.0226369272	-0.0350249388	 0.402887
N	 1.118950301	-0.8243103569	-0.1209138388	-0.322431
C	 0.620112045	-2.2151145621	-0.0222390277	-0.161076
C	-0.6545932104	-2.1020016147	-0.8764228949	-0.244601
C	-1.1729176066	-0.9510080418	 0.0001332736	 0.036438
O	-1.1267126544	-1.5462401386	 1.3369317056	-0.242522
C	-0.0192126836	-2.3547502584	 1.370702275	 0.456025
O	 0.3287001534	-2.9669195182	 2.3349246276	-0.342685
H	 0.8203597821	 1.7344255682	 0.0202718359	 0.215354
H	 1.9421895071	-0.5782230484	 0.4121786283	 0.256185
H	 1.3708857048	-2.9619807992	-0.2646373238	 0.112007
H	-0.4505631594	-1.8159912653	-1.9092330228	 0.133754
H	-1.294553264	-2.9848214757	-0.8310329	 0.13328
H	-2.1574959596	-0.5264278463	-0.1642206338	 0.121034
126.2158	210.4226	353.8606	406.646	460.2621	491.5442	514.3466	603.5076	688.8554	739.5492	768.5936	781.8672	860.6717	883.0154	911.0093	942.389	957.4434	977.7503	998.5176	1023.5811	1100.1771	1110.107	1161.2672	1183.1396	1263.8458	1274.7032	1285.5334	1331.5721	1367.7078	1384.4349	1485.0537	1777.1834	1898.4838	3086.3139	3150.9777	3168.0682	3192.2344	3448.1492	3592.6206
N=C1NC2CC1OC2=O	[NH][C]1N[C@@H]2C[C@H]1OC2=O	
InChI=1S/C5H6N2O2/c6-4-3-1-2(7-4)5(8)9-3/h2-3H,1H2,(H2,6,7)	InChI=1S/C5H6N2O2/c6-4-3-1-2(7-4)5(8)9-3/h2-3H,1H2,(H2,6,7)/t2-,3-/m1/s1
