19
gdb 95350	3.13628	1.45726	1.15556	2.2168	71.61	-0.2514	0.0782	0.3296	1099.643	0.159913	-460.146349	-460.138438	-460.137494	-460.17891	30.269	
C	-0.0458403055	 1.5480100974	 0.04457425	-0.407341
C	 0.1085600223	 0.0432643623	 0.0286848039	 0.220525
O	 0.7039597237	-0.336610732	-1.1857826806	-0.236523
C	 0.7326682958	-1.7462014833	-1.3287851473	-0.124469
C	 1.3474241637	-2.4340042057	-0.1253110237	 0.108899
O	 2.7852527277	-2.3495055971	-0.0533242638	-0.288878
C	 2.7246436249	-1.9276277262	 1.3269284963	-0.08388
C	 1.2082644307	-1.6962042102	 1.2320999203	 0.051751
O	 0.9188104589	-0.3148122279	 1.1305600622	-0.268128
H	 0.937019164	 2.0132738728	-0.061380239	 0.138538
H	-0.6830178651	 1.8663046135	-0.7833264264	 0.125964
H	-0.4918886738	 1.8673826863	 0.9889341308	 0.126188
H	-0.8731452967	-0.4627617343	 0.1189075316	 0.05077
H	-0.2908267459	-2.1312520233	-1.4760546427	 0.090139
H	 1.3193017755	-1.968213657	-2.2247665015	 0.127452
H	 1.0141498546	-3.4809985229	-0.0791939698	 0.073218
H	 3.0240140717	-2.7302228993	 2.0135982425	 0.096606
H	 3.3132742088	-1.0256566421	 1.5163029846	 0.119787
H	 0.5718814247	-2.1655849109	 1.9909901926	 0.079383
104.8091	110.4992	202.0969	232.2102	300.1613	342.4485	403.0839	480.4023	505.958	576.3366	720.4785	809.702	813.7159	864.2515	877.3608	915.1637	929.7772	994.2705	1016.1685	1058.2141	1076.351	1094.1261	1129.0376	1140.4543	1159.7381	1173.6831	1203.5714	1260.2957	1273.556	1299.9763	1351.4346	1356.9051	1366.2372	1389.742	1401.2204	1416.2037	1431.8981	1475.293	1481.959	1490.9259	1507.1189	2904.3985	2963.5758	2998.809	3015.3532	3041.0897	3059.4652	3094.0636	3095.3265	3142.0304	3142.8937
CC1OCC2OCC2O1	C[C@H]1OC[C@H]2OC[C@H]2O1	
InChI=1S/C6H10O3/c1-4-7-2-5-6(9-4)3-8-5/h4-6H,2-3H2,1H3	InChI=1S/C6H10O3/c1-4-7-2-5-6(9-4)3-8-5/h4-6H,2-3H2,1H3/t4-,5+,6+/m0/s1
