18
gdb 116856	5.10244	0.54178	0.49436	0.9183	83.77	-0.2524	-0.0169	0.2355	2214.9958	0.144646	-439.034304	-439.023762	-439.022817	-439.071796	35.267	
C	-0.0350377901	 1.3623494549	-0.0290667679	-0.220114
O	-0.0343184096	-0.0468391636	-0.0665858634	-0.226791
C	 0.6278768124	-0.6053483988	 1.0484202586	-0.211829
C	 0.6072613755	-2.0587872386	 0.9725849129	 0.159495
C	 0.6130921417	-3.2619683662	 0.9489858108	 0.111863
C	 0.6207458016	-4.6972545573	 0.9221163278	 0.174981
N	 1.1725173013	-5.3637773444	 1.8531934832	-0.53
O	-0.019373011	-5.1483490053	-0.1921137896	-0.221419
C	-0.0990437057	-6.5549329721	-0.3678098423	-0.26637
H	 0.987335946	 1.7725815152	-0.0375932022	 0.107223
H	-0.5627540956	 1.7071311378	-0.9206430149	 0.134228
H	-0.5521700028	 1.7478146195	 0.8640196855	 0.107228
H	 1.6748861148	-0.2568074293	 1.0957371482	 0.123464
H	 0.1488534436	-0.2817696845	 1.9895747673	 0.123483
H	 1.1038883301	-6.3696750324	 1.7068681624	 0.222993
H	 0.8976188899	-7.0064718188	-0.4454524381	 0.133034
H	-0.648711763	-7.031146654	 0.4533688714	 0.133044
H	-0.6395768791	-6.7097546219	-1.3020040398	 0.145487
33.2471	58.531	70.7157	108.7241	176.4544	195.9039	219.42	236.0733	323.7882	334.079	380.0289	409.8089	573.5747	602.1649	711.9049	795.1369	836.2271	953.2781	983.8987	1020.7667	1112.6595	1128.1768	1157.567	1174.1075	1182.9052	1217.1404	1221.4363	1251.5357	1341.8297	1408.0036	1473.43	1477.8354	1485.8521	1491.8495	1491.9032	1504.3992	1514.8088	1699.9872	2373.3449	2944.4577	2962.05	2971.328	3013.7958	3015.3527	3076.8672	3124.4694	3146.418	3505.2262
COCC#CC(=N)OC	COCC#C[C]([NH])OC	
InChI=1S/C6H9NO2/c1-8-5-3-4-6(7)9-2/h7H,5H2,1-2H3	InChI=1S/C6H9NO2/c1-8-5-3-4-6(7)9-2/h7H,5H2,1-2H3
