13
gdb 127361	3.48238	1.74105	1.16931	6.1741	66.02	-0.2642	-0.0634	0.2008	956.8201	0.09142	-448.882492	-448.875761	-448.874817	-448.914038	24.642	
C	 0.0226761506	 1.4604731054	 0.0383551915	-0.348365
N	-0.0012782842	 0.0102563885	 0.0399113159	-0.160209
C	-0.1087709397	-0.8409329585	-1.0579029364	 0.032267
N	-0.1084370704	-2.1237471505	-0.8057730699	-0.339594
C	 0.0084606907	-2.1561684654	 0.5719427664	 0.374822
N	 0.0774682515	-3.021836163	 1.5489158531	-0.196368
O	 0.1864792246	-2.236531327	 2.6764980026	-0.157306
N	 0.185921326	-0.8601451491	 2.4056124754	-0.245874
C	 0.0758957532	-0.8436946493	 1.1111558495	 0.409686
H	 0.9586510637	 1.8310693866	 0.4658779668	 0.162885
H	-0.0595510827	 1.8115501708	-0.9918342965	 0.151911
H	-0.8144902983	 1.8605105456	 0.6174025131	 0.162894
H	-0.1863653453	-0.4158923742	-2.0508100114	 0.15325
91.6521	143.8568	253.8367	301.4334	361.1323	562.3243	587.2418	613.7253	616.6633	739.5363	802.5833	807.9044	831.8672	890.5661	909.6657	1055.1126	1061.2838	1151.1486	1155.6235	1263.6409	1301.2604	1376.8285	1444.6835	1461.0481	1479.0302	1515.8601	1546.2668	1576.7335	1692.3992	3047.2287	3113.7208	3143.527	3229.5296
CN1C=NC2=NON=C12	Cn1cnc2nonc12	
InChI=1S/C4H4N4O/c1-8-2-5-3-4(8)7-9-6-3/h2H,1H3	InChI=1S/C4H4N4O/c1-8-2-5-3-4(8)7-9-6-3/h2H,1H3
