19
gdb 36781	5.50214	0.63268	0.59357	5.7334	77.47	-0.2467	0.0234	0.2701	1829.5948	0.159637	-419.184138	-419.174788	-419.173844	-419.219938	32.464	
N	 0.1127849797	-1.1229122262	 0.3155744479	-0.29766
C	 0.0832521423	 0.0289332204	 0.2375818856	 0.259345
C	 0.04008771	 1.4925200525	 0.1659312781	-0.259217
N	 1.3611914662	 2.0483703424	-0.0886053071	-0.301972
C	 1.3635508801	 3.5051792998	-0.1281508812	-0.144174
C	 2.7936479324	 3.9960672806	-0.2610966375	 0.142943
C	 3.065320512	 5.4883856719	 0.0224030669	-0.302714
C	 3.9150283661	 4.9651075437	 1.1989170689	-0.057414
O	 3.5899165777	 3.59301504	 0.8824831121	-0.298354
H	-0.6285989231	 1.774987602	-0.6573511641	 0.153946
H	-0.4363680448	 1.8630964943	 1.0931067906	 0.130625
H	 2.0081900338	 1.7478290947	 0.6351137728	 0.247246
H	 0.7809108729	 3.8439074834	-0.99615215	 0.107278
H	 0.9074359858	 3.9617518658	 0.7710185918	 0.080659
H	 3.2306983705	 3.6076274107	-1.1892771463	 0.091789
H	 3.6117628138	 6.0225191361	-0.7553487137	 0.118071
H	 2.1840672948	 6.0679038907	 0.3055211825	 0.112224
H	 4.9925291706	 5.1525635746	 1.1235868888	 0.109538
H	 3.5760350994	 5.2458115425	 2.2028408938	 0.10784
45.3478	71.2149	91.8169	115.8561	150.4039	214.0895	311.0344	384.2896	394.9267	474.1241	576.7873	758.2651	800.4271	810.9988	878.8579	908.9008	949.3774	973.3304	995.3478	996.9966	1030.7886	1097.9599	1124.2805	1146.9943	1155.0366	1170.3613	1213.0164	1227.2212	1260.2108	1285.1165	1296.7879	1326.5667	1365.5866	1380.2914	1425.4958	1487.4384	1492.0292	1499.5118	1504.9456	1532.9405	2369.1889	2921.6717	2930.2649	3022.2063	3025.6023	3038.7409	3043.1721	3063.8567	3079.999	3137.4283	3515.4193
N#CCNCC1CCO1	N#CCNC[C@H]1CCO1	
InChI=1S/C6H10N2O/c7-2-3-8-5-6-1-4-9-6/h6,8H,1,3-5H2	InChI=1S/C6H10N2O/c7-2-3-8-5-6-1-4-9-6/h6,8H,1,3-5H2/t6-/m1/s1
