18
gdb 108396	2.35594	1.3628	1.08942	3.7223	76.44	-0.2741	0.0256	0.2997	1165.0405	0.14799	-401.930754	-401.922137	-401.921193	-401.96428	32.062	
O	 0.1054459003	 1.385800966	-0.1644234905	-0.406916
C	 0.0552256593	-0.0109905928	 0.0771149125	-0.176046
C	-1.3494962392	-0.5395659514	 0.1156512963	 0.310772
C	-2.3988892012	-0.2049450695	 1.1873914046	-0.28926
C	-2.9338833693	-1.6729073434	 1.095479201	-0.238094
C	-1.8847471305	-1.9636162643	 0.016859987	-0.120281
C	-2.044569374	-1.0132983729	-1.1572339012	-0.242354
C	-3.3239235677	-0.5115994017	-1.5819471839	 0.301153
N	-4.3548340195	-0.0986671464	-1.9076779318	-0.350518
H	-0.3385155724	 1.5578091457	-1.0017890385	 0.287793
H	 0.6475642813	-0.5769334014	-0.6609384081	 0.088703
H	 0.5321221754	-0.1546890327	 1.0531904653	 0.117581
H	-1.9386974824	 0.0134856135	 2.1530432498	 0.115093
H	-3.1006574047	 0.5948618416	 0.940838177	 0.127206
H	-2.7554953421	-2.2384501578	 2.0115124226	 0.114278
H	-3.9765353776	-1.8026843597	 0.7947692121	 0.127742
H	-1.3447756555	-2.8925101183	-0.126278093	 0.103034
H	-1.3628003702	-1.2181636446	-1.978098481	 0.130114
81.1256	108.0961	145.6797	183.4836	276.897	298.4669	363.8551	380.9943	427.3271	551.3378	572.8504	694.6934	762.4747	788.4959	817.2296	895.9704	933.0424	943.771	957.8575	978.6687	1034.1704	1048.1324	1072.9387	1104.3397	1142.1289	1182.5553	1212.5267	1240.3936	1244.4142	1255.6023	1301.7715	1329.2969	1372.595	1415.7445	1442.7652	1478.7208	1498.0072	1504.9097	2347.2006	2967.8119	3064.2702	3068.8743	3074.8369	3117.0481	3133.3287	3153.5522	3181.0359	3808.9984
OCC12CCC1C2C#N	OC[C@]12CC[C@H]1[C@H]2C#N	
InChI=1S/C7H9NO/c8-3-6-5-1-2-7(5,6)4-9/h5-6,9H,1-2,4H2	InChI=1S/C7H9NO/c8-3-6-5-1-2-7(5,6)4-9/h5-6,9H,1-2,4H2/t5-,6+,7+/m0/s1
