19
gdb 83370	2.15534	1.96894	1.56179	1.8904	69.24	-0.2506	0.0504	0.301	958.6579	0.16028	-460.164663	-460.156728	-460.155783	-460.196547	31.481	
C	-0.106773773	 1.5356589377	 0.0115381339	-0.440584
C	 0.047973116	 0.0200796074	 0.0205833738	-0.040834
C	 1.0850642908	-0.5903687835	-0.9319959707	 0.203294
O	 2.3248587652	-0.0603157484	-0.4779467543	-0.265304
C	 2.231211932	-0.0696401459	 0.9579815393	-0.134467
C	 0.8026511527	-0.6068749121	 1.2166589777	 0.314025
O	 0.246430932	-0.3342097283	 2.4708841307	-0.492474
C	 0.8013291652	-2.0828790289	 0.7612447689	-0.127858
O	 1.0208018773	-1.9834900201	-0.6590323202	-0.269812
H	 0.8584720064	 2.0437058185	-0.0499679311	 0.133728
H	-0.7047398761	 1.8543312004	-0.847899814	 0.117772
H	-0.6176135163	 1.870666011	 0.9191716686	 0.133384
H	-0.9230522006	-0.4672977837	-0.107939359	 0.087183
H	 1.0103808134	-0.4353573962	-2.0066747879	 0.093726
H	 3.008387534	-0.7212003578	 1.3781598728	 0.096931
H	 2.3624750872	 0.9426079163	 1.3573909811	 0.106436
H	 0.7972473936	-0.7378037669	 3.150421905	 0.285583
H	 1.6034738417	-2.6771306701	 1.2174885275	 0.095013
H	-0.1634594115	-2.5627020096	 0.9696196679	 0.104257
166.4998	201.6061	219.4838	249.3653	252.6342	340.499	375.4076	436.5918	494.6044	562.9354	602.5926	637.6476	760.4887	778.3554	876.8135	910.6189	936.4118	959.6458	988.972	1015.6132	1049.4026	1054.5595	1090.528	1112.2876	1142.9563	1172.147	1186.6301	1211.9066	1248.4171	1267.6187	1300.0642	1315.4957	1351.5645	1364.6058	1381.7959	1411.2844	1428.7768	1496.7176	1503.0859	1520.2571	1534.9575	3008.6469	3015.01	3044.8222	3051.9716	3060.6031	3068.9516	3108.4703	3128.655	3150.8786	3804.7216
CC1C2OCC1(O)CO2	C[C@H]1[C@H]2OC[C@]1(O)CO2	
InChI=1S/C6H10O3/c1-4-5-8-2-6(4,7)3-9-5/h4-5,7H,2-3H2,1H3	InChI=1S/C6H10O3/c1-4-5-8-2-6(4,7)3-9-5/h4-5,7H,2-3H2,1H3/t4-,5-,6-/m0/s1
