18
gdb 85383	2.10006	1.71824	1.11134	2.2171	75.18	-0.2329	-0.004	0.2289	1117.5593	0.150161	-435.334336	-435.326016	-435.325072	-435.367311	31.959	
C	-0.1513892955	 1.5600426986	-0.068310587	-0.388477
C	 0.0248326815	 0.0353130719	 0.0133082826	-0.003893
C	 0.7805009863	-0.5397495005	-1.1916368385	-0.31412
C	 2.2711536479	-0.2574770689	-1.1335432578	 0.397536
O	 2.9859204831	-0.1612735031	-2.106375252	-0.353071
N	 2.7812251869	-0.1412547136	 0.1480421708	-0.36625
C	 2.0826014298	-0.218809123	 1.3642528086	 0.43002
N	 2.6125395899	-0.1548271499	 2.5243397165	-0.565253
N	 0.725429039	-0.4061639202	 1.2177008512	-0.306139
H	 0.8148662928	 2.070212083	-0.1350999822	 0.134085
H	-0.743297707	 1.8340505712	-0.947606576	 0.12334
H	-0.6695012453	 1.9346830698	 0.8196399331	 0.121567
H	-0.9678661514	-0.425840957	 0.0452827986	 0.096308
H	 0.661392337	-1.6294085146	-1.2123516035	 0.141533
H	 0.4030391361	-0.1464108462	-2.1369917645	 0.135761
H	 3.7783372608	 0.0127656183	 0.1983775708	 0.255743
H	 3.6269867353	-0.0989831253	 2.473956138	 0.207941
H	 0.2430091528	-0.2941354604	 2.097625181	 0.253367
94.155	116.1635	142.1093	241.7496	336.9197	366.7655	425.6751	461.1565	528.7136	538.6851	562.2391	575.3604	667.1969	707.3303	729.1506	772.7836	849.2532	876.9771	937.8402	962.0676	1023.337	1052.2962	1104.041	1130.3086	1176.1986	1219.8737	1277.9655	1313.0015	1372.2515	1380.1116	1409.75	1411.0687	1442.7067	1457.5293	1470.0374	1496.1423	1500.4327	1744.1064	1812.7621	3035.733	3043.8134	3055.4925	3109.5687	3112.6656	3126.9344	3514.9541	3613.2138	3614.6901
CC1CC(=O)NC(=N)N1	C[C@H]1CC(=O)N[C]([NH])N1	
InChI=1S/C5H9N3O/c1-3-2-4(9)8-5(6)7-3/h3H,2H2,1H3,(H3,6,7,8,9)	InChI=1S/C5H9N3O/c1-3-2-4(9)8-5(6)7-3/h3H,2H2,1H3,(H3,6,7,8,9)/t3-/m0/s1
