17
gdb 50462	4.05196	1.05844	0.91038	2.6014	71.37	-0.235	-0.0442	0.1908	1246.1945	0.136854	-455.148413	-455.140126	-455.139182	-455.181903	30.279	
N	 0.0145897644	 1.3233900263	-0.1760651974	-0.497591
C	 0.0094214002	 0.0803857619	 0.048119255	 0.371641
C	-1.2793237049	-0.7205578141	 0.0451495833	-0.241353
N	-1.2981189081	-1.9140659452	 0.8836589927	-0.295206
C	-0.0717708232	-2.6770094762	 0.7781193623	-0.081513
C	 1.1719561698	-1.7942217246	 1.0111566677	-0.089528
O	 1.1730512094	-0.6369805688	 0.1715199873	-0.250584
C	-0.0403215586	-3.8037328154	 1.7915671914	 0.147028
O	-0.7451023849	-3.8358463619	 2.7669234207	-0.238291
H	 0.9749074676	 1.6749740412	-0.1984846085	 0.221026
H	-2.0999615147	-0.0568608257	 0.3187956709	 0.145262
H	-1.4533534949	-1.0292291205	-0.9964516148	 0.134107
H	-1.4829631777	-1.7012381199	 1.8582213725	 0.236396
H	 0.0015818594	-3.1123007446	-0.2300364617	 0.105234
H	 1.1950528929	-1.4746754785	 2.0628993834	 0.116834
H	 2.1035094047	-2.3220549694	 0.7872779042	 0.124118
H	 0.7217383584	-4.5901022945	 1.5985553607	 0.092421
65.3415	102.7231	166.7979	181.5144	250.8326	339.0239	405.0001	445.2136	483.8531	535.5242	668.5086	727.0426	768.3578	804.14	871.1037	920.4063	928.3779	934.9455	1007.0159	1052.5416	1096.7964	1104.6687	1141.907	1189.6888	1254.6243	1268.8866	1295.5805	1326.8815	1354.8445	1378.0409	1418.0587	1424.2704	1464.0753	1483.5672	1503.1219	1757.9269	1828.6364	2895.9449	2998.2998	3003.5489	3011.1005	3089.2832	3132.2812	3453.8652	3537.8561
N=C1CNC(CO1)C=O	[NH][C]1CN[C@@H](CO1)C=O	
InChI=1S/C5H8N2O2/c6-5-1-7-4(2-8)3-9-5/h2,4,6-7H,1,3H2	InChI=1S/C5H8N2O2/c6-5-1-7-4(2-8)3-9-5/h2,4,6-7H,1,3H2/t4-/m1/s1
