18
gdb 36425	3.99613	1.06857	1.00853	5.6096	75.77	-0.2262	0.0307	0.2569	1206.1841	0.150074	-398.105673	-398.097798	-398.096854	-398.138653	29.843	
N	-0.4322709216	-0.8299882189	-0.489806442	-0.312719
C	-0.1819503389	 0.2923260405	-0.3778319993	 0.276305
C	 0.1306616705	 1.7240110808	-0.2682447916	-0.296754
N	 1.4942405132	 1.935326247	 0.2117987414	-0.080473
C	 2.5409045246	 1.5543932071	-0.7599274314	-0.182951
C	 3.0508473778	 2.8570666073	-1.3508076331	-0.032543
N	 1.9501774046	 3.735809642	-1.8042508824	-0.338252
C	 2.5718437817	 3.9554692273	-0.4806323132	-0.032767
C	 1.7657439138	 3.3219309861	 0.6406191334	-0.179667
H	-0.0732168478	 2.1997014583	-1.2404642349	 0.15593
H	-0.5655061175	 2.1565725618	 0.4581950276	 0.147306
H	 3.3641582646	 1.0385198657	-0.2485359695	 0.110476
H	 2.1338414264	 0.8667333064	-1.5064504651	 0.127238
H	 4.0108506814	 2.8923809249	-1.8551163575	 0.092839
H	 2.3141023573	 4.4170402032	-2.4657063214	 0.235994
H	 3.1564697415	 4.8512218969	-0.2986626292	 0.091802
H	 0.8300908682	 3.8493012394	 0.8483204852	 0.10979
H	 2.3630881301	 3.3236299841	 1.5627199631	 0.108447
55.7347	110.8733	167.9684	292.4208	365.0742	385.2346	400.	402.0458	515.6385	652.2774	726.2692	804.0814	840.0547	858.2562	880.4859	935.181	941.922	968.3361	982.6833	1005.9947	1037.7855	1097.194	1108.6645	1133.0451	1151.4675	1157.3997	1216.5076	1249.1134	1272.8729	1323.1704	1330.7885	1357.0118	1370.1962	1385.252	1434.7734	1481.6181	1496.6649	1506.6201	2362.6508	2988.5906	3011.173	3021.9324	3068.6744	3085.2217	3091.3665	3163.908	3174.4279	3506.3347
N#CCN1CC2NC2C1	N#CCN1C[C@H]2N[C@H]2C1	
InChI=1S/C6H9N3/c7-1-2-9-3-5-6(4-9)8-5/h5-6,8H,2-4H2	InChI=1S/C6H9N3/c7-1-2-9-3-5-6(4-9)8-5/h5-6,8H,2-4H2/t5-,6+
