21
gdb 94801	2.27284	1.67308	1.24891	1.7886	78.29	-0.2219	0.0694	0.2913	1102.1906	0.181765	-424.214285	-424.205141	-424.204197	-424.248283	34.989	
C	-0.7616295615	 1.2337306761	-0.0712737254	-0.422876
C	-0.0217926971	-0.0998898999	-0.0803286994	-0.071044
C	 1.0600349967	-0.2415986066	-1.1671178573	 0.071396
O	 1.8056248323	 0.9674861646	-1.2060712704	-0.4301
C	 1.8819671196	-1.4247721476	-0.6315027072	-0.094845
O	 1.7113857916	-1.454945155	 0.7825430505	-0.308814
C	 0.7806702984	-0.4577996206	 1.1640360736	 0.4833
C	 1.2237682384	 0.5257162728	 2.210601123	-0.317324
C	 0.2290451147	-0.5768152243	 2.5454304629	-0.347212
H	-0.0615766917	 2.0685785965	-0.0165507424	 0.145366
H	-1.3541090521	 1.3502635064	-0.9841053139	 0.112617
H	-1.4504938889	 1.2936590352	 0.777827372	 0.11338
H	-0.7432591902	-0.9118019823	-0.2475795335	 0.079865
H	 0.6286065655	-0.463014613	-2.1538086377	 0.062492
H	 2.5530152513	 0.8404464693	-1.7979381889	 0.28423
H	 1.5328739515	-2.3750858099	-1.0600858412	 0.094697
H	 2.947106299	-1.3125668343	-0.8755627037	 0.088373
H	 2.2359450752	 0.4085522592	 2.5804121076	 0.115572
H	 0.867539586	 1.5487065941	 2.1687938171	 0.111432
H	-0.8074844855	-0.3041615317	 2.718075156	 0.109076
H	 0.584109367	-1.4099629592	 3.1416885384	 0.120419
44.7157	102.5904	210.7592	238.531	248.9138	254.5649	284.2595	368.1191	394.6106	453.2536	505.9112	588.6138	714.8784	756.0502	765.1995	852.1435	856.9082	887.8368	927.4166	944.0578	977.1817	997.4641	1022.1722	1048.4632	1071.3404	1076.0584	1109.4628	1129.4879	1159.857	1189.2511	1203.8841	1227.7701	1237.8454	1319.8277	1330.9023	1366.6127	1376.3148	1387.6463	1409.0407	1428.3097	1448.3167	1494.6402	1498.8608	1506.2417	1512.1244	2988.38	3000.8018	3013.3397	3031.765	3042.9093	3100.767	3126.4037	3138.316	3142.5977	3213.2594	3231.5098	3827.3705
CC1C(O)COC11CC1	C[C@H]1[C@@H](O)COC21CC2	
InChI=1S/C7H12O2/c1-5-6(8)4-9-7(5)2-3-7/h5-6,8H,2-4H2,1H3	InChI=1S/C7H12O2/c1-5-6(8)4-9-7(5)2-3-7/h5-6,8H,2-4H2,1H3/t5-,6-/m0/s1
