23
gdb 104182	2.79022	1.07243	1.03556	2.207	81.71	-0.2454	0.0767	0.3221	1330.127	0.204629	-425.43151	-425.421555	-425.420611	-425.466466	37.974	
C	-0.1039751343	 1.3081818029	-0.0916987185	-0.246978
O	-0.0582644632	-0.0832982173	 0.1244178228	-0.287309
C	 0.7403227169	-0.5616739684	 1.2220775284	 0.419715
C	 2.1712609876	-0.0236940017	 1.1571725638	-0.466118
C	 0.0314114683	-0.2586000989	 2.5700844596	-0.249527
C	-1.002886793	-1.3801339738	 2.7014511173	-0.246106
C	-0.2045800808	-2.6189023822	 2.2627724474	 0.14078
O	-0.9864025355	-3.7154639073	 1.817186868	-0.43877
C	 0.6677033672	-2.109351887	 1.0995427067	-0.250108
H	 0.8590343811	 1.7159281333	-0.4295947267	 0.105994
H	-0.8423760086	 1.4743124228	-0.8807396278	 0.125827
H	-0.4213196038	 1.8727019129	 0.7974106732	 0.101722
H	 2.2166835339	 1.0520191521	 1.353792092	 0.113496
H	 2.7919025566	-0.5217226842	 1.9079827357	 0.114833
H	 2.6089620666	-0.2132998727	 0.171744664	 0.122876
H	 0.762306567	-0.3194307212	 3.3863060931	 0.092171
H	-0.3983885126	 0.7457914413	 2.6029266057	 0.095748
H	-1.4300037006	-1.4715272201	 3.7053451673	 0.079555
H	-1.820884538	-1.2247437433	 1.989843005	 0.11554
H	 0.4422061703	-2.9353450778	 3.0982116952	 0.056279
H	-1.5027168075	-4.0344230335	 2.5640312026	 0.278502
H	 0.1760779807	-2.358761409	 0.1568134487	 0.129378
H	 1.6584818217	-2.5697785071	 1.0948621061	 0.0925
33.3813	115.8649	164.425	215.7882	250.9871	278.0156	286.2078	308.4236	361.4734	376.4712	405.9466	460.3871	484.7966	572.2459	594.5672	734.3865	814.0736	850.2745	885.671	917.9398	928.9486	987.8836	1031.4618	1042.8137	1054.037	1097.1661	1110.2664	1156.9755	1178.354	1185.5309	1212.1841	1214.076	1249.7205	1261.8908	1284.4928	1293.3805	1323.5245	1350.285	1380.6663	1400.0383	1431.9066	1470.0012	1477.7162	1480.7433	1488.7912	1490.8679	1499.5588	1505.4153	1514.1303	2952.1449	2987.6613	3029.4143	3034.7366	3038.2675	3044.6002	3070.3011	3090.1823	3097.764	3103.5517	3107.0065	3110.1877	3123.6766	3817.981
COC1(C)CCC(O)C1	CO[C@@]1(C)CC[C@@H](O)C1	
InChI=1S/C7H14O2/c1-7(9-2)4-3-6(8)5-7/h6,8H,3-5H2,1-2H3	InChI=1S/C7H14O2/c1-7(9-2)4-3-6(8)5-7/h6,8H,3-5H2,1-2H3/t6-,7+/m1/s1
