16
gdb 66676	3.72428	1.31655	1.20637	4.7871	74.72	-0.229	-0.0262	0.2028	1060.2796	0.122441	-400.640484	-400.632872	-400.631928	-400.672636	28.941	
C	-0.0619709455	 1.4732618875	 0.0403857625	-0.525277
C	 0.0776802971	-0.0078991973	-0.0004836561	 0.362251
C	 0.2651032487	-0.9863181555	-1.1064742056	-0.108981
C	 0.8539300737	-2.0239786757	-0.1182403942	-0.162497
C	 0.6689216962	-1.0385550305	 1.0096585869	-0.224116
C	-0.4916038766	-1.9503877548	 0.605591771	 0.321415
C	-1.1895338349	-2.9643515844	 1.3872275482	 0.027894
O	-2.3799982438	-3.1623292294	 1.3836143062	-0.26391
N	-1.05293823	-0.9369634635	-0.3703187391	-0.232919
H	 0.917422278	 1.9637768326	 0.0362391731	 0.127493
H	-0.6249261881	 1.8158044074	-0.8330270302	 0.142741
H	-0.6033063865	 1.7913197475	 0.9378943329	 0.136199
H	 0.3316368702	-0.8699201131	-2.1810531014	 0.107282
H	 1.5337328778	-2.8586757036	-0.2120738913	 0.114322
H	 1.17611913	-0.9613805238	 1.9612350903	 0.113393
H	-0.4920572961	-3.5667604633	 2.0184062367	 0.064709
94.8222	152.3431	207.4761	226.9442	290.7162	324.3229	449.1593	602.6759	661.7629	665.4372	748.9134	804.9929	824.1958	827.3517	860.5262	874.5464	911.1021	962.5216	976.2098	1010.7839	1037.1928	1039.7096	1082.8909	1093.3021	1148.2265	1230.4716	1244.9881	1259.0537	1354.8657	1398.8672	1438.5262	1451.3643	1477.8597	1490.181	1807.6053	2837.9392	3031.7979	3097.2003	3113.8719	3191.3686	3214.6881	3226.7295
CC12C3C4C1C4(C=O)N23	C[C@@]12[C@H]3[C@H]4[C@@H]1[C@@]4(C=O)N23	
InChI=1S/C7H7NO/c1-6-4-3-5(6)8(6)7(3,4)2-9/h2-5H,1H3	InChI=1S/C7H7NO/c1-6-4-3-5(6)8(6)7(3,4)2-9/h2-5H,1H3/t3-,4+,5-,6+,7+,8?/m1/s1
