16
gdb 65757	2.99661	1.20612	1.14621	1.5614	65.25	-0.2686	-0.0083	0.2603	1113.3364	0.123403	-475.071348	-475.062552	-475.061608	-475.105219	31.202	
C	 0.3154994467	 1.6176442706	 0.8658265811	-0.446644
C	 0.1072711644	 0.1442250971	 0.5200821111	 0.119833
C	 0.2580805485	-0.2336016759	-0.9699479671	-0.09212
O	 1.4879393495	-0.9832889178	-0.6584416004	-0.241593
C	 1.3570921724	-0.7436824534	 0.6752900093	 0.437111
O	 2.0194965907	-1.1481477495	 1.576962887	-0.33723
N	-1.0370215106	-0.4410001372	 1.19667916	-0.335198
C	-2.3131450329	-0.1876374827	 0.8017052202	 0.152734
O	-2.6055764725	 0.4818820344	-0.1678060148	-0.329022
H	 1.1932035044	 2.0201221286	 0.3517084541	 0.131938
H	-0.564649927	 2.1897615502	 0.5635544392	 0.159381
H	 0.4653924041	 1.7326956831	 1.942767626	 0.136058
H	-0.5066157043	-0.8970157777	-1.369457672	 0.147116
H	 0.4683102258	 0.5883618967	-1.6540554194	 0.13486
H	-0.8687111113	-0.960655657	 2.0451716458	 0.267177
H	-3.0606558378	-0.6751489296	 1.45616785	 0.0956
69.3169	119.5037	142.3585	191.3839	227.7193	241.8966	277.5688	367.4644	411.7222	529.3962	561.5839	660.9269	739.8445	767.6967	843.4121	891.9765	948.1087	970.9839	995.4451	1031.7392	1125.3651	1144.0981	1158.1465	1188.4841	1226.1766	1268.3667	1355.3402	1406.7182	1421.678	1480.7452	1498.1704	1505.4328	1514.0823	1791.0778	1933.8487	2956.2072	3047.5152	3102.3232	3121.7687	3137.9336	3174.7285	3619.4372
CC1(COC1=O)NC=O	C[C@]1(COC1=O)NC=O	
InChI=1S/C5H7NO3/c1-5(6-3-7)2-9-4(5)8/h3H,2H2,1H3,(H,6,7)	InChI=1S/C5H7NO3/c1-5(6-3-7)2-9-4(5)8/h3H,2H2,1H3,(H,6,7)/t5-/m1/s1
