20
gdb 38867	2.72723	1.96648	1.81799	1.9454	75.86	-0.1983	0.0755	0.2739	884.9535	0.176475	-403.13441	-403.128143	-403.127199	-403.164659	27.21	
C	-0.0398225505	 1.5717702467	 0.0099894935	-0.25677
C	 1.4248439889	 2.1056426495	-0.000756865	-0.176695
N	 2.4100401265	 1.0125422893	-0.0154505644	-0.085695
C	 2.2012229526	 0.1741233881	 1.1858979767	-0.178376
C	 0.9353814652	-0.677367785	 0.9983710412	 0.076951
O	 1.2365359189	-1.6763487023	-0.0184411446	-0.302744
C	 0.916785995	-0.6670087059	-1.0192192702	 0.076952
C	 2.1790364894	 0.1864839655	-1.2212921292	-0.178376
C	-0.0094365099	 0.0450574249	 0.0018806167	-0.019843
H	-0.5842809485	 1.9253675585	 0.8928128238	 0.102579
H	-0.6004038949	 1.9343419576	-0.8589950098	 0.102579
H	 1.6066012481	 2.733965251	-0.8784380598	 0.101705
H	 1.6227964991	 2.7249228725	 0.8798429521	 0.101705
H	 3.0563764695	-0.496464777	 1.3254933216	 0.111018
H	 2.1316388617	 0.8298169466	 2.0609689899	 0.09591
H	 0.5407183985	-1.1206159749	 1.9175467807	 0.070698
H	 0.5052076904	-1.1008330155	-1.9354680354	 0.070698
H	 2.093395552	 0.8511221762	-2.0881526685	 0.09591
H	 3.0314087796	-0.4825534709	-1.3835056182	 0.111018
H	-1.0047628617	-0.401464635	 0.0087625287	 0.080779
174.7675	332.5176	342.3414	434.3391	458.103	535.6208	595.3709	606.0194	720.1611	793.1042	798.6913	836.0141	842.7956	878.8889	887.6104	905.0043	961.582	993.9546	1012.228	1033.5965	1043.5015	1069.5225	1084.065	1094.3621	1128.4527	1148.0063	1223.8132	1247.4463	1272.2278	1276.4447	1293.3551	1316.0439	1336.3928	1336.9168	1342.5902	1345.1922	1360.6837	1385.8098	1396.1495	1470.5292	1476.7651	1486.7357	1505.4216	3030.2282	3030.6002	3033.1756	3043.9035	3060.5471	3063.6898	3064.516	3080.1677	3083.5749	3089.1131	3101.0738
C1CN2CC3OC(C2)C13	C1CN2C[C@@H]3O[C@H](C2)[C@H]13	
InChI=1S/C7H11NO/c1-2-8-3-6-5(1)7(4-8)9-6/h5-7H,1-4H2	InChI=1S/C7H11NO/c1-2-8-3-6-5(1)7(4-8)9-6/h5-7H,1-4H2/t5-,6+,7-
