20
gdb 91512	2.51633	1.4298	1.10326	3.4374	79.73	-0.2393	0.0264	0.2657	1170.836	0.171009	-403.164782	-403.155671	-403.154727	-403.198491	34.79	
C	 0.0502281496	 1.7045859439	 0.1133227696	-0.410509
C	 0.0663946162	 0.1802064194	 0.0806534918	-0.072336
C	 1.0337411206	-0.5520995783	-0.9149096503	-0.255339
C	 1.6379414089	-1.3383563976	 0.2537819488	-0.077529
C	 2.222794534	-0.4131061847	 1.2607971714	-0.322533
C	 0.7195042992	-0.5900990065	 1.2468748215	 0.263665
C	 0.0644809143	-1.2084136583	 2.4315150778	 0.293814
N	-1.2496717098	-0.8646399854	 2.6206363147	-0.542868
O	 0.6395347053	-1.9949437719	 3.1645278217	-0.376586
H	 1.0533224971	 2.1160400503	 0.2624199223	 0.121458
H	-0.3389841899	 2.1112285548	-0.8264405143	 0.118368
H	-0.5832629607	 2.0825360397	 0.9246788647	 0.108222
H	-0.951024578	-0.1925519184	-0.0800706894	 0.075719
H	 0.5022583486	-1.1712724217	-1.6399125377	 0.107136
H	 1.7377372658	 0.0911278628	-1.4543340355	 0.098461
H	 1.8490905999	-2.4000255366	 0.2650976322	 0.106803
H	 2.6934247417	-0.8887006899	 2.1135430172	 0.143871
H	 2.6591033795	 0.5339745468	 0.9536762888	 0.104795
H	-1.6548957162	-0.0737939071	 2.150549351	 0.257296
H	-1.6803441064	-1.1735898312	 3.4774610437	 0.258091
64.0713	126.9029	186.878	212.1732	224.8464	277.3954	292.2332	391.3394	421.7351	447.218	533.0684	580.7219	635.3705	686.2512	752.4018	827.6773	852.1202	867.3979	880.7615	933.2393	969.263	1025.131	1030.3427	1076.7707	1084.143	1093.4362	1110.97	1147.5204	1166.0055	1215.6423	1236.609	1261.547	1295.6178	1334.3912	1368.2384	1404.2014	1421.425	1472.8052	1490.8359	1497.8764	1498.9892	1614.1686	1775.7347	3025.9939	3039.6381	3044.0199	3087.2516	3104.4165	3112.112	3116.7383	3198.3667	3224.1532	3596.5172	3729.3836
CC1CC2CC12C(N)=O	C[C@H]1C[C@H]2C[C@@]12C(=O)N	
InChI=1S/C7H11NO/c1-4-2-5-3-7(4,5)6(8)9/h4-5H,2-3H2,1H3,(H2,8,9)	InChI=1S/C7H11NO/c1-4-2-5-3-7(4,5)6(8)9/h4-5H,2-3H2,1H3,(H2,8,9)/t4-,5-,7+/m0/s1
