17
gdb 125178	3.25632	1.52538	1.06134	3.8632	75.05	-0.2058	0.0259	0.2317	1105.204	0.138406	-418.029753	-418.021715	-418.020771	-418.063106	29.283	
C	-0.1555225223	 1.5319332093	 0.1376500114	-0.500386
C	-0.0440439902	 0.0559621884	-0.0628172282	 0.173262
C	 0.0984165206	-0.7338399139	-1.1825356715	 0.109528
C	 0.2611563828	-0.7913637229	-2.6705357064	-0.397147
C	 0.1829507237	-2.3432667952	-2.891287288	-0.083489
O	 0.3490680515	-3.0059914902	-1.6085788188	-0.271684
C	 0.1797206666	-2.0392424149	-0.6784309134	 0.435593
N	 0.095319329	-2.1406517639	 0.6292841336	-0.355354
N	-0.0327204376	-0.8214051145	 0.987368632	-0.26019
H	 0.8235416622	 1.9960215115	 0.306828652	 0.142693
H	-0.5962850031	 2.004863193	-0.7432927298	 0.140661
H	-0.7883090097	 1.7728113398	 0.9982575023	 0.130002
H	-0.5202455772	-0.2805935561	-3.2418857127	 0.115977
H	 1.2245237189	-0.3900040732	-3.0079650473	 0.118143
H	-0.7963022258	-2.6296607244	-3.2908731694	 0.116702
H	 0.9593238629	-2.7221621133	-3.5590920921	 0.119856
H	-0.1729571823	-0.6039260396	 1.9585220663	 0.265833
46.2964	98.7064	183.0367	227.2162	245.1535	316.0264	412.844	527.5293	591.8799	638.6814	649.8187	724.8268	770.7252	789.8559	848.5663	933.5337	995.7462	1008.3287	1051.4645	1070.3438	1079.495	1162.437	1197.2909	1209.713	1242.6338	1287.2403	1297.481	1368.9506	1417.6557	1462.083	1482.1729	1484.7425	1495.2706	1512.2746	1517.1385	1571.8688	1673.0488	3024.7579	3029.1125	3039.1339	3069.0734	3084.552	3110.6435	3119.7843	3683.9733
CC1=C2CCOC2=NN1	Cc1c2CCOc2n[nH]1	
InChI=1S/C6H8N2O/c1-4-5-2-3-9-6(5)8-7-4/h2-3H2,1H3,(H,7,8)	InChI=1S/C6H8N2O/c1-4-5-2-3-9-6(5)8-7-4/h2-3H2,1H3,(H,7,8)
