16
gdb 51854	3.49784	1.12434	0.88697	6.7826	67.22	-0.2563	-0.0001	0.2563	1249.3895	0.125143	-475.086826	-475.078551	-475.077607	-475.12045	29.486	
O	-0.1437105234	 0.0591859244	-0.0505346612	-0.275118
C	-0.0834538431	 1.2492601904	-0.1013860222	 0.180994
O	 1.0508906923	 1.9203428196	 0.2228253688	-0.192529
C	 1.0420311602	 3.3296337685	 0.0486002902	-0.000469
C	 2.2916874318	 3.9616303355	 0.6596219876	-0.250948
C	 2.5831566298	 5.1688578061	-0.261431601	-0.174498
N	 1.9913846716	 4.7573704163	-1.5260364918	-0.308665
C	 1.1116850419	 3.7227531739	-1.4427657838	 0.412412
O	 0.4852944798	 3.2036933124	-2.3394496226	-0.374644
H	-0.9147640749	 1.9149298114	-0.3869964049	 0.095872
H	 0.1204450671	 3.7572181572	 0.4672729366	 0.112493
H	 2.1730407585	 4.2505648521	 1.7045664611	 0.123187
H	 3.1037809512	 3.2326627811	 0.5926028971	 0.143973
H	 2.1179182107	 6.0879893906	 0.1193830992	 0.118371
H	 3.6554564217	 5.3566607499	-0.3670750547	 0.128073
H	 2.1370012247	 5.2446899707	-2.3961298283	 0.261496
78.0961	94.8228	150.075	173.8757	223.5287	309.6818	382.7494	452.1243	546.6883	550.912	664.6295	692.706	757.7031	826.2605	907.6073	946.9632	1009.1492	1025.2191	1063.9382	1097.9361	1136.9942	1172.5114	1206.6829	1230.5419	1271.6881	1307.1424	1311.3212	1354.4753	1385.6194	1440.1739	1453.4932	1494.6004	1537.2383	1837.9509	1870.0688	3002.8038	3013.6951	3017.6527	3073.4027	3083.6612	3134.203	3640.672
O=COC1CCNC1=O	O=CO[C@H]1CCNC1=O	
InChI=1S/C5H7NO3/c7-3-9-4-1-2-6-5(4)8/h3-4H,1-2H2,(H,6,8)	InChI=1S/C5H7NO3/c7-3-9-4-1-2-6-5(4)8/h3-4H,1-2H2,(H,6,8)/t4-/m0/s1
