19
gdb 119221	1.93339	1.18611	0.84733	4.2811	77.06	-0.2421	0.0354	0.2775	1397.7707	0.158175	-419.191548	-419.181216	-419.180272	-419.227626	36.378	
N	 0.0108482994	 1.4263541061	-0.1788805317	-0.515996
C	-0.0421640265	-0.0002374547	-0.0015558445	-0.012033
C	-0.5964688636	-0.7038745898	 1.2058447827	-0.33699
C	-1.3743305916	-0.7378909646	-0.1185557307	 0.138454
C	-2.6762829209	 0.0414016107	-0.2457317018	-0.25309
C	-3.8886026133	-0.7383176443	 0.2563023493	-0.079568
O	-5.0109987057	 0.121959332	 0.1497146227	-0.419821
C	-1.3398594498	-1.9804081066	-0.8492924701	 0.251069
N	-1.3125519464	-2.9773572242	-1.4373845824	-0.3584
H	-0.609705251	 1.9053825803	 0.4646502424	 0.235542
H	 0.9484754714	 1.7569694042	 0.0258471437	 0.241721
H	 0.784213512	-0.4956278929	-0.5006437655	 0.124673
H	-0.1313561516	-1.6195036903	 1.5529375166	 0.135657
H	-1.0405834016	-0.094123055	 1.9870953001	 0.11991
H	-2.6100540932	 0.9712023626	 0.3271375837	 0.103719
H	-2.840104631	 0.3273373414	-1.2896460492	 0.132877
H	-4.018469505	-1.650035767	-0.3451439229	 0.114217
H	-3.7204875709	-1.0537599916	 1.2989947322	 0.088229
H	-5.8000863204	-0.383722416	 0.3641960656	 0.289832
57.1334	87.5091	97.9037	138.2902	150.7105	174.1667	248.3723	269.8702	317.3736	391.5815	421.4476	491.3063	572.5369	592.5557	713.0119	788.7967	814.456	838.9684	888.7979	951.8339	988.0114	1025.7368	1056.1525	1061.0609	1087.4987	1096.4236	1149.8637	1206.1089	1243.1251	1259.4698	1288.3696	1301.9933	1325.7393	1347.508	1441.2352	1464.6264	1480.2342	1489.3748	1528.6983	1660.0341	2341.4268	2969.0254	3012.6642	3055.1506	3099.322	3128.3868	3170.1924	3222.4222	3506.068	3584.6318	3833.4864
NC1CC1(CCO)C#N	N[C@H]1C[C@]1(CCO)C#N	
InChI=1S/C6H10N2O/c7-4-6(1-2-9)3-5(6)8/h5,9H,1-3,8H2	InChI=1S/C6H10N2O/c7-4-6(1-2-9)3-5(6)8/h5,9H,1-3,8H2/t5-,6+/m0/s1
