16
gdb 39187	3.00893	1.70467	1.14152	2.4642	73.41	-0.1719	0.0266	0.1985	1011.522	0.126291	-437.835653	-437.82839	-437.827446	-437.867197	28.525	
C	 0.3419123238	 1.3009380085	-0.679863387	-0.102867
O	 1.3034632684	 2.1973187717	-0.1426434036	-0.245571
C	 2.6340264797	 1.8686670205	-0.1164310625	 0.017569
C	 3.2965687641	 0.6991458692	-0.0967162016	-0.083157
N	 2.8332857972	-0.6227628105	-0.0831079602	-0.435132
C	 1.4951921829	-0.8899577307	-0.2275880703	 0.183441
C	 0.332466862	-0.0006402999	 0.102966026	 0.08071
O	-0.552416912	-1.0216719924	-0.4619674743	-0.294858
C	 0.6197082731	-1.7648768507	-0.7422660385	-0.058359
H	-0.6161332183	 1.8223179753	-0.6055961368	 0.120526
H	 0.553829225	 1.080549028	-1.735036915	 0.109174
H	 3.2261852168	 2.7718277257	-0.0272805991	 0.110717
H	 4.3751874365	 0.7733515996	-0.027325544	 0.109937
H	 3.4817317291	-1.317432566	-0.4186214591	 0.250865
H	 0.1146524844	 0.1594947966	 1.1627120341	 0.111731
H	 0.5739374474	-2.7262205748	-1.2300404181	 0.125275
122.6327	173.8547	278.2356	335.6536	363.6953	381.6624	457.2433	496.4007	532.9021	638.5533	703.5351	738.4803	743.7587	864.891	884.9572	888.1871	927.9646	953.3433	1003.7593	1038.7931	1073.9459	1129.5711	1160.5809	1202.7451	1255.1962	1271.682	1292.5957	1352.2953	1385.717	1398.5673	1437.9689	1475.8232	1497.1536	1726.0713	1765.5967	3015.3451	3082.0906	3102.2779	3192.8382	3211.9366	3254.0355	3622.9802
C1OC2C3NC22C1OC32	C1OC=CNC2=CO[C@H]12	
InChI=1S/C6H7NO2/c1-2-6-4(8-1)3(7-6)5(6)9-2/h2-5,7H,1H2	InChI=1S/C6H7NO2/c1-2-8-4-6-5(7-1)3-9-6/h1-3,6-7H,4H2/t6-/m1/s1
