18
gdb 16424	3.18699	2.2688	1.87878	2.5181	65.85	-0.241	0.0781	0.3191	789.554	0.156887	-384.932823	-384.926354	-384.92541	-384.963085	26.694	
O	 0.0641700968	 1.3748159074	-0.2061254116	-0.442704
C	 0.0741209977	-0.028455175	-0.0055003279	 0.152219
C	 0.748634301	-0.4373572656	 1.3294496188	-0.248811
C	-0.2580018971	-0.4702316081	 2.5082535573	-0.212294
C	-1.644621645	-0.8302376872	 1.9782794544	 0.103145
C	-1.5864999914	-1.8242114827	 0.7960015601	-0.262414
C	-1.3784785922	-0.5293476311	-0.009820157	 0.059817
O	-2.0504468412	 0.2265279093	 1.0468621432	-0.311508
H	-0.6456549893	 1.705237407	 0.3625591193	 0.284667
H	 0.6346041342	-0.4526320575	-0.8462999818	 0.078337
H	 1.1914657566	-1.4319358985	 1.2073327123	 0.099149
H	 1.5744192216	 0.2506655186	 1.5270791848	 0.11043
H	 0.0652351027	-1.1862294706	 3.272603016	 0.09775
H	-0.332115922	 0.5078635767	 2.9962665274	 0.111499
H	-2.3892883092	-0.9839719142	 2.7633439943	 0.079445
H	-0.8073193053	-2.5882832055	 0.7830995841	 0.104059
H	-2.559793213	-2.2735779918	 0.5942497565	 0.113675
H	-1.866641635	-0.3996942209	-0.9786942103	 0.08354
148.4579	249.0434	363.79	391.1541	424.7829	466.9798	531.2109	562.2756	700.348	767.4873	806.923	831.1995	872.8637	898.9981	923.3676	951.2948	967.0487	1012.659	1025.5738	1057.4606	1090.5197	1116.2486	1121.5382	1179.3949	1215.2271	1228.9215	1261.3339	1289.166	1309.5601	1328.7746	1337.1119	1350.2175	1366.7731	1387.0688	1440.6569	1474.3505	1483.2244	1501.8901	3034.5718	3038.9323	3052.8825	3074.976	3076.3045	3081.7329	3090.4631	3100.9516	3138.9268	3740.8138
OC1CCC2CC1O2	O[C@H]1CC[C@@H]2C[C@H]1O2	
InChI=1S/C6H10O2/c7-5-2-1-4-3-6(5)8-4/h4-7H,1-3H2	InChI=1S/C6H10O2/c7-5-2-1-4-3-6(5)8-4/h4-7H,1-3H2/t4-,5+,6-/m1/s1
