19
gdb 90417	2.38318	1.57698	1.25636	1.9579	74.99	-0.2394	-0.0321	0.2074	1079.7609	0.158254	-423.015658	-423.006896	-423.005952	-423.049201	32.919	
C	 0.3934568019	 1.5624056868	-0.1823823223	-0.406554
C	 0.144616721	 0.0745464143	 0.0133574795	 0.041907
C	 0.8831287911	-0.9633800232	-0.8872021703	-0.260739
C	 1.2254299511	-1.824732236	 0.3564280324	-0.064194
C	 2.6652022058	-1.619490815	 0.904227759	 0.045687
O	 3.7509586059	-1.5599866111	 0.0215156804	-0.434659
C	 2.1754890212	-0.3189955712	 1.5523675697	 0.358345
O	 2.769208194	 0.6464784841	 1.9499121911	-0.322186
C	 0.7032949107	-0.6538346011	 1.283124873	-0.188376
H	 1.4581703336	 1.8063268487	-0.1298425421	 0.12956
H	 0.0194159157	 1.884853266	-1.1603990585	 0.115063
H	-0.1189402176	 2.1545543531	 0.5834303607	 0.120171
H	-0.9320403487	-0.1213969494	-0.0239696703	 0.083161
H	 0.2593834712	-1.4513610158	-1.6380325477	 0.105144
H	 1.7785182587	-0.5778989707	-1.3831212083	 0.113986
H	 0.8257436975	-2.8361071037	 0.3966580956	 0.075451
H	 2.839205436	-2.3606657095	 1.7046184766	 0.098543
H	 4.2571093786	-0.77081271	 0.2498371702	 0.298566
H	 0.0474378923	-0.7639874564	 2.1476190315	 0.091124
62.4488	123.4746	188.171	198.6941	228.3931	252.6659	310.4255	397.8864	503.0236	521.4565	579.6627	630.401	711.5815	805.5103	828.2725	831.0525	885.3028	904.6321	953.9777	1012.2934	1025.9392	1058.789	1081.0334	1107.7824	1131.8414	1138.2606	1159.2222	1204.8155	1218.9344	1224.7847	1263.0901	1305.2427	1316.9223	1352.367	1364.3295	1366.8856	1418.0086	1491.0482	1496.1047	1497.6052	1866.9518	2950.0928	3033.0227	3044.0447	3065.5915	3095.9414	3104.701	3114.832	3118.1438	3133.7548	3786.2178
CC1CC2C(O)C(=O)C12	C[C@H]1C[C@H]2[C@@H](O)C(=O)[C@@H]12	
InChI=1S/C7H10O2/c1-3-2-4-5(3)7(9)6(4)8/h3-6,8H,2H2,1H3	InChI=1S/C7H10O2/c1-3-2-4-5(3)7(9)6(4)8/h3-6,8H,2H2,1H3/t3-,4+,5-,6+/m0/s1
