21
gdb 64293	2.5963	1.5855	1.2994	2.0056	76.97	-0.2425	0.0655	0.308	1068.5538	0.183099	-424.227363	-424.218946	-424.218002	-424.259781	33.614	
C	-0.3023972473	 1.5595188356	 0.0049033958	-0.448911
C	 0.0819201099	 0.0819206336	-0.028187705	 0.372
O	-1.1021397714	-0.7265740248	-0.1235713127	-0.479249
C	 1.0624260349	-0.2997052427	-1.1627820561	-0.255841
C	 1.5956262437	-1.6822995885	-0.7448018401	-0.224049
C	 1.7393743826	-1.5675083257	 0.7705701926	 0.130331
O	 2.8934013616	-0.7765000705	 1.1579164907	-0.300584
C	 2.0578577163	 0.2566501412	 1.7159003007	-0.100118
C	 0.7720967903	-0.4468826426	 1.2429596187	-0.066776
H	 0.5699926414	 2.2076052274	 0.128555466	 0.117541
H	-0.7927554776	 1.8477811283	-0.9326673707	 0.105672
H	-1.0018096617	 1.7526537742	 0.8236377664	 0.123209
H	-1.5329097911	-0.5159298546	-0.9592675186	 0.274136
H	 0.568990067	-0.2970669991	-2.1406068609	 0.082398
H	 1.8814444517	 0.4261723483	-1.2096184483	 0.10946
H	 0.859627519	-2.4582638205	-0.9777758616	 0.106009
H	 2.5432905095	-1.9488916673	-1.2204354789	 0.104698
H	 1.7238653212	-2.527631868	 1.2963967934	 0.070096
H	 2.1626334176	 0.3202960486	 2.8067218647	 0.098898
H	 2.2794110805	 1.2415297363	 1.2861087161	 0.096243
H	 0.037149042	-0.6800588092	 2.0126946379	 0.084837
114.9886	186.1251	225.3554	238.8754	288.4353	321.8374	351.7538	373.2437	414.0089	470.8501	579.478	638.5712	733.7986	808.0957	843.1702	865.5591	892.7919	930.1469	935.4584	957.3185	1003.7694	1023.4859	1026.0174	1040.6958	1060.2568	1118.0877	1135.0236	1159.3311	1171.9827	1211.6999	1214.2125	1237.8643	1281.4381	1307.9552	1322.1264	1337.3609	1355.3395	1370.0937	1387.2781	1411.4551	1463.5485	1483.5829	1493.6171	1495.508	1527.5439	3007.7145	3029.5621	3042.3354	3046.8422	3047.7739	3062.0892	3083.1022	3095.0087	3109.1624	3117.6117	3120.6248	3800.213
CC1(O)CCC2OCC12	C[C@@]1(O)CC[C@H]2OC[C@@H]12	
InChI=1S/C7H12O2/c1-7(8)3-2-6-5(7)4-9-6/h5-6,8H,2-4H2,1H3	InChI=1S/C7H12O2/c1-7(8)3-2-6-5(7)4-9-6/h5-6,8H,2-4H2,1H3/t5-,6-,7-/m1/s1
