16
gdb 108661	2.32396	1.58357	0.96468	5.8072	69.98	-0.2218	-0.0091	0.2128	1155.5611	0.125	-475.074326	-475.065744	-475.0648	-475.107692	31.545	
N	 0.1320170851	 1.359090876	 0.2240723021	-0.58413
C	 0.0094897815	 0.0108679399	 0.09064896	 0.245287
C	-1.0958338429	-0.7642059673	 0.1507835464	 0.02463
C	-2.5212697192	-0.3605836174	 0.3302175413	-0.207007
O	-2.6880314295	 0.9702700275	-0.172513539	-0.429638
C	-0.6909348707	-2.158507526	-0.0020101965	 0.406082
O	-1.3574490896	-3.1584648361	-0.0197440255	-0.371081
O	 0.6902526721	-2.2045456039	-0.1438246433	-0.242376
C	 1.2076752248	-0.8856010218	-0.0999993464	-0.160655
H	 0.9546619989	 1.8001282531	-0.155756633	 0.255511
H	-0.7323407373	 1.8726875333	 0.1172376992	 0.27466
H	-3.1638579162	-1.0743393146	-0.2038431115	 0.126758
H	-2.8075316399	-0.4038770216	 1.3937130499	 0.108095
H	-3.5736449193	 1.2652165685	 0.0577016711	 0.294392
H	 1.7409295017	-0.6684717707	-1.035504975	 0.125522
H	 1.9211552605	-0.7931074988	 0.7289498	 0.133949
72.6471	139.534	199.6386	227.6658	235.8016	292.8951	322.2319	385.904	411.6646	534.8259	552.2841	639.558	643.2512	688.026	756.4957	768.3364	965.0191	1000.3466	1024.5579	1043.1815	1073.7367	1090.2487	1199.1871	1204.03	1227.4476	1265.9306	1281.2989	1364.768	1410.6835	1482.886	1499.2486	1518.0097	1633.4323	1733.2209	1856.2506	2966.8805	3014.4364	3023.086	3049.3969	3556.1862	3677.9615	3836.6058
NC1=C(CO)C(=O)OC1	NC1=C(CO)C(=O)OC1	
InChI=1S/C5H7NO3/c6-4-2-9-5(8)3(4)1-7/h7H,1-2,6H2	InChI=1S/C5H7NO3/c6-4-2-9-5(8)3(4)1-7/h7H,1-2,6H2
