20
gdb 11524	4.621	0.99995	0.87773	2.8111	76.09	-0.2441	-0.018	0.2261	1327.0073	0.175255	-349.004612	-348.995412	-348.994468	-349.039326	32.865	
C	-0.0941308894	 1.5787296894	-0.0857206161	-0.406188
C	 0.0060067933	 0.0470230617	 0.0026783192	-0.057454
C	-1.3725342489	-0.6484898406	 0.1144405059	-0.218599
C	-2.1519682305	-0.2844460024	 1.3621088514	 0.028494
C	-3.1660814176	 0.8344931555	 1.3603858199	-0.25188
C	-3.624046943	-0.5995882956	 1.4481733575	-0.281643
C	 0.7107323273	-0.4828504356	-1.2301356021	 0.156994
O	 1.7028129963	-1.1644448516	-1.2307194204	-0.249723
H	 0.898879674	 2.0347457603	-0.1458761864	 0.12568
H	-0.660329693	 1.8860278811	-0.9728511985	 0.116889
H	-0.6029314272	 1.9848712737	 0.7909214919	 0.136733
H	 0.620186467	-0.238624154	 0.8641209648	 0.092951
H	-1.9756302863	-0.4092278311	-0.772629928	 0.09428
H	-1.2130062296	-1.7345558948	 0.095195025	 0.112556
H	-1.5916428801	-0.411351845	 2.2856044396	 0.085511
H	-3.2512698133	 1.459263589	 2.2428015758	 0.113024
H	-3.3379682798	 1.3617103837	 0.4276606092	 0.111493
H	-4.0990890287	-1.0332079438	 0.5739548683	 0.112239
H	-4.0205641942	-0.9593289173	 2.3910117381	 0.113935
H	 0.2175443836	-0.190418853	-2.1900100651	 0.064708
51.4776	66.092	104.3098	160.003	219.2829	274.5299	299.1473	361.7033	371.3447	418.7929	568.3589	773.3931	798.4496	834.2989	859.4791	888.4718	917.4706	937.0608	964.942	991.384	1053.3062	1077.2187	1080.6077	1117.4902	1142.3498	1155.8658	1188.8575	1200.0132	1229.7644	1259.8064	1287.5316	1353.4033	1356.9417	1404.2413	1413.6465	1429.5865	1469.8274	1483.2563	1498.2947	1499.5307	1508.8656	1835.7554	2828.4192	3007.8097	3034.3387	3041.3811	3057.1571	3100.3768	3128.5589	3129.1424	3131.1275	3135.2329	3206.6668	3221.8276
CC(CC1CC1)C=O	C[C@@H](CC1CC1)C=O	
InChI=1S/C7H12O/c1-6(5-8)4-7-2-3-7/h5-7H,2-4H2,1H3	InChI=1S/C7H12O/c1-6(5-8)4-7-2-3-7/h5-7H,2-4H2,1H3/t6-/m0/s1
