21
gdb 106064	2.41696	1.55147	1.29444	1.813	82.04	-0.2223	0.0806	0.3029	1118.0497	0.18147	-387.039359	-387.030585	-387.029641	-387.072609	34.02	
C	 0.1476040852	 1.4869147256	 0.375818818	-0.375434
C	-0.072151215	 0.0068959121	 0.0316825389	-0.33462
C	 0.6100328377	-0.4286348692	-1.2271962018	 0.262774
C	 1.0070016646	-1.797617559	-1.7815298909	-0.188473
C	 0.321574066	-1.5259122775	-3.1164129532	-0.264511
C	 0.5156021889	-0.0228702396	-2.7706272923	 0.373225
C	-0.2430124533	 1.0869845015	-3.4296158257	-0.50625
O	 1.9693279641	 0.134920744	-2.8260434831	-0.333291
C	 2.0246145809	-0.6497101442	-1.6384536657	 0.044493
H	 1.2135636878	 1.7090027581	 0.4857496782	 0.123022
H	-0.2481833621	 2.139986667	-0.4081691967	 0.12143
H	-0.353584691	 1.7492957655	 1.3127224572	 0.110919
H	 0.2946718034	-0.6202245746	 0.8551243161	 0.103825
H	-1.1488365308	-0.1995777255	-0.0405539149	 0.100088
H	 1.0993037129	-2.730334359	-1.2386375826	 0.084916
H	 0.7938441505	-1.8705567603	-4.0425093525	 0.094894
H	-0.733325401	-1.8133955844	-3.0926459828	 0.096805
H	-1.3207957193	 0.94390703	-3.3059819684	 0.120834
H	 0.0348020068	 2.0570462774	-3.0083568827	 0.131961
H	-0.0211504223	 1.105325239	-4.5026374196	 0.132222
H	 2.9520063162	-0.7036376869	-1.0827048255	 0.101173
78.9517	130.9162	167.9712	200.8147	247.6264	291.0615	321.686	394.09	478.334	549.5481	602.9903	625.0816	743.5211	774.1381	813.4133	822.9409	867.1693	875.6442	917.0498	963.3564	980.1052	992.3687	1015.9791	1025.3806	1042.8895	1090.5795	1113.0903	1135.6252	1160.7409	1179.1933	1217.8863	1244.738	1285.0215	1299.0532	1336.5101	1358.1884	1409.0684	1413.6937	1452.6018	1474.3668	1479.687	1488.4561	1489.287	1499.698	1506.9785	3008.5411	3034.9168	3038.0455	3039.3709	3041.2899	3101.7142	3104.468	3107.7304	3111.241	3118.3266	3189.8046	3203.2825
CCC12C3CC1(C)OC23	CC[C@@]12[C@H]3C[C@]1(C)O[C@@H]23	
InChI=1S/C8H12O/c1-3-8-5-4-7(8,2)9-6(5)8/h5-6H,3-4H2,1-2H3	InChI=1S/C8H12O/c1-3-8-5-4-7(8,2)9-6(5)8/h5-6H,3-4H2,1-2H3/t5-,6+,7-,8-/m0/s1
