18
gdb 7189	4.21278	0.9316	0.80327	3.5631	66.21	-0.249	-0.018	0.231	1400.9457	0.150122	-422.068293	-422.058488	-422.057544	-422.10394	33.053	
C	-0.3989654693	 1.2164059836	 0.697684588	-0.226423
O	-0.2186595275	-0.1780590255	 0.7908983141	-0.234762
C	 1.0499818457	-0.6040924148	 0.3532324527	-0.075573
C	 1.1312886889	-2.1253846202	 0.4937682315	 0.088702
O	 2.3497785344	-2.6076773802	-0.0540540344	-0.428318
C	 0.932738983	-2.5842733447	 1.9424795526	-0.296039
C	 0.9539929254	-4.0912319537	 2.0586503816	 0.166015
O	 1.6393372767	-4.7110959352	 2.8295365837	-0.241888
H	-0.3022212621	 1.5700111486	-0.3403153912	 0.109877
H	-1.4064519002	 1.440252082	 1.0558190603	 0.131254
H	 0.3296076557	 1.7628287028	 1.3166994834	 0.107902
H	 1.2220311019	-0.3346558032	-0.700759641	 0.102321
H	 1.8513008153	-0.1305940668	 0.9504207398	 0.077464
H	 0.3437433965	-2.5636187739	-0.1310632723	 0.106538
H	 3.0656353153	-2.3706556868	 0.5464963239	 0.286804
H	 1.7050797006	-2.1678684395	 2.6004296957	 0.107418
H	-0.0413313794	-2.2144425132	 2.2876516011	 0.143971
H	 0.2601217291	-4.6131868491	 1.3590856606	 0.074737
59.7847	69.5946	94.6965	117.524	169.7017	211.9394	236.367	303.6551	326.9262	402.4305	464.8893	520.5223	536.0478	769.575	902.7999	966.2425	997.6941	1015.5304	1079.4454	1108.6243	1142.6822	1169.4464	1181.9846	1187.6286	1227.2357	1237.9658	1281.7418	1316.0782	1374.6979	1408.4132	1419.0157	1430.7939	1457.2939	1480.7394	1486.3422	1502.8674	1525.4751	1837.7932	2862.1614	2935.9729	2976.1048	2997.7093	3022.6287	3029.9223	3048.39	3084.4642	3118.2126	3798.0235
COCC(O)CC=O	COC[C@@H](O)CC=O	
InChI=1S/C5H10O3/c1-8-4-5(7)2-3-6/h3,5,7H,2,4H2,1H3	InChI=1S/C5H10O3/c1-8-4-5(7)2-3-6/h3,5,7H,2,4H2,1H3/t5-/m0/s1
