20
gdb 66220	4.25212	0.63827	0.619	5.066	80.1	-0.2725	0.0345	0.3069	1818.0859	0.169161	-403.153521	-403.143547	-403.142603	-403.189556	35.458	
C	 0.2913415918	 1.5480316379	-0.4035740012	-0.464718
C	 0.0135387997	 0.0802020382	-0.1574890513	 0.423914
C	-1.416275844	-0.3986176581	-0.3507209626	-0.270768
C	-2.3942980734	 0.2055081496	 0.6657710212	-0.180074
C	-3.8091365479	-0.3868667837	 0.5137879697	-0.3428
C	-4.7652392833	 0.1910724782	 1.4557924254	 0.25669
N	-5.5091365232	 0.6607308646	 2.2050245758	-0.303179
C	 1.1114944228	-0.8910197566	-0.28157818	-0.230187
O	 0.6559184656	-0.4672586879	 1.0058858734	-0.27424
H	 1.347664912	 1.7691969094	-0.2345925283	 0.131556
H	 0.0371847706	 1.8245439467	-1.432570371	 0.12192
H	-0.294954408	 2.1812542771	 0.2695459551	 0.133003
H	-1.7427857589	-0.160828287	-1.3720650245	 0.102576
H	-1.4309809171	-1.4905825484	-0.257552721	 0.105702
H	-2.0271123008	 0.0136180096	 1.6788282118	 0.140765
H	-2.4531537898	 1.2920927787	 0.5479736143	 0.122647
H	-4.1843074952	-0.221785692	-0.503428704	 0.150199
H	-3.7848142435	-1.4724199554	 0.6656862506	 0.153609
H	 0.8946301609	-1.9276873647	-0.5375930146	 0.110291
H	 2.1066988517	-0.5468477563	-0.5610395289	 0.113094
45.1748	83.4273	92.5263	107.8118	192.4825	220.605	275.8684	358.0182	367.5182	398.753	421.4231	477.1541	571.4256	729.5727	740.1055	826.3938	855.6851	908.9108	926.3199	957.0331	998.7861	1030.4836	1051.0342	1086.2853	1113.1516	1136.0287	1160.5791	1186.3723	1263.3902	1270.3229	1308.6607	1328.8564	1351.6519	1386.2189	1409.6821	1427.1382	1467.8004	1470.7879	1488.1747	1498.9662	1503.0012	1532.8805	2363.0663	3019.022	3036.1734	3039.7537	3054.8946	3063.6827	3071.436	3078.1488	3102.8931	3107.1052	3127.1889	3163.1467
CC1(CCCC#N)CO1	C[C@@]1(CCCC#N)CO1	
InChI=1S/C7H11NO/c1-7(6-9-7)4-2-3-5-8/h2-4,6H2,1H3	InChI=1S/C7H11NO/c1-7(6-9-7)4-2-3-5-8/h2-4,6H2,1H3/t7-/m1/s1
