18
gdb 19877	3.37192	2.12214	1.94492	1.3235	70.02	-0.2326	0.0813	0.3139	800.615	0.155243	-347.762644	-347.755883	-347.754938	-347.793192	27.349	
C	-0.0568603918	 1.5798847908	-0.0315863965	-0.427981
C	 0.0492864028	 0.0697823305	 0.0545786382	-0.034646
C	 1.3111572237	-0.6966146269	-0.2508827012	 0.067111
O	 2.5366669453	-0.0054421943	-0.1393595544	-0.263066
C	 2.9455825189	 0.0625269408	 1.2110630806	 0.103232
C	 2.3071568719	 1.0822784393	 2.1165488442	-0.328491
C	 1.789867738	-0.3462298997	 2.0867978188	-0.070386
C	 0.707118869	-0.7975856303	 1.1317854422	-0.105865
H	 0.9221535081	 2.0433881636	-0.1683928751	 0.14066
H	-0.6648338528	 1.8497491093	-0.9012631917	 0.113249
H	-0.5344343688	 2.0195851681	 0.8499606586	 0.1201
H	-0.8344341492	-0.4340527198	-0.3336640355	 0.08636
H	 1.3358855847	-1.4929023618	-0.9892729375	 0.09086
H	 3.9761476676	-0.2434430639	 1.3622885683	 0.096145
H	 2.87981995	 1.3595925927	 2.9965379354	 0.10997
H	 1.7206525153	 1.8852884855	 1.6983011365	 0.124017
H	 1.9368126228	-0.9612891634	 2.9666897951	 0.090147
H	 0.1549683545	-1.6798402006	 1.4343272939	 0.088584
158.2793	188.1289	247.0742	287.5841	406.7871	515.5613	624.7266	672.7459	703.9989	728.6422	752.824	791.2911	829.2527	883.0026	923.2944	961.8101	983.3709	1014.8243	1034.6586	1056.4876	1065.9337	1090.4697	1097.436	1103.2913	1118.726	1142.6785	1163.5304	1206.427	1241.2298	1304.596	1348.5849	1358.579	1380.6463	1411.9605	1427.6968	1472.8404	1500.811	1514.4465	3037.1883	3092.1483	3111.9676	3127.8525	3142.2399	3144.0085	3154.8637	3168.7367	3183.5471	3266.9916
CC1C2OC3CC3C12	C[C@H]1[C@H]2O[C@H]3C[C@H]3[C@@H]12	
InChI=1S/C7H10O/c1-3-6-4-2-5(4)8-7(3)6/h3-7H,2H2,1H3	InChI=1S/C7H10O/c1-3-6-4-2-5(4)8-7(3)6/h3-7H,2H2,1H3/t3-,4-,5+,6-,7-/m1/s1
