23
gdb 117827	2.42577	0.9136	0.8204	1.9912	77.22	-0.2577	0.047	0.3047	1519.9274	0.203621	-462.546368	-462.535136	-462.534192	-462.582565	41.19	
C	-0.089502712	 1.5526711954	 0.0626514274	-0.437157
C	-0.0637341082	 0.0175970175	-0.0371633351	 0.207201
C	 0.7701277645	-0.5745908381	 1.1245929834	-0.108511
O	 0.0789490157	-0.626045436	 2.3706361674	-0.432562
C	-1.5145676325	-0.5130124185	 0.0734753337	-0.074729
O	-1.5819560775	-1.9116132436	 0.2864564837	-0.434166
C	 0.6005975466	-0.4691682592	-1.3458638795	-0.231336
C	 0.1471770103	 0.2077956112	-2.6425513991	-0.075777
O	 0.8067754776	-0.3307542251	-3.7790187684	-0.417868
H	 0.9005430192	 1.9818653093	-0.1244881967	 0.120188
H	-0.7873467833	 1.9963374552	-0.6546487616	 0.125691
H	-0.4120029075	 1.8805149128	 1.0588502434	 0.094724
H	 1.0188015054	-1.6150832505	 0.8993071445	 0.117255
H	 1.7169841872	-0.0229291709	 1.2204607565	 0.095724
H	-0.0863928977	 0.2742932558	 2.6672486722	 0.288272
H	-2.0378482333	 0.028795513	 0.8737036919	 0.078981
H	-2.0582593683	-0.3121901633	-0.855522482	 0.104358
H	-1.3274226385	-2.0490147673	 1.2068167818	 0.295056
H	 1.6898352103	-0.3497594338	-1.2749646615	 0.097644
H	 0.4069513602	-1.5475347958	-1.4268516909	 0.105055
H	-0.9462480657	 0.143649707	-2.7559520356	 0.090224
H	 0.4068264896	 1.2708734714	-2.6367656083	 0.110592
H	 0.5849678581	-1.2663033766	-3.8281936374	 0.281141
78.1673	93.898	100.5437	139.5565	174.7535	232.8834	267.1026	294.8191	310.2517	313.388	334.9415	355.9784	368.6311	400.022	501.1206	538.6566	613.449	775.3703	788.076	887.9694	906.6658	945.5079	975.1321	1004.3916	1055.0987	1063.2994	1076.9297	1084.5152	1124.6013	1153.3163	1185.9966	1231.8269	1255.1477	1274.522	1332.669	1338.5295	1373.7494	1395.7354	1408.5204	1417.	1420.7444	1427.5496	1432.3999	1482.3428	1495.5996	1498.5054	1500.7794	1509.8092	1516.2985	2980.9308	2997.9708	3003.5359	3012.0455	3021.8504	3049.4851	3072.4069	3080.3075	3085.5759	3093.4266	3102.5864	3787.9693	3812.0916	3822.4826
CC(CO)(CO)CCO	CC(CO)(CO)CCO	
InChI=1S/C6H14O3/c1-6(4-8,5-9)2-3-7/h7-9H,2-5H2,1H3	InChI=1S/C6H14O3/c1-6(4-8,5-9)2-3-7/h7-9H,2-5H2,1H3
