22
gdb 105259	1.87117	1.46723	1.02028	1.7079	82.44	-0.246	0.0746	0.3207	1299.2611	0.192743	-404.303888	-404.293838	-404.292894	-404.339397	36.787	
C	-0.1391745689	 1.4443555785	-0.7060145193	-0.387976
C	-0.0363533111	 0.1894844904	 0.1704723948	-0.237474
C	-1.3650729644	-0.5363048058	 0.3311305337	 0.281659
N	-1.8565079189	-1.2386688657	-0.8759544839	-0.376918
C	-1.4716954888	-2.0265335943	 0.3116418776	-0.041386
C	-0.3078113414	-2.9786565178	 0.169535187	-0.402965
C	-2.3899774557	 0.2576000003	 1.1000011905	-0.000786
C	-3.1471881582	-0.2425736863	 2.2576885203	-0.180222
O	-2.0453359336	 0.6457607041	 2.4345365676	-0.230822
H	 0.8457995284	 1.8989826998	-0.8477397837	 0.11181
H	-0.5417737018	 1.1885643584	-1.6908810751	 0.128988
H	-0.7875078024	 2.2042942375	-0.2580696552	 0.118022
H	 0.6960077869	-0.4914491951	-0.2697589602	 0.100178
H	 0.3293822691	 0.4539380106	 1.1692572254	 0.11403
H	-2.8705110565	-1.1687669275	-0.9373354178	 0.224845
H	-2.2943730779	-2.4371014852	 0.8940678998	 0.076111
H	 0.4505583157	-2.5898268059	-0.5120805965	 0.131567
H	 0.1598216555	-3.1738142812	 1.1406869958	 0.119169
H	-0.6544058735	-3.9356394176	-0.2352771243	 0.119763
H	-2.8472877425	 1.0679675481	 0.5269151063	 0.099703
H	-4.1280595779	 0.1780062753	 2.4786081747	 0.113732
H	-2.9875663519	-1.2560319406	 2.6192082327	 0.118973
45.9046	77.0759	135.9345	157.2866	203.3181	211.2592	228.0825	297.6902	325.904	432.9232	469.5039	494.8336	557.1482	667.9415	770.3832	816.3341	853.1063	869.1844	893.2736	962.1241	981.9255	1008.7009	1039.4968	1044.4789	1085.2599	1096.3689	1103.67	1117.3403	1147.5832	1166.218	1176.1883	1244.5745	1270.447	1299.1431	1316.876	1343.1955	1378.3531	1405.2699	1407.2914	1428.8287	1460.3159	1476.1084	1490.3568	1499.1876	1502.4074	1509.5318	1525.9549	3037.0302	3038.1886	3049.4274	3075.3297	3086.3724	3092.707	3095.991	3109.2236	3116.2466	3117.8474	3139.0657	3174.8514	3477.9932
CCC1(NC1C)C1CO1	CC[C@]1(N[C@H]1C)[C@H]1CO1	
InChI=1S/C7H13NO/c1-3-7(5(2)8-7)6-4-9-6/h5-6,8H,3-4H2,1-2H3	InChI=1S/C7H13NO/c1-3-7(5(2)8-7)6-4-9-6/h5-6,8H,3-4H2,1-2H3/t5-,6+,7+/m0/s1
