23
gdb 37352	2.42681	1.80578	1.66841	0.1719	86.19	-0.2525	0.0754	0.3279	993.5728	0.211571	-351.15846	-351.151546	-351.150601	-351.1892	30.593	
C	-0.0101979695	 1.5140367416	 0.1327773316	-0.297512
C	 1.3048787386	 0.7852344237	 0.0223373197	-0.030385
C	 0.0036730775	 0.0100242427	 0.0303234155	-0.030377
C	-0.0878924161	-0.6877385999	-1.346230678	-0.011192
C	 1.4121949422	-0.8921901927	-1.6757106156	-0.214639
C	 1.9496191749	 0.5260212805	-1.3587200383	-0.011195
C	 1.5028648349	 1.5065038281	-2.4766893635	-0.215159
C	 0.2817009263	 0.9890758072	-3.2792801864	-0.19118
C	-0.7474642496	 0.1660578909	-2.462826789	-0.215162
H	-0.2543097523	 1.9337432837	 1.1041342053	 0.101786
H	-0.3733171481	 2.1149720373	-0.6930248743	 0.109647
H	 1.9627106158	 0.7868047319	 0.8848386583	 0.075565
H	-0.3030626565	-0.563056146	 0.8987387321	 0.075561
H	-0.6279074486	-1.6326606283	-1.2450178444	 0.05836
H	 1.8527898043	-1.6247691035	-0.9913751215	 0.085981
H	 1.6068165572	-1.2294448015	-2.6998749312	 0.083117
H	 3.0385466193	 0.5514490554	-1.2674643409	 0.058361
H	 1.2969482857	 2.4891264647	-2.0409296136	 0.101251
H	 2.33013609	 1.6587652843	-3.1784175308	 0.088664
H	-0.2192857621	 1.8249697775	-3.7790715843	 0.088082
H	 0.65757137	 0.3497379973	-4.0851447742	 0.100507
H	-1.281704721	-0.4926015446	-3.1561800892	 0.088661
H	-1.509429673	 0.8174460898	-2.0235742574	 0.101255
161.4946	256.494	338.2142	354.7892	430.7866	500.2466	519.748	536.6113	676.7624	713.8003	724.4138	770.6154	804.8906	857.7077	865.2592	880.1973	881.5083	909.2323	947.9539	980.2734	1003.9596	1027.944	1033.992	1053.3344	1079.6517	1083.1127	1093.1653	1111.1085	1128.8131	1138.2707	1198.0936	1202.2098	1206.1632	1254.6704	1262.708	1305.3324	1312.4582	1324.047	1335.5992	1347.9839	1363.9169	1374.1495	1383.4247	1384.1997	1481.7703	1487.9213	1501.633	1506.2285	1520.4185	3028.3606	3037.422	3037.5705	3044.2314	3057.58	3065.5266	3071.1765	3076.235	3081.1799	3088.9248	3131.6248	3154.266	3164.2985	3213.3802
C1C2C1C1CC2CCC1	C1[C@H]2[C@@H]1[C@@H]1C[C@H]2CCC1	
InChI=1S/C9H14/c1-2-6-4-7(3-1)9-5-8(6)9/h6-9H,1-5H2	InChI=1S/C9H14/c1-2-6-4-7(3-1)9-5-8(6)9/h6-9H,1-5H2/t6-,7+,8-,9+
