16
gdb 34590	4.55998	1.00261	0.8844	4.4408	77.79	-0.2679	-0.0455	0.2224	1268.8865	0.124676	-400.759539	-400.751789	-400.750845	-400.792301	29.11	
N	 0.0346806123	-1.1424004009	-0.0093825237	-0.331961
C	-0.0138947682	 0.0144883569	 0.0271248518	 0.204365
C	-0.0315698859	 1.4350056672	 0.0700376758	 0.195088
C	-1.1336257585	 2.1989153478	 0.0445471156	-0.153244
C	-0.8083421665	 3.6650303462	 0.0784367086	-0.340233
C	 0.70449845	 3.682397084	 0.3295196663	 0.416066
C	 1.5347643316	 4.8839111129	 0.2248525011	-0.2485
O	 1.1466920347	 4.3681308736	 1.5024320399	-0.259515
C	 1.2400426713	 2.2608306855	 0.1258164714	-0.39315
H	-2.1448853061	 1.8148494695	-0.0088616777	 0.126507
H	-1.0787434384	 4.1504758824	-0.869167806	 0.129539
H	-1.3347162762	 4.2041564082	 0.8739452771	 0.141463
H	 2.5933012528	 4.7910668118	-0.0160976573	 0.118314
H	 1.0797787241	 5.833717173	-0.0549151323	 0.116547
H	 1.8986783672	 1.9758884365	 0.9518845409	 0.146471
H	 1.8151161958	 2.1594401352	-0.8024910116	 0.132243
56.1984	147.6728	164.5934	307.7079	359.4794	385.7614	395.1824	456.3302	566.9556	573.9741	601.445	788.3583	811.9072	859.2544	874.218	906.9908	956.1097	962.7221	995.6679	1040.5119	1126.5843	1143.9317	1160.8489	1175.7742	1207.3555	1222.9412	1274.6749	1294.1853	1322.7651	1427.2145	1462.9216	1473.5502	1535.3382	1674.6118	2339.1816	3019.8557	3037.4658	3069.6309	3077.8469	3088.7819	3163.2059	3216.8384
N#CC1=CCC2(CO2)C1	N#CC1=CC[C@]2(CO2)C1	
InChI=1S/C7H7NO/c8-4-6-1-2-7(3-6)5-9-7/h1H,2-3,5H2	InChI=1S/C7H7NO/c8-4-6-1-2-7(3-6)5-9-7/h1H,2-3,5H2/t7-/m1/s1
