18
gdb 24597	4.86256	0.96727	0.91398	2.8058	79.05	-0.2018	0.0372	0.239	1297.0328	0.150107	-401.958481	-401.950662	-401.949717	-401.992094	29.254	
C	 0.0850283511	 1.5688874532	-0.0421871008	-0.078719
O	 1.5201737628	 1.4773437629	 0.0334490613	-0.272465
C	 1.4554349007	 0.0702993227	 0.333079683	-0.078717
C	-0.06819221	 0.0241497478	 0.0306956474	-0.157999
C	-0.9966190644	-0.5760305247	 1.0243837229	 0.30628
C	-1.1437884077	-0.3703874217	 2.3828694154	-0.226654
C	-2.1914567158	-1.2134956675	 2.8422780962	-0.134782
C	-2.6606716117	-1.9145922065	 1.7559709148	-0.100699
N	-1.9309482683	-1.5207913489	 0.6636965129	-0.299565
H	-0.343601075	 2.0913532717	 0.8229322077	 0.104867
H	-0.2513213811	 2.0581382862	-0.9636015172	 0.101923
H	 2.1087592301	-0.5226945558	-0.3173260482	 0.101923
H	 1.6988678287	-0.1421598	 1.3822346999	 0.104867
H	-0.2586639292	-0.3982181006	-0.9604194416	 0.069089
H	-0.5599049737	 0.3133349628	 2.9808302083	 0.095293
H	-2.558159025	-1.2955479691	 3.853875668	 0.093372
H	-3.4422633658	-2.6516633437	 1.6668871581	 0.115404
H	-2.0558213156	-1.8690955388	-0.2712124582	 0.256583
35.5949	83.4296	142.4113	226.2027	374.8132	376.2327	490.1186	601.8388	630.0166	683.9506	715.5269	798.7017	828.8701	856.2795	884.8733	890.89	916.8703	982.1898	1005.0732	1037.0663	1048.335	1056.5102	1101.3359	1123.1832	1144.4639	1156.0268	1168.6103	1232.3926	1245.3369	1288.1697	1301.3755	1357.0689	1388.441	1445.5851	1475.7746	1489.4754	1512.5834	1539.4302	1609.0853	3006.8064	3018.1189	3048.5294	3061.658	3073.2826	3238.6642	3252.3228	3272.1476	3673.6902
C1OCC1C1=CC=CN1	C1OCC1c1ccc[nH]1	
InChI=1S/C7H9NO/c1-2-7(8-3-1)6-4-9-5-6/h1-3,6,8H,4-5H2	InChI=1S/C7H9NO/c1-2-7(8-3-1)6-4-9-5-6/h1-3,6,8H,4-5H2
