17
gdb 26856	2.98148	1.38562	0.95409	4.9679	81.79	-0.1896	-0.0319	0.1577	1189.2148	0.137581	-418.082125	-418.073609	-418.072665	-418.11516	32.089	
C	 0.0724743213	 1.5412490887	 0.0608133238	-0.50734
C	-0.0277686467	 0.0468785569	 0.0166934187	 0.372956
C	-1.2157600693	-0.6379769883	 0.0532119796	 0.139422
N	-2.4518437287	 0.0583070333	 0.1585661784	-0.606178
C	-1.1582928198	-2.0627617312	 0.0368115724	-0.086458
C	 0.0161296901	-2.7493078862	-0.0225068714	-0.267021
C	 1.2886508562	-2.0620585734	-0.0985621437	 0.415709
O	 2.401678573	-2.5632780683	-0.1732808101	-0.412181
N	 1.1401629441	-0.664735323	-0.0773351593	-0.42853
H	 0.9697822956	 1.860002873	 0.6013970686	 0.133206
H	 0.1217838648	 1.9797468692	-0.9444130934	 0.139487
H	-0.8051553957	 1.9530548412	 0.5643252564	 0.159332
H	-2.6492023182	 0.6356146612	-0.6510859416	 0.244948
H	-3.225829946	-0.5828886404	 0.2783091153	 0.240112
H	-2.0967229689	-2.6121840604	 0.0773366081	 0.097122
H	 0.048174889	-3.8314825005	-0.0263493361	 0.11349
H	 2.0180576091	-0.1646358218	-0.1186306857	 0.251923
102.3153	127.4121	172.5605	188.4685	296.7644	317.7819	349.1165	433.3123	478.7817	507.5387	576.6917	586.8969	694.6321	734.9043	750.1398	767.5386	816.9257	851.3017	919.5474	983.135	1028.4137	1057.9978	1085.4035	1169.2491	1207.5	1235.0972	1285.8489	1339.4475	1410.4096	1454.4479	1457.9225	1483.2724	1500.0642	1592.7238	1653.8462	1679.2112	1777.3155	3021.6841	3080.1598	3128.6826	3147.1372	3217.8761	3517.5929	3597.6546	3606.3553
CC1=C(N)C=CC(=O)N1	Cc1c(N)ccc(=O)[nH]1	
InChI=1S/C6H8N2O/c1-4-5(7)2-3-6(9)8-4/h2-3H,7H2,1H3,(H,8,9)	InChI=1S/C6H8N2O/c1-4-5(7)2-3-6(9)8-4/h2-3H,7H2,1H3,(H,8,9)
