15
gdb 18392	3.45628	2.4497	1.6169	1.6352	62.25	-0.2346	0.0167	0.2514	775.7613	0.12103	-399.776589	-399.770262	-399.769318	-399.807062	24.429	
C	-0.0907780476	 1.3943647087	 0.1660455315	-0.313152
C	 1.3488207238	 0.9833954337	 0.0637705942	 0.062961
O	 2.0789794698	 0.9430130759	 1.2607524788	-0.230226
C	 2.6403024322	-0.2980840405	 1.5236132872	 0.0175
O	 1.7692870673	-1.1639696961	 2.2488695102	-0.217397
C	 0.5615538206	-1.5025358229	 1.7286740571	 0.126729
N	-0.1009825071	-1.0863884557	 0.7386850138	-0.259738
C	 0.2614149197	-0.0440774331	-0.1633893782	-0.001875
H	-0.45275082	 1.5790694386	 1.1712107851	 0.135461
H	-0.5203823984	 2.0213184416	-0.6066031775	 0.118891
H	 1.9379176733	 1.3134029931	-0.7905860987	 0.096118
H	 2.9553509734	-0.8014483159	 0.5990817658	 0.104734
H	 3.4912428225	-0.1481004189	 2.1905058081	 0.127119
H	 0.1315312548	-2.2820751763	 2.3565655583	 0.126522
H	 0.0936648156	-0.3335135723	-1.1974490157	 0.106355
108.3047	239.8448	299.7175	362.0868	429.9366	479.89	571.8376	696.7168	752.1416	776.5703	812.6818	870.3831	934.0421	958.305	1002.5008	1034.0506	1056.6388	1081.4153	1098.4237	1128.4937	1161.6114	1175.892	1216.4171	1252.7861	1323.691	1372.4165	1392.4309	1435.1597	1452.4722	1472.3595	1508.1724	1761.6889	3009.4207	3111.7519	3121.246	3137.8532	3142.2308	3148.467	3236.0035
C1C2OCOC=NC12	C1[C@H]2OCOC=N[C@@H]12	
InChI=1S/C5H7NO2/c1-4-5(1)8-3-7-2-6-4/h2,4-5H,1,3H2	InChI=1S/C5H7NO2/c1-4-5(1)8-3-7-2-6-4/h2,4-5H,1,3H2/t4-,5+/m0/s1
