20
gdb 41747	3.53179	1.58691	1.45997	0.3894	77.65	-0.2077	0.088	0.2957	977.9785	0.175294	-403.116169	-403.109537	-403.108593	-403.146763	28.15	
C	 0.0052937226	 1.553412306	-0.0136846737	-0.224903
C	 1.5584765504	 1.750646781	-0.0385497728	-0.224058
C	 1.9610386302	 0.2746827119	-0.0059262722	-0.017517
C	 1.0225476496	-0.3965987235	-1.0437869375	 0.151969
O	 1.2347895014	-1.7849435501	-1.1781857244	-0.282382
C	 0.9113208121	-2.5125090077	 0.0013290561	-0.080733
C	 1.254595692	-1.7061417929	 1.2656719277	-0.18293
N	 1.0423354105	-0.2599579094	 1.0850410922	-0.132393
C	-0.025061708	 0.0220105998	 0.0335885329	-0.042581
H	-0.4577780497	 1.9881699386	 0.8741486685	 0.109977
H	-0.4953026815	 1.952745586	-0.8999695831	 0.098475
H	 1.9131627872	 2.2603299065	-0.9385973214	 0.097809
H	 1.9252704651	 2.2891690159	 0.8373089995	 0.109133
H	 3.0174314507	 0.0099349292	 0.0618119321	 0.066386
H	 0.9570402275	 0.0116351671	-2.0582988939	 0.072828
H	-0.1616434806	-2.7556925635	-0.0039477454	 0.094763
H	 1.4619789999	-3.4567466356	-0.0444156452	 0.106907
H	 0.6368391627	-2.0563681204	 2.1014972086	 0.101887
H	 2.3015204221	-1.8504184172	 1.555781666	 0.107143
H	-0.9940664943	-0.4663460219	 0.1430638859	 0.070218
213.5243	254.5306	301.7383	315.5058	366.9753	479.4596	541.322	665.4126	681.7999	766.9218	804.5055	837.3327	863.281	902.1872	921.7973	937.8217	949.5601	958.5052	986.4141	996.6177	1029.2692	1055.351	1084.4713	1138.1737	1152.9886	1173.86	1177.4025	1214.4705	1238.0164	1248.4402	1256.8616	1268.1843	1285.995	1296.6942	1315.2034	1323.4827	1364.1108	1381.0834	1415.9771	1479.1112	1491.499	1500.2832	1516.3726	2988.91	3025.634	3045.1647	3060.843	3064.4256	3069.7298	3082.4813	3106.7418	3109.4518	3114.3699	3124.784
C1CC2C3OCCN2C13	C1C[C@@H]2[C@H]3OCCN2[C@@H]13	
InChI=1S/C7H11NO/c1-2-6-7-5(1)8(6)3-4-9-7/h5-7H,1-4H2	InChI=1S/C7H11NO/c1-2-6-7-5(1)8(6)3-4-9-7/h5-7H,1-4H2/t5-,6+,7-
