17
gdb 13966	4.93001	1.40432	1.31244	3.6092	69.96	-0.2395	0.0278	0.2672	972.8277	0.142994	-363.857547	-363.850082	-363.849138	-363.889753	27.977	
O	 0.0892452259	 0.5395041282	 1.5155995487	-0.310066
C	 0.0507371295	 1.3778387818	 0.6449065732	 0.133577
N	 1.0857667577	 1.7342048137	-0.1764492356	-0.390995
C	 2.3667096519	 1.1234723004	-0.1869144189	 0.41205
C	 3.1369347297	 0.9075280332	 1.0775727017	-0.274828
C	 3.756548767	 1.7564149126	 0.0012754715	-0.122959
C	 4.3244780541	 0.8569108079	-1.1033374499	-0.219601
C	 2.9055649785	 0.2284714127	-1.3125380001	-0.279506
H	-0.8554475769	 1.9786660976	 0.4220809002	 0.069363
H	 0.8772118372	 2.4071308452	-0.899509548	 0.242708
H	 2.751375294	 1.4449714968	 1.9356952023	 0.129993
H	 3.5355541574	-0.0774458045	 1.3093211244	 0.111119
H	 4.0151904846	 2.7942844692	 0.1741086004	 0.089475
H	 4.6707938802	 1.4062797555	-1.9813052786	 0.102831
H	 5.1153625195	 0.1698573079	-0.7871965122	 0.102782
H	 2.8001201786	-0.8505552051	-1.1611360541	 0.10573
H	 2.486222691	 0.486865287	-2.288690255	 0.098327
47.6777	149.0422	202.2553	241.4135	363.2487	400.0551	438.6311	546.4869	591.244	713.7655	788.4325	811.5668	852.2481	917.3484	933.008	960.8682	973.5334	1019.7166	1025.1145	1031.9555	1094.5016	1106.5981	1135.8972	1177.6949	1215.841	1221.8855	1237.5016	1275.8584	1297.9698	1395.6149	1439.6239	1481.5384	1485.718	1508.9454	1519.7579	1817.2339	2917.104	3045.8114	3056.0524	3093.4735	3113.5883	3116.619	3183.946	3221.7581	3599.081
O=CNC12CC1CC2	O=CN[C@]12C[C@H]1CC2	
InChI=1S/C6H9NO/c8-4-7-6-2-1-5(6)3-6/h4-5H,1-3H2,(H,7,8)	InChI=1S/C6H9NO/c8-4-7-6-2-1-5(6)3-6/h4-5H,1-3H2,(H,7,8)/t5-,6-/m1/s1
