13
gdb 17033	4.49353	1.60545	1.35795	2.6902	58.39	-0.2821	0.0057	0.2878	863.9053	0.095619	-398.532688	-398.526238	-398.525294	-398.563349	24.623	
O	 0.0976569533	 1.4845422915	-0.050363604	-0.435223
C	 0.0920076573	 0.1053353904	-0.0608252891	 0.177081
C	 0.017998418	-0.641490915	 1.3077797256	-0.007207
O	-1.3714321345	-0.1349028836	 1.4473915205	-0.332101
C	-1.2822584123	-0.6266127801	 0.0484952459	-0.007207
C	-0.5687528703	-1.8954696538	 0.597794534	-0.14452
C	 0.259598175	-2.7165441705	-0.2672074922	 0.270338
N	 0.9178140415	-3.3727509304	-0.9545913784	-0.326845
H	-0.5492542511	 1.7475852322	 0.6207049254	 0.293463
H	 0.8066734614	-0.2524739259	-0.8029708434	 0.126009
H	 0.6633621652	-0.6001392903	 2.1842489696	 0.121023
H	-2.1783425163	-0.5676213793	-0.5679104182	 0.121023
H	-1.2072794972	-2.4910066852	 1.2500603745	 0.144167
135.4126	173.4026	296.9272	361.5702	436.0316	530.9736	540.9541	580.0936	685.4682	750.9811	807.1345	861.3695	886.5315	912.4106	920.4913	1033.6388	1034.4338	1118.9509	1132.7814	1163.7187	1177.6841	1189.7392	1235.8575	1256.0628	1323.8995	1343.6908	1458.3169	2356.6651	3123.0143	3126.8478	3135.6685	3142.4156	3738.6823
OC1C2OC1C2C#N	O[C@H]1[C@H]2O[C@@H]1[C@H]2C#N	
InChI=1S/C5H5NO2/c6-1-2-4-3(7)5(2)8-4/h2-5,7H	InChI=1S/C5H5NO2/c6-1-2-4-3(7)5(2)8-4/h2-5,7H/t2-,3-,4-,5+
