21
gdb 119617	4.00228	0.9546	0.87243	2.3694	79.58	-0.2487	0.0814	0.3301	1407.8505	0.182745	-424.20561	-424.196673	-424.195729	-424.239744	33.126	
C	-0.0453244584	 1.3657699787	-0.1276308949	-0.220623
O	-0.0354959148	-0.037814273	-0.2227077137	-0.237219
C	-1.2709254889	-0.6218594045	 0.1448058117	-0.171526
C	-1.139450557	-2.1131646289	 0.0647391213	 0.336799
C	-1.3932134904	-2.8591160019	-1.221362043	-0.320971
C	-2.3285000267	-3.0416278023	-0.0532879214	-0.121769
C	-2.022182034	-4.2109748278	 0.8656756586	-0.090656
O	-0.6134957157	-4.1750107365	 1.0711811841	-0.257221
C	-0.1934637495	-2.813745104	 1.0296921994	-0.136993
H	 0.9450434752	 1.7214911273	-0.4218226157	 0.127964
H	-0.79725976	 1.8163971221	-0.7954688077	 0.102111
H	-0.2549346005	 1.706235722	 0.8992944667	 0.102557
H	-1.5396251049	-0.3150012722	 1.1719171821	 0.083445
H	-2.0779567352	-0.2692425626	-0.5201145374	 0.08288
H	-1.7547697427	-2.2797753191	-2.0638963467	 0.110809
H	-0.7287952647	-3.6774997635	-1.4803168749	 0.122983
H	-3.3437584119	-2.6645042217	-0.1050483758	 0.08757
H	-2.5701047486	-4.0991505672	 1.8161898448	 0.088868
H	-2.263052693	-5.1923755997	 0.4433763961	 0.108652
H	 0.8543709264	-2.8032001201	 0.7169586995	 0.118118
H	-0.2638747546	-2.3418916251	 2.0248370373	 0.084222
65.1559	98.6531	117.1244	222.8213	237.9243	270.3106	328.9771	345.7463	396.9493	421.0816	649.8289	695.523	747.5724	857.1882	908.391	922.7444	937.8554	956.1925	972.6546	1006.271	1045.4048	1052.5582	1080.9721	1102.0078	1115.9797	1126.0283	1152.9709	1182.7125	1214.5494	1223.9444	1240.9864	1253.2383	1272.4249	1321.5568	1357.4501	1372.3859	1407.5264	1434.3443	1479.8089	1484.801	1488.2145	1501.3701	1509.2547	1520.254	1523.3615	2935.959	2957.6847	2965.5766	2967.9276	2971.3145	3008.4639	3066.2105	3086.168	3114.2358	3128.2303	3174.1754	3216.9028
COCC12CC1COC2	COC[C@]12C[C@H]1COC2	
InChI=1S/C7H12O2/c1-8-4-7-2-6(7)3-9-5-7/h6H,2-5H2,1H3	InChI=1S/C7H12O2/c1-8-4-7-2-6(7)3-9-5-7/h6H,2-5H2,1H3/t6-,7-/m0/s1
