20
gdb 69954	3.53758	1.48313	1.30201	0.8223	77.73	-0.227	0.0814	0.3084	1042.596	0.172737	-403.115713	-403.10822	-403.107276	-403.147204	30.513	
C	 0.0627865549	 1.5547453857	 0.1342133346	-0.478776
C	-0.0074558916	 0.0590592025	-0.0492853609	 0.34772
C	-0.9627846161	-0.7756231531	 0.718702554	-0.300723
N	 0.4749829477	-0.8014306821	 1.0663980953	-0.147737
C	 1.253165201	-1.9145516572	 0.5021733595	-0.031345
C	 0.5492445004	-3.2751242689	 0.3928468089	-0.097329
O	 0.1737646925	-3.0041718214	-0.979651956	-0.29608
C	 1.0874755124	-1.87418011	-1.0367773087	 0.118232
C	 0.4550828098	-0.5283820386	-1.3862887312	-0.314482
H	 1.0735012175	 1.9294451205	-0.0642750712	 0.115906
H	-0.6241247177	 2.0636718026	-0.5517422406	 0.117602
H	-0.2077513886	 1.8311111814	 1.1564368604	 0.127548
H	-1.5901042181	-0.3209251521	 1.4814945753	 0.108196
H	-1.4030419347	-1.6291448116	 0.2117612261	 0.133717
H	 2.2576325857	-1.9011066831	 0.9284336777	 0.082842
H	 1.2299728493	-4.133383937	 0.4601197349	 0.102281
H	-0.3168056443	-3.4445371662	 1.0407931617	 0.112197
H	 1.9609131071	-2.1187919038	-1.6521350548	 0.07598
H	-0.3604152634	-0.6486214475	-2.1060595777	 0.121721
H	 1.2066869263	 0.1256949297	-1.8428506375	 0.102531
167.9267	187.1058	207.2011	284.8454	339.5212	387.7317	399.69	503.2178	587.7152	668.3492	716.1676	758.4817	815.87	850.2321	855.9592	911.6616	923.9522	957.1051	982.5418	1008.8267	1016.0401	1027.548	1064.6428	1095.4359	1114.2649	1139.9501	1164.7805	1180.7825	1199.0453	1227.4555	1258.7384	1273.2526	1309.3289	1335.5954	1348.3313	1361.2642	1391.3224	1419.1559	1470.7675	1487.2256	1493.4036	1510.3152	1519.5554	3018.4332	3027.2305	3032.7543	3049.0441	3077.8166	3087.3325	3092.7039	3094.0373	3105.5864	3118.5291	3197.0531
CC12CN1C1COC1C2	C[C@]12CN1[C@H]1CO[C@H]1C2	
InChI=1S/C7H11NO/c1-7-2-6-5(3-9-6)8(7)4-7/h5-6H,2-4H2,1H3	InChI=1S/C7H11NO/c1-7-2-6-5(3-9-6)8(7)4-7/h5-6H,2-4H2,1H3/t5-,6-,7-,8?/m0/s1
