18
gdb 50905	2.26595	1.15091	0.80211	3.3058	81.07	-0.2638	0.0173	0.2811	1420.2119	0.145201	-401.888908	-401.879281	-401.878337	-401.924543	34.276	
N	 0.0145419019	 1.2419265502	 0.1188438955	-0.439613
C	-0.1894693582	 0.0157017214	 0.3335288551	 0.130204
O	-0.648100164	-0.7708788118	-0.6632531964	-0.184684
C	-0.8608451272	-2.1581908683	-0.3400045828	-0.103676
C	-1.9794278419	-2.319307493	 0.5936311572	 0.35132
C	-2.8980602891	-2.4479343688	 1.3572553358	-0.460526
C	-1.0948138813	-2.8857876426	-1.6430332867	 0.025994
C	 0.0848748025	-3.2930699136	-2.4835299505	-0.273935
C	-0.7178164161	-4.3399939677	-1.7539499116	-0.266972
H	 0.3674896641	 1.6869006992	 0.9636667911	 0.228917
H	-0.0283652632	-0.5172262544	 1.2797589641	 0.093681
H	 0.0531462149	-2.5559929005	 0.1266319345	 0.104032
H	-3.7114295938	-2.561501804	 2.0311292033	 0.206333
H	-1.991055939	-2.5619236369	-2.1610363055	 0.108223
H	-0.0130525279	-3.2186925918	-3.560201578	 0.122595
H	 1.0767570769	-3.0590435512	-2.1115700581	 0.119344
H	-0.2672341984	-4.8169947386	-0.8896517146	 0.117519
H	-1.37105073	-4.9893813277	-2.3249359825	 0.121246
57.1186	72.3232	83.0615	138.2435	148.2946	221.01	312.1951	332.1212	431.6271	504.4177	508.7404	639.7061	672.7685	687.3748	770.1357	819.2238	836.3276	880.5041	918.8276	943.8494	998.918	1036.5483	1041.8578	1063.2548	1083.1146	1106.7209	1134.3745	1191.9747	1195.5289	1226.7816	1288.288	1303.853	1340.8592	1418.7157	1429.111	1474.0722	1509.1829	1746.5018	2236.5842	2986.9938	3034.0428	3135.807	3140.9068	3171.8526	3214.9483	3229.8414	3501.1766	3516.1322
N=COC(C#C)C1CC1	[NH][CH]O[C@@H](C#C)C1CC1	
InChI=1S/C7H9NO/c1-2-7(9-5-8)6-3-4-6/h1,5-8H,3-4H2	InChI=1S/C7H9NO/c1-2-7(9-5-8)6-3-4-6/h1,5-8H,3-4H2/t7-/m0/s1
