21
gdb 106320	2.9515	1.17451	1.04292	2.6231	78.58	-0.2315	0.0605	0.2921	1256.6286	0.181879	-424.198041	-424.188758	-424.187813	-424.23178	35.843	
C	-0.2375932683	 1.5097652926	 0.0040083382	-0.372844
C	 0.0878324218	 0.0108583775	-0.0641654222	-0.297914
C	 0.7881026648	-0.4860602337	 1.170296243	 0.323619
C	 2.2291338896	-0.1302453687	 1.5666848392	-0.336158
C	 2.4442915374	-1.6123429469	 2.0176320454	 0.10126
O	 2.7625267603	-1.8679900201	 3.386340112	-0.437654
C	 1.0000758313	-1.9445366783	 1.6846635968	-0.204087
C	 0.0813979469	-0.9937862936	 2.3950478002	 0.085252
O	 0.3080645875	-0.5080824364	 3.6854177518	-0.444489
H	 0.6728974374	 2.1072584437	 0.1203263608	 0.117953
H	-0.7420344569	 1.8451745454	-0.9074245212	 0.110055
H	-0.8889434602	 1.7306001098	 0.85547377	 0.126834
H	-0.8382067883	-0.5604820504	-0.2068948138	 0.097223
H	 0.7089127609	-0.1891315042	-0.9482755332	 0.092114
H	 2.8644939827	 0.1469268898	 0.7218212008	 0.097846
H	 2.3219027709	 0.6192472995	 2.3579244459	 0.104274
H	 3.1541303735	-2.1323540626	 1.363783337	 0.081178
H	 3.6441188808	-1.5233435349	 3.5644651406	 0.288458
H	 0.6613483679	-2.8903941583	 1.2769018913	 0.081642
H	-0.9739705584	-1.2052674715	 2.2292238253	 0.091535
H	 1.1027018282	-0.9481926585	 4.0180345622	 0.293904
77.9502	123.0975	186.5182	204.7743	224.9178	291.7591	328.0017	349.7207	394.4446	430.7708	479.0506	524.7763	595.58	691.5547	743.6199	788.1665	809.4233	860.0901	890.2468	961.602	985.883	995.635	1007.2276	1021.0429	1057.8632	1085.739	1103.7526	1155.0696	1168.4282	1208.1541	1232.5981	1239.2495	1275.7389	1303.6589	1329.2713	1344.1281	1360.7999	1400.2961	1410.1906	1430.1652	1462.116	1479.9494	1491.6081	1497.8201	1507.0624	3008.3062	3028.7418	3034.4582	3044.6099	3053.8813	3102.1407	3109.0951	3110.1352	3121.8321	3171.3499	3730.8127	3810.5612
CCC12CC(O)C1C2O	CC[C@]12C[C@@H](O)[C@H]1[C@H]2O	
InChI=1S/C7H12O2/c1-2-7-3-4(8)5(7)6(7)9/h4-6,8-9H,2-3H2,1H3	InChI=1S/C7H12O2/c1-2-7-3-4(8)5(7)6(7)9/h4-6,8-9H,2-3H2,1H3/t4-,5+,6-,7+/m1/s1
