19
gdb 12794	3.53632	1.99773	1.55736	1.6455	76.16	-0.2191	0.0088	0.2279	886.7376	0.167732	-327.92553	-327.918283	-327.917339	-327.95642	29.118	
C	-0.0418981283	 1.502876291	 0.0215789158	-0.446557
C	 0.0189478113	-0.0096353264	 0.0208725287	 0.319747
C	-1.1866057984	-0.6965168819	-0.6057038301	-0.263521
C	-1.1511304857	-2.236809455	-0.5509703047	-0.291912
C	-0.6790733751	-2.753813851	 0.7839072552	-0.083432
C	 0.1498806174	-2.0502240481	 1.5588346882	-0.039367
C	 0.6752385829	-0.7210881165	 1.1594801441	-0.087264
N	 1.3708614252	-0.5586684647	-0.153159205	-0.375143
H	 0.8528732184	 1.9215602517	 0.4883597686	 0.126265
H	-0.0987204602	 1.8902962375	-1.002391057	 0.115419
H	-0.9224839234	 1.8610246091	 0.5664030018	 0.112485
H	-2.0770197404	-0.3436094214	-0.0689838218	 0.10692
H	-1.303546878	-0.3653906526	-1.6448425371	 0.100562
H	-2.1485059669	-2.628861015	-0.7788769937	 0.106908
H	-0.5044356246	-2.6267931609	-1.3508798125	 0.112016
H	-1.019300299	-3.7365497779	 1.0974866491	 0.090648
H	 0.4771188031	-2.4449085909	 2.5165774698	 0.088397
H	 1.1298077437	-0.1296001659	 1.9499416692	 0.081956
H	 1.3409458178	-1.4490017812	-0.6456581885	 0.225871
173.2368	196.2109	219.8726	300.504	367.0997	383.2443	454.2839	494.2223	590.8986	661.7554	716.5501	754.8149	818.8998	837.3588	893.8266	937.9899	954.5657	986.1972	1011.9783	1033.6825	1051.1605	1067.0015	1104.4323	1134.282	1176.9297	1192.8123	1217.9878	1272.4216	1282.164	1336.4989	1352.9646	1380.2674	1411.6952	1419.2078	1441.6771	1480.5788	1488.973	1491.5594	1499.9425	1705.862	2995.1522	3017.3546	3028.8561	3053.2286	3059.9155	3088.6515	3121.8427	3136.6228	3157.9041	3179.932	3490.9792
CC12CCC=CC1N2	C[C@]12CCC=C[C@H]1N2	
InChI=1S/C7H11N/c1-7-5-3-2-4-6(7)8-7/h2,4,6,8H,3,5H2,1H3	InChI=1S/C7H11N/c1-7-5-3-2-4-6(7)8-7/h2,4,6,8H,3,5H2,1H3/t6-,7+/m1/s1
