25
gdb 68039	2.00206	1.62173	1.33716	0.0853	93.52	-0.2689	0.0805	0.3494	1186.4744	0.226989	-352.325032	-352.314652	-352.313707	-352.359614	40.164	
C	 0.8592484347	 0.8355534467	-0.0606034531	-0.517141
C	 0.3053308046	-0.5654576559	-0.0881126948	 0.309277
C	 0.4902284136	-1.6332782788	-1.2114758335	-0.315034
C	-0.3834534393	-2.3329541889	-0.1235819159	 0.309307
C	-0.9235920532	-3.7393111547	-0.152232544	-0.517146
C	 0.6292365499	-1.7298272726	 0.8996742831	-0.315032
C	-1.2159901488	-0.9925429932	-0.007461104	 0.293616
C	-1.9876987562	-0.7178676512	 1.2906079865	-0.474632
C	-2.1493179779	-0.6057632146	-1.1629904912	-0.474632
H	 1.9525781834	 0.8288121739	-0.1324920063	 0.116658
H	 0.4741415738	 1.4307421799	-0.8963564999	 0.116208
H	 0.5896981254	 1.3504515407	 0.8685172166	 0.116204
H	 0.0528488822	-1.4431542278	-2.1909458316	 0.084746
H	 1.5053867611	-2.0266828336	-1.3219035822	 0.079786
H	-0.1130461972	-4.4713358151	-0.2401978924	 0.116659
H	-1.4816016588	-3.9685244769	 0.7627125809	 0.116209
H	-1.5997091278	-3.8872754703	-1.0019483799	 0.116203
H	 1.647758412	-2.1255197878	 0.840115213	 0.079786
H	 0.324895026	-1.6321735776	 1.9411399789	 0.084745
H	-1.4424477087	-0.947890025	 2.2058667911	 0.113078
H	-2.2784366334	 0.3381772568	 1.3405298851	 0.11201
H	-2.9160516027	-1.3010538264	 1.3083527538	 0.112018
H	-3.0757331937	-1.1900325595	-1.1115560908	 0.112014
H	-2.4372842728	 0.448855728	-1.0786922731	 0.112013
H	-1.7301958963	-0.749068806	-2.1588354963	 0.113079
59.4583	163.4249	170.3589	198.3349	200.1579	208.034	214.0613	228.1733	377.1937	400.6493	436.4992	471.0927	532.7742	580.5479	590.5585	661.6796	676.1731	720.7549	779.6791	905.6087	913.8571	943.5734	958.831	992.8382	1004.0275	1010.6438	1011.929	1073.4476	1094.1793	1110.7233	1148.9879	1164.3029	1170.7353	1179.5853	1193.6352	1235.4887	1273.2271	1294.2565	1356.7399	1404.2343	1405.7113	1407.7784	1425.3581	1476.5471	1481.5428	1489.2888	1489.5577	1491.1786	1492.4591	1509.3165	1511.7107	1521.8144	1563.7772	3022.4647	3022.6334	3025.7567	3032.6564	3052.5375	3061.251	3073.9269	3080.6264	3088.6604	3088.7066	3089.6936	3089.9052	3118.2404	3122.6706	3144.9996	3145.6092
CC12CC(C)(C1)C2(C)C	C[C@@]12C[C@@](C)(C1)C2(C)C	
InChI=1S/C9H16/c1-7(2)8(3)5-9(7,4)6-8/h5-6H2,1-4H3	InChI=1S/C9H16/c1-7(2)8(3)5-9(7,4)6-8/h5-6H2,1-4H3/t8-,9+
