16
gdb 126287	5.30211	0.86387	0.79138	7.0698	79.32	-0.2608	-0.0256	0.2352	1426.9967	0.126245	-396.976362	-396.967992	-396.967048	-397.010451	29.99	
C	 0.12085553	 1.5298478406	 0.2021271922	-0.370744
C	-0.0645426066	 0.0195496939	-0.0330731364	-0.30905
C	 0.5788145196	-0.4688063758	-1.2933645351	 0.399963
C	 0.0628049016	-0.7744531604	-2.5353932848	-0.390268
C	 1.1845722898	-1.1460958205	-3.3159618237	 0.250048
N	 2.3222446345	-1.079370909	-2.6151101152	-0.277122
N	 1.9225976765	-0.6678423731	-1.4062511501	-0.245033
C	 1.1863898709	-1.5555160783	-4.6789300376	 0.241653
N	 1.142764419	-1.8823693378	-5.7880272974	-0.340795
H	 1.1802108207	 1.7946390629	 0.2769763159	 0.120289
H	-0.3088571289	 2.107537285	-0.6209746298	 0.135587
H	-0.3694913792	 1.8362369866	 1.1304699802	 0.126162
H	 0.3349616168	-0.5383536941	 0.8230991658	 0.117985
H	-1.1311705823	-0.217937337	-0.0819142078	 0.130664
H	-0.9693414529	-0.741412778	-2.8420503904	 0.128525
H	 2.6189429306	-0.549723525	-0.6877323456	 0.282135
31.9704	109.0989	147.6787	198.4099	215.9856	338.6561	378.9271	520.7979	536.0837	579.0374	594.4566	686.9642	720.5025	728.4264	785.496	833.1446	962.6453	1006.3909	1046.5329	1064.9152	1084.6658	1161.8286	1213.0164	1261.0198	1319.6864	1351.1835	1410.2345	1427.2293	1457.0645	1459.3848	1485.6547	1496.5612	1506.0315	1605.2928	2357.5586	3033.1404	3042.0269	3086.2607	3115.162	3122.5746	3278.0053	3655.4405
CCC1=CC(=NN1)C#N	CCc1cc(n[nH]1)C#N	
InChI=1S/C6H7N3/c1-2-5-3-6(4-7)9-8-5/h3H,2H2,1H3,(H,8,9)	InChI=1S/C6H7N3/c1-2-5-3-6(4-7)9-8-5/h3H,2H2,1H3,(H,8,9)
