19
gdb 39289	2.61849	2.16996	1.54507	2.0615	73.37	-0.2475	0.0759	0.3234	907.9456	0.16308	-423.032064	-423.025559	-423.024615	-423.062845	26.977	
C	 0.1513871366	 1.5188751375	 0.3866661897	-0.233714
C	 1.457981569	 2.0493357389	-0.2543820793	-0.223439
C	 2.3444546849	 0.8105055668	-0.4098878711	 0.116041
O	 2.8930413131	 0.482724997	 0.874418712	-0.276038
C	 2.8032462835	-0.917343534	 1.0892072545	-0.101479
C	 1.5426348627	-1.3618546014	 0.3646407447	 0.11626
O	 0.3315496056	-0.9094582	 1.0095009092	-0.313825
C	 0.0536685388	 0.0445300469	-0.0536179557	 0.134287
C	 1.3722541362	-0.3313125544	-0.7673669565	-0.146948
H	 0.210370999	 1.5435725608	 1.4773360205	 0.127213
H	-0.7216392299	 2.1028025262	 0.0833062501	 0.095649
H	 1.2548978834	 2.4685053278	-1.2471357093	 0.095807
H	 1.95079657	 2.8239945653	 0.3382586537	 0.113256
H	 3.154277726	 0.9413948422	-1.139790106	 0.065071
H	 3.6770245207	-1.4481922489	 0.6736771024	 0.08442
H	 2.7601956357	-1.0955371856	 2.1675845532	 0.118527
H	 1.5107739912	-2.4309252295	 0.1323832818	 0.076758
H	-0.8854075827	-0.2078045136	-0.5562259559	 0.074532
H	 1.3630816363	-0.645395702	-1.8089733379	 0.077623
131.9261	193.5568	343.3003	366.9576	403.1214	587.0921	627.4229	654.3378	768.0418	818.473	831.3046	842.303	875.8868	890.0959	904.8679	937.6417	956.4776	964.3527	999.4449	1023.388	1049.8381	1080.7768	1089.633	1110.8598	1171.9204	1201.2142	1220.7474	1229.6091	1244.1268	1257.3275	1292.8167	1299.9253	1312.4264	1338.0891	1344.9399	1358.0985	1367.6281	1391.6563	1474.1531	1487.6796	1495.1285	2961.2327	3012.4742	3042.7445	3048.7938	3062.3575	3069.027	3090.7532	3102.753	3119.2472	3136.0503
C1CC2OCC3OC1C23	C1C[C@H]2OC[C@H]3O[C@@H]1[C@@H]23	
InChI=1S/C7H10O2/c1-2-5-7-4(1)8-3-6(7)9-5/h4-7H,1-3H2	InChI=1S/C7H10O2/c1-2-5-7-4(1)8-3-6(7)9-5/h4-7H,1-3H2/t4-,5+,6-,7-/m1/s1
