19
gdb 12777	3.49419	1.50776	1.2771	2.5867	71.35	-0.2215	0.0759	0.2974	1021.9494	0.165405	-365.015862	-365.007535	-365.006591	-365.048419	31.389	
C	-0.0717346748	 1.5292960302	 0.0940421141	-0.509734
C	 0.1091319861	 0.045234087	 0.0108147793	 0.325787
N	-0.7676848497	-0.8957893477	 0.7579979158	-0.370953
C	 0.7050396532	-0.9382297983	 0.9588091554	-0.097998
C	 1.2571630827	-1.7950825087	-0.1819556079	-0.250579
C	 0.6461934469	-0.7557081152	-1.1958446497	-0.031372
C	-0.3525427103	-1.2518143212	-2.2314035653	-0.093188
O	 0.2573058576	-2.0855936587	-3.2108881039	-0.423287
H	 0.8063819702	 2.0549336164	-0.2965527875	 0.125901
H	-0.9420696307	 1.8604665223	-0.4849794889	 0.129802
H	-0.2206478785	 1.8496176718	 1.1314839348	 0.116606
H	-1.1587194294	-0.370806797	 1.5408100092	 0.221583
H	 1.1279857415	-0.7852626064	 1.9449514806	 0.089492
H	 2.3475461023	-1.831931764	-0.2211531448	 0.104245
H	 0.8552994252	-2.8129989622	-0.2203282144	 0.095546
H	 1.4484393921	-0.2063234223	-1.6983462035	 0.07597
H	-1.1840331509	-1.7601437579	-1.7258782196	 0.109175
H	-0.7703214497	-0.4041815891	-2.7869840596	 0.101194
H	 0.5453583563	-2.8886125088	-2.7653091641	 0.281811
93.0713	157.6585	164.1438	214.8471	268.1128	294.0785	319.9096	426.3848	458.9142	528.6644	625.8336	697.6473	822.3701	845.3559	881.5255	913.9824	942.3265	965.8371	1025.2241	1038.5528	1048.6135	1090.8306	1099.1373	1104.6016	1134.1254	1174.6464	1215.2691	1233.091	1241.0007	1305.3474	1325.362	1357.2747	1389.3558	1407.0506	1414.4788	1446.2126	1478.1383	1482.5529	1499.3805	1509.7072	3018.524	3021.139	3047.1419	3055.5743	3072.538	3082.5329	3093.0631	3115.6667	3179.8692	3461.2791	3816.5294
CC12NC1CC2CO	C[C@]12N[C@H]1C[C@H]2CO	
InChI=1S/C6H11NO/c1-6-4(3-8)2-5(6)7-6/h4-5,7-8H,2-3H2,1H3	InChI=1S/C6H11NO/c1-6-4(3-8)2-5(6)7-6/h4-5,7-8H,2-3H2,1H3/t4-,5-,6+/m0/s1
