17
gdb 65739	3.131	1.19675	1.10138	3.3433	70.57	-0.2684	0.0092	0.2776	1157.4218	0.135445	-455.16309	-455.154574	-455.15363	-455.196691	31.066	
C	 0.0305970099	 1.5280573555	 0.0541587086	-0.440943
C	-0.0177768859	 0.0117622274	-0.0126423734	 0.431028
C	 0.7709946726	-0.6524631986	-1.1679379033	-0.224683
N	 1.6169025809	-1.6694747696	-0.5301277494	-0.25278
C	 1.4501205568	-1.5179035265	 0.7130589819	 0.109772
O	 0.6108749672	-0.540264774	 1.1650317767	-0.248223
O	-1.3531240528	-0.4692554328	-0.1025060437	-0.222931
C	-2.1676116295	-0.312335283	 0.9708042949	 0.109835
N	-3.3976523107	-0.5614796874	 0.8477964636	-0.435188
H	 1.0676035684	 1.8692999915	 0.0930021321	 0.136646
H	-0.4509243542	 1.9479585298	-0.8328823897	 0.145832
H	-0.490073828	 1.900194346	 0.9403197556	 0.132368
H	 0.0803171954	-1.109258995	-1.8800975055	 0.146645
H	 1.3976923225	 0.0661844414	-1.7056748322	 0.122118
H	 1.9310632339	-2.0912377207	 1.4970444894	 0.146899
H	-1.647203003	-0.0026877501	 1.8817338206	 0.112676
H	-3.8670317536	-0.4292151439	 1.7417036739	 0.230928
66.3044	111.9576	148.7627	194.1685	231.2545	314.6421	363.4161	396.9139	463.7347	510.2302	594.7245	716.8002	796.5662	830.438	876.9223	912.61	942.1385	952.8048	979.2231	994.4816	1052.8743	1068.2438	1101.7519	1154.9764	1169.909	1234.0019	1254.6166	1287.7757	1333.0503	1341.6349	1412.0909	1422.1218	1479.101	1485.2566	1488.6261	1714.898	1743.0453	3052.5849	3058.018	3082.8774	3113.7432	3131.2724	3136.1313	3223.3534	3513.3041
CC1(CN=CO1)OC=N	C[C@]1(CN=CO1)O[CH][NH]	
InChI=1S/C5H8N2O2/c1-5(8-3-6)2-7-4-9-5/h3-4,6H,2H2,1H3	InChI=1S/C5H8N2O2/c1-5(8-3-6)2-7-4-9-5/h3-4,6H,2H2,1H3/t5-/m0/s1
