16
gdb 27692	2.98049	1.25505	0.88805	2.2433	86.32	-0.1843	0.0059	0.1902	1265.0875	0.122981	-400.763881	-400.754694	-400.75375	-400.797745	33.919	
C	-0.0380144197	 1.50441005	 0.0870537527	-0.51223
C	-0.0048744181	 0.0173023106	-0.0389338729	 0.322532
C	-0.0285135848	-0.7826349195	-1.1690174401	-0.305628
C	 0.023132635	-2.1256718553	-0.7343054173	 0.253552
O	 0.0185403514	-3.2036389269	-1.5541032669	-0.443316
C	 0.0776830558	-2.1345716402	 0.6558578407	 0.068241
N	 0.058047442	-0.7987444335	 1.0516220755	-0.378342
C	 0.1396900384	-3.2289940493	 1.5266411531	 0.193818
C	 0.1929452639	-4.2017460058	 2.2423943371	-0.457748
H	 0.8562684748	 1.8936938337	 0.5890151021	 0.132524
H	-0.0882070595	 1.9615795596	-0.903235377	 0.142388
H	-0.9094374531	 1.8482588388	 0.6576780707	 0.132612
H	-0.0777063763	-0.4416994603	-2.1908861581	 0.104102
H	 0.0595096223	-3.9963103749	-1.0049131471	 0.298596
H	 0.0911262914	-0.496676193	 2.009517533	 0.262401
H	 0.2398460966	-5.0515925441	 2.8764711244	 0.186497
71.1114	118.8674	127.7947	210.5854	273.7327	314.8586	353.9933	389.3399	389.9608	416.0823	481.5404	526.708	573.2635	641.6655	647.819	695.1079	699.1735	787.4959	805.0532	1002.6316	1017.9645	1059.078	1122.9645	1183.8484	1243.259	1258.7618	1362.8311	1415.6669	1454.8157	1480.1207	1506.7492	1527.8409	1547.018	1624.4981	2203.4981	3021.1012	3067.1649	3128.8862	3259.5772	3501.748	3682.6029	3785.7562
CC1=CC(O)=C(N1)C#C	Cc1cc(O)c([nH]1)C#C	
InChI=1S/C7H7NO/c1-3-6-7(9)4-5(2)8-6/h1,4,8-9H,2H3	InChI=1S/C7H7NO/c1-3-6-7(9)4-5(2)8-6/h1,4,8-9H,2H3
