19
gdb 100518	2.82541	1.14873	0.87819	0.8757	74.78	-0.2346	-0.03	0.2046	1343.7411	0.158311	-456.40978	-456.399452	-456.398508	-456.446178	36.378	
C	 0.1914346632	 1.7615333505	-0.4727380553	-0.378958
C	 0.2309417301	 0.2595729572	-0.1807077306	-0.14731
N	 0.748835796	-0.5284225575	-1.3065367233	-0.095933
C	 2.1879626019	-0.7727627047	-1.303079219	-0.365627
C	-0.1443266471	-0.8901802649	-2.2560291822	 0.336262
O	-1.3303539475	-0.5688801787	-2.1927661984	-0.415949
C	 0.2966832911	-1.7594893798	-3.4743091611	 0.315685
N	-0.7719120473	-1.9860402913	-4.265375279	-0.493626
O	 1.4178379656	-2.1825036408	-3.6987574126	-0.373728
H	 1.1827257196	 2.1469186843	-0.731872186	 0.118091
H	-0.4912492898	 1.9651241801	-1.300901611	 0.145273
H	-0.162379336	 2.3069096501	 0.4077180968	 0.119015
H	 0.8745502329	 0.050114222	 0.6796559706	 0.103048
H	-0.7744604202	-0.1000895172	 0.044853168	 0.138369
H	 2.4805152648	-1.2980096455	-2.2060394061	 0.198744
H	 2.7237221937	 0.1818433351	-1.2381089917	 0.123326
H	 2.4599343003	-1.3730879359	-0.4263082777	 0.124885
H	-1.6606098116	-1.6035150018	-3.9824341413	 0.282966
H	-0.6636712899	-2.5482066612	-5.0914841002	 0.265464
31.3069	70.5398	84.1877	137.3844	182.7599	222.0038	281.4134	326.1146	349.1702	383.5916	428.9935	451.0008	523.7346	545.4278	640.7881	693.4972	696.9619	788.4611	829.3347	886.8742	1015.4472	1088.3745	1098.7631	1107.1941	1163.3678	1172.488	1249.9805	1316.3698	1357.7393	1390.4538	1406.6937	1442.0688	1466.9532	1482.2156	1492.0015	1503.0829	1510.8726	1530.8934	1561.2138	1714.4303	1793.7253	3017.8635	3041.6767	3053.9483	3066.2969	3103.5244	3120.7248	3135.5674	3204.6886	3587.7073	3740.6951	31.3064	70.5393	84.1875	137.3826	182.7592	222.004	281.4133	326.1148	349.1706	383.5917	428.9936	451.0009	523.7345	545.4277	640.7882	693.497	696.9618	788.4613	829.3345	886.8741	1015.4471	1088.3748	1098.7631	1107.1945	1163.3687	1172.4885	1249.9803	1316.3702	1357.7396	1390.4544	1406.6939	1442.0692	1466.954	1482.2165	1492.0016	1503.0831	1510.8732	1530.8943	1561.2135	1714.4312	1793.7251	3017.8634	3041.6766	3053.9482	3066.2968	3103.5244	3120.7247	3135.5674	3204.6885	3587.7074	3740.6952
CCN(C)C(=O)C(N)=O	CCN(C)C(=O)C(=O)N	
InChI=1S/C5H10N2O2/c1-3-7(2)5(9)4(6)8/h3H2,1-2H3,(H2,6,8)	InChI=1S/C5H10N2O2/c1-3-7(2)5(9)4(6)8/h3H2,1-2H3,(H2,6,8)
