17
gdb 84055	3.45627	1.20357	0.99344	1.0378	83.78	-0.2262	-0.0271	0.1991	1188.7159	0.135483	-384.64954	-384.641354	-384.640409	-384.682109	31.905	
O	-0.0832258811	 1.4734559057	-0.0781939336	-0.4272
C	 0.0019306916	 0.0496277354	-0.0052032137	 0.067885
C	 0.6618310093	-0.4499621979	 1.2683810049	-0.233247
C	-0.1381654767	-1.2667299709	 1.9738129944	 0.208698
C	 0.1664545137	-1.9036396044	 3.2012971097	 0.213667
C	 0.3902524306	-2.474540312	 4.2387112946	-0.424175
C	-1.4773633697	-1.4096113409	 1.3030666286	-0.159831
C	-2.2753410362	-0.1266079315	 1.2108860101	-0.271061
C	-1.3984384135	-0.5524657084	 0.0605119222	-0.04655
H	 0.8130949003	 1.8213544256	-0.127806505	 0.282198
H	 0.5360680473	-0.3294378825	-0.8919853054	 0.073172
H	 1.653251635	-0.1360023144	 1.5748580179	 0.095801
H	 0.5981004196	-2.9669648684	 5.1561419415	 0.193477
H	-1.9873474901	-2.3648501434	 1.3256843267	 0.095374
H	-3.3468520322	-0.2135274711	 1.0662537572	 0.111999
H	-1.9598339124	 0.7178822227	 1.812319624	 0.130282
H	-1.8708382156	-0.8611259935	-0.8632545442	 0.089512
105.3665	139.3151	169.6081	255.3387	270.3675	365.7017	434.5769	492.3518	526.3026	575.6819	595.9222	634.7391	649.3785	721.3781	792.5271	822.7936	848.7353	866.904	954.7418	963.6695	1007.9225	1033.1729	1060.8458	1067.948	1103.6054	1106.0108	1164.7556	1195.1597	1232.4864	1260.0937	1327.906	1351.3871	1379.2831	1415.0505	1479.7551	1659.8064	2221.874	2958.6055	3136.586	3184.9222	3192.7243	3198.2925	3229.2349	3503.007	3814.4283
OC1C=C(C#C)C2CC12	O[C@H]1C=C(C#C)[C@H]2C[C@@H]12	
InChI=1S/C8H8O/c1-2-5-3-8(9)7-4-6(5)7/h1,3,6-9H,4H2	InChI=1S/C8H8O/c1-2-5-3-8(9)7-4-6(5)7/h1,3,6-9H,4H2/t6-,7-,8+/m1/s1
