12
gdb 7018	8.48519	0.92171	0.84807	2.4335	57.5	-0.31	-0.0491	0.261	1222.3285	0.081982	-414.689577	-414.681582	-414.680638	-414.723105	26.507	
N	-0.066143968	 1.5480916202	-0.1455602068	-0.458307
C	 0.0173466782	 0.295112029	-0.1473050167	 0.424837
C	-1.1542299468	-0.6250055642	 0.1144103963	-0.430301
C	-2.4224346778	 0.0649191714	 0.3198295837	 0.300203
N	-3.4479618306	 0.565628797	 0.4900274055	-0.294203
O	 1.1353799498	-0.4821547885	-0.416368418	-0.204271
C	 2.3619812463	-0.0786655645	 0.0492401334	 0.161179
O	 3.3626645716	-0.6276845451	-0.2772551096	-0.233523
H	 0.8024037235	 2.0205313323	-0.3919974332	 0.24539
H	-1.2431596409	-1.3187720804	-0.7302206878	 0.190742
H	-0.9272771452	-1.2482330303	 0.9878485074	 0.182778
H	 2.28690376	 0.7624121331	 0.7578236458	 0.115477
45.4691	92.4748	128.6101	166.4269	254.7669	343.3486	377.2109	443.7375	525.793	555.6748	727.1463	890.4809	912.6336	970.9496	983.1161	1039.9947	1050.342	1108.8538	1225.6719	1232.844	1372.6767	1413.3559	1441.9662	1768.3234	1885.6445	2382.7569	3011.7933	3046.7079	3078.7821	3508.4237
N=C(CC#N)OC=O	[NH][C](CC#N)OC=O	
InChI=1S/C4H4N2O2/c5-2-1-4(6)8-3-7/h3,6H,1H2	InChI=1S/C4H4N2O2/c5-2-1-4(6)8-3-7/h3,6H,1H2
