15
gdb 27008	3.07512	1.20683	0.90203	3.5067	72.49	-0.2012	0.0266	0.2278	1217.191	0.11333	-416.853359	-416.844853	-416.843909	-416.88742	30.745	
O	-0.5343494356	 1.3989564424	 0.2040549623	-0.453248
C	-0.1795495808	 0.0811366073	 0.1379046532	 0.249314
C	 0.1468779889	-0.5451844767	-1.0441536195	 0.229833
C	 0.179605304	 0.0108267332	-2.4346233825	-0.451403
C	 1.2691885953	-0.5512705854	-3.2380364798	 0.255938
N	 2.1126103712	-1.045799562	-3.8543582688	-0.315909
N	 0.4117264388	-1.8652814068	-0.7364592235	-0.301821
C	 0.281358714	-2.0665846637	 0.6070982628	-0.068294
C	-0.0989907679	-0.87511273	 1.1867115548	-0.280064
H	-0.5880823358	 1.6584371407	 1.1280072255	 0.300383
H	-0.7587779476	-0.164158577	-2.9813983091	 0.160763
H	 0.2996715381	 1.0975721494	-2.3728390078	 0.179051
H	 0.7666018698	-2.5379032947	-1.3948853415	 0.274031
H	 0.4724590448	-3.0314663554	 1.04734184	 0.126352
H	-0.3018591572	-0.7088207515	 2.233919104	 0.095074
32.2818	105.8224	181.6367	223.2061	239.5041	315.9875	379.9157	418.6671	453.1466	534.8047	628.9939	652.9033	676.3556	707.2314	780.0804	792.1268	911.3843	933.8642	940.0596	1068.9843	1093.2611	1157.3358	1205.0527	1259.1101	1288.2731	1330.9023	1350.0691	1457.6589	1460.9471	1497.5965	1523.4859	1671.5378	2359.5055	2998.4553	3080.0796	3242.2474	3273.7809	3672.1958	3847.6806
OC1=C(CC#N)NC=C1	Oc1c(CC#N)[nH]cc1	
InChI=1S/C6H6N2O/c7-3-1-5-6(9)2-4-8-5/h2,4,8-9H,1H2	InChI=1S/C6H6N2O/c7-3-1-5-6(9)2-4-8-5/h2,4,8-9H,1H2
