19
gdb 105795	2.41056	1.44	1.19487	1.723	75.1	-0.2298	0.0522	0.282	1125.5527	0.157556	-422.934073	-422.925269	-422.924325	-422.967675	33.26	
C	-0.0750907955	 1.6204341291	 0.0382661896	-0.432264
C	 0.1701620477	 0.1221537008	 0.1073261027	-0.051105
C	 1.4252703312	-0.6784781194	-0.1596541474	-0.189725
C	 2.713210002	-0.1666346079	 0.5522369128	 0.019516
O	 2.4430726872	 1.0464135368	 1.2653855879	-0.237561
C	 2.0576383204	-0.2012904527	 1.8543500196	-0.038184
C	 0.7354219352	-0.7418396638	 1.2157683152	 0.243074
C	 0.005632378	-1.8896065932	 1.8453184148	-0.162497
O	-0.6874073617	-1.5105734192	 3.0291684826	-0.413981
H	-0.1675334024	 1.9283626996	-1.0096546165	 0.114717
H	-1.0250497844	 1.8615297181	 0.5300914923	 0.105145
H	 0.7161831244	 2.1996751576	 0.5025683328	 0.157432
H	-0.6653018906	-0.4213730195	-0.3413354968	 0.089586
H	 1.4591543172	-1.4633017197	-0.906042029	 0.094123
H	 3.7365609176	-0.3573900019	 0.2530362104	 0.110846
H	 2.4206884121	-0.4276149397	 2.8495207082	 0.113801
H	-0.6713365496	-2.3466180782	 1.1053988578	 0.086866
H	 0.7088374113	-2.6687087875	 2.1638506398	 0.107974
H	-1.2639169502	-0.7741872892	 2.7991152233	 0.282236
82.0146	101.6825	130.8107	214.4245	269.7349	287.1924	334.9764	391.9622	412.7916	491.6953	609.755	713.3807	719.3208	763.2317	829.2488	848.9225	874.395	904.6565	927.763	975.2944	985.8684	1016.2363	1045.7326	1054.8069	1071.1296	1115.3642	1127.8153	1182.7819	1211.0017	1241.1472	1260.899	1295.1217	1333.4286	1368.574	1379.9654	1403.8133	1423.9097	1463.3966	1491.8635	1501.4586	1511.6116	2971.9461	3030.1017	3050.6968	3074.5532	3079.9552	3180.0206	3188.0347	3201.4337	3202.7363	3810.5896
CC1C2C3OC3C12CO	C[C@H]1[C@H]2[C@H]3O[C@H]3[C@@]12CO	
InChI=1S/C7H10O2/c1-3-4-5-6(9-5)7(3,4)2-8/h3-6,8H,2H2,1H3	InChI=1S/C7H10O2/c1-3-4-5-6(9-5)7(3,4)2-8/h3-6,8H,2H2,1H3/t3-,4-,5+,6+,7-/m0/s1
