13
gdb 127211	2.41912	2.05032	1.11753	2.6176	62.29	-0.2757	-0.0918	0.1839	979.9709	0.089977	-486.093468	-486.085683	-486.084739	-486.126867	27.191	
C	-0.0395552107	 1.4776916783	 0.0092268183	-0.348129
N	-0.0124723422	 0.0116817981	 0.0010604739	-0.23233
C	-1.2259636963	-0.6449418991	 0.0045333421	 0.546031
O	-2.3071876127	-0.1091713564	 0.014374579	-0.372754
N	-1.0703701938	-2.0304303338	-0.00416059	-0.309826
N	 0.087602275	-2.7165824379	-0.0152676337	 0.00437
N	 1.1809882763	-2.0970583615	-0.0183987547	-0.245129
C	 1.2181262536	-0.6632638702	-0.0094647682	 0.497749
O	 2.2728262167	-0.0853430073	-0.01382494	-0.332937
H	 0.9925688685	 1.8194906191	 0.0018869952	 0.178729
H	-0.5736818846	 1.8418043423	-0.8706802926	 0.158817
H	-0.5575913775	 1.8325180679	 0.9024981632	 0.15873
H	-1.9052147424	-2.5984384294	-0.0021684824	 0.296678
45.8791	87.002	143.2479	222.1351	323.7927	402.5271	453.3067	511.7727	558.7187	595.4565	655.439	693.2007	759.593	806.9458	904.5253	981.2839	1047.9263	1154.1431	1156.9013	1159.2328	1295.6257	1379.6612	1425.706	1455.9938	1492.0528	1502.3832	1591.1123	1808.028	1846.5448	3069.6129	3137.6377	3195.1016	3632.8435
CN1C(=O)NN=NC1=O	Cn1c(=O)[nH]nnc1=O	
InChI=1S/C3H4N4O2/c1-7-2(8)4-6-5-3(7)9/h1H3,(H,4,5,8,9)	InChI=1S/C3H4N4O2/c1-7-2(8)4-6-5-3(7)9/h1H3,(H,4,5,8,9)
