17
gdb 73974	2.82959	1.69483	1.22809	2.2551	75.46	-0.2324	-0.0069	0.2256	1025.8023	0.135458	-421.752397	-421.744835	-421.74389	-421.784503	28.858	
C	-0.1125420764	 1.4455277191	 0.0049462958	-0.493159
C	-0.0576947273	-0.0417809525	 0.0968060863	 0.18952
C	-1.0021285211	-0.9467567925	 0.3358689829	 0.061844
C	-2.3924014216	-1.3885476218	-0.0798326736	-0.085179
O	-2.2322977339	-1.6935808724	-1.4802032037	-0.226877
C	-1.8406985545	-2.6909706564	-0.5403007085	-0.026131
C	-0.4692977807	-2.3325692242	 0.1194488714	 0.081931
O	 0.7774027716	-2.1866461605	-0.5209515498	-0.275433
C	 1.2058658897	-0.8392449445	-0.2483554871	-0.14713
H	 0.5558453512	 1.9165281146	 0.7370670134	 0.133403
H	 0.2155886226	 1.7876773463	-0.9844754553	 0.13673
H	-1.1234035812	 1.8200841657	 0.1822708238	 0.132566
H	-3.3818872577	-1.1250738215	 0.2692570091	 0.114733
H	-2.3150971153	-3.6625626066	-0.6171134862	 0.105481
H	-0.3841610269	-2.9355074568	 1.0398234631	 0.078172
H	 1.6876901018	-0.436579471	-1.1489973987	 0.11727
H	 1.9559420397	-0.834043185	 0.5600199971	 0.10226
113.2811	160.0227	175.1751	214.1747	271.6298	394.7606	477.5411	573.82	619.1696	705.6568	729.3131	751.5189	839.8883	874.4251	904.964	919.0551	966.4768	978.1331	984.4233	1029.156	1073.2829	1095.0997	1111.6217	1118.4057	1188.4082	1211.6276	1223.1842	1242.8821	1254.1509	1322.5319	1355.3313	1377.979	1412.4005	1476.8823	1486.0539	1507.6595	1758.4479	2955.8956	2965.6523	3020.0333	3035.2155	3066.7664	3120.0917	3185.0677	3211.9988
CC1=C2C3OC3C2OC1	C[C]1[C]2[C@H]3O[C@H]3[C@H]2OC1	
InChI=1S/C7H8O2/c1-3-2-8-5-4(3)6-7(5)9-6/h5-7H,2H2,1H3	InChI=1S/C7H8O2/c1-3-2-8-5-4(3)6-7(5)9-6/h5-7H,2H2,1H3/t5-,6+,7-/m0/s1
