17
gdb 81059	2.59439	1.43669	1.26269	3.2106	69.38	-0.2435	0.016	0.2596	1054.7071	0.136963	-455.106124	-455.097973	-455.097029	-455.139094	31.43	
N	-0.0118355654	 0.9957126844	-0.7503852075	-0.535133
C	-0.0100937154	-0.0284600603	 0.1490149413	 0.253047
O	 0.9128908709	-0.2851412076	 0.8972473739	-0.363731
C	-1.2730920733	-0.8419896218	 0.1347137564	 0.219559
C	-2.0355715751	-1.4678784624	 1.3219686728	-0.267528
C	-2.8688586218	-1.7597693977	 0.0495826105	-0.092141
N	-2.5864647313	-0.3515566943	-0.4767676859	-0.411455
C	-1.5503176921	-2.1783501486	-0.6604997544	 0.187297
O	-1.4912912132	-2.1691826547	-2.041338932	-0.4429
H	 0.8427668832	 1.5086164191	-0.89517698	 0.262959
H	-0.7559488758	 1.0755645854	-1.423350103	 0.265833
H	-1.5685540897	-2.3076511655	 1.842639204	 0.116088
H	-2.4749615016	-0.7505018775	 2.0189913944	 0.106023
H	-3.8607933607	-2.2043768703	-0.0371786221	 0.092446
H	-3.0148706904	 0.3384160489	 0.1467524078	 0.216234
H	-1.0407994298	-3.06624795	-0.2867592869	 0.105331
H	-1.9992058684	-1.3906414371	-2.3140809193	 0.288071
56.4904	134.0459	175.6547	297.0366	319.3964	351.7785	402.9953	473.124	535.2836	555.3794	617.332	644.3696	673.8672	729.8549	800.5174	814.6955	893.0469	914.2166	942.1799	1011.9699	1027.6314	1066.2714	1099.5225	1106.0763	1154.7729	1186.0115	1191.8879	1198.6382	1230.4757	1244.0544	1278.6361	1334.8614	1399.4336	1454.3618	1511.4476	1608.4765	1797.9591	3060.0984	3112.9095	3128.2961	3134.4576	3403.4856	3590.1849	3726.8071	3729.8379
NC(=O)C12CC(N1)C2O	NC(=O)[C@@]12C[C@@H](N1)[C@H]2O	
InChI=1S/C5H8N2O2/c6-4(9)5-1-2(7-5)3(5)8/h2-3,7-8H,1H2,(H2,6,9)	InChI=1S/C5H8N2O2/c6-4(9)5-1-2(7-5)3(5)8/h2-3,7-8H,1H2,(H2,6,9)/t2-,3-,5+/m1/s1
