20
gdb 99375	5.93572	0.57566	0.55408	3.7207	78.31	-0.247	-0.0248	0.2222	1998.0885	0.168343	-440.333607	-440.322745	-440.3218	-440.371998	36.613	
C	-0.1048536873	 1.4382522458	 0.1834531709	-0.367599
C	-0.0782370553	-0.0639597976	-0.1022786859	-0.298844
C	-1.4791014209	-0.670416083	-0.1120022512	 0.422999
O	-2.3955721233	-0.2348870094	 0.5651157856	-0.382135
N	-1.640490247	-1.7553964093	-0.9269356114	-0.314058
C	-2.8910864624	-2.4915033796	-0.9663016767	-0.170795
C	-3.0664276225	-3.4507978362	 0.2305870258	-0.269944
C	-4.4340152922	-4.0914827057	 0.233227261	 0.155882
O	-4.640552596	-5.2772945809	 0.192713214	-0.236969
H	 0.9091896251	 1.8276780377	 0.3075568756	 0.110552
H	-0.5836665584	 1.9860638209	-0.6336096531	 0.123487
H	-0.6758743345	 1.6351698519	 1.0928382255	 0.146577
H	 0.4354455195	-0.2783649742	-1.0467365271	 0.100441
H	 0.4889596361	-0.582726883	 0.6823282291	 0.129948
H	-0.8414996321	-2.1304127971	-1.41051879	 0.247764
H	-3.7044635582	-1.7599429159	-0.9656486458	 0.142949
H	-2.93295761	-3.0457817715	-1.9083717344	 0.117972
H	-2.3047655948	-4.2352880124	 0.2311823985	 0.113841
H	-2.9706773449	-2.851031257	 1.1445811001	 0.147884
H	-5.2793665809	-3.3649446234	 0.2706967597	 0.080048
31.3327	45.217	58.978	76.5222	94.1461	202.7091	212.1372	276.8861	311.8178	329.2842	404.5999	496.0328	530.6114	590.9788	690.6928	763.4002	813.0712	835.5717	910.0821	982.2257	1001.6518	1054.7758	1089.4611	1097.5243	1116.4585	1139.1379	1212.3797	1246.4178	1278.7656	1288.6522	1340.3232	1376.7585	1404.8806	1408.1676	1432.7278	1460.5987	1465.9219	1475.9272	1493.4715	1505.0761	1532.3172	1769.3194	1834.3194	2860.9006	3023.2062	3037.071	3049.9687	3057.8606	3061.7643	3097.9854	3116.9078	3117.5242	3140.3004	3649.2102
CCC(=O)NCCC=O	CCC(=O)NCCC=O	
InChI=1S/C6H11NO2/c1-2-6(9)7-4-3-5-8/h5H,2-4H2,1H3,(H,7,9)	InChI=1S/C6H11NO2/c1-2-6(9)7-4-3-5-8/h5H,2-4H2,1H3,(H,7,9)
