19
gdb 64811	2.96893	1.18039	1.03277	3.7229	75.45	-0.2413	-0.0165	0.2248	1211.2282	0.15697	-423.014545	-423.005749	-423.004805	-423.048207	33.27	
C	-0.0879408055	 1.7299186084	 0.2402468302	-0.452697
C	-0.0338641206	 0.2171986027	 0.0184589981	 0.287216
C	 0.9257874314	-0.2013707616	-1.1457974995	-0.397182
C	 1.9606907124	-0.5852587271	-0.0820857255	 0.405732
O	 3.1404644478	-0.7814368521	-0.1045701857	-0.291925
C	 0.9169217185	-0.5061541431	 1.0399926807	-0.387842
C	-1.4303265383	-0.357265023	-0.0393955393	 0.02271
C	-2.1677746138	-0.5593989881	-1.2916327971	-0.185557
O	-1.5818259025	-1.6647423776	-0.59416172	-0.240684
H	 0.9198364982	 2.1497237777	 0.3248226186	 0.126416
H	-0.5931635004	 2.2330025996	-0.5909751611	 0.122069
H	-0.6273899804	 1.975325373	 1.161908054	 0.121117
H	 0.5644491519	-1.098043836	-1.6609335082	 0.148352
H	 1.2184229941	 0.5546224972	-1.8784548493	 0.121104
H	 1.2056928772	 0.0329276184	 1.9458903919	 0.124267
H	 0.5585795234	-1.5044281912	 1.3138706211	 0.14259
H	-2.0181080683	-0.1969190527	 0.8676039937	 0.095099
H	-3.2561018188	-0.5342846075	-1.2925694922	 0.121585
H	-1.6955657163	-0.307410037	-2.2400583106	 0.117629
67.3593	95.3096	190.8898	220.5711	245.6322	302.6538	331.6857	412.1263	424.3984	507.8339	515.6369	604.159	697.1922	732.8806	844.2874	867.7168	880.8887	889.7007	945.2036	965.2098	998.9942	1053.8523	1081.8067	1095.5932	1129.0149	1156.978	1168.053	1173.6401	1196.1407	1214.6038	1258.1144	1286.9936	1314.4798	1410.3668	1421.8735	1432.4631	1445.2077	1493.1579	1498.6115	1528.1526	1895.6563	3027.1113	3050.5907	3055.5624	3081.2024	3088.29	3095.6356	3100.5369	3114.6786	3118.3137	3174.8348
CC1(CC(=O)C1)C1CO1	CC1(CC(=O)C1)[C@H]1CO1	
InChI=1S/C7H10O2/c1-7(6-4-9-6)2-5(8)3-7/h6H,2-4H2,1H3	InChI=1S/C7H10O2/c1-7(6-4-9-6)2-5(8)3-7/h6H,2-4H2,1H3/t6-/m1/s1
