21
gdb 107749	2.79334	1.39989	1.24112	1.7296	82.1	-0.2222	0.0795	0.3017	1147.0141	0.181559	-387.039556	-387.030748	-387.029804	-387.072846	33.993	
C	-0.0627586838	 1.609374045	-0.0844731307	-0.381649
C	 0.0366964015	 0.0812560029	 0.012179789	-0.30709
C	-1.3088136728	-0.5746166881	 0.1185473669	 0.398041
C	-2.2868777336	-0.3948942674	 1.3163661441	-0.269807
C	-2.9506173497	-1.6698081484	 0.805520073	-0.173888
C	-2.7921457596	-1.5898911931	-0.7263356665	 0.051954
O	-2.1772610932	-0.3441280245	-1.0405698664	-0.33948
C	-1.6741569457	-2.1250255865	 0.0966671309	 0.221061
C	-0.8776772438	-3.3880495866	 0.112304444	-0.530059
H	 0.9283896539	 2.0573641151	-0.1996345003	 0.111122
H	-0.673097071	 1.8998185111	-0.9437191073	 0.141602
H	-0.5214017346	 2.035059318	 0.8137921961	 0.11911
H	 0.5505704397	-0.3154116381	-0.8715588581	 0.107303
H	 0.6350496718	-0.2079585248	 0.8851234914	 0.099604
H	-1.785059975	-0.5588613422	 2.2742437631	 0.096876
H	-2.8639400799	 0.5351424096	 1.3382392848	 0.096528
H	-3.7034867102	-2.285447949	 1.2824351131	 0.084826
H	-3.4575389229	-2.0486175942	-1.4466613602	 0.101094
H	-0.1646999794	-3.4256142339	-0.7191533378	 0.126401
H	-0.312782372	-3.5009877074	 1.0450142229	 0.121249
H	-1.5376185295	-4.2579213376	 0.0222019279	 0.125202
79.7135	132.5788	187.7777	204.0211	217.3281	242.5552	335.3092	391.675	475.7261	553.0994	592.5677	672.4468	744.0921	764.6018	783.9987	849.7493	876.9788	893.7228	931.1125	954.6686	977.2807	989.091	1020.29	1030.3282	1037.0927	1098.0578	1111.1277	1134.3381	1165.2024	1177.5089	1219.5682	1242.4622	1265.3587	1304.8153	1320.4266	1387.934	1408.0944	1411.1552	1458.9337	1476.3169	1484.8054	1489.3912	1497.6715	1497.7716	1508.4208	3020.5907	3028.2064	3041.4268	3044.3277	3063.8398	3080.518	3090.4428	3103.9371	3109.2373	3123.4957	3189.3836	3202.5818
CCC12CC3C(O1)C23C	CC[C@@]12C[C@H]3[C@@H](O1)[C@@]23C	
InChI=1S/C8H12O/c1-3-8-4-5-6(9-8)7(5,8)2/h5-6H,3-4H2,1-2H3	InChI=1S/C8H12O/c1-3-8-4-5-6(9-8)7(5,8)2/h5-6H,3-4H2,1-2H3/t5-,6+,7-,8-/m0/s1
