16
gdb 5625	3.24222	1.9396	1.2254	2.1387	67.97	-0.1718	0.0583	0.23	958.1946	0.131155	-379.932234	-379.923796	-379.922852	-379.965001	30.485	
C	-0.0414482298	 1.3324729979	-0.0492783843	-0.24268
O	-0.026879015	-0.0770366413	 0.0064423708	-0.276405
C	 0.6194795639	-0.6093355708	 1.0830866962	 0.297781
C	 1.2655776573	 0.0085901239	 2.1333847353	-0.211388
N	 1.7612518512	-0.9929803287	 2.9356263717	-0.258755
C	 1.429277858	-2.2256759916	 2.4170688611	-0.14036
C	 0.7190569848	-2.0208551041	 1.2544214396	 0.13584
N	 0.12121818	-2.9699038025	 0.3996122854	-0.619834
H	 0.9783490869	 1.7410045709	-0.0946536385	 0.113843
H	-0.583061898	 1.6113926363	-0.9551782752	 0.127653
H	-0.5519039258	 1.7604027317	 0.8252054716	 0.116181
H	 1.416680277	 1.0477671838	 2.3673792025	 0.112944
H	 2.2699451444	-0.8461358188	 3.786756868	 0.257293
H	 1.7199614528	-3.1392273368	 2.9088712976	 0.10652
H	 0.7257412021	-3.7610980319	 0.2155701152	 0.235916
H	-0.1260670996	-2.538668238	-0.483005557	 0.245449
81.1148	154.4393	176.9917	193.0417	213.8728	277.9955	313.4311	391.4562	540.1571	593.2301	605.7954	608.8099	700.0513	703.5918	753.2802	814.2803	905.2902	1056.4555	1077.5483	1114.8079	1160.436	1183.253	1213.4412	1245.624	1283.5883	1361.7924	1450.2974	1471.6689	1481.6722	1483.4292	1510.4011	1596.135	1643.8692	1656.1713	2988.5169	3039.836	3126.5906	3266.5817	3281.3798	3523.9208	3612.6703	3713.3488
COC1=CNC=C1N	COc1c[nH]cc1N	
InChI=1S/C5H8N2O/c1-8-5-3-7-2-4(5)6/h2-3,7H,6H2,1H3	InChI=1S/C5H8N2O/c1-8-5-3-7-2-4(5)6/h2-3,7H,6H2,1H3
