21
gdb 89021	3.27645	0.94037	0.87593	2.9494	80.15	-0.236	-0.0158	0.2202	1453.8478	0.179053	-424.222064	-424.211654	-424.21071	-424.258932	36.872	
C	 0.0043854871	 1.6182714056	 0.1783024882	-0.402629
C	 0.4289984235	 0.1711143659	 0.0544150317	-0.022427
C	 1.7666149972	-0.2669052703	 0.6223185017	-0.336975
C	 0.4745987641	-0.709713027	 1.2673240269	 0.107839
O	 0.0435353278	-0.1528765603	 2.4770522819	-0.22544
C	 0.7553594584	-0.5505750516	 3.6151992708	-0.180195
C	 1.8198050034	 0.4577410881	 4.0643442514	 0.374448
C	 2.4802016879	 0.1436484616	 5.3959179164	-0.47865
O	 2.1007185763	 1.4376568138	 3.417407739	-0.280199
H	 0.3406655666	 2.0351593059	 1.1296696489	 0.147836
H	 0.4316839359	 2.2171718996	-0.6330961963	 0.109374
H	-1.0856858956	 1.7165765139	 0.131083654	 0.111347
H	 0.1118087221	-0.3242825437	-0.8596924947	 0.080539
H	 2.3541511256	-1.0077681013	 0.0900421716	 0.10239
H	 2.3361010859	 0.4915128498	 1.1459091365	 0.144439
H	 0.186275675	-1.7557414101	 1.153061543	 0.080037
H	 0.0399812546	-0.6703818273	 4.4418097574	 0.123334
H	 1.2435284855	-1.528870755	 3.4822171518	 0.113732
H	 2.8366569457	-0.8917117243	 5.4263996953	 0.136908
H	 3.3117047881	 0.8285902972	 5.5643914872	 0.148364
H	 1.7521557846	 0.2550604395	 6.2079975373	 0.145927
37.3156	43.7893	87.6905	102.408	178.7466	217.3558	236.3026	295.1156	338.1518	394.6215	452.3233	482.4331	550.3796	635.8142	752.4148	799.3558	818.4712	845.7786	889.3541	926.8773	948.3492	986.6204	1045.3863	1071.0911	1098.6772	1110.5378	1121.7238	1153.4156	1177.2727	1199.4831	1202.326	1252.124	1310.2323	1368.424	1379.7217	1389.7595	1411.8083	1421.0053	1453.6809	1465.6472	1476.1614	1484.1468	1499.5594	1505.1634	1822.8934	2986.114	3029.8415	3034.2552	3037.3653	3083.9314	3090.9098	3097.6336	3127.1885	3135.1915	3145.1554	3154.2748	3233.6172
CC1CC1OCC(C)=O	C[C@H]1C[C@H]1OCC(=O)C	
InChI=1S/C7H12O2/c1-5-3-7(5)9-4-6(2)8/h5,7H,3-4H2,1-2H3	InChI=1S/C7H12O2/c1-5-3-7(5)9-4-6(2)8/h5,7H,3-4H2,1-2H3/t5-,7+/m0/s1
