17
gdb 41742	3.87635	1.46702	1.25632	1.1182	66.93	-0.2343	0.0758	0.3101	996.219	0.137933	-458.931772	-458.924887	-458.923943	-458.962977	27.021	
C	 0.1894915596	 1.3465885956	-0.2275027143	 0.002181
O	 1.2927809456	 1.9006157518	 0.4738558272	-0.271516
C	 1.9528518603	 0.8352013316	 1.1197422211	 0.032544
C	 2.3962465339	-0.3271563295	 0.2475093617	-0.22377
C	 3.1668120371	-1.4289054818	 0.9509555482	-0.094546
O	 2.4338832344	-1.7493302379	 2.1406598537	-0.260744
C	 1.0517553037	-1.4904180239	 1.9285617347	-0.170091
C	 1.0456387601	-0.3353865355	 0.9649311757	 0.398362
O	-0.1355136855	 0.1004710996	 0.3700337119	-0.300043
H	-0.6697399558	 2.0194886341	-0.1507625702	 0.126029
H	 0.4561520413	 1.1914043327	-1.2852561484	 0.09947
H	 2.4670699473	 1.1385378162	 2.0247785104	 0.119617
H	 2.5090935657	-0.198691682	-0.8226646171	 0.103927
H	 3.2465728871	-2.3045023865	 0.287978885	 0.101008
H	 4.175013361	-1.1472676712	 1.2723151175	 0.114579
H	 0.5266768613	-2.3542871927	 1.4902568688	 0.103496
H	 0.604415893	-1.2647696607	 2.9014541039	 0.119497
171.392	187.25	240.2657	265.0105	353.8864	399.766	491.458	655.7631	725.8291	744.15	772.3915	886.901	905.2666	924.226	945.8299	963.4123	1023.0658	1036.8848	1062.0084	1093.4489	1104.6898	1107.6081	1131.773	1156.4966	1208.6917	1218.4999	1230.0087	1238.7899	1272.9856	1303.3511	1357.5301	1385.5605	1434.7241	1442.3329	1511.1803	1524.0733	1545.4458	2969.8985	2979.083	2985.5747	3067.3298	3078.8734	3082.3215	3176.9313	3183.7243
C1OC2C3COCC23O1	C1O[C@@H]2[C@H]3COC[C@@]23O1	
InChI=1S/C6H8O3/c1-4-5-6(4,2-7-1)9-3-8-5/h4-5H,1-3H2	InChI=1S/C6H8O3/c1-4-5-6(4,2-7-1)9-3-8-5/h4-5H,1-3H2/t4-,5-,6+/m1/s1
