21
gdb 58989	3.28662	0.92374	0.90084	2.8629	81.35	-0.2421	0.013	0.2551	1420.3952	0.181745	-424.237757	-424.227957	-424.227013	-424.272896	36.429	
C	-0.0010235792	 1.5321607507	 0.0330869981	-0.409292
C	-0.0606883999	-0.0013401848	 0.0684444496	 0.018065
O	 0.5391135259	-0.5657626457	-1.0986882835	-0.439573
C	 0.6736027717	-0.5694831443	 1.2508877688	 0.376849
C	 0.1198167231	-1.0817631865	 2.3522708181	-0.252621
C	 1.143195762	-1.6265187194	 3.3186320183	 0.106456
O	 1.0817032565	-3.0529343796	 3.4008929	-0.434259
C	 2.4819979526	-1.0779905948	 2.7537610479	-0.250167
C	 2.1875520997	-0.6284725513	 1.3019839274	-0.306074
H	 1.0341850687	 1.8801388199	-0.0259652348	 0.128349
H	-0.5410037185	 1.9145259153	-0.841627343	 0.105876
H	-0.4652765114	 1.9596376452	 0.9266603551	 0.125135
H	-1.117441236	-0.3053042434	 0.1354000164	 0.069327
H	 0.1523134187	-0.1329728566	-1.8665123047	 0.282467
H	-0.9460480231	-1.1900330463	 2.5253647992	 0.088452
H	 0.9790006404	-1.2986869254	 4.3503152197	 0.082336
H	 1.0446459784	-3.3868886368	 2.4974177887	 0.273809
H	 2.8041569301	-0.218773968	 3.3501164138	 0.102075
H	 3.2644041209	-1.8371399031	 2.8277161054	 0.105648
H	 2.5603472816	-1.3280499047	 0.5450481866	 0.122972
H	 2.6509381775	 0.3362221297	 1.0676142928	 0.104169
42.7415	95.8341	109.8282	193.4502	238.7554	250.1688	273.7823	336.3892	347.3053	404.7496	465.4583	532.3209	544.6915	633.5851	752.0437	770.2913	847.9608	880.0006	889.6223	913.0107	962.7154	991.1184	1005.5407	1054.9671	1066.1137	1090.5758	1121.0583	1148.1632	1172.2908	1220.255	1239.9387	1270.0818	1285.2716	1300.0047	1332.51	1358.0954	1365.5356	1399.1486	1419.7418	1431.7847	1476.965	1489.6048	1493.2483	1501.6647	1714.4456	2971.403	3028.0628	3039.9588	3048.194	3060.6561	3068.9242	3097.3298	3108.8078	3122.8168	3184.8803	3795.9637	3816.9494
CC(O)C1=CC(O)CC1	C[C@@H](O)C1=C[C@@H](O)CC1	
InChI=1S/C7H12O2/c1-5(8)6-2-3-7(9)4-6/h4-5,7-9H,2-3H2,1H3	InChI=1S/C7H12O2/c1-5(8)6-2-3-7(9)4-6/h4-5,7-9H,2-3H2,1H3/t5-,7+/m1/s1
