25
gdb 123136	5.77402	0.41901	0.40266	2.7229	86.97	-0.261	0.073	0.334	2719.9467	0.226285	-426.62999	-426.618023	-426.617079	-426.668482	42.165	
C	 0.0328371481	 1.577311913	 0.063677851	-0.401467
C	 0.0191133588	 0.0484978004	 0.0335307949	 0.136877
O	 0.7578988215	-0.4921494248	 1.1291343041	-0.427809
C	-1.403724521	-0.5228374874	-0.0246687437	-0.194078
C	-1.4461087072	-2.049829923	-0.1328370182	-0.172877
C	-2.8675845514	-2.6214750813	-0.1229137998	-0.188103
C	-2.9017500263	-4.148038747	-0.2406032699	-0.163852
C	-4.314272391	-4.7164129778	-0.2265381232	-0.073643
O	-4.2226451351	-6.1289364134	-0.3435405588	-0.421565
H	 1.0599103653	 1.9472745667	 0.1247756037	 0.122737
H	-0.4367296785	 1.9976601688	-0.8316746449	 0.114451
H	-0.51867849	 1.9532806124	 0.9351259863	 0.103903
H	 0.5702899637	-0.2939479579	-0.8520082648	 0.086821
H	 0.3420011027	-0.1783030723	 1.9401997334	 0.273964
H	-1.9479064115	-0.1983251515	 0.8761343681	 0.078993
H	-1.9319660264	-0.0717420874	-0.8754467199	 0.091352
H	-0.9366205012	-2.3598976156	-1.0557188682	 0.092134
H	-0.8649120767	-2.4783294133	 0.6914529733	 0.108646
H	-3.3755603456	-2.3136242686	 0.8021847485	 0.089362
H	-3.445575726	-2.1771021315	-0.9457328679	 0.089876
H	-2.4095488859	-4.4662045822	-1.1679686004	 0.10373
H	-2.3361210965	-4.6024334235	 0.582151009	 0.104708
H	-4.8224619447	-4.4266936177	 0.7083985356	 0.080922
H	-4.8968113944	-4.2852619957	-1.0578122101	 0.08108
H	-5.1138304406	-6.4896293093	-0.3345454779	 0.283838
48.4558	51.646	77.103	114.4411	126.965	167.502	193.6965	239.4514	245.955	260.9228	298.9897	338.2022	411.8281	455.3397	503.1172	515.1214	737.7229	768.1056	831.7485	854.8817	935.6858	947.7755	993.9103	1019.5071	1032.7342	1047.9569	1070.1927	1079.8962	1096.9959	1132.3959	1167.0055	1199.0265	1224.0684	1256.2215	1272.7943	1300.1954	1316.5076	1317.9341	1327.9223	1345.9753	1361.7782	1394.4362	1400.3445	1406.4157	1421.8558	1462.644	1475.6348	1486.0996	1491.6985	1495.0431	1496.5346	1511.0114	1529.3102	2954.4649	2978.913	2988.5064	2999.9678	3015.5101	3020.7666	3027.8785	3028.586	3031.2859	3040.6912	3069.3436	3080.0434	3092.1028	3117.1743	3792.9045	3830.6341
CC(O)CCCCCO	C[C@@H](O)CCCCCO	
InChI=1S/C7H16O2/c1-7(9)5-3-2-4-6-8/h7-9H,2-6H2,1H3	InChI=1S/C7H16O2/c1-7(9)5-3-2-4-6-8/h7-9H,2-6H2,1H3/t7-/m1/s1
