20
gdb 32659	2.01987	1.66604	0.98731	1.4296	82.78	-0.1775	0.061	0.2384	1249.0796	0.171057	-403.176436	-403.167035	-403.166091	-403.211336	34.32	
C	 0.1699057224	 2.3457353642	-0.2709776027	-0.373485
C	-0.3441716424	 0.9043385146	-0.3181729372	-0.155537
N	 0.3576081666	 0.0777710614	-1.2861032922	-0.071395
C	-0.0450643941	-0.1928124436	-2.5832761575	-0.112065
C	 0.9217839751	-0.9541239645	-3.1843618284	-0.161476
C	 1.9696466301	-1.162627479	-2.234808694	-0.311163
C	 1.580312806	-0.5075954716	-1.0881574551	 0.40713
O	 2.1505560638	-0.3424778781	 0.1299477453	-0.26968
C	 3.3919852469	-1.0024604137	 0.2987887505	-0.243935
H	 1.2234716011	 2.3652904485	 0.0194128564	 0.136596
H	 0.0713184673	 2.8265798925	-1.2486380973	 0.125665
H	-0.4001618229	 2.927955833	 0.4601313875	 0.113953
H	-0.2428682279	 0.4379524544	 0.6661063085	 0.127027
H	-1.4055476003	 0.8827496214	-0.5826399473	 0.11375
H	-0.9905185722	 0.1788433079	-2.9440638753	 0.109099
H	 0.8901546271	-1.3355481746	-4.1933401925	 0.089342
H	 2.8785337267	-1.7226554982	-2.3798942493	 0.092049
H	 3.721473351	-0.7913353167	 1.3172255878	 0.132289
H	 3.2842266282	-2.0861077388	 0.1629355499	 0.12604
H	 4.1379422275	-0.628274579	-0.4140848772	 0.125796
43.3712	81.554	121.0689	190.0645	201.8758	244.4343	298.2986	324.3535	399.051	523.7477	612.6651	620.2068	640.2661	695.0962	720.4279	733.1158	790.2829	807.327	904.0678	962.8427	1027.0214	1079.5269	1095.1321	1105.6892	1123.1189	1184.37	1211.754	1223.5678	1263.822	1295.0973	1329.5714	1391.0412	1406.4365	1415.7735	1464.4896	1476.3856	1482.1887	1490.3821	1504.4966	1508.7987	1517.6397	1543.0689	1606.3551	3007.337	3041.5682	3055.7625	3065.6113	3095.6326	3114.4213	3130.0703	3137.0951	3243.663	3262.969	3271.2039
CCN1C=CC=C1OC	CCn1cccc1OC	
InChI=1S/C7H11NO/c1-3-8-6-4-5-7(8)9-2/h4-6H,3H2,1-2H3	InChI=1S/C7H11NO/c1-3-8-6-4-5-7(8)9-2/h4-6H,3H2,1-2H3
