21
gdb 84274	3.00999	1.42962	1.13412	0.9723	85.53	-0.222	0.0241	0.2462	1152.7814	0.183233	-387.073325	-387.064859	-387.063915	-387.105966	33.656	
C	-0.0801946092	 1.583866382	-0.0673559895	-0.426263
C	 0.026778199	 0.056926062	-0.0145897672	-0.020245
C	 0.8543025864	-0.5429180536	-1.1538641735	-0.243438
C	 1.5058619847	-1.60872803	-0.7052685415	 0.304674
C	 2.7853283427	-2.4082816168	-0.7907115164	-0.323789
C	 2.8885175585	-2.1799862034	 0.7660615806	-0.239074
C	 1.3619663966	-1.8175586335	 0.7765914514	-0.044884
C	 0.750514534	-0.4924321876	 1.2775070923	 0.06153
O	 1.8073188216	 0.3502722336	 1.7116358891	-0.425349
H	 0.9114561356	 2.0463394747	-0.0837235545	 0.125385
H	-0.6120377446	 1.9044824495	-0.9685459118	 0.118132
H	-0.6350352815	 1.9787848478	 0.7927312757	 0.104203
H	-0.9949341605	-0.3536217947	-0.0209734437	 0.07491
H	 0.9378601001	-0.0732482475	-2.1278897652	 0.08542
H	 2.6240424924	-3.4656408765	-1.0280053301	 0.107398
H	 3.5861834597	-2.0236581324	-1.4268797621	 0.108865
H	 3.2009505952	-3.0357369907	 1.368878361	 0.094114
H	 3.4993798941	-1.3105865402	 1.0082917064	 0.131757
H	 0.7469323616	-2.6786699857	 1.0622305497	 0.070751
H	 0.0281951687	-0.6402309743	 2.0942964865	 0.051684
H	 1.4247846148	 1.1833485271	 2.0026988826	 0.284218
89.4937	172.8363	231.5822	238.4638	267.5233	311.1623	339.437	364.0594	458.6439	520.5685	654.3133	679.5829	713.8293	786.0925	814.9385	829.6759	841.6923	900.9104	901.774	942.3831	982.9998	1014.8358	1029.821	1061.0968	1081.9407	1102.605	1145.4211	1156.6869	1175.0546	1197.141	1232.7774	1235.5184	1253.6875	1269.3771	1281.8538	1324.1241	1344.0026	1356.3919	1395.4267	1423.54	1474.7262	1488.2236	1497.7469	1506.6651	1736.6854	2971.4892	2988.9102	3023.8523	3037.226	3043.0976	3073.9429	3089.0121	3100.3422	3107.441	3151.5248	3186.9222	3829.0154
CC1C=C2CCC2C1O	C[C@H]1[CH][C]2CC[C@H]2[C@H]1O	
InChI=1S/C8H12O/c1-5-4-6-2-3-7(6)8(5)9/h4-5,7-9H,2-3H2,1H3	InChI=1S/C8H12O/c1-5-4-6-2-3-7(6)8(5)9/h4-5,7-9H,2-3H2,1H3/t5-,7+,8-/m0/s1
