20
gdb 75579	2.44993	1.50697	1.09736	3.6339	82.42	-0.2376	-0.0171	0.2205	1171.3357	0.172952	-403.200957	-403.192235	-403.191291	-403.234141	33.338	
C	 0.004578767	 1.5274849956	 0.1264331826	-0.477092
C	-0.01392104	 0.0298937783	-0.0174507245	 0.208527
C	-1.1308977136	-0.705931932	 0.0662139952	-0.153349
C	-1.1853849362	-2.2160445746	 0.0313275481	-0.251635
C	-0.7762785514	-2.8365089293	-1.3225047879	-0.186696
C	 0.4461787171	-2.1221765631	-1.9211741491	-0.163334
N	 1.4334997597	-1.7260823541	-0.921577115	-0.308147
C	 1.3447334131	-0.6040264758	-0.1350650269	 0.32551
O	 2.3168272826	-0.1505067418	 0.4480699464	-0.379879
H	 0.6719720674	 1.8126484943	 0.9447908276	 0.153806
H	 0.3959381067	 2.0114140123	-0.7765112121	 0.125296
H	-0.9964881607	 1.9197054574	 0.3218785901	 0.112613
H	-2.0744975468	-0.1830968624	 0.2109278873	 0.090068
H	-0.5084198423	-2.6109360379	 0.7972555856	 0.12649
H	-2.1887637033	-2.5583690069	 0.2998864814	 0.101191
H	-0.5672271505	-3.9012359323	-1.1693984683	 0.101047
H	-1.598373593	-2.7727046628	-2.0449988553	 0.101205
H	 0.9479658985	-2.7678843618	-2.6467018574	 0.110356
H	 0.108868128	-1.2339973309	-2.4667236705	 0.119511
H	 2.3742086673	-2.0823859923	-1.0032933373	 0.244512
88.429	135.2697	169.4319	219.1889	277.1082	296.1091	358.1277	372.4349	398.6059	527.2158	558.7756	607.5938	641.4488	709.5169	781.0283	802.003	847.4075	882.427	922.5171	995.6507	1024.6858	1068.9094	1071.1256	1085.7087	1128.6824	1158.4405	1232.4757	1265.6413	1284.6008	1321.1861	1349.1851	1380.8435	1396.2039	1406.6523	1417.0713	1448.1875	1472.1545	1482.9192	1491.4414	1496.4919	1499.4746	1702.5205	1761.9222	3031.6646	3032.2048	3037.47	3042.6174	3072.3266	3088.8835	3092.4834	3098.247	3126.1341	3142.439	3615.9962
CC1=CCCCNC1=O	CC1=CCCCNC1=O	
InChI=1S/C7H11NO/c1-6-4-2-3-5-8-7(6)9/h4H,2-3,5H2,1H3,(H,8,9)	InChI=1S/C7H11NO/c1-6-4-2-3-5-8-7(6)9/h4H,2-3,5H2,1H3,(H,8,9)
