12
gdb 130524	4.16451	1.70128	1.20785	1.761	68.42	-0.2732	-0.0864	0.1868	904.9685	0.080641	-431.686647	-431.680942	-431.679998	-431.716678	22.466	
O	-0.0509565979	 1.3162348631	 0.0096768905	-0.248315
N	 1.3422628995	 1.7743253494	-0.0008202028	 0.00961
N	 2.1014238039	 0.7886725131	-0.0138882904	-0.185722
C	 1.3654376683	-0.391022435	-0.0135282314	 0.275582
C	 0.0241435937	-0.0161110099	 0.0014029522	 0.320275
C	-0.9762338813	-0.9911926123	 0.005388797	-0.085595
N	-0.6383122581	-2.2742102607	-0.0051382922	-0.258648
C	 0.6633828307	-2.6288743274	-0.0195706527	 0.018864
C	 1.7254689153	-1.7349194242	-0.0246116786	-0.248534
H	-2.0311881946	-0.736908204	 0.0168893979	 0.140761
H	 0.8542388325	-3.6975166269	-0.0274964688	 0.126583
H	 2.7572526881	-2.0619642252	-0.0363357907	 0.135139
225.024	259.7806	396.3794	437.1963	538.6335	581.2913	614.6785	643.6421	667.4249	812.6134	813.056	851.1996	903.0628	945.125	984.4695	994.5541	1048.6674	1192.1631	1241.1565	1284.6986	1321.3126	1337.2646	1454.3046	1487.8691	1518.1165	1617.0901	1639.8241	3179.2598	3184.5943	3222.8781
O1N=NC2=C1C=NC=C2	o1nnc2c1cncc2	
InChI=1S/C5H3N3O/c1-2-6-3-5-4(1)7-8-9-5/h1-3H	InChI=1S/C5H3N3O/c1-2-6-3-5-4(1)7-8-9-5/h1-3H
