19
gdb 106240	2.20302	1.44434	1.03887	4.7509	77.12	-0.2337	-0.0045	0.2292	1203.2982	0.157679	-423.014874	-423.005719	-423.004775	-423.048798	34.083	
C	 0.0360018898	 1.5037875	-0.41427375	-0.422148
C	 0.0835671724	 0.0357488566	-0.0404453874	-0.078587
C	 1.3507834478	-0.8190319636	-0.018521208	-0.233946
C	 2.4853805149	-0.0575850969	 0.5975320036	 0.428775
O	 3.6372769805	 0.0919703243	 0.3003275969	-0.323139
C	 1.6747727719	 0.2801667652	 1.8740732498	-0.426289
C	 0.5136938301	-0.5293078185	 1.2699049298	 0.350503
C	-0.3060458841	-1.5040818565	 2.0560475315	-0.196673
O	 0.5727093543	-2.354768171	 2.7783258296	-0.416683
H	 0.8734886484	 2.0708771919	-0.0018825871	 0.133477
H	 0.0665592467	 1.6186222436	-1.5024701723	 0.128791
H	-0.891048452	 1.9644563943	-0.0556666118	 0.119985
H	-0.7343454309	-0.5348855255	-0.4808390594	 0.093681
H	 1.4322306486	-1.7174061651	-0.6187884581	 0.106652
H	 2.1209994893	-0.2325517318	 2.7301961138	 0.147526
H	 1.5037920096	 1.3307320459	 2.1241673622	 0.111464
H	-0.9723091303	-0.9532499109	 2.7405722115	 0.095308
H	-0.9494688543	-2.07871308	 1.3699008926	 0.089936
H	 0.0515113472	-2.8675705923	 3.4028344128	 0.291368
84.9134	103.0432	167.099	179.3846	234.2962	274.1432	279.4145	322.012	439.963	467.3628	537.6395	590.8615	622.0486	652.638	749.5267	827.0654	892.2702	932.7551	958.1026	1011.8493	1020.6367	1038.6415	1061.4135	1100.1875	1112.6381	1126.2426	1140.1896	1203.7528	1220.8694	1230.6365	1264.9461	1323.3304	1327.7698	1417.7953	1439.2742	1461.6124	1483.112	1495.9158	1506.4537	1510.0632	1879.3655	2958.2679	2985.7083	3038.0553	3062.8868	3098.3171	3104.644	3121.7486	3128.1955	3190.5919	3833.5043
CC1C2C(=O)CC12CO	C[C@H]1[C@H]2C(=O)C[C@@]12CO	
InChI=1S/C7H10O2/c1-4-6-5(9)2-7(4,6)3-8/h4,6,8H,2-3H2,1H3	InChI=1S/C7H10O2/c1-4-6-5(9)2-7(4,6)3-8/h4,6,8H,2-3H2,1H3/t4-,6-,7+/m0/s1
