16
gdb 54017	2.22937	1.62555	0.95298	0.4713	69.26	-0.2653	-0.0298	0.2355	1171.7884	0.123529	-471.277738	-471.268505	-471.267561	-471.313121	32.925	
C	 0.4491837219	-0.6564552297	 1.2736488345	-0.455725
C	-0.4101148338	-0.1397978181	 0.1478443326	 0.442478
O	-1.0856764984	 0.8601029044	 0.3225154613	-0.360028
N	-0.3929455147	-0.8077234711	-1.1019339607	-0.242502
C	 0.2299786559	-2.0577172635	-1.3307403969	 0.107243
N	 0.703885536	-2.8004974728	-0.4191441098	-0.475192
C	-1.0093404456	-0.2619402548	-2.3183687242	 0.50371
N	-1.7393968286	 0.8525266762	-2.1586066008	-0.561651
O	-0.8427365706	-0.8226408392	-3.3822580375	-0.389354
H	 0.0716383149	-1.6101204208	 1.644950352	 0.173786
H	 1.4737486276	-0.8466716621	 0.951115185	 0.155517
H	 0.4159854087	 0.1015599284	 2.0565650188	 0.134177
H	 0.2136163312	-2.280360147	-2.394933991	 0.165965
H	 1.0883028547	-3.6427783476	-0.8441685253	 0.237246
H	-1.8307191583	 1.2734774172	-1.2423097984	 0.296948
H	-2.1432457407	 1.2370680105	-2.9952056598	 0.267384
27.4716	52.5899	111.9634	225.2142	248.242	316.1434	330.6465	399.0619	407.7038	432.1304	475.4098	587.5383	624.1847	639.7964	713.3426	742.5998	782.5744	845.0443	939.4976	1044.2793	1061.4021	1102.0676	1131.5645	1179.0679	1234.3709	1338.089	1358.5629	1400.5938	1421.9762	1440.8077	1466.9239	1564.982	1728.8055	1757.9258	1827.4627	3072.4731	3149.5646	3165.5316	3168.4664	3496.9341	3497.9143	3711.8277
CC(=O)N(C=N)C(N)=O	CC(=O)N(C=N)C(=O)N	
InChI=1S/C4H7N3O2/c1-3(8)7(2-5)4(6)9/h2,5H,1H3,(H2,6,9)	InChI=1S/C4H7N3O2/c1-3(8)7(2-5)4(6)9/h2,5H,1H3,(H2,6,9)
