18
gdb 77993	3.06318	1.23776	1.04045	3.3467	78.45	-0.2615	0.0159	0.2774	1183.298	0.147599	-401.936723	-401.928073	-401.927129	-401.969673	32.85	
C	-0.1913611327	 1.5783385138	 0.0379344152	-0.418326
C	 0.094716542	 0.0816856211	 0.0209919534	 0.038942
C	 1.2073194949	-0.4938903123	-0.9161695683	-0.311516
C	 1.8192000503	-1.2474690498	 0.2799969015	 0.14363
C	 2.2994942853	-2.5873189459	 0.2598295441	 0.180459
N	 2.695167543	-3.6761397489	 0.2394590078	-0.352678
C	 2.2198692323	-0.2610563182	 1.3613953414	 0.061505
O	 2.7057641657	 1.0071238302	 1.0560856526	-0.407185
C	 0.7739072254	-0.5748190379	 1.2355000383	-0.155953
H	 0.7185851048	 2.152918393	 0.2171749851	 0.145629
H	-0.6239245635	 1.895107331	-0.9175285206	 0.114316
H	-0.9132505336	 1.8256916512	 0.8240686978	 0.116028
H	-0.8325378924	-0.4641698499	-0.1786182971	 0.089471
H	 0.8230413648	-1.1580161657	-1.6904385406	 0.124596
H	 1.8784042534	 0.2405767581	-1.367833151	 0.109641
H	 2.6964949878	-0.7392725608	 2.2172417251	 0.114046
H	 3.6367213841	 0.9257331548	 0.8203629454	 0.296681
H	 0.2433979786	-1.0435919137	 2.0565343698	 0.110714
117.7765	147.3923	189.7087	209.1466	232.7404	305.2389	318.5668	373.1663	451.8463	493.1849	550.2278	582.7579	651.2237	702.2417	795.7365	854.8843	876.9324	899.4408	985.1216	991.4592	1034.1146	1076.3993	1100.7701	1121.411	1144.8675	1188.903	1218.799	1247.7391	1255.6825	1291.3021	1314.7843	1344.5753	1375.1247	1410.3802	1469.5306	1490.123	1496.9571	1507.1761	2336.7562	3035.36	3054.8034	3073.9668	3093.1775	3110.9081	3137.7664	3144.8312	3181.8337	3801.7335
CC1CC2(C#N)C(O)C12	C[C@H]1C[C@@]2(C#N)[C@@H](O)[C@@H]12	
InChI=1S/C7H9NO/c1-4-2-7(3-8)5(4)6(7)9/h4-6,9H,2H2,1H3	InChI=1S/C7H9NO/c1-4-2-7(3-8)5(4)6(7)9/h4-6,9H,2H2,1H3/t4-,5+,6-,7-/m0/s1
