20
gdb 64341	2.43505	1.50806	1.19229	3.0983	76.85	-0.253	0.0213	0.2743	1130.3018	0.170408	-440.304109	-440.295138	-440.294194	-440.337516	34.339	
C	 0.0443984711	 1.4752877047	 0.1094946181	-0.421007
C	-0.0884339759	-0.0351769584	-0.0505404669	 0.329916
C	-1.549808404	-0.4727064017	-0.1820253132	-0.410277
C	 0.7506854023	-0.5455596068	-1.2239603746	-0.107222
O	 0.7920776488	-1.9575435385	-1.2269752108	-0.244165
C	 1.469525563	-2.4331384954	-0.0799922732	-0.159269
C	 0.9405362101	-1.8610271615	 1.2206705126	 0.358171
N	 1.0699144563	-2.5152138835	 2.2958722746	-0.509626
O	 0.4370577908	-0.5977069247	 1.1900247697	-0.284526
H	 1.0914094357	 1.7602529407	 0.2456634234	 0.125345
H	-0.3473426088	 1.9906692664	-0.7726516209	 0.120821
H	-0.5187582769	 1.8129606723	 0.9836133666	 0.131849
H	-2.0278975568	 0.0326328652	-1.0271332817	 0.116737
H	-1.6126190866	-1.5508610328	-0.3477792274	 0.1377
H	-2.0996485641	-0.2217568928	 0.7286006887	 0.125925
H	 0.3022638671	-0.2353627964	-2.1718943221	 0.116134
H	 1.7697279024	-0.1284516298	-1.1654858507	 0.092912
H	 1.3694662574	-3.518030582	-0.0553898009	 0.146496
H	 2.5435063263	-2.1871718014	-0.1451832642	 0.116376
H	 0.7208326918	-1.9670866136	 3.0853169131	 0.21771
76.898	118.6058	200.9313	234.6634	270.7847	295.8009	321.9664	393.8378	434.2238	444.2787	472.9011	505.36	552.615	639.8874	805.3137	836.9044	905.2443	917.6378	934.3311	944.2923	989.0337	1004.3913	1027.8412	1060.7025	1124.9391	1156.7816	1185.931	1226.3091	1262.6704	1276.8206	1331.4715	1355.5181	1374.9577	1395.6274	1407.4991	1424.1378	1473.5222	1477.6114	1482.9746	1492.7857	1495.9109	1507.1995	1750.8043	2962.918	2972.7458	3042.1885	3046.9847	3093.0371	3115.5979	3120.6457	3123.4512	3133.3257	3138.5954	3459.1323
CC1(C)COCC(=N)O1	CC1(C)COC[C]([NH])O1	
InChI=1S/C6H11NO2/c1-6(2)4-8-3-5(7)9-6/h7H,3-4H2,1-2H3	InChI=1S/C6H11NO2/c1-6(2)4-8-3-5(7)9-6/h7H,3-4H2,1-2H3
