20
gdb 95866	2.31193	1.32766	1.07473	3.5923	78.18	-0.2714	0.035	0.3064	1201.1822	0.172939	-403.188493	-403.179881	-403.178937	-403.221601	33.202	
O	-0.0900199051	 1.4726927601	 0.0668879854	-0.438686
C	 0.0460477883	 0.0583913074	 0.0369703253	 0.130241
C	 0.7742334452	-0.4786080069	 1.2758737655	-0.21716
C	 0.7926618201	-2.0144352365	 1.3020739551	-0.214083
C	-0.6266370913	-2.5890081131	 1.2115124313	-0.201813
C	-1.3842124699	-2.0524395657	-0.0286076558	-0.16164
C	-1.3719352857	-0.506056858	-0.0533550909	-0.205563
C	-0.8159610603	-2.6069933993	-1.2643072559	 0.280136
N	-0.3622702567	-3.0482131953	-2.2320483523	-0.338065
H	 0.7923864877	 1.8561024316	 0.0983273335	 0.281993
H	 0.6016551034	-0.2515740606	-0.8636829201	 0.086685
H	 1.7991315429	-0.087162757	 1.3005449203	 0.087767
H	 0.2633194601	-0.0896196828	 2.1665507455	 0.102662
H	 1.3899732582	-2.3923210445	 0.4627190652	 0.12235
H	 1.278656607	-2.3715245783	 2.215741513	 0.103469
H	-0.6029295025	-3.6824740456	 1.1882863053	 0.116011
H	-1.2033895388	-2.2964458691	 2.0974444293	 0.105683
H	-2.4252419715	-2.3931155529	 0.0154891868	 0.124936
H	-1.945973621	-0.1446482979	 0.8077136447	 0.111663
H	-1.8624029901	-0.1289335655	-0.9546902511	 0.123413
102.2147	112.4743	199.4056	251.7376	276.8653	328.2529	339.5182	392.3516	409.9254	466.3528	512.104	598.8841	680.4455	771.5669	810.4247	864.68	884.3497	911.1671	948.8052	985.342	1037.2458	1053.9728	1077.6858	1104.2893	1130.7961	1154.0321	1185.3622	1227.5165	1266.126	1285.8611	1309.2555	1332.7483	1344.2315	1355.6024	1370.9419	1386.6131	1399.7772	1444.0318	1480.1578	1484.0373	1491.6631	1503.4807	2350.8635	2966.4865	3016.8457	3030.304	3033.8096	3041.5627	3051.9112	3059.4124	3079.5333	3089.8051	3101.8557	3816.7005
OC1CCCC(C1)C#N	O[C@H]1CCC[C@@H](C1)C#N	
InChI=1S/C7H11NO/c8-5-6-2-1-3-7(9)4-6/h6-7,9H,1-4H2	InChI=1S/C7H11NO/c8-5-6-2-1-3-7(9)4-6/h6-7,9H,1-4H2/t6-,7-/m0/s1
