20
gdb 19688	4.43869	1.58758	1.47226	0.2332	77.52	-0.2424	0.0866	0.329	955.2551	0.178623	-311.821412	-311.814232	-311.813288	-311.852786	28.727	
C	-0.1550144465	 1.5308941612	-0.0142897179	-0.376946
C	 0.0465846979	 0.0134444867	 0.061989349	-0.21085
C	 0.6647050701	-0.5694787291	-1.2056796436	 0.053587
C	 0.7930659251	-2.0795978374	-1.4084503592	-0.0909
C	-0.4949033357	-2.5805612573	-2.088141567	-0.059759
C	-1.4084209427	-1.3770371007	-2.3060986633	-0.232459
C	-0.1047595434	-0.5732160829	-2.5687153036	-0.077771
C	 0.6103010074	-1.9481587938	-2.8994734866	-0.08446
H	 0.7947302046	 2.0478418032	-0.192706559	 0.111877
H	-0.834457436	 1.8005566518	-0.8302326621	 0.116496
H	-0.5790865161	 1.9257636296	 0.9141380453	 0.109923
H	 0.7027406813	-0.2269802182	 0.9093910342	 0.090884
H	-0.9086624832	-0.4779528983	 0.2781648277	 0.097431
H	 1.6472642152	-0.1101843507	-1.3755522834	 0.063987
H	 1.4407759423	-2.7703736163	-0.8821925431	 0.077011
H	-0.7657115571	-3.6280918533	-2.0472704167	 0.079983
H	-1.9876851347	-1.4912474301	-3.2269466465	 0.095667
H	-2.0732226468	-1.0459314035	-1.500507075	 0.086693
H	-0.1170198754	 0.3132446023	-3.1997544068	 0.064318
H	 1.1956169636	-2.3021010531	-3.7352581126	 0.085288
82.8969	167.9982	201.9368	285.0358	366.3087	481.8743	541.6395	686.8822	734.9684	769.5991	787.6276	800.4301	817.5477	868.6714	907.1105	939.7092	956.3302	993.8775	997.0916	1014.2953	1029.7251	1038.6722	1039.223	1098.3763	1100.55	1130.9785	1151.7669	1169.9855	1179.0605	1211.3	1246.9217	1274.0312	1287.927	1325.9522	1341.3322	1369.3076	1406.7711	1413.8003	1484.841	1500.6434	1502.5561	1514.1436	3017.9486	3021.1374	3029.6151	3036.8667	3060.4471	3090.2531	3096.3646	3101.2655	3131.4212	3183.1617	3193.5123	3224.8128
CCC1C2C3CC1C23	CC[C@H]1[C@H]2[C@H]3C[C@@H]1[C@@H]23	
InChI=1S/C8H12/c1-2-4-5-3-6-7(4)8(5)6/h4-8H,2-3H2,1H3	InChI=1S/C8H12/c1-2-4-5-3-6-7(4)8(5)6/h4-8H,2-3H2,1H3/t4-,5+,6-,7+,8-/m1/s1
