18
gdb 127423	2.92006	1.22167	0.91655	1.5294	76.33	-0.2418	0.0007	0.2424	1287.027	0.147725	-435.278455	-435.26885	-435.267905	-435.31413	33.05	
C	-0.063912816	 1.4196672003	-0.0011253106	-0.310179
N	-0.0613617868	-0.0275983952	 0.0215790874	 0.146734
N	 0.0299809119	-0.7507991227	-1.0924113563	-0.296857
C	 0.0759884888	-2.0125380545	-0.6582055176	 0.247786
C	 0.1655200499	-3.1824832092	-1.5826763396	-0.504814
C	 0.0171376804	-1.9913114745	 0.7524713839	 0.19783
C	 0.0583464574	-3.1302732616	 1.7226520903	-0.173916
O	 1.2205333242	-3.9419415938	 1.5656178321	-0.411764
N	-0.0598481291	-0.7185675379	 1.1538800176	-0.295402
H	 0.9521664748	 1.8096336608	-0.119113851	 0.146732
H	-0.6766767115	 1.7589180322	-0.837185813	 0.156831
H	-0.4810090279	 1.7702243465	 0.9423075865	 0.159537
H	 0.8183114935	-3.9488735231	-1.1576732058	 0.14839
H	-0.8175695761	-3.640803711	-1.7442005224	 0.133524
H	 0.5531778948	-2.8728596515	-2.5555502984	 0.138821
H	-0.0293397131	-2.7312281425	 2.7422033196	 0.112407
H	-0.7843368719	-3.8107321	 1.5600010489	 0.119725
H	 1.9862679868	-3.3683563721	 1.6764268683	 0.284615
42.4657	61.8745	102.1042	140.788	184.3107	235.0779	278.436	290.952	364.2933	418.522	494.9652	635.6705	668.828	676.8036	777.0804	803.8457	971.6777	1019.058	1031.869	1050.3159	1069.3119	1089.4471	1147.143	1198.6341	1239.7903	1340.3684	1350.423	1377.7426	1409.8246	1417.0725	1427.9589	1446.9375	1482.2243	1483.6849	1490.9718	1500.8139	1506.0415	1534.0606	1551.2511	3017.426	3035.9888	3050.9836	3072.3066	3100.7619	3129.6065	3139.9272	3173.6495	3810.375
CN1N=C(C)C(CO)=N1	Cn1nc(C)c(CO)n1	
InChI=1S/C5H9N3O/c1-4-5(3-9)7-8(2)6-4/h9H,3H2,1-2H3	InChI=1S/C5H9N3O/c1-4-5(3-9)7-8(2)6-4/h9H,3H2,1-2H3
