20
gdb 40468	3.66996	1.29734	1.18349	1.9996	83.13	-0.2269	0.0876	0.3145	1123.1942	0.172102	-365.898341	-365.890895	-365.889951	-365.930535	30.001	
C	-0.1453803516	 1.4385042364	-0.1522900452	-0.267749
C	 1.2708147629	 0.9882648768	 0.0942575899	-0.26775
C	 0.1515626955	-0.0269738038	 0.0675216447	-0.147433
C	-0.2811759985	-0.699632814	 1.3252221313	 0.352043
C	-0.3642174097	-0.1684556175	 2.7571801595	-0.240162
N	-0.8527147517	-1.5954815618	 2.9726456854	-0.163996
C	-1.5745982143	-1.5452053092	 1.6002024753	-0.046773
C	-0.9403512324	-2.8715649179	 1.1716835871	-0.262889
C	 0.1559552186	-2.0918721399	 1.9033460991	-0.046713
H	-0.6503458083	 1.975774373	 0.6436357919	 0.113797
H	-0.4201996669	 1.7609743334	-1.1502879589	 0.113145
H	 1.970152593	 1.0009989627	-0.7341601577	 0.113145
H	 1.7155365601	 1.2236525524	 1.0554920471	 0.113775
H	 0.1047382168	-0.6583000947	-0.8164941714	 0.080724
H	 0.5704147861	 0.0540670313	 3.28408827	 0.096781
H	-1.1220986177	 0.5886633691	 2.9875481607	 0.096787
H	-2.6119602134	-1.2095072858	 1.5385024056	 0.078579
H	-1.3117093035	-3.7650948406	 1.6802362611	 0.107827
H	-0.8063602488	-3.0412975513	 0.100684273	 0.09829
H	 1.1606109338	-2.4012149785	 2.1993023115	 0.078572
63.4014	161.1917	173.1065	298.1946	381.0889	467.2392	476.3603	586.1791	719.325	775.6707	796.0665	824.2045	848.4267	871.5779	888.9592	889.1638	917.5842	933.1103	948.9517	998.8987	1010.7516	1037.4905	1061.5851	1066.938	1078.8301	1088.3306	1123.908	1132.804	1139.8339	1141.141	1195.5481	1196.855	1200.0721	1220.6949	1223.8067	1260.515	1297.4413	1327.0418	1424.8301	1467.5068	1489.2764	1503.3419	1520.3145	3026.5995	3058.3972	3083.9075	3090.1013	3097.4672	3123.3909	3131.7397	3132.3728	3137.4413	3210.031	3224.9842
C1CC1C12CN3C1CC23	C1CC1[C@@]12CN3[C@@H]1C[C@@H]23	
InChI=1S/C8H11N/c1-2-5(1)8-4-9-6(8)3-7(8)9/h5-7H,1-4H2	InChI=1S/C8H11N/c1-2-5(1)8-4-9-6(8)3-7(8)9/h5-7H,1-4H2/t6-,7+,8+
