25
gdb 121799	3.11011	0.70682	0.66842	0.6832	95.85	-0.256	0.0627	0.3187	1861.4084	0.225532	-352.338599	-352.326904	-352.32596	-352.37549	43.137	
C	-0.1184314129	 1.5536598968	-0.1606787913	-0.381814
C	-0.0254701427	 0.0299505157	-0.0442671448	-0.163388
C	 0.7237774951	-0.4341192861	 1.2117092878	-0.188604
C	 0.8045560656	-1.9627041576	 1.3066701769	-0.185664
C	 1.5453775475	-2.5482596774	 2.5463272398	 0.049397
C	 3.0250012259	-2.0991203161	 2.5797059944	-0.402786
C	 0.847756331	-2.1356562212	 3.8636188117	-0.402781
C	 1.5029247694	-4.0118166965	 2.4327054249	 0.347601
C	 1.4639033412	-5.2097385159	 2.3331534823	-0.497614
H	 0.8771458229	 2.0097063189	-0.2006159361	 0.113158
H	-0.6575287197	 1.853129408	-1.064937342	 0.111506
H	-0.6441054969	 1.9855639473	 0.698319331	 0.113154
H	-1.035619971	-0.4004245107	-0.0423578429	 0.095801
H	 0.4736468154	-0.3764465563	-0.9338483806	 0.095803
H	 1.7312597924	 0.000461739	 1.203088055	 0.096345
H	 0.2197641275	-0.0238402826	 2.0957840439	 0.09633
H	-0.2114191105	-2.3765511864	 1.2970344423	 0.100956
H	 1.2972331695	-2.3520183297	 0.4070788175	 0.10097
H	 3.0988919271	-1.0173662361	 2.723465703	 0.114539
H	 3.5541498635	-2.5872787627	 3.4027574387	 0.121495
H	 3.534408374	-2.3608491765	 1.6477235133	 0.119717
H	-0.2074722512	-2.4237315614	 3.8543301202	 0.119724
H	 1.3241307961	-2.6246596957	 4.7178193657	 0.121501
H	 0.9107854839	-1.0540834852	 4.0137785658	 0.114537
H	 1.4302337868	-6.2674876617	 2.2478269235	 0.190117
55.6291	81.647	100.5856	140.907	178.6094	181.6768	241.8906	258.2904	264.2547	287.628	353.1198	353.4011	374.2895	453.9992	553.2982	569.0127	624.6251	625.7294	725.8845	737.4606	791.5474	886.5391	902.764	920.0928	947.3105	981.7408	1025.9939	1028.1953	1066.0588	1073.581	1117.5986	1209.1852	1219.3515	1226.2977	1265.6158	1298.7574	1330.47	1341.8934	1372.4118	1396.9322	1398.6842	1412.7259	1419.5738	1479.4008	1482.7322	1487.2458	1492.1565	1499.2327	1499.2841	1503.3873	1510.4273	1514.1476	2229.0368	3013.7727	3019.221	3027.4079	3030.7562	3036.9923	3040.1768	3043.8622	3052.2461	3075.2257	3095.4659	3100.9778	3114.2172	3115.2559	3117.2372	3118.7898	3503.135
CCCCC(C)(C)C#C	CCCCC(C)(C)C#C	
InChI=1S/C9H16/c1-5-7-8-9(3,4)6-2/h2H,5,7-8H2,1,3-4H3	InChI=1S/C9H16/c1-5-7-8-9(3,4)6-2/h2H,5,7-8H2,1,3-4H3
