15
gdb 29677	2.45287	2.01786	1.11481	2.3121	71.66	-0.245	-0.0455	0.1995	1016.6483	0.114682	-450.165915	-450.158004	-450.15706	-450.199341	28.564	
C	-0.5445981234	 1.3256897183	-0.0010843874	-0.331817
N	-0.0747016527	-0.0622866498	 0.0139307831	-0.167826
C	 0.153269533	-0.6469294569	-1.2095643743	 0.480842
N	-0.0235292207	-0.0459584823	-2.3064286536	-0.565742
O	 0.5990172435	-1.9651754671	-1.1755029127	-0.214384
C	 0.7723460786	-2.5629465904	 0.0225682062	 0.122591
N	 0.5735614545	-2.0582804537	 1.16627841	-0.309211
C	 0.1210769318	-0.7274208294	 1.2342966212	 0.427682
N	-0.1072593779	-0.1320840338	 2.3345893995	-0.539837
H	 0.1882148662	 1.9577556985	-0.5076872124	 0.147074
H	-1.4870394654	 1.3900762856	-0.5495372225	 0.147101
H	-0.6754065606	 1.6357086258	 1.0320455881	 0.177293
H	 0.2018174803	-0.6547911597	-3.0890800803	 0.235891
H	 1.1212900766	-3.5839879132	-0.103407348	 0.154896
H	 0.0926097663	-0.7767298118	 3.0966016232	 0.235446
39.8745	109.3893	128.1364	215.5218	355.23	407.2956	430.752	527.6365	544.183	562.0292	700.5408	708.7748	748.5447	810.2813	868.9243	899.9561	944.4466	981.1412	1019.0257	1067.9866	1162.0078	1166.8287	1190.2779	1262.9614	1353.2119	1402.0904	1423.0977	1464.6816	1491.3285	1505.9101	1705.2377	1724.1683	1774.9348	3064.4951	3127.4854	3190.1041	3197.5802	3523.2262	3540.3007
CN1C(=N)OC=NC1=N	CN1[C@H]([NH])OC=N[C@@H]1[NH]	
InChI=1S/C4H6N4O/c1-8-3(5)7-2-9-4(8)6/h2,5-6H,1H3	InChI=1S/C4H8N4O/c1-8-3(5)7-2-9-4(8)6/h2-6H,1H3/t3-,4-/m0/s1
