18
gdb 109371	2.5254	1.37708	0.91837	2.3434	76.19	-0.2245	-0.0433	0.1812	1242.6109	0.148254	-439.099283	-439.090562	-439.089618	-439.132928	32.112	
O	 0.0167412351	 1.4110696721	-0.0343953183	-0.424867
C	-0.011183099	-0.004331694	-0.0802314981	-0.157625
C	-1.4373082728	-0.4800081673	-0.0269479113	 0.163535
C	-2.4919280824	 0.3428060387	 0.0530775167	-0.111603
C	-3.9085670654	-0.1447287333	 0.0632272613	-0.220516
N	-4.0001266878	-1.497533606	-0.4681949996	-0.305567
C	-3.0750710876	-2.4221684843	 0.1737956786	-0.276333
C	-1.636548716	-1.9447368574	 0.0002485394	 0.349639
O	-0.7043752581	-2.7252691618	-0.037029461	-0.332334
H	 0.9348725815	 1.6909204911	-0.0765906562	 0.292716
H	 0.4559000371	-0.3931874849	-0.9985763468	 0.114076
H	 0.5460166906	-0.4521523461	 0.7571347184	 0.111783
H	-2.3283806895	 1.4136720208	 0.1169898007	 0.128979
H	-4.2978309496	-0.0460171344	 1.0997536451	 0.097543
H	-4.5260926486	 0.5196223533	-0.5536969152	 0.11926
H	-4.9503955904	-1.8416985102	-0.3947297896	 0.225895
H	-3.241087904	-2.5424843981	 1.2649612338	 0.097797
H	-3.160730683	-3.4136793583	-0.2774851779	 0.127622
78.8074	105.4609	192.522	203.2748	224.7593	285.2191	329.9646	344.2897	464.2954	485.8947	543.7766	626.38	696.3186	748.2764	830.4078	863.7714	933.9301	985.9174	1006.2071	1032.1247	1056.6225	1080.7456	1141.9849	1176.4017	1195.2158	1214.6636	1243.8044	1259.1026	1273.4131	1299.059	1385.1177	1413.4464	1461.5872	1474.2261	1489.9029	1491.2143	1502.3866	1711.3775	1771.414	2869.4537	2885.9504	2981.0198	3000.9939	3041.4039	3097.6571	3193.1649	3536.9508	3846.0525
OCC1=CCNCC1=O	OCC1=CCNCC1=O	
InChI=1S/C6H9NO2/c8-4-5-1-2-7-3-6(5)9/h1,7-8H,2-4H2	InChI=1S/C6H9NO2/c8-4-5-1-2-7-3-6(5)9/h1,7-8H,2-4H2
