14
gdb 25385	2.99577	1.41041	0.95894	4.2724	79.55	-0.2331	-0.0944	0.1387	1135.748	0.101569	-436.727389	-436.720031	-436.719086	-436.759619	27.325	
N	-0.0647278527	 1.2723655836	 0.3942482177	-0.529766
C	-0.0481708551	 0.0724707318	-0.0142229587	 0.38217
O	 1.1392159609	-0.511039825	-0.4645279852	-0.260129
C	 1.1771504248	-1.7883273758	-0.9020130751	 0.290214
C	 2.5065261923	-2.2578949766	-1.3422152109	 0.095338
O	 3.5111873974	-1.5914284229	-1.3308301211	-0.258061
C	 0.0837587663	-2.5826763862	-0.937017644	-0.221344
C	-1.1726176127	-2.0493940601	-0.4907323286	-0.077075
C	-1.2289848451	-0.7751025922	-0.049301844	-0.136863
H	 0.8643976764	 1.6903959719	 0.3376920248	 0.233248
H	 2.4939640419	-3.3117090821	-1.6943515109	 0.087564
H	 0.1755879726	-3.5991055052	-1.2981195148	 0.128203
H	-2.0606959611	-2.670971047	-0.5118271461	 0.126857
H	-2.1435389458	-0.3140239041	 0.3006073468	 0.139643
103.9095	128.6275	179.4266	249.0911	410.8191	416.1948	466.7484	527.8944	587.3678	662.7716	704.9597	738.0583	815.1142	864.4296	889.1621	923.3948	981.1323	1011.7463	1012.7133	1042.9959	1107.9536	1162.7269	1220.0961	1271.6294	1390.6504	1418.8291	1441.9511	1598.6335	1676.1545	1736.605	1801.2547	2903.4634	3195.6561	3218.2729	3229.8277	3493.2956
N=C1OC(C=O)=CC=C1	[NH]C1=CC=C[C@H](O1)C=O	
InChI=1S/C6H5NO2/c7-6-3-1-2-5(4-8)9-6/h1-4,7H	InChI=1S/C6H6NO2/c7-6-3-1-2-5(4-8)9-6/h1-5,7H/t5-/m0/s1
