21
gdb 39094	3.32729	1.60837	1.38875	1.6547	80.85	-0.2406	0.0855	0.3261	1004.7553	0.18694	-387.07563	-387.06875	-387.067806	-387.106613	29.043	
C	-0.0969419306	 1.572097453	 0.1818836214	-0.26696
C	 1.4344347835	 1.4204137966	 0.0064140832	-0.051375
C	 1.7973707702	 0.629510811	 1.291654025	-0.207877
C	 0.6315534154	-0.4349773738	 1.2985866245	-0.316021
C	-0.0601622309	 0.015546488	 0.0123259066	 0.362863
C	-1.1147410703	-0.6590036108	-0.8224399904	-0.199573
O	-0.9464477367	-0.0848492799	-2.1246340048	-0.275823
C	 0.4021730807	 0.4006071653	-2.3036668279	-0.119533
C	 1.1340175832	 0.2433481094	-0.9658237347	-0.027174
H	-0.4639990528	 1.9673106848	 1.1337624428	 0.084358
H	-0.594857307	 2.0749637605	-0.6467286684	 0.115371
H	 2.0836652916	 2.2570915871	-0.2564346086	 0.058097
H	 2.7826891318	 0.1583550309	 1.2275862409	 0.097426
H	 1.7881718881	 1.2681637371	 2.1795228078	 0.097306
H	 1.0033837388	-1.4623539322	 1.2404828201	 0.098055
H	-0.0043069174	-0.3540183709	 2.1849668113	 0.098111
H	-0.9636209927	-1.7510433758	-0.8489888535	 0.085498
H	-2.1457137514	-0.4617329723	-0.5100424512	 0.104142
H	 0.8940944887	-0.1896737565	-3.0865312266	 0.096819
H	 0.3397452329	 1.4361517449	-2.6583256884	 0.10253
H	 1.8937683552	-0.5436529965	-1.0084314488	 0.063763
126.8608	254.3341	287.7754	323.9624	394.2041	440.397	529.6367	645.6107	697.3033	741.9419	805.5544	837.6072	850.7436	862.9529	884.7712	902.5224	926.5327	957.1344	987.8917	1003.9488	1037.7183	1042.043	1067.3052	1090.0271	1122.229	1129.6221	1148.076	1190.1537	1204.4504	1218.8263	1230.6926	1243.7919	1255.6561	1266.4034	1280.677	1307.7249	1325.6388	1358.4725	1378.0036	1395.5552	1493.8532	1500.3193	1514.5043	1520.7749	1533.6155	2965.1541	3017.713	3040.4092	3047.0747	3055.2221	3057.7491	3060.871	3065.4467	3085.2606	3100.0064	3104.4152	3140.2149
C1C2CCC11COCC21	C1[C@H]2CC[C@]31COC[C@@H]23	
InChI=1S/C8H12O/c1-2-8-3-6(1)7(8)4-9-5-8/h6-7H,1-5H2	InChI=1S/C8H12O/c1-2-8-3-6(1)7(8)4-9-5-8/h6-7H,1-5H2/t6-,7+,8+/m1/s1
