17
gdb 73119	2.83473	1.48543	1.23888	4.5945	67.31	-0.2619	0.0117	0.2737	1037.3725	0.136207	-458.999085	-458.991361	-458.990416	-459.03151	29.961	
O	-0.052401343	 1.4084694564	-0.0971057175	-0.478935
C	 0.0388470809	 0.0080265663	-0.0016134202	 0.377504
C	 0.3635708882	-0.7893291146	-1.2997548867	-0.30236
C	-0.860451964	-1.7086277215	-1.0136108732	-0.255998
C	-1.3391895766	-0.6954009794	 0.0599999896	 0.084493
O	-1.5491682668	-1.2085492109	 1.3702676166	-0.219091
C	-0.4082985494	-1.13178394	 2.1158616212	 0.430255
O	-0.3497065968	-1.5333994785	 3.2392546819	-0.330198
C	 0.7082036485	-0.4824956307	 1.2903945026	-0.439421
H	 0.8374279688	 1.768210146	-0.1821131748	 0.282148
H	 0.2096214845	-0.1563930192	-2.1764437048	 0.116805
H	 1.3444589411	-1.2655635841	-1.3664371027	 0.103597
H	-1.5417791746	-1.8936599017	-1.8448014048	 0.118257
H	-0.5907924774	-2.6653706183	-0.5606257076	 0.121357
H	-2.1919178164	-0.076335985	-0.2187487101	 0.108909
H	 1.4937129445	-1.2262677542	 1.127593758	 0.138951
H	 1.1396040585	 0.3397876394	 1.8654447024	 0.143728
71.9331	126.8435	251.3843	287.0857	344.7286	380.7646	415.1681	508.7597	549.6466	589.382	642.1984	697.1707	765.8778	817.7609	847.6158	901.8571	911.6912	944.8131	973.4158	1019.5649	1090.0131	1107.5386	1134.6981	1150.6504	1182.0715	1205.1315	1232.3052	1236.1478	1255.5354	1274.9001	1305.6295	1359.0307	1386.9211	1444.7185	1476.4692	1493.9079	1886.2838	3066.0413	3069.2306	3079.2145	3116.8904	3120.6235	3122.6992	3141.1816	3802.4418
OC12CCC1OC(=O)C2	O[C@]12CC[C@H]1OC(=O)C2	
InChI=1S/C6H8O3/c7-5-3-6(8)2-1-4(6)9-5/h4,8H,1-3H2	InChI=1S/C6H8O3/c7-5-3-6(8)2-1-4(6)9-5/h4,8H,1-3H2/t4-,6+/m1/s1
