18
gdb 15363	4.51286	1.01843	0.91886	3.8699	69.74	-0.2739	0.0031	0.277	1288.4018	0.152019	-384.950118	-384.941266	-384.940322	-384.98455	30.925	
C	 0.0744918825	 1.3680178117	-0.4443912288	-0.375053
C	-0.0821284401	 0.0800596903	 0.3710572046	-0.192762
C	-1.4568047442	-0.5401134582	 0.216671068	-0.016615
C	-1.7675632301	-1.4448453937	-0.9597328867	-0.321667
C	-1.6836096987	-2.0044678794	 0.436959804	 0.082946
O	-0.5538319512	-2.7741880302	 0.8063232842	-0.185869
C	-0.5107335089	-4.0405606197	 0.3386694153	 0.174523
O	 0.3734724561	-4.7947270523	 0.6112572367	-0.27204
H	 1.0712439809	 1.7986904783	-0.3099255539	 0.116693
H	-0.0698053355	 1.1789237425	-1.5132818714	 0.117853
H	-0.6586269746	 2.1232068722	-0.1401392354	 0.114085
H	 0.6801201832	-0.6472931518	 0.0751105694	 0.114631
H	 0.0968204328	 0.2897736383	 1.4329022614	 0.106544
H	-2.2744884304	 0.0949904418	 0.5494521225	 0.09315
H	-2.7380710839	-1.3942524417	-1.440570057	 0.121447
H	-0.9427870634	-1.6780586572	-1.6257400819	 0.128207
H	-2.5934867912	-2.3240451813	 0.9371079789	 0.1109
H	-1.3717988432	-4.2852510696	-0.3112068	 0.083025
47.192	94.1504	111.2434	145.1385	209.5334	243.0462	298.1028	361.8209	463.9411	569.3328	640.4148	756.9879	792.3337	836.2241	883.259	962.237	993.021	1018.4872	1047.2896	1052.0224	1076.0059	1110.5958	1140.6039	1168.5144	1177.8903	1198.2916	1247.3928	1294.6506	1342.9459	1382.1217	1412.7761	1419.9169	1427.5132	1480.6151	1491.5843	1499.3326	1508.4465	1868.5053	2966.14	3032.6779	3035.0175	3077.5615	3103.0468	3108.1955	3131.7819	3133.2351	3146.789	3220.7006
CCC1CC1OC=O	CC[C@H]1C[C@H]1OC=O	
InChI=1S/C6H10O2/c1-2-5-3-6(5)8-4-7/h4-6H,2-3H2,1H3	InChI=1S/C6H10O2/c1-2-5-3-6(5)8-4-7/h4-6H,2-3H2,1H3/t5-,6+/m0/s1
