16
gdb 64543	3.73063	1.14328	1.095	3.4993	70.6	-0.2576	-0.051	0.2066	1126.1657	0.122079	-437.875787	-437.867396	-437.866452	-437.909008	30.713	
C	 0.0104799183	 1.5890696949	 0.0195460611	-0.483604
C	 0.0302163657	 0.0813719282	-0.0551644655	 0.186866
C	-1.1669789653	-0.5925796965	 0.5684265934	 0.14672
O	-2.147492672	-0.0027427777	 0.9367348687	-0.251468
C	 0.6634250013	-0.7283608307	-1.1268065174	-0.063974
C	 1.9119789255	-0.074661292	-1.7133203708	-0.391181
C	 2.3985544023	-0.0173290171	-0.2558701462	 0.405495
O	 3.370879315	 0.3607575161	 0.3123621447	-0.280902
N	 1.2522235019	-0.7511174815	 0.2806005897	-0.217619
H	 0.8266499738	 2.0559782676	-0.5329503094	 0.133009
H	-0.9395900319	 1.952836786	-0.3792709713	 0.150264
H	 0.0734443563	 1.9113560526	 1.0625324338	 0.154075
H	-1.063600047	-1.6947130827	 0.6593469126	 0.096676
H	 0.1975843473	-1.6228983303	-1.5249695288	 0.11887
H	 2.5201557012	-0.7692897648	-2.2987236554	 0.152885
H	 1.8096361878	 0.863997698	-2.2610149391	 0.143889
82.4457	115.8845	140.6624	223.3064	248.3691	305.7035	384.9473	401.3698	500.5868	512.8478	603.0868	664.0518	730.1149	792.6791	847.5716	880.4248	960.324	995.2393	1016.5802	1026.7939	1034.2888	1066.2199	1099.3659	1150.484	1215.3851	1228.1117	1311.1104	1372.0423	1414.0962	1431.1197	1457.1511	1480.0697	1494.9903	1834.6257	1924.9906	2915.715	3060.9146	3076.5792	3127.8779	3131.0597	3147.1957	3180.0202
CC1(C=O)C2CC(=O)N12	C[C@@]1(C=O)[C@H]2CC(=O)N12	
InChI=1S/C6H7NO2/c1-6(3-8)4-2-5(9)7(4)6/h3-4H,2H2,1H3	InChI=1S/C6H7NO2/c1-6(3-8)4-2-5(9)7(4)6/h3-4H,2H2,1H3/t4-,6-,7?/m1/s1
