19
gdb 102843	1.84939	1.26091	0.79978	4.4296	78.52	-0.2692	0.0125	0.2817	1436.5755	0.157396	-419.226723	-419.216465	-419.215521	-419.263083	35.438	
C	-0.377000265	 1.5027487697	-0.2008882078	-0.399517
C	-0.1539586177	-0.0058220546	-0.0777133047	-0.184954
C	 0.713918557	-0.3859231592	 1.1222299473	 0.102826
C	 0.877276081	-1.9190877421	 1.2334083418	-0.342091
C	 1.5530300985	-2.3251488646	 2.4625699568	 0.260434
N	 2.075673472	-2.6173873769	 3.4509190343	-0.304105
O	 1.9935606228	 0.2151902914	 0.9440741059	-0.194756
C	 2.6421126666	 0.6930910643	 2.0337166911	 0.131461
N	 3.7895971072	 1.1946853438	 1.900343529	-0.441593
H	 0.5747548467	 2.0277353954	-0.3114526251	 0.148795
H	-0.9963787241	 1.7309755264	-1.0725756084	 0.122432
H	-0.8858873613	 1.9025082619	 0.6832982086	 0.116254
H	-1.1153512637	-0.52436393	 0.0177447746	 0.103993
H	 0.3263350748	-0.3901994859	-0.9856544563	 0.118484
H	 0.2547104489	-0.00713987	 2.0459581376	 0.100615
H	-0.1074014475	-2.397669585	 1.2009285495	 0.154273
H	 1.4490844314	-2.277435918	 0.3709983775	 0.168614
H	 2.0678614284	 0.5946882502	 2.9633519294	 0.103775
H	 4.1365165638	 1.5131722633	 2.8025874789	 0.23506
55.0199	64.0553	103.8827	126.0705	133.9731	202.7363	237.4755	262.1635	339.2076	391.4974	419.64	478.803	572.7813	596.14	786.3045	817.5501	873.3307	917.965	946.3027	980.0452	1025.6002	1038.3268	1069.2047	1105.4789	1140.5861	1151.1438	1235.8157	1278.956	1284.6772	1315.6541	1355.1804	1382.7424	1393.9916	1412.4599	1429.9446	1451.6643	1478.8675	1497.5768	1509.1789	1746.11	2362.3729	3011.9285	3032.674	3040.7567	3044.1092	3053.925	3072.1614	3100.3573	3108.8675	3131.0094	3522.6062
CCC(CC#N)OC=N	CC[C@@H](CC#N)O[CH][NH]	
InChI=1S/C6H10N2O/c1-2-6(3-4-7)9-5-8/h5-6,8H,2-3H2,1H3	InChI=1S/C6H10N2O/c1-2-6(3-4-7)9-5-8/h5-6,8H,2-3H2,1H3/t6-/m0/s1
