18
gdb 73965	3.46092	1.808	1.51614	2.6483	81.58	-0.1994	-0.042	0.1574	915.8587	0.148327	-364.683941	-364.677084	-364.67614	-364.714963	28.044	
C	-0.0788501036	 1.3222678278	-0.3139115308	-0.472975
C	-0.02279967	-0.0400030352	 0.2900637422	 0.272066
C	-1.0603777444	-0.9088792156	 0.3615482549	-0.059795
C	-1.6225776824	-1.5370675922	-0.9083365023	-0.088649
C	-0.3748323288	-2.3263113441	-1.3294132698	-0.065814
C	 0.6691311419	-2.2428936361	-0.1600478002	-0.02841
C	 1.2654352767	-0.8698312641	 0.3020216509	-0.323538
C	-0.6074881497	-2.3468861219	 0.6813206201	-0.028645
N	-1.4484851711	-2.9359714699	-0.4600364192	-0.162977
H	 0.5553869343	 1.3853311612	-1.2089646903	 0.125066
H	-1.1031268924	 1.5971844964	-0.5822159216	 0.127901
H	 0.2961519785	 2.085988996	 0.380780565	 0.13481
H	-2.3946887157	-1.2457042004	-1.6124369467	 0.096842
H	-0.2088355583	-2.6839201474	-2.3403458016	 0.092999
H	 1.3606823435	-3.0900277398	-0.1707712647	 0.073784
H	 1.9982727441	-0.417079051	-0.3760747847	 0.109684
H	 1.7725909178	-1.0045135023	 1.2677080197	 0.115718
H	-0.6713261205	-2.7857164714	 1.675767639	 0.081934
123.1028	157.3883	253.4726	357.0452	463.8403	522.2221	544.9964	618.7892	740.7319	747.7237	788.3911	805.5897	842.8512	854.3754	900.147	905.2517	943.4265	954.4307	979.2205	1001.3903	1026.4493	1036.9718	1051.166	1062.3364	1126.503	1135.8825	1172.0573	1185.3993	1217.3908	1230.4329	1263.9012	1268.8961	1309.4319	1321.9021	1403.0117	1456.3747	1470.6461	1484.9105	1609.8231	3004.1215	3009.3704	3048.9554	3062.6374	3077.7285	3104.6023	3126.9315	3162.8719	3173.0538
CC1=C2C3C4C(C1)C2N34	C[C]1[C]2[C@H]3[C@H]4[C@@H](C1)[C@@H]2N34	
InChI=1S/C8H9N/c1-3-2-4-6-5(3)8-7(4)9(6)8/h4,6-8H,2H2,1H3	InChI=1S/C8H9N/c1-3-2-4-6-5(3)8-7(4)9(6)8/h4,6-8H,2H2,1H3/t4-,6-,7+,8-,9?/m0/s1
