16
gdb 44296	3.7175	1.77472	1.53059	3.1225	70.31	-0.232	-0.0228	0.2092	866.3351	0.126703	-400.700459	-400.694437	-400.693493	-400.730773	25.147	
O	 0.0063532118	-0.0176140286	 0.0774320916	-0.319423
C	-0.0401855576	 1.1829510083	 0.0212235487	 0.429003
C	-1.2978231815	 2.066168325	-0.0016480821	-0.355741
C	-0.7146403003	 3.4669052875	 0.1075545756	 0.006887
C	 0.0434864275	 3.8124256805	 1.3860685606	-0.097589
C	 1.3016467025	 2.9131447053	 1.3199035404	-0.093115
C	 1.2354132084	 4.2086318427	 0.5726729483	-0.032798
N	 0.6392965175	 3.4491566207	-0.6223452155	-0.190455
C	 1.131997955	 2.1508866245	-0.0011574715	-0.114184
H	-1.8160020661	 1.9200660482	-0.9571289881	 0.139885
H	-1.9890784278	 1.7930777938	 0.7999412032	 0.133929
H	-1.3421121664	 4.2732212302	-0.2744028429	 0.086904
H	-0.3109725889	 4.2171079693	 2.3256234434	 0.097237
H	 1.8647773735	 2.6487742463	 2.2051901768	 0.10448
H	 1.8648389845	 5.0847436382	 0.5177063301	 0.108174
H	 2.046966868	 1.7705924183	-0.4534204885	 0.096808
117.0351	287.2586	387.6276	469.6033	563.3291	588.6712	667.7691	749.0481	758.3894	808.4782	815.0925	832.9785	855.6383	883.3975	901.0102	964.0493	974.62	1005.1022	1020.7497	1026.2249	1033.1021	1055.441	1090.2072	1142.5123	1165.9404	1185.3111	1199.1151	1246.2991	1249.8865	1259.8019	1291.6717	1354.4212	1366.282	1437.5828	1854.0374	3046.5224	3102.7244	3107.0336	3128.9265	3193.4228	3201.9874	3227.9765
O=C1CC2C3C4C3N2C14	O=C1C[C@H]2[C@H]3[C@@H]4[C@H]3N2[C@H]14	
InChI=1S/C7H7NO/c9-3-1-2-4-5-6(3)8(2)7(4)5/h2,4-7H,1H2	InChI=1S/C7H7NO/c9-3-1-2-4-5-6(3)8(2)7(4)5/h2,4-7H,1H2/t2-,4-,5-,6+,7-/m0/s1
