19
gdb 103663	3.02326	1.02742	0.90137	4.0904	76.16	-0.2568	0.0115	0.2683	1330.8017	0.159089	-419.197782	-419.188479	-419.187535	-419.232315	34.49	
C	-0.2989399894	 1.6530938	-0.0721794211	-0.45913
C	-0.0151208543	 0.1556235178	-0.1186662479	 0.334583
C	-1.2901609762	-0.6685122301	 0.0947186685	-0.095604
O	-1.7420051999	-0.5421565436	 1.4285182524	-0.421599
C	 0.9041107821	-0.3054282744	-1.285861039	-0.32405
C	 2.0292110094	-0.4674547609	-0.2218634066	-0.10696
N	 1.0298489512	-0.2970055721	 0.8614602352	-0.363015
C	 2.7504313415	-1.7411638261	-0.1925556156	 0.292405
N	 3.3214814402	-2.7459375762	-0.1875203224	-0.321129
H	 0.6240702151	 2.2402589832	-0.1278204998	 0.110091
H	-0.9394685909	 1.9522547882	-0.90885378	 0.12545
H	-0.8212393471	 1.9020171319	 0.8567217106	 0.140943
H	-2.0986054102	-0.3107392701	-0.552615107	 0.10751
H	-1.089336412	-1.7200393408	-0.1596291893	 0.090718
H	-1.0280273189	-0.8969341015	 1.9738991755	 0.288736
H	 0.6019987655	-1.2477391723	-1.7449856504	 0.131075
H	 1.1078457028	 0.4301415931	-2.0640238572	 0.121875
H	 2.7702388347	 0.3387034734	-0.2799944802	 0.120315
H	 1.2962439465	 0.3984862006	 1.5506932343	 0.227784
43.3237	98.3022	159.6678	219.929	237.4802	256.5667	317.2258	335.1912	411.9407	454.9999	475.8363	558.271	569.3861	651.3142	750.45	808.2401	902.7737	907.7635	934.3731	965.7247	976.9066	1010.5415	1056.509	1077.0434	1102.5917	1159.6583	1189.7476	1221.4259	1246.5391	1280.5469	1286.0671	1353.0283	1384.9798	1398.0331	1412.2758	1428.6768	1481.1113	1488.1132	1498.7852	1501.9553	2357.1625	2990.9644	3029.092	3031.4921	3071.6927	3086.2663	3097.7143	3112.185	3146.6362	3524.4081	3770.8826
CC1(CO)CC(N1)C#N	C[C@@]1(CO)C[C@@H](N1)C#N	
InChI=1S/C6H10N2O/c1-6(4-9)2-5(3-7)8-6/h5,8-9H,2,4H2,1H3	InChI=1S/C6H10N2O/c1-6(4-9)2-5(3-7)8-6/h5,8-9H,2,4H2,1H3/t5-,6+/m1/s1
