17
gdb 38659	3.13461	1.84152	1.51645	1.1488	69.86	-0.2377	0.0153	0.253	892.4393	0.140105	-417.999386	-417.992989	-417.992045	-418.030232	25.83	
C	-0.0440505698	 1.4777429321	 0.3417960002	-0.250198
C	 1.2412148836	 0.7762083715	 0.087102721	-0.039208
C	 2.0087512562	 0.2786459702	 1.297271637	 0.058013
O	 2.2955942788	 1.3223028556	 2.2685164908	-0.222186
C	 1.4766823473	 1.068847944	 3.3166150066	 0.109145
N	 0.7374695751	 0.0379775873	 3.3146512784	-0.267911
C	 1.0297495142	-0.6693906531	 2.055445525	-0.033155
C	-0.1747130644	-0.8657112586	 1.0990519181	-0.180456
N	-0.0497958601	 0.0642864219	-0.0417922666	-0.095923
H	-0.2969827525	 1.7425973164	 1.3644282985	 0.130803
H	-0.4358102088	 2.1560826228	-0.4108191326	 0.120319
H	 1.7896555662	 0.9565421116	-0.8321921047	 0.095785
H	 2.9649907185	-0.1667278134	 1.0197012592	 0.097229
H	 1.5205343653	 1.8102158269	 4.1073179389	 0.141881
H	 1.4731115872	-1.6379288015	 2.3039939023	 0.098012
H	-0.1701465167	-1.8818801863	 0.6932543364	 0.111136
H	-1.12400585	-0.7143927374	 1.6192694713	 0.126715
101.3036	213.4048	340.7104	365.749	457.1288	574.6729	602.6156	684.0052	746.9139	787.3011	830.9751	867.3412	873.7659	917.2695	954.3409	960.8366	967.9874	1003.6996	1041.3296	1058.7044	1091.5875	1108.8558	1123.5321	1130.4891	1167.223	1238.8164	1243.58	1280.4136	1294.2904	1320.5597	1336.4158	1341.2587	1367.6141	1394.1232	1494.5769	1516.8414	1690.4656	3050.1221	3064.4052	3103.3481	3107.2692	3114.4964	3156.6931	3200.5157	3211.4065
C1C2C3OC=NC3CN12	C1[C@H]2[C@H]3OC=N[C@H]3CN12	
InChI=1S/C6H8N2O/c1-4-6(9-3-7-4)5-2-8(1)5/h3-6H,1-2H2	InChI=1S/C6H8N2O/c1-4-6(9-3-7-4)5-2-8(1)5/h3-6H,1-2H2/t4-,5-,6-,8?/m0/s1
