16
gdb 71353	3.38834	1.58583	1.25801	0.67	69.43	-0.2527	0.0566	0.3094	983.4984	0.123645	-437.752177	-437.745077	-437.744133	-437.783501	28.452	
O	 0.0900098794	 1.3563525654	 0.0244502449	-0.458673
C	 0.0630691497	-0.0175828372	 0.0272454818	 0.369462
C	 0.7429284423	-0.9184512684	 1.0363023938	-0.22268
N	 0.0819989739	-1.9462976418	 0.113148899	-0.158056
C	-1.154021916	-1.0190745351	-0.0399676414	-0.208472
C	-1.0516064047	-1.1257226442	-1.5486234162	 0.520999
C	-1.8098981576	-1.7389947322	-2.6249796806	-0.289912
O	-1.6902090695	-0.2991020195	-2.4958529932	-0.299752
C	 0.3992518967	-1.0517260875	-1.1156813462	-0.208491
H	-0.4238351732	 1.6742520909	-0.7282640557	 0.297026
H	 1.8356203271	-0.9691338977	 1.0314104906	 0.110413
H	 0.3530434678	-0.9379619764	 2.058151844	 0.110418
H	-2.0045621937	-1.106101116	 0.6357834286	 0.092446
H	-1.2923055986	-2.1674024701	-3.4812030237	 0.126412
H	-2.8051851496	-2.1355966458	-2.4335007224	 0.126415
H	 1.327963966	-1.1761635745	-1.6721389832	 0.092443
110.414	236.003	281.4048	327.7092	338.9064	419.2083	495.4297	506.7197	569.0888	678.5782	728.9002	828.2254	845.461	859.5805	879.0238	905.1795	909.9385	990.7737	1043.0689	1043.5614	1085.3846	1096.7002	1106.6391	1111.0462	1142.9627	1150.152	1153.5608	1207.3655	1215.3016	1255.2888	1323.1508	1387.5086	1473.0517	1528.0522	1562.0076	3050.7069	3092.2754	3113.145	3123.8653	3128.4036	3180.8313	3789.3332
OC12CN3C1C1(CO1)C23	O[C@@]12CN3[C@@H]1[C@]1(CO1)[C@@H]23	
InChI=1S/C6H7NO2/c8-5-1-7-3(5)6(2-9-6)4(5)7/h3-4,8H,1-2H2	InChI=1S/C6H7NO2/c8-5-1-7-3(5)6(2-9-6)4(5)7/h3-4,8H,1-2H2/t3-,4+,5-,6+
