15
gdb 85805	2.62505	1.22954	1.18335	4.6522	68.56	-0.2682	-0.0164	0.2518	1126.3755	0.111158	-453.966027	-453.95683	-453.955885	-454.000293	31.79	
C	-0.026482046	 1.428032731	 0.1433443855	-0.348311
N	-0.0037966387	-0.0072420453	 0.0112677154	-0.081452
C	-1.0811549865	-1.0027440309	 0.0224912398	-0.202515
C	 0.0194388818	-2.1045861746	-0.0417558377	 0.12502
O	 0.0382691241	-2.913368612	 1.1035289967	-0.444556
C	 0.0482349063	-2.8836739014	-1.2833578662	 0.237196
N	 0.0933297847	-3.5000346674	-2.2600720291	-0.326033
C	 1.0300214663	-0.8956212376	 0.0022882084	 0.364792
O	 2.2241207821	-0.7945571719	 0.0693414677	-0.362426
H	 1.0075282936	 1.7793483248	 0.1394723242	 0.170548
H	-0.5639936078	 1.8924225201	-0.6907480022	 0.14229
H	-0.5026110279	 1.7338816675	 1.0824599676	 0.139701
H	-1.6460392149	-1.046059387	 0.9585241839	 0.138464
H	-1.7559477294	-0.9508590113	-0.8361660806	 0.138173
H	 0.9318321225	-3.2666223942	 1.2005807364	 0.309109
76.7592	115.8553	144.1496	167.6313	196.9991	207.0525	249.3715	328.2617	377.8707	433.0909	508.7533	615.8959	621.7696	742.4552	798.6383	856.4722	939.7997	978.3285	1040.6192	1122.8445	1142.3109	1166.8632	1210.0455	1264.1718	1290.6291	1369.1693	1422.639	1450.8798	1481.6289	1504.9123	1526.2595	1895.4849	2351.7798	3024.7227	3051.6807	3081.9076	3110.4417	3138.3559	3786.1046
CN1CC(O)(C#N)C1=O	CN1C[C@@](O)(C#N)C1=O	
InChI=1S/C5H6N2O2/c1-7-3-5(9,2-6)4(7)8/h9H,3H2,1H3	InChI=1S/C5H6N2O2/c1-7-3-5(9,2-6)4(7)8/h9H,3H2,1H3/t5-/m0/s1
