18
gdb 20128	4.5592	1.27925	1.1285	3.1873	68.16	-0.2404	0.059	0.2994	1081.9463	0.154696	-381.054088	-381.045955	-381.045011	-381.086958	30.013	
O	 0.062832453	 1.5063383123	-0.2192117424	-0.436971
C	-0.0161774888	 0.1021872953	-0.0025771224	 0.060024
C	 0.491186655	-0.5844709958	-1.2583187417	 0.02323
C	 0.2584700754	 0.0037355697	-2.5969691875	-0.250401
N	 1.6137433717	-0.0061928687	-2.0087351949	-0.322716
C	 0.7824212235	-0.3031438841	 1.2214969952	-0.001786
C	 0.1511197062	-0.2234283769	 2.565546739	-0.261217
N	 0.4459568999	-1.5305050515	 1.9543322838	-0.313057
H	-0.0759309274	 1.9419866155	 0.6274965459	 0.289537
H	-1.0667504034	-0.2025533917	 0.1630177469	 0.064303
H	 0.5336563003	-1.6677471698	-1.1619021859	 0.095467
H	 0.1261473781	-0.6470644407	-3.4566429154	 0.113585
H	-0.2688078253	 0.9511194505	-2.644828937	 0.125309
H	 1.7935491957	 0.9220103267	-1.6297553223	 0.238368
H	 1.8523171805	-0.1241791154	 1.1356550236	 0.108095
H	 0.7497206469	 0.0201252664	 3.4383206964	 0.126113
H	-0.8869875613	 0.0988019124	 2.6238630805	 0.110537
H	-0.4111984601	-1.9336940741	 1.5801045583	 0.231581
81.352	86.9748	161.6578	265.1705	275.6332	295.4804	327.7797	429.4614	488.0356	648.5407	779.5821	822.0258	856.0997	885.2748	916.5643	958.7187	962.874	991.5901	1002.1851	1040.3343	1089.4115	1125.4495	1135.1252	1148.9665	1159.002	1187.0284	1208.3489	1246.8401	1252.4131	1282.2724	1291.6261	1313.3311	1331.0883	1384.2977	1413.3529	1450.0451	1504.8959	1509.6033	2923.2387	3100.6423	3116.1723	3127.4399	3133.5264	3189.5341	3207.7074	3480.2383	3489.3329	3827.4282
OC(C1CN1)C1CN1	O[C@@H]([C@H]1CN1)[C@H]1CN1	
InChI=1S/C5H10N2O/c8-5(3-1-6-3)4-2-7-4/h3-8H,1-2H2	InChI=1S/C5H10N2O/c8-5(3-1-6-3)4-2-7-4/h3-8H,1-2H2/t3-,4-/m1/s1
