21
gdb 121538	7.83866	0.42901	0.42233	2.1586	91.22	-0.2449	0.0304	0.2753	2616.3389	0.180415	-387.045856	-387.035285	-387.034341	-387.084249	36.457	
C	-0.2622923355	 1.5524862434	 0.0274142495	-0.386045
C	-0.0141745756	 0.0419183988	 0.0249873182	-0.161841
C	 0.7214301576	-0.4401102242	-1.2287877397	-0.151442
C	 0.9715489648	-1.9619687132	-1.2211691319	-0.362267
C	 1.6663486698	-2.4362479772	-2.4117191526	 0.048884
C	 2.2383274311	-2.8103846724	-3.4042935891	 0.138557
C	 2.9163764421	-3.2303965447	-4.5999467614	-0.114851
C	 3.7887199425	-4.4213843827	-4.6288310796	-0.160876
O	 2.4936874504	-4.4622715724	-5.2128703884	-0.216969
H	 0.6803930307	 2.1084911951	-0.0224966538	 0.115922
H	-0.869778169	 1.8554746582	-0.8325426218	 0.116724
H	-0.7876894455	 1.8685255919	 0.9338554827	 0.113791
H	 0.5654881835	-0.236564509	 0.9152644683	 0.096361
H	-0.972320545	-0.4879269169	 0.109436893	 0.09738
H	 0.1450153737	-0.1786141921	-2.1242591093	 0.108392
H	 1.6833549067	 0.0787105733	-1.319699241	 0.106019
H	 1.548112854	-2.2325159426	-0.3260986971	 0.127514
H	 0.0115741749	-2.4880062923	-1.1306091232	 0.132298
H	 3.1273742112	-2.4397053969	-5.3196742094	 0.113839
H	 4.6249923692	-4.4508050448	-5.3267081729	 0.116523
H	 3.9126802984	-5.0031587793	-3.7173881806	 0.122088
11.833	59.8668	68.3441	111.5201	148.1963	153.5386	240.1347	247.8845	330.7505	368.0527	497.6793	511.647	531.3874	734.1173	735.3813	790.543	831.9061	899.7249	912.8729	932.0666	987.8613	1013.4133	1061.7429	1085.8047	1120.6707	1129.1259	1149.0482	1160.4752	1186.8762	1240.4637	1274.8176	1285.9776	1311.0343	1327.9961	1357.3357	1394.3981	1409.399	1414.1992	1471.6597	1485.7914	1497.8417	1500.1316	1512.1745	1519.9697	2364.9124	3009.5911	3013.0433	3029.8225	3034.5236	3036.0076	3040.9247	3077.0824	3082.9379	3098.2276	3103.6488	3110.3178	3176.3082
CCCCC#CC1CO1	CCCCC#C[C@H]1CO1	
InChI=1S/C8H12O/c1-2-3-4-5-6-8-7-9-8/h8H,2-4,7H2,1H3	InChI=1S/C8H12O/c1-2-3-4-5-6-8-7-9-8/h8H,2-4,7H2,1H3/t8-/m0/s1
