18
gdb 70881	2.52077	1.59721	1.39424	1.7801	71.82	-0.2061	0.065	0.2711	1017.1587	0.146433	-439.00763	-438.99914	-438.998196	-439.039951	33.411	
C	 0.034859549	 1.5824112869	 0.032942552	-0.493072
C	-0.0375399551	 0.0832668817	-0.0184866775	 0.235688
C	 0.4232932516	-0.7244939088	-1.2788802682	-0.34117
C	-0.5320986053	-1.8087795152	-0.7922977022	 0.317303
O	-1.0157075574	-2.9051768698	-1.4691146567	-0.46061
C	-0.439177356	-1.7584724756	 0.7825033635	-0.203383
N	 0.4698652749	-0.6817033277	 1.1710107703	-0.337422
C	-1.3454597716	-0.8410511444	 0.0159864624	 0.297325
O	-2.684671767	-0.5774121957	 0.0171988082	-0.448192
H	 1.0762104303	 1.9237738959	-0.0094450115	 0.119102
H	-0.4991825074	 2.0278527198	-0.8121462842	 0.124957
H	-0.4033528738	 1.9599387529	 0.9615438075	 0.123372
H	 0.0644420294	-0.2680070506	-2.2052682434	 0.11074
H	 1.4965018525	-0.9430165868	-1.3572694321	 0.076726
H	-0.3669238242	-3.6151287004	-1.4074630994	 0.286474
H	-0.6733014259	-2.6230102931	 1.3923361325	 0.095759
H	 1.4578680346	-0.927697456	 1.07708063	 0.201115
H	-2.9437778086	-0.3143692833	 0.9080265589	 0.295287
174.9209	178.7676	198.7016	214.1884	284.4832	308.2152	348.2331	384.6414	422.912	485.7755	552.49	579.2167	633.3136	691.109	751.4818	798.9726	847.6834	881.2444	923.79	976.4151	991.9923	1026.9864	1059.8993	1090.7527	1129.3876	1152.4493	1179.4421	1189.4545	1245.9347	1281.907	1305.1676	1334.5037	1343.0469	1368.7316	1413.2453	1479.7512	1483.6523	1491.5003	1544.209	3015.8444	3028.8938	3093.2561	3101.2098	3113.7263	3190.3605	3410.054	3785.8671	3789.0357
CC12CC3(O)C(N1)C23O	C[C@@]12C[C@@]3(O)[C@@H](N1)[C@@]23O	
InChI=1S/C6H9NO2/c1-4-2-5(8)3(7-4)6(4,5)9/h3,7-9H,2H2,1H3	InChI=1S/C6H9NO2/c1-4-2-5(8)3(7-4)6(4,5)9/h3,7-9H,2H2,1H3/t3-,4+,5-,6-/m1/s1
