21
gdb 100526	2.63612	0.92422	0.8504	2.4808	75.7	-0.2559	-0.0337	0.2222	1489.3106	0.179633	-461.382941	-461.372146	-461.371202	-461.419662	38.575	
C	 0.6944105814	 1.5954772782	-0.4812455652	-0.390699
C	 0.0677549802	 0.318249809	 0.090792553	-0.068678
C	 0.0945286557	-0.8359747617	-0.9362558309	-0.391254
C	 0.8059888445	-0.1500637885	 1.3347305204	 0.371405
O	 2.0156658035	-0.0929099145	 1.4363977206	-0.348634
C	 0.0062900177	-0.7339817051	 2.4935838111	 0.007444
O	 0.8679802362	-1.3898951639	 3.3950689036	-0.445615
C	-0.7515375139	 0.3730323258	 3.2648401104	-0.064856
O	-1.3406846757	-0.1715094976	 4.4202881929	-0.417931
H	 1.7531240669	 1.4334989596	-0.6979201852	 0.142131
H	 0.1877965059	 1.8870148291	-1.4057738141	 0.116052
H	 0.6202533439	 2.4282816336	 0.2244626598	 0.120935
H	-0.9787038439	 0.5052714241	 0.36026797	 0.089369
H	 1.125233734	-1.0628137155	-1.2247111386	 0.139504
H	-0.3573909997	-1.7493567293	-0.537127492	 0.125962
H	-0.4606725131	-0.5498793743	-1.8342134	 0.126071
H	-0.7322609541	-1.4540001089	 2.1129488439	 0.098762
H	 1.7611906439	-1.1035311198	 3.1388685906	 0.295663
H	-0.0393809793	 1.1785191643	 3.5114897277	 0.09125
H	-1.5557592206	 0.800886753	 2.6578151879	 0.109104
H	-0.6443687833	-0.6971168876	 4.8366291642	 0.294016
31.0264	70.5987	108.4851	152.5141	195.6334	209.1816	235.3083	269.7691	294.04	358.2729	365.9521	422.791	461.4998	524.7774	545.1849	653.7962	725.1604	842.8282	880.2014	916.2476	934.7953	973.2503	1033.9689	1051.5467	1085.0813	1116.8569	1121.9976	1155.2297	1198.592	1224.5537	1245.9389	1319.6223	1328.1776	1377.6889	1384.6791	1396.2661	1417.9602	1436.6899	1439.0663	1485.2553	1489.0089	1500.5956	1501.6756	1512.	1783.4201	2962.9768	3013.7843	3035.0846	3038.4863	3044.8619	3079.9183	3109.9276	3112.5324	3119.0598	3130.5522	3661.2141	3764.1398
CC(C)C(=O)C(O)CO	CC(C)C(=O)[C@@H](O)CO	
InChI=1S/C6H12O3/c1-4(2)6(9)5(8)3-7/h4-5,7-8H,3H2,1-2H3	InChI=1S/C6H12O3/c1-4(2)6(9)5(8)3-7/h4-5,7-8H,3H2,1-2H3/t5-/m0/s1
