18
gdb 105827	2.44525	1.45695	1.206	2.4481	71.87	-0.2255	0.0504	0.2759	1094.2429	0.146955	-438.97252	-438.964116	-438.963172	-439.00548	32.355	
O	 0.0760450664	 1.4045586879	 0.0774721739	-0.411824
C	-0.014328138	-0.0093994569	-0.0414773359	-0.169954
C	-1.4347646187	-0.4896034242	 0.0140667256	 0.252803
C	-2.0907571645	-1.0103981506	 1.2505531074	 0.022257
O	-3.1986183017	-0.4258040122	 1.8794922146	-0.42004
C	-2.0380599019	-1.9128092945	 0.0446142433	-0.13354
N	-2.8989651013	-1.6517489135	-1.1653434687	-0.149401
C	-3.8296426491	-0.5178561149	-0.9295301649	-0.253314
C	-2.3988718417	-0.2337559213	-1.1613186303	-0.08384
H	-0.376313557	 1.6555738802	 0.8902263464	 0.286614
H	 0.43240897	-0.2473286109	-1.013508026	 0.115285
H	 0.5832502482	-0.5229476629	 0.7286176992	 0.086468
H	-1.3259866654	-1.3347388802	 1.9638892943	 0.095108
H	-3.6705064846	-1.1234720443	 2.3488015638	 0.290434
H	-1.5487016933	-2.8799783419	 0.079086644	 0.103591
H	-4.4832679072	-0.3761976027	-1.7864993934	 0.119239
H	-4.2795400775	-0.3612226677	 0.0386470351	 0.144983
H	-2.0279727325	 0.2179773806	-2.0759518385	 0.10513
77.7977	131.1314	201.3135	273.9915	282.3582	319.8528	339.3835	400.2782	431.2263	515.9002	612.2847	676.2858	721.2643	755.2095	797.6213	869.0637	921.8207	934.9139	981.8015	990.55	1019.0112	1045.7311	1058.8937	1097.4416	1117.7412	1126.2026	1149.7065	1205.1543	1227.3734	1256.9516	1265.2395	1290.4449	1341.6626	1372.2282	1376.7523	1423.2928	1479.0211	1497.658	1503.697	2976.3288	3050.0995	3062.5943	3130.1525	3161.8872	3170.6867	3265.6903	3793.8395	3806.0851
OCC12C(O)C1N1CC21	OC[C@]12[C@@H](O)[C@H]1N1C[C@@H]21	
InChI=1S/C6H9NO2/c8-2-6-3-1-7(3)4(6)5(6)9/h3-5,8-9H,1-2H2	InChI=1S/C6H9NO2/c8-2-6-3-1-7(3)4(6)5(6)9/h3-5,8-9H,1-2H2/t3-,4+,5-,6+,7?/m0/s1
