17
gdb 34456	3.64226	1.50787	1.27206	2.0423	78.79	-0.2243	0.0345	0.2588	1005.1581	0.136536	-384.621944	-384.614831	-384.613887	-384.653172	29.063	
C	 0.0192525441	-1.0971342929	 0.03214271	-0.365757
C	-0.0016293457	 0.1046810698	 0.0082443355	 0.195846
C	-0.0083113186	 1.5350748546	-0.0129706709	 0.31381
O	-1.0807989063	 2.1437134454	 0.6886583347	-0.317645
C	-1.4061383872	 3.3504050781	-0.0139530276	-0.088494
C	-0.1272256245	 3.6971806202	-0.7687537528	-0.097106
C	 1.0782226531	 3.7578484948	 0.2290483644	-0.243417
C	 1.3320698784	 2.2770946035	-0.0502850973	-0.130499
C	 0.3797341232	 2.3065368992	-1.2419422435	-0.151807
H	 0.0302361179	-2.1585240869	 0.0527277982	 0.186638
H	-2.2511055808	 3.1809117546	-0.6987759391	 0.096138
H	-1.6934087291	 4.1035711293	 0.7266849179	 0.110251
H	-0.2187125847	 4.5015452175	-1.4970148724	 0.08169
H	 1.8899914914	 4.3776898281	-0.1586962348	 0.106929
H	 0.8545219641	 4.0503483333	 1.2599666872	 0.105564
H	 2.2648723257	 1.7378919768	 0.0631193385	 0.096172
H	 0.452837639	 1.9034121745	-2.2426264681	 0.101689
140.1493	155.1535	256.7469	378.5189	410.9368	490.3166	514.1736	565.5987	577.6704	648.2412	683.0397	726.3399	790.5157	846.3431	853.1276	872.9488	898.8866	954.6476	977.1531	997.3815	1010.7028	1036.0303	1055.8375	1095.9973	1115.995	1159.2603	1176.6334	1213.3557	1232.1211	1260.0623	1274.1332	1309.7287	1375.8475	1381.6001	1491.3525	1511.2886	2242.6185	2989.0518	3049.4449	3077.7094	3107.7706	3128.5729	3184.7743	3210.1667	3504.5411
C#CC12OCC3CC1C23	C#C[C@@]12OC[C@H]3C[C@@H]1[C@@H]23	
InChI=1S/C8H8O/c1-2-8-6-3-5(4-9-8)7(6)8/h1,5-7H,3-4H2	InChI=1S/C8H8O/c1-2-8-6-3-5(4-9-8)7(6)8/h1,5-7H,3-4H2/t5-,6-,7+,8-/m1/s1
