25
gdb 101733	3.89001	0.67124	0.6639	1.2778	89.65	-0.2624	0.077	0.3395	1842.4254	0.228276	-389.482029	-389.47139	-389.470445	-389.518494	39.129	
C	-0.1932532565	 1.5438251853	-0.1107806331	-0.391408
C	 0.0585192166	 0.0323891456	-0.0244649675	 0.04246
C	 0.7992319731	-0.4634572959	-1.2676529726	-0.079285
O	-0.0040312469	-0.2026805261	-2.4108693919	-0.424495
C	 0.8287018378	-0.3771730472	 1.2442852632	-0.225184
C	 0.0868495424	-0.1248907298	 2.5511816235	 0.0564
C	-1.2001176767	-0.9435044265	 2.8674155051	-0.21511
C	-0.7354397688	-1.0307672227	 4.3459038548	-0.211491
C	 0.6985451457	-0.6685700659	 3.8745825806	-0.235854
H	 0.7514940946	 2.0991136366	-0.0516422046	 0.103053
H	-0.672225802	 1.7934857386	-1.060016262	 0.13215
H	-0.8376250744	 1.8955485784	 0.6998014654	 0.110049
H	-0.913942975	-0.4797494003	-0.0179978558	 0.084466
H	 1.7739359386	 0.0482084568	-1.3428802492	 0.079669
H	 1.0023263807	-1.5421069511	-1.1693008538	 0.079835
H	 0.4969236545	-0.4486924463	-3.1934450216	 0.285227
H	 1.069053865	-1.4484683844	 1.1856305766	 0.082108
H	 1.7933747576	 0.1514919555	 1.2684748797	 0.087708
H	-0.1239272777	 0.944019553	 2.6663374987	 0.071655
H	-2.1691315224	-0.4823738065	 2.6603867667	 0.093674
H	-1.1727861161	-1.9240323985	 2.3792439976	 0.095107
H	-1.174182005	-0.2353952105	 4.9554904304	 0.099964
H	-0.8747266854	-1.9807241729	 4.8674003552	 0.09357
H	 1.3001652119	-1.5657426774	 3.6920388595	 0.094184
H	 1.2839303283	 0.020527052	 4.4889863549	 0.091549
46.1611	67.7762	106.087	130.3947	165.1898	230.5227	241.7824	258.8042	314.3167	339.4274	400.7763	440.7204	527.502	637.7272	766.3543	786.1632	832.1428	871.5089	899.7968	926.2697	932.8407	947.0267	955.8836	978.1491	1015.3172	1059.969	1069.6739	1110.3512	1122.2748	1169.76	1185.7581	1198.2636	1226.3836	1236.7586	1256.009	1264.1644	1267.131	1276.8914	1287.27	1301.5266	1315.3615	1359.0312	1380.9049	1397.6713	1407.4417	1457.8116	1477.7646	1482.2065	1487.8521	1494.2106	1508.338	1511.7708	1519.9741	2952.7339	2982.1297	2992.2812	3010.4948	3026.7381	3030.0398	3041.0291	3042.7669	3050.8539	3056.1729	3092.7601	3096.5723	3098.0242	3114.2393	3128.6142	3835.0479
CC(CO)CC1CCC1	C[C@@H](CO)CC1CCC1	
InChI=1S/C8H16O/c1-7(6-9)5-8-3-2-4-8/h7-9H,2-6H2,1H3	InChI=1S/C8H16O/c1-7(6-9)5-8-3-2-4-8/h7-9H,2-6H2,1H3/t7-/m1/s1
