21
gdb 101435	2.88362	1.01162	0.82639	2.2376	74.44	-0.2484	0.0529	0.3013	1420.5343	0.181132	-461.335401	-461.32543	-461.324485	-461.370979	36.307	
C	-0.2702614204	 1.5365485538	-0.044841998	-0.395585
C	 0.0713411293	 0.059622924	-0.0197136664	 0.140327
O	 1.2634472799	-0.24344542	-0.7894902532	-0.288499
C	 1.9116595823	-0.8506178287	 0.3403393287	-0.089921
C	 0.6965307951	-0.5798850862	 1.2561184518	-0.08727
C	 0.9259906437	 0.2806506396	 2.4875700594	 0.08065
O	-0.309950252	 0.7218705855	 3.069282884	-0.444467
C	 1.7500833673	-0.4294159287	 3.5663621017	-0.062884
O	 1.8924934738	 0.3851800399	 4.707738577	-0.423375
H	 0.5779582388	 2.147353449	 0.2760426789	 0.120788
H	-0.531975947	 1.8341240446	-1.0649155131	 0.122037
H	-1.1174133492	 1.7465220789	 0.6138510871	 0.128034
H	-0.7803828328	-0.5208936268	-0.4006027267	 0.074099
H	 2.1504326097	-1.9066824499	 0.1657092455	 0.102755
H	 2.8352485047	-0.3233087097	 0.6161267257	 0.102273
H	 0.1778350489	-1.4977977082	 1.5567641389	 0.068669
H	 1.4446243747	 1.2074965445	 2.2192436235	 0.102784
H	-0.8557311025	-0.0591338617	 3.2231902999	 0.281968
H	 1.2620715008	-1.3916796929	 3.8126946107	 0.070629
H	 2.7553991226	-0.6598604086	 3.1966735237	 0.111607
H	 1.0294059525	 0.8014957616	 4.8330359909	 0.285382
43.3306	86.4042	124.5532	132.6425	213.6004	242.3303	265.6829	342.1199	360.3385	392.3495	414.8028	498.8281	516.6845	583.6816	758.0102	841.3734	878.1105	886.7568	914.8293	1009.4032	1022.9687	1042.6505	1072.6232	1080.3594	1092.9237	1109.3539	1147.5804	1164.9936	1169.3266	1213.829	1246.899	1259.0124	1296.3279	1304.1311	1360.9464	1381.1714	1389.3524	1396.2464	1409.8968	1422.7217	1445.1035	1477.6335	1496.3773	1505.8008	1527.7611	2924.5933	2997.0645	3003.8562	3030.5567	3043.117	3049.9219	3060.4137	3071.9607	3115.1626	3126.6828	3761.387	3781.1568
CC1OCC1C(O)CO	C[C@H]1OC[C@H]1[C@@H](O)CO	
InChI=1S/C6H12O3/c1-4-5(3-9-4)6(8)2-7/h4-8H,2-3H2,1H3	InChI=1S/C6H12O3/c1-4-5(3-9-4)6(8)2-7/h4-8H,2-3H2,1H3/t4-,5-,6+/m1/s1
