18
gdb 53441	4.67228	0.81638	0.73155	2.1616	82.21	-0.2402	0.0207	0.261	1560.8739	0.148107	-401.936336	-401.927322	-401.926378	-401.97183	31.829	
C	 0.0249709739	 1.4934544709	-0.0158913212	-0.50012
C	-0.0254368011	 0.0386587029	 0.0065242596	 0.118437
C	-0.0843932718	-1.1632819936	 0.0165711781	 0.05869
C	-0.114460054	-2.6260339698	 0.0525196992	-0.164844
C	 0.8125991431	-3.1796490971	 1.1540254845	-0.229451
C	 0.5763990382	-4.6770764997	 1.2832111439	-0.081517
O	-0.8105878983	-4.965916793	 1.5168528984	-0.225226
C	-1.6947802535	-4.148420969	 0.8975695446	 0.133986
N	-1.4984275804	-3.1061289278	 0.2089949941	-0.26665
H	 0.5185610655	 1.8911657216	 0.8778046562	 0.14531
H	 0.5748624432	 1.8604541002	-0.889615698	 0.146513
H	-0.9827965258	 1.9212817547	-0.0556519818	 0.152114
H	 0.2444180465	-2.9955105926	-0.9201584172	 0.111468
H	 1.8621700217	-2.9781201789	 0.9211422493	 0.114415
H	 0.579721472	-2.6825220653	 2.1011358198	 0.124392
H	 0.8872929747	-5.2030005217	 0.3709353387	 0.113889
H	 1.1173771059	-5.1086884206	 2.1284228615	 0.121242
H	-2.7071357897	-4.5111450612	 1.0683659503	 0.127353
24.8027	66.4156	91.1407	165.4013	255.2862	296.0248	318.0641	394.8446	444.4794	492.9753	547.2132	591.0041	757.6624	824.0804	851.8828	896.1541	948.605	969.7406	1033.4072	1051.3771	1054.4364	1057.4336	1107.4203	1172.2448	1185.0695	1228.3171	1266.9117	1314.2018	1326.3262	1371.0505	1399.4804	1414.0819	1415.8527	1478.2811	1478.9676	1479.2094	1509.8279	1726.788	2377.064	2983.5538	3023.7006	3026.9208	3054.9416	3086.5151	3089.0865	3100.5865	3107.1728	3155.4597
CC#CC1CCOC=N1	CC#C[C@H]1CCOC=N1	
InChI=1S/C7H9NO/c1-2-3-7-4-5-9-6-8-7/h6-7H,4-5H2,1H3	InChI=1S/C7H9NO/c1-2-3-7-4-5-9-6-8-7/h6-7H,4-5H2,1H3/t7-/m0/s1
