20
gdb 7135	6.89158	0.72116	0.66617	1.0637	72.23	-0.2438	-0.0091	0.2346	1699.2082	0.17401	-386.163476	-386.153184	-386.15224	-386.200164	34.968	
C	 0.0167892473	 1.6012338249	 0.0787640923	-0.386756
C	-0.0040018667	 0.0730164344	-0.0019988819	-0.15898
C	 0.7039619163	-0.5895256802	 1.1797467597	-0.277531
C	 0.7005932387	-2.1118186016	 1.1312826243	 0.359271
O	 0.1735829191	-2.7249873836	 0.2284958728	-0.302909
C	 1.3960935993	-2.8244393553	 2.2803778427	-0.280153
C	 1.3497911797	-4.3407442516	 2.1660321196	-0.073797
O	 2.0315227658	-4.8672984274	 3.2957852246	-0.425463
H	 1.0424937637	 1.9871962987	 0.0905718833	 0.112529
H	-0.495833952	 2.0487393214	-0.7781778413	 0.11554
H	-0.4798698455	 1.9604851962	 0.9873050432	 0.11254
H	-1.0364817564	-0.2894785293	-0.046956904	 0.111743
H	 0.4660777962	-0.2629897987	-0.9324033253	 0.111531
H	 1.749606089	-0.2557817962	 1.2487021184	 0.117768
H	 0.24936539	-0.2813738154	 2.1326529737	 0.117956
H	 2.4391348165	-2.4856907214	 2.333838844	 0.128524
H	 0.9408400874	-2.50712469	 3.2277774124	 0.12841
H	 0.303598217	-4.6757412716	 2.1283031091	 0.101307
H	 1.8202756429	-4.6537225326	 1.2232699269	 0.101416
H	 2.0099832119	-5.8266260306	 3.2352376854	 0.287056
38.3754	55.9614	86.5562	107.6485	109.0772	228.098	241.9395	275.3476	303.465	366.9133	423.0599	474.8453	690.9444	706.6382	775.4085	866.6769	875.3644	906.6846	1001.0893	1006.8235	1047.4566	1058.545	1095.8409	1139.9386	1142.5553	1208.537	1252.7743	1255.0016	1303.3505	1311.7816	1326.5777	1355.3229	1395.956	1414.023	1445.715	1454.1413	1471.2766	1487.3761	1499.9567	1508.3312	1522.8244	1798.0598	2997.575	3007.2785	3024.8281	3027.7243	3030.9796	3032.9857	3049.8352	3065.1566	3075.0026	3099.9144	3103.1331	3831.0539
CCCC(=O)CCO	CCCC(=O)CCO	
InChI=1S/C6H12O2/c1-2-3-6(8)4-5-7/h7H,2-5H2,1H3	InChI=1S/C6H12O2/c1-2-3-6(8)4-5-7/h7H,2-5H2,1H3
