19
gdb 68557	2.44939	1.64029	1.35367	0.6663	85.71	-0.2279	0.0078	0.2357	1048.0688	0.158577	-348.691957	-348.683806	-348.682862	-348.724095	32.968	
C	-0.0364435402	 1.5379066347	 0.038950435	-0.511516
C	 0.0061790822	 0.0291453955	-0.0019051523	 0.290814
C	 0.3400447815	-0.7976935594	-1.2963099832	-0.254668
C	-0.3068863661	-1.9526078943	-0.4627563583	-0.090714
C	 0.6737082271	-2.0173047994	 0.7167094556	-0.083248
C	 0.8759661681	-0.7337691851	 1.016483949	-0.112128
C	-1.3174611984	-0.8515422422	 0.0463163617	-0.213558
C	-2.0504951508	-1.0166239029	 1.2836532951	 0.321228
C	-2.6811488861	-1.1354589624	 2.3012139244	-0.44706
H	 0.9647853616	 1.9634940411	-0.0921975919	 0.119368
H	-0.6770383815	 1.9402546766	-0.7524178796	 0.114809
H	-0.427402751	 1.8912280728	 0.9994048803	 0.128794
H	-0.2497976087	-0.4967938233	-2.1690959436	 0.089975
H	 1.3951396533	-0.9062289442	-1.5540294031	 0.095185
H	-0.6590620959	-2.8795410001	-0.9127901775	 0.067698
H	 1.0701268857	-2.9130720322	 1.1721884375	 0.10214
H	 1.4842110591	-0.2804509932	 1.7866349018	 0.098736
H	-2.0023861455	-0.5520117628	-0.7559930671	 0.095731
H	-3.2310513845	-1.2470232993	 3.2025225561	 0.188414
118.6621	145.5189	204.0869	277.1937	290.3829	375.4973	446.809	484.6478	547.4883	581.1485	612.6441	623.3548	627.0726	720.5671	781.0098	812.3859	823.6348	841.7447	890.0866	909.0839	931.0764	945.5478	1011.2574	1058.9351	1078.2296	1090.9057	1097.9483	1132.7588	1190.5712	1208.7126	1220.5921	1258.0469	1271.0539	1341.901	1369.8099	1413.1559	1491.2654	1493.2697	1499.9257	1632.0043	2229.9186	3027.7361	3034.8663	3047.3657	3093.4512	3099.1911	3123.4706	3129.4864	3219.4033	3247.8449	3504.576
CC12CC(C=C1)C2C#C	C[C@@]12C[C@@H](C=C1)[C@H]2C#C	
InChI=1S/C9H10/c1-3-8-7-4-5-9(8,2)6-7/h1,4-5,7-8H,6H2,2H3	InChI=1S/C9H10/c1-3-8-7-4-5-9(8,2)6-7/h1,4-5,7-8H,6H2,2H3/t7-,8-,9+/m1/s1
