19
gdb 37049	2.80604	1.72753	1.46053	2.1185	73.79	-0.2319	0.0609	0.2928	967.8043	0.161363	-422.978533	-422.971412	-422.970468	-423.009762	29.18	
C	 0.0154905081	 1.4894698134	 0.1706828347	-0.387506
C	 1.3559492198	 0.8159840074	-0.0563027425	 0.197191
C	 1.7102742649	 0.0040038689	 1.1909010215	-0.140285
O	 0.4203736052	-0.673045137	 1.1789469341	-0.326089
C	 0.0800906016	 0.0060217415	-0.0365376148	 0.396396
C	-0.3672275412	-0.7392630356	-1.2631587607	-0.18321
O	 0.712643763	-0.8929302227	-2.1866040876	-0.242608
C	 1.3319515936	 0.3414950228	-2.5060722697	-0.08028
C	 2.1615985245	 0.9085189593	-1.326940282	-0.311944
H	-0.2355349303	 1.8746135223	 1.1548271472	 0.116206
H	-0.3653390396	 2.0727343146	-0.662206139	 0.11657
H	 2.5221781795	-0.7125353346	 1.0188641912	 0.109558
H	 1.8851714013	 0.5459160809	 2.1283728137	 0.102609
H	-0.6905543349	-1.7475381344	-0.9936764394	 0.129205
H	-1.2031831039	-0.2214204371	-1.7588896147	 0.094711
H	 1.9818853192	 0.1453673262	-3.3629047339	 0.113287
H	 0.5713356929	 1.0744970282	-2.8262319488	 0.086859
H	 2.4895006576	 1.9280835411	-1.5627734691	 0.100338
H	 3.0633308989	 0.2955933846	-1.2166184302	 0.108993
123.0856	216.6813	321.2944	338.7564	375.0466	390.0747	467.5705	504.6688	557.9612	664.6765	755.1586	768.3079	853.1929	872.2513	909.3152	940.4164	943.9951	965.5263	967.7062	990.4996	1027.5669	1053.8335	1066.4607	1096.5146	1154.3651	1180.7521	1196.7899	1255.0877	1264.2599	1287.7768	1313.6817	1343.7992	1367.8393	1380.1181	1396.9165	1419.0573	1475.1615	1478.5643	1483.0835	1501.1454	1516.5445	2957.9885	2981.8579	3016.2778	3028.0382	3066.7305	3071.0278	3092.6693	3106.2785	3115.703	3207.955
C1C23COC12COCC3	C1[C@@]23CO[C@@]12COCC3	
InChI=1S/C7H10O2/c1-2-8-5-7-3-6(1,7)4-9-7/h1-5H2	InChI=1S/C7H10O2/c1-2-8-5-7-3-6(1,7)4-9-7/h1-5H2/t6-,7+/m0/s1
