13
gdb 48055	3.25283	1.06357	0.91558	2.3255	60.75	-0.2537	-0.1244	0.1293	1232.1923	0.085105	-493.680757	-493.671854	-493.67091	-493.716256	29.237	
O	-0.4593284763	 1.0122432603	-0.9665592507	-0.198412
C	 0.0302165466	 1.0167887835	 0.1287725121	 0.091864
C	 1.1671550176	 1.9669431043	 0.5294731496	 0.208915
O	 1.9465112674	 1.6330369751	 1.3893811018	-0.257216
C	 1.2691697532	 3.3293720625	-0.1766004247	 0.300343
O	 0.2591133113	 3.9169687117	-0.4745641483	-0.275207
C	 2.6537973548	 3.8617704765	-0.3882616009	-0.04188
C	 2.9625278705	 4.4831829546	-1.6984208135	-0.157448
O	 2.7576513753	 5.2727576614	-0.5438905995	-0.20121
H	-0.2142991268	 0.2779341085	 0.9205560732	 0.118371
H	 3.4472761134	 3.3837694131	 0.1796944788	 0.133363
H	 3.9844874092	 4.4307305211	-2.0698725051	 0.133764
H	 2.1727345237	 4.5355603474	-2.4454451928	 0.144754
36.0663	58.2988	99.8628	142.3806	193.8676	240.7087	282.8025	341.9339	504.7435	529.1886	570.0228	766.9561	776.7139	865.3693	900.5826	956.6765	1012.0548	1037.2263	1097.2775	1161.9521	1169.4579	1246.9358	1275.2291	1372.9731	1411.7916	1510.3617	1795.3919	1798.6597	1833.5109	2925.2136	3091.081	3160.6019	3190.7674
O=CC(=O)C(=O)C1CO1	O=CC(=O)C(=O)[C@H]1CO1	
InChI=1S/C5H4O4/c6-1-3(7)5(8)4-2-9-4/h1,4H,2H2	InChI=1S/C5H4O4/c6-1-3(7)5(8)4-2-9-4/h1,4H,2H2/t4-/m1/s1
