17
gdb 17008	3.872	2.18347	1.93095	2.8975	67.09	-0.2346	0.0728	0.3075	762.2953	0.14487	-363.806855	-363.80057	-363.799625	-363.836914	25.372	
C	-0.0391710784	 1.5625993586	-0.1345900626	-0.289492
C	 1.5266989775	 1.5917499765	-0.149326796	-0.289492
C	 1.5251315012	 0.071030524	 0.1177123343	 0.193092
C	 1.9812771448	-0.7448124865	 1.299925175	-0.126196
O	 0.8180582706	-1.4728938671	 1.7196316848	-0.258305
C	-0.3791408948	-0.7887607513	 1.3221269334	-0.126196
C	 0.0240129967	 0.0430840339	 0.1318339381	 0.193091
N	 0.7788812064	-0.6836851041	-0.8831435433	-0.363599
H	-0.4568383083	 2.1239991957	 0.7042232638	 0.113521
H	-0.5631434322	 1.8627161132	-1.0473118641	 0.102764
H	 2.0218753451	 1.9108383584	-1.0716400058	 0.102765
H	 1.9388901329	 2.168599309	 0.6816764675	 0.113521
H	 2.7541654373	-1.4887573066	 1.0854378863	 0.114492
H	 2.3467675302	-0.0736954292	 2.0940009099	 0.087451
H	-1.1277000772	-1.5610321545	 1.1219488475	 0.114492
H	-0.7543606087	-0.1314357951	 2.1231707505	 0.08745
H	 0.7616295169	-0.2126503748	-1.7845934293	 0.23064
196.3141	206.0473	306.3185	326.6941	468.0497	519.2514	642.1277	668.5532	744.3255	768.5377	815.5625	850.4813	906.7829	943.6858	955.1128	973.3461	1010.2377	1051.0096	1058.6153	1094.0496	1123.1633	1148.8855	1202.0408	1220.457	1227.4724	1241.5207	1254.4454	1264.4339	1298.2441	1376.5357	1395.2828	1421.3972	1475.6961	1492.7127	1504.2881	1512.3797	2973.2643	2979.9259	3047.9731	3054.8862	3077.8452	3080.4484	3101.2934	3118.6465	3492.3626
C1CC23COCC12N3	C1C[C@@]23COC[C@@]12N3	
InChI=1S/C6H9NO/c1-2-6-4-8-3-5(1,6)7-6/h7H,1-4H2	InChI=1S/C6H9NO/c1-2-6-4-8-3-5(1,6)7-6/h7H,1-4H2/t5-,6+
