21
gdb 92041	2.72892	1.43113	1.02958	1.3132	84.84	-0.2234	0.0231	0.2465	1206.2489	0.18354	-387.093407	-387.084804	-387.08386	-387.126261	34.145	
C	-0.1409572311	 1.5175867761	-0.0012686838	-0.502381
C	-0.0166874892	 0.0193734044	-0.0212011389	 0.306195
C	-0.0251722654	-0.6895096311	-1.1547212374	-0.17342
C	 0.0729481238	-2.1690876232	-1.179505807	-0.054949
C	 1.4249339291	-2.8574303508	-1.1864192203	-0.28802
C	 0.5851521872	-2.8442847676	 0.0693485568	-0.045022
C	 0.9701203501	-1.9418801164	 1.2365594114	-0.223574
C	 0.0892575494	-0.6902713263	 1.3272501566	 0.01512
O	 0.6742191462	 0.1291456723	 2.3384411522	-0.429616
H	 0.7303366212	 1.9824447386	 0.4728183788	 0.136408
H	-0.2411773813	 1.9193141234	-1.0127521698	 0.121097
H	-1.0225405748	 1.8409946459	 0.571383914	 0.110575
H	-0.1191971203	-0.1765726557	-2.1107791335	 0.076079
H	-0.7113189037	-2.6773948323	-1.7355241598	 0.085911
H	 1.5214730739	-3.7881024347	-1.7358099131	 0.106288
H	 2.308139264	-2.2271056939	-1.2032173459	 0.112587
H	 0.1131304626	-3.7834549778	 0.3392352543	 0.081332
H	 0.9129314398	-2.4868145241	 2.1836512458	 0.101111
H	 2.0039037324	-1.5932081392	 1.13966821	 0.109652
H	-0.9264606176	-0.9888666757	 1.6415027587	 0.072153
H	 0.0522266038	 0.8281461983	 2.559785541	 0.282474
89.8332	136.9569	219.0582	276.2757	301.6608	312.3635	351.4098	397.0087	441.1017	449.9687	494.6688	609.4904	698.0637	742.7522	818.3177	829.3419	853.1001	874.0098	947.1026	979.6041	994.0092	1037.637	1054.719	1056.5749	1066.8353	1082.8832	1115.5861	1123.852	1135.1115	1202.6026	1215.2161	1226.7262	1271.111	1320.9255	1335.5293	1376.7045	1382.8045	1399.3602	1406.2057	1418.8209	1479.0299	1482.4677	1495.0401	1498.3804	1723.4379	2937.1361	3003.8523	3045.5222	3067.5295	3086.9572	3115.187	3123.5729	3125.3456	3134.7715	3154.1472	3214.3	3832.8688
CC1=CC2CC2CC1O	CC1=C[C@H]2C[C@H]2C[C@H]1O	
InChI=1S/C8H12O/c1-5-2-6-3-7(6)4-8(5)9/h2,6-9H,3-4H2,1H3	InChI=1S/C8H12O/c1-5-2-6-3-7(6)4-8(5)9/h2,6-9H,3-4H2,1H3/t6-,7-,8+/m0/s1
