19
gdb 80735	4.14246	1.1061	1.08568	1.5119	80.72	-0.2417	0.0357	0.2775	1195.0998	0.158814	-385.841323	-385.83279	-385.831846	-385.874569	32.748	
C	 0.0589478545	 1.6689904215	 0.0339809339	-0.412801
C	 0.0160539011	 0.1592650479	-0.0128901858	-0.03433
C	 0.5722388747	-0.6691479377	-1.1664231054	-0.086238
C	 1.5668876619	-0.0248290049	-2.1292343316	-0.27035
C	 2.8900113443	-0.0176651097	-1.3099934749	-0.071181
O	 2.4848396737	-0.0186986978	 0.0694682166	-0.255367
C	 1.2500039413	-0.6881267037	 0.1754840672	 0.070876
C	 3.7464701659	-1.1681792578	-1.613391803	 0.354562
C	 4.444301186	-2.1136990669	-1.8664281017	-0.473989
H	 1.0506266964	 2.0513148506	-0.2176226258	 0.130513
H	-0.6686256522	 2.1124560142	-0.6546064474	 0.11454
H	-0.1774937379	 2.0242218527	 1.0423830741	 0.120481
H	-0.8825145677	-0.2731084991	 0.4224325681	 0.084679
H	-0.0041609697	-1.5172676726	-1.51534022	 0.09193
H	 1.670208178	-0.6022918451	-3.0492123192	 0.120515
H	 1.2876209565	 0.9969611785	-2.4018180534	 0.109597
H	 3.4601641461	 0.9047588289	-1.4630546345	 0.110677
H	 1.2630029879	-1.5492784704	 0.8358710262	 0.096346
H	 5.0677332592	-2.9455959485	-2.0837118136	 0.199542
63.6017	127.7857	165.1255	200.4926	237.5134	287.4182	436.2949	454.549	538.9815	597.9461	623.6418	662.2206	720.2769	737.2947	777.0432	779.7715	839.1888	888.5001	937.8607	970.386	989.6315	998.0383	1039.2388	1067.1014	1101.0157	1109.301	1135.0374	1144.2613	1212.9601	1218.6188	1265.3347	1299.86	1340.7377	1343.2574	1372.7037	1416.0872	1427.7427	1486.8401	1498.1772	1506.8202	2231.6647	3036.1037	3051.6356	3065.8248	3092.9914	3118.1822	3121.7565	3133.4502	3156.6879	3181.4386	3502.8791
CC1C2CC(OC12)C#C	C[C@H]1[C@H]2C[C@@H](O[C@@H]12)C#C	
InChI=1S/C8H10O/c1-3-6-4-7-5(2)8(7)9-6/h1,5-8H,4H2,2H3	InChI=1S/C8H10O/c1-3-6-4-7-5(2)8(7)9-6/h1,5-8H,4H2,2H3/t5-,6-,7+,8-/m0/s1
