18
gdb 99858	2.09676	1.29805	1.19278	1.4973	67.73	-0.2846	0.0106	0.2952	1168.6649	0.144775	-476.227807	-476.21757	-476.216626	-476.262659	37.301	
C	 0.0536346219	 1.5529192359	-0.0680632991	-0.429856
C	 0.0363210554	 0.0357827219	 0.0767124118	 0.095978
O	 0.7035234252	-0.414142269	 1.2447562893	-0.433607
C	-1.3957223285	-0.5569429968	 0.0305974049	 0.207347
O	-2.0250343363	-0.1273810684	-1.1537033082	-0.453344
C	-1.3707796879	-2.1021463799	 0.0622578248	-0.114747
O	-2.6717687288	-2.6081853784	-0.1954751059	-0.430057
C	-2.1598183507	-0.0907587706	 1.2224169821	 0.228385
N	-2.7514369411	 0.2394738841	 2.1596728629	-0.344078
H	 1.0869210861	 1.9090459766	-0.0597225391	 0.129131
H	-0.4227236994	 1.8571322872	-1.0023987948	 0.149968
H	-0.4853926037	 2.0302419914	 0.7587259177	 0.130309
H	 0.5730697758	-0.4188452086	-0.7633375025	 0.106151
H	 0.3875360797	 0.1091050758	 1.9911644316	 0.294891
H	-2.7345471197	-0.7667294687	-1.3195178516	 0.297354
H	-0.7397347265	-2.4426596556	-0.7637845479	 0.128848
H	-0.9504830376	-2.4651200526	 1.0042370362	 0.132755
H	-3.1956418739	-2.5208753846	 0.6095359379	 0.30457
80.0434	102.8845	140.4482	164.5948	198.9565	247.0532	284.556	326.6132	342.737	364.0762	391.8401	430.5067	465.2085	489.4729	567.4825	611.7922	663.7879	728.6844	889.3551	921.9586	995.7474	1007.1854	1076.7063	1090.9121	1117.5861	1122.9792	1183.5096	1238.3826	1304.3594	1343.9731	1368.482	1400.6024	1405.7695	1411.3809	1415.5361	1491.6937	1492.5454	1496.2417	2339.1979	3038.5053	3055.6176	3060.0716	3113.2786	3116.6489	3141.1473	3719.903	3790.5465	3798.4228
CC(O)C(O)(CO)C#N	C[C@@H](O)[C@@](O)(CO)C#N	
InChI=1S/C5H9NO3/c1-4(8)5(9,2-6)3-7/h4,7-9H,3H2,1H3	InChI=1S/C5H9NO3/c1-4(8)5(9,2-6)3-7/h4,7-9H,3H2,1H3/t4-,5+/m1/s1
