21
gdb 96562	2.34707	1.4195	1.03437	2.2625	74.27	-0.2469	0.06	0.3069	1203.0638	0.183701	-461.35819	-461.349259	-461.348315	-461.391652	34.695	
O	-0.0113522865	 1.4864787646	-0.0369440868	-0.449171
C	 0.028779807	 0.0699590796	-0.0059790659	 0.137395
C	 0.9369098516	-0.4507061186	 1.121421908	-0.234506
C	 1.5334734235	-1.8338731993	 0.8467399081	-0.081471
O	 0.6148173	-2.9094377841	 0.8845419473	-0.2396
C	-0.391927139	-2.8912264195	-0.108698742	-0.079931
C	-1.576692887	-1.9848112259	 0.2593575484	-0.235987
C	-1.4154340621	-0.4647312462	 0.0426209628	 0.076891
O	-2.045393942	 0.2611748232	 1.1097910287	-0.443595
H	-0.7040890873	 1.7356121949	 0.589349978	 0.28525
H	 0.4668190117	-0.2352885667	-0.9653319698	 0.076901
H	 1.7661749788	 0.2601108009	 1.2102716785	 0.107643
H	 0.4033534614	-0.4507012143	 2.0785328778	 0.111428
H	 2.0507865394	-1.8172602463	-0.1290986228	 0.084321
H	 2.281169805	-2.0716787282	 1.6096162021	 0.107798
H	 0.0316736747	-2.6288127598	-1.0917993251	 0.089618
H	-0.7521615314	-3.9229896717	-0.1782822925	 0.106799
H	-2.4622180238	-2.3293202675	-0.2891220591	 0.092158
H	-1.777780105	-2.148611391	 1.3232972159	 0.122077
H	-1.8825965286	-0.1718645825	-0.9082474077	 0.075298
H	-2.9981285105	 0.1656431884	 1.0249084662	 0.290683
65.8028	145.388	217.7212	249.9818	270.1667	310.0035	335.1319	382.8535	389.4547	460.0531	465.7953	525.2913	555.3039	640.3467	754.5403	839.305	865.5603	926.3367	950.4993	994.5964	1017.7736	1063.0161	1077.7402	1089.2671	1105.5807	1130.7929	1159.0449	1201.0213	1225.5334	1238.5467	1287.0298	1306.3926	1322.0225	1344.6339	1360.6342	1367.4926	1395.3597	1405.782	1423.5729	1429.2713	1455.8854	1473.0316	1485.5918	1490.8294	1501.9233	2950.0364	2976.5634	2993.7871	3023.296	3029.8419	3041.4531	3068.1625	3079.0999	3083.5213	3089.7126	3759.2926	3838.7469
OC1CCOCCC1O	O[C@H]1CCOCC[C@H]1O	
InChI=1S/C6H12O3/c7-5-1-3-9-4-2-6(5)8/h5-8H,1-4H2	InChI=1S/C6H12O3/c7-5-1-3-9-4-2-6(5)8/h5-8H,1-4H2/t5-,6+
