21
gdb 35124	6.03895	0.75357	0.71393	0.8569	90.47	-0.2527	0.0516	0.3043	1615.7543	0.181939	-349.89775	-349.888639	-349.887695	-349.932113	34.823	
C	-0.958842993	-0.652130415	-0.9553284628	-0.44977
C	-0.42410479	 0.2673567887	-0.3928692138	 0.298171
C	 0.23638573	 1.3531189255	 0.3003480395	-0.144792
C	 0.2612206565	 1.3417000028	 1.8644550326	-0.24406
C	 1.7463047208	 1.8131579435	 1.8235070766	-0.010049
C	 1.8001386991	 1.388589563	 0.3247518803	-0.244059
C	 1.9404562578	 3.2904137261	 2.0625470923	 0.045544
C	 2.2423320357	 3.8043378574	 3.4478046512	-0.277206
C	 3.3097274127	 3.8368615534	 2.3798430024	-0.277205
H	-1.4346352982	-1.4586254201	-1.4554488949	 0.190943
H	-0.1543472765	 2.3101462832	-0.0610413794	 0.101221
H	-0.4555194538	 1.9924141452	 2.3709411003	 0.10401
H	 0.1565567256	 0.3263041129	 2.2526555476	 0.109469
H	 2.4202387061	 1.2541489153	 2.4800741954	 0.063375
H	 2.2189664753	 0.3891449212	 0.1891926701	 0.109469
H	 2.2858835058	 2.0759438319	-0.3718611986	 0.10401
H	 1.3092346244	 3.9327333477	 1.4512223812	 0.077927
H	 1.7986724121	 4.7425728742	 3.7621720144	 0.110626
H	 2.3472140344	 3.0754503978	 4.2450984825	 0.110876
H	 4.128942589	 3.1297396772	 2.4624250762	 0.110876
H	 3.594948716	 4.7973052883	 1.9649427068	 0.110626
57.2574	67.2139	135.3585	201.5116	210.8975	285.4689	325.4085	445.3358	516.5581	518.1702	611.1642	622.297	638.3271	746.0252	806.0329	818.0983	826.4316	875.0297	926.0024	929.3481	944.2747	989.6609	995.5833	1027.6738	1055.5298	1074.9388	1089.4697	1090.1677	1136.6554	1150.6276	1196.1387	1217.7359	1227.8658	1248.4745	1255.517	1260.627	1272.603	1314.1184	1354.3913	1431.879	1470.8541	1472.7923	1493.3768	1507.1803	2231.1687	3046.2187	3050.0872	3063.3791	3069.1468	3120.6132	3122.33	3126.3635	3127.8354	3133.0546	3205.5299	3220.5837	3505.7244
C#CC1CC(C1)C1CC1	C#C[C@H]1C[C@@H](C1)C1CC1	
InChI=1S/C9H12/c1-2-7-5-9(6-7)8-3-4-8/h1,7-9H,3-6H2	InChI=1S/C9H12/c1-2-7-5-9(6-7)8-3-4-8/h1,7-9H,3-6H2/t7-,9-
