16
gdb 51295	4.71773	1.00449	0.8779	4.2582	71.4	-0.2685	-0.0239	0.2446	1279.3316	0.125024	-437.910095	-437.902424	-437.90148	-437.943035	28.185	
O	 0.0639827905	-0.0110879145	 0.0488011118	-0.252411
C	 0.0001647477	 1.1723432063	-0.0517620874	 0.167312
O	 1.1189581117	 1.953254321	 0.1406541069	-0.235616
C	 0.978515942	 3.3102211425	 0.1198800137	 0.44766
N	-0.1272161476	 3.9265995199	 0.2370158151	-0.308921
C	 0.1479101246	 5.365622086	 0.0831256948	-0.178309
C	 1.669116706	 5.5332820327	-0.0016121376	-0.049299
C	 2.464132435	 5.0345576256	 1.1674921034	-0.275845
C	 2.2183237716	 4.1162305854	-0.0165910234	-0.160966
H	-0.8857499187	 1.7694474212	-0.3032142796	 0.139081
H	-0.3491653218	 5.7248708546	-0.825910888	 0.118529
H	-0.2907672952	 5.9134773757	 0.9247147499	 0.121418
H	 2.0880500142	 6.3065437789	-0.6333937756	 0.101512
H	 3.474576411	 5.4113115343	 1.2794053624	 0.124502
H	 1.955353539	 4.8139771953	 2.1007248674	 0.128828
H	 3.04060261	 3.763930675	-0.6255235237	 0.112527
63.2533	105.9246	173.7586	256.014	286.9864	377.1762	396.7773	513.6911	682.9275	729.7589	773.3835	802.613	819.921	892.6336	908.6432	986.6571	997.304	1025.2355	1050.7929	1064.2366	1074.7646	1086.1672	1096.1479	1115.739	1188.5353	1221.7157	1244.9742	1329.3655	1351.8422	1385.0839	1404.3775	1479.1262	1495.9739	1701.6399	1877.0183	3034.4484	3067.7513	3075.296	3129.5731	3189.7496	3200.9787	3221.3691
O=COC1=NCC2CC12	O=COC1=NC[C@H]2C[C@@H]12	
InChI=1S/C6H7NO2/c8-3-9-6-5-1-4(5)2-7-6/h3-5H,1-2H2	InChI=1S/C6H7NO2/c8-3-9-6-5-1-4(5)2-7-6/h3-5H,1-2H2/t4-,5-/m1/s1
