18
gdb 17098	4.64905	1.47783	1.42077	3.0819	72.06	-0.2438	-0.0189	0.2249	933.8208	0.155836	-347.804428	-347.797661	-347.796717	-347.835729	26.46	
O	 0.0806830926	-0.0858079811	-0.0727278218	-0.255557
C	 0.0477198063	 1.1168976478	 0.0014348669	 0.142363
C	 1.2618873529	 2.0071515498	 0.0398750057	-0.049611
C	 1.2633559134	 3.1270097397	-1.0661812041	-0.247681
C	 1.4150769104	 4.372590722	-0.1705924508	-0.00509
C	 2.4776220936	 3.9045004468	 0.8636274012	-0.221749
C	 1.3404338165	 2.9293003706	 1.2892082584	-0.035057
C	 0.3659447056	 4.0952031551	 0.941902027	-0.228035
H	-0.9292132413	 1.6534251473	 0.0461894511	 0.06799
H	 2.139238006	 1.358926605	-0.0277753586	 0.089229
H	 2.0902539648	 2.9955435549	-1.7684171794	 0.109671
H	 0.3333417863	 3.1462609575	-1.6445400075	 0.103993
H	 1.4817269885	 5.3374832951	-0.6733458167	 0.06498
H	 3.4128106361	 3.4755110805	 0.4913459083	 0.093145
H	 2.6836871566	 4.6578727645	 1.6273675914	 0.100909
H	 1.3349393469	 2.4376406441	 2.2621264955	 0.073277
H	 0.3628892003	 4.8645716467	 1.7171070519	 0.102675
H	-0.6605116055	 3.8659898736	 0.6439013216	 0.094547
65.2452	162.1323	265.3754	391.5761	411.6761	460.1482	516.1907	673.8582	821.5008	833.52	851.4001	852.1353	875.5287	924.9836	952.0884	957.7982	986.1376	1020.3613	1038.1131	1058.6682	1084.1595	1095.9912	1111.4793	1152.7279	1185.9212	1223.7697	1244.5534	1247.8107	1264.8187	1288.8417	1302.0611	1313.4471	1337.8389	1435.2727	1489.4465	1495.0479	1525.4865	1825.4231	2852.157	3048.0486	3052.064	3062.3806	3077.5152	3101.3737	3113.8189	3114.7449	3116.5989	3122.8895
O=CC1CC2CC1C2	O=C[C@H]1C[C@@H]2C[C@H]1C2	
InChI=1S/C7H10O/c8-4-7-3-5-1-6(7)2-5/h4-7H,1-3H2	InChI=1S/C7H10O/c8-4-7-3-5-1-6(7)2-5/h4-7H,1-3H2/t5-,6+,7-/m1/s1
