21
gdb 57469	2.40406	1.39297	1.12205	1.0163	78.76	-0.2547	-0.0321	0.2226	1193.5244	0.179103	-424.234113	-424.224169	-424.223225	-424.268591	37.034	
C	 0.0700036831	 1.5588825589	 0.0284060892	-0.432681
C	 0.0138775791	 0.0209662798	 0.0389602632	 0.236038
C	 0.63540468	-0.5294232728	 1.3353691467	-0.41911
C	-1.4462365703	-0.4462525612	-0.0994631923	-0.41312
C	 0.814186464	-0.5546885874	-1.141670859	 0.012702
O	 0.3997005095	-0.0746565038	-2.450166352	-0.300528
C	 1.7094884885	 0.4103854676	-2.8060558048	-0.186284
C	 2.2250665127	-0.0150622654	-1.4267338654	 0.337246
O	 3.2562073876	 0.0591005455	-0.8301627758	-0.282784
H	 1.0923674128	 1.9255969583	 0.1692546305	 0.121574
H	-0.313250571	 1.9539222899	-0.9167071993	 0.126834
H	-0.5414502271	 1.9673871944	 0.838976689	 0.113947
H	 0.1023305747	-0.1358709837	 2.2068496165	 0.114479
H	 0.5732235241	-1.6227073084	 1.3729981891	 0.111477
H	 1.6890946376	-0.2480807332	 1.4222751485	 0.13946
H	-1.8764403493	-0.105361868	-1.0454469943	 0.133269
H	-1.5170060527	-1.5390948257	-0.0679970183	 0.109277
H	-2.055360202	-0.0466849916	 0.7182560207	 0.111463
H	 0.7884437096	-1.6545586086	-1.1053360927	 0.10023
H	 2.1524615956	-0.1292957734	-3.6530025824	 0.132263
H	 1.7288914037	 1.4883919188	-3.008807147	 0.134247
72.0552	113.2049	139.5702	208.8876	234.7897	258.5188	270.5106	279.701	325.4544	374.6116	398.5725	438.7406	510.4291	573.5228	717.4194	728.2074	825.5364	909.7687	938.1641	941.3002	962.1661	973.5275	1005.7218	1034.1589	1048.5663	1060.1452	1091.7433	1140.6463	1211.3231	1232.7469	1264.3503	1278.4575	1301.3938	1336.9715	1394.5917	1399.5335	1429.8862	1478.4021	1478.5858	1489.491	1491.8738	1504.0178	1504.6395	1523.3702	1914.2412	2992.1552	3018.1959	3027.827	3030.5986	3037.2495	3065.9195	3093.5076	3097.9142	3101.8777	3112.317	3113.7882	3116.2935
CC(C)(C)C1OCC1=O	CC(C)(C)[C@H]1OCC1=O	
InChI=1S/C7H12O2/c1-7(2,3)6-5(8)4-9-6/h6H,4H2,1-3H3	InChI=1S/C7H12O2/c1-7(2,3)6-5(8)4-9-6/h6H,4H2,1-3H3/t6-/m0/s1
