14
gdb 33300	5.85148	0.74393	0.70585	5.7146	86.06	-0.254	-0.059	0.195	1527.1086	0.10076	-399.487409	-399.479664	-399.47872	-399.52033	28.369	
N	 0.0612077253	-3.689002475	-0.0041066615	-0.334239
C	 0.0515235246	-2.5265699854	 0.0036017227	 0.17643
C	 0.0440650481	-1.1638056423	 0.0100375458	 0.203179
C	 0.0502896537	 0.0468270933	 0.0099406689	-0.031018
C	 0.0437864597	 1.4599554153	 0.0063168061	 0.235717
C	 0.2637651152	 2.3379871187	-1.2017411954	-0.329006
C	 1.1728814155	 2.4984693456	-0.0144922065	-0.171614
C	 0.4063326718	 3.1401218503	 1.1345799025	-0.094592
O	-0.6790804099	 2.1764897804	 1.0134015002	-0.309349
H	 0.7105069268	 1.8483915562	-2.0602428634	 0.142324
H	-0.4982720459	 3.0796001551	-1.4241577685	 0.136126
H	 2.2402237652	 2.3345817442	-0.0603977761	 0.128676
H	 0.900688666	 3.0342597769	 2.1052260929	 0.127809
H	 0.0610843039	 4.1700554868	 0.9962381624	 0.119555
79.8807	87.4184	202.7244	234.712	341.6297	380.476	451.0267	503.3492	539.684	578.2481	591.621	749.8312	818.931	832.1325	916.6501	968.8033	978.6057	1000.9067	1010.631	1059.46	1080.2182	1120.9693	1149.6215	1185.7289	1302.4251	1339.8245	1391.6342	1469.3505	1518.1665	2258.5151	2381.5592	3040.9853	3094.7013	3123.9368	3217.5124	3226.765
N#CC#CC12CC1CO2	N#CC#C[C@]12C[C@H]1CO2	
InChI=1S/C7H5NO/c8-3-1-2-7-4-6(7)5-9-7/h6H,4-5H2	InChI=1S/C7H5NO/c8-3-1-2-7-4-6(7)5-9-7/h6H,4-5H2/t6-,7-/m0/s1
