17
gdb 39875	3.46442	1.61488	1.47347	1.6163	71.07	-0.2404	0.0553	0.2957	928.8219	0.13687	-421.744466	-421.737904	-421.73696	-421.775277	26.862	
C	-0.0136927426	 1.5016432832	-0.0277875271	-0.272179
O	 1.1595426769	 0.6656031393	-0.020593022	-0.284691
C	-0.1182294446	 0.0477165848	 0.0127769329	 0.473605
C	-0.4790046615	-0.9396492401	 1.1283153291	-0.165451
C	-2.019047773	-1.0997288209	 1.2797276575	-0.244699
C	-2.0517175663	-1.9066438702	-0.0398464407	 0.103305
O	-1.945105139	-1.0490907108	-1.2016076415	-0.301079
C	-0.5077791118	-0.9698524403	-1.0646257011	-0.009315
C	-0.5078475936	-2.080492828	 0.0289247737	-0.089068
H	-0.1727020912	 2.0815350765	 0.8804769822	 0.116374
H	-0.2011055512	 2.0338342571	-0.9592675843	 0.120978
H	 0.1503839899	-0.9366985574	 2.0172468888	 0.084227
H	-2.253430804	-1.7504317746	 2.1287883423	 0.106434
H	-2.6357728557	-0.1984050238	 1.3292716547	 0.106864
H	-2.8013045951	-2.6871000512	-0.1797835354	 0.082013
H	 0.0195885565	-0.9659927983	-2.0203618595	 0.087973
H	 0.0642195062	-3.0031280053	 0.0256248406	 0.084708
130.4001	218.7902	308.626	387.306	391.951	452.482	606.4277	691.104	763.9681	819.6848	829.3458	835.577	859.7948	880.8404	925.7122	936.5599	978.3684	986.1249	990.0061	1007.8439	1094.9068	1108.3006	1115.4341	1126.0235	1142.8285	1156.064	1174.0136	1184.6783	1222.4129	1245.2768	1260.213	1286.2146	1289.6683	1328.4078	1445.5655	1468.9023	1535.1244	3046.7832	3082.9593	3096.8215	3100.1528	3107.4375	3123.9928	3165.913	3169.908
C1OC11C2CC3OC1C23	C1O[C@]21[C@H]1C[C@H]3O[C@@H]2[C@@H]13	
InChI=1S/C7H8O2/c1-3-5-4(1)9-6(5)7(3)2-8-7/h3-6H,1-2H2	InChI=1S/C7H8O2/c1-3-5-4(1)9-6(5)7(3)2-8-7/h3-6H,1-2H2/t3-,4+,5-,6+,7+/m0/s1
