20
gdb 113884	2.75923	0.96053	0.83171	3.0502	76.53	-0.2403	0.0288	0.2692	1459.9444	0.169154	-440.296889	-440.286437	-440.285493	-440.333811	36.576	
C	-0.19726707	 1.4231820274	 0.0539545941	-0.487924
C	-0.4241855611	-0.0325695824	-0.3281763472	 0.402646
O	-0.0246888631	-0.5060351143	-1.3749283904	-0.367841
N	-1.1091649496	-0.7726338959	 0.6012986255	-0.318288
C	-1.2431896286	-2.1964823944	 0.4958232421	 0.022683
C	-2.5067191267	-2.8325384862	 1.0136012714	-0.327045
C	-2.2277939271	-2.8116519277	-0.4689151026	 0.038402
C	-3.0646965933	-1.9684475229	-1.3915488791	-0.103753
O	-4.2664594574	-2.6820070099	-1.6658289926	-0.426136
H	-0.2432946722	 2.0330433842	-0.8494208098	 0.152055
H	-0.921432326	 1.795470879	 0.7839892209	 0.116419
H	 0.8065131662	 1.5315737667	 0.4782776739	 0.149297
H	-1.3127088334	-0.3504063233	 1.4932295629	 0.244017
H	-0.3137730456	-2.7452171149	 0.6303775666	 0.103044
H	-2.4299838934	-3.7669648284	 1.5571346888	 0.117854
H	-3.2833277837	-2.1645500019	 1.3729691027	 0.115425
H	-1.9039758289	-3.7491942863	-0.9102559165	 0.096644
H	-3.2785519179	-0.9988394502	-0.9177221257	 0.077788
H	-2.4974009366	-1.7673917994	-2.3107996262	 0.111023
H	-4.7304540516	-2.2159078991	-2.3674779888	 0.28369
46.587	55.2722	74.1787	93.094	152.5776	198.1178	250.0743	285.1853	336.3543	430.0021	435.9505	463.4825	552.6837	632.6309	670.0213	795.7129	840.5257	870.5358	918.5611	956.7255	988.3697	1048.0247	1050.9097	1066.3047	1070.1461	1074.1482	1132.0831	1173.5706	1186.481	1241.1223	1252.1001	1279.9823	1289.4583	1379.6866	1391.5433	1414.7806	1467.4011	1471.9809	1485.8823	1489.9761	1512.6677	1525.5953	1785.8598	2988.5647	3027.5943	3045.8299	3112.5478	3122.3505	3133.6974	3147.7655	3160.42	3221.5455	3625.1523	3828.0149
CC(=O)NC1CC1CO	CC(=O)N[C@H]1C[C@H]1CO	
InChI=1S/C6H11NO2/c1-4(9)7-6-2-5(6)3-8/h5-6,8H,2-3H2,1H3,(H,7,9)	InChI=1S/C6H11NO2/c1-4(9)7-6-2-5(6)3-8/h5-6,8H,2-3H2,1H3,(H,7,9)/t5-,6-/m0/s1
