23
gdb 112731	2.20579	1.22373	1.00969	2.2695	82.25	-0.2389	0.0676	0.3065	1352.7758	0.202703	-425.424381	-425.413699	-425.412755	-425.459773	39.708	
C	-0.1057757765	 1.5460434169	-0.2641633276	-0.381053
C	 0.0344110213	 0.046390381	 0.0219769062	-0.210225
C	-1.3146084222	-0.6422865903	 0.0967000715	 0.159792
O	-2.0352134183	-0.612859276	-1.1597639973	-0.325694
C	-2.5014799327	-1.9688296881	-0.9713843797	 0.134454
C	-2.4860182422	-2.7769726204	-2.2517724243	-0.41898
C	-1.4616179282	-2.1832597145	 0.1746630769	 0.267535
C	-0.2330700391	-3.0089985431	-0.1774252623	-0.460022
O	-1.9979796788	-2.5752341765	 1.4237330548	-0.474293
H	 0.8738779412	 2.0270335676	-0.3407974181	 0.108633
H	-0.6408610069	 1.7074550225	-1.2041501695	 0.137523
H	-0.6661126292	 2.0496098069	 0.5311472065	 0.114861
H	 0.6432811472	-0.4214915141	-0.7595753337	 0.094966
H	 0.5557225828	-0.1100062154	 0.9753013838	 0.100484
H	-1.9215088513	-0.1899275924	 0.8964378653	 0.075536
H	-3.5110798944	-1.9698435941	-0.5330547219	 0.070784
H	-1.4914681997	-2.7976433947	-2.7048103868	 0.118748
H	-2.809651519	-3.8067006333	-2.0633106544	 0.112131
H	-3.177548237	-2.3365967328	-2.9772300825	 0.130135
H	 0.2249108388	-2.6852827438	-1.1147653524	 0.13337
H	 0.5149104349	-2.9318431626	 0.6172686691	 0.127218
H	-0.5019105525	-4.0666091459	-0.2919599602	 0.107843
H	-1.9888575782	-3.5369893869	 1.4712562669	 0.276253
60.9966	92.3657	158.8235	202.7618	211.8638	233.9784	248.8838	253.7925	289.6467	307.7293	346.2015	394.8091	475.5484	497.025	541.6312	649.5985	750.1978	791.8751	863.8292	888.7119	937.7759	953.9577	976.6532	1011.9527	1058.6502	1082.2387	1095.5518	1133.0636	1143.1843	1171.2427	1194.0996	1210.0156	1263.2605	1291.8397	1323.5924	1346.6529	1376.1457	1383.7644	1403.6508	1408.0859	1410.0577	1438.6128	1473.0863	1477.2968	1490.3324	1497.0689	1498.403	1506.8839	1509.1615	2982.2124	2990.5577	3026.3057	3028.9811	3036.7112	3037.1859	3069.9341	3095.7041	3102.8131	3104.2727	3118.9556	3119.4024	3128.6942	3808.1841
CCC1OC(C)C1(C)O	CC[C@H]1O[C@@H](C)[C@]1(C)O	
InChI=1S/C7H14O2/c1-4-6-7(3,8)5(2)9-6/h5-6,8H,4H2,1-3H3	InChI=1S/C7H14O2/c1-4-6-7(3,8)5(2)9-6/h5-6,8H,4H2,1-3H3/t5-,6+,7-/m0/s1
