20
gdb 46357	3.34167	1.13731	0.99229	3.4216	81.13	-0.2352	0.0336	0.2688	1272.6403	0.172265	-403.162621	-403.154083	-403.153138	-403.19733	31.505	
O	-0.4332275032	 0.133236003	-0.3549146709	-0.387887
C	-0.2884488985	 1.3198503347	-0.1944031532	 0.412973
C	-1.2082855866	 2.547695663	-0.0035331782	-0.368595
C	 0.1090359108	 3.3685541884	 0.0795013817	-0.175281
N	 0.83642938	 2.1060828764	-0.1118599741	-0.081904
C	 2.2371750277	 1.7905705006	-0.1876897246	 0.056651
C	 2.8227177546	 0.6873851183	 0.7418742726	-0.242483
C	 3.7452689945	 0.2635065807	-0.4328332749	-0.210969
C	 2.7729627091	 0.9831111761	-1.4062286766	-0.242486
H	-1.8490368429	 2.7685237774	-0.8589259378	 0.132052
H	-1.8084525499	 2.5244652713	 0.9076578324	 0.13205
H	 0.2595410261	 4.0954213844	-0.7259935306	 0.111974
H	 0.3004356333	 3.8506068808	 1.0442860325	 0.111976
H	 2.7890638438	 2.7280146255	-0.0714155533	 0.084861
H	 3.2801696683	 1.0039734276	 1.6822317696	 0.09364
H	 2.0641862956	-0.0723430426	 0.9423814681	 0.136686
H	 4.7187951932	 0.7602059775	-0.3869769683	 0.100167
H	 3.9053125126	-0.8051725672	-0.583656264	 0.106213
H	 2.0013417859	 0.301065628	-1.7697656301	 0.136722
H	 3.1891885256	 1.5447539159	-2.2459164502	 0.093641
23.7813	90.5045	112.9017	182.1324	214.9648	370.5055	381.8857	449.0293	568.9858	592.3785	734.4962	781.5801	786.3816	821.6483	859.0483	912.4614	926.5255	939.8458	951.1781	1004.1342	1040.9861	1046.6519	1056.1662	1101.9607	1148.3496	1176.8239	1185.0311	1197.1856	1221.2652	1251.0638	1255.5847	1259.2889	1272.1241	1283.4351	1286.257	1389.764	1432.6214	1464.1986	1473.3829	1489.2675	1511.3203	1529.8139	1857.171	3031.7593	3061.6552	3063.9002	3065.4459	3070.6484	3075.024	3088.2445	3114.1779	3127.8326	3137.3519	3145.2687
O=C1CCN1C1CCC1	O=C1CCN1C1CCC1	
InChI=1S/C7H11NO/c9-7-4-5-8(7)6-2-1-3-6/h6H,1-5H2	InChI=1S/C7H11NO/c9-7-4-5-8(7)6-2-1-3-6/h6H,1-5H2
