20
gdb 31717	4.42954	0.89527	0.77487	2.4789	84.56	-0.1733	0.0447	0.218	1531.181	0.172074	-399.373298	-399.363688	-399.362744	-399.408626	34.957	
C	-0.1080094595	 1.5075219735	-0.0309164712	-0.363178
C	 0.0486467845	-0.0194920452	 0.0070844396	-0.29597
C	 0.7391519916	-0.4985090641	 1.2464637266	 0.36114
N	 1.893939108	-0.0516750871	 1.7046492038	-0.371184
C	 2.1532003144	-0.7716592615	 2.8461145116	 0.322757
N	 3.2887736054	-0.497284635	 3.5945978184	-0.371539
C	 3.7440570534	-1.5041332191	 4.5309752242	-0.321864
C	 1.1480200937	-1.6808415914	 3.0857440257	-0.212948
N	 0.2454825353	-1.4772319686	 2.0469644573	-0.287779
H	 0.8680595165	 1.9866845485	 0.073592416	 0.146346
H	-0.5583259603	 1.8289048286	-0.9749733303	 0.106266
H	-0.741791679	 1.8578440286	 0.7895020429	 0.117749
H	-0.9321242932	-0.5044138277	-0.06933178	 0.091228
H	 0.6216625937	-0.3441507089	-0.8711374525	 0.122138
H	 4.0157424338	-0.0940381266	 3.0210316151	 0.236844
H	 4.6808763612	-1.1765486317	 4.9878365379	 0.12088
H	 3.0092993634	-1.6229374656	 5.3361669618	 0.125487
H	 3.901554989	-2.4956083687	 4.073735864	 0.104086
H	 0.9796743659	-2.4107125216	 3.8570819194	 0.113598
H	-0.6168178378	-1.9757696165	 1.9096253997	 0.255945
28.8398	84.497	135.8305	190.654	194.6709	227.5314	288.9316	355.5873	392.5264	473.4197	482.6297	552.6479	610.0409	669.9469	702.8472	743.2938	746.2496	792.7421	967.9703	993.8007	1027.1922	1078.4249	1090.0654	1105.9016	1112.0347	1159.5129	1173.0728	1243.5183	1289.4282	1301.4426	1344.5796	1387.4456	1406.3728	1458.1971	1469.1696	1478.9751	1486.7102	1493.5542	1501.8773	1510.314	1521.5177	1575.2037	1636.7602	2961.224	3019.9139	3042.73	3050.2181	3055.7219	3110.7376	3115.4193	3132.658	3290.434	3596.4439	3670.5434
CCC1=NC(NC)=CN1	CCc1nc(NC)c[nH]1	
InChI=1S/C6H11N3/c1-3-5-8-4-6(7-2)9-5/h4,7H,3H2,1-2H3,(H,8,9)	InChI=1S/C6H11N3/c1-3-5-8-4-6(7-2)9-5/h4,7H,3H2,1-2H3,(H,8,9)
