20
gdb 111222	2.68767	1.13321	0.94933	2.6117	75.64	-0.246	0.0574	0.3034	1299.3647	0.172149	-440.18086	-440.172176	-440.171232	-440.214811	32.999	
O	-0.0079642896	 1.4917682102	 0.7727206367	-0.418668
C	 0.152075353	 0.1835102765	 0.2478520151	-0.118378
C	-1.2138439051	-0.4575525526	 0.0661127448	 0.06174
C	-1.5104762558	-1.9786845851	 0.0323478192	-0.129186
C	-1.2014604398	-1.9485698419	 1.5466650448	-0.180739
N	-2.0389874242	-0.6665449098	 1.366674269	-0.201348
C	-2.941424735	-1.5863266437	 0.4940367727	 0.068079
C	-4.0126211318	-0.8958482688	-0.3326738936	-0.120924
O	-4.919491885	-0.2317965077	 0.532166374	-0.417581
H	-0.5987514086	 1.4103875106	 1.531395725	 0.293338
H	 0.6283461425	 0.2957977053	-0.732777883	 0.111449
H	 0.8342703426	-0.4137496277	 0.8675603225	 0.091861
H	-1.7591314768	 0.1564661852	-0.651619511	 0.083971
H	-1.2128943385	-2.7213366632	-0.7154509165	 0.070756
H	-1.6904854236	-2.6930670878	 2.1797321496	 0.108045
H	-0.179099138	-1.7751100852	 1.8782284585	 0.108373
H	-3.4378567434	-2.3284168988	 1.1282884727	 0.08585
H	-3.6062746687	-0.2095843394	-1.0874545575	 0.097736
H	-4.5903758073	-1.655992345	-0.8707900212	 0.11145
H	-4.382149257	 0.2730137591	 1.1547527384	 0.294178
67.106	78.8064	151.7978	176.2738	285.7222	379.8312	412.1164	419.7134	442.94	466.085	592.9332	605.8676	750.5958	754.8156	793.9035	891.19	893.6453	910.0503	1009.6234	1029.7711	1045.8213	1068.6786	1075.3498	1083.3148	1125.6862	1152.3028	1163.7043	1164.623	1182.1497	1216.3497	1229.5319	1233.5429	1245.9129	1276.4963	1351.1741	1360.2517	1416.9455	1423.4199	1449.3541	1455.0238	1508.0168	1519.8821	1551.3861	3009.7738	3010.0862	3046.0867	3050.2584	3061.8963	3067.4067	3078.0835	3108.7396	3151.6094	3783.4865	3785.7226
OCC1C2CN1C2CO	OC[C@H]1[C@H]2CN1[C@H]2CO	
InChI=1S/C6H11NO2/c8-2-5-4-1-7(5)6(4)3-9/h4-6,8-9H,1-3H2	InChI=1S/C6H11NO2/c8-2-5-4-1-7(5)6(4)3-9/h4-6,8-9H,1-3H2/t5-,6-/m0/s1
