17
gdb 106880	2.00079	1.84726	1.15633	2.5449	71.79	-0.2291	-0.0346	0.1945	1080.2867	0.133453	-458.910983	-458.902319	-458.901375	-458.944459	31.629	
C	 0.3118282662	 0.4793470875	-0.6958241203	-0.273759
O	-0.2379549639	 0.2653259135	 0.601357399	-0.268299
C	 0.5228738054	-0.4279575112	 1.4893103443	 0.34116
C	 1.9577937835	-0.8130870268	 1.3953965547	-0.401268
C	 0.9540891016	-1.9347965763	 1.6098811922	 0.250724
O	 0.5356068126	-1.983942804	 2.9709233615	-0.315885
C	 0.0059598853	-0.6334621304	 2.9058589556	-0.143113
C	 0.7381828675	-3.0631792883	 0.7105195444	 0.068984
O	 1.0708845828	-3.0774396802	-0.4569640147	-0.290691
H	 0.5357743217	-0.4709992588	-1.1919004562	 0.156915
H	-0.4513831783	 1.0167268864	-1.2603396654	 0.138967
H	 1.2217570908	 1.0897961503	-0.6447743803	 0.124166
H	 2.3791459919	-0.8169452163	 0.39612503	 0.150843
H	 2.6558793248	-0.5943754788	 2.2009663211	 0.125693
H	 0.4151529825	 0.0148079544	 3.6883408294	 0.116367
H	-1.0877198486	-0.6403327313	 2.948051355	 0.128577
H	 0.2051973241	-3.9151089397	 1.1842131296	 0.090619
86.9388	103.4288	172.687	214.0982	234.0607	264.4678	307.6406	407.3887	429.3053	500.6071	539.7814	647.6129	717.3708	754.4315	808.0444	935.0033	956.7719	989.5035	1021.2977	1037.8888	1074.1714	1091.5602	1137.9754	1150.041	1182.3889	1207.6231	1275.1416	1304.8722	1344.5269	1374.2979	1419.179	1465.0618	1491.8475	1498.6851	1513.1048	1517.6211	1774.3277	2909.1015	3019.4866	3038.8642	3092.6245	3097.3175	3106.7344	3143.2785	3220.7223
COC12CC1(OC2)C=O	CO[C@]12C[C@]1(OC2)C=O	
InChI=1S/C6H8O3/c1-8-6-2-5(6,3-7)9-4-6/h3H,2,4H2,1H3	InChI=1S/C6H8O3/c1-8-6-2-5(6,3-7)9-4-6/h3H,2,4H2,1H3/t5-,6-/m0/s1
