20
gdb 51429	3.6171	1.05344	0.9907	3.7295	80.84	-0.2408	0.0333	0.2741	1272.6505	0.17384	-403.164287	-403.156361	-403.155417	-403.197916	30.74	
O	-0.1180630891	-0.0571252351	 0.4249353252	-0.324742
C	-0.0494002294	 1.1158894993	 0.1246109515	 0.148803
N	 1.09186714	 1.7938396513	-0.1770844936	-0.314675
C	 2.3989235863	 1.1782811339	-0.1756415746	 0.092051
C	 3.3050323491	 1.4610716623	-1.4192509282	-0.035647
C	 3.6787689953	 2.8080145617	-0.7302569963	-0.247665
C	 3.5357998031	 1.9556383217	 0.5665288564	-0.035634
C	 4.7079001796	 0.966903468	 0.4228576078	-0.214643
C	 4.5319651667	 0.5898443652	-1.0911391223	-0.214644
H	-0.9386701434	 1.775172877	 0.063634824	 0.070306
H	 1.0019723152	 2.7696152096	-0.4098412208	 0.245732
H	 2.2438688443	 0.1351159405	 0.102194218	 0.110586
H	 2.9044759524	 1.416477098	-2.4323555385	 0.064451
H	 4.6586088537	 3.2413097027	-0.952039547	 0.094429
H	 2.9172411985	 3.5845973906	-0.835164428	 0.08646
H	 3.3666254369	 2.4069405101	 1.5445473401	 0.064454
H	 5.6723047057	 1.4388899282	 0.6296297637	 0.09947
H	 4.6064215346	 0.1033894704	 1.0858107611	 0.10572
H	 4.3362572472	-0.4756388655	-1.2391421553	 0.105718
H	 5.4020662334	 0.8597375404	-1.6958565332	 0.09947
22.9067	147.1588	175.3318	281.7427	301.19	398.2668	427.0178	513.7661	520.0831	635.9794	742.6282	827.6991	831.7129	843.4301	888.4259	899.4587	941.3717	943.253	975.0697	1001.9781	1019.569	1031.933	1053.6565	1074.8283	1079.469	1137.057	1155.3429	1210.322	1214.3242	1232.9765	1243.6408	1260.0475	1268.8101	1288.5321	1315.4986	1324.3902	1379.9611	1435.069	1495.571	1501.5812	1528.6236	1541.673	1806.1973	2928.5933	3053.3015	3053.7524	3062.3269	3091.3852	3103.5371	3110.0334	3111.6065	3113.6389	3120.2914	3640.7114
O=CNC1C2CC1CC2	O=CN[C@H]1[C@H]2C[C@@H]1CC2	
InChI=1S/C7H11NO/c9-4-8-7-5-1-2-6(7)3-5/h4-7H,1-3H2,(H,8,9)	InChI=1S/C7H11NO/c9-4-8-7-5-1-2-6(7)3-5/h4-7H,1-3H2,(H,8,9)/t5-,6+,7+
