19
gdb 61267	3.76592	0.87795	0.76968	1.6685	77.68	-0.2451	0.0482	0.2933	1487.3548	0.156741	-422.96676	-422.956937	-422.955993	-423.002394	35.122	
O	-0.0578499454	 1.5051004786	 0.018654106	-0.425067
C	 0.0346316882	 0.0916522075	 0.0600680298	 0.108741
C	 0.6478697496	-0.5161034198	-1.2168515829	-0.397673
C	-0.108825678	-0.2160953649	-2.4241337671	 0.308542
C	-0.7428802495	 0.0310720908	-3.4144537749	-0.437852
C	 0.8207353546	-0.3456586946	 1.294496217	 0.136577
C	 0.1438828018	-0.1354995465	 2.6637969917	-0.299354
C	 0.2103973327	-1.6727578383	 2.7717990195	-0.062142
O	 0.8205100815	-1.7818151012	 1.4642887082	-0.294584
H	 0.8075222128	 1.8577606982	-0.2175152453	 0.282493
H	-0.9970358843	-0.2646679752	 0.1565860324	 0.1016
H	 1.6806371706	-0.150503861	-1.3223040438	 0.114853
H	 0.7216707147	-1.6000200184	-1.0692414003	 0.158015
H	-1.3012457325	 0.2493584062	-4.2905630672	 0.193551
H	 1.8495146851	 0.0433756533	 1.2261800508	 0.062703
H	 0.7285645005	 0.4148987076	 3.4012765571	 0.112831
H	-0.8576702783	 0.2935857006	 2.6079145584	 0.122826
H	 0.8678739895	-2.0640161663	 3.557161542	 0.105521
H	-0.7495414634	-2.1997926367	 2.8179113186	 0.108421
53.1605	75.1254	92.2861	114.9619	184.9125	246.5804	299.1914	346.0329	356.7239	412.0734	460.3289	568.621	616.0484	636.9875	779.0073	825.5659	861.3854	904.2608	947.4132	953.7894	997.2562	1029.7371	1036.4143	1084.5462	1111.534	1142.647	1164.8059	1189.9128	1208.9064	1255.5215	1270.9568	1275.7274	1314.8424	1358.0231	1364.3344	1403.7672	1411.1118	1469.1467	1492.0061	1531.3552	2241.8678	2970.5652	2997.3459	3023.1191	3056.5652	3063.8104	3067.8938	3086.6405	3141.3903	3507.6761	3797.3595
OC(CC#C)C1CCO1	O[C@@H](CC#C)[C@H]1CCO1	
InChI=1S/C7H10O2/c1-2-3-6(8)7-4-5-9-7/h1,6-8H,3-5H2	InChI=1S/C7H10O2/c1-2-3-6(8)7-4-5-9-7/h1,6-8H,3-5H2/t6-,7+/m0/s1
