20
gdb 69970	2.4691	1.83913	1.37083	0.9717	78.52	-0.2162	0.0758	0.292	1019.1733	0.170614	-403.085514	-403.077208	-403.076263	-403.117609	33.536	
C	-0.0351362067	 1.5407657424	 0.0328880255	-0.51639
C	 0.126500108	 0.0533877772	 0.0094502548	 0.310934
N	-0.79307903	-0.8611853887	 0.7216651598	-0.377418
C	 0.6687305777	-0.9248719335	 0.9984292259	-0.117498
C	 1.3086585288	-1.7875808962	-0.1113093078	-0.107163
C	 0.4305485265	-2.9054727734	-0.7505402834	-0.222815
C	-0.0998617108	-1.8934610056	-1.8165513696	-0.292271
C	 0.7467002998	-0.7640479797	-1.1603244702	 0.382473
O	 1.5433873486	 0.0670954934	-1.9520032347	-0.488818
H	 0.8520866381	 2.0275796123	-0.3799558795	 0.14371
H	-0.899349652	 1.8567602483	-0.5634652853	 0.125618
H	-0.1835394373	 1.8990224144	 1.0578611468	 0.110398
H	-1.2175398591	-0.3240647948	 1.4775893679	 0.224114
H	 1.0344236875	-0.7693798053	 2.0073488902	 0.086037
H	 2.3817860577	-1.9519831015	-0.0087442837	 0.064775
H	 1.0136317123	-3.7274188493	-1.1726536894	 0.087638
H	-0.3368789112	-3.309708875	-0.090762311	 0.115873
H	 0.2447107738	-2.1132178249	-2.8331695716	 0.080704
H	-1.179233157	-1.7341717694	-1.8344787871	 0.11125
H	 2.0382175255	-0.4836418207	-2.5673259176	 0.27885
146.3904	203.2822	214.505	240.9591	259.8671	312.6917	372.6543	405.3089	454.4426	535.4087	591.6477	639.1451	716.1857	765.9858	795.6723	831.2702	855.0968	894.8952	937.5644	958.1962	969.1655	1018.6005	1025.3088	1062.549	1067.9596	1077.0263	1104.0059	1115.2284	1163.7369	1215.4397	1226.1488	1252.71	1259.8382	1277.8513	1293.3749	1330.819	1375.8815	1407.853	1449.3038	1453.8599	1475.4998	1478.5088	1501.3498	3025.4149	3042.3263	3070.3375	3084.4652	3108.3917	3117.2978	3118.2796	3140.614	3170.7148	3467.3667	3812.3491
CC12NC1C1CCC21O	C[C@]12N[C@H]1[C@H]1CC[C@@]21O	
InChI=1S/C7H11NO/c1-6-5(8-6)4-2-3-7(4,6)9/h4-5,8-9H,2-3H2,1H3	InChI=1S/C7H11NO/c1-6-5(8-6)4-2-3-7(4,6)9/h4-5,8-9H,2-3H2,1H3/t4-,5+,6+,7+/m1/s1
