20
gdb 6901	2.45777	1.76202	1.41232	2.4117	71.58	-0.2272	0.0741	0.3012	1019.5497	0.174024	-386.113662	-386.103919	-386.102975	-386.147478	35.307	
C	 0.0765917987	 1.0640144665	 0.3068921999	-0.234898
O	-0.2467197799	 0.0125574585	-0.5846114992	-0.252856
C	-1.4324902579	-0.6535518762	-0.2717551041	-0.000029
C	-1.4965767553	-2.0380915391	-0.8541640081	 0.056976
O	-0.3901682072	-2.4908181238	-1.572640151	-0.434519
C	-1.4185491061	-1.8651177231	 0.658661035	 0.239702
C	-0.1335457302	-2.2612528452	 1.3543300534	-0.444598
C	-2.6895275679	-2.1217083972	 1.4437800614	-0.452556
H	 1.0059540106	 1.5138935006	-0.0499214165	 0.130122
H	-0.7111628275	 1.8310304007	 0.3158684698	 0.112775
H	 0.2211154646	 0.6973857374	 1.3311192333	 0.118599
H	-2.3174563966	-0.0145879135	-0.28077738	 0.080801
H	-2.4368158418	-2.383585489	-1.2785379739	 0.090529
H	 0.1847997379	-1.7254998582	-1.7022983796	 0.298401
H	 0.7422639442	-2.0306016406	 0.7466557338	 0.122627
H	-0.0320605754	-1.7491199272	 2.3181353188	 0.106364
H	-0.1250054012	-3.3394237513	 1.5498799358	 0.118615
H	-2.7872745658	-3.1847579208	 1.6938134912	 0.119298
H	-2.6986444334	-1.5547440558	 2.3826010268	 0.112723
H	-3.5809570196	-1.8341458128	 0.875881683	 0.111923
112.0315	147.908	158.9311	167.6951	196.4297	199.2908	250.393	283.2395	329.4765	365.1622	373.1581	512.1364	529.7454	627.6052	724.0494	819.2072	858.1471	973.3285	986.2373	1016.4818	1029.4509	1062.5125	1110.8267	1143.0032	1171.2773	1182.2474	1203.6818	1227.6479	1258.5776	1327.6858	1335.9636	1382.8358	1407.343	1421.3939	1450.2679	1481.1264	1484.3214	1485.8075	1491.4793	1500.1064	1508.3479	1510.3801	2995.9351	3017.172	3030.165	3055.9412	3077.3045	3079.0612	3083.6457	3089.9371	3121.7929	3126.0571	3139.1786	3764.7193
COC1C(O)C1(C)C	CO[C@H]1[C@@H](O)C1(C)C	
InChI=1S/C6H12O2/c1-6(2)4(7)5(6)8-3/h4-5,7H,1-3H3	InChI=1S/C6H12O2/c1-6(2)4(7)5(6)8-3/h4-5,7H,1-3H3/t4-,5+/m1/s1
