16
gdb 17514	4.62198	1.79154	1.59799	2.8632	68.81	-0.2488	-0.0293	0.2195	823.6488	0.131104	-346.559853	-346.553345	-346.552401	-346.590676	25.34	
O	-0.0802506767	-0.040042891	 0.0083115866	-0.247722
C	-0.0159440975	 1.1647591619	 0.0407476628	 0.035809
C	 1.2467849393	 1.9472641641	-0.0227929894	 0.240887
C	 1.5048282701	 3.1301366815	 0.9662515644	-0.279882
C	 2.3705790917	 3.7327291005	-0.1336559998	-0.059122
C	 3.0679999528	 2.566963727	-0.8600907107	-0.059441
C	 2.6298963983	 1.2700785577	-0.1832868643	-0.274943
C	 1.6519221446	 2.9522888777	-1.2041112222	-0.128167
H	-0.9399518348	 1.7847511778	 0.1165850592	 0.068796
H	 0.5990638855	 3.7216971035	 1.1293670449	 0.105241
H	 1.9575852202	 2.8690106434	 1.9294545833	 0.100702
H	 2.7575142924	 4.7414058539	-0.199709962	 0.091617
H	 3.9508026799	 2.7421569238	-1.4615506409	 0.091513
H	 3.1366238768	 0.9491984779	 0.733186242	 0.09623
H	 2.5803835138	 0.4381806834	-0.8889708566	 0.118481
H	 1.1684219137	 3.2326894369	-2.1284208972	 0.100001
75.0685	192.961	268.0685	420.8674	431.6577	458.8349	692.0163	718.8475	768.0822	787.5474	799.7831	826.3889	927.5609	936.3631	973.3862	995.5375	1004.1822	1029.0404	1033.5154	1046.9242	1087.6139	1105.1721	1142.8292	1163.7886	1171.2857	1243.564	1253.5691	1293.108	1327.6038	1361.6769	1426.7902	1491.8166	1508.9469	1812.5703	2857.1553	3033.6835	3046.4507	3094.7075	3117.5357	3194.2091	3200.7062	3226.5026
O=CC12CC3C(C1)C23	O=C[C@@]12C[C@H]3[C@@H](C1)[C@@H]23	
InChI=1S/C7H8O/c8-3-7-1-4-5(2-7)6(4)7/h3-6H,1-2H2	InChI=1S/C7H8O/c8-3-7-1-4-5(2-7)6(4)7/h3-6H,1-2H2/t4-,5+,6-,7+
