21
gdb 106714	2.41157	1.56849	1.24615	0.9575	83.17	-0.2409	0.0949	0.3357	1129.6157	0.181596	-387.038361	-387.029405	-387.028461	-387.07178	34.348	
C	 0.1684260036	 1.2757059401	 0.2160857846	-0.255751
O	-0.1656800621	-0.057972543	-0.1252162266	-0.28917
C	 0.5084491919	-0.5286868315	-1.2346141884	 0.416519
C	 1.927191676	-1.0454225418	-1.1408958339	-0.401051
C	 0.8054358165	-2.0006069124	-1.5173913455	 0.240301
C	 0.4511889463	-3.2089341952	-0.6966400572	-0.488629
C	 0.4182664444	-1.7720486891	-2.9648348843	-0.095493
C	-0.9921382699	-1.256206634	-3.0695865818	-0.299131
C	 0.1000664238	-0.2966491414	-2.6701946372	-0.13125
H	 1.2414033243	 1.3785245458	 0.4316493085	 0.109476
H	-0.0956200286	 1.9786272018	-0.5867668493	 0.111224
H	-0.4041479768	 1.5310193744	 1.1107863108	 0.124838
H	 2.6838991576	-0.7594131427	-1.8671239717	 0.099452
H	 2.2942084805	-1.1578023214	-0.1243539212	 0.109501
H	 0.5264150868	-2.9902408098	 0.3730898138	 0.124938
H	-0.5744434114	-3.5358302858	-0.8990449735	 0.118492
H	 1.1188888177	-4.0506496617	-0.9147418618	 0.116202
H	 0.9594522652	-2.1463405465	-3.8269854355	 0.083044
H	-1.373672884	-1.1349460672	-4.0792428987	 0.107175
H	-1.7406746665	-1.5550888484	-2.3411791058	 0.116909
H	 0.3671629346	 0.5587541097	-3.2806475454	 0.082404
80.8264	140.5971	172.8113	192.5303	220.2737	244.3014	294.3529	404.7126	442.7704	535.9589	554.7809	582.0607	724.3487	762.9438	815.096	845.2104	864.0612	925.313	956.409	971.1321	991.6864	1020.2611	1054.04	1059.9662	1075.0561	1082.4012	1091.4913	1119.1872	1153.5711	1175.441	1181.0906	1212.0987	1250.8171	1265.6146	1328.0916	1344.5689	1386.7617	1420.6824	1475.2419	1485.1179	1487.6391	1488.1709	1496.6716	1502.6998	1507.0259	2990.3524	3025.8341	3043.1869	3085.1136	3102.5065	3106.0682	3117.2276	3118.0624	3165.2041	3174.5102	3194.8891	3202.7896
COC12CC1(C)C1CC21	CO[C@@]12C[C@]1(C)[C@H]1C[C@@H]21	
InChI=1S/C8H12O/c1-7-4-8(7,9-2)6-3-5(6)7/h5-6H,3-4H2,1-2H3	InChI=1S/C8H12O/c1-7-4-8(7,9-2)6-3-5(6)7/h5-6H,3-4H2,1-2H3/t5-,6+,7+,8+/m0/s1
