12
gdb 133517	3.39179	1.03047	0.91793	3.681	50.27	-0.2777	-0.0503	0.2274	1184.2433	0.073772	-600.333714	-600.325436	-600.324492	-600.368167	28.567	
F	-0.2887181314	 0.0295952266	-0.2192871935	-0.031458
C	-0.0166431247	 1.2832152602	 0.0836902145	 0.265746
F	 1.3102324349	 1.4179784622	 0.2146364289	-0.067554
F	-0.3874315104	 2.0670573188	-0.9550100684	-0.094893
C	-0.725094115	 1.7351321384	 1.3649618354	 0.227222
N	-1.0737065253	 0.8681032279	 2.2117117351	-0.47768
N	-0.84471905	 3.1321011066	 1.4267483409	-0.352379
C	-1.3488353348	 3.8444671697	 2.4917660543	 0.168354
O	-1.7451456418	 3.3623707482	 3.5266648041	-0.288618
H	-1.4924428268	 1.3121126551	 3.0307036078	 0.267219
H	-0.5862607623	 3.6506080792	 0.5998994774	 0.27414
H	-1.3487232323	 4.9311112369	 2.2896033734	 0.109902
30.142	77.858	184.2366	237.8498	265.0575	286.3803	345.5132	423.7574	511.9999	581.7385	593.39	599.1963	735.2054	770.6162	918.4405	973.7879	1004.8863	1026.2768	1153.2343	1190.6001	1220.5786	1270.7392	1375.482	1436.1175	1527.0038	1749.7765	1819.059	2972.3266	3483.4997	3617.4008
FC(F)(F)C(=N)NC=O	FC(F)(F)C(=N)NC=O	
InChI=1S/C3H3F3N2O/c4-3(5,6)2(7)8-1-9/h1H,(H2,7,8,9)	InChI=1S/C3H3F3N2O/c4-3(5,6)2(7)8-1-9/h1H,(H2,7,8,9)
