17
gdb 43918	4.24288	1.13079	1.03921	3.6057	75.62	-0.2388	-0.0537	0.1851	1163.3186	0.136435	-421.842538	-421.834868	-421.833924	-421.875475	28.966	
O	 0.2014737908	-0.0384697885	-0.2513252824	-0.322033
C	 0.0861459298	 1.1510606875	-0.0793418691	 0.374892
C	-1.2308992922	 1.9336372245	 0.0255252545	-0.414122
C	-0.8282864252	 3.4158986943	 0.0189173214	 0.416169
C	-1.4122331334	 4.3599686884	-1.0720616732	-0.346531
C	-2.0427964492	 5.1185755734	 0.1087268732	-0.070786
O	-1.4545325414	 4.2091532537	 1.0633217156	-0.318998
C	 0.6749085972	 3.3798346481	 0.1417763913	-0.0976
C	 1.1810220515	 2.1447815519	 0.0684542534	-0.195007
H	-1.9199370839	 1.647270175	-0.7724895426	 0.125863
H	-1.7119039013	 1.6988470558	 0.9804466422	 0.151483
H	-0.668171995	 4.916847314	-1.6441365117	 0.116357
H	-2.1101916641	 3.8824927391	-1.7609553933	 0.120155
H	-1.6935065154	 6.1470951767	 0.2554363496	 0.107503
H	-3.1379137968	 5.1063343192	 0.1565643829	 0.109134
H	 1.2386530012	 4.2987552312	 0.2650718936	 0.120682
H	 2.2245138073	 1.8576591456	 0.1022261644	 0.122839
58.7431	76.0079	193.8235	313.6881	339.7138	403.7321	434.9254	504.1795	596.0803	671.1984	785.041	799.6249	827.148	838.8721	859.5457	882.9463	964.6775	975.253	1002.9986	1025.5457	1037.3956	1076.7763	1126.1008	1162.2795	1177.1227	1196.6263	1209.2061	1255.2726	1267.1351	1275.0654	1350.5234	1363.925	1443.9387	1489.5648	1533.7464	1647.3848	1822.6157	3024.2991	3064.1479	3065.1675	3080.2843	3114.5332	3136.8379	3189.2001	3225.0717
O=C1CC2(CCO2)C=C1	O=C1C[C@]2(CCO2)C=C1	
InChI=1S/C7H8O2/c8-6-1-2-7(5-6)3-4-9-7/h1-2H,3-5H2	InChI=1S/C7H8O2/c8-6-1-2-7(5-6)3-4-9-7/h1-2H,3-5H2/t7-/m1/s1
