16
gdb 35605	2.51534	1.7416	1.29394	4.6926	74.16	-0.2581	-0.0171	0.241	992.0258	0.125747	-400.722889	-400.71554	-400.714596	-400.754939	27.842	
N	 0.015886038	-1.1681197617	 0.0646370929	-0.322427
C	 0.0116251352	-0.0129392861	 0.0405053707	 0.303671
C	-0.0332462309	 1.4472898084	 0.0224996573	-0.240615
C	-0.5418232453	 2.0088988292	 1.4113164921	-0.260475
C	 0.7486151808	 2.1456921214	 2.2193181451	-0.197409
C	 1.7669591274	 2.2537875435	 1.3770101771	 0.201871
C	 3.1464931867	 1.7593560533	 1.0179852157	-0.155864
O	 2.5969444973	 1.2963855071	-0.259904552	-0.291076
C	 1.3871406785	 2.0802350594	-0.0558155589	 0.114978
H	-0.678470338	 1.7596449543	-0.8042565163	 0.122735
H	-1.0618102072	 2.9628864519	 1.2592346754	 0.122934
H	-1.253751585	 1.32730356	 1.883418879	 0.138078
H	 0.7803018874	 2.0433437059	 3.2966387664	 0.115541
H	 3.9139972602	 2.5256654796	 0.854801333	 0.118204
H	 3.5543570958	 0.9429028141	 1.6210675417	 0.137116
H	 1.3898513692	 2.9588463296	-0.713882159	 0.09274
86.712	135.9346	223.6103	262.6167	338.3033	374.493	465.5258	567.1668	679.1591	720.1066	751.1253	831.1639	840.728	872.8418	901.9695	924.0122	965.916	979.0398	1006.8282	1037.5397	1072.4928	1117.5268	1138.1904	1186.072	1190.6502	1238.3164	1287.4092	1310.2698	1319.2721	1340.1701	1367.3832	1485.8711	1506.7453	1750.2729	2361.6328	3016.9324	3028.1491	3032.1457	3072.6215	3092.2138	3101.3843	3215.8676
N#CC1CC=C2COC12	N#C[C@H]1C[CH][C]2CO[C@@H]12	
InChI=1S/C7H7NO/c8-3-5-1-2-6-4-9-7(5)6/h2,5,7H,1,4H2	InChI=1S/C7H7NO/c8-3-5-1-2-6-4-9-7(5)6/h2,5,7H,1,4H2/t5-,7+/m1/s1
