19
gdb 76883	2.35674	1.86589	1.54118	2.406	69.04	-0.2506	0.0575	0.3081	957.619	0.160928	-460.165978	-460.158124	-460.157179	-460.198081	30.834	
C	-0.1635577704	 1.5780657334	 0.0135795059	-0.395504
C	 0.0381950276	 0.0657573336	-0.0091278467	-0.028898
C	 0.8891967078	-0.4907882231	-1.2046399254	 0.082315
O	 1.3677703923	 0.5560660097	-2.0296207722	-0.416777
C	 1.9941248127	-1.2658235135	-0.4312305912	-0.009886
C	 2.9142929483	-0.252800961	 0.2688600552	-0.08295
O	 2.0631378406	 0.2215982383	 1.3295812902	-0.271884
C	 0.8535959885	-0.5099213409	 1.1700454878	 0.174818
O	 1.2579070158	-1.7824105791	 0.6864328484	-0.250332
H	 0.7883996909	 2.101601909	 0.1133429477	 0.137419
H	-0.6474164692	 1.9198766188	-0.9046377558	 0.12027
H	-0.7982075059	 1.8616183156	 0.8598315739	 0.106753
H	-0.9365522784	-0.4324873481	-0.0108864849	 0.080064
H	 0.2950324363	-1.1990937043	-1.7941589304	 0.075421
H	 1.7299931847	 0.1677161236	-2.8314787723	 0.288642
H	 2.4901569999	-2.0731534414	-0.9697194271	 0.080928
H	 3.8033066026	-0.7275257903	 0.6980950729	 0.10272
H	 3.2053141029	 0.5719956775	-0.3860246601	 0.117474
H	 0.3495268231	-0.5976906179	 2.1325264343	 0.089409
104.0641	176.8648	250.6804	252.2686	269.9685	284.7503	418.0058	506.2464	549.2649	568.6146	642.1402	758.3406	805.4106	837.4012	849.5868	891.6473	951.6247	968.738	992.3559	1033.533	1044.1451	1047.5917	1076.2635	1111.2965	1127.1807	1162.1337	1204.1193	1229.4944	1252.1358	1272.5296	1310.0374	1319.8742	1329.9922	1352.0144	1362.4754	1383.4862	1406.6384	1426.4348	1488.601	1498.8056	1516.1761	3021.5819	3041.101	3045.1809	3054.7044	3105.5497	3112.4559	3124.1859	3129.7133	3143.1082	3828.8429
CC1C(O)C2COC1O2	C[C@H]1[C@@H](O)[C@H]2CO[C@@H]1O2	
InChI=1S/C6H10O3/c1-3-5(7)4-2-8-6(3)9-4/h3-7H,2H2,1H3	InChI=1S/C6H10O3/c1-3-5(7)4-2-8-6(3)9-4/h3-7H,2H2,1H3/t3-,4+,5+,6+/m0/s1
