20
gdb 22545	2.12489	1.10429	0.82286	2.183	80.1	-0.2424	-0.0365	0.2059	1454.1265	0.166678	-440.262447	-440.251522	-440.250578	-440.299375	38.022	
C	 0.2820512771	 1.4966658341	 0.4271968137	-0.400709
C	 0.482598789	-0.0198821956	 0.3454506902	-0.188914
C	 0.4135565041	-0.5463502864	-1.0951496905	-0.127199
C	 1.5995613508	-0.0387934503	-1.9165066809	 0.158855
O	 1.5406792676	 0.3370932197	-3.0577330839	-0.249533
C	 0.4441034112	-2.062016252	-1.2226247288	 0.322771
C	-0.0445420785	-2.6661512532	-2.5101964094	-0.486336
N	 0.9122203125	-2.7125899573	-0.2266075216	-0.16438
O	 0.9021991062	-4.0964646103	-0.4408630818	-0.394791
H	 1.0468388292	 2.0404972906	-0.1388045149	 0.122915
H	-0.6931386654	 1.7907322006	 0.0238547368	 0.120772
H	 0.3324848038	 1.8413036736	 1.4641313744	 0.11915
H	 1.4456030278	-0.3021491718	 0.7842160926	 0.117427
H	-0.2753924919	-0.537542631	 0.9410914209	 0.111152
H	-0.4920593972	-0.1855364412	-1.5974835352	 0.099372
H	 2.5685446082	-0.0846200474	-1.3674227851	 0.087582
H	 0.1132176262	-1.971612053	-3.3392321901	 0.148697
H	 0.460400047	-3.6107392132	-2.7157259931	 0.153545
H	-1.1204386286	-2.8700065887	-2.4462232269	 0.142124
H	 1.2963262711	-4.4295228874	 0.3723270036	 0.3075
45.1142	72.0028	92.3491	114.9464	152.7663	181.3319	225.5513	283.4285	305.2837	347.3865	366.5016	404.1358	427.0226	517.5854	560.2044	668.2073	767.1239	830.5834	908.8513	957.4283	976.6393	1015.6956	1026.6943	1050.0076	1088.335	1127.832	1150.5298	1216.2767	1252.3898	1293.6731	1326.0731	1380.7331	1393.4856	1403.5322	1412.0149	1416.3543	1482.24	1484.8246	1488.0613	1500.161	1503.6598	1721.0062	1825.6644	2867.8123	3030.9218	3037.8873	3042.9042	3053.9975	3079.5447	3102.9501	3105.2979	3108.4075	3151.3138	3818.5144
CCC(C=O)C(C)=NO	CC[C@@H](C=O)C(=NO)C	
InChI=1S/C6H11NO2/c1-3-6(4-8)5(2)7-9/h4,6,9H,3H2,1-2H3	InChI=1S/C6H11NO2/c1-3-6(4-8)5(2)7-9/h4,6,9H,3H2,1-2H3/t6-/m0/s1
