19
gdb 119512	4.05183	0.92543	0.86564	0.8911	74.61	-0.2283	0.0614	0.2897	1368.8499	0.157955	-422.936727	-422.928192	-422.927248	-422.970367	32.481	
O	-0.1081611547	 1.4760940855	-0.0300881355	-0.419656
C	-0.0121581265	 0.0671727365	-0.1699928599	-0.065527
C	-1.3811714611	-0.5271670125	 0.1556842381	-0.303098
C	-1.3883162665	-2.0275032879	 0.1039614553	 0.324355
C	-1.5385051942	-2.8555812887	-1.1470644966	-0.332007
C	-2.5563840733	-2.9968022023	-0.0431893503	-0.176854
C	-1.9861363409	-3.828694293	 1.1475395491	 0.02393
O	-0.6541703642	-4.2661864889	 0.8356037826	-0.239831
C	-0.8567300579	-2.9196513379	 1.2855026105	-0.039778
H	 0.747964426	 1.8591693329	-0.2416727234	 0.285978
H	 0.2779687036	-0.2187690872	-1.1931003132	 0.091727
H	 0.747094763	-0.351465335	 0.510940478	 0.085903
H	-1.6812031295	-0.1758992609	 1.1516384956	 0.105789
H	-2.1158828851	-0.1236558373	-0.5506246188	 0.107943
H	-1.8896249217	-2.3018491465	-2.0127093467	 0.110617
H	-0.8550768628	-3.6671761678	-1.3624187079	 0.134459
H	-3.6060347333	-2.763726862	-0.1663030541	 0.094179
H	-2.5448877491	-4.4042213544	 1.8751982364	 0.108181
H	-0.2944948617	-2.5856661826	 2.1500842908	 0.103691
74.2721	97.6059	114.6862	261.5953	283.1013	313.9875	338.6427	418.5077	451.1832	579.2853	691.5575	753.9542	791.0306	800.3104	810.3902	869.345	890.3861	918.0999	943.6989	979.4776	981.1472	1014.2671	1028.242	1049.9218	1081.7868	1094.5189	1105.6239	1186.0335	1203.1461	1233.7604	1239.2496	1261.8509	1280.1751	1316.1843	1329.8874	1370.9872	1404.4131	1459.7426	1474.4326	1487.0641	1526.4629	2964.1352	2993.774	3024.1431	3070.0653	3136.2693	3178.308	3194.2907	3203.3116	3229.5934	3830.1478
OCCC12CC1C1OC21	OCC[C@]12C[C@H]1[C@H]1O[C@@H]21	
InChI=1S/C7H10O2/c8-2-1-7-3-4(7)5-6(7)9-5/h4-6,8H,1-3H2	InChI=1S/C7H10O2/c8-2-1-7-3-4(7)5-6(7)9-5/h4-6,8H,1-3H2/t4-,5+,6+,7-/m0/s1
