12
gdb 21632	3.48222	2.4877	1.45106	2.8703	61.78	-0.2393	-0.0602	0.1791	776.2455	0.085602	-410.834295	-410.827774	-410.82683	-410.864926	24.499	
N	 0.0295451332	 1.3060834969	-0.1327720808	-0.534884
C	-0.0319024777	-0.0236065205	-0.0230524644	 0.384327
N	-1.1602986976	-0.6634946653	 0.0941318282	-0.35353
C	-1.043394955	-2.0246201135	 0.1959737684	 0.101434
N	 0.0068398728	-2.7729703738	 0.194210567	-0.112414
O	 1.2348266547	-2.0670443907	 0.0658928075	-0.272384
C	 1.2777453798	-0.7207150033	-0.0441620411	 0.386151
N	 2.3554529871	-0.0569183535	-0.160254227	-0.547825
H	 0.939076926	 1.7319518566	-0.2201918538	 0.293429
H	-0.8166161495	 1.8497331896	-0.1267150258	 0.276623
H	-1.9693919872	-2.5844274313	 0.2948976776	 0.141105
H	 3.1738482136	-0.6665705712	-0.1595128759	 0.237969
109.8589	211.6542	325.0684	339.2154	447.872	482.2338	554.3423	558.469	586.9472	641.9173	730.1593	808.1686	869.8961	893.7497	961.088	966.3252	1023.0233	1095.7007	1266.0566	1289.5951	1356.6764	1466.8426	1571.3779	1625.2797	1675.1809	1723.4193	3181.7942	3489.4452	3589.4092	3734.3701
NC1=NC=NOC1=N	NC1=C(ON=C[N]1)[NH]	
InChI=1S/C3H4N4O/c4-2-3(5)8-7-1-6-2/h1,5H,(H2,4,6,7)	InChI=1S/C3H4N4O/c4-2-3(5)8-7-1-6-2/h1,5H,(H2,4,6,7)
