15
gdb 42273	3.31168	1.25735	1.10751	4.124	70.42	-0.2623	-0.0948	0.1675	1094.4939	0.112373	-416.76947	-416.761522	-416.760578	-416.803141	28.599	
O	 0.6784920071	 0.7644719561	-1.0140107356	-0.269766
C	 0.074260266	 1.1638335547	-0.0490435054	 0.289835
C	 0.6058560999	 0.9357555015	 1.3115708077	 0.246115
N	 1.0306865327	 0.7793059347	 2.375511494	-0.296346
C	-1.2584223775	 1.8691957791	-0.0893250274	-0.053494
C	-1.9497403738	 2.0728891226	-1.4550386081	-0.287255
C	-3.0651877123	 1.1790872587	-0.9148436243	-0.003638
C	-2.5437373578	-0.1291566029	-0.4918903497	-0.246783
N	-2.3969220832	 1.0099319075	 0.4498486045	-0.148839
H	-1.2060026811	 2.7736458151	 0.5230756163	 0.123266
H	-2.2488522293	 3.1086838138	-1.6167408695	 0.124957
H	-1.4151176945	 1.7053826185	-2.3330912836	 0.135302
H	-4.1260251925	 1.3922491459	-0.984901005	 0.111023
H	-3.2532661692	-0.8605222384	-0.1197544071	 0.137599
H	-1.6682099846	-0.5518748369	-0.9788543668	 0.138023
29.291	126.0345	139.2586	229.1469	276.5762	338.5362	437.3034	477.0974	581.4716	678.0214	728.4087	759.2137	783.4069	802.8169	920.6183	957.3808	968.9299	1004.4953	1052.6235	1082.914	1113.1195	1129.028	1142.508	1161.6885	1226.5549	1246.9801	1272.9666	1359.7859	1379.048	1486.1177	1504.8094	1786.2575	2338.196	3072.8485	3083.7466	3117.2535	3141.0486	3178.1498	3212.2338
O=C(C#N)C1CC2CN12	O=C(C#N)[C@H]1C[C@H]2CN12	
InChI=1S/C6H6N2O/c7-2-6(9)5-1-4-3-8(4)5/h4-5H,1,3H2	InChI=1S/C6H6N2O/c7-2-6(9)5-1-4-3-8(4)5/h4-5H,1,3H2/t4-,5+,8?/m0/s1
