20
gdb 91064	3.67853	1.35442	1.25528	1.0295	77.25	-0.2345	0.0722	0.3067	1082.3739	0.172866	-403.106089	-403.098505	-403.097561	-403.138119	30.387	
C	 0.1737521534	 1.6212110962	 0.0718802273	-0.406844
C	 0.0111840983	 0.1141484836	-0.0688412949	 0.15012
C	 0.7466299231	-0.4987667801	-1.2952531008	-0.278391
C	 1.4942502658	-1.7189437947	-0.7507196993	-0.001279
C	 1.2966623479	-1.659939037	 0.7738537762	 0.094522
O	 0.5512489004	-0.5132456357	 1.1081198913	-0.280711
C	 0.6032337431	-3.0261746388	 0.6659707249	-0.051296
C	-0.4903080962	-3.0370397558	-0.3219521024	-0.248511
N	 0.8857309181	-3.1086114132	-0.8381132297	-0.14938
H	 1.2341554392	 1.8894527159	 0.117338693	 0.118478
H	-0.2815860765	 2.1375501252	-0.7796995036	 0.113593
H	-0.3098978546	 1.9743848978	 0.9867818123	 0.126883
H	-1.0627008344	-0.1159756666	-0.1213193429	 0.078886
H	 0.053792777	-0.7573236238	-2.1006848809	 0.116867
H	 1.4644186184	 0.2216477596	-1.6991003514	 0.108463
H	 2.5237338477	-1.7801551071	-1.1027481065	 0.08891
H	 2.196715584	-1.6887225903	 1.3929110524	 0.085657
H	 0.7992907639	-3.8706057445	 1.3190926948	 0.092533
H	-1.0207808013	-3.9764921154	-0.447868674	 0.122921
H	-1.1053080772	-2.1612679154	-0.4968304757	 0.118581
86.2863	144.829	246.4735	279.7116	303.4199	422.5491	442.5031	553.4704	638.326	674.2773	725.8906	744.5339	810.0762	821.3178	856.95	890.7457	914.1095	959.8806	973.5987	1015.471	1039.6504	1058.6421	1066.456	1104.5	1111.4827	1138.6782	1144.522	1159.5056	1206.9546	1221.8741	1236.9526	1272.5927	1307.7403	1326.2114	1348.171	1365.0444	1379.9682	1398.7448	1407.9297	1482.5111	1484.0485	1497.8698	1512.2743	2988.4634	3036.2029	3055.0522	3078.4545	3100.2631	3109.2982	3113.5437	3118.8672	3129.118	3162.3039	3211.2894
CC1CC2C(O1)C1CN21	C[C@H]1C[C@H]2[C@@H](O1)[C@H]1CN21	
InChI=1S/C7H11NO/c1-4-2-5-7(9-4)6-3-8(5)6/h4-7H,2-3H2,1H3	InChI=1S/C7H11NO/c1-4-2-5-7(9-4)6-3-8(5)6/h4-7H,2-3H2,1H3/t4-,5-,6+,7+,8?/m0/s1
