19
gdb 114051	2.98875	1.24443	1.0505	1.7891	71.68	-0.2304	0.0691	0.2995	1193.1285	0.157582	-460.111866	-460.102711	-460.101767	-460.145411	34.547	
C	 0.1081449899	 1.2182863364	-0.1640433677	-0.242155
O	-0.0036930164	-0.087448975	 0.3664033679	-0.25415
C	-1.2812526136	-0.6719196292	 0.1642425188	 0.124668
C	-1.6228547207	-1.2173139056	-1.2670634648	-0.341535
C	-1.7490107369	-2.6158568613	-0.6547723479	 0.338759
O	-2.7586102425	-3.5071698294	-0.9662922713	-0.458352
C	-0.4683343665	-3.0082676579	 0.0157337232	 0.056237
O	 0.8034372979	-2.6639055385	-0.4453494064	-0.442351
C	-1.39062281	-2.0701377694	 0.7519598072	-0.219728
H	 1.1119931671	 1.5799443977	 0.0690402203	 0.133103
H	-0.0332309786	 1.2322299928	-1.2539996993	 0.116825
H	-0.630199694	 1.8943782077	 0.2919193602	 0.113129
H	-2.0580319713	 0.0100666766	 0.5339879981	 0.082358
H	-2.5738430131	-0.8358350169	-1.6429257963	 0.110324
H	-0.8443617034	-1.0992002746	-2.0267403237	 0.104349
H	-2.4158972805	-4.1402825233	-1.6067891436	 0.290313
H	-0.4981622325	-4.0223111324	 0.4113280869	 0.099809
H	 0.9617751482	-1.7485158868	-0.1756100885	 0.295183
H	-1.7950120632	-2.3043283808	 1.7291849568	 0.093213
108.022	144.7563	155.4985	190.9525	212.3547	282.9665	301.1354	365.3435	390.5073	454.233	474.6606	521.5723	581.3192	673.6473	763.2282	824.6128	845.919	925.9783	952.331	978.6917	1015.5013	1033.0386	1073.6182	1112.7926	1139.1203	1153.4992	1185.9457	1214.0625	1228.1321	1239.5238	1244.9938	1307.1697	1318.0471	1338.1659	1377.3763	1420.7754	1457.7191	1481.4678	1487.6172	1493.696	1509.4243	2987.5875	3015.5154	3040.6972	3056.0349	3122.4496	3123.9268	3129.607	3186.4621	3732.9473	3795.7511
COC1CC2(O)C(O)C12	CO[C@H]1C[C@@]2(O)[C@@H](O)[C@@H]12	
InChI=1S/C6H10O3/c1-9-3-2-6(8)4(3)5(6)7/h3-5,7-8H,2H2,1H3	InChI=1S/C6H10O3/c1-9-3-2-6(8)4(3)5(6)7/h3-5,7-8H,2H2,1H3/t3-,4+,5-,6-/m0/s1
