18
gdb 55366	3.22651	1.29513	1.05765	3.9821	70.9	-0.2438	0.0315	0.2754	1144.6175	0.148722	-439.114078	-439.105765	-439.104821	-439.147836	31.332	
N	 0.0756459227	 1.1908331843	-0.4414640455	-0.529874
C	 0.0471934937	-0.0246165642	 0.1767676505	 0.404776
O	 0.9777024206	-0.4408866076	 0.8397855378	-0.371922
C	-1.2514300895	-0.8252659512	 0.0496095939	-0.116715
C	-2.2453538427	-0.4725141568	-1.0865359051	-0.265886
C	-3.0446701138	-1.7740394599	-1.3435992882	-0.250335
C	-2.061898903	-2.8715440813	-0.9817250993	 0.04731
O	-0.7510519867	-2.6586924713	-1.5265846143	-0.262527
C	-0.9898939195	-2.3104127948	-0.1551646694	 0.062308
H	 0.9378352266	 1.7105176099	-0.4081477763	 0.26105
H	-0.6402565531	 1.4879820839	-1.0795229801	 0.259969
H	-1.7510675976	-0.720765309	 1.0235559302	 0.110697
H	-2.8931462111	 0.3709380824	-0.8344405368	 0.101869
H	-1.6897273233	-0.2180184765	-1.9927955001	 0.121986
H	-3.9165327405	-1.8436386815	-0.6815517866	 0.106892
H	-3.4066377945	-1.8454730443	-2.3737119046	 0.112065
H	-2.3787204184	-3.9092344112	-0.9159623265	 0.095609
H	-0.42299704	-2.8689627807	 0.5813599005	 0.112729
30.6159	115.7974	189.5124	226.0576	259.0702	369.8832	386.327	454.3543	496.6811	604.4746	634.6766	663.7428	742.5963	827.9415	834.8524	871.834	877.4163	932.6404	960.2001	987.604	1028.2317	1058.6099	1077.588	1093.271	1124.9771	1188.7957	1216.7305	1259.5712	1288.2235	1294.4362	1313.9905	1331.1475	1358.1933	1367.4065	1435.1814	1482.7361	1496.3429	1617.0912	1790.2521	3013.4363	3037.8779	3061.5622	3086.1571	3110.8791	3148.8738	3185.875	3604.8342	3742.7364
NC(=O)C1CCC2OC12	NC(=O)[C@H]1CC[C@H]2O[C@@H]12	
InChI=1S/C6H9NO2/c7-6(8)3-1-2-4-5(3)9-4/h3-5H,1-2H2,(H2,7,8)	InChI=1S/C6H9NO2/c7-6(8)3-1-2-4-5(3)9-4/h3-5H,1-2H2,(H2,7,8)/t3-,4+,5-/m0/s1
