23
gdb 120911	3.02948	1.02832	0.9013	0.9812	86.76	-0.2415	0.0827	0.3242	1433.0137	0.204927	-388.259854	-388.250151	-388.249206	-388.294773	36.255	
C	-0.1117438306	 1.48274457	-0.036683798	-0.385691
C	 0.2188516267	 0.0000761829	-0.0687579699	-0.03644
O	 0.400670761	-0.4506406613	 1.2606817193	-0.253205
C	 0.6780107425	-1.8264925506	 1.3552276831	 0.153341
C	 2.1198647677	-2.3567565378	 1.0266434106	-0.282431
C	 2.1624169694	-2.9823082226	 2.4256084265	-0.072044
C	 2.0257191131	-1.9425336384	 3.5008145486	 0.013028
C	 2.6360367198	-0.5556405265	 3.4846250887	-0.414843
C	 0.7819998368	-2.3813034023	 2.7690311573	-0.12152
H	 0.70322711	 2.048626657	 0.4237625728	 0.12588
H	-0.2675126228	 1.8620643162	-1.0511584217	 0.11267
H	-1.0208824068	 1.6594099919	 0.5450750289	 0.126459
H	-0.5961165215	-0.5678639101	-0.5494295271	 0.084147
H	 1.1287314025	-0.1788645959	-0.6646027668	 0.088847
H	-0.0651943093	-2.3923640497	 0.7731496387	 0.067945
H	 2.1253070753	-3.0881733317	 0.2156808746	 0.098996
H	 2.876877018	-1.5949065427	 0.8180751012	 0.099126
H	 2.5209714669	-3.9822905436	 2.6376430731	 0.082183
H	 2.0573600703	-2.4016839703	 4.4884938425	 0.082344
H	 2.5246707543	-0.0664445725	 2.5169886767	 0.132306
H	 2.1436842595	 0.0835208417	 4.2254938363	 0.114614
H	 3.7020052733	-0.5989554032	 3.736758866	 0.105144
H	-0.0480421862	-2.8365394006	 3.2968844086	 0.079144
66.1722	90.1298	105.4619	166.7816	203.3392	245.7496	251.4719	340.8599	353.7524	425.5594	488.9722	605.9482	712.143	720.801	794.6048	820.9791	846.1213	883.3685	913.2562	967.0888	980.4809	993.2813	1023.3357	1055.5624	1063.626	1071.0455	1088.5074	1128.9372	1143.5932	1154.9631	1184.3686	1194.4248	1220.7046	1236.6615	1273.6936	1295.675	1316.4674	1349.8814	1372.6457	1403.2781	1415.9609	1438.1227	1448.5576	1482.7465	1483.9226	1494.0747	1499.6799	1505.7871	1528.6943	2955.1937	2980.9391	2985.3299	3032.2914	3043.9533	3053.9123	3087.5328	3108.4743	3111.1632	3117.7553	3120.8161	3148.0068	3170.8757	3185.1441
CCOC1CC2C(C)C12	CCO[C@H]1C[C@H]2[C@@H](C)[C@@H]12	
InChI=1S/C8H14O/c1-3-9-7-4-6-5(2)8(6)7/h5-8H,3-4H2,1-2H3	InChI=1S/C8H14O/c1-3-9-7-4-6-5(2)8(6)7/h5-8H,3-4H2,1-2H3/t5-,6+,7+,8-/m1/s1
