17
gdb 57983	3.29043	0.90388	0.83409	3.4073	69.7	-0.2575	-0.0102	0.2473	1415.5227	0.134418	-455.179405	-455.169349	-455.168405	-455.216399	34.345	
C	 0.0036581792	 1.1798788242	-0.6976446893	-0.380722
C	-0.0773252702	-0.1277072874	 0.107673978	-0.090325
N	 0.3751364476	 0.0911399937	 1.4726181806	-0.492601
C	-1.5023587432	-0.678243943	 0.0279861649	 0.440114
O	-2.3164573542	-0.6562971829	 0.9118348815	-0.350302
O	-1.7505165116	-1.2061399039	-1.2070186516	-0.237911
C	-3.0758998684	-1.6995245057	-1.4163218455	-0.200548
C	-3.9627851863	-0.6495112342	-1.9289279721	 0.266957
N	-4.6644183347	 0.1679843242	-2.3445417325	-0.291741
H	 1.0275982835	 1.5572340048	-0.6624480892	 0.138539
H	-0.2900985675	 1.0221987976	-1.7376107716	 0.136479
H	-0.6571354629	 1.9385041701	-0.2644991018	 0.130381
H	 0.5804149429	-0.865559017	-0.3657212677	 0.112129
H	-0.293874291	 0.69203773	 1.9485297512	 0.238267
H	 0.3585956884	-0.7852904118	 1.9867563668	 0.233641
H	-2.9936805526	-2.5004912711	-2.1541667575	 0.166594
H	-3.4846998992	-2.0924487577	-0.4818121342	 0.181051
22.4227	47.8176	61.0415	201.3148	211.5644	222.9402	251.6616	302.2267	343.9382	355.7548	373.9881	464.9251	611.4946	658.0119	751.4974	826.5489	908.2852	920.4828	929.682	1012.9902	1025.2368	1044.8968	1086.471	1153.9731	1173.4894	1278.7655	1298.4177	1328.0664	1391.8201	1396.6537	1413.0201	1457.7236	1491.0952	1497.5803	1671.691	1831.613	2368.6159	3044.7605	3053.1091	3076.1525	3120.5639	3130.2031	3144.1387	3486.8007	3559.0388
CC(N)C(=O)OCC#N	C[C@@H](N)C(=O)OCC#N	
InChI=1S/C5H8N2O2/c1-4(7)5(8)9-3-2-6/h4H,3,7H2,1H3	InChI=1S/C5H8N2O2/c1-4(7)5(8)9-3-2-6/h4H,3,7H2,1H3/t4-/m1/s1
