25
gdb 114314	2.13243	1.23919	1.08602	0.2232	93.24	-0.2372	0.0825	0.3197	1353.5621	0.228116	-352.340425	-352.330198	-352.329254	-352.375111	39.073	
C	 0.2661596475	 1.7975375429	-0.1668102573	-0.37758
C	 0.0545394465	 0.2792240729	-0.1599913976	-0.207858
C	 0.9396288527	-0.441135886	-1.1768001173	 0.001743
C	 2.4927037269	-0.5363402097	-0.9905626618	-0.263872
C	 2.415437376	-2.0431636098	-1.2683192531	-0.124215
C	 1.5568552719	-2.7476341468	-0.2513826609	-0.036258
C	 1.5536781689	-2.4875763228	 1.2427410481	-0.422625
C	 0.8768490254	-1.9718985486	-1.3569915797	 0.304987
C	-0.0658044616	-2.6354691907	-2.3242909996	-0.495276
H	 1.3025770619	 2.0547105794	 0.078242397	 0.116805
H	 0.0464469446	 2.2231147083	-1.152627959	 0.111198
H	-0.3805714159	 2.2954591512	 0.5624277029	 0.108996
H	 0.2308116885	-0.108703112	 0.8480757504	 0.097027
H	-0.9966417342	 0.0573819067	-0.3892969894	 0.091708
H	 0.750230078	 0.0098797727	-2.1598853768	 0.064904
H	 3.0463180206	 0.0187319096	-1.7506496868	 0.097856
H	 2.8880262439	-0.2501526073	-0.0096271705	 0.091898
H	 3.1044300847	-2.5857886152	-1.9067144109	 0.075978
H	 1.4972699372	-3.8138276618	-0.4712163717	 0.077718
H	 1.7918548789	-1.45298385	 1.496896402	 0.121276
H	 0.5796864219	-2.7224228302	 1.6867978924	 0.113545
H	 2.3010818205	-3.1207119863	 1.7347633435	 0.110592
H	-1.096060263	-2.6349842516	-1.9460768706	 0.11634
H	-0.0720909688	-2.1209490322	-3.292889898	 0.110978
H	 0.2143754469	-3.6791716627	-2.5026003757	 0.114134
76.029	126.0339	155.5241	189.2378	210.0295	225.3061	248.3248	252.6784	293.3882	348.5974	420.9429	483.6945	554.4438	615.1963	721.9092	731.3681	773.7758	819.5463	875.5274	917.7243	937.0844	960.6867	972.971	992.373	1025.6963	1052.7072	1069.3517	1098.9875	1116.5562	1122.0027	1138.4678	1169.6033	1182.6073	1237.9061	1245.8722	1266.4298	1286.1476	1309.2168	1333.2171	1352.0425	1397.0725	1410.3366	1410.9008	1415.2008	1464.245	1483.1273	1485.4062	1495.9853	1499.0143	1499.7251	1502.8292	1507.0981	1509.8485	3008.0315	3013.3599	3018.9697	3028.2434	3029.0083	3042.6231	3068.4722	3072.0982	3082.3851	3088.3872	3097.5109	3100.4167	3100.6229	3102.7814	3124.7656	3163.8958
CCC1CC2C(C)C12C	CC[C@H]1C[C@H]2[C@@H](C)[C@@]12C	
InChI=1S/C9H16/c1-4-7-5-8-6(2)9(7,8)3/h6-8H,4-5H2,1-3H3	InChI=1S/C9H16/c1-4-7-5-8-6(2)9(7,8)3/h6-8H,4-5H2,1-3H3/t6-,7+,8+,9+/m1/s1
