17
gdb 69717	3.7669	1.31698	1.19576	2.634	71.71	-0.2307	-0.0238	0.2069	1045.4423	0.134916	-421.783059	-421.775417	-421.774473	-421.815001	30.365	
O	-0.1668339846	 1.4047982405	 0.0091138005	-0.461485
C	-0.0838720885	 0.025620715	 0.0320387265	 0.400653
C	-0.3603173968	-0.8181439059	-1.1783992569	-0.370707
C	-1.234998075	-0.9725821628	 0.0511358491	-0.111412
C	-0.526044055	-1.7805914944	 1.1664055573	-0.144287
C	 0.65048954	-0.7496052414	 1.158098453	-0.106686
C	 1.6714471012	-1.860343188	 0.781012191	-0.380356
C	 0.4895317251	-2.865505827	 0.732238036	 0.393638
O	 0.412426145	-4.0345752997	 0.4950065719	-0.293336
H	 0.5118113047	 1.7429864557	-0.5857856086	 0.287203
H	-0.8466622124	-0.266877798	-1.977446187	 0.120077
H	 0.2989406245	-1.6094649193	-1.5239198111	 0.12162
H	-2.3041722692	-0.81192603	-0.0000719942	 0.103953
H	-1.1246237204	-1.9857455159	 2.0542545985	 0.095222
H	 0.8546001167	-0.1445168034	 2.0392670838	 0.087598
H	 2.2523733315	-1.746903588	-0.1385022793	 0.125663
H	 2.3604688332	-2.1138163476	 1.5939939395	 0.132641
91.2222	174.0106	246.6031	276.1419	344.2259	422.6818	434.0337	456.1195	541.8584	605.7516	655.661	742.0363	806.1654	815.0362	844.9686	888.2488	904.6038	949.5333	968.8786	986.9814	1013.7722	1047.5528	1069.7506	1083.6126	1087.0658	1129.6255	1181.2348	1211.2242	1214.4559	1231.7722	1245.6241	1295.8109	1312.6296	1404.9994	1434.2355	1499.1132	1887.9367	3051.1178	3104.6355	3114.3799	3117.7234	3138.7019	3194.7955	3204.8805	3789.9558
OC12CC1C1C2CC1=O	O[C@]12C[C@H]1[C@@H]1[C@H]2CC1=O	
InChI=1S/C7H8O2/c8-5-1-3-6(5)4-2-7(3,4)9/h3-4,6,9H,1-2H2	InChI=1S/C7H8O2/c8-5-1-3-6(5)4-2-7(3,4)9/h3-4,6,9H,1-2H2/t3-,4+,6+,7+/m1/s1
