21
gdb 82954	2.99659	1.42872	1.33499	1.3002	81.19	-0.2442	0.0833	0.3275	1081.9951	0.184264	-387.063683	-387.055788	-387.054844	-387.095838	31.924	
C	-0.1618873895	 1.5498331852	 0.1145311336	-0.409477
C	 0.0148529255	 0.0531293551	-0.002590479	-0.043782
C	 0.6678990967	-0.6190389152	-1.2021857817	-0.072483
C	 1.374843865	 0.1698761827	-2.3067690095	-0.26683
C	 2.8946954305	 0.0104185439	-2.1995537517	-0.039875
C	 3.7672421591	 1.1441352309	-1.7002671374	-0.315816
C	 3.4266608472	 0.0017873374	-0.792134133	 0.113505
O	 2.4749031535	 0.2588604684	 0.20879933	-0.257004
C	 1.364653533	-0.5977241132	 0.1371400114	 0.07915
H	 0.7556904079	 2.0828501497	-0.1405776501	 0.131334
H	-0.9661787036	 1.9086784677	-0.5372869791	 0.111972
H	-0.4195277759	 1.8230348292	 1.1432522028	 0.117152
H	-0.7999817291	-0.5220903125	 0.4308764466	 0.08131
H	 0.2344432652	-1.5642991671	-1.5134257283	 0.081941
H	 1.036498475	-0.1875241266	-3.2828332987	 0.103885
H	 1.1014933805	 1.2283442186	-2.2641665902	 0.10879
H	 3.3471634074	-0.6833260991	-2.9007451183	 0.085742
H	 4.783786182	 1.2208976578	-2.0708376426	 0.109371
H	 3.2869556727	 2.0941600301	-1.4897188645	 0.119412
H	 4.2014455553	-0.7054205752	-0.5008962007	 0.082752
H	 1.4684995416	-1.5106114477	 0.7220431406	 0.078952
104.4189	146.1539	198.448	271.9553	299.5768	424.7649	444.6193	467.385	539.8442	578.8103	701.7995	762.7926	797.3154	815.3839	824.2394	851.937	894.2411	916.7552	975.8905	993.1229	1006.6356	1017.2243	1058.8745	1079.4518	1096.468	1117.2094	1123.9516	1137.8849	1150.5992	1164.6357	1179.7585	1223.0018	1245.8312	1253.866	1311.1858	1350.5964	1363.0738	1377.0452	1396.3904	1415.4616	1435.515	1473.4342	1489.9742	1494.5132	1506.783	3035.1351	3055.2501	3090.028	3090.7884	3102.5656	3112.2452	3123.9881	3129.4194	3137.5787	3151.817	3157.0928	3217.6191
CC1C2CC3CC3OC12	C[C@H]1[C@H]2C[C@H]3C[C@H]3O[C@@H]12	
InChI=1S/C8H12O/c1-4-6-2-5-3-7(5)9-8(4)6/h4-8H,2-3H2,1H3	InChI=1S/C8H12O/c1-4-6-2-5-3-7(5)9-8(4)6/h4-8H,2-3H2,1H3/t4-,5-,6+,7+,8-/m0/s1
