18
gdb 12802	3.43605	2.03206	1.54947	1.2516	72.31	-0.2293	0.0291	0.2584	865.5364	0.154609	-347.803776	-347.796381	-347.795436	-347.835055	29.123	
O	 0.1096537398	 1.4259428719	-0.2549183452	-0.480717
C	 0.0248700236	 0.0555000341	 0.0455881891	 0.4318
C	-0.2319000414	-0.9406858506	-1.0513355125	-0.357151
C	-1.3033317508	-0.6563543913	-0.0041659043	-0.094048
C	-1.6582651762	-1.7125817125	 1.02732484	-0.269721
C	-0.4703719625	-2.1981550188	 1.8133042548	-0.062965
C	 0.7006418458	-1.5652417562	 1.8653474405	-0.053443
C	 1.0045228809	-0.2773806785	 1.1509851118	-0.302062
H	-0.3648014359	 1.5910424825	-1.075285589	 0.278247
H	-0.3959873944	-0.5621958192	-2.0564120094	 0.099256
H	 0.2801437883	-1.8973410431	-1.0134026296	 0.118888
H	-2.1413879493	-0.0570052175	-0.3516332652	 0.075506
H	-2.4022305727	-1.3019326056	 1.7261248945	 0.112907
H	-2.1562519047	-2.5643274563	 0.5418128788	 0.103171
H	-0.6072703659	-3.1160608195	 2.3797285321	 0.084019
H	 1.5025370304	-1.9744444355	 2.4747912972	 0.085327
H	 2.0257712412	-0.2940274501	 0.7476824663	 0.107697
H	 0.9861369337	 0.5557706061	 1.8682326403	 0.123291
128.8297	139.3989	221.0501	331.3162	377.6747	398.9557	420.577	501.2888	539.6654	677.2332	689.469	772.4927	809.1032	890.474	917.7554	931.7975	943.2962	978.5798	1000.0044	1023.5237	1037.9768	1050.7888	1102.3932	1122.4657	1159.3176	1198.053	1222.7831	1239.345	1265.0556	1342.3328	1360.1525	1401.7006	1420.2229	1434.812	1473.2753	1478.9219	1495.8632	1728.7399	2994.0548	3007.9046	3014.268	3033.5202	3114.4617	3133.6713	3144.692	3168.0491	3201.6118	3826.8046
OC12CC1CC=CC2	O[C@]12C[C@H]1CC=CC2	
InChI=1S/C7H10O/c8-7-4-2-1-3-6(7)5-7/h1-2,6,8H,3-5H2	InChI=1S/C7H10O/c8-7-4-2-1-3-6(7)5-7/h1-2,6,8H,3-5H2/t6-,7-/m1/s1
