18
gdb 79680	2.72263	1.5353	1.18951	3.7324	77.47	-0.228	-0.0412	0.1868	1077.605	0.146264	-401.859046	-401.850772	-401.849828	-401.891812	31.523	
C	-0.0107242301	 1.6641112809	 0.0254223683	-0.443308
C	 0.0525334936	 0.1562632357	 0.2352734662	-0.009392
N	 1.0540112864	-0.7886979887	-0.2643004861	-0.176106
C	 2.4817335806	-0.373757927	 0.0343467731	-0.004821
C	 2.7701852014	 0.8776887648	 0.8306011581	-0.310258
C	 2.2637902064	-0.3505346758	 1.5255091935	-0.129861
C	 0.7826903586	-0.6670373283	 1.2544467273	 0.163263
C	 0.0726945559	-1.7556600936	 1.9676211785	 0.09359
O	-1.0039631497	-2.1980604911	 1.6445429575	-0.260532
H	 0.7191776874	 2.0039828601	-0.7120341018	 0.144204
H	-1.0025834936	 1.9207876833	-0.3556483065	 0.129137
H	 0.1385173036	 2.2266984042	 0.9506300745	 0.138665
H	-0.9148788992	-0.3187257228	 0.0766880791	 0.134905
H	 3.2402174117	-0.8754110612	-0.5512783271	 0.111948
H	 3.8389461388	 1.0271084903	 0.9621135737	 0.1227
H	 2.2144839261	 1.7992003281	 0.7658071974	 0.121985
H	 2.8154577491	-0.8725847764	 2.2970126489	 0.100563
H	 0.6085652728	-2.1439158426	 2.8634563155	 0.073317
102.1413	126.2102	188.1904	206.0418	248.8845	295.4776	398.144	420.867	526.8122	611.0489	686.8624	696.537	706.7901	749.1739	836.8137	865.3932	922.177	944.6467	974.1241	1027.2914	1036.9831	1057.7966	1072.4968	1079.8857	1107.5211	1113.5445	1151.0377	1185.8129	1211.4461	1293.4558	1325.1127	1354.9178	1406.9685	1429.2688	1451.1292	1483.7924	1503.5357	1511.1213	1800.7721	2871.6276	3050.5554	3109.2923	3126.3489	3132.9565	3141.0773	3190.2391	3205.525	3264.4341
CC1N2C3CC3C12C=O	C[C@H]1N2[C@H]3C[C@H]3[C@@]12C=O	
InChI=1S/C7H9NO/c1-4-7(3-9)5-2-6(5)8(4)7/h3-6H,2H2,1H3	InChI=1S/C7H9NO/c1-4-7(3-9)5-2-6(5)8(4)7/h3-6H,2H2,1H3/t4-,5-,6+,7-,8?/m1/s1
