18
gdb 44641	2.91347	1.66791	1.48667	3.6252	74.29	-0.2434	0.0271	0.2705	951.0414	0.150029	-401.933699	-401.926694	-401.92575	-401.965146	28.339	
O	-0.0307161518	 0.0131314646	 0.0295382328	-0.363437
C	 0.0029648561	 1.2132830771	-0.0160497744	 0.417327
N	-0.9954410893	 2.173524195	-0.032313662	-0.319281
C	-0.0943048101	 3.3253252291	-0.0058233642	 0.007734
C	 0.3885084723	 3.8575627752	 1.3888254246	-0.032816
C	-0.1859371586	 3.1784550452	 2.6601672026	-0.234921
C	 0.9775393199	 2.1352950367	 2.6315891416	-0.243703
C	 1.5642603903	 2.8262292267	 1.3677709711	-0.019196
C	 1.0919163809	 2.3112464256	-0.0370302167	-0.20762
H	-1.9802866413	 2.0864585253	 0.1774856627	 0.246856
H	-0.2754864775	 4.0642967418	-0.7877888808	 0.085658
H	 0.5579225888	 4.9345501616	 1.4213401112	 0.067136
H	-0.1669341933	 3.8294736844	 3.5370161372	 0.103915
H	-1.1941150703	 2.7679019341	 2.5613085026	 0.092795
H	 1.6372936665	 2.1965706933	 3.5000565847	 0.099736
H	 0.6827264596	 1.0921298044	 2.4999267494	 0.130337
H	 2.6094890828	 3.1322458116	 1.406106578	 0.074045
H	 1.8285410152	 2.2715362782	-0.8372805103	 0.095436
91.6517	158.7974	267.2062	345.2602	427.2422	490.9819	516.6229	642.485	707.0186	721.6361	732.8792	781.3112	831.0806	848.2415	882.944	890.8869	922.1964	960.6324	981.497	1009.1755	1055.8031	1065.5348	1104.3984	1125.1751	1140.6404	1157.022	1203.1804	1217.7823	1228.3958	1246.4368	1263.3487	1284.7338	1295.8466	1310.2673	1340.4825	1365.48	1474.3874	1493.6228	1881.9287	3061.073	3069.3136	3089.1963	3099.1207	3107.2345	3108.7964	3127.0402	3138.2688	3590.8039
O=C1NC2C3CCC3C12	O=C1N[C@H]2[C@H]3CC[C@H]3[C@@H]12	
InChI=1S/C7H9NO/c9-7-5-3-1-2-4(3)6(5)8-7/h3-6H,1-2H2,(H,8,9)	InChI=1S/C7H9NO/c9-7-5-3-1-2-4(3)6(5)8-7/h3-6H,1-2H2,(H,8,9)/t3-,4+,5-,6+/m1/s1
