16
gdb 127019	6.71598	0.84449	0.75776	1.5468	68.79	-0.2297	0.019	0.2487	1473.3695	0.124551	-471.212514	-471.203881	-471.202936	-471.246421	31.019	
C	 0.0088677077	 1.4584602314	 0.0668834128	-0.391539
C	 0.0011947772	-0.0550143567	 0.0070342998	-0.059507
O	 0.7209337222	-0.5310072406	 1.1700246951	-0.262212
C	 0.8403478991	-1.8318806805	 1.3207389531	 0.537803
N	 1.4554476753	-2.4195454909	 2.3038543305	-0.417455
C	 1.2786402786	-3.7410142663	 1.967511169	 0.431825
N	 1.8346511115	-4.7383009809	 2.7233427593	-0.582357
N	 0.59528222	-3.9768562768	 0.8670773392	-0.237522
O	 0.3005730741	-2.6482466934	 0.4160096457	-0.226297
H	 1.0323273578	 1.8425562543	 0.052785894	 0.139647
H	-0.5258185349	 1.8628532175	-0.797189191	 0.129406
H	-0.4822204065	 1.8140449169	 0.976627394	 0.138873
H	-1.0151523294	-0.4606436298	 0.0310478776	 0.13243
H	 0.4975693947	-0.4315636459	-0.8928520366	 0.133445
H	 1.9794055021	-4.4897569143	 3.6898532172	 0.267768
H	 1.4336140706	-5.6535624841	 2.5844870703	 0.265691
55.7587	85.5682	146.8458	222.8712	257.0053	320.9944	346.06	367.7326	397.6329	542.3339	561.3751	697.2482	723.0457	781.7126	792.6006	815.2745	903.3297	921.0499	1021.8439	1037.3499	1118.6952	1126.7354	1140.0927	1180.2789	1297.2555	1362.7159	1393.8523	1420.4168	1476.6978	1484.064	1497.7399	1518.7076	1596.4998	1657.7014	1669.2396	3049.3795	3051.2217	3093.2103	3127.674	3132.7755	3584.3692	3694.7126
CCOC1=NC(N)=NO1	CCOc1nc(N)no1	
InChI=1S/C4H7N3O2/c1-2-8-4-6-3(5)7-9-4/h2H2,1H3,(H2,5,7)	InChI=1S/C4H7N3O2/c1-2-8-4-6-3(5)7-9-4/h2H2,1H3,(H2,5,7)
