19
gdb 63038	3.47453	1.24034	1.16409	0.5523	76.04	-0.2184	0.0684	0.2868	1136.5725	0.156849	-422.959254	-422.950688	-422.949744	-422.991817	33.909	
C	-0.0303192722	 1.5811810587	 0.0124582169	-0.461478
C	 0.0452720267	 0.0765838172	 0.0726255393	 0.36029
O	-1.0861214243	-0.6000963509	-0.4195343224	-0.464386
C	 1.3200843657	-0.7038203836	-0.1236510891	 0.003846
O	 2.4602551812	-0.0087785696	 0.3971740888	-0.314098
C	 1.8942800788	-0.0870999368	 1.7216098538	 0.463896
C	 2.7331659024	-0.4812435457	 2.8895728186	-0.345096
C	 2.1794721108	 0.9347776714	 2.7696551911	-0.335022
C	 0.6230031276	-0.7226676263	 1.2265988206	-0.266095
H	 0.9067151956	 2.0334189702	 0.3404724691	 0.144762
H	-0.2160504848	 1.9079581057	-1.0185632606	 0.103882
H	-0.847692298	 1.9544520613	 0.6372057687	 0.122471
H	-1.1581382197	-0.4034543439	-1.3605696356	 0.283764
H	 1.4773010129	-1.4680956555	-0.8763494247	 0.105059
H	 2.3045762633	-1.1466320744	 3.6320522974	 0.117336
H	 3.793450151	-0.6193568032	 2.7083986081	 0.126728
H	 2.8841310214	 1.7190127276	 2.5143625125	 0.125701
H	 1.3771670131	 1.2420760094	 3.4319997929	 0.119988
H	 0.0573123984	-1.5040465615	 1.7154826244	 0.108452
121.1653	172.415	203.338	224.0471	289.7905	303.6343	352.2875	391.6745	416.8869	487.3802	530.1146	607.3004	697.6842	754.6835	816.8127	849.5346	877.6828	905.3535	919.7629	963.6087	965.987	983.8385	1014.8847	1044.1888	1048.1935	1065.3574	1069.2359	1100.122	1156.0102	1180.5062	1186.4049	1258.5008	1276.1424	1304.9649	1397.0784	1409.9712	1427.4781	1447.3556	1488.8594	1496.3194	1504.4117	3026.8543	3090.6579	3129.2044	3132.195	3144.0341	3176.359	3209.1246	3212.9062	3226.8685	3789.6928
CC1(O)C2OC3(CC3)C12	C[C@@]1(O)[C@H]2OC3(CC3)[C@@H]12	
InChI=1S/C7H10O2/c1-6(8)4-5(6)9-7(4)2-3-7/h4-5,8H,2-3H2,1H3	InChI=1S/C7H10O2/c1-6(8)4-5(6)9-7(4)2-3-7/h4-5,8H,2-3H2,1H3/t4-,5+,6+/m1/s1
