19
gdb 81566	3.28968	1.22144	1.03548	4.2221	77.04	-0.2274	0.0163	0.2437	1206.4748	0.159459	-419.154008	-419.145059	-419.144115	-419.188497	33.201	
C	-0.0855341968	 1.6781205116	-0.5190349139	-0.450255
C	-0.0236703333	 0.1664713518	-0.4145196872	 0.096811
C	 0.7993809298	-0.7293079424	-1.3804221981	-0.102995
C	 2.0376669293	-0.2091650274	-0.6269648641	-0.18053
N	 1.0475216968	-0.4695575893	 0.5293872933	-0.163423
C	 0.7596583498	-1.7763392814	-0.2282572308	-0.056952
C	-0.4943095437	-2.5671260781	 0.1243157418	 0.383259
N	-0.4999407793	-3.818405875	-0.4280077297	-0.527118
O	-1.412693742	-2.1613491122	 0.8102640924	-0.35333
H	 0.8349626004	 2.1543419905	-0.8631472934	 0.116017
H	-0.8835896245	 1.9580027758	-1.2152682661	 0.121493
H	-0.3399715433	 2.1001213719	 0.4587824023	 0.13792
H	-1.0103749581	-0.2132009491	-0.1572050077	 0.116208
H	 0.6616554507	-0.9032420393	-2.4546800127	 0.063308
H	 2.9235170016	-0.8499789986	-0.5919700783	 0.096603
H	 2.3252491725	 0.835040427	-0.7355331782	 0.106291
H	 1.6241856042	-2.4500546564	-0.1981497019	 0.074947
H	 0.286386123	-4.1953858833	-0.9267455792	 0.259271
H	-1.2791852269	-4.422475356	-0.2240281683	 0.262477
28.1618	118.7197	155.2406	182.0293	195.4359	280.186	349.6933	387.7247	466.5127	551.6548	597.67	653.2762	699.2408	754.3171	778.9762	790.5304	869.5215	909.3829	914.5151	999.677	1030.683	1040.4278	1076.5535	1083.0147	1116.8749	1146.6844	1154.5447	1164.1423	1193.75	1218.4472	1248.1186	1274.4206	1302.6404	1407.9932	1432.4394	1452.1083	1495.2174	1497.9303	1546.8023	1616.1708	1791.9585	3022.3287	3033.1253	3040.9741	3065.2289	3100.7088	3116.8587	3145.3964	3153.1893	3603.0214	3740.0605
CC1C2CN1C2C(N)=O	C[C@H]1[C@H]2CN1[C@H]2C(=O)N	
InChI=1S/C6H10N2O/c1-3-4-2-8(3)5(4)6(7)9/h3-5H,2H2,1H3,(H2,7,9)	InChI=1S/C6H10N2O/c1-3-4-2-8(3)5(4)6(7)9/h3-5H,2H2,1H3,(H2,7,9)/t3-,4+,5+/m0/s1
