25
gdb 115973	2.37415	1.12966	0.81076	0.208	95.65	-0.2251	0.0364	0.2614	1528.9581	0.229739	-352.393777	-352.38392	-352.382975	-352.428285	37.896	
C	-0.0848767539	 1.5606806986	 0.1028256664	-0.390149
C	 0.0033003504	 0.0336286199	 0.0088465493	-0.179502
C	 0.7093146325	-0.4948081422	-1.2495448263	 0.036174
C	 0.8709893981	-2.0211794031	-1.2061446621	-0.203194
C	 1.6907689776	-2.5334348635	-2.3968578286	-0.265436
C	 1.2588367612	-1.9024859816	-3.693673685	-0.130629
C	 0.4857107652	-0.817451963	-3.7793900245	 0.311331
C	 0.051432384	-0.2411339388	-5.1001672141	-0.474619
C	-0.0122940508	-0.0913127234	-2.5478492459	-0.284885
H	 0.9100236085	 2.0176787633	 0.0503674774	 0.112156
H	-0.6872839547	 1.9858862175	-0.7059328943	 0.118093
H	-0.541552696	 1.869569815	 1.0484011966	 0.109991
H	 0.5347771996	-0.3477014033	 0.8904676371	 0.088772
H	-1.0075830243	-0.3953276023	 0.0571817504	 0.090175
H	 1.7184012953	-0.0551991034	-1.2800407334	 0.066593
H	 1.3406432426	-2.3265128094	-0.2637977755	 0.085421
H	-0.1254187664	-2.4839305612	-1.2249749785	 0.092611
H	 2.7610067872	-2.3373998922	-2.2282603015	 0.101998
H	 1.6064800911	-3.6255484562	-2.4703645657	 0.097209
H	 1.6071202419	-2.3779449119	-4.6090626291	 0.069866
H	 0.4202064489	-0.8330194393	-5.9424039789	 0.116578
H	-1.0435645433	-0.1951806226	-5.1710340439	 0.118042
H	 0.4110757299	 0.7890635458	-5.2227314811	 0.117938
H	-1.094945081	-0.2688858111	-2.4383955676	 0.097572
H	 0.0829652265	 0.9899554786	-2.7126936813	 0.097892
88.9571	101.264	157.6722	184.3122	197.6222	247.1309	277.5494	322.6994	384.4035	424.3041	443.7011	456.6648	492.8428	629.4515	764.1995	807.977	831.3718	848.2342	898.4202	921.2459	926.7055	967.5642	1017.5812	1024.4869	1038.5349	1056.9538	1077.9799	1107.2099	1129.9211	1156.7542	1173.19	1180.0189	1241.6757	1261.6675	1299.4307	1317.6709	1324.2418	1369.4157	1371.0826	1381.1238	1386.1804	1399.4714	1412.2503	1414.7366	1472.1951	1478.9864	1479.8397	1484.8205	1491.7361	1497.5046	1501.5197	1508.228	1744.1856	2972.0334	2984.1371	2988.2439	3006.0186	3010.1405	3014.2125	3027.7041	3032.5924	3033.6942	3042.055	3054.4156	3060.523	3095.8801	3103.6572	3106.7321	3136.6407
CCC1CCC=C(C)C1	CC[C@H]1CCC=C(C)C1	
InChI=1S/C9H16/c1-3-9-6-4-5-8(2)7-9/h5,9H,3-4,6-7H2,1-2H3	InChI=1S/C9H16/c1-3-9-6-4-5-8(2)7-9/h5,9H,3-4,6-7H2,1-2H3/t9-/m0/s1
