23
gdb 101659	2.06826	0.96461	0.8725	2.0374	83.42	-0.2417	-0.029	0.2127	1540.1167	0.201082	-425.441568	-425.430098	-425.429154	-425.479187	40.322	
C	-0.3990445665	 1.4765800815	-0.2046169911	-0.38895
C	 0.4009823797	 0.177220818	-0.0942417109	-0.173421
C	 1.0422225936	-0.2672508013	-1.4098441271	 0.139991
C	 1.9111593597	-1.5137407499	-1.2316867147	-0.400204
O	-0.0288830356	-0.5168132969	-2.3299501037	-0.271578
C	 0.311149859	-0.4565726652	-3.6990163349	 0.04958
C	-0.847880491	-1.0642443678	-4.4918880433	-0.412097
C	 0.5119852784	 0.991612956	-4.1442783079	 0.135946
O	 1.2331319063	 1.3342430842	-5.0439535312	-0.243424
H	 0.2388101335	 2.3097177819	-0.5216477871	 0.111292
H	-1.2056335982	 1.3721594495	-0.9344464866	 0.12911
H	-0.8429060765	 1.7474828827	 0.7579889071	 0.112163
H	 1.1964724473	 0.2864171076	 0.6524083997	 0.096489
H	-0.2490356957	-0.6346667792	 0.255186915	 0.105201
H	 1.6665557936	 0.5562748311	-1.7960231134	 0.072919
H	 2.3588361786	-1.8368782074	-2.1759538892	 0.119508
H	 2.7276279596	-1.3137326259	-0.5307172466	 0.117717
H	 1.3094232726	-2.3391443492	-0.8383863205	 0.124291
H	 1.2358531852	-1.0069677301	-3.9205670441	 0.091214
H	-1.7702060075	-0.5025456378	-4.3137065225	 0.129709
H	-0.6250134335	-1.0508066328	-5.5616898741	 0.135979
H	-1.0086751127	-2.0959664522	-4.1695067388	 0.132706
H	-0.1086603201	 1.7186674032	-3.5694650141	 0.08586
40.4797	55.8322	87.7241	116.3218	165.4652	214.3334	223.1424	228.9178	241.9673	279.0081	356.8116	383.2868	409.4225	454.5311	493.7065	578.4313	767.8688	832.2566	872.8096	888.7964	926.3978	968.2657	990.4795	1021.1305	1050.1038	1108.2364	1125.2545	1138.2349	1158.4296	1165.3461	1204.1877	1300.3865	1309.3626	1326.9264	1336.7819	1388.3925	1392.0605	1396.5887	1402.6613	1407.6843	1413.2145	1473.6204	1482.6692	1490.8445	1494.5809	1497.6478	1498.3057	1509.1114	1836.3999	2864.3455	2959.3154	3015.4261	3028.8652	3034.9007	3040.1316	3045.4395	3067.2684	3099.9219	3110.6625	3114.5056	3120.5825	3124.0822	3134.9275
CCC(C)OC(C)C=O	CC[C@@H](C)O[C@@H](C)C=O	
InChI=1S/C7H14O2/c1-4-6(2)9-7(3)5-8/h5-7H,4H2,1-3H3	InChI=1S/C7H14O2/c1-4-6(2)9-7(3)5-8/h5-7H,4H2,1-3H3/t6-,7+/m1/s1
