15
gdb 57126	3.61801	0.78791	0.66625	3.2721	84.36	-0.2408	-0.0303	0.2105	1592.3784	0.110816	-416.776736	-416.76691	-416.765966	-416.812051	35.236	
N	-0.0819045458	 1.6116704429	-0.0949011852	-0.501747
C	-0.0183107134	 0.1513398128	-0.0232153095	-0.293453
C	-1.3394313776	-0.4429623211	 0.1246126518	 0.439124
C	-2.43103622	-0.9562775313	 0.2338391854	-0.276917
C	-3.6608342164	-1.5260938991	 0.3546248801	 0.293892
C	-4.750388069	-2.0354272939	 0.4604547546	-0.552078
C	 0.7999156898	-0.4625302679	-1.2097108162	 0.405001
N	 0.5724068348	-1.7705257278	-1.4753371999	-0.522937
O	 1.6327758702	 0.2154181736	-1.7768957688	-0.359464
H	 0.8124166159	 1.9110461256	-0.4833769864	 0.249
H	-0.7778703981	 1.8716465946	-0.7895797046	 0.234687
H	 0.57021573	-0.1118287301	 0.8708929291	 0.147382
H	-5.711129415	-2.4774642516	 0.5568263395	 0.197867
H	-0.2222066593	-2.2468009008	-1.0826433517	 0.272618
H	 1.0750600139	-2.1993168059	-2.2357542882	 0.267025
46.9553	71.6764	111.1261	211.0734	244.8342	260.7599	298.7273	327.0791	401.6768	421.1971	479.1486	511.8394	525.4221	570.4801	592.7971	612.9738	619.9264	684.6231	791.3062	841.5789	973.5765	1090.5015	1101.5206	1193.1818	1206.9292	1282.0596	1341.4295	1403.2441	1611.4633	1665.0644	1805.0787	2181.3906	2357.1607	2978.1659	3463.6342	3503.1258	3544.1671	3591.7385	3723.8821
NC(C#CC#C)C(N)=O	N[C@@H](C#CC#C)C(=O)N	
InChI=1S/C6H6N2O/c1-2-3-4-5(7)6(8)9/h1,5H,7H2,(H2,8,9)	InChI=1S/C6H6N2O/c1-2-3-4-5(7)6(8)9/h1,5H,7H2,(H2,8,9)/t5-/m0/s1
