22
gdb 117780	1.90252	1.11028	1.02625	3.8242	83.15	-0.2425	0.0313	0.2737	1399.8025	0.193175	-400.531649	-400.520588	-400.519644	-400.567837	39.947	
C	 0.0505226617	 1.6271298491	 0.1471001182	-0.38701
C	 0.0078724002	 0.1076270615	 0.0106979466	-0.130028
N	 0.762877426	-0.5174774739	 1.0998048761	-0.309706
C	 0.7770131296	-1.9855038955	 1.1688935813	 0.076812
C	 1.457367207	-2.6828854712	-0.0307696364	-0.417108
C	 1.5130946675	-2.3696781248	 2.495913137	-0.171623
N	 0.9429753725	-1.844421293	 3.7207834609	-0.502824
C	-0.6156210568	-2.4639748924	 1.2778069926	 0.305341
N	-1.6899308654	-2.8774744247	 1.3825589678	-0.355116
H	 1.0768575203	 2.0042815805	 0.0669319077	 0.112272
H	-0.5379909191	 2.1008274595	-0.6438267073	 0.121604
H	-0.3490508395	 1.9383437768	 1.1161536612	 0.130326
H	-1.0280863005	-0.2411138173	 0.0808011708	 0.134238
H	 0.371803736	-0.1810133049	-0.9896671924	 0.086606
H	 1.7290765482	-0.2024986369	 1.0673495712	 0.217742
H	 2.5046739598	-2.3671266395	-0.0838374227	 0.11813
H	 1.4311792166	-3.7707875457	 0.079307742	 0.136142
H	 0.9696623747	-2.4268925394	-0.9738256311	 0.137401
H	 1.5722072359	-3.4604044813	 2.5617165473	 0.118704
H	 2.542988081	-2.0007929999	 2.3914842756	 0.103026
H	 0.7385203743	-0.8577615638	 3.5832236746	 0.23444
H	 0.05182584	-2.2958420032	 3.9072960891	 0.240631
57.6215	94.5628	117.1988	133.4377	193.6087	207.1265	223.7207	252.7571	260.6528	332.351	357.0708	408.2456	413.8548	454.5521	595.8969	631.811	695.6518	736.162	817.4066	875.6004	885.7539	925.7875	945.5846	971.8825	1061.5576	1092.4774	1123.1246	1130.1747	1152.743	1168.3414	1201.1844	1277.5291	1312.1038	1367.9737	1386.4129	1400.1798	1408.2667	1413.4337	1468.4509	1481.1677	1487.7163	1493.6929	1497.3073	1511.2445	1525.4673	1674.8934	2352.3792	2959.654	3013.9238	3033.8177	3040.3803	3066.6379	3086.3902	3102.5503	3112.8804	3123.4837	3130.0102	3487.0659	3497.2386	3563.9357
CCNC(C)(CN)C#N	CCN[C@@](C)(CN)C#N	
InChI=1S/C6H13N3/c1-3-9-6(2,4-7)5-8/h9H,3-4,7H2,1-2H3	InChI=1S/C6H13N3/c1-3-9-6(2,4-7)5-8/h9H,3-4,7H2,1-2H3/t6-/m0/s1
