15
gdb 128822	3.94289	1.00077	0.93199	2.4487	65.06	-0.2584	-0.0239	0.2345	1270.4906	0.111509	-491.052698	-491.044308	-491.043364	-491.087077	29.227	
C	-0.5090110156	 0.4666139319	 0.0257627605	-0.243731
O	 0.0476725455	 0.2728707421	-1.2639850886	-0.219614
C	 1.2740470878	-0.4128878137	-1.2551638888	-0.184394
C	 1.1148202154	-1.8746751242	-0.9662680825	 0.408594
N	 1.5729285426	-2.4904363082	 0.0582142186	-0.169253
O	 1.1600033857	-3.8376612128	-0.128037547	-0.241355
C	 0.4488822344	-3.9177416978	-1.2943583229	 0.506456
N	-0.1000868603	-4.9037495631	-1.8342670999	-0.572764
O	 0.4245276537	-2.6523471902	-1.8339122543	-0.195333
H	-0.7388041618	-0.4840847691	 0.5254173844	 0.124501
H	 0.1696943875	 1.0439992097	 0.6702470153	 0.117378
H	-1.4346522092	 1.0271399437	-0.1158025662	 0.142415
H	 1.7033448032	-0.2965915754	-2.2552569577	 0.14602
H	 1.9779895606	-0.0068334964	-0.515352593	 0.133104
H	 0.0320107805	-5.7460881366	-1.280454248	 0.247976
38.0833	87.9239	122.9719	182.9327	220.8003	296.8091	369.8229	461.9407	491.4234	623.2544	720.0737	741.618	782.7827	800.1661	896.8545	926.4607	939.756	983.0401	1030.8562	1057.3161	1138.1505	1182.3662	1218.6676	1248.732	1306.7533	1370.7344	1407.958	1469.3889	1482.7095	1489.3613	1507.0685	1691.4413	1819.1346	2993.9269	3018.8099	3050.8852	3092.2339	3134.647	3548.85
COCC1=NOC(=N)O1	COCC1=NO[C@H]([NH])O1	
InChI=1S/C4H6N2O3/c1-7-2-3-6-9-4(5)8-3/h5H,2H2,1H3	InChI=1S/C4H7N2O3/c1-7-2-3-6-9-4(5)8-3/h4-5H,2H2,1H3/t4-/m1/s1
