22
gdb 12412	2.70952	2.0133	1.43176	1.1561	77.65	-0.241	0.0805	0.3216	987.3607	0.20175	-350.227839	-350.21956	-350.218616	-350.259842	32.563	
C	-0.1594933539	 1.5930093972	-0.0271792248	-0.396112
C	 0.0012970729	 0.0653659387	-0.0236996921	 0.02358
C	 0.7463919127	-0.4479633613	-1.2748852013	-0.218899
C	 2.2419152285	-0.1021981545	-1.2217514143	-0.198796
C	 2.83420385	-0.554821491	 0.1139339914	-0.062382
O	 2.1090191822	-0.0349626324	 1.2156104151	-0.260973
C	 0.7470355249	-0.4562202145	 1.2264744942	 0.149444
C	 0.1564541348	-0.0138773124	 2.5580598592	-0.413003
H	 0.7980860088	 2.0942471344	 0.1386075853	 0.127735
H	-0.5622353751	 1.9367732335	-0.9855759794	 0.105701
H	-0.8471398024	 1.9265353648	 0.7551247292	 0.113219
H	-0.9999923779	-0.3859661248	-0.0166306505	 0.063458
H	 0.6368899617	-1.5397896956	-1.3282367966	 0.089315
H	 0.2874948012	-0.0433494894	-2.184024495	 0.089913
H	 2.7800976902	-0.5832070508	-2.0468240751	 0.091168
H	 2.3884102688	 0.978329062	-1.331478964	 0.104847
H	 2.843883343	-1.6586524496	 0.1613942454	 0.079865
H	 3.8647945762	-0.2070820947	 0.2342455379	 0.100862
H	 0.7247440888	-1.560908567	 1.1822284329	 0.05433
H	 0.2359926452	 1.0692902763	 2.6805421317	 0.12682
H	-0.8989112392	-0.2963441238	 2.6248253703	 0.109924
H	 0.6958272787	-0.4867124551	 3.3831722706	 0.119984
131.9101	185.8306	206.989	229.8946	289.814	320.4766	327.4527	386.5609	439.6922	495.9431	569.8488	656.9502	748.4162	839.2451	853.7369	878.1417	910.3696	948.8983	977.7765	1010.0468	1031.3118	1057.2376	1098.9606	1109.7595	1136.4988	1161.8263	1186.0447	1228.0392	1246.8657	1299.8524	1323.8371	1348.4035	1365.5039	1369.3723	1382.6292	1390.2558	1411.0006	1414.062	1419.8163	1479.4006	1482.3969	1489.6866	1493.3575	1502.3663	1506.3604	1517.5798	2925.0287	2946.8202	3006.4346	3020.5257	3033.6389	3040.5515	3045.8634	3058.8069	3073.9448	3080.867	3102.9203	3116.6601	3118.8701	3126.6665
CC1CCCOC1C	C[C@H]1CCCO[C@H]1C	
InChI=1S/C7H14O/c1-6-4-3-5-8-7(6)2/h6-7H,3-5H2,1-2H3	InChI=1S/C7H14O/c1-6-4-3-5-8-7(6)2/h6-7H,3-5H2,1-2H3/t6-,7-/m0/s1
