23
gdb 70248	2.87178	1.28415	1.18439	1.3817	85.23	-0.2514	0.0689	0.3203	1204.8251	0.20543	-388.305515	-388.296332	-388.295388	-388.338343	37.236	
C	-0.5991068538	 1.4570625422	 0.2564345561	-0.482971
C	-0.011243166	 0.0837115723	 0.0350988741	 0.357686
C	-0.750841017	-1.1383987237	 0.5298654714	-0.333567
C	 0.5698073038	-0.752420066	 1.1592524595	-0.074639
C	 1.8266956945	-1.4398374693	 0.6552061538	-0.253156
C	 1.7747954649	-1.35184197	-0.8970555522	 0.347808
C	 3.1608951102	-1.2589570552	-1.53830307	-0.434947
O	 1.0767697351	-2.4796045921	-1.4512685809	-0.458925
C	 0.8832575	-0.1197003259	-1.1844426413	-0.279621
H	 0.1810597242	 2.2281693149	 0.2761097065	 0.108081
H	-1.304731014	 1.7231237391	-0.5400012238	 0.11509
H	-1.1423605365	 1.5073599246	 1.2056460705	 0.111306
H	-1.6420751064	-0.9577621076	 1.1230941776	 0.096009
H	-0.7897972377	-2.0185698816	-0.1001357993	 0.128997
H	 0.5612443821	-0.3858128939	 2.1808617338	 0.072355
H	 2.7115641368	-0.9107303545	 1.029519598	 0.093172
H	 1.9192961274	-2.4846247607	 0.9787208384	 0.082784
H	 3.7616048977	-2.1442423961	-1.2953513854	 0.101605
H	 3.0711541654	-1.2011431855	-2.6271010497	 0.12263
H	 3.7070923342	-0.3789298812	-1.1845239549	 0.112823
H	 1.5645989003	-3.2730029756	-1.2048830902	 0.27228
H	 0.3288734014	-0.2731834014	-2.1159249789	 0.107637
H	 1.5128618333	 0.7684964174	-1.3176184731	 0.087564
135.7472	178.6036	216.1183	240.2672	280.1135	309.9462	318.7252	364.6929	375.4102	408.1149	426.3229	461.0031	556.0758	621.4915	707.5038	792.735	827.8344	870.4344	881.824	897.1823	935.0908	940.416	984.7013	990.298	1014.7014	1064.0141	1078.3587	1093.8567	1100.6605	1132.1598	1143.6826	1175.9868	1196.8928	1254.3977	1278.9524	1305.5654	1327.1114	1335.4694	1380.8281	1402.4789	1411.3845	1423.4597	1473.6084	1479.6979	1488.1645	1490.1254	1493.8215	1494.8135	1506.0915	3015.6177	3016.8305	3023.5174	3032.1294	3055.0754	3072.0549	3080.599	3090.5718	3092.9146	3113.8937	3129.3452	3154.8138	3226.6937	3802.5679
CC12CC1CC(C)(O)C2	C[C@]12C[C@H]1C[C@@](C)(O)C2	
InChI=1S/C8H14O/c1-7-3-6(7)4-8(2,9)5-7/h6,9H,3-5H2,1-2H3	InChI=1S/C8H14O/c1-7-3-6(7)4-8(2,9)5-7/h6,9H,3-5H2,1-2H3/t6-,7+,8+/m0/s1
