13
gdb 25175	3.12362	1.55031	1.03608	3.6347	81.02	-0.2267	-0.0756	0.1511	1056.0687	0.090316	-415.62972	-415.622445	-415.621501	-415.661562	27.582	
O	-0.026229618	-0.0592477964	 0.0032982587	-0.36652
C	 0.0115623321	 1.1537054977	 0.0092796243	 0.376673
N	-1.1588324096	 1.921310728	 0.0286212439	-0.340819
C	-1.1834520651	 3.2819612902	 0.0361901505	 0.013277
C	-0.0043121821	 3.9608142119	 0.024416414	-0.069304
N	 1.1957978086	 3.3167659851	 0.0053075194	-0.295194
C	 1.2257614669	 2.0070992731	-0.0020664686	-0.003655
C	 2.4794983804	 1.3328797692	-0.0220357489	 0.298342
C	 3.532617825	 0.7504847575	-0.0389057891	-0.35377
H	-2.015926367	 1.384232654	 0.0369576067	 0.271771
H	-2.1555826515	 3.7588319237	 0.0514128543	 0.144279
H	 0.017406711	 5.043078669	 0.0299006208	 0.122493
H	 4.4616851994	 0.235817917	-0.0538005061	 0.202428
101.0978	143.9373	204.6856	367.3687	385.549	480.5939	483.2644	566.1787	588.3951	588.62	631.4357	655.1388	710.2756	728.2255	816.3963	824.5381	905.9817	924.9756	1078.256	1105.6765	1212.8174	1255.2878	1269.412	1411.2113	1489.5722	1538.0926	1632.5454	1791.9246	2226.8897	3204.7328	3222.343	3501.2442	3597.6078
O=C1NC=CN=C1C#C	O=c1[nH]ccnc1C#C	
InChI=1S/C6H4N2O/c1-2-5-6(9)8-4-3-7-5/h1,3-4H,(H,8,9)	InChI=1S/C6H4N2O/c1-2-5-6(9)8-4-3-7-5/h1,3-4H,(H,8,9)
