18
gdb 8907	3.73927	1.16385	1.05635	0.3961	69.64	-0.265	0.0305	0.2954	1158.7342	0.15027	-384.895434	-384.885511	-384.884567	-384.929952	35.393	
C	 0.0892008439	 1.585094571	-0.0234537303	-0.412976
C	 0.0221295017	 0.0559710212	 0.0418020593	 0.032111
C	 0.7593509175	-0.4888637364	 1.2671155932	-0.090803
O	 2.1235376508	-0.1049751168	 1.1668998656	-0.426745
C	-1.4312919758	-0.4790839898	 0.0361672451	-0.067904
O	-2.173574081	-0.0458210596	 1.1770234004	-0.425391
C	-2.1279428811	-0.1555242684	-1.2120478886	 0.295527
C	-2.70457585	 0.1423603558	-2.2242446208	-0.437968
H	 1.1304429484	 1.9116260224	-0.0116890084	 0.139521
H	-0.3886404595	 1.9638895982	-0.9312357615	 0.122062
H	-0.4073623262	 2.0363717535	 0.8436343951	 0.104671
H	 0.5150556482	-0.3571437376	-0.8476601113	 0.093597
H	 0.2923179768	-0.0912560893	 2.1794063694	 0.101842
H	 0.6613085037	-1.5867184754	 1.2977104543	 0.08108
H	 2.5622620028	-0.3404694021	 1.9890979646	 0.287209
H	-1.3907244813	-1.5715306609	 0.1356994478	 0.114731
H	-2.459520511	 0.8587786171	 1.0111803506	 0.289632
H	-3.2187597578	 0.388805747	-3.1204235945	 0.199805
71.2598	93.9275	134.0422	198.415	219.5849	236.2956	246.4726	279.6314	310.8625	331.1883	407.9106	489.5053	570.4867	625.0757	669.8798	678.8313	820.358	891.3005	931.5076	990.4047	998.2033	1077.7667	1101.3045	1110.4365	1173.277	1230.8028	1264.5539	1270.9936	1305.8885	1336.0885	1378.8889	1402.8357	1419.4062	1457.1097	1494.7608	1509.8994	1522.924	2231.0425	2962.6021	3015.0228	3025.6686	3034.6832	3041.1563	3104.8611	3138.6311	3502.2391	3817.3354	3835.6402
CC(CO)C(O)C#C	C[C@@H](CO)[C@@H](O)C#C	
InChI=1S/C6H10O2/c1-3-6(8)5(2)4-7/h1,5-8H,4H2,2H3	InChI=1S/C6H10O2/c1-3-6(8)5(2)4-7/h1,5-8H,4H2,2H3/t5-,6-/m0/s1
