19
gdb 77958	3.36854	1.21667	1.00939	4.6147	81.57	-0.2476	0.0089	0.2566	1212.1379	0.159355	-381.997145	-381.988367	-381.987423	-382.030796	32.84	
C	-0.112100463	 1.5376297207	-0.305668408	-0.46126
C	 0.0127717319	 0.0258132237	-0.2805354609	 0.086952
C	 0.8419230666	-0.8472004667	-1.2594817733	-0.115598
C	 2.1039473254	-0.4630724633	-0.4409998596	 0.091324
C	 2.8531961474	 0.8672585275	-0.5081669916	-0.460714
N	 1.0324933524	-0.6819801608	 0.6698441689	-0.177152
C	 0.6951364392	-1.9436956392	-0.1668377981	-0.102916
C	-0.5879800805	-2.5848279111	 0.0826534269	 0.28291
N	-1.5854591368	-3.1415839413	 0.2613374705	-0.333575
H	 0.7514708789	 2.076709838	-0.6849024086	 0.126373
H	-0.9707598431	 1.8034593375	-0.931567377	 0.12786
H	-0.3246531565	 1.8975276877	 0.7068692917	 0.139772
H	-0.9876391914	-0.37024341	-0.0832366475	 0.10888
H	 0.7317095781	-0.9741220278	-2.3421642434	 0.080171
H	 2.839604265	-1.2719328844	-0.3920946987	 0.082473
H	 2.6308285997	 1.4948375408	 0.3578434253	 0.146773
H	 3.9303352232	 0.6811132618	-0.5050836442	 0.123636
H	 2.6260255073	 1.4357266409	-1.4133479893	 0.133698
H	 1.4850183063	-2.696698094	-0.117904513	 0.120391
53.8514	139.4112	149.0685	196.6026	253.9535	310.916	345.7161	348.5133	449.6856	493.9992	546.8231	668.693	717.1045	759.9791	792.2689	803.3445	857.3884	905.9109	1018.6528	1028.2175	1036.5852	1063.701	1072.5061	1131.8819	1146.143	1152.1822	1185.3723	1198.4353	1200.8493	1260.7148	1284.6267	1380.0601	1404.6367	1414.0271	1454.085	1480.9107	1490.8065	1501.6587	1512.0623	1515.6632	2352.7028	3039.8435	3045.106	3045.5183	3053.302	3063.1966	3089.5376	3099.3934	3116.301	3129.3891	3187.3255
CC1C2C(C)N1C2C#N	C[C@H]1[C@H]2[C@@H](C)N1[C@H]2C#N	
InChI=1S/C7H10N2/c1-4-7-5(2)9(4)6(7)3-8/h4-7H,1-2H3	InChI=1S/C7H10N2/c1-4-7-5(2)9(4)6(7)3-8/h4-7H,1-2H3/t4-,5+,6-,7-/m0/s1
