18
gdb 50820	4.14773	0.8629	0.74556	4.3606	75.06	-0.2679	-0.0225	0.2455	1496.3118	0.146998	-439.104874	-439.095869	-439.094925	-439.140188	31.654	
N	-0.7126943318	 1.1265968615	-1.1803996121	-0.514605
C	-0.1814364862	 0.2356116828	-0.4595599504	 0.392149
O	-0.8661475163	-0.3139318905	 0.6081448854	-0.215364
C	-2.2230331108	-0.128454372	 0.7152669853	 0.174121
O	-2.8127776068	-0.5180043983	 1.6740645734	-0.257895
C	 1.1842950584	-0.3773997077	-0.5311822812	-0.048515
C	 2.2628264443	 0.2349607528	-1.4604679254	-0.249656
C	 3.3128394845	-0.0347944635	-0.3471426906	-0.21749
C	 2.1526774953	-0.1642248536	 0.6759915498	-0.216882
H	-0.0769083395	 1.4132795836	-1.9220602425	 0.236075
H	-2.6495260137	 0.3811112704	-0.1571196586	 0.138773
H	 1.0648706891	-1.4504349616	-0.7167785642	 0.107833
H	 2.4137196336	-0.2309536434	-2.4363104339	 0.10941
H	 2.1048046154	 1.3087708697	-1.6040020881	 0.10754
H	 3.8270505802	-0.9875529889	-0.4989718491	 0.111758
H	 4.0604648808	 0.7393982429	-0.1658337238	 0.108028
H	 1.9487904734	 0.7813012249	 1.1855908381	 0.117125
H	 2.20332256	-0.9602467688	 1.4197499379	 0.117594
45.0927	61.3403	111.2516	141.2823	143.9498	278.7181	312.6581	379.8135	500.2497	602.8713	664.805	736.3373	790.5824	801.199	871.0776	898.6808	936.0951	962.1637	964.3688	1024.6341	1042.4377	1056.945	1087.1728	1103.6665	1132.1459	1205.511	1239.1335	1246.754	1259.2896	1273.3955	1280.7463	1302.0579	1378.234	1407.5593	1478.8942	1487.1977	1509.3305	1736.4691	1868.3211	3049.4202	3054.026	3066.1591	3070.3809	3083.8614	3109.1195	3120.4354	3134.7609	3514.1178
N=C(OC=O)C1CCC1	[NH][C](OC=O)C1CCC1	
InChI=1S/C6H9NO2/c7-6(9-4-8)5-2-1-3-5/h4-5,7H,1-3H2	InChI=1S/C6H9NO2/c7-6(9-4-8)5-2-1-3-5/h4-5,7H,1-3H2
