23
gdb 113803	3.82066	0.78291	0.7009	1.3587	87.57	-0.2441	0.079	0.323	1680.6271	0.204756	-388.256879	-388.246674	-388.24573	-388.292936	37.703	
C	-0.0324316683	 1.5946390436	-0.1212804045	-0.403287
C	-0.0123533017	 0.0867576858	 0.0047616251	-0.003905
C	 1.2556355941	-0.7002698459	-0.2249527795	-0.30707
C	 0.6479088824	-0.6397084242	 1.1603659692	 0.001012
C	 1.3351721699	 0.0833423248	 2.2780893867	-0.020804
C	 0.7765180425	 0.0615847016	 3.6817838257	-0.299085
C	 2.083341911	-0.6322963264	 3.3857582385	 0.006218
C	 2.1930663374	-2.1316822824	 3.4573752771	-0.096578
O	 2.4313301014	-2.4871818807	 4.8151979525	-0.421686
H	 0.9154434174	 2.0457395751	 0.1860329296	 0.115759
H	-0.2098093232	 1.8920145099	-1.1608397726	 0.114705
H	-0.8249655703	 2.0382407203	 0.491798099	 0.117747
H	-0.9219705003	-0.387029713	-0.3569460211	 0.080183
H	 1.2122248865	-1.6312034746	-0.7803279919	 0.104681
H	 2.1664747446	-0.1312262571	-0.3884388092	 0.106148
H	 0.1242051035	-1.5382392944	 1.4743262707	 0.075842
H	 1.7948349861	 1.0202805209	 1.9775188172	 0.077668
H	 0.7866315337	 0.9720860959	 4.2706868785	 0.108127
H	-0.0870640491	-0.5720790231	 3.8613467552	 0.109402
H	 2.9794538116	-0.1323173994	 3.7438339701	 0.086475
H	 1.2709028147	-2.6033030054	 3.0851392851	 0.079816
H	 3.0167865309	-2.4766889804	 2.8115505121	 0.085998
H	 2.5861320452	-3.4358714209	 4.8499787864	 0.282634
32.2259	79.7036	107.0879	161.5652	198.0973	215.6371	260.2013	299.1195	333.7212	383.3745	426.602	474.6988	593.1524	750.0777	788.4548	805.1763	851.5192	868.1849	897.1633	915.3297	923.2439	996.5463	1011.0813	1044.9604	1055.7297	1066.0486	1068.9955	1076.2263	1109.7697	1134.223	1151.0416	1176.2109	1196.8266	1204.2676	1227.5368	1256.5123	1261.6559	1285.5555	1319.8154	1391.2886	1398.5394	1421.0474	1452.2695	1472.172	1489.1373	1494.0006	1498.085	1509.213	1518.8957	2966.6647	2997.6836	3029.5331	3087.1042	3101.1629	3120.7305	3125.2713	3128.7516	3136.4391	3141.8124	3151.7732	3204.8981	3210.3844	3823.3161
CC1CC1C1CC1CO	C[C@H]1C[C@H]1[C@H]1C[C@H]1CO	
InChI=1S/C8H14O/c1-5-2-7(5)8-3-6(8)4-9/h5-9H,2-4H2,1H3	InChI=1S/C8H14O/c1-5-2-7(5)8-3-6(8)4-9/h5-9H,2-4H2,1H3/t5-,6-,7+,8-/m0/s1
