16
gdb 74666	3.66526	1.52788	1.45766	2.2984	68.3	-0.2164	0.0618	0.2782	933.2333	0.12745	-434.034576	-434.027865	-434.026921	-434.06544	27.452	
N	 0.0524425496	 1.3087694713	 0.027840555	-0.581777
C	-0.0594767664	-0.0530725619	 0.0004604575	 0.493879
N	-1.1440626867	-0.7299518325	 0.0373630695	-0.345529
C	-0.7307974313	-2.1157046685	-0.0090716685	-0.032773
C	-0.6714506494	-2.8148241762	-1.3950120974	-0.0479
N	 0.0553533578	-1.9047177038	-2.2997444318	-0.32827
C	 0.8277879758	-2.7755311445	-1.3888478656	-0.082467
C	 0.8347295616	-2.0869789474	-0.0168691169	 0.068541
O	 1.1547029256	-0.6930925662	 0.0163390824	-0.25823
H	 0.905658636	 1.6715033619	-0.3682245491	 0.262709
H	-0.7850443784	 1.7901729679	-0.260340652	 0.267425
H	-1.2059114535	-2.7350158792	 0.7559259839	 0.075235
H	-1.3413583215	-3.5715825858	-1.7845149805	 0.0947
H	 0.0758170428	-2.3437428076	-3.2189953346	 0.233114
H	 1.5513096804	-3.4853459613	-1.7706646319	 0.092274
H	 1.3823723576	-2.6093239961	 0.7683193699	 0.089068
137.1526	209.6043	334.9438	354.4526	401.0007	505.5182	552.1596	613.4838	660.3783	701.7677	758.1181	764.0819	815.443	871.2685	875.1646	901.1598	923.3202	957.946	970.0062	1009.4196	1045.9979	1060.9214	1100.5115	1119.8532	1169.8938	1191.1304	1230.1655	1253.5882	1289.2792	1322.6258	1351.0653	1379.0475	1418.8195	1615.1141	1737.8221	3074.2416	3108.4263	3182.7295	3195.9803	3484.9875	3591.6499	3704.0071
NC1=NC2C3NC3C2O1	NC1=N[C@H]2[C@H]3N[C@H]3[C@H]2O1	
InChI=1S/C5H7N3O/c6-5-8-3-1-2(7-1)4(3)9-5/h1-4,7H,(H2,6,8)	InChI=1S/C5H7N3O/c6-5-8-3-1-2(7-1)4(3)9-5/h1-4,7H,(H2,6,8)/t1-,2+,3-,4+/m0/s1
