21
gdb 52791	2.74817	0.9926	0.84113	1.3705	89.56	-0.2252	0.0557	0.2809	1482.8353	0.178239	-387.062476	-387.051294	-387.05035	-387.099629	40.102	
C	 0.0556284098	 1.4675237859	 0.0197590443	-0.502321
C	 0.0184040634	 0.0117278967	 0.0152310434	 0.105058
C	-0.0157618117	-1.1934717493	 0.0134814646	 0.000172
C	-0.0084338477	-2.63464254	-0.012407796	 0.100398
C	 1.1612493427	-3.2442093042	-0.7744183229	-0.455853
C	-0.5133980864	-3.3689111891	 1.2378505993	-0.3852
C	-1.3479547962	-3.3660746261	-0.0154856313	 0.374054
C	-2.651515924	-2.6047275363	-0.0694364223	-0.447642
O	-1.3483712494	-4.5401684714	-0.7884929738	-0.463866
H	 0.9585715324	 1.8414088571	-0.4759421212	 0.147403
H	-0.8073738054	 1.8933409512	-0.5047192295	 0.145094
H	 0.0521464763	 1.866420989	 1.0405637653	 0.144506
H	 2.1072655586	-2.9643704307	-0.3007463824	 0.117336
H	 1.0812276528	-4.3314216244	-0.8002121073	 0.12888
H	 1.179046329	-2.8796587184	-1.8059355994	 0.124043
H	 0.0007355632	-4.2904816571	 1.4903293985	 0.111594
H	-0.8337452253	-2.7690110612	 2.0822665801	 0.115178
H	-2.5840043021	-1.6611812072	 0.4753624569	 0.130496
H	-2.9197988479	-2.3871482143	-1.1079415049	 0.127139
H	-3.4594661572	-3.2003859464	 0.3734423581	 0.102037
H	-1.9222910048	-5.1777945538	-0.3495579395	 0.281493
18.071	87.9195	95.3134	179.9476	191.124	209.3374	243.002	248.0295	292.6587	305.5214	366.4224	376.77	429.4972	453.316	536.0078	566.9327	622.9335	709.5333	825.7563	891.4297	926.5257	947.6702	998.139	1038.6648	1052.6102	1053.9446	1067.041	1089.9652	1109.2797	1167.2862	1234.0876	1298.2408	1328.9334	1383.5096	1407.3525	1415.586	1417.3552	1471.7124	1478.2194	1479.9501	1484.0666	1488.4811	1496.0613	1504.8386	2362.3038	3023.1896	3027.1506	3044.1941	3081.2175	3084.0416	3093.0715	3106.0113	3129.4729	3135.6205	3145.2811	3224.3843	3793.0364
CC#CC1(C)CC1(C)O	CC#C[C@@]1(C)C[C@]1(C)O	
InChI=1S/C8H12O/c1-4-5-7(2)6-8(7,3)9/h9H,6H2,1-3H3	InChI=1S/C8H12O/c1-4-5-7(2)6-8(7,3)9/h9H,6H2,1-3H3/t7-,8-/m0/s1
