18
gdb 5940	4.45071	1.17503	1.16449	1.9488	69.3	-0.2626	0.0386	0.3013	1092.5894	0.150409	-384.908121	-384.89864	-384.897696	-384.941699	35.263	
C	-0.1126265452	 1.5888428032	 0.0102073224	-0.418853
C	-0.0805391572	 0.0585410466	-0.0469704542	 0.307882
O	 0.5127895	-0.4762038152	 1.1382070359	-0.477312
C	-1.5009258954	-0.5294815757	-0.0389953742	-0.055917
O	-2.195347823	-0.193381272	 1.1421962436	-0.428183
C	 0.6896969814	-0.4566250231	-1.2920704318	-0.375874
C	 2.1041947477	-0.1086644254	-1.2407588973	 0.27275
C	 3.2660413525	 0.1853899197	-1.1354462171	-0.429674
H	 0.8994873154	 1.9945416599	 0.1008094082	 0.118129
H	-0.5627368808	 2.0072180307	-0.89626379	 0.113082
H	-0.7066502144	 1.90818611	 0.8684342425	 0.134589
H	 1.4258411151	-0.1676552704	 1.1759662264	 0.287025
H	-2.0787889225	-0.1295162185	-0.8785982097	 0.104684
H	-1.4281718013	-1.6220024406	-0.1626400879	 0.087555
H	-1.6014258313	-0.427437509	 1.8663912889	 0.292852
H	 0.587780266	-1.5475568098	-1.3386820276	 0.135577
H	 0.2340695905	-0.050219815	-2.2033405236	 0.131057
H	 4.2957641723	 0.4391478546	-1.0778507045	 0.20063
73.8618	125.4229	141.7258	232.3545	242.9491	312.5384	325.9401	348.287	363.4213	395.3118	423.4694	457.4426	479.9682	621.6829	648.1642	660.6503	779.5606	882.5028	902.7727	949.3563	971.7408	990.3218	1083.229	1125.2092	1148.0252	1189.5348	1220.301	1288.2185	1310.4882	1379.9113	1397.3532	1413.6125	1441.607	1459.7597	1486.9484	1500.022	1501.5783	2230.7134	2976.1165	3027.354	3041.5961	3066.0436	3078.6566	3107.7081	3139.9028	3503.7649	3784.4688	3790.1418
CC(O)(CO)CC#C	C[C@@](O)(CO)CC#C	
InChI=1S/C6H10O2/c1-3-4-6(2,8)5-7/h1,7-8H,4-5H2,2H3	InChI=1S/C6H10O2/c1-3-4-6(2,8)5-7/h1,7-8H,4-5H2,2H3/t6-/m0/s1
