14
gdb 19812	4.2478	2.13345	1.87122	3.9656	60.68	-0.2444	0.0061	0.2505	723.0815	0.108965	-378.671373	-378.665425	-378.664481	-378.701284	23.598	
O	-0.0149072035	-0.0058906989	 0.0011218573	-0.347075
C	 0.0008726324	 1.1931169119	-0.008950409	 0.393418
N	-1.0140150781	 2.1432324488	 0.0200177512	-0.316527
C	-0.1213892328	 3.2972842147	 0.1053072374	-0.002403
C	 0.4402796837	 3.6950147606	 1.4918138481	-0.038442
C	 0.6410993572	 2.542624437	 2.3869307369	-0.254555
N	 1.6453612809	 2.7753421468	 1.3309030483	-0.141749
C	 1.0676763926	 2.3257606314	-0.010809434	-0.131373
H	-1.9837936193	 2.0314637378	 0.285072845	 0.250177
H	-0.31366333	 4.1051094736	-0.5987428727	 0.099993
H	 0.5693120949	 4.7228582946	 1.8148775554	 0.103894
H	 1.039573037	 2.7538618936	 3.3744971294	 0.13166
H	-0.0116244711	 1.6760474541	 2.3433211844	 0.139503
H	 1.8143886261	 2.3519938841	-0.8002860678	 0.113479
140.364	240.6263	378.1899	454.6762	484.8603	571.9385	676.806	695.0563	726.7236	787.7345	807.0586	895.2702	912.1054	934.9416	975.8652	996.2489	1045.21	1063.2807	1109.9643	1134.3	1135.811	1170.3113	1207.0227	1240.4922	1255.6995	1315.8747	1354.5688	1363.2646	1503.7492	1889.0229	3123.6952	3128.0816	3155.0988	3166.7504	3208.4383	3580.9091
O=C1NC2C3CN3C12	O=C1N[C@H]2[C@H]3CN3[C@@H]12	
InChI=1S/C5H6N2O/c8-5-4-3(6-5)2-1-7(2)4/h2-4H,1H2,(H,6,8)	InChI=1S/C5H6N2O/c8-5-4-3(6-5)2-1-7(2)4/h2-4H,1H2,(H,6,8)/t2-,3+,4-,7?/m1/s1
