18
gdb 78975	3.08055	2.00778	1.75985	1.8474	72.19	-0.2432	0.0756	0.3188	842.3945	0.151391	-401.909832	-401.903717	-401.902773	-401.939894	26.632	
O	 0.1043646284	 1.402591027	 0.1473148559	-0.458669
C	 0.0246021436	 0.0001799918	 0.041357116	 0.181839
C	-1.3790981887	-0.5487866058	-0.2874709694	-0.101826
C	-1.6036133078	 0.0131655527	-1.7011545972	-0.077206
C	-1.3446753005	-1.2988373228	-2.326593284	-0.041775
C	-1.1026091572	-1.9714310763	-0.9637445002	-0.074608
C	 0.4300493644	-2.1221948881	-0.9566490289	-0.22343
C	 0.6816160921	-0.6269630693	-1.209488257	-0.055819
N	-0.2765148331	-0.2668843371	-2.3347352461	-0.140026
H	-0.1361707219	 1.7753568906	-0.7088467194	 0.291285
H	 0.4474542111	-0.3973535974	 0.9683742541	 0.085291
H	-2.1629910257	-0.4634449468	 0.4611357828	 0.074561
H	-2.1861236916	 0.865759627	-2.0320313838	 0.092381
H	-1.6745758058	-1.7346040487	-3.2630271354	 0.091468
H	-1.7243427869	-2.8125637367	-0.6652012407	 0.073712
H	 0.8561759155	-2.4676732271	-0.0101610216	 0.100891
H	 0.7841142919	-2.7690533375	-1.7646750951	 0.104934
H	 1.6941410221	-0.3026259755	-1.4442932301	 0.076998
196.7373	301.3501	357.6451	419.4752	507.0195	563.0444	680.4757	726.5775	764.4937	785.9073	821.158	836.501	861.4839	889.0405	903.046	923.747	941.8655	954.6566	975.6286	977.0615	1000.9236	1034.3371	1062.2227	1091.986	1127.6403	1151.0997	1186.1367	1195.5281	1203.7424	1219.7918	1248.3106	1268.5839	1279.4783	1282.6866	1308.6683	1312.953	1357.7016	1435.4321	1493.9564	3053.6571	3077.0129	3106.0026	3134.5026	3140.919	3151.019	3164.6733	3179.5166	3797.3638
OC1C2C3C4C2CC1N34	O[C@H]1[C@H]2[C@@H]3[C@@H]4[C@H]2C[C@H]1N34	
InChI=1S/C7H9NO/c9-7-3-1-2-4(7)6-5(2)8(3)6/h2-7,9H,1H2	InChI=1S/C7H9NO/c9-7-3-1-2-4(7)6-5(2)8(3)6/h2-7,9H,1H2/t2-,3+,4+,5-,6+,7+,8?/m0/s1
