15
gdb 25823	3.97995	1.13223	0.88247	5.1739	74.41	-0.1993	-0.0146	0.1846	1234.9108	0.113578	-454.012265	-454.003863	-454.002918	-454.045267	31.393	
N	-0.1967671409	 1.3434561719	 0.0656219822	-0.544676
C	 0.02440277	-0.0113946417	 0.0369993529	 0.290284
O	 1.1413365159	-0.5034143314	 0.0522853831	-0.373243
C	-1.1798665825	-0.8427314163	 0.0160816575	 0.265155
C	-1.3446563241	-2.1939448037	 0.0037391677	-0.2153
C	-2.7457407149	-2.4520942886	-0.015223604	-0.261121
C	-3.3482123456	-1.2205991122	-0.0162409611	 0.37378
N	-4.6630399629	-0.8107853177	-0.1047875061	-0.595261
O	-2.4291800547	-0.2342282577	 0.0011103641	-0.224366
H	 0.6067811862	 1.9312210346	-0.0838276975	 0.258198
H	-1.1059256591	 1.7136814269	-0.153337673	 0.259383
H	-0.5392846868	-2.9107599066	 0.012282566	 0.136824
H	-3.2427715277	-3.4084738262	-0.0251283075	 0.106332
H	-5.3262063539	-1.5153819065	 0.1835998692	 0.263239
H	-4.8431723891	 0.0777401253	 0.3432476264	 0.260772
86.6086	147.4469	162.8551	222.8759	295.1647	306.8127	370.9353	403.6099	515.1815	528.0691	614.8141	619.3712	664.2689	696.6137	731.6707	759.9414	769.9287	889.1801	956.2673	1005.5863	1029.3047	1083.3446	1093.4028	1173.9668	1235.8085	1311.8774	1380.6177	1447.4246	1577.7466	1607.6606	1636.9333	1667.407	1768.0213	3261.979	3276.977	3558.69	3600.2601	3662.2566	3734.0153
NC(=O)C1=CC=C(N)O1	NC(=O)c1ccc(N)o1	
InChI=1S/C5H6N2O2/c6-4-2-1-3(9-4)5(7)8/h1-2H,6H2,(H2,7,8)	InChI=1S/C5H6N2O2/c6-4-2-1-3(9-4)5(7)8/h1-2H,6H2,(H2,7,8)
