29
gdb 58183	2.10313	1.1819	0.94363	0.0872	98.77	-0.2889	0.0749	0.3638	1489.2097	0.272881	-354.766157	-354.754233	-354.753289	-354.802108	46.386	
C	 0.0614139597	 1.8176418886	-0.7449877511	-0.397839
C	 0.5635736992	 0.3893994976	-0.4426764891	 0.051825
C	 1.6257040738	 0.0449642261	-1.5025056348	-0.401508
C	 1.0131521334	 0.242063027	 1.0497190359	 0.012522
C	-0.1524453021	 0.6649340707	 1.9696509729	-0.41435
C	 1.6052269361	-1.1627793045	 1.4721900762	 0.273303
C	 3.0795944663	-1.3034629797	 1.0292487666	-0.412318
C	 1.6284943813	-1.307138535	 3.0126958182	-0.405221
C	 0.7720599054	-2.3313164883	 0.9089981354	-0.412693
H	 0.8231288632	 2.5644768591	-0.4883851393	 0.110052
H	-0.1520998575	 1.9233157905	-1.8134469761	 0.106016
H	-0.853715054	 2.0744591373	-0.2087947343	 0.115246
H	-0.286080759	-0.2905772643	-0.596034576	 0.072206
H	 2.5444538441	 0.623593149	-1.3518448819	 0.111694
H	 1.8918931486	-1.0126485375	-1.5201538035	 0.118644
H	 1.2456464114	 0.2930864608	-2.4993442853	 0.104612
H	 1.8240912732	 0.9701401578	 1.2074805761	 0.061157
H	 0.1383437605	 0.6743676148	 3.0205200499	 0.114517
H	-0.4995591971	 1.6717218523	 1.7351001028	 0.112723
H	-1.010102077	-0.0106033007	 1.8663379331	 0.10947
H	 3.6918823127	-0.5116056071	 1.4757056584	 0.105283
H	 3.4845859975	-2.2620024553	 1.3731046572	 0.10279
H	 3.2199100215	-1.2606725813	-0.0493959082	 0.112442
H	 0.6286076828	-1.4000027022	 3.4437671411	 0.111042
H	 2.1850590954	-2.209713891	 3.2869027015	 0.102822
H	 2.1275227047	-0.4567652392	 3.4908463753	 0.106898
H	 0.8163062844	-2.3907509137	-0.1814510981	 0.11352
H	 1.141634296	-3.2844778639	 1.3030615467	 0.104925
H	-0.2817595546	-2.2476377081	 1.1960198403	 0.110219
61.5744	93.7039	182.4851	195.4089	200.9412	239.4032	252.8905	265.0536	296.9495	319.512	325.8235	354.3474	366.9311	391.1757	426.6526	451.6814	472.2049	498.7857	539.7302	713.1557	796.1773	866.545	921.1607	926.9181	931.4851	936.759	960.186	968.416	981.9257	1015.8661	1027.995	1052.0055	1099.7388	1131.9765	1176.8276	1185.6446	1228.5685	1238.4336	1256.3844	1305.3	1340.0616	1354.8614	1371.9297	1395.4662	1399.4118	1403.2316	1412.4813	1423.5	1436.575	1480.4772	1483.3559	1488.7582	1489.2668	1496.3994	1498.9357	1503.0614	1510.0719	1512.5004	1521.0786	1526.6478	1539.816	2978.4515	3008.7164	3026.4873	3028.1384	3029.7503	3034.2811	3036.52	3042.9462	3083.503	3085.6184	3088.3426	3094.2183	3094.9629	3109.658	3111.6834	3117.4615	3127.9891	3129.2995	3143.9968	3164.1785
CC(C)C(C)C(C)(C)C	CC(C)[C@@H](C)C(C)(C)C	
InChI=1S/C9H20/c1-7(2)8(3)9(4,5)6/h7-8H,1-6H3	InChI=1S/C9H20/c1-7(2)8(3)9(4,5)6/h7-8H,1-6H3/t8-/m1/s1
