15
gdb 21139	3.53339	1.96386	1.28275	0.9754	66.34	-0.203	0.0055	0.2085	925.5083	0.118476	-395.981451	-395.973122	-395.972178	-396.015807	27.587	
C	-0.0084116772	 1.4381178371	-0.0767574792	-0.32749
N	-0.0030971452	-0.0123458529	-0.0446390332	-0.386702
C	-1.089960432	-0.6410318663	 0.0425970185	 0.51702
O	-2.384928916	-0.1158862223	 0.13325263	-0.211987
C	-3.2068708906	-1.1949016369	 0.2403913314	 0.076379
N	-2.6135582258	-2.3282241239	 0.2158440505	-0.223906
N	-1.2817832176	-2.0053756529	 0.0729418858	-0.090791
C	-0.2490011608	-3.0101658625	 0.0742684766	-0.328739
H	 0.8678748524	 1.8121830117	 0.4622334357	 0.121578
H	 0.0707174782	 1.8031373356	-1.1097562934	 0.119907
H	-0.904973237	 1.888015054	 0.369131057	 0.115691
H	-4.2661183392	-1.0212125082	 0.3315243408	 0.16534
H	-0.4497993859	-3.7620747584	-0.693804152	 0.142669
H	 0.6900283353	-2.4999678389	-0.1439953095	 0.17273
H	-0.1758793485	-3.5047740151	 1.0489731809	 0.138301
40.4683	46.1488	115.2039	184.3635	198.854	242.5384	310.8896	549.223	622.0074	644.7126	707.1523	762.363	809.3419	938.3673	994.2267	1016.6213	1089.4192	1131.7501	1151.6562	1158.6117	1186.0655	1286.8733	1310.0651	1419.8698	1445.8632	1452.7396	1485.8689	1493.8871	1505.1137	1515.5183	1644.7317	1821.9805	3000.4408	3036.5416	3051.9852	3083.478	3100.5309	3156.9315	3292.5755
CN=C1OC=NN1C	CN=c1ocnn1C	
InChI=1S/C4H7N3O/c1-5-4-7(2)6-3-8-4/h3H,1-2H3	InChI=1S/C4H7N3O/c1-5-4-7(2)6-3-8-4/h3H,1-2H3
