13
gdb 75680	2.96128	1.3436	1.13261	2.9016	64.77	-0.2783	-0.0504	0.2279	1045.9306	0.088201	-452.719979	-452.712071	-452.711127	-452.75265	28.587	
O	 0.0420571791	 1.5230132197	 0.1231770251	-0.40405
C	-0.0290915329	 0.1377273829	 0.0480161416	-0.087178
C	 0.1366957752	-0.6208898158	 1.3892159754	 0.399869
O	 0.9615183652	-0.6770058447	 2.2378650496	-0.266719
N	-1.1044223236	-1.3823592141	 1.2555159321	-0.188887
C	-2.1651926064	-0.3348462812	 1.2335759388	-0.274443
C	-1.4098037148	-0.5564485565	-0.015117047	 0.162752
C	-1.9612209146	-1.1537040484	-1.1901159087	 0.205832
N	-2.3894941697	-1.5889346143	-2.172503028	-0.321763
H	 0.1900723211	 1.8862335734	-0.7560155851	 0.308247
H	 0.6483075836	-0.293694945	-0.7003853482	 0.134885
H	-3.1628951627	-0.7528679908	 1.3030762252	 0.167237
H	-2.0042819396	 0.5895721647	 1.7816174791	 0.164216
89.5733	142.933	190.6853	217.8574	273.7872	285.3024	438.0529	490.2387	518.8934	559.6265	645.7208	681.0289	731.239	769.8581	842.3989	944.8913	971.9828	1030.0955	1115.8513	1148.539	1157.3481	1180.5173	1220.4428	1252.692	1365.9543	1437.1449	1500.7397	1945.1314	2354.7948	3036.4268	3127.0596	3228.8036	3820.3102
OC1C(=O)N2CC12C#N	O[C@H]1C(=O)N2C[C@@]12C#N	
InChI=1S/C5H4N2O2/c6-1-5-2-7(5)4(9)3(5)8/h3,8H,2H2	InChI=1S/C5H4N2O2/c6-1-5-2-7(5)4(9)3(5)8/h3,8H,2H2/t3-,5-,7?/m0/s1
