21
gdb 81034	2.40323	1.79138	1.31135	1.6321	77.58	-0.2399	0.0829	0.3228	1059.436	0.182882	-424.213148	-424.20482	-424.203876	-424.245257	33.476	
C	-0.1256578027	 1.5298785769	-0.0994558818	-0.432816
C	 0.0186213835	 0.0155118015	-0.0078852413	-0.007482
C	 1.1882755227	-0.618466803	-0.8218055979	 0.104332
C	 2.0972472666	-0.4059005417	 0.4189315742	-0.328816
C	 0.7795798552	-0.5727208526	 1.2333270537	 0.418013
C	 0.6226068143	 0.0011327617	 2.6200374226	-0.474757
O	 0.4259718355	-1.9689436701	 1.2930849002	-0.314003
C	 0.9398908606	-2.7100190966	 0.2084974111	 0.018552
O	 0.9012504931	-2.0044818354	-1.0144971625	-0.277783
H	 0.8174426768	 2.0591370957	 0.0708806595	 0.114323
H	-0.4870969775	 1.8186228001	-1.0925592547	 0.120679
H	-0.8483872804	 1.9009274218	 0.6346256296	 0.122376
H	-0.9415126925	-0.4761171732	-0.185647088	 0.076281
H	 1.4691755974	-0.205895772	-1.7929090514	 0.07583
H	 2.9304560506	-1.0871716813	 0.5998077297	 0.106639
H	 2.4632809232	 0.6201149537	 0.4705624436	 0.108804
H	 0.8082109683	 1.0787882675	 2.6174766637	 0.115355
H	-0.3909323344	-0.1776919345	 2.9926820796	 0.128072
H	 1.3259132144	-0.471696663	 3.3125014521	 0.123335
H	 1.9748925818	-3.0199238678	 0.4247712255	 0.086181
H	 0.3163568435	-3.6009312278	 0.0944841527	 0.116885
195.54	204.4762	210.4999	230.3787	257.0713	321.5451	332.5345	395.8241	467.3339	471.4676	507.9598	616.9735	693.1365	810.4294	827.7977	845.1593	872.2063	895.3083	943.8148	985.312	1009.9481	1039.9438	1066.7794	1078.8029	1113.5749	1138.0866	1158.1888	1163.2667	1198.0858	1222.3565	1243.5994	1260.4472	1267.1214	1317.7854	1331.4354	1372.2895	1409.9966	1413.9208	1439.9916	1480.2794	1488.1309	1492.0772	1498.6521	1505.1456	1544.3952	2962.0702	3031.608	3039.9941	3071.7843	3082.7486	3087.8459	3094.5647	3095.0083	3103.5417	3109.8149	3119.5459	3138.5113
CC1C2CC1(C)OCO2	C[C@H]1[C@H]2C[C@]1(C)OCO2	
InChI=1S/C7H12O2/c1-5-6-3-7(5,2)9-4-8-6/h5-6H,3-4H2,1-2H3	InChI=1S/C7H12O2/c1-5-6-3-7(5,2)9-4-8-6/h5-6H,3-4H2,1-2H3/t5-,6+,7-/m0/s1
