18
gdb 94126	1.86892	1.51884	1.28677	4.144	82.29	-0.2772	0.011	0.2882	1132.3664	0.146032	-364.78549	-364.776232	-364.775288	-364.819276	34.472	
C	-0.0851053653	 1.5879286292	-0.0775495505	-0.423617
C	 0.0418809666	 0.0793094509	-0.0008183233	 0.020964
C	 1.0388069362	-0.671859851	-0.9198808677	-0.239326
C	 1.3462073394	-1.6475652028	 0.2397137881	-0.24646
C	 0.7681602649	-0.5845085955	 1.2530558062	-0.051951
C	 1.8097870146	 0.2475558273	 1.8390043398	 0.311151
C	 2.6851487763	 0.9306082675	 2.2979917405	-0.446124
C	-0.1270675633	-1.1042920411	 2.2847359195	 0.237375
N	-0.8643342955	-1.5330019836	 3.0651827536	-0.344844
H	 0.88678336	 2.0743269026	 0.0429154414	 0.131947
H	-0.4964629619	 1.8795953916	-1.0498259006	 0.122514
H	-0.7555668925	 1.9708657155	 0.6986693994	 0.132017
H	-0.9438559095	-0.390137763	-0.0718056118	 0.102837
H	 0.6403025574	-1.0978602169	-1.842005026	 0.110752
H	 1.9040298591	-0.048596057	-1.1620535543	 0.118976
H	 0.7111122825	-2.5351650201	 0.2202835082	 0.130092
H	 2.3811327717	-1.9410321416	 0.413756452	 0.126757
H	 3.4538378693	 1.5309888379	 2.7189389355	 0.20694
95.0771	128.5308	144.2495	155.9288	216.6727	235.141	300.6023	386.5411	465.7304	503.7459	527.6182	584.0959	589.1653	634.8308	656.5073	667.5962	791.1512	892.6396	901.4355	943.8386	961.1669	973.4786	1054.3659	1098.3421	1136.9097	1173.7031	1203.968	1233.8606	1263.3019	1276.2458	1313.6094	1373.2355	1413.8111	1479.8937	1490.1003	1494.5204	1498.2405	2238.0768	2353.1844	3036.7784	3062.8475	3069.1496	3084.1406	3102.7719	3118.4091	3124.7248	3150.8338	3499.7251
CC1CCC1(C#C)C#N	C[C@H]1CC[C@]1(C#C)C#N	
InChI=1S/C8H9N/c1-3-8(6-9)5-4-7(8)2/h1,7H,4-5H2,2H3	InChI=1S/C8H9N/c1-3-8(6-9)5-4-7(8)2/h1,7H,4-5H2,2H3/t7-,8+/m0/s1
