18
gdb 9902	4.91131	0.90577	0.81828	2.027	78.36	-0.2436	0.0358	0.2795	1446.7985	0.151258	-347.764641	-347.755334	-347.75439	-347.799685	32.709	
C	-0.3164193317	 1.5024413657	-0.0800811769	-0.365258
C	 0.2738773231	 0.0902734143	 0.0870306682	-0.319954
C	 0.8911154247	-0.4200565747	-1.1322936333	 0.131011
C	 1.3950441839	-0.8366134588	-2.1446107546	 0.004389
C	 1.9903467368	-1.2981367317	-3.3776442691	 0.227087
C	 1.9666835726	-0.3163247776	-4.5312948477	-0.465186
C	 3.0212241154	-2.356335988	-3.3277777931	-0.210562
O	 1.6937452631	-2.6643870053	-3.7387586526	-0.260268
H	 0.4601329934	 2.2170197995	-0.3660069325	 0.127872
H	-1.0864085924	 1.5121651562	-0.8561280189	 0.130166
H	-0.766873393	 1.8397146363	 0.8580061787	 0.116165
H	 1.014996293	 0.0949511401	 0.8967464879	 0.130151
H	-0.5155279754	-0.6024309904	 0.4058326642	 0.134863
H	 2.5065168569	 0.5984823788	-4.2686302826	 0.128908
H	 2.4287357794	-0.7629249571	-5.415166753	 0.126275
H	 0.9358720224	-0.043723678	-4.7756727493	 0.135264
H	 3.7791552362	-2.3922356416	-4.1104050364	 0.111496
H	 3.3221247015	-2.7632101978	-2.364055229	 0.117582
29.1237	81.6561	119.78	183.3957	198.4341	231.5269	331.2591	336.3015	373.2022	483.0526	528.4784	550.4927	619.9408	784.1079	786.2976	852.9844	922.7898	946.2892	1028.2218	1063.4613	1093.3022	1098.5171	1105.0448	1137.6433	1166.8238	1286.2352	1287.7738	1348.3625	1372.3904	1409.4933	1410.7087	1474.0248	1478.0172	1494.7731	1495.3809	1505.5642	1522.1675	2363.0226	3020.6675	3043.8926	3045.4783	3048.3412	3078.2635	3115.0952	3119.1296	3124.7161	3128.4949	3170.3123
CCC#CC1(C)CO1	CCC#C[C@@]1(C)CO1	
InChI=1S/C7H10O/c1-3-4-5-7(2)6-8-7/h3,6H2,1-2H3	InChI=1S/C7H10O/c1-3-4-5-7(2)6-8-7/h3,6H2,1-2H3/t7-/m0/s1
