20
gdb 40058	3.15128	1.53815	1.44217	0.9639	77.69	-0.2332	0.0813	0.3145	1000.0867	0.174522	-403.131941	-403.1249	-403.123956	-403.16323	29.245	
C	 0.0622017636	 1.5129385531	-0.0241631033	-0.308305
N	 1.2837860816	 0.6795058816	 0.0351340454	-0.375764
C	-0.0398244411	 0.0416497922	 0.0157187548	 0.393067
C	-0.4741307762	-0.804881429	 1.2285034672	-0.294918
C	-1.1665278074	-2.0109565023	 0.5428669951	-0.050564
C	-2.4469516228	-1.4926758043	-0.1320587529	-0.069713
O	-1.9645735936	-0.6821790539	-1.223122005	-0.276582
C	-0.5315073214	-0.7698384364	-1.1812854626	 0.016394
C	-0.2817022664	-2.2090471417	-0.7106690027	-0.241069
H	-0.1319683493	 2.0959314133	 0.8724174182	 0.116376
H	-0.1834344864	 2.0201240217	-0.9542570417	 0.114167
H	 1.7128726073	 0.6342352146	-0.8875679143	 0.226328
H	 0.4040614509	-1.1148827995	 1.8020825617	 0.112364
H	-1.1481571698	-0.267833239	 1.9028337555	 0.101712
H	-1.319841656	-2.8791559955	 1.184376438	 0.06995
H	-3.0695504786	-2.3045416414	-0.5305898014	 0.095328
H	-3.0620710572	-0.8796096567	 0.5378090817	 0.098051
H	-0.1390731335	-0.4587187668	-2.1516401324	 0.064318
H	 0.7655232419	-2.4146702397	-0.4748870862	 0.106895
H	-0.6631734255	-2.9570090204	-1.4099446551	 0.101967
98.9197	230.7183	300.2033	315.7255	395.4615	445.3772	482.6239	525.5326	666.3942	793.6811	819.4205	839.4253	847.8186	908.5713	916.4319	920.963	945.2778	953.7081	958.5647	972.0467	979.5504	993.4976	1057.6546	1084.3299	1090.4388	1128.953	1135.0382	1157.4632	1185.4915	1230.575	1255.8529	1264.9051	1270.7346	1296.8716	1300.3526	1314.8715	1334.9369	1379.5826	1415.5767	1482.8888	1493.889	1515.9581	1528.4137	3009.1158	3048.5187	3052.2005	3065.1848	3097.8365	3099.3724	3102.2011	3114.7842	3122.8393	3185.9875	3473.4876
C1NC11CC2COC1C2	C1N[C@]21C[C@H]1CO[C@@H]2C1	
InChI=1S/C7H11NO/c1-5-2-7(4-8-7)6(1)9-3-5/h5-6,8H,1-4H2	InChI=1S/C7H11NO/c1-5-2-7(4-8-7)6(1)9-3-5/h5-6,8H,1-4H2/t5-,6+,7-/m0/s1
