18
gdb 107297	3.33566	1.34007	1.16823	3.233	71.32	-0.2355	0.0535	0.289	1089.3948	0.148264	-438.991575	-438.983788	-438.982844	-439.024072	30.118	
O	 0.0591624122	 1.3855270915	 0.265810004	-0.410518
C	 0.0551325009	 0.0020150693	-0.0493764458	-0.19146
C	-1.3288955332	-0.554093298	-0.1501911927	 0.309445
N	-2.105153164	-0.9174240788	 1.0662117749	-0.370562
C	-1.8847853355	-1.9349945345	 0.0160273509	-0.141779
C	-2.938066263	-1.6951880249	-1.0914907688	-0.093328
C	-4.2382167175	-0.9568689711	-0.6933476195	-0.085004
O	-3.6102402424	 0.3393117906	-0.8876730787	-0.288952
C	-2.3718173783	-0.2706539018	-1.2727670579	 0.075402
H	-0.5624991031	 1.5231461834	 0.9888266521	 0.293017
H	 0.5736731175	-0.0835929919	-1.0111212807	 0.114628
H	 0.6331015044	-0.5880922671	 0.684142899	 0.080542
H	-1.4244176817	-1.1059367061	 1.803380872	 0.227656
H	-1.3798747246	-2.8653151395	 0.2480623202	 0.097943
H	-2.9690525062	-2.4247156001	-1.8980980008	 0.084431
H	-5.0682133768	-1.0973238432	-1.3954762882	 0.097069
H	-4.579403128	-1.0960935461	 0.3355733464	 0.119284
H	-1.9550553907	 0.1212847384	-2.2044386363	 0.082187
84.2768	111.1089	233.9133	259.1216	321.0688	358.6158	376.7631	477.3776	584.8895	686.2839	703.4441	806.7987	829.8675	860.0343	896.8852	920.8452	938.1828	982.5212	988.7491	1000.0597	1038.1887	1050.4907	1061.9006	1069.769	1137.3449	1167.3804	1185.6147	1194.1747	1208.7592	1252.5001	1273.7106	1303.7622	1334.7736	1359.2343	1368.6686	1410.5407	1444.9014	1500.6178	1501.1948	2945.8989	3030.2971	3058.8286	3077.0977	3099.933	3136.266	3183.9524	3455.0973	3808.5991
OCC12NC1C1COC21	OC[C@]12N[C@H]1[C@H]1CO[C@@H]21	
InChI=1S/C6H9NO2/c8-2-6-4(7-6)3-1-9-5(3)6/h3-5,7-8H,1-2H2	InChI=1S/C6H9NO2/c8-2-6-4(7-6)3-1-9-5(3)6/h3-5,7-8H,1-2H2/t3-,4+,5-,6+/m1/s1
