16
gdb 5315	4.70144	1.63867	1.25617	3.0273	68.3	-0.194	0.0207	0.2147	949.8519	0.131337	-379.939075	-379.931369	-379.930424	-379.971298	27.692	
C	 0.0269722333	 1.3987663092	 0.0355853991	-0.332838
N	 0.3353233266	-0.0192540831	-0.0133408839	-0.166524
C	 0.0103731967	-0.7708102421	 1.193827177	-0.343817
C	 0.0837440406	-0.6203780132	-1.2250924406	 0.42447
C	-0.3166861326	-0.178736821	-2.4526231264	-0.224019
N	-0.2998634219	-1.251508036	-3.3427947761	-0.25034
C	 0.0797180003	-2.2559689658	-2.6356166306	 0.054434
O	 0.3390611018	-1.9582058595	-1.3257970346	-0.195967
H	 0.4241988721	 1.8170588032	 0.963876778	 0.128692
H	 0.50702687	 1.9077062551	-0.8046647464	 0.140818
H	-1.0555143051	 1.6049395649	-0.0045951906	 0.115187
H	-1.0719508717	-0.7913533268	 1.401756218	 0.114266
H	 0.3649230568	-1.796713033	 1.0945257968	 0.152294
H	 0.5171815829	-0.3084116546	 2.0452960377	 0.126767
H	-0.6125988479	 0.8098107449	-2.7584779306	 0.11287
H	 0.208377338	-3.2862026323	-2.9247165967	 0.143706
72.3245	149.8237	195.9325	206.4455	242.7354	357.4596	368.0637	499.1841	614.1462	659.5685	706.3521	772.4171	779.8743	922.886	947.3847	1006.6	1081.034	1099.1529	1125.9289	1129.3478	1177.8071	1204.086	1231.0924	1277.402	1339.7901	1397.8485	1445.639	1469.9927	1485.0801	1494.5338	1502.6065	1513.8241	1574.4346	1650.6005	2969.4086	2975.4391	3078.3387	3086.4264	3122.7876	3150.7152	3280.2752	3285.298
CN(C)C1=CN=CO1	CN(C)c1cnco1	
InChI=1S/C5H8N2O/c1-7(2)5-3-6-4-8-5/h3-4H,1-2H3	InChI=1S/C5H8N2O/c1-7(2)5-3-6-4-8-5/h3-4H,1-2H3
