17
gdb 32545	2.68053	1.50643	0.97194	5.3953	82.45	-0.1807	-0.0053	0.1754	1177.7976	0.138281	-418.066019	-418.057747	-418.056803	-418.098899	31.295	
C	 0.0055085557	 1.4088482916	 0.1546076288	-0.320489
N	-0.0820895497	-0.0001008146	-0.1170472964	-0.3448
C	 0.581619782	-0.6109771621	-1.1394773501	 0.190076
C	 1.1982539938	 0.0236801907	-2.1805941782	-0.120619
N	 1.8095085649	-0.7114224986	-3.1785551785	-0.310897
C	 1.8331324436	-2.0646643771	-3.1553053148	 0.019564
C	 1.2542864243	-2.7612640552	-2.1349850674	-0.253688
C	 0.5936493276	-2.0910037697	-1.0445856182	 0.343054
O	 0.0668585416	-2.6443673604	-0.0727399939	-0.432936
H	 1.0444441535	 1.7550793493	 0.2832083254	 0.11169
H	-0.4416387166	 1.9985127491	-0.6579393794	 0.120874
H	-0.5467860821	 1.6360765847	 1.0685975037	 0.13168
H	-0.3134506208	-0.6553800741	 0.6188045516	 0.254999
H	 1.2389897855	 1.0979697906	-2.2951398497	 0.114597
H	 2.2499213099	-0.2210028039	-3.93765872	 0.264919
H	 2.3377908411	-2.543022	-3.9859776566	 0.127042
H	 1.2886874457	-3.8432461703	-2.1251976563	 0.104934
84.9106	143.5268	182.3486	197.1043	304.8387	354.8961	441.7287	458.5476	489.1215	545.7167	567.6055	578.7567	601.5911	752.9432	769.9706	786.6637	844.7106	893.2597	931.196	1036.2299	1085.3141	1127.0639	1159.0538	1189.8373	1237.9281	1266.3846	1304.373	1394.624	1424.6178	1466.9273	1479.8555	1510.4625	1522.5336	1576.3657	1624.5012	1676.3165	1695.4445	2966.0977	3020.2152	3122.6508	3200.6623	3220.5484	3222.334	3568.6716	3670.0589
CNC1=CNC=CC1=O	CNc1c[nH]ccc1=O	
InChI=1S/C6H8N2O/c1-7-5-4-8-3-2-6(5)9/h2-4,7H,1H3,(H,8,9)	InChI=1S/C6H8N2O/c1-7-5-4-8-3-2-6(5)9/h2-4,7H,1H3,(H,8,9)
