21
gdb 118799	2.24598	1.03765	0.80689	1.839	86.03	-0.2408	0.0466	0.2874	1506.531	0.179241	-387.049006	-387.03858	-387.037635	-387.084493	38.79	
C	 0.0495596896	 1.5888234726	 0.0766167386	-0.382514
C	-0.0090304032	 0.0654194246	 0.2153354291	-0.178565
C	-1.3581460012	-0.5209762507	-0.2224268659	-0.229829
C	-1.4235008002	-2.0286551766	-0.0959293789	 0.402246
O	-0.5375209197	-2.7313591114	-0.9304031692	-0.4716
C	-1.7719372676	-2.6779601997	 1.2151520841	-0.347728
C	-2.75605454	-2.7399332478	 0.0426313663	-0.261619
C	-3.9968681354	-2.026182039	 0.0885878063	 0.335359
C	-5.043744412	-1.4338703465	 0.1268479811	-0.457527
H	 1.0218950638	 1.9810852177	 0.3902823927	 0.111782
H	-0.1160921447	 1.8973824997	-0.9612796097	 0.118512
H	-0.7190938652	 2.070923844	 0.6905540519	 0.117188
H	 0.7937074537	-0.3802328039	-0.3872045937	 0.089085
H	 0.1899533344	-0.2183657382	 1.2572438481	 0.09654
H	-2.1662744086	-0.0769534942	 0.3684886124	 0.108525
H	-1.5522910132	-0.2546787006	-1.2692674034	 0.107347
H	 0.3500953539	-2.6320666201	-0.5690868814	 0.285
H	-1.2691488417	-3.6040258767	 1.4695714256	 0.117444
H	-2.0427913696	-2.0460676399	 2.0534666967	 0.123341
H	-2.7858351635	-3.6937999522	-0.4750569076	 0.123971
H	-5.9679658795	-0.9124578011	 0.1553346469	 0.193042
76.4913	85.0711	100.4025	150.2876	196.3538	247.4963	270.7967	304.7665	334.5636	361.2072	432.8701	443.6593	524.7163	580.0109	607.9742	649.5348	733.8679	754.2579	814.2125	873.0482	889.4181	916.6194	938.8013	962.4467	1032.8994	1051.5042	1064.5719	1111.0339	1112.3536	1130.911	1222.1945	1278.5022	1294.326	1315.8924	1332.4079	1343.2566	1391.2239	1407.3419	1414.2937	1474.4779	1478.8568	1493.4363	1499.9583	1509.6692	2234.7345	3010.7936	3029.1076	3032.7517	3042.4316	3082.808	3100.0593	3103.6849	3136.9597	3158.3637	3232.6487	3505.1218	3800.3364
CCCC1(O)CC1C#C	CCC[C@@]1(O)C[C@H]1C#C	
InChI=1S/C8H12O/c1-3-5-8(9)6-7(8)4-2/h2,7,9H,3,5-6H2,1H3	InChI=1S/C8H12O/c1-3-5-8(9)6-7(8)4-2/h2,7,9H,3,5-6H2,1H3/t7-,8-/m1/s1
