17
gdb 76560	2.71979	1.25165	1.19958	2.2737	64.51	-0.2329	0.0355	0.2684	1110.5588	0.134246	-496.034537	-496.025812	-496.024868	-496.067955	32.704	
O	-0.036416412	 1.2606742749	 0.0414392948	-0.436614
C	 0.0621103173	-0.1358718626	 0.0629048488	-0.054042
C	-0.4743611122	-0.7836398392	 1.332507344	 0.018577
O	-0.8696581121	 0.0527457326	 2.3648962827	-0.431524
C	-1.2717560385	-0.8493883852	 0.0569559992	 0.323622
O	-2.4211171908	-0.0259318946	-0.1606129898	-0.31706
C	-2.9182427716	-0.9529912251	-1.1667683462	-0.110893
C	-1.7800175674	-1.9607386414	-0.857305379	-0.01091
O	-0.9577443803	-2.4065719232	-1.8985228463	-0.42196
H	-0.9231766348	 1.4629250656	-0.2982268405	 0.301149
H	 0.9342899261	-0.5357575678	-0.4484462146	 0.106434
H	-0.0126970281	-1.7085872364	 1.6716568969	 0.110602
H	-0.6584945038	 0.9513115518	 2.0692832774	 0.29173
H	-3.9420963055	-1.2668130838	-0.9460581821	 0.12442
H	-2.866713356	-0.5295382555	-2.1773390629	 0.105739
H	-2.1170683633	-2.855794413	-0.3299809059	 0.11541
H	-0.5633935872	-1.6354080172	-2.3222724965	 0.28532
82.9962	132.9043	155.7592	210.9936	240.3859	298.2546	353.0189	361.6918	442.7866	531.8379	582.7699	611.9681	638.9807	683.1865	764.6159	848.6556	858.803	936.4794	990.2643	1014.9797	1044.2759	1082.2864	1111.2818	1140.2098	1152.1916	1153.899	1182.1622	1238.3833	1267.4431	1298.5535	1315.2883	1334.0013	1382.6832	1392.8437	1438.3486	1456.9255	1514.1653	3028.0528	3089.2185	3104.1688	3129.5944	3138.26	3682.2603	3714.5354	3795.0097
OC1C(O)C11OCC1O	O[C@H]1[C@@H](O)[C@]21OC[C@H]2O	
InChI=1S/C5H8O4/c6-2-1-9-5(2)3(7)4(5)8/h2-4,6-8H,1H2	InChI=1S/C5H8O4/c6-2-1-9-5(2)3(7)4(5)8/h2-4,6-8H,1H2/t2-,3-,4+,5-/m1/s1
