21
gdb 118676	3.04396	0.84942	0.82062	0.7038	75.	-0.2285	0.054	0.2825	1500.6427	0.179535	-461.329348	-461.318556	-461.317612	-461.365306	39.07	
C	 0.0301437691	 1.6513932686	 0.2165968909	-0.456072
C	-0.0254710378	 0.1436592621	 0.0576128697	 0.23387
C	-1.340815319	-0.4280766434	-0.4493455733	-0.245524
C	-1.713593622	 0.0349368748	-1.8551599207	-0.07545
O	-2.8890866551	-0.6668979611	-2.2353035931	-0.421299
C	 1.2395537357	-0.600759349	-0.3561991621	 0.06526
O	 2.4428880847	 0.0823953731	-0.5308552231	-0.438064
C	 0.7118187126	-0.7265202561	 1.0558248024	-0.025229
O	 1.4684185012	-0.0601619784	 2.0401120304	-0.432961
H	 0.9391992319	 1.9740721943	 0.724287246	 0.12624
H	-0.0019539873	 2.1514701871	-0.7564669048	 0.120893
H	-0.8221610375	 2.0050135173	 0.8075079809	 0.114914
H	-1.2933819013	-1.5238352458	-0.4682571188	 0.100556
H	-2.1553378142	-0.1660775612	 0.2383527285	 0.10411
H	-1.8824377591	 1.1222482588	-1.8670094327	 0.08938
H	-0.880362273	-0.1738021917	-2.5453156052	 0.090922
H	-3.150897904	-0.362054153	-3.1087649098	 0.285148
H	 1.1459508765	-1.4375959603	-1.0434617942	 0.095028
H	 2.7065529502	 0.3867201539	 0.3487359364	 0.282359
H	 0.2343649796	-1.6440997789	 1.3949602919	 0.089398
H	 2.0757480088	-0.7020906811	 2.4242949007	 0.296521
70.6614	90.2593	101.8412	138.0627	196.3616	224.9445	265.8887	268.8039	288.3051	319.285	341.0072	355.2637	494.8413	515.4356	597.1387	657.8785	717.1295	795.4768	848.7395	870.4064	987.0131	1003.2321	1019.2833	1043.0233	1067.0404	1081.4901	1106.927	1157.0071	1175.1294	1220.0035	1224.3649	1246.494	1265.7917	1302.5586	1325.5606	1338.3689	1357.6725	1407.2551	1419.6657	1460.8245	1466.8298	1485.202	1497.6927	1503.8071	1529.2745	2971.3689	3000.9065	3020.965	3038.338	3062.9093	3095.3149	3113.2316	3139.9681	3143.6359	3737.7371	3802.0039	3831.3334
CC1(CCO)C(O)C1O	C[C@@]1(CCO)[C@@H](O)[C@H]1O	
InChI=1S/C6H12O3/c1-6(2-3-7)4(8)5(6)9/h4-5,7-9H,2-3H2,1H3	InChI=1S/C6H12O3/c1-6(2-3-7)4(8)5(6)9/h4-5,7-9H,2-3H2,1H3/t4-,5+,6+
