16
gdb 45571	3.35443	1.47476	1.28314	5.099	64.15	-0.2601	0.0534	0.3135	989.259	0.127447	-475.07849	-475.071488	-475.070544	-475.110411	26.647	
O	 0.0066502255	-0.0638562918	 0.0316421375	-0.387675
C	-0.0334126598	 1.1327036065	-0.0003413055	 0.477528
N	-1.1370153575	 1.9473674128	-0.062858041	-0.361061
C	-0.8392049636	 3.3510107106	 0.072096024	-0.039963
C	-1.1474280856	 3.959250985	 1.4581496758	-0.097119
O	-0.0047328105	 3.6965915813	 2.252766082	-0.236901
C	 1.1103924876	 3.9211438935	 1.4051833423	-0.108284
C	 0.724806957	 3.3116672021	 0.0515736202	 0.091632
O	 1.0815820227	 1.9301560545	-0.0132634862	-0.246763
H	-2.0466611873	 1.5490923648	 0.0953994187	 0.264136
H	-1.2742797539	 3.9413610853	-0.7399788736	 0.096412
H	-1.317152102	 5.0442807288	 1.3570057263	 0.095216
H	-2.0170895218	 3.5096041054	 1.9435422299	 0.116702
H	 1.3043167527	 5.0001985965	 1.2870990948	 0.094166
H	 1.9875018635	 3.4400697826	 1.8407004595	 0.138077
H	 1.1786654831	 3.8253056321	-0.7981834647	 0.103897
88.092	105.3299	253.0806	356.1914	389.9867	420.4441	524.7471	600.026	691.1806	731.9483	762.8632	838.5414	852.0479	913.1303	927.1357	952.6362	970.4264	1010.7919	1052.7798	1102.1563	1131.8006	1147.0183	1213.8824	1229.1345	1240.2439	1293.7262	1313.3829	1352.8767	1358.6766	1391.4981	1408.3732	1426.5268	1489.6727	1505.26	1898.4597	2967.1176	2974.8277	3057.3734	3095.6241	3102.268	3126.4305	3675.171
O=C1NC2COCC2O1	O=C1N[C@H]2COC[C@H]2O1	
InChI=1S/C5H7NO3/c7-5-6-3-1-8-2-4(3)9-5/h3-4H,1-2H2,(H,6,7)	InChI=1S/C5H7NO3/c7-5-6-3-1-8-2-4(3)9-5/h3-4H,1-2H2,(H,6,7)/t3-,4+/m0/s1
