18
gdb 86636	2.97079	1.15035	0.85449	10.9883	79.79	-0.1973	-0.0044	0.193	1326.965	0.147856	-439.080688	-439.071916	-439.070972	-439.11444	32.13	
C	-0.8175402706	 1.2267163138	-0.0174908506	-0.428609
C	 0.158356619	 0.0609532807	-0.022113578	 0.018076
C	 1.1049070356	-0.0706303638	-1.2087109142	-0.332
C	 2.3645321855	-0.7933216442	-0.6347597209	 0.324824
O	 3.1842406177	-1.3452127408	-1.3432280085	-0.358907
C	 2.3203983441	-0.6577371076	 0.7860856427	-0.054349
N	 1.1294198109	 0.1517785072	 1.1574500917	-0.29819
H	 1.3512774443	 1.1412923028	 1.3196644919	 0.288998
H	 0.6962042026	-0.1842299476	 2.020502532	 0.293639
C	 3.1124939985	-1.1523343124	 1.8556854399	 0.058454
O	 4.1299068703	-1.8181531455	 1.7971418481	-0.30826
H	-0.2963985505	 2.1817664849	-0.1478906102	 0.13621
H	-1.5156979897	 1.1178630214	-0.8513568083	 0.15845
H	-1.405624132	 1.2697068421	 0.9061049962	 0.127228
H	-0.3651791406	-0.8859089834	 0.1367856986	 0.13195
H	 0.671643589	-0.6472465409	-2.0271649998	 0.138337
H	 1.391776729	 0.9123235722	-1.6037834208	 0.120284
H	 2.6845348667	-0.870580869	 2.8657194603	-0.016134
75.1714	117.6633	162.6278	222.4758	239.4933	254.4203	277.3752	404.9441	461.7527	476.5737	520.9477	614.1308	711.4492	736.0477	822.7574	905.889	928.9568	948.3827	998.6034	1003.3981	1057.1791	1088.8072	1104.5915	1152.5914	1165.8989	1246.1422	1253.7112	1291.4499	1369.5886	1390.8997	1415.5526	1429.348	1469.2277	1477.2833	1491.6729	1496.5703	1655.2046	1739.9518	1802.0342	2655.5336	3031.7055	3035.821	3078.2479	3102.4637	3124.3462	3127.9893	3331.8122	3432.6064
CC1CC(=O)[C-]([NH2+]1)C=O	C[C@H]1CC(=O)[C]([NH2]1)C=O	
InChI=1S/C6H9NO2/c1-4-2-6(9)5(3-8)7-4/h3-4H,2,7H2,1H3	InChI=1S/C6H9NO2/c1-4-2-6(9)5(3-8)7-4/h3-4H,2,7H2,1H3/t4-/m0/s1
