14
gdb 12758	3.35724	1.81528	1.50367	3.9035	61.9	-0.2405	0.0113	0.2518	849.4711	0.107371	-378.672878	-378.665751	-378.664807	-378.704158	26.901	
O	 0.0297854682	 1.4308215125	 0.0254251749	-0.451169
C	-0.0191483703	 0.058265747	 0.0104100955	 0.363668
C	-0.3587512703	-0.7768701653	-1.1964843723	-0.33371
C	-1.1916745742	-0.8979460494	 0.053286087	-0.073046
N	-0.4887341566	-1.8202449848	 0.9774532324	-0.317685
C	 0.6271453111	-0.8171728308	 1.1085971505	-0.201848
C	 1.9724422959	-1.3422098241	 0.8753185894	 0.295266
N	 3.0427576231	-1.725238627	 0.6660662813	-0.325198
H	 0.6861250233	 1.7251739995	-0.6168965717	 0.298206
H	-0.8240050836	-0.2007076071	-1.9903451458	 0.124997
H	 0.2665725941	-1.6065985439	-1.5146313228	 0.13743
H	-2.2608795991	-0.736815	 0.0932087326	 0.115651
H	-0.9774608476	-1.8974358357	 1.8641437819	 0.234776
H	 0.6042253061	-0.2836862108	 2.063661937	 0.132662
118.971	137.6118	272.8981	315.613	352.9677	390.7192	451.9225	533.8642	560.6488	658.4101	722.601	812.7753	859.4491	906.238	931.0389	972.8634	998.643	1024.707	1063.7549	1075.5268	1104.2795	1174.2511	1212.5991	1248.2103	1317.3663	1352.0366	1377.1559	1417.2217	1496.3549	2355.0604	3070.1543	3117.4903	3205.7966	3216.4139	3519.6382	3785.0444
OC12CC1NC2C#N	O[C@]12C[C@H]1N[C@H]2C#N	
InChI=1S/C5H6N2O/c6-2-4-5(8)1-3(5)7-4/h3-4,7-8H,1H2	InChI=1S/C5H6N2O/c6-2-4-5(8)1-3(5)7-4/h3-4,7-8H,1H2/t3-,4+,5-/m1/s1
