13
gdb 129452	2.9097	1.60295	1.03356	4.3221	62.	-0.2447	-0.0412	0.2036	1040.3375	0.091792	-486.111779	-486.10422	-486.103276	-486.143952	27.875	
N	 0.0200536106	 1.2958858123	 0.0223066792	-0.543332
C	 0.0236037672	-0.0543852264	-0.0239234146	 0.383641
O	 1.0526135511	-0.7326668103	-0.0804355062	-0.415387
C	-1.2739747689	-0.7323551669	-0.0049973995	 0.101621
N	-2.4922807141	-0.1807762532	 0.0532872128	-0.301811
N	-3.28835067	-1.2279946725	 0.0432902165	-0.077942
N	-2.7164295149	-2.4400637957	-0.0164361618	-0.286316
C	-1.421524713	-2.1395295909	-0.0481994086	 0.369611
O	-0.4541571384	-3.0459370411	-0.1104764343	-0.403694
H	 0.8980692407	 1.7868821593	 0.010179444	 0.270553
H	-0.8447659225	 1.8074982091	 0.0673423401	 0.281423
H	-4.2901423427	-1.1313354756	 0.0789905279	 0.300624
H	 0.375920205	-2.5218479081	-0.1195806855	 0.321008
103.3643	185.9297	188.0848	236.3164	341.6928	351.9529	459.4961	493.7332	555.6454	581.2405	681.0538	695.0456	720.0985	731.0856	766.6833	820.5924	987.5705	1088.164	1150.5688	1201.9687	1255.1074	1299.8008	1383.0721	1469.4692	1487.1725	1569.0657	1597.8684	1625.0463	1743.9415	3502.0248	3605.2372	3670.7765	3743.3746
NC(=O)C1=NNN=C1O	NC(=O)c1n[nH]nc1O	
InChI=1S/C3H4N4O2/c4-2(8)1-3(9)6-7-5-1/h(H2,4,8)(H2,5,6,7,9)	InChI=1S/C3H4N4O2/c4-2(8)1-3(9)6-7-5-1/h(H2,4,8)(H2,5,6,7,9)
