18
gdb 12837	3.04703	2.3859	1.79301	1.5144	71.96	-0.2393	0.0207	0.26	814.5478	0.154757	-347.805765	-347.798746	-347.797801	-347.836624	27.754	
C	 0.1982541167	 1.4028833519	-0.2325663844	-0.457262
C	-0.0835917541	-0.0546932955	 0.0749845683	 0.440419
C	-1.5784538034	-0.4313593309	 0.1610395777	-0.306944
C	-1.635484994	-1.3938885464	 1.3230794373	-0.061757
C	-0.4608051904	-1.5370955914	 1.9387918658	-0.083421
C	 0.6255768653	-0.7274102642	 1.2917471751	-0.15498
C	 1.4555584958	-1.4637425991	 0.2141905201	-0.082404
O	 0.628973923	-0.9364787519	-0.8415191836	-0.325118
H	 1.2747750125	 1.5966440413	-0.2559857934	 0.117621
H	-0.2157106459	 1.6720078411	-1.2102858637	 0.125483
H	-0.2563937542	 2.0540538367	 0.5217322688	 0.115603
H	-2.2240381766	 0.4427569938	 0.3222885398	 0.098558
H	-1.8923663861	-0.8889730082	-0.7848347481	 0.120921
H	-2.5512837959	-1.8985648781	 1.612396077	 0.09369
H	-0.2799993358	-2.1781148798	 2.7951450826	 0.09292
H	 1.1923089543	-0.0952530255	 1.9805914261	 0.074953
H	 2.496566218	-1.1238477914	 0.1261187465	 0.092313
H	 1.4358006505	-2.5591059023	 0.2474726382	 0.099406
117.2016	229.4547	239.5884	285.4816	350.9402	409.0181	468.0499	597.2906	672.6563	741.8749	770.1785	840.1436	880.2625	888.0542	930.0356	951.4196	970.4373	977.7597	1015.9336	1047.8818	1080.2173	1097.4328	1118.2909	1164.8444	1169.1678	1210.7689	1219.6485	1241.7737	1302.007	1338.142	1356.7143	1377.0448	1406.1317	1467.6311	1483.4287	1491.321	1519.8764	1678.9342	3001.8515	3013.66	3031.4643	3056.5659	3057.885	3072.5377	3101.6284	3108.8999	3177.0323	3201.9896
CC12CC=CC1CO2	C[C@]12CC=C[C@H]1CO2	
InChI=1S/C7H10O/c1-7-4-2-3-6(7)5-8-7/h2-3,6H,4-5H2,1H3	InChI=1S/C7H10O/c1-7-4-2-3-6(7)5-8-7/h2-3,6H,4-5H2,1H3/t6-,7-/m0/s1
