16
gdb 37494	3.43521	2.28262	1.88105	3.9458	70.15	-0.2005	-0.0499	0.1506	762.2968	0.125023	-400.599515	-400.593736	-400.592792	-400.62907	25.525	
C	-0.0479888184	 1.5868473612	-0.0249945118	-0.268939
C	 1.4891109358	 1.4487265807	 0.0429131916	-0.041188
C	 1.3214450549	 0.0748831776	 0.7837324648	-0.101685
C	-0.043077044	 0.0449925967	 0.0163809272	 0.001383
C	 0.7044260658	-0.4353159033	-1.2479357246	-0.041202
N	 1.4414485984	-1.7971300448	-0.8635110763	-0.357087
C	 2.0667580017	-0.8808840234	-0.2276648323	 0.291017
O	 3.0445538876	-0.0659122061	-0.8885688612	-0.258359
C	 1.920916223	 0.7525904367	-1.2558243602	 0.04412
H	-0.4685318535	 2.0286712895	 0.8809360143	 0.113616
H	-0.4791008747	 2.0742005277	-0.9073494997	 0.098936
H	 2.1423238509	 2.2386246387	 0.4074494014	 0.086672
H	 1.4213660846	-0.0414681942	 1.8565839395	 0.1001
H	-0.8955927791	-0.5517480746	 0.3292234974	 0.092861
H	 0.2433184259	-0.6569475616	-2.2047047099	 0.131983
H	 2.1054463109	 1.298735879	-2.1774847304	 0.107771
279.7579	362.4842	439.7637	468.5143	506.7752	577.7083	648.6656	679.5424	708.153	783.5342	816.5453	843.228	868.8613	871.5003	904.7024	912.3817	941.9775	948.6445	1006.6617	1019.7478	1045.4908	1059.6704	1068.1124	1091.7486	1123.0052	1167.571	1190.2492	1205.166	1231.7502	1237.5196	1261.0012	1288.5116	1304.0142	1495.2442	1544.3547	3037.1298	3111.6702	3141.5003	3155.9563	3159.3024	3176.0741	3194.675
C1C2C3C1C1N=C3OC21	C1[C@H]2[C@H]3[C@@H]1[C@@H]1[N][C]3O[C@H]21	
InChI=1S/C7H7NO/c1-2-4-3(1)6-5(2)8-7(4)9-6/h2-6H,1H2	InChI=1S/C7H7NO/c1-2-4-3(1)6-5(2)8-7(4)9-6/h2-6H,1H2/t2-,3+,4-,5+,6-/m1/s1
