15
gdb 102353	1.86728	1.46363	1.20714	6.8801	66.08	-0.3012	-0.0044	0.2969	1114.8038	0.109737	-453.939315	-453.929063	-453.928119	-453.974749	34.359	
O	-0.0619860883	 1.4152636622	 0.0101152286	-0.397539
C	 0.00712835	 0.0134470718	 0.0019791205	-0.09794
C	-1.4477720617	-0.52370562	 0.0130777364	-0.118168
C	-1.4271735559	-2.0744775538	 0.0045716768	-0.09794
O	-2.7604491172	-2.5128969912	 0.014401628	-0.397539
C	-2.1335550161	-0.0511143213	 1.2298859968	 0.34104
N	-2.6286503912	 0.2905970643	 2.2146265207	-0.328251
C	-2.156762088	-0.03813223	-1.1851794949	 0.341078
N	-2.6710699596	 0.313571303	-2.1564631094	-0.328247
H	 0.8301190074	 1.7745951157	 0.0052975487	 0.305507
H	 0.5039148573	-0.3763957266	-0.8983324504	 0.118129
H	 0.5210044778	-0.385919919	 0.8883994387	 0.118118
H	-0.8857502964	-2.399794868	-0.895624776	 0.118115
H	-0.8693341123	-2.4093995921	 0.8911138477	 0.118132
H	-2.7757910259	-3.474533945	 0.0108335076	 0.305507
97.7015	110.2751	121.4339	142.134	151.8626	160.7961	202.6346	209.3931	259.7485	386.4604	401.4045	488.503	505.5615	582.8275	682.4093	683.8213	893.1952	1035.436	1035.7643	1077.5038	1116.7539	1136.0996	1191.6108	1228.824	1253.663	1283.2165	1324.0566	1442.8083	1465.7687	1512.2575	1521.6016	2370.1551	2375.6403	2984.1892	2993.7022	3025.1877	3037.2427	3838.6798	3838.7078
OCC(CO)(C#N)C#N	OCC(CO)(C#N)C#N	
InChI=1S/C5H6N2O2/c6-1-5(2-7,3-8)4-9/h8-9H,3-4H2	InChI=1S/C5H6N2O2/c6-1-5(2-7,3-8)4-9/h8-9H,3-4H2
