16
gdb 38556	2.80232	2.31989	1.67524	1.9421	71.26	-0.22	-0.0174	0.2026	822.3394	0.126042	-400.658927	-400.652838	-400.651894	-400.688952	25.892	
C	-0.0061908699	 1.4924394283	 0.082955662	-0.199314
C	 1.4586854464	 1.9261646173	-0.0043953588	 0.020289
O	 2.3101718841	 1.8180599329	-1.1769342926	-0.304324
C	 2.2314942001	 0.7146196322	-0.292766005	 0.329925
C	 2.9989069247	 0.2124321546	 0.9039512403	-0.213531
C	 2.1425671611	-0.6163559024	 1.5207902343	-0.090577
C	 0.9429535515	-0.9392706272	 0.6504808487	-0.065052
C	 1.228811492	-0.3706683623	-0.678884955	-0.121236
N	-0.0344445395	 0.0189230511	-0.0708509032	-0.137
H	-0.4045713431	 1.8076233235	 1.0533529286	 0.119063
H	-0.6581331662	 1.9094503469	-0.694167225	 0.123618
H	 1.8329161565	 2.6530676324	 0.7116561373	 0.104183
H	 3.9185199194	 0.6280437977	 1.2949444395	 0.120541
H	 2.2813570297	-1.059838131	 2.4983659201	 0.109316
H	 0.4602769035	-1.9007907427	 0.7805136252	 0.106736
H	 1.2639457598	-0.8788817612	-1.6388184362	 0.097364
206.6976	301.2453	359.9102	427.3758	509.0377	555.1934	629.0025	661.0892	715.6738	722.6795	777.867	821.7585	837.7344	858.5661	909.627	932.9551	942.5214	970.9837	997.1418	1023.4618	1052.0308	1075.3067	1105.1202	1126.6083	1175.1856	1229.78	1254.2016	1291.0116	1299.1353	1326.4337	1332.0523	1357.5908	1429.8806	1479.4804	1610.6574	3031.7282	3079.1891	3143.0878	3146.5706	3182.3171	3207.6098	3230.7468
C1C2OC22C=CC3C2N13	C1[C@@H]2O[C@]32C=C[C@@H]2[C@H]3N12	
InChI=1S/C7H7NO/c1-2-7-5(9-7)3-8-4(1)6(7)8/h1-2,4-6H,3H2	InChI=1S/C7H7NO/c1-2-7-5(9-7)3-8-4(1)6(7)8/h1-2,4-6H,3H2/t4-,5+,6-,7+,8?/m1/s1
