21
gdb 65121	3.31985	1.15858	0.9444	1.3662	86.1	-0.2167	0.0292	0.2459	1301.5261	0.183094	-387.092511	-387.083838	-387.082894	-387.125783	34.061	
O	-0.3573553764	 1.2653336596	-0.4075336736	-0.457173
C	-0.0519184895	-0.0673338354	-0.0873647706	 0.305601
C	-0.4292144526	-0.5261668875	 1.3135684761	-0.328323
C	-1.2821520278	-0.9115845099	 0.1306530235	-0.295639
C	 1.1430874292	-0.6214361971	-0.7615723196	 0.31134
C	 1.8646585155	 0.0000427129	-1.7007298119	-0.212674
C	 3.0574264054	-0.8096916574	-2.1469823526	-0.244569
C	 2.7571438568	-2.213502057	-1.564128974	-0.209256
C	 1.75184702	-1.9682823041	-0.4129660768	-0.318096
H	 0.3843921285	 1.8061186112	-0.1119910964	 0.278433
H	 0.169032986	-1.2911709426	 1.7950790059	 0.114684
H	-0.812602079	 0.2437580451	 1.973265947	 0.11636
H	-2.2265973024	-0.3959135512	 0.0026151665	 0.128188
H	-1.2708736633	-1.9405293858	-0.2093493593	 0.117319
H	 1.6386755119	 0.9844340906	-2.0928242043	 0.086656
H	 3.1809815052	-0.8266621839	-3.235905869	 0.10073
H	 3.9904530507	-0.3904894155	-1.741777183	 0.100152
H	 2.2802714623	-2.8287295696	-2.3337404383	 0.105534
H	 3.6549854083	-2.7436911692	-1.2362004643	 0.094516
H	 2.2568549232	-1.9164327848	 0.5622445354	 0.104714
H	 1.010836408	-2.7716571383	-0.3303807206	 0.101504
74.624	127.5917	183.4656	190.961	310.208	318.2741	352.2891	411.9695	448.3457	513.884	565.2827	647.1099	773.0185	809.837	823.2959	845.1791	887.1885	900.2641	916.3522	923.3744	928.0117	966.097	993.4872	1033.849	1050.5594	1068.1111	1074.2358	1086.1169	1152.4118	1193.26	1219.5982	1232.0291	1239.4786	1273.8961	1309.1713	1328.5007	1338.1894	1371.7869	1379.6851	1448.728	1484.205	1488.4277	1489.8408	1506.9818	1701.0672	2995.8524	3003.6362	3042.1353	3050.4518	3061.4267	3100.1858	3138.2874	3142.9644	3203.8695	3224.4305	3238.8033	3786.8481
OC1(CC1)C1=CCCC1	OC1(CC1)C1=CCCC1	
InChI=1S/C8H12O/c9-8(5-6-8)7-3-1-2-4-7/h3,9H,1-2,4-6H2	InChI=1S/C8H12O/c9-8(5-6-8)7-3-1-2-4-7/h3,9H,1-2,4-6H2
