21
gdb 117773	2.55571	0.96415	0.84236	3.5405	79.1	-0.2576	0.029	0.2866	1486.2599	0.181133	-420.41656	-420.405726	-420.404782	-420.452479	39.07	
C	-0.016145999	 1.5912713725	 0.0241205037	-0.384668
C	 0.0119199344	 0.0608173559	 0.0356105965	-0.178568
C	 0.6702361153	-0.5176493521	-1.2219585749	-0.204959
C	 0.6876181887	-2.0589508181	-1.2971112333	 0.049102
N	-0.6788359967	-2.5908104099	-1.2458130574	-0.517229
C	 1.4527967042	-2.5267396109	-2.5693044784	-0.089051
O	 1.4359316334	-3.9325038841	-2.7042939107	-0.420978
C	 1.4325548061	-2.616972614	-0.1447652862	 0.302829
N	 2.0690914715	-3.0890110819	 0.6970218726	-0.35392
H	 0.9950901211	 2.0093706679	-0.0336362088	 0.116414
H	-0.5813818768	 1.9742190036	-0.8332603916	 0.112484
H	-0.485472976	 1.9821944994	 0.9316613017	 0.119625
H	 0.556269384	-0.2923854766	 0.9192584568	 0.121704
H	-1.0041022164	-0.3360360042	 0.1250255352	 0.119974
H	 0.1430164886	-0.1592177722	-2.1173308187	 0.098557
H	 1.7011055981	-0.1527617957	-1.3041627511	 0.112687
H	-1.2355505285	-2.112641017	-1.9501782497	 0.23104
H	-0.6458141698	-3.5704266345	-1.519747483	 0.24555
H	 0.9286894306	-2.1254099542	-3.4431914947	 0.111881
H	 2.4766642815	-2.1260801816	-2.5670849024	 0.10662
H	 2.0157042558	-4.3036273823	-2.0283949255	 0.300907
73.7754	91.54	114.3207	128.9854	186.863	205.859	246.1465	277.4086	299.1945	324.8534	371.4098	386.7833	429.7381	470.3825	594.1389	685.135	714.9547	752.5223	853.7039	889.1323	904.9061	940.1722	1011.3074	1036.8974	1059.3372	1082.423	1100.7366	1144.4218	1180.6372	1240.8597	1267.9946	1319.3738	1324.4202	1367.6956	1380.5819	1398.595	1414.6444	1417.9755	1477.0974	1491.5335	1494.6711	1500.2423	1512.2428	1659.2592	2348.994	3000.8686	3012.2345	3028.8119	3044.5208	3056.5709	3078.3274	3080.6323	3102.2506	3107.345	3474.4553	3555.9136	3792.3397
CCCC(N)(CO)C#N	CCC[C@@](N)(CO)C#N	
InChI=1S/C6H12N2O/c1-2-3-6(8,4-7)5-9/h9H,2-3,5,8H2,1H3	InChI=1S/C6H12N2O/c1-2-3-6(8,4-7)5-9/h9H,2-3,5,8H2,1H3/t6-/m0/s1
