18
gdb 14193	3.57651	2.35624	2.10443	1.4176	71.	-0.2373	0.0953	0.3326	755.6848	0.155311	-347.771158	-347.764868	-347.763924	-347.801037	26.416	
C	-0.0989450793	 1.4768660267	 0.0679874509	-0.49945
C	 0.0842494449	-0.013186912	 0.0471748907	 0.423757
C	 0.9400925126	-0.7849355434	-0.9908312856	-0.271058
C	 0.8077563344	-1.917975378	 0.0330891863	-0.067412
C	-0.7283361906	-1.9847984846	 0.4293485407	 0.08567
C	-0.3456506606	-1.6640460293	 1.8917855345	-0.244017
C	 0.7740375191	-0.870509064	 1.2038065646	-0.098867
O	-1.176081773	-0.7109290767	-0.0541753718	-0.302685
H	 0.8693790867	 1.9837497329	 0.1112604771	 0.116542
H	-0.6218432011	 1.8096114046	-0.8347536811	 0.129062
H	-0.6915561518	 1.7821771377	 0.9358580832	 0.125777
H	 0.516993876	-0.896220208	-1.9927683184	 0.096394
H	 1.9705442451	-0.4206156727	-1.0398549223	 0.095167
H	 1.4003892928	-2.8306581608	 0.0460145034	 0.071345
H	-1.4098857702	-2.7808839834	 0.1332111519	 0.075613
H	-1.09644775	-1.1483833584	 2.4962691314	 0.097904
H	 0.0576470285	-2.5293502329	 2.4256834147	 0.097154
H	 1.6595687565	-0.4707392976	 1.6952933397	 0.069104
200.1003	241.2073	300.0308	425.7242	442.5838	538.6474	609.9416	657.0364	721.2411	795.4423	829.017	838.7818	867.8942	890.4506	926.4582	951.8024	972.7752	993.078	1002.1816	1040.5187	1043.2898	1075.7324	1104.1564	1150.305	1172.1621	1189.2749	1194.3763	1210.167	1248.4772	1259.6509	1277.3296	1318.9074	1339.1178	1417.3699	1480.2175	1481.4487	1481.7032	1491.3852	3037.7555	3052.1627	3054.1165	3106.9932	3112.8492	3115.1201	3116.6976	3127.7592	3129.7973	3140.3973
CC12CC3C(CC13)O2	C[C@@]12C[C@@H]3[C@@H](C[C@H]13)O2	
InChI=1S/C7H10O/c1-7-3-4-5(7)2-6(4)8-7/h4-6H,2-3H2,1H3	InChI=1S/C7H10O/c1-7-3-4-5(7)2-6(4)8-7/h4-6H,2-3H2,1H3/t4-,5-,6+,7+/m0/s1
