18
gdb 39703	4.28493	1.59321	1.55155	1.5127	78.36	-0.2187	0.0834	0.3021	915.5008	0.149397	-364.69485	-364.688567	-364.687623	-364.725153	27.04	
C	-0.0713284992	 1.5360986972	-0.003285704	-0.350704
C	 1.2646028936	 0.8030733093	-0.0124993667	-0.347518
C	-0.0220129995	 0.0509010339	 0.070798374	 0.432592
C	-0.4636203898	-0.9761433139	 1.1052264341	-0.184544
C	-1.9651682063	-1.2248158804	 0.8017536959	-0.081854
C	-1.7046418894	-2.4555600948	-0.052360224	-0.122199
C	-1.8985288578	-1.1310595052	-0.7261320933	-0.030386
N	-0.4428921843	-0.8898774649	-1.0071817498	-0.204259
C	-0.2126770929	-2.0504306107	-0.010338492	 0.001081
H	-0.3474718396	 2.0927203868	 0.8865069964	 0.111684
H	-0.4023004798	 1.9817904677	-0.9354979169	 0.119203
H	 1.8067133049	 0.763101752	-0.9508683707	 0.123391
H	 1.8890169359	 0.8667868142	 0.8728000413	 0.110758
H	-0.0981094727	-1.0276376068	 2.1300628583	 0.067209
H	-2.8392566377	-0.9615050227	 1.3806581022	 0.090578
H	-2.2206956699	-3.4000316809	-0.149744907	 0.09373
H	-2.6937308228	-0.7633698711	-1.360339163	 0.090772
H	 0.6757471471	-2.6669830998	-0.1260344249	 0.080465
158.7436	248.8164	263.0207	480.8423	578.8444	585.9728	746.3811	768.9082	783.601	797.4681	806.5069	830.5456	848.2539	862.4021	876.5359	904.1115	917.7351	945.1731	966.9125	988.5977	1008.4545	1029.3791	1043.6714	1045.6557	1050.1861	1074.2047	1077.4288	1133.5594	1165.0313	1183.0381	1188.0925	1199.1702	1217.8733	1247.569	1272.5099	1338.5358	1397.7362	1454.1305	1505.7506	3121.7091	3127.073	3130.5956	3141.7193	3202.4473	3208.2059	3208.9321	3222.5908	3223.1643
C1CC11C2C3C4C3N1C24	C1CC21[C@H]1[C@@H]3[C@H]4[C@@H]3N2[C@@H]14	
InChI=1S/C8H9N/c1-2-8(1)5-3-4-6(3)9(8)7(4)5/h3-7H,1-2H2	InChI=1S/C8H9N/c1-2-8(1)5-3-4-6(3)9(8)7(4)5/h3-7H,1-2H2/t3-,4-,5-,6+,7+/m0/s1
