17
gdb 12233	3.51635	1.54974	1.2328	0.9326	67.6	-0.2556	0.0179	0.2734	1024.7103	0.140286	-400.993884	-400.984858	-400.983914	-401.027868	31.188	
C	 0.0173384256	 1.3894586922	 0.1753026177	-0.339086
N	-0.0393362976	-0.0610483479	 0.3031796664	-0.340866
C	-1.1093480311	-0.6578401764	 0.0489544652	 0.419186
O	-2.340808286	-0.2039551503	-0.3729762271	-0.28095
C	-2.8069617638	-1.5850114736	-0.623994949	 0.109006
C	-3.0603573502	-1.8429968603	-2.089566441	-0.390022
C	-1.4788471416	-2.1231980872	-0.017301538	-0.025557
O	-0.6795408995	-2.93185997	-0.8411885439	-0.428517
H	 0.9122494749	 1.6621183188	-0.3932861699	 0.126738
H	-0.8622274233	 1.8260610484	-0.3119152881	 0.128466
H	 0.1218452651	 1.836230199	 1.1705427117	 0.131865
H	-3.6925016527	-1.7756184263	-0.0116109682	 0.093954
H	-2.1515637176	-1.6877291386	-2.6746700079	 0.132407
H	-3.383834481	-2.8785164021	-2.23379024	 0.131984
H	-3.8458761446	-1.1787833196	-2.4608589912	 0.127964
H	-1.6193535245	-2.5846187939	 0.9686112142	 0.10166
H	 0.1968679078	-2.5302460922	-0.8602790209	 0.301768
69.8888	91.4624	144.387	175.5709	186.0521	215.9127	247.6269	313.2693	400.9606	507.0047	580.6226	665.7274	764.0662	816.8043	870.5151	901.4679	1035.8424	1038.0987	1064.7841	1126.3213	1135.4467	1141.656	1163.2697	1195.5328	1221.2755	1318.812	1368.4235	1372.4845	1382.3124	1414.6557	1440.5888	1484.1603	1485.9004	1493.0953	1498.2548	1844.0558	3018.6734	3023.1731	3048.4641	3076.5713	3083.6051	3092.9104	3118.6894	3138.9909	3800.8444
CN=C1OC(C)C1O	CN=C1O[C@@H](C)[C@H]1O	
InChI=1S/C5H9NO2/c1-3-4(7)5(6-2)8-3/h3-4,7H,1-2H3	InChI=1S/C5H9NO2/c1-3-4(7)5(6-2)8-3/h3-4,7H,1-2H3/t3-,4+/m0/s1
