13
gdb 15220	2.83023	1.67502	1.34169	4.6991	60.06	-0.2637	-0.0413	0.2225	917.2275	0.093818	-398.597017	-398.589123	-398.588179	-398.629744	27.454	
O	 0.0277225074	 1.4006847489	 0.0589523699	-0.398133
C	 0.022312554	 0.0174806786	-0.0042888559	 0.089344
C	-1.3278431407	-0.6434902646	 0.0734708652	-0.159555
C	-2.5678856512	 0.18464189	 0.1851232682	 0.171082
O	-3.5108230085	-0.1620708201	 0.8496127805	-0.256435
C	-0.52500045	-0.6657096319	-1.2440713157	-0.246213
C	-0.9179998311	 0.1476455296	-2.3594516978	 0.293573
N	-1.1927912486	 0.8068854076	-3.269465965	-0.327606
H	 0.6844948258	 1.7436371099	-0.5580825866	 0.309404
H	 0.8469056533	-0.4874436282	 0.497517684	 0.122378
H	-1.3915220928	-1.5911403413	 0.5957421892	 0.131278
H	-2.5630934764	 1.1353505437	-0.3799355641	 0.118955
H	-0.1026349414	-1.6265443325	-1.518273872	 0.151929
77.3877	115.1547	146.0487	215.3546	278.6872	310.3099	385.8041	455.2098	507.5942	604.4415	659.9124	785.5282	804.8414	910.5629	970.9059	991.7304	1046.3095	1117.1343	1127.3113	1167.8664	1228.7468	1292.6347	1331.0954	1362.6909	1427.8779	1442.2946	1820.3107	2354.6897	2965.1747	3114.0017	3172.3713	3191.6849	3799.7287
OC1C(C=O)C1C#N	O[C@H]1[C@@H](C=O)[C@H]1C#N	
InChI=1S/C5H5NO2/c6-1-3-4(2-7)5(3)8/h2-5,8H	InChI=1S/C5H5NO2/c6-1-3-4(2-7)5(3)8/h2-5,8H/t3-,4+,5-/m1/s1
