17
gdb 41332	2.99455	1.9027	1.76181	1.5086	71.37	-0.2491	0.0015	0.2506	851.1349	0.138424	-421.751063	-421.744879	-421.743935	-421.781163	26.42	
C	 0.0632604159	 1.5230884041	-0.1417851027	-0.183348
O	 1.4804245358	 1.484884795	 0.2247263019	-0.30485
C	 1.219101468	 0.2556688538	 0.951660273	 0.15158
C	 1.7073894999	-1.1952878285	 0.8348839193	-0.02958
O	 0.4879362219	-1.7908824777	 1.4324783171	-0.297319
C	-0.6835212064	-1.0741599203	 0.9276648412	-0.156304
C	 0.0003434845	-0.0037068362	 0.0599827791	 0.166661
C	 0.6353886755	-0.744242356	-1.1086810083	-0.114233
C	 1.6614697882	-1.4625688628	-0.6474558234	-0.047374
H	-0.5156496059	 2.1136100761	 0.5800794178	 0.10636
H	-0.082934862	 1.9055918084	-1.1556214122	 0.113095
H	 1.0065386407	 0.4936890567	 2.0003473406	 0.089946
H	 2.5470693826	-1.5616122681	 1.4214916717	 0.080691
H	-1.3236358505	-1.7728474702	 0.3809336121	 0.105069
H	-1.2343019281	-0.657100754	 1.7767884151	 0.110477
H	 0.2290241011	-0.7241158716	-2.1128109154	 0.101037
H	 2.2835068688	-2.1692788085	-1.1800619968	 0.108092
278.4398	286.8056	319.6163	404.5525	411.8725	498.4745	614.2281	688.3939	728.9637	741.338	817.38	837.3561	858.5184	875.8519	891.2472	942.803	947.4886	968.0324	988.8313	995.2419	1031.9419	1062.624	1127.6474	1135.7892	1159.5055	1199.2061	1229.4695	1252.9179	1257.1101	1287.707	1311.9876	1332.3877	1354.6814	1386.1225	1509.09	1519.2276	1642.5744	3019.0241	3038.8129	3045.1358	3088.3233	3095.8268	3149.2745	3198.525	3230.8419
C1OC2C3OCC12C=C3	C1O[C@@H]2[C@H]3OC[C@@]12C=C3	
InChI=1S/C7H8O2/c1-2-7-3-8-5(1)6(7)9-4-7/h1-2,5-6H,3-4H2	InChI=1S/C7H8O2/c1-2-7-3-8-5(1)6(7)9-4-7/h1-2,5-6H,3-4H2/t5-,6+,7-/m0/s1
