14
gdb 129028	3.48436	1.35428	0.97523	1.5039	78.08	-0.2557	-0.0836	0.1721	1113.8768	0.103765	-432.878838	-432.871652	-432.870708	-432.911024	26.94	
N	-0.038896322	 0.9397581636	 1.1029645976	-0.478484
C	 0.0159353996	 0.0623098726	 0.1632118503	 0.241037
C	-1.2653846199	-0.5159290068	-0.251089451	-0.053045
C	-1.5228271512	-1.4352345904	-1.188841453	-0.178159
C	-0.6148731137	-2.1574434654	-2.0961331888	 0.423849
O	-1.0383251406	-2.9707520119	-2.8949514548	-0.345361
N	 0.7671874944	-1.9360353193	-2.0746476172	-0.293083
N	 1.6123744266	-1.1590987342	-1.3816579154	-0.181164
C	 1.2967481569	-0.3321534388	-0.4541524679	-0.027296
H	 0.8973107423	 1.2884214333	 1.3274078989	 0.226234
H	-2.0991638823	-0.1076510259	 0.3125799248	 0.135874
H	-2.5504660225	-1.7407973768	-1.3547268635	 0.1371
H	 1.241998745	-2.5105465562	-2.7589075788	 0.274406
H	 2.1603009773	 0.1863329164	-0.0369567011	 0.118093
66.7517	121.2576	288.6922	365.6989	392.2914	407.7285	410.0108	540.3462	622.2321	672.5468	709.7913	769.0279	771.291	856.953	860.6764	899.1336	908.0629	953.0425	1056.3451	1115.5865	1183.4635	1214.0756	1317.4042	1391.8124	1417.1294	1440.2938	1480.1648	1630.2566	1687.0835	1701.9915	1770.0755	3125.7626	3180.1954	3201.271	3430.2646	3588.9627
N=C1C=CC(=O)NN=C1	[NH]C1=C[CH]C(=O)NN=C1	
InChI=1S/C5H5N3O/c6-4-1-2-5(9)8-7-3-4/h1-3,6H,(H,8,9)	InChI=1S/C5H5N3O/c6-4-1-2-5(9)8-7-3-4/h1-3,6H,(H,8,9)
