23
gdb 87981	2.16365	1.50409	1.2783	1.2944	85.7	-0.2475	0.0752	0.3228	1162.4909	0.203881	-388.268237	-388.258449	-388.257505	-388.302044	38.342	
C	-0.5318248117	 1.3950307054	 0.246671702	-0.455573
C	-0.0118142603	-0.0101893413	-0.0335143447	 0.269467
C	-1.0989197925	-0.8769280713	-0.6821176756	-0.430334
C	 1.3400616535	-0.1020032137	-0.8193710592	-0.252408
C	 1.8655482931	-1.1411417726	 0.210966784	-0.312435
C	 0.7073483858	-0.7427950192	 1.1314895416	 0.34289
C	 0.8760849369	-0.227188051	 2.5421119897	-0.398752
C	 0.1171509329	-1.5049038238	 2.2694804285	 0.022326
O	-1.2809282281	-1.4995636979	 2.3773629163	-0.421786
H	 0.2420663796	 2.0274811992	 0.6935060181	 0.107333
H	-0.8641655557	 1.8755492871	-0.6810626401	 0.107735
H	-1.3870711224	 1.3686985013	 0.931427443	 0.116868
H	-1.4239543965	-0.4321050047	-1.6301198175	 0.099396
H	-0.7304039815	-1.8856207484	-0.8965372648	 0.105587
H	-1.9654282309	-0.9743266982	-0.0241722284	 0.133996
H	 1.2722123445	-0.4271249025	-1.8609155645	 0.091305
H	 1.9017698261	 0.8354669269	-0.7816577089	 0.094701
H	 1.7935400064	-2.1727796119	-0.1477730683	 0.101859
H	 2.8751033943	-0.9804301043	 0.5985575959	 0.095575
H	 1.8574481391	-0.2873604781	 3.0041532444	 0.104896
H	 0.2838529638	 0.6331942207	 2.8386165188	 0.111799
H	 0.5907006586	-2.448671726	 2.5458639441	 0.079068
H	-1.5049633549	-1.4493771256	 3.3125761658	 0.286485
77.2691	149.5278	193.583	231.81	234.2496	269.1721	291.752	325.2701	339.9228	366.2067	416.6247	444.767	497.1898	618.3634	640.8393	750.4625	808.3174	869.8969	873.9135	899.2153	937.6604	949.5482	968.2666	984.3584	999.5181	1027.9256	1035.6113	1092.9162	1138.2967	1159.5318	1175.7029	1190.3424	1220.889	1235.9276	1251.2707	1271.286	1288.1006	1307.7178	1338.9316	1396.2972	1415.8543	1419.8668	1475.3233	1481.195	1485.5977	1490.5608	1498.7954	1502.6286	1510.1821	3020.7905	3028.3646	3045.3087	3054.4556	3080.5175	3085.9902	3089.5945	3090.7995	3095.8711	3110.2334	3113.2117	3126.9679	3202.1506	3800.7537
CC1(C)CCC11CC1O	CC1(C)CC[C@]21C[C@H]2O	
InChI=1S/C8H14O/c1-7(2)3-4-8(7)5-6(8)9/h6,9H,3-5H2,1-2H3	InChI=1S/C8H14O/c1-7(2)3-4-8(7)5-6(8)9/h6,9H,3-5H2,1-2H3/t6-,8+/m1/s1
