18
gdb 80077	2.50665	1.89911	1.59072	1.6892	76.72	-0.2212	0.0007	0.2219	923.512	0.149761	-401.900657	-401.893468	-401.892524	-401.931867	29.536	
O	 0.0996230612	 1.3742257228	-0.1150881781	-0.41838
C	 0.0318275198	-0.0160275291	-0.0181260023	 0.096767
C	-0.3918125236	-0.6907841935	 1.2780141562	-0.148698
C	-0.925350902	 0.1734130605	 2.3506847246	-0.113926
C	-2.1239747415	 0.7690186251	 2.2657457259	-0.084808
C	-3.0587172546	 0.5137935943	 1.1493779882	-0.046477
C	-2.9013442019	 1.101952565	-0.2208450457	-0.262051
N	-2.6108805081	-0.310268862	 0.0181677647	-0.110541
C	-1.2590865271	-0.8126961849	 0.0245307273	-0.049054
H	-0.1121586106	 1.7400340964	 0.7541596671	 0.285343
H	 0.846685387	-0.4830573637	-0.5657220174	 0.105424
H	 0.1870270255	-1.550132356	 1.6026413631	 0.092018
H	-0.3047631837	 0.3240991572	 3.2297795286	 0.099487
H	-2.4931346919	 1.3785754093	 3.0859964525	 0.098329
H	-4.0787397729	 0.3027912443	 1.4713640436	 0.098633
H	-3.799174417	 1.2813993943	-0.8072141153	 0.112852
H	-2.0766028788	 1.7757503148	-0.4107710433	 0.144159
H	-1.1998588399	-1.771808445	-0.4828753597	 0.100922
125.3903	209.5257	285.7227	325.0895	347.7594	453.7242	497.5617	540.2744	600.9202	643.6575	731.8673	763.797	772.2876	787.2086	816.6137	864.9177	925.3891	947.6223	990.9255	1018.8645	1040.1862	1073.0699	1091.5859	1104.5807	1121.6564	1127.47	1136.1124	1167.1229	1207.1775	1226.684	1334.722	1343.8145	1346.5971	1373.3467	1391.8109	1428.2606	1438.1364	1503.567	1680.9683	3098.5033	3118.0848	3131.4073	3138.3856	3150.6086	3157.243	3176.3535	3238.2003	3742.8803
OC1C2C=CC3CN3C12	O[C@H]1[C@H]2C=C[C@H]3CN3[C@@H]12	
InChI=1S/C7H9NO/c9-7-5-2-1-4-3-8(4)6(5)7/h1-2,4-7,9H,3H2	InChI=1S/C7H9NO/c9-7-5-2-1-4-3-8(4)6(5)7/h1-2,4-7,9H,3H2/t4-,5-,6+,7-,8?/m0/s1
