22
gdb 22673	3.94972	0.83111	0.7144	0.995	86.27	-0.2364	0.0145	0.2509	1618.2053	0.193913	-404.337375	-404.327764	-404.326819	-404.372078	36.194	
C	-0.0676636914	 1.6131408321	-0.093361651	-0.386222
C	-0.0543087557	 0.0817353521	-0.1375011312	-0.188886
C	-1.4083354297	-0.5641131771	 0.1624910894	 0.04486
C	-1.4134835363	-2.1046656636	 0.045755966	-0.236767
C	-2.6919606102	-2.5539970905	 0.7799166406	-0.30176
C	-2.9520787556	-1.4440986742	 1.7777397852	 0.406569
C	-1.9486512417	-0.3283777007	 1.5912576196	-0.297313
N	-3.8817789281	-1.3712298668	 2.6425952838	-0.232057
O	-4.688892878	-2.5280760509	 2.6137581108	-0.398283
H	 0.9156582402	 2.0236722944	-0.3427813199	 0.112423
H	-0.7897498298	 2.0231276543	-0.8084192423	 0.114532
H	-0.3385592859	 1.9849979239	 0.9001054415	 0.120275
H	 0.2821753483	-0.2486830054	-1.1288515807	 0.093711
H	 0.6871611675	-0.3010623879	 0.5776877412	 0.09234
H	-2.1497823083	-0.1677574874	-0.5472557396	 0.072958
H	-1.3716931636	-2.4486546957	-0.9914476441	 0.09782
H	-0.5279567948	-2.5066346985	 0.5547142597	 0.09891
H	-3.5507216354	-2.6304859889	 0.1013969621	 0.126472
H	-2.6078826691	-3.5272844014	 1.2717933152	 0.125962
H	-1.1271386177	-0.4443644291	 2.3141291184	 0.111478
H	-2.389002534	 0.6566099473	 1.7573096992	 0.11931
H	-5.3401466309	-2.3345653758	 3.2959531762	 0.303668
62.4364	93.5881	137.0951	171.978	235.3679	247.4785	297.1039	380.1054	390.5702	400.2803	474.2446	506.0325	571.5416	668.3571	773.7889	778.6728	841.9426	861.9331	922.7033	947.614	961.115	981.3954	988.9603	1027.643	1057.4038	1111.1169	1139.2888	1162.8803	1208.0154	1222.3359	1248.3032	1268.9055	1291.2335	1309.9064	1311.0743	1348.6157	1367.3864	1393.4161	1400.0733	1413.4608	1465.2337	1471.9108	1484.6058	1500.2324	1500.7951	1507.2597	1755.3068	2989.6163	3002.6644	3010.1592	3028.4813	3032.4752	3038.8548	3044.1413	3084.3598	3092.6961	3098.6523	3103.4913	3109.0856	3822.3637
CCC1CCC(C1)=NO	CC[C@H]1CCC(=NO)C1	
InChI=1S/C7H13NO/c1-2-6-3-4-7(5-6)8-9/h6,9H,2-5H2,1H3	InChI=1S/C7H13NO/c1-2-6-3-4-7(5-6)8-9/h6,9H,2-5H2,1H3/t6-/m0/s1
