18
gdb 52703	3.89256	0.69559	0.60561	4.1982	78.61	-0.2351	0.0209	0.2559	1802.8922	0.145184	-439.09557	-439.084867	-439.083923	-439.133257	36.973	
C	-0.1617923742	 1.392468539	 0.2977193912	-0.500426
C	-0.1796150333	-0.0449567795	 0.0705917295	 0.118557
C	-0.2009818882	-1.2371907656	-0.0999136517	 0.03032
C	-0.2163848634	-2.6749662878	-0.3614577016	-0.097836
O	-1.3279249091	-3.0312070075	-1.2038067814	-0.417241
C	 1.1325835764	-3.147930196	-0.9476981569	-0.288429
C	 1.3221459394	-4.6659787899	-1.0654881181	 0.36189
N	 0.2413794036	-5.3520488436	-1.5264867719	-0.5094
O	 2.3840747065	-5.1939364228	-0.7949350143	-0.364081
H	 0.5774237693	 1.8896635547	-0.3394521218	 0.153066
H	-1.1400315588	 1.8375239608	 0.0860958381	 0.154244
H	 0.0876300926	 1.6214307275	 1.3393916924	 0.157134
H	-0.4037139365	-3.2163617537	 0.5734933183	 0.129947
H	-1.3503144202	-2.3956366396	-1.9285773298	 0.288994
H	 1.2586432989	-2.6965802273	-1.9400696248	 0.120081
H	 1.949901065	-2.7829561446	-0.3231016484	 0.140753
H	-0.6441095544	-4.8834114802	-1.6501762926	 0.268252
H	 0.3059166064	-6.355613274	-1.5729906262	 0.254176
31.8829	42.728	70.1423	81.116	171.9376	237.6658	279.2905	291.4372	343.8906	354.5287	414.6909	430.6314	495.0207	550.6404	581.6651	618.0163	741.3501	790.0454	866.7311	899.2611	998.0128	1051.2014	1052.7304	1061.8507	1120.1932	1166.7233	1193.7748	1267.0002	1295.5823	1351.7994	1366.4955	1412.3761	1417.8757	1456.8264	1475.7064	1477.6057	1612.7397	1798.8192	2367.9846	3030.8642	3034.2089	3049.6708	3093.5777	3094.355	3124.8447	3554.3115	3708.2862	3800.4652
CC#CC(O)CC(N)=O	CC#C[C@@H](O)CC(=O)N	
InChI=1S/C6H9NO2/c1-2-3-5(8)4-6(7)9/h5,8H,4H2,1H3,(H2,7,9)	InChI=1S/C6H9NO2/c1-2-3-5(8)4-6(7)9/h5,8H,4H2,1H3,(H2,7,9)/t5-/m1/s1
