16
gdb 44667	3.0577	1.81184	1.59828	3.7028	71.85	-0.2332	-0.0052	0.228	875.7952	0.128264	-400.779051	-400.772905	-400.77196	-400.809384	25.824	
O	-0.0095620952	 0.0043498183	 0.1535690823	-0.375043
C	-0.0009191959	 1.2081765576	 0.0313404297	 0.401153
N	-1.1237171126	 2.0172760062	-0.0869402755	-0.300061
C	-0.7992833697	 3.436882703	 0.1602336925	-0.091888
C	-0.7412059766	 3.6445216331	 1.6707373124	-0.08871
C	 0.4998660644	 3.4221951271	 2.1137318613	-0.073141
C	 1.4454346569	 3.2343543687	 0.978296069	-0.076262
C	 0.687105622	 3.5162825648	-0.2809166145	-0.07611
C	 1.1925614727	 2.1186100455	-0.085589529	-0.174689
H	-1.991417275	 1.6326134942	 0.2624737549	 0.242711
H	-1.4786029278	 4.0898985158	-0.3897066255	 0.088002
H	-1.6292982511	 3.7563402363	 2.2816756619	 0.103426
H	 0.8038035106	 3.3584851674	 3.1515702989	 0.107377
H	 2.4859930843	 3.5190554794	 1.0823536462	 0.099692
H	 1.0161593617	 4.1845922519	-1.0657155781	 0.099868
H	 2.0672499012	 1.7285209606	-0.5901426665	 0.113677
142.4653	267.0941	401.2173	455.6478	521.9948	587.3896	643.08	657.9735	735.3028	756.8293	766.527	807.1701	827.6192	833.1058	901.9761	922.5294	940.0518	960.8352	986.8203	1009.1744	1036.0542	1052.8839	1092.9048	1119.8936	1130.9802	1220.22	1259.8717	1287.3383	1316.2482	1339.2061	1366.2811	1379.8217	1407.7975	1652.9609	1827.7592	3096.8846	3179.8929	3194.5711	3195.0598	3205.5079	3219.6475	3594.7715
O=C1NC2C=CC3C2C13	O=C1N[C@H]2C=C[C@@H]3[C@H]2[C@H]13	
InChI=1S/C7H7NO/c9-7-6-3-1-2-4(8-7)5(3)6/h1-6H,(H,8,9)	InChI=1S/C7H7NO/c9-7-6-3-1-2-4(8-7)5(3)6/h1-6H,(H,8,9)/t3-,4+,5-,6-/m1/s1
