17
gdb 74675	2.58496	1.68071	1.47879	2.6374	78.53	-0.2377	0.0012	0.2389	979.0476	0.1368	-384.712696	-384.70537	-384.704426	-384.744205	29.263	
C	-0.0983167061	 1.5019897396	 0.0369073724	-0.508652
C	 0.0000558348	 0.0143440349	-0.0207169152	 0.340191
C	-0.0304559933	-0.8027573281	-1.0865260034	-0.190645
C	 0.0760474202	-2.2450055661	-0.6140513638	-0.206514
C	 1.3929868772	-2.4608352932	 0.1143858961	-0.080191
C	 1.4226808296	-1.6533764658	 1.1847556402	-0.088523
C	 0.1277653008	-0.8593161997	 1.2271415976	-0.260013
C	-0.7927139812	-2.0253153017	 0.6877912278	 0.428461
O	-1.7781037177	-2.5365715258	 1.1033844487	-0.31258
H	 0.8057985988	 1.9443935329	 0.4737853332	 0.131148
H	-0.2397329551	 1.9314708122	-0.9587408318	 0.128572
H	-0.9385305914	 1.8188646343	 0.6672885977	 0.133788
H	-0.1398512944	-0.5174436827	-2.1244660326	 0.104901
H	-0.2430254876	-3.0191114158	-1.3084470392	 0.081433
H	 2.1406805265	-3.1787305776	-0.1935709403	 0.110247
H	 2.1984132431	-1.5759662142	 1.9340576217	 0.109998
H	-0.1435749343	-0.3983104431	 2.175332291	 0.078379
126.5031	175.3645	210.6192	290.7552	397.815	434.315	488.3923	568.4113	592.4957	614.2577	727.3172	755.5415	780.6506	809.2102	833.1825	876.4468	915.5762	929.18	964.359	978.0844	992.6771	1042.0913	1064.3814	1100.1246	1144.8525	1173.1729	1202.6715	1233.8384	1262.7008	1309.7644	1334.0339	1413.2854	1478.2662	1485.9336	1606.8953	1673.0509	1909.4096	3018.6455	3066.5834	3110.1927	3136.6982	3146.9211	3215.7251	3218.4851	3239.3634
CC1=CC2C=CC1C2=O	CC1=C[C@H]2C=C[C@@H]1C2=O	
InChI=1S/C8H8O/c1-5-4-6-2-3-7(5)8(6)9/h2-4,6-7H,1H3	InChI=1S/C8H8O/c1-5-4-6-2-3-7(5)8(6)9/h2-4,6-7H,1H3/t6-,7+/m1/s1
