21
gdb 110023	2.05441	1.55836	1.00193	1.9914	78.71	-0.2364	-0.0236	0.2128	1250.5905	0.181444	-424.258316	-424.248813	-424.247869	-424.292788	35.148	
C	 0.0205567077	 1.6527606238	 0.073905239	-0.391714
C	 0.0410523594	 0.122017983	 0.1188588212	-0.188648
C	-1.3606424396	-0.5147813149	-0.0282554143	-0.126778
C	-1.3833005445	-2.0599865008	-0.0270552436	 0.11709
C	-0.2360238901	-2.7992930635	-0.6895627072	-0.414137
O	-1.4088071467	-2.4226325627	 1.3639542509	-0.262683
C	-2.2635011826	-1.5154633637	 2.0245957599	-0.177853
C	-2.2100278269	-0.2167517524	 1.2131083501	 0.367482
O	-2.7393082929	 0.8219688788	 1.5125388502	-0.310698
H	 1.0311116705	 2.0536398552	 0.1986626626	 0.111602
H	-0.3642959858	 2.009719178	-0.887726202	 0.114932
H	-0.6157083209	 2.0716382778	 0.8570390359	 0.145987
H	 0.6762776525	-0.2547616442	-0.6901184083	 0.105634
H	 0.4992492043	-0.2239896104	 1.0534850676	 0.110723
H	-1.8535432268	-0.0977096328	-0.9121759134	 0.095353
H	-2.3309189081	-2.3844396028	-0.4921093186	 0.069828
H	 0.7187346764	-2.5502090015	-0.2208799206	 0.131057
H	-0.3899631835	-3.8775692044	-0.5945643159	 0.129144
H	-0.1820394372	-2.5525013723	-1.7542955673	 0.119321
H	-3.3081324605	-1.8699294918	 2.0549749056	 0.117712
H	-1.9260672946	-1.3655113283	 3.0545461881	 0.136648
63.2977	100.0541	172.3167	180.8865	212.9561	233.4984	258.0875	303.0276	361.5094	461.0026	504.257	561.8351	635.4322	664.6764	746.5584	827.38	841.5917	881.8726	923.0587	978.7742	1021.1903	1038.3439	1062.3252	1090.268	1115.209	1148.5056	1170.1245	1187.9873	1221.1398	1239.3132	1279.8634	1324.7398	1335.1783	1357.5339	1372.3147	1393.2665	1415.8877	1419.9737	1476.8945	1484.3482	1490.1198	1497.9349	1504.8961	1509.6411	1848.0777	2942.4428	2966.7213	3030.6567	3038.4569	3048.4754	3060.5322	3073.4199	3084.6829	3102.3869	3119.0587	3128.9614	3131.8348
CCC1C(C)OCC1=O	CC[C@H]1[C@@H](C)OCC1=O	
InChI=1S/C7H12O2/c1-3-6-5(2)9-4-7(6)8/h5-6H,3-4H2,1-2H3	InChI=1S/C7H12O2/c1-3-6-5(2)9-4-7(6)8/h5-6H,3-4H2,1-2H3/t5-,6+/m1/s1
