17
gdb 77015	2.30816	1.25709	0.97337	4.9335	79.43	-0.2474	0.0142	0.2616	1245.4412	0.133675	-380.814886	-380.805462	-380.804518	-380.849715	33.963	
C	-0.1347058455	 1.4642932256	 0.6373429822	-0.424721
C	 0.085349231	 0.0234202115	 0.2379968435	 0.002616
C	 0.402728786	-0.3773796058	-1.1812897246	-0.209063
C	 0.5693224129	 0.6227810765	-2.1978545522	 0.343248
C	 0.7240441015	 1.4428447375	-3.064870721	-0.455402
N	 1.3940662973	-0.5361074308	-0.0918032444	-0.107319
C	 2.565363606	 0.3347437896	-0.0752634613	-0.293084
C	 3.7153662479	-0.3541651707	-0.6734407085	 0.288077
N	 4.6314447333	-0.874084543	-1.1465305176	-0.300674
H	 0.2340136509	 1.646602222	 1.6524772962	 0.12932
H	 0.3465392152	 2.1675849007	-0.0445581976	 0.137949
H	-1.2071021732	 1.6825929161	 0.633304428	 0.135057
H	-0.5223361873	-0.6850377731	 0.7993999833	 0.108542
H	 0.0208177586	-1.3279847632	-1.5458241641	 0.127509
H	 0.8550350546	 2.1579526838	-3.8395224888	 0.210195
H	 2.4354409046	 1.2880401824	-0.6063337927	 0.151536
H	 2.8078243261	 0.564731011	 0.9681516997	 0.156211
37.2057	119.4284	148.8173	160.5439	178.141	236.3921	326.8956	365.5705	383.1213	466.86	528.3267	591.902	597.1604	618.2475	673.4835	731.1175	816.5239	870.3403	939.6871	983.9312	1002.6601	1046.3697	1056.5627	1125.026	1157.5219	1179.5362	1271.171	1327.1884	1361.3168	1377.9885	1408.0855	1419.6466	1464.2254	1491.6976	1499.7239	2230.2446	2369.6529	3010.6752	3042.8141	3072.4799	3102.6534	3110.7335	3135.0425	3140.2131	3499.7594
CC1C(C#C)N1CC#N	C[C@H]1[C@@H](C#C)N1CC#N	
InChI=1S/C7H8N2/c1-3-7-6(2)9(7)5-4-8/h1,6-7H,5H2,2H3	InChI=1S/C7H8N2/c1-3-7-6(2)9(7)5-4-8/h1,6-7H,5H2,2H3/t6-,7+,9?/m0/s1
