20
gdb 58846	2.52418	1.44937	1.07758	3.4177	79.22	-0.2414	0.0114	0.2528	1181.6555	0.170461	-403.151799	-403.142798	-403.141854	-403.185523	34.287	
C	-0.0421036182	 1.5656743744	 0.2086419596	-0.393127
C	 0.025641734	 0.0377013292	 0.0392050432	-0.081658
C	 0.8954189812	-0.6127380355	 1.1222361873	-0.405313
C	-1.3731144127	-0.528056989	-0.0310582789	 0.202873
C	-2.2432133897	-0.9666670042	 1.1571651856	-0.331737
C	-1.9520861668	-1.9319311809	 0.0485638999	-0.074598
N	-2.783718931	-1.6605821576	-1.1293280088	-0.345393
C	-2.3436692475	-0.3233262862	-1.1935376949	 0.37263
O	-2.6481495208	 0.5854660962	-1.914808667	-0.349781
H	 0.9592699459	 2.005856472	 0.1634372517	 0.107643
H	-0.6557297505	 2.0154793696	-0.5762530926	 0.147703
H	-0.4832873825	 1.8284775938	 1.1768388452	 0.112049
H	 0.4962798048	-0.1682601322	-0.9323440216	 0.088495
H	 0.5220982012	-0.3874907515	 2.1272902607	 0.117407
H	 0.938374795	-1.7012401116	 1.0100178547	 0.113224
H	 1.9193519692	-0.2311686123	 1.0622146301	 0.119394
H	-1.7018173876	-1.116293623	 2.0868258227	 0.124429
H	-3.2482837515	-0.572562193	 1.2803058263	 0.119888
H	-1.4343816892	-2.8760131956	 0.1547741985	 0.115736
H	-3.7633038232	-1.9170476727	-1.1939127017	 0.240137
53.021	136.3795	196.8192	217.7358	247.9268	268.7948	297.1126	351.7615	417.1205	468.6594	551.4411	612.6632	654.7467	714.5257	778.4445	859.3742	864.4109	910.9723	923.648	932.8661	968.7428	975.6893	1010.6175	1058.0209	1089.8064	1118.0293	1135.0209	1143.9981	1183.1533	1230.9518	1279.2647	1322.6537	1343.3262	1359.2086	1396.4395	1399.6927	1421.5745	1486.0203	1489.7828	1494.5714	1506.0282	1514.9483	1886.3562	3005.1304	3029.4832	3033.1234	3095.7787	3099.774	3104.44	3115.5476	3122.3107	3200.9791	3209.3484	3535.3117
CC(C)C12CC1NC2=O	CC(C)[C@]12C[C@H]1NC2=O	
InChI=1S/C7H11NO/c1-4(2)7-3-5(7)8-6(7)9/h4-5H,3H2,1-2H3,(H,8,9)	InChI=1S/C7H11NO/c1-4(2)7-3-5(7)8-6(7)9/h4-5H,3H2,1-2H3,(H,8,9)/t5-,7-/m1/s1
