21
gdb 111326	2.43451	1.41502	1.06509	1.3599	82.74	-0.2251	0.0762	0.3014	1219.7506	0.183244	-383.195215	-383.186545	-383.185601	-383.228552	33.587	
C	 0.0816423971	 1.6078216937	 0.062293473	-0.383742
C	-0.0628646089	 0.083718301	-0.0006902886	-0.190421
C	 0.6494801429	-0.5319930958	-1.1990745494	-0.082822
C	 2.194327687	-0.5725587528	-1.1986336287	-0.054878
N	 2.6007709636	-1.4470639686	-0.0712276194	-0.338455
C	 2.2039269313	-2.051168115	-1.3722505351	-0.146379
C	 0.690189687	-2.0797673228	-1.3585678853	 0.384086
C	-0.2384348873	-3.1084991677	-0.8554553589	-0.300725
N	-0.088777394	-2.8612064216	-2.3102697342	-0.384223
H	 1.1342198837	 1.9013901636	 0.1376982897	 0.11875
H	-0.333023149	 2.0872014222	-0.8320756259	 0.109041
H	-0.4390099854	 2.02003464	 0.9320662829	 0.112862
H	 0.3403222511	-0.3702702944	 0.9101687666	 0.121436
H	-1.1280830625	-0.1808929148	-0.041141797	 0.086213
H	 0.2952086167	-0.0831220857	-2.1364823084	 0.071702
H	 2.8709911005	 0.1725215321	-1.5976961485	 0.092667
H	 3.62039335	-1.4430779885	-0.0449554917	 0.228481
H	 2.8723442428	-2.6923160976	-1.9328908721	 0.099899
H	 0.1386336773	-4.0681834924	-0.5130583267	 0.11841
H	-1.1498117262	-2.7778419074	-0.3634356617	 0.110846
H	-0.8763104576	-2.3143478977	-2.6525081504	 0.227252
84.1456	125.6713	158.15	207.5511	262.3687	275.885	297.4228	430.762	492.5372	552.6777	607.108	744.1582	788.7704	826.694	837.5903	864.1387	895.0575	907.8512	930.8001	938.5973	970.4791	979.263	1021.2225	1042.7264	1058.8453	1089.9134	1104.1751	1121.3363	1125.1757	1165.384	1196.5145	1250.75	1255.7179	1277.7731	1291.7783	1316.787	1347.7199	1362.454	1385.0517	1411.0083	1438.711	1485.719	1500.439	1505.1758	1517.7205	3017.4927	3022.7504	3028.7877	3075.1721	3099.0246	3102.9065	3106.1582	3187.8806	3190.5088	3202.2712	3469.3985	3482.4976
CCC1C2NC2C11CN1	CC[C@H]1[C@H]2N[C@H]2[C@]21CN2	
InChI=1S/C7H12N2/c1-2-4-5-6(9-5)7(4)3-8-7/h4-6,8-9H,2-3H2,1H3	InChI=1S/C7H12N2/c1-2-4-5-6(9-5)7(4)3-8-7/h4-6,8-9H,2-3H2,1H3/t4-,5+,6+,7+/m0/s1
