18
gdb 114913	3.02615	1.29148	0.94314	0.6142	75.22	-0.2238	-0.0559	0.1679	1235.2239	0.14867	-435.289221	-435.280212	-435.279268	-435.323244	33.26	
C	-0.0635232858	 1.494621429	-0.0332821323	-0.325368
N	 0.0984270269	 0.0439809411	 0.0512861227	-0.293734
C	 0.6625360965	-0.5606027657	-1.1466362511	-0.099947
C	 1.0903386458	-2.0329195878	-0.9492535935	-0.199485
N	 0.5363712547	-2.839161137	-2.0461631202	-0.28611
C	-0.247645477	-2.1082369937	-2.7511928622	 0.297883
N	-0.9466049818	-2.4812598692	-3.8539519529	-0.568275
C	-0.3633833064	-0.6859870237	-2.2760870515	 0.370592
O	-1.1285855586	 0.1370451772	-2.7178475844	-0.330691
H	 0.8746757253	 2.0310952232	-0.2636971172	 0.092223
H	-0.7864213053	 1.7335256783	-0.8155887875	 0.156391
H	-0.4495999991	 1.8684917417	 0.919163414	 0.116558
H	 0.6979042899	-0.1819058236	 0.837767722	 0.223434
H	 1.5117858186	 0.0188042073	-1.5632457979	 0.084103
H	 2.1785684035	-2.1536205758	-0.9235210622	 0.11084
H	 0.6990701755	-2.4093190945	 0.0045367843	 0.117976
H	-1.0836743776	-3.46377582	-4.0256042127	 0.264159
H	-1.6799930851	-1.8512790367	-4.1401902373	 0.269452
43.5371	124.5623	190.3639	217.8427	250.9037	281.8306	296.8121	376.2384	393.888	459.852	501.8268	572.6518	603.9021	689.8824	715.9091	775.5471	841.0854	933.6931	974.3975	1026.4507	1040.5323	1076.1869	1143.302	1162.2173	1171.5091	1198.1946	1242.2676	1282.02	1310.6158	1366.2052	1420.6588	1455.1073	1480.3409	1491.8731	1498.0912	1523.9555	1608.7543	1725.4962	1827.4675	2888.4402	2944.2535	3025.9174	3066.2346	3082.3822	3136.9827	3519.0624	3588.2974	3711.1431
CNC1CN=C(N)C1=O	CN[C@H]1CN=C(N)C1=O	
InChI=1S/C5H9N3O/c1-7-3-2-8-5(6)4(3)9/h3,7H,2H2,1H3,(H2,6,8)	InChI=1S/C5H9N3O/c1-7-3-2-8-5(6)4(3)9/h3,7H,2H2,1H3,(H2,6,8)/t3-/m0/s1
