23
gdb 88608	3.45453	1.12549	1.02066	0.208	89.82	-0.2605	0.0892	0.3496	1295.0657	0.207096	-351.089177	-351.080771	-351.079827	-351.122484	33.515	
C	 2.6845239834	 0.1435243525	-0.4094802308	-0.407899
C	 1.3264142333	-0.5084376307	-0.2687734109	-0.002807
C	 1.1541056821	-1.7546249167	 0.5598315903	-0.28934
C	 0.5481242171	-0.449485143	 1.0310995317	-0.064059
C	 1.0669123907	 0.3248368161	 2.2253893174	 0.046187
C	 0.2710750222	 0.3196835049	 3.5726690744	-0.058207
C	 0.7952376989	-1.1239040587	 3.8229709369	-0.217742
C	 2.0169956277	-0.3125105364	 3.2969302952	-0.050177
C	 1.5716291795	 0.8294455798	 4.2541450806	-0.226671
H	 3.2741634353	 0.0479894674	 0.5073133614	 0.119459
H	 3.2583623675	-0.3193034693	-1.2199947071	 0.11382
H	 2.596345315	 1.2125443304	-0.6354479504	 0.114701
H	 0.7195355364	-0.4573271342	-1.1695315108	 0.077855
H	 0.4944591904	-2.5401602479	 0.2063178033	 0.104763
H	 2.0268360554	-2.1182238987	 1.0937232385	 0.11105
H	-0.5297142158	-0.3708799959	 0.903903998	 0.080508
H	 1.3741767749	 1.3336917553	 1.9228145552	 0.062159
H	-0.744154954	 0.690554001	 3.7287298072	 0.062941
H	 0.843872864	-1.4468392568	 4.8669419873	 0.084032
H	 0.4058975995	-1.9137416104	 3.1803710175	 0.10342
H	 3.0351076044	-0.6767760764	 3.1441955238	 0.063931
H	 1.8984204583	 1.8421680568	 4.0004854009	 0.085568
H	 1.670222074	 0.6315095609	 5.3248185305	 0.086509
51.8719	129.4753	169.4706	216.7247	262.2163	333.8677	404.8423	463.6812	560.041	593.6533	766.4741	774.4973	801.3324	831.2921	872.2231	883.1667	892.1062	899.8262	906.5026	930.9104	980.1701	1015.6384	1023.1192	1028.299	1064.5871	1066.4783	1088.6536	1105.7895	1110.1357	1124.903	1141.0375	1151.6528	1169.8736	1194.6258	1199.4193	1216.8729	1237.4312	1248.2245	1251.992	1276.334	1375.4748	1397.615	1408.8335	1422.76	1488.4203	1494.5941	1497.5203	1504.3421	1535.9409	3019.9377	3027.5402	3045.3907	3057.5768	3082.762	3083.9807	3091.4078	3101.0556	3111.0195	3117.3324	3123.7402	3135.3083	3135.6576	3206.9743
CC1CC1C1C2CC1C2	C[C@H]1C[C@H]1[C@H]1[C@H]2C[C@@H]1C2	
InChI=1S/C9H14/c1-5-2-8(5)9-6-3-7(9)4-6/h5-9H,2-4H2,1H3	InChI=1S/C9H14/c1-5-2-8(5)9-6-3-7(9)4-6/h5-9H,2-4H2,1H3/t5-,6-,7+,8+,9-/m0/s1
