17
gdb 65313	3.01317	1.2289	1.12057	2.6263	71.57	-0.2297	-0.0304	0.1993	1139.4931	0.133683	-458.933643	-458.92507	-458.924126	-458.967124	31.772	
O	-0.1154988122	 1.3668677963	-0.1489726141	-0.472602
C	-0.0528928757	-0.0120721997	-0.020007974	 0.262786
C	-0.3704823457	-0.6343032315	 1.3501049227	-0.42301
C	-1.3537166538	-0.7593613872	 0.251521438	 0.381372
C	-2.7427281103	-0.172540393	 0.0612974831	-0.343957
C	-3.0172147201	-1.504275302	-0.674632383	-0.077426
O	-1.6877744153	-1.9994153693	-0.3579782155	-0.304622
C	 0.9785252877	-0.6488165204	-0.8567854137	 0.102268
O	 1.6775165365	 0.0143600644	-1.5951861004	-0.300826
H	 0.5635475936	 1.5765188927	-0.812104063	 0.297029
H	 0.190462088	-1.5191985876	 1.6356903992	 0.135378
H	-0.5734001917	 0.0744738099	 2.146218387	 0.143086
H	-3.3121190971	-0.0270719492	 0.9809078677	 0.122018
H	-2.7758577724	 0.7351431615	-0.5413917748	 0.13795
H	-3.791599175	-2.1461702494	-0.2442795352	 0.115947
H	-3.1677414279	-1.4216232014	-1.7562221332	 0.116675
H	 1.0711343712	-1.7479301843	-0.7843384506	 0.107935
75.2086	112.5279	147.2964	190.3256	266.9809	308.6701	385.221	404.3314	449.2615	509.8197	545.3986	640.7397	787.7771	833.7466	845.7048	863.2175	887.2709	906.3213	967.23	1005.2322	1020.6757	1050.2105	1088.6461	1105.9268	1159.954	1184.4085	1207.6994	1246.201	1323.2625	1345.3314	1359.6423	1385.2705	1434.4574	1484.2901	1491.8037	1531.2142	1775.9033	2970.9651	3040.2528	3084.7749	3091.1844	3124.6368	3145.699	3222.8169	3672.5809
OC1(CC11CCO1)C=O	O[C@]1(C[C@]21CCO2)C=O	
InChI=1S/C6H8O3/c7-4-5(8)3-6(5)1-2-9-6/h4,8H,1-3H2	InChI=1S/C6H8O3/c7-4-5(8)3-6(5)1-2-9-6/h4,8H,1-3H2/t5-,6+/m1/s1
