20
gdb 67957	2.26608	1.78816	1.305	3.7104	78.55	-0.2376	0.0151	0.2526	1058.2501	0.172416	-403.189654	-403.181522	-403.180577	-403.222192	31.867	
C	-0.0621491095	 1.622640115	 0.0400402681	-0.453633
C	-0.0231231375	 0.1026162023	-0.0187399197	 0.356498
C	-1.3345608735	-0.6238657733	 0.4126282487	-0.447032
C	-0.4537178643	-1.3302939481	 1.4593048823	 0.405676
O	-0.5766371246	-2.2574357705	 2.2117262662	-0.350383
N	 0.6623897907	-0.5415475129	 1.1490155142	-0.120533
C	 1.9394612163	-1.1350406848	 0.7649502543	-0.196163
C	 1.7098549518	-1.5246388659	-0.7162914481	-0.217301
C	 0.7361972242	-0.4476449862	-1.2586382407	-0.280108
H	 0.9480455947	 2.0433602299	-0.0028458304	 0.118961
H	-0.6286262366	 2.0248338706	-0.8072997945	 0.120138
H	-0.5347927388	 1.9676752318	 0.9642523405	 0.122876
H	-2.128906162	 0.0153456786	 0.8047468475	 0.126601
H	-1.7590107917	-1.3167780056	-0.3178376462	 0.129517
H	 2.7452524958	-0.400798373	 0.8740521457	 0.109536
H	 2.1592258156	-1.9876339877	 1.4108008427	 0.137105
H	 2.6371724747	-1.578880956	-1.2923671777	 0.104284
H	 1.2427427499	-2.5144365441	-0.7536138754	 0.118975
H	 0.0575899634	-0.8483415837	-2.0161799041	 0.109503
H	 1.2952027412	 0.3666536339	-1.7308720136	 0.105485
98.3321	118.2141	222.8657	240.6835	298.2323	341.5053	357.2883	492.2149	555.6657	586.8496	596.4617	635.6323	765.212	788.1785	847.0185	875.4709	903.558	906.8911	949.4782	963.4984	1011.2519	1046.2929	1062.0377	1088.0538	1115.0812	1181.0636	1196.4907	1207.3331	1234.1278	1257.2842	1274.667	1315.6276	1330.0701	1345.0127	1354.4118	1411.2601	1453.7602	1486.1359	1489.0526	1492.0313	1495.7746	1507.4075	1878.6369	3030.0653	3043.4961	3050.8825	3051.6092	3072.2711	3093.4438	3097.7636	3106.0213	3110.9167	3121.1978	3128.0342
CC12CC(=O)N1CCC2	C[C@]12CC(=O)N1CCC2	
InChI=1S/C7H11NO/c1-7-3-2-4-8(7)6(9)5-7/h2-5H2,1H3	InChI=1S/C7H11NO/c1-7-3-2-4-8(7)6(9)5-7/h2-5H2,1H3/t7-/m0/s1
