14
gdb 129536	5.13336	1.04997	0.87279	1.104	64.65	-0.233	0.0221	0.2551	1231.2996	0.102704	-470.062551	-470.054609	-470.053665	-470.096405	28.807	
N	-0.0624122936	 1.2574619108	 0.3443856235	-0.561539
C	-0.4828123246	 0.0996385069	-0.2370324804	 0.491453
O	-0.9834018476	 0.0038826513	-1.3291059982	-0.375828
O	-0.264670019	-0.9237725395	 0.6443730715	-0.268725
C	-0.6279852864	-2.2076089615	 0.3429464813	 0.424933
N	-0.2599848757	-3.123023594	 1.227203808	-0.308125
N	-0.7463535444	-4.2706717858	 0.7106770382	-0.177899
C	-1.4002190275	-4.093920002	-0.4594669484	-0.025151
C	-1.3503711367	-2.7456911849	-0.7463398668	-0.304547
H	 0.0011004841	 2.0643176333	-0.250843742	 0.272678
H	 0.5063598558	 1.2175545159	 1.1723198642	 0.272428
H	-0.5916732978	-5.126990596	 1.2129890769	 0.278413
H	-1.8441199481	-4.9187608584	-0.9943099513	 0.136516
H	-1.7539308685	-2.2242327261	-1.5922770266	 0.145394
25.1251	81.0236	187.8845	288.002	339.2788	383.9466	395.9663	466.5853	522.3315	632.3328	660.0749	714.75	761.3628	768.1532	773.2638	851.3747	938.7872	959.5499	1041.8333	1084.4829	1103.1868	1118.3325	1232.9787	1304.6726	1353.8307	1405.2223	1488.1097	1498.3079	1580.7589	1610.9302	1848.9337	3262.4737	3332.1954	3621.7682	3689.0232	3755.0662
NC(=O)OC1=NNC=C1	NC(=O)Oc1n[nH]cc1	
InChI=1S/C4H5N3O2/c5-4(8)9-3-1-2-6-7-3/h1-2H,(H2,5,8)(H,6,7)	InChI=1S/C4H5N3O2/c5-4(8)9-3-1-2-6-7-3/h1-2H,(H2,5,8)(H,6,7)
