23
gdb 119090	2.07647	1.18474	0.90133	0.4681	81.76	-0.2442	0.08	0.3243	1409.5693	0.204161	-425.40113	-425.390784	-425.389839	-425.436625	38.039	
C	 0.8883736485	 0.4596064123	-1.2349199752	-0.256211
O	 0.06628012	 0.3605951131	-0.0918539541	-0.291107
C	 0.4937936801	-0.5716656511	 0.8892446616	 0.426713
C	 1.8140104666	-0.1603064155	 1.5497934925	-0.240426
C	 1.8037944364	 1.2564399301	 2.1118668422	-0.080431
O	 3.0580629868	 1.4732679156	 2.7455929406	-0.423834
C	-0.649013983	-0.8725572966	 1.8959978179	-0.271269
C	-0.3326875618	-2.3860665354	 1.7656109554	-0.218923
C	 0.4665502344	-2.0773324166	 0.4710487039	-0.275288
H	 1.0605274161	-0.5199683138	-1.7044543493	 0.107532
H	 0.3627283299	 1.0994616008	-1.9483625992	 0.124636
H	 1.8656682352	 0.9134440781	-1.0169087198	 0.108529
H	 2.03960827	-0.858696133	 2.3638623349	 0.107745
H	 2.6411728833	-0.2505698271	 0.8357147758	 0.102604
H	 1.6327873633	 1.9788905683	 1.3012527539	 0.096884
H	 0.9734432628	 1.3722924106	 2.8261386926	 0.087798
H	 3.0717974643	 2.375602888	 3.0773632378	 0.284041
H	-0.5830190433	-0.4195550542	 2.8878958146	 0.095593
H	-1.6099022936	-0.6112977108	 1.4470841028	 0.110717
H	 0.3080180043	-2.7495861058	 2.5729263957	 0.10578
H	-1.1832211456	-3.0638417151	 1.6720192532	 0.10047
H	-0.1473478915	-2.2116844145	-0.4235676534	 0.104768
H	 1.4250954267	-2.5831824677	 0.3289911955	 0.093677
66.6459	107.7729	122.382	145.8504	168.575	207.2128	258.5149	274.6842	326.2438	343.8266	389.9226	447.1306	515.3808	650.075	737.3238	794.3458	800.6531	869.5032	909.9467	938.2393	943.6184	997.0122	1006.5325	1048.2474	1054.5374	1095.8937	1111.9071	1178.5164	1182.0456	1192.0516	1203.4752	1227.9842	1238.9643	1249.7388	1252.7739	1276.7297	1289.5963	1297.6264	1326.2165	1348.6762	1460.0798	1465.7788	1475.5418	1482.3857	1486.061	1501.1663	1504.8991	1508.9131	1528.1283	2978.1263	2986.4408	3014.9379	3033.0355	3039.6955	3055.5521	3063.6369	3069.5767	3076.6757	3104.3019	3108.9798	3116.6267	3129.539	3829.7886
COC1(CCO)CCC1	COC1(CCO)CCC1	
InChI=1S/C7H14O2/c1-9-7(5-6-8)3-2-4-7/h8H,2-6H2,1H3	InChI=1S/C7H14O2/c1-9-7(5-6-8)3-2-4-7/h8H,2-6H2,1H3
