23
gdb 86743	4.11636	0.92551	0.81676	0.1772	92.23	-0.2348	0.0277	0.2625	1502.9017	0.206826	-351.159279	-351.150271	-351.149327	-351.193402	34.892	
C	 0.099826803	 1.652815151	-0.1290260988	-0.395248
C	 0.0295353648	 0.1253199717	-0.0127486499	-0.0018
C	 0.7910621834	-0.6239888299	-1.1413915659	-0.241862
C	 1.4765910955	-1.8537579378	-0.4773804833	-0.049464
C	 1.4654632188	-1.4732697686	 0.9895408927	-0.086358
C	 0.6748252592	-0.4318998801	 1.2382879319	-0.066763
C	 0.75354722	-3.1695787991	-0.7258130557	 0.044575
C	 1.0535832447	-3.9885482214	-1.9560413102	-0.276065
C	 1.484185791	-4.4816059013	-0.5953334207	-0.274072
H	 1.1398091816	 1.996978444	-0.1055236673	 0.113991
H	-0.348536667	 1.9974191591	-1.067098273	 0.111572
H	-0.4338415806	 2.140818398	 0.6938629273	 0.109047
H	-1.034358912	-0.1578639374	-0.0211430067	 0.074886
H	 0.1405387579	-0.9136531336	-1.9712311526	 0.09576
H	 1.5583507162	 0.042227485	-1.5510274537	 0.093648
H	 2.5035295892	-1.9718911521	-0.8499053523	 0.062213
H	 2.0033413849	-2.0471697623	 1.7368678626	 0.088769
H	 0.4757964698	-0.017025114	 2.2217802192	 0.085239
H	-0.2821952477	-3.1707201599	-0.3937839258	 0.079223
H	 0.2352050223	-4.4973347541	-2.4534988971	 0.108117
H	 1.8242091431	-3.6266804084	-2.6294826232	 0.10808
H	 2.5436360552	-4.4496116307	-0.3606109536	 0.107749
H	 0.9619483565	-5.328071208	-0.1631574837	 0.108764
58.0176	79.6767	150.5358	214.8944	246.4095	286.3361	305.8074	390.8832	431.9814	529.7751	655.4144	743.892	777.8076	784.1979	817.0421	827.1115	847.1516	903.59	919.585	927.0236	946.0166	977.0891	1003.2669	1027.8489	1055.6452	1072.327	1078.7648	1085.5011	1121.0969	1138.5102	1142.5856	1172.1952	1198.0289	1223.3908	1235.6909	1277.8987	1299.3454	1304.0059	1326.4679	1343.9701	1383.2752	1409.2738	1412.6696	1469.855	1489.3198	1497.0775	1500.7758	1504.6259	1685.8325	2977.2425	3000.9759	3025.0786	3043.2368	3091.1153	3094.9573	3097.5193	3125.8545	3128.8172	3133.376	3169.4435	3197.2079	3203.3637	3218.484
CC1CC(C=C1)C1CC1	C[C@H]1C[C@@H](C=C1)C1CC1	
InChI=1S/C9H14/c1-7-2-3-9(6-7)8-4-5-8/h2-3,7-9H,4-6H2,1H3	InChI=1S/C9H14/c1-7-2-3-9(6-7)8-4-5-8/h2-3,7-9H,4-6H2,1H3/t7-,9-/m1/s1
