25
gdb 88951	2.95571	0.89111	0.85246	1.669	89.63	-0.257	0.0761	0.3331	1564.0087	0.225759	-389.488583	-389.477493	-389.476549	-389.525031	41.446	
C	 0.3349248709	 1.4863675902	-0.3501076266	-0.419155
C	-0.0566507464	 0.0926547882	 0.0709587184	 0.075257
O	 0.9834852263	-0.8853112881	 0.1769512252	-0.260801
C	 0.2648382448	-0.529965327	 1.3690060951	 0.049968
C	 1.0222421088	 0.1482825657	 2.4863747121	-0.232653
C	 1.895483878	-0.778920238	 3.374371757	 0.267693
C	 2.9949766482	-1.4551855955	 2.5344404926	-0.396969
C	 2.5536127817	 0.0943412458	 4.4588134292	-0.404407
C	 1.0335211866	-1.855706366	 4.0599536493	-0.405525
H	 1.2274410097	 1.8367723248	 0.1709619805	 0.128633
H	 0.5416691529	 1.5086582266	-1.4253448914	 0.128872
H	-0.4837494611	 2.1874967956	-0.1537380021	 0.120699
H	-0.9505352737	-0.284564651	-0.4322164601	 0.082736
H	-0.422840803	-1.3115249931	 1.6985861512	 0.085556
H	 1.6634005617	 0.9301407845	 2.0674403811	 0.095928
H	 0.2860457865	 0.6533148665	 3.1281334897	 0.092935
H	 3.632711593	-0.7101324105	 2.0467872966	 0.10688
H	 3.6338274033	-2.0775834316	 3.1709801424	 0.100865
H	 2.5742611371	-2.0889512141	 1.7499968662	 0.133835
H	 1.8016731418	 0.5799644285	 5.0911379386	 0.105034
H	 3.1967066379	-0.5088701158	 5.1087514627	 0.107997
H	 3.1738738868	 0.8799198172	 4.0129155137	 0.107486
H	 0.5912757849	-2.5481825589	 3.3371501129	 0.115242
H	 1.6418664151	-2.4508371949	 4.749425188	 0.109783
H	 0.2193994883	-1.4057755392	 4.6400056077	 0.104113
27.2343	88.3973	131.1176	166.8575	215.8871	229.8685	267.5685	277.2575	292.3752	332.3503	364.9531	387.5838	409.2728	441.1187	501.619	530.7144	749.2521	761.0757	835.6428	890.0206	914.5357	934.4802	940.3379	956.4887	962.0582	1003.8523	1037.0747	1054.4907	1094.4439	1105.6077	1171.0914	1176.4641	1211.4448	1227.5221	1268.4195	1304.8681	1312.9636	1341.827	1399.9824	1402.7258	1404.9942	1419.826	1434.5961	1462.9005	1468.9756	1481.1465	1484.3495	1486.4371	1490.255	1506.2002	1509.3168	1512.474	1518.4297	3008.8638	3021.3415	3025.6129	3033.9473	3038.6402	3068.8531	3076.9805	3088.1643	3089.6466	3091.1628	3093.7286	3097.9727	3098.1125	3102.4044	3122.3508	3138.0441
CC1OC1CC(C)(C)C	C[C@H]1O[C@H]1CC(C)(C)C	
InChI=1S/C8H16O/c1-6-7(9-6)5-8(2,3)4/h6-7H,5H2,1-4H3	InChI=1S/C8H16O/c1-6-7(9-6)5-8(2,3)4/h6-7H,5H2,1-4H3/t6-,7+/m1/s1
