21
gdb 68081	2.50408	1.66728	1.22109	1.5877	77.99	-0.244	0.0705	0.3145	1088.0817	0.182753	-424.220573	-424.212099	-424.211155	-424.252811	34.106	
C	-0.055074541	 1.5341650755	 0.0036722289	-0.479039
C	 0.040118567	 0.0191027044	-0.0030289493	 0.291094
C	 1.1083014998	-0.6898540109	-0.8943707235	-0.290439
C	 1.1050806183	-1.7870442718	 0.1896993834	 0.372177
O	 2.3014848251	-2.5036170085	 0.3572036141	-0.481598
C	 0.6943480522	-0.7003023263	 1.2143041872	-0.320211
C	-0.1010981235	-2.7094672249	-0.0606675167	-0.123443
O	-1.1863844203	-2.0140627804	-0.6542367138	-0.259931
C	-1.3197309904	-0.6522683436	-0.267468912	-0.098518
H	 0.9139355187	 1.9835885385	 0.2428869843	 0.115965
H	-0.373016954	 1.9179383475	-0.9724658553	 0.117916
H	-0.777732095	 1.8847610051	 0.7503741535	 0.116171
H	 0.8341053057	-0.9725557137	-1.9131336635	 0.104466
H	 2.0557615642	-0.1451292777	-0.8893641575	 0.101679
H	 2.1991675703	-3.0950166587	 1.1115228601	 0.277051
H	 1.5685248583	-0.1565900143	 1.5840243445	 0.096694
H	 0.0502136619	-0.9906226545	 2.0516941527	 0.08344
H	 0.184695583	-3.4983604394	-0.7645496106	 0.112108
H	-0.4074435073	-3.1870159588	 0.887837501	 0.075237
H	-1.9562585666	-0.5582304326	 0.628829328	 0.086193
H	-1.8399037464	-0.1618136948	-1.0984482055	 0.102986
176.1042	206.4877	228.3762	235.7124	251.4211	293.9252	372.8551	410.9886	441.1812	449.5337	470.9533	559.7187	623.2101	708.0386	840.1513	889.5627	909.2983	912.4077	935.006	951.9198	992.7955	1007.7308	1019.0388	1063.2641	1100.2385	1119.5098	1141.5115	1163.9681	1209.6983	1235.335	1257.9772	1269.309	1281.7676	1287.1969	1295.6514	1365.0416	1388.8082	1411.5211	1417.6464	1470.6011	1491.6907	1492.9989	1503.3566	1506.3737	1518.6827	2938.3496	2958.8314	3021.7851	3033.7661	3053.0246	3063.543	3068.902	3084.9824	3096.9548	3099.9091	3125.0035	3795.5933
CC12CC(O)(C1)COC2	C[C@@]12C[C@@](O)(C1)COC2	
InChI=1S/C7H12O2/c1-6-2-7(8,3-6)5-9-4-6/h8H,2-5H2,1H3	InChI=1S/C7H12O2/c1-6-2-7(8,3-6)5-9-4-6/h8H,2-5H2,1H3/t6-,7-
