18
gdb 111475	2.69046	1.58363	1.11792	2.9951	72.5	-0.2275	0.0161	0.2436	1099.2429	0.148528	-439.098419	-439.090186	-439.089242	-439.131448	31.036	
C	-0.0283372167	 1.4139276993	 0.1032985067	-0.243752
O	 0.0002604224	 0.0150983663	-0.1391312126	-0.244891
C	-1.2578032263	-0.6143503977	-0.0525211689	-0.006661
C	-1.2176792245	-2.0047594065	-0.6507177067	-0.067396
C	-0.272379548	-3.0173709478	-0.0346106518	-0.29355
C	-1.7150409488	-2.9636144518	 0.4010616255	-0.012582
N	-2.0124758396	-2.1704911707	 1.5609638955	-0.305165
C	-1.6806219366	-0.8464077086	 1.4287841772	 0.378813
O	-1.6773886425	-0.0205348248	 2.3156573753	-0.371977
H	 0.9936668029	 1.7736121843	-0.0377761653	 0.121814
H	-0.6871694187	 1.9243525123	-0.6170551186	 0.098591
H	-0.3661208194	 1.6425066544	 1.1181071	 0.148655
H	-2.027174291	 0.0010182744	-0.5465839481	 0.08577
H	-1.5016000489	-2.1318667309	-1.687096921	 0.099797
H	 0.0361516667	-3.8396335157	-0.6709414782	 0.119114
H	 0.4834582712	-2.6622970704	 0.6568208511	 0.134783
H	-2.4085016219	-3.7639002799	 0.1711294117	 0.106623
H	-2.0962261704	-2.5676734061	 2.4851272583	 0.252017
74.3009	128.56	180.4307	187.3727	262.552	348.4229	425.6621	469.4759	477.0146	537.8907	650.7869	712.6875	717.9069	800.4696	833.4346	875.7125	946.2611	972.2142	1019.0292	1043.9105	1059.2314	1076.7199	1096.1088	1136.9347	1149.9022	1182.9377	1203.9162	1226.8756	1264.445	1299.0424	1350.69	1381.8672	1385.2801	1419.4668	1474.0096	1479.9051	1481.5455	1520.0516	1821.9695	2971.7422	2982.9305	3083.9517	3128.5469	3137.3901	3177.2968	3195.1072	3229.8241	3614.4857
COC1C2CC2NC1=O	CO[C@H]1[C@H]2C[C@H]2NC1=O	
InChI=1S/C6H9NO2/c1-9-5-3-2-4(3)7-6(5)8/h3-5H,2H2,1H3,(H,7,8)	InChI=1S/C6H9NO2/c1-9-5-3-2-4(3)7-6(5)8/h3-5H,2H2,1H3,(H,7,8)/t3-,4+,5-/m0/s1
