17
gdb 37740	3.44152	1.94295	1.50937	0.8175	70.26	-0.2316	0.0776	0.3092	869.9264	0.137923	-421.723429	-421.717327	-421.716383	-421.753535	26.063	
C	 0.046445691	 1.3770882164	 0.0444950838	-0.056849
C	 1.5155485316	 1.8955953409	-0.0495909062	-0.380261
C	 2.1456200379	 0.8980988883	-0.9632900882	 0.496027
O	 3.3720772015	 0.8991479277	-1.7341137617	-0.383153
C	 2.7294686689	-0.4147353091	-2.0064074074	 0.007011
C	 2.2393686918	-0.6037653417	-0.5512827125	-0.128419
C	 0.7486064873	-0.7203845128	-0.9113304481	 0.088818
O	-0.0862976603	-0.0445763278	 0.0262299038	-0.286292
C	 1.2915169267	 0.162717479	-2.0553335836	-0.164429
H	-0.4306459262	 1.7098714102	 0.9690865016	 0.114881
H	-0.5155170903	 1.8035856851	-0.7989392763	 0.102762
H	 1.5134032351	 2.9116774478	-0.4573288984	 0.119147
H	 2.0131729304	 1.9141847991	 0.9252358509	 0.116824
H	 3.2449207124	-1.0919748211	-2.6844782928	 0.099226
H	 2.7949867292	-0.999585649	 0.2975116995	 0.085749
H	 0.2924366694	-1.690894324	-1.1115322428	 0.082067
H	 0.7938109035	 0.6187734009	-2.9100870516	 0.08689
221.0897	267.9549	385.6511	394.3173	502.4217	551.459	583.7954	697.0078	757.3743	773.2328	806.9872	838.9693	857.2568	901.0411	908.6367	921.3554	936.731	966.0682	1022.4383	1051.6289	1078.2382	1095.5798	1100.2833	1123.8031	1156.6397	1166.4818	1203.9015	1237.8911	1251.6813	1266.1114	1283.8549	1327.5406	1365.1848	1382.8231	1418.882	1487.1832	1506.1569	2996.5997	3046.0777	3091.3165	3101.3958	3104.1668	3126.5288	3131.5152	3146.1078
C1CC23OC4C2C(O1)C34	C1C[C@@]23O[C@H]4[C@@H]2[C@@H](O1)[C@@H]34	
InChI=1S/C7H8O2/c1-2-8-5-3-6-4(5)7(1,3)9-6/h3-6H,1-2H2	InChI=1S/C7H8O2/c1-2-8-5-3-6-4(5)7(1,3)9-6/h3-6H,1-2H2/t3-,4+,5+,6-,7+
