19
gdb 119647	4.50959	0.97557	0.93715	2.0029	74.33	-0.2314	0.0736	0.305	1295.0265	0.158937	-422.952052	-422.943883	-422.942939	-422.985203	31.503	
O	 0.1555270825	 1.4079131721	 0.0304895388	-0.417762
C	 0.0602225824	-0.00682978	-0.0200483559	-0.065155
C	-1.3956162766	-0.4912878323	-0.0482351098	-0.35233
C	-1.5050220374	-1.9852290153	-0.1117150538	 0.441866
C	-0.9979374382	-2.8618043409	-1.2968027832	-0.265347
C	-1.9217058485	-3.9371396843	-0.7320154016	-0.123431
C	-1.8741442958	-3.716389251	 0.7900580439	 0.104642
O	-0.9408309482	-2.6736754268	 1.0562150145	-0.334882
C	-2.79727834	-2.896095663	-0.0378049807	-0.213431
H	-0.1847512973	 1.694047026	 0.8840993475	 0.281854
H	 0.5717995578	-0.3048759588	-0.9410579114	 0.116147
H	 0.5912781335	-0.4811666533	 0.8168341589	 0.114673
H	-1.9140902192	-0.1382910686	 0.8529333224	 0.099792
H	-1.9063573534	-0.0502897265	-0.9118744019	 0.111769
H	-1.3608914976	-2.4863047387	-2.2572497935	 0.10409
H	 0.0795020721	-3.0513511015	-1.3375857643	 0.10022
H	-2.2273519027	-4.8750863249	-1.1772996269	 0.092063
H	-2.0420727389	-4.4803536096	 1.5372918335	 0.10739
H	-3.8613108246	-2.7051242026	-0.0255800765	 0.097834
78.6566	99.4604	126.6908	296.4091	315.3299	326.679	357.0015	458.9377	551.9491	707.2339	754.5037	765.8181	783.3135	794.0027	816.536	865.9112	916.905	934.3166	963.5851	1000.7243	1013.4053	1030.0717	1039.8912	1058.3921	1069.1435	1074.3896	1109.0247	1141.2254	1176.3004	1198.3295	1232.8593	1276.821	1284.3184	1327.9025	1354.5356	1371.7759	1407.1419	1423.5377	1475.1413	1487.2382	1513.8726	3012.6773	3023.8181	3045.8307	3066.6323	3087.7678	3109.4396	3199.2857	3203.5141	3219.7419	3817.184
OCCC12CC3C(O1)C23	OCC[C@@]12C[C@H]3[C@@H](O1)[C@@H]23	
InChI=1S/C7H10O2/c8-2-1-7-3-4-5(7)6(4)9-7/h4-6,8H,1-3H2	InChI=1S/C7H10O2/c8-2-1-7-3-4-5(7)6(4)9-7/h4-6,8H,1-3H2/t4-,5+,6-,7+/m1/s1
