14
gdb 54777	4.28377	1.1249	0.99173	2.3845	63.84	-0.2579	-0.0314	0.2264	1130.0504	0.099893	-473.787295	-473.779472	-473.778528	-473.820633	28.775	
N	 0.5643266936	 0.4433142745	-0.8374197626	-0.529364
C	 0.0406085234	 0.0005342031	 0.3335357284	 0.371962
O	 0.4209794044	 0.3744011426	 1.4257205951	-0.353071
C	-1.0937696667	-1.0272093042	 0.2457300769	-0.080978
C	-2.2425099939	-0.8492636699	-0.7931229842	-0.107373
O	-1.3127000127	-1.3023673397	-1.8696053611	-0.308969
C	-0.9944050266	-2.2286118844	-0.7430435119	-0.107046
C	-2.5377530089	-2.3651734222	-0.6138887449	 0.492381
O	-3.4139646204	-3.1549209572	-0.5284475712	-0.294697
H	 1.3133992339	 1.1145024098	-0.7950941429	 0.261532
H	 0.2178622268	 0.0951662938	-1.7166450427	 0.271815
H	-1.3968537635	-1.2647274708	 1.2667559147	 0.123768
H	-2.8729278338	 0.0127971674	-0.9967053076	 0.129992
H	-0.1931113756	-2.9487918629	-0.8889938759	 0.130049
33.2026	125.0432	162.5285	274.3297	343.5754	379.1085	433.1753	451.9376	602.2661	649.2475	670.0644	735.3734	778.3772	798.7364	803.3323	861.9078	943.8467	964.5552	983.5887	1078.9961	1112.4896	1127.8477	1132.9007	1172.1699	1186.2793	1247.1865	1342.5785	1367.1352	1590.3278	1798.702	1949.0438	3113.1035	3163.6198	3166.9293	3578.0527	3726.2364
NC(=O)C1C2OC1C2=O	NC(=O)[C@H]1[C@H]2O[C@@H]1C2=O	
InChI=1S/C5H5NO3/c6-5(8)1-3-2(7)4(1)9-3/h1,3-4H,(H2,6,8)	InChI=1S/C5H5NO3/c6-5(8)1-3-2(7)4(1)9-3/h1,3-4H,(H2,6,8)/t1-,3+,4-
