16
gdb 84299	2.275	1.91405	1.17581	3.6116	71.51	-0.237	-0.0597	0.1772	1018.5372	0.125088	-437.87999	-437.872215	-437.871271	-437.912393	29.699	
O	 0.1963072847	 1.3800013195	-0.2278774824	-0.418235
C	 0.0419661631	-0.0201027975	-0.04788745	-0.013409
C	 0.6279703025	-0.528181755	 1.2545937029	-0.111482
C	-0.2198301026	-1.2892212878	 1.9559749793	-0.179249
C	-1.5230410585	-1.3992201762	 1.2485786139	 0.351136
O	-2.5006369941	-2.016779191	 1.5957249307	-0.32567
C	-1.3976744416	-0.5371331103	 0.0084940773	 0.157297
C	-2.5579898916	 0.2702612399	-0.4652202067	-0.272737
N	-2.1624146702	-0.9400194631	-1.185525006	-0.342532
H	-0.2464271009	 1.8187855805	 0.5079823159	 0.28335
H	 0.5783851333	-0.4616690758	-0.897946283	 0.113175
H	 1.6396820587	-0.2619242134	 1.5410858095	 0.126003
H	-0.0338364792	-1.7713516603	 2.9076005513	 0.128342
H	-3.4946421703	 0.1844703278	 0.0783451854	 0.140128
H	-2.3380387897	 1.2409977861	-0.9005406367	 0.12584
H	-1.6287139736	-0.6803002034	-2.0138693314	 0.238043
64.7676	213.6842	238.7095	246.2087	281.8127	347.0022	370.5042	496.9521	516.8428	606.5599	688.0146	701.5642	760.3626	828.0243	874.656	919.7116	939.4543	989.6884	1000.5601	1017.4585	1040.0891	1065.925	1117.0009	1142.7596	1157.7505	1254.7065	1274.4855	1279.6745	1306.5976	1354.1524	1390.7952	1422.4827	1490.3209	1646.4057	1824.9433	3027.0584	3111.5662	3194.0503	3208.1868	3224.4885	3476.1906	3795.1738
OC1C=CC(=O)C11CN1	O[C@H]1C=CC(=O)[C@]21CN2	
InChI=1S/C6H7NO2/c8-4-1-2-5(9)6(4)3-7-6/h1-2,4,7-8H,3H2	InChI=1S/C6H7NO2/c8-4-1-2-5(9)6(4)3-7-6/h1-2,4,7-8H,3H2/t4-,6+/m0/s1
