16
gdb 29869	3.24643	1.4073	0.98867	7.0951	78.28	-0.1998	-0.014	0.1858	1147.7763	0.126427	-434.124986	-434.116875	-434.115931	-434.15761	30.561	
C	-0.0254908602	 1.4900053952	 0.0027707622	-0.344964
N	 0.0035409195	 0.0355398387	 0.0065883937	-0.044894
C	-0.0311376036	-0.6824550659	-1.1391780122	 0.08975
N	-0.018683461	-1.9761749203	-1.2260734842	-0.351064
C	 0.0369079356	-2.7340162253	-0.0672650273	 0.373242
O	 0.0216793227	-3.9579975883	-0.0661644235	-0.39415
C	 0.1049749417	-2.0015405622	 1.2239532086	 0.152904
N	 0.2286843994	-2.8049789492	 2.3290688433	-0.577619
C	 0.0721059441	-0.6446944341	 1.2159519814	-0.101452
H	 0.8771121812	 1.8954494226	 0.4714239473	 0.149026
H	-0.0755219565	 1.8448659674	-1.0274047741	 0.150476
H	-0.9013919069	 1.8604767729	 0.5454436593	 0.147471
H	-0.0768127538	-0.0880234732	-2.0499895699	 0.123716
H	 0.0165904061	-3.7703092066	 2.1056629015	 0.269003
H	-0.1164457256	-2.468749166	 3.2135227178	 0.246167
H	 0.1033507175	-0.0282651857	 2.105699066	 0.112389
90.1264	137.3025	178.413	298.374	330.1949	356.5024	390.7774	431.751	482.5311	530.1662	552.4663	581.4621	634.0234	707.6692	810.7394	817.4708	833.2148	941.956	1038.4268	1069.3432	1133.5896	1152.725	1186.9828	1217.1562	1332.4563	1404.9645	1433.8552	1468.0062	1469.8541	1479.4164	1526.5864	1594.5718	1611.2612	1697.8305	1739.8053	3035.0963	3094.4784	3141.4111	3148.415	3202.2346	3535.7389	3675.6917
CN1C=NC(=O)C(N)=C1	Cn1cnc(=O)c(N)c1	
InChI=1S/C5H7N3O/c1-8-2-4(6)5(9)7-3-8/h2-3H,6H2,1H3	InChI=1S/C5H7N3O/c1-8-2-4(6)5(9)7-3-8/h2-3H,6H2,1H3
