19
gdb 92861	2.75805	1.69896	1.27836	2.0183	77.15	-0.2342	0.0154	0.2496	1028.8673	0.161031	-423.028928	-423.02117	-423.020226	-423.061034	30.443	
O	-0.3503657604	 1.3682132411	-0.0391577408	-0.426405
C	-0.0317366161	-0.0099558853	 0.0115762874	 0.071764
C	 0.5270308604	-0.4277366202	 1.4087610026	-0.285118
C	-0.7367355208	-0.6435496074	 2.2254077774	-0.219021
C	-1.7728696306	-0.8393330173	 1.4167882279	 0.311074
C	-3.2623829296	-0.7582970697	 1.4543470625	-0.352483
C	-3.4732797982	 0.129323233	 0.1983387748	-0.066082
O	-2.4616901417	-0.2496010078	-0.7429340161	-0.271315
C	-1.3623352278	-0.8000225951	-0.03593967	 0.089847
H	 0.467788433	 1.8636958352	 0.0636006972	 0.28234
H	 0.650218188	-0.2840565321	-0.8058390395	 0.058585
H	 1.1405434845	-1.3365006735	 1.3281397188	 0.105843
H	 1.1761063288	 0.3513160368	 1.8276969029	 0.093443
H	-0.7645158882	-0.5764586666	 3.306815077	 0.093237
H	-3.7331615637	-1.7381992313	 1.3062225668	 0.11293
H	-3.667311988	-0.3115097696	 2.3649500574	 0.112756
H	-4.446393828	-0.015651378	-0.2795792276	 0.103244
H	-3.3619384082	 1.1889275811	 0.4650704	 0.109077
H	-1.1582996936	-1.8011273832	-0.4480925685	 0.076285
111.9657	142.1165	233.683	261.1234	270.4862	347.2056	409.9019	482.3619	615.7223	653.4282	692.5776	787.6388	814.1437	851.0847	866.2725	874.5923	928.618	946.5845	956.3077	976.9189	1003.2745	1066.2685	1093.9951	1118.9832	1162.2862	1181.4364	1188.4996	1206.8827	1226.5665	1270.038	1284.7427	1294.7322	1326.1295	1351.4176	1366.1669	1389.2107	1427.4104	1475.5687	1478.6426	1515.5913	1746.6999	2968.3047	2996.9778	3012.9182	3013.552	3029.973	3047.8953	3086.6881	3110.7676	3196.9913	3823.1249
OC1CC=C2CCOC12	O[C@H]1C[CH][C]2CCO[C@@H]12	
InChI=1S/C7H10O2/c8-6-2-1-5-3-4-9-7(5)6/h1,6-8H,2-4H2	InChI=1S/C7H10O2/c8-6-2-1-5-3-4-9-7(5)6/h1,6-8H,2-4H2/t6-,7+/m0/s1
