21
gdb 104112	3.44452	1.04949	1.00681	2.1539	78.49	-0.2411	-0.0223	0.2188	1296.0747	0.180625	-424.262244	-424.252777	-424.251833	-424.296425	35.766	
C	-0.0730157128	 1.5697571924	 0.0359782347	-0.395715
C	-0.0074933974	 0.0405058054	-0.0254224145	-0.210776
C	 0.7585105752	-0.5267422178	-1.2260897698	 0.378478
C	 2.2201399441	-0.0583271294	-1.2751083522	-0.429225
C	 0.6691312721	-2.0610860648	-1.3197043209	-0.382263
C	 0.593010606	-2.3253060721	-2.8217877856	 0.371121
O	 0.7624679123	-3.3678501842	-3.3948828621	-0.300093
C	 0.2619224927	-0.9789133464	-3.4709550489	-0.188474
O	 0.061780652	-0.066768238	-2.4148802115	-0.293655
H	 0.9111833612	 2.0172960129	 0.2043186166	 0.115689
H	-0.4762224024	 1.97513332	-0.8954656301	 0.138252
H	-0.7216893494	 1.8897034724	 0.8568212961	 0.112806
H	 0.4476360375	-0.3556488178	 0.8909622919	 0.096927
H	-1.0262902217	-0.3617252995	-0.0707084211	 0.099731
H	 2.7439128245	-0.3232678738	-0.350918779	 0.118268
H	 2.7572961027	-0.5273302024	-2.1062616422	 0.11636
H	 2.2745318646	 1.0240490349	-1.4092401176	 0.131491
H	 1.5040563769	-2.5994228497	-0.8670294863	 0.132019
H	-0.2582233174	-2.4299196898	-0.864224675	 0.13184
H	 1.0901060787	-0.6872308022	-4.1368468961	 0.12147
H	-0.6468337995	-1.0461102503	-4.0788289967	 0.13575
67.3001	104.2963	150.6671	197.0084	227.0581	271.7549	327.3133	350.7662	378.2777	434.8465	461.296	499.2506	598.596	638.971	770.5888	779.3902	784.1195	836.6886	889.7769	937.2749	947.7068	1007.5427	1045.5849	1069.0017	1094.7863	1128.9923	1143.512	1187.0491	1205.7385	1221.2818	1250.5085	1293.8953	1319.7107	1342.8865	1380.0919	1408.349	1410.6291	1446.9751	1473.0142	1480.8615	1491.4593	1496.2623	1507.3999	1511.9405	1859.6228	2980.7133	3025.8939	3038.5203	3043.1366	3045.7301	3064.2858	3069.471	3101.3807	3108.2644	3118.7558	3127.068	3132.0197
CCC1(C)CC(=O)CO1	CC[C@@]1(C)CC(=O)CO1	
InChI=1S/C7H12O2/c1-3-7(2)4-6(8)5-9-7/h3-5H2,1-2H3	InChI=1S/C7H12O2/c1-3-7(2)4-6(8)5-9-7/h3-5H2,1-2H3/t7-/m0/s1
