17
gdb 123870	5.15232	1.07041	0.915	6.1053	76.2	-0.2069	0.018	0.225	1239.5506	0.138691	-414.160062	-414.152413	-414.151469	-414.193058	28.118	
C	-0.1876756243	 1.5349376565	 0.0770659158	-0.232236
C	 1.3427860738	 1.5675541995	-0.1736846376	-0.168833
N	 1.4198662192	 0.1831197686	 0.326448805	-0.169651
C	-0.0453524285	 0.0021977289	 0.2667622693	-0.186734
C	 2.3368064615	-0.7253998287	-0.1384360322	 0.408053
C	 3.5592097356	-0.5882549149	-0.7719001302	-0.164091
N	 4.0835820558	-1.8304846961	-0.9751712984	-0.1795
N	 3.2759238591	-2.7333474642	-0.5196085698	-0.128864
N	 2.2003694288	-2.0683515067	-0.0022117204	-0.268693
H	-0.4877562018	 2.0554957373	 0.9872093367	 0.124501
H	-0.8183582756	 1.8595710392	-0.7496854339	 0.121612
H	 1.6117075274	 1.6526468689	-1.2355614077	 0.112795
H	 1.9326464787	 2.2868158057	 0.4020910338	 0.120699
H	-0.4849735294	-0.432084192	 1.1706332395	 0.115221
H	-0.3716136197	-0.5805308978	-0.6062458931	 0.110867
H	 4.0750282707	 0.3079637152	-1.0726513809	 0.111289
H	 1.4556158586	-2.5882823094	 0.4313107039	 0.273564
61.7795	98.0218	154.6117	184.2762	344.7612	450.0593	473.1195	492.491	701.1764	720.5114	748.5119	785.1573	851.6011	881.9047	944.6791	945.3459	989.6606	1011.7414	1028.0242	1094.2877	1116.7691	1138.4633	1141.2818	1161.4286	1207.1025	1226.3542	1269.2393	1278.9721	1302.1845	1347.3149	1359.2239	1411.3783	1442.4579	1490.2471	1509.1916	1532.8154	1636.5452	3001.3165	3009.8986	3064.229	3076.5683	3096.4627	3152.9751	3276.5258	3667.4796
C1CN(C1)C1=CN=NN1	C1CN(C1)c1cnn[nH]1	
InChI=1S/C5H8N4/c1-2-9(3-1)5-4-6-8-7-5/h4H,1-3H2,(H,6,7,8)	InChI=1S/C5H8N4/c1-2-9(3-1)5-4-6-8-7-5/h4H,1-3H2,(H,6,7,8)
