12
gdb 50773	12.82142	0.41476	0.40462	4.0763	99.	-0.2704	-0.0857	0.1847	2426.5299	0.075297	-398.32244	-398.313423	-398.312479	-398.357941	29.761	
O	 0.0757700284	-0.1510758568	 0.1620200507	-0.212658
C	 0.0406974626	 1.0031958097	-0.1555314613	 0.170083
C	 1.2758886291	 1.9205096752	-0.0953570231	-0.45502
C	 1.3139496763	 2.8853137919	-1.174366954	 0.22267
C	 1.3095698671	 3.6706633033	-2.0979136827	-0.209785
C	 1.3108042651	 4.5505887869	-3.122847408	-0.199463
C	 1.3119588181	 5.3429739508	-4.0448770513	 0.46049
C	 1.3121151161	 6.2291133883	-5.075469228	 0.081929
N	 1.3119963385	 6.9880888236	-5.9573700428	-0.322658
H	-0.8905134185	 1.502454368	-0.4951016753	 0.111121
H	 1.2323310787	 2.4448761324	 0.8717950902	 0.176909
H	 2.1708813485	 1.2896270367	-0.0779065545	 0.176381
40.2075	63.3126	81.4867	138.2591	201.9726	257.0213	351.7316	409.7702	445.7841	526.0788	534.9523	598.0785	617.6418	626.0139	736.9349	961.8509	1012.7951	1036.8194	1203.7727	1258.8187	1332.2713	1411.5921	1430.97	1845.5354	2218.5608	2342.4182	2358.9004	2921.248	3005.2284	3081.3751
O=CCC#CC#CC#N	O=CCC#CC#CC#N	
InChI=1S/C7H3NO/c8-6-4-2-1-3-5-7-9/h7H,5H2	InChI=1S/C7H3NO/c8-6-4-2-1-3-5-7-9/h7H,5H2
