16
gdb 128385	2.79933	1.30106	0.89986	4.3801	68.95	-0.224	-0.0133	0.2107	1263.2842	0.123701	-471.150273	-471.14134	-471.140396	-471.184338	31.279	
C	 0.0355238597	 1.403099242	-0.018627934	-0.324104
N	-0.1258424005	-0.0372734943	 0.1009041814	-0.386452
C	 0.5745786163	-0.7118664748	 1.0601027126	 0.331345
N	 1.2028987089	-0.1690540813	 2.0691377178	-0.19164
O	 1.7065670582	-1.2324476506	 2.8084009576	-0.190494
N	 1.3918505101	-2.4390703705	 2.2276874237	-0.189205
C	 0.7060802836	-2.1388788288	 1.1662591189	 0.364634
O	 0.1932567922	-2.9925850724	 0.2782718271	-0.272239
C	 0.4400185143	-4.3781404528	 0.5441400789	-0.249948
H	 1.0663380317	 1.698762858	-0.2580699893	 0.130029
H	-0.6343011236	 1.7696913242	-0.7987525699	 0.127719
H	-0.2370534448	 1.8766969127	 0.927958029	 0.158173
H	-0.2439220098	-0.5519864315	-0.7580074781	 0.255632
H	 0.0082100441	-4.66474648	 1.5076980235	 0.149552
H	-0.0371743387	-4.928506891	-0.2664741258	 0.139054
H	 1.5155948683	-4.5785351689	 0.5628833163	 0.147944
87.3136	127.1066	142.9048	153.3684	176.7402	241.0273	285.8365	342.7131	446.112	475.5226	579.8215	583.1597	680.8016	764.9825	796.2901	889.0871	950.4488	1040.8315	1042.9214	1096.877	1151.7286	1180.7296	1186.1493	1220.4726	1301.9456	1424.8831	1458.6865	1474.899	1480.8556	1483.3039	1500.0532	1511.769	1539.7626	1630.1526	1667.8488	3010.8432	3041.4982	3094.172	3113.8896	3137.6158	3159.1226	3624.273
CNC1=NON=C1OC	CNc1nonc1OC	
InChI=1S/C4H7N3O2/c1-5-3-4(8-2)7-9-6-3/h1-2H3,(H,5,6)	InChI=1S/C4H7N3O2/c1-5-3-4(8-2)7-9-6-3/h1-2H3,(H,5,6)
