23
gdb 94108	4.49585	0.7523	0.68377	2.8555	86.7	-0.2461	-0.0176	0.2285	1691.1917	0.205417	-388.325521	-388.315633	-388.314688	-388.361892	35.874	
C	-0.2448346914	 1.5428038923	 0.0456363518	-0.408691
C	 0.0462516848	 0.0442178155	 0.0095542369	 0.049434
C	 0.8693878599	-0.4165452798	-1.2147525796	-0.211331
C	 1.5659052783	-1.7377928739	-0.7895293476	-0.223181
C	 1.3043419138	-1.8909057689	 0.7374818532	 0.025435
C	 2.4923658987	-2.4694863268	 1.5235255109	-0.300011
C	 2.793771068	-3.8957679158	 1.1270802089	 0.165875
O	 3.8477242137	-4.2923492293	 0.7004214513	-0.243241
C	 0.8726032921	-0.4855435341	 1.1920205295	-0.220903
H	 0.6862707084	 2.1215130849	 0.0666863064	 0.112285
H	-0.8120682125	 1.8592096709	-0.8362925222	 0.113254
H	-0.8282133336	 1.817566235	 0.9309918175	 0.111235
H	-0.9111743621	-0.4966531438	 0.0043579098	 0.069347
H	 0.2507088086	-0.5325023506	-2.1092458527	 0.096233
H	 1.6206089965	 0.3466660599	-1.4503027183	 0.097059
H	 1.1839510512	-2.6009812905	-1.3424183793	 0.102448
H	 2.6410246862	-1.6954849949	-0.9917720854	 0.110189
H	 0.4466393716	-2.5633661962	 0.8781625413	 0.073875
H	 3.3951061818	-1.8668672986	 1.3806795735	 0.116346
H	 2.2461187973	-2.4727229045	 2.5957207877	 0.113468
H	 1.9308572961	-4.5937304306	 1.2532052882	 0.066761
H	 1.7576797986	 0.1506788079	 1.3361397943	 0.092552
H	 0.3217005641	-0.4952610078	 2.1383700438	 0.09156
33.2573	56.0511	69.1056	133.2165	201.7089	238.2887	270.721	357.5049	397.4039	429.1595	498.3866	544.8971	604.2778	776.1819	796.4389	846.2075	871.0773	922.9369	926.1383	937.791	991.685	1012.1122	1020.7368	1047.9663	1072.7747	1094.051	1134.5669	1164.9144	1181.4858	1219.2683	1243.8146	1260.9169	1283.2978	1297.9235	1308.657	1326.2745	1350.3063	1353.4952	1385.995	1388.5369	1414.0228	1429.1627	1462.8882	1488.6822	1490.7475	1497.6132	1499.7697	1513.2467	1833.9161	2839.8006	2995.0608	2999.1471	3007.7844	3014.1368	3024.1653	3034.6107	3051.7376	3073.6952	3075.7584	3088.5331	3090.3327	3095.2325	3097.9434
CC1CCC(CC=O)C1	C[C@H]1CC[C@@H](CC=O)C1	
InChI=1S/C8H14O/c1-7-2-3-8(6-7)4-5-9/h5,7-8H,2-4,6H2,1H3	InChI=1S/C8H14O/c1-7-2-3-8(6-7)4-5-9/h5,7-8H,2-4,6H2,1H3/t7-,8-/m0/s1
