18
gdb 70173	3.56962	1.31705	1.10428	4.3537	79.08	-0.2339	-0.031	0.2029	1122.5331	0.149115	-401.988543	-401.980614	-401.97967	-402.020711	31.269	
C	-0.024862968	 1.5213025978	 0.0129960023	-0.473187
C	-0.0177142357	 0.004827822	 0.0134611786	 0.276494
C	-0.8609001199	-0.7258986291	 1.0583169307	-0.336612
C	 0.6442647723	-0.7414573862	 1.1550965733	-0.016014
N	 1.4055713229	-1.9072208173	 0.8330022517	-0.344846
C	 1.4427682316	-2.531365461	-0.3913872147	 0.386927
O	 2.0144668564	-3.597030713	-0.5549597818	-0.384962
C	 0.7722595706	-1.7999927795	-1.4924252615	-0.176202
C	 0.1308978025	-0.6409367395	-1.3122613824	-0.118232
H	 0.8978900084	 1.9239020662	-0.4181171048	 0.129046
H	-0.8667715253	 1.9054297948	-0.5745215673	 0.124501
H	-0.1220767262	 1.9160774549	 1.0286699094	 0.119703
H	-1.4097959945	-0.11431553	 1.7669186497	 0.116146
H	-1.3540135903	-1.6414101679	 0.7524226329	 0.126841
H	 1.0987961522	-0.142866024	 1.9388588102	 0.104611
H	 1.8300100195	-2.4318144832	 1.5834318317	 0.24724
H	 0.8627059743	-2.2677284035	-2.4655325699	 0.115632
H	-0.300315981	-0.1163355213	-2.1629027982	 0.102915
92.3971	194.2682	218.114	255.1767	313.1252	399.3948	418.2954	465.5541	477.3652	546.5663	596.623	674.2176	720.3752	758.8236	813.5968	854.4402	881.2813	930.9868	943.46	968.7542	1009.809	1041.6042	1045.4506	1106.5609	1121.0167	1136.9473	1195.4131	1258.0608	1301.5989	1353.4599	1413.361	1418.5473	1424.9306	1455.2653	1488.8148	1490.3591	1503.4095	1684.7573	1777.6718	3028.1835	3091.9445	3106.8976	3130.153	3144.1443	3147.7716	3211.613	3228.0341	3615.4754
CC12CC1NC(=O)C=C2	C[C@]12C[C@H]1NC(=O)C=C2	
InChI=1S/C7H9NO/c1-7-3-2-6(9)8-5(7)4-7/h2-3,5H,4H2,1H3,(H,8,9)	InChI=1S/C7H9NO/c1-7-3-2-6(9)8-5(7)4-7/h2-3,5H,4H2,1H3,(H,8,9)/t5-,7+/m1/s1
