18
gdb 11044	4.23787	1.74051	1.4432	2.2499	67.84	-0.2505	0.0919	0.3424	921.8706	0.153018	-384.937509	-384.929702	-384.928758	-384.969238	29.542	
C	 0.2263195388	 1.5721903343	-0.0343046382	-0.401124
C	 0.0428846363	 0.0638609185	 0.0379886853	 0.123423
O	 0.6549820899	-0.5227400776	-1.1158298726	-0.273301
C	 1.196028101	-1.7949219376	-0.7929644826	-0.135053
C	 1.4385329014	-1.7859457099	 0.7069632555	 0.398152
C	 1.7274337502	-3.0547977909	 1.4569286662	-0.491293
O	 2.1466895215	-0.6012040409	 1.1153214787	-0.29078
C	 0.7163740754	-0.6166865377	 1.2144523943	-0.064326
H	 1.2894312775	 1.817365924	 0.0256769652	 0.138759
H	-0.1707273868	 1.9551739224	-0.977984087	 0.12683
H	-0.3022421646	 2.0648364746	 0.788042351	 0.110625
H	-1.0322261171	-0.1873732338	 0.0677307514	 0.066829
H	 0.4977642542	-2.6103242652	-1.0461970359	 0.089395
H	 2.1131772212	-1.9314103544	-1.3767824635	 0.113988
H	 2.6662924026	-3.5028227428	 1.1134858057	 0.132423
H	 1.8204296751	-2.8535922886	 2.5266550067	 0.135132
H	 0.9294295653	-3.7888438149	 1.3044655639	 0.125592
H	 0.2974688281	-0.5502348393	 2.215671786	 0.094728
125.6824	180.6917	198.8206	229.6421	243.9466	344.1934	388.326	410.1695	533.0188	594.7312	684.3514	778.2207	840.8626	868.8577	905.2767	919.3402	994.237	1004.6279	1032.7391	1063.3046	1091.4948	1131.5159	1133.5535	1152.6645	1236.817	1253.7985	1290.9865	1336.3486	1366.1563	1381.6618	1403.0917	1413.5508	1467.8032	1485.4843	1490.3135	1497.8992	1500.7109	1507.1415	2946.5995	2967.7234	3037.7708	3045.0091	3062.6028	3099.4737	3117.2153	3127.2313	3134.307	3147.3635
CC1OCC2(C)OC12	C[C@H]1OC[C@@]2(C)O[C@@H]12	
InChI=1S/C6H10O2/c1-4-5-6(2,8-5)3-7-4/h4-5H,3H2,1-2H3	InChI=1S/C6H10O2/c1-4-5-6(2,8-5)3-7-4/h4-5H,3H2,1-2H3/t4-,5+,6-/m1/s1
