19
gdb 63838	2.62118	1.49707	1.20197	3.083	75.33	-0.2396	-0.0231	0.2165	1088.4646	0.157103	-423.020581	-423.011845	-423.010901	-423.054212	33.652	
C	 0.2206986387	 1.5248794662	-0.157785347	-0.45012
C	 0.0436874296	 0.0195000864	-0.0294446795	 0.407541
O	-1.3341561378	-0.3293168196	-0.0113592277	-0.47515
C	 0.8697114043	-0.9019126519	-0.9910780277	-0.290046
C	 1.4478061225	-1.6812302774	 0.2205050016	-0.02318
C	 2.8164390521	-1.1599045367	 0.7390508765	-0.363253
C	 2.0531147233	-0.1586129166	 1.6297638448	 0.408438
O	 2.3948486697	 0.6987767552	 2.3924555028	-0.303909
C	 0.6865709362	-0.7067772465	 1.1964962764	-0.187071
H	 1.2739981811	 1.8170053562	-0.1283781131	 0.126077
H	-0.1944607972	 1.8733889675	-1.1122073101	 0.104097
H	-0.3012517804	 2.0406124983	 0.6533457419	 0.136163
H	-1.7328070267	 0.0108157875	-0.8209220295	 0.274912
H	 0.2172491776	-1.4977394755	-1.6328066006	 0.104833
H	 1.6136914629	-0.3953778397	-1.6136394107	 0.094836
H	 1.2983050549	-2.7587468828	 0.2374005088	 0.080027
H	 3.3563031557	-1.8884635721	 1.3544943477	 0.13396
H	 3.5182494147	-0.7391622187	 0.0125575604	 0.12309
H	-0.0170049713	-0.9953070299	 1.9775023349	 0.098755
38.3581	120.5026	229.4219	241.2158	273.8046	335.7956	354.2492	375.5557	428.909	472.4999	526.2225	581.5835	683.993	771.9586	803.7527	833.9127	849.4245	913.2456	932.0562	948.2227	959.6682	1019.2977	1056.1575	1063.9792	1099.4611	1128.2515	1139.2369	1157.9244	1200.6752	1224.3751	1242.6723	1263.956	1268.6513	1307.6207	1360.266	1411.7451	1432.4377	1464.2629	1485.3384	1488.8211	1880.9868	3023.8708	3045.5344	3051.1875	3095.4757	3097.8069	3111.9002	3120.1974	3122.4759	3134.3956	3786.7453
CC1(O)CC2CC(=O)C12	C[C@@]1(O)C[C@H]2CC(=O)[C@@H]12	
InChI=1S/C7H10O2/c1-7(9)3-4-2-5(8)6(4)7/h4,6,9H,2-3H2,1H3	InChI=1S/C7H10O2/c1-7(9)3-4-2-5(8)6(4)7/h4,6,9H,2-3H2,1H3/t4-,6+,7-/m1/s1
