14
gdb 133377	2.45195	1.79964	1.03838	3.236	72.33	-0.1896	-0.0215	0.1681	1039.9111	0.102654	-474.162333	-474.154717	-474.153773	-474.194131	29.632	
N	 0.0105488348	 1.300769734	 0.1270962414	-0.543648
C	-0.0081390565	-0.0556649651	 0.0461851931	 0.385314
N	-1.1518475223	-0.6892373138	 0.031695461	-0.311451
N	-1.0934373183	-2.0436397792	 0.0020166251	-0.240974
C	 0.0503750373	-2.7645976491	-0.0190216077	-0.102348
C	 1.2458317879	-2.1198244825	-0.0206339181	 0.174355
F	 2.3885056845	-2.8197637756	-0.0527446218	-0.084825
C	 1.3282250191	-0.6913618844	-0.0001696651	 0.148353
N	 2.3756151132	 0.0652917846	-0.0257453852	-0.599156
H	 0.9082463528	 1.7176000824	-0.0747127603	 0.277995
H	-0.8324372286	 1.8057994864	-0.0856750413	 0.257171
H	-1.9923159032	-2.4924707145	 0.0005376309	 0.27882
H	-0.0378594036	-3.8431798787	-0.0376283264	 0.143387
H	 3.2224218227	-0.5018967645	-0.0662462657	 0.217006
113.3855	266.6882	303.151	305.1834	329.6547	352.9189	390.5558	472.8723	521.7498	547.5771	551.8198	559.4522	576.2051	720.8492	780.2841	839.0101	866.8754	894.4406	985.209	1026.0079	1144.3441	1266.2203	1303.8075	1324.1585	1395.6867	1455.2793	1543.6607	1587.1965	1631.6293	1658.9455	1678.6238	3219.8471	3479.9973	3569.6723	3679.0138	3718.1082
NC1=NNC=C(F)C1=N	NC1=NNCC(=C1[NH])F	
InChI=1S/C4H5FN4/c5-2-1-8-9-4(7)3(2)6/h1H,(H2,6,8)(H2,7,9)	InChI=1S/C4H6FN4/c5-2-1-8-9-4(7)3(2)6/h6,8H,1H2,(H2,7,9)
