16
gdb 33793	3.62876	1.42028	1.22984	3.7194	68.59	-0.2689	0.0129	0.2818	1002.7426	0.125951	-437.867733	-437.86071	-437.859765	-437.899031	27.818	
N	-0.0644733678	-1.1386003009	-0.0846698469	-0.334191
C	-0.0578001495	 0.0160935697	-0.0566671206	 0.233807
C	 0.0014322527	 1.4695313139	 0.0340572113	 0.287047
C	-0.2140046271	 2.1699942018	 1.4140497468	-0.309912
C	 0.6448427985	 3.3062037388	 0.7892665508	 0.093961
C	 1.3738464287	 2.2081753243	-0.0346965187	-0.254846
O	-0.1283998015	 4.1043527985	-0.1052789672	-0.269291
C	-1.1956064568	 3.3729381798	-0.6653296612	 0.017132
O	-0.8492429275	 2.0299083442	-0.9670880304	-0.310796
H	-1.2318304659	 2.3693833222	 1.7495889914	 0.129109
H	 0.3363321179	 1.6479033615	 2.1973255397	 0.134646
H	 1.2101837618	 3.9834525565	 1.42807513	 0.09898
H	 2.1538812542	 1.6971336056	 0.5331017303	 0.121953
H	 1.7159267362	 2.478093513	-1.0337890846	 0.125966
H	-2.0586779979	 3.3837045288	 0.016313365	 0.102223
H	-1.4690904059	 3.8497427122	-1.6087347455	 0.134212
146.1649	158.2396	294.9154	325.9311	411.2925	454.1004	470.4876	550.2674	564.7994	576.4056	660.8848	829.155	853.1876	873.0736	912.1425	927.8672	958.5333	1010.724	1017.9078	1070.6744	1086.9833	1133.0452	1184.6642	1187.461	1207.0996	1241.0743	1251.2816	1261.9969	1288.7606	1362.7929	1438.9327	1459.7485	1491.9015	1541.5146	2365.6441	2989.1414	3081.1084	3095.6928	3111.1841	3127.0755	3154.783	3157.3821
N#CC12CC(C1)OCO2	N#C[C@@]12C[C@@H](C1)OCO2	
InChI=1S/C6H7NO2/c7-3-6-1-5(2-6)8-4-9-6/h5H,1-2,4H2	InChI=1S/C6H7NO2/c7-3-6-1-5(2-6)8-4-9-6/h5H,1-2,4H2/t5-,6+
