20
gdb 104087	2.50497	1.41925	1.17223	0.6615	74.32	-0.2496	0.0181	0.2678	1141.8386	0.170439	-440.30627	-440.297051	-440.296107	-440.340133	34.842	
C	 0.2257219033	 1.5785420071	-0.3400496148	-0.395123
C	-0.0024225496	 0.1265870049	 0.0824385976	-0.024601
N	 0.4430599046	-0.7867696993	-0.9928834614	-0.267464
C	 1.3452985017	-1.5161068608	-0.4879218816	 0.10356
O	 1.6885823046	-1.3726737505	 0.8133609378	-0.268352
C	 0.7521385127	-0.3749257996	 1.3612339571	 0.315402
C	 1.5721935672	 0.6422446054	 2.1404411271	-0.437101
C	-0.195606125	-1.1661511163	 2.2747842441	-0.084952
O	 0.4854532322	-1.8521705358	 3.3034202554	-0.422233
H	 1.2852244993	 1.7814508904	-0.5195439322	 0.122797
H	-0.3133478864	 1.7684390301	-1.271550543	 0.133235
H	-0.1393804798	 2.2777258158	 0.4181201261	 0.114625
H	-1.0812740366	-0.0196309162	 0.224097478	 0.087758
H	 1.9072258664	-2.2775383692	-1.0188908605	 0.138199
H	 2.347086926	 1.0900587032	 1.5149617982	 0.12431
H	 0.9281195515	 1.4403262732	 2.5212373418	 0.122335
H	 2.0439937871	 0.1531957536	 2.9951938186	 0.137749
H	-0.8934586801	-0.4745632775	 2.759861401	 0.113235
H	-0.7873654082	-1.8559239329	 1.6521599539	 0.096569
H	 1.1393918091	-2.4115654755	 2.8678418368	 0.29005
52.8596	136.2497	195.1683	225.5513	263.3281	286.0158	295.2027	330.7932	354.5674	437.0177	451.8347	523.0953	587.102	673.9804	748.683	832.7097	855.8694	921.3027	926.3673	956.2535	966.2917	1044.8896	1067.448	1076.3069	1101.1489	1144.8808	1169.9232	1202.9611	1223.6387	1275.0031	1301.463	1335.5884	1374.4345	1382.1568	1407.0024	1412.1582	1426.9482	1476.1046	1487.5459	1494.8498	1498.5289	1507.4423	1708.4243	2979.3866	3013.4025	3044.0581	3053.7265	3072.5433	3115.9525	3125.0849	3126.8587	3140.5652	3206.5727	3796.9538
CC1N=COC1(C)CO	C[C@H]1N=CO[C@]1(C)CO	
InChI=1S/C6H11NO2/c1-5-6(2,3-8)9-4-7-5/h4-5,8H,3H2,1-2H3	InChI=1S/C6H11NO2/c1-5-6(2,3-8)9-4-7-5/h4-5,8H,3H2,1-2H3/t5-,6-/m1/s1
