14
gdb 133260	2.51908	1.82251	1.06446	0.7119	69.82	-0.2364	-0.0688	0.1676	1029.7954	0.101222	-474.126834	-474.119338	-474.118394	-474.158897	27.88	
C	-0.0243491699	 1.4191214172	 0.0197595874	-0.311332
N	-0.0072372955	-0.0380491022	 0.037961096	-0.058674
N	-0.0393887384	-0.6322343695	-1.1689589	-0.055354
N	-0.0280948216	-1.9010384941	-1.2644047999	-0.221757
C	 0.0175857245	-2.6715199855	-0.1171090804	-0.080224
C	 0.0508610957	-2.1209663635	 1.1096825001	 0.178455
F	 0.0948491754	-2.847326304	 2.2194693078	-0.053726
C	 0.0401661593	-0.6848855304	 1.2840299063	 0.322481
N	 0.0669519584	 0.0053587546	 2.3609937055	-0.570923
H	 0.8704879955	 1.804198627	 0.5147328347	 0.159327
H	-0.060959081	 1.7295344272	-1.0227010813	 0.155083
H	-0.8945152269	 1.7842260771	 0.5707089653	 0.159301
H	 0.024864367	-3.7440969597	-0.2685988522	 0.146634
H	 0.0999727676	-0.6156220842	 3.1676212107	 0.23071
106.9697	173.6564	227.489	269.1258	308.7478	334.1582	461.3034	484.2098	533.4167	589.0054	640.6555	707.2857	749.9115	825.1253	901.9509	936.533	970.4774	1023.504	1130.5359	1153.6232	1211.623	1276.6772	1305.2451	1335.2502	1411.0369	1434.3005	1468.6868	1502.0557	1512.8589	1649.931	1703.7269	3061.3833	3126.4944	3182.7784	3211.3564	3510.0487
CN1N=NC=C(F)C1=N	Cn1nncc(F)c1[NH]	
InChI=1S/C4H5FN4/c1-9-4(6)3(5)2-7-8-9/h2,6H,1H3	InChI=1S/C4H10FN4/c1-9-4(6)3(5)2-7-8-9/h3-4,6-8H,2H2,1H3
