23
gdb 104429	2.97881	1.16884	1.03979	1.616	87.61	-0.2463	0.0159	0.2622	1297.3129	0.206338	-388.316322	-388.306873	-388.305929	-388.350097	36.93	
C	 0.2036565561	 1.5776413615	-0.0885549434	-0.398431
C	 0.0417742911	 0.0612618777	 0.0493889257	-0.191464
C	-1.4128809108	-0.4485474734	 0.057158791	 0.348057
O	-1.9916532828	 0.0355294783	-1.1731170084	-0.474464
C	-1.4183111746	-1.9911751027	 0.066114312	-0.217533
C	-2.8099480717	-2.5592375288	 0.3562403749	-0.229281
C	-3.2968670963	-2.1080992358	 1.7391304961	-0.241304
C	-3.0422496788	-0.6411958363	 1.9643380494	-0.070148
C	-2.2085999283	 0.0930431318	 1.2249492763	-0.107489
H	 1.2599806226	 1.8384606641	-0.2060368672	 0.106597
H	-0.3405963536	 1.9420895048	-0.9625745794	 0.13489
H	-0.1656393031	 2.1146712335	 0.7908748639	 0.111089
H	 0.5470802325	-0.4297414375	-0.7916894984	 0.099405
H	 0.5354933473	-0.2922384948	 0.9619854758	 0.094228
H	-2.9479177915	 0.0068486359	-1.0722902514	 0.275408
H	-1.0491964943	-2.3352974291	-0.9051529626	 0.098894
H	-0.7153871883	-2.3484371801	 0.8302592348	 0.08963
H	-3.5113945896	-2.2053193815	-0.4109087432	 0.089463
H	-2.803939168	-3.6518726599	 0.2888836722	 0.093244
H	-4.3653437775	-2.3228341794	 1.8649964886	 0.10236
H	-2.7888945378	-2.688266034	 2.5249756962	 0.110656
H	-3.5782412344	-0.1706455593	 2.7864066005	 0.087942
H	-2.100516758	 1.154153975	 1.4317232367	 0.088252
86.2022	101.8691	195.1661	234.947	253.3144	270.8594	288.4735	335.7132	370.3443	435.1382	473.9482	523.2053	553.4459	671.4401	735.7694	753.3842	789.0922	862.0056	869.7512	927.6134	947.5669	958.3307	1004.59	1014.6557	1051.6388	1058.4805	1075.7197	1093.3598	1137.7954	1142.1368	1198.0904	1236.1599	1258.9454	1277.977	1308.0213	1347.9323	1363.4571	1370.6537	1379.5761	1382.2773	1407.8571	1433.7535	1467.2471	1473.3412	1482.4765	1500.088	1502.1424	1511.0071	1711.533	2993.4484	3017.3381	3022.6283	3028.6679	3043.1799	3044.3703	3065.7965	3072.9537	3082.3659	3102.0159	3131.7465	3139.9338	3171.7875	3827.2377
CCC1(O)CCCC=C1	CC[C@@]1(O)CCCC=C1	
InChI=1S/C8H14O/c1-2-8(9)6-4-3-5-7-8/h4,6,9H,2-3,5,7H2,1H3	InChI=1S/C8H14O/c1-2-8(9)6-4-3-5-7-8/h4,6,9H,2-3,5,7H2,1H3/t8-/m0/s1
