15
gdb 42190	3.14472	1.30328	1.07071	2.0745	70.97	-0.2523	-0.0985	0.1538	1100.3834	0.112972	-416.736368	-416.728633	-416.727689	-416.769743	28.002	
O	 0.0150690037	-0.0833844307	-0.0530538425	-0.26325
C	-0.0530341523	 1.1193599647	-0.0046543101	 0.187098
C	 1.1732380704	 1.9504096715	 0.0345806237	 0.210525
N	 2.1042654473	 2.6356379255	 0.0665284658	-0.308655
C	-1.3293629514	 1.9006406692	 0.021293965	 0.209034
C	-1.8459795861	 2.9720537806	-0.9774142263	-0.208885
N	-2.9862125532	 2.9011188093	 0.0548532748	-0.13978
C	-2.774507147	 1.3728480287	-0.0054652157	-0.217347
C	-1.8539168483	 2.8892169144	 1.098234445	-0.208908
H	-1.3368348389	 3.9373955107	-1.0058531668	 0.126566
H	-2.1324060738	 2.6304231549	-1.9745346357	 0.122441
H	-3.1348092986	 0.9173604591	-0.9297363837	 0.121078
H	-3.1418432565	 0.8450705501	 0.8766189542	 0.121063
H	-2.14788925	 2.4693355885	 2.0627414702	 0.122435
H	-1.3453036051	 3.8490749733	 1.2073835321	 0.126585
38.5444	101.4575	161.5481	220.7821	298.3464	421.483	454.7163	573.0227	591.9456	648.914	698.7469	794.8344	810.9722	846.4642	926.765	985.8942	992.2974	997.3093	1019.5791	1046.6762	1139.5813	1160.3113	1163.7011	1164.917	1198.6122	1201.6392	1287.1088	1306.0287	1509.3499	1511.6694	1561.1036	1786.2958	2335.1062	3064.1948	3067.4026	3075.4911	3137.9104	3143.059	3145.2864
O=C(C#N)C12CN(C1)C2	O=C(C#N)[C@@]12CN(C1)C2	
InChI=1S/C6H6N2O/c7-1-5(9)6-2-8(3-6)4-6/h2-4H2	InChI=1S/C6H6N2O/c7-1-5(9)6-2-8(3-6)4-6/h2-4H2
