14
gdb 127567	3.28837	1.48223	1.02832	5.2421	68.23	-0.2417	-0.0513	0.1904	1073.6703	0.102081	-470.044035	-470.036258	-470.035314	-470.0769	28.078	
C	-0.0077312776	 1.4612482708	-0.0085767732	-0.323886
N	 0.005829609	 0.0022092686	 0.0227941545	-0.068672
N	-0.0487959394	-0.6368070211	-1.1769281972	-0.172336
C	-0.0367122077	-1.9245373011	-1.1478187713	-0.080315
C	 0.0316885809	-2.7446889013	 0.0855390411	 0.354789
O	 0.0401899818	-3.9571497915	 0.0522781133	-0.356617
N	 0.0844808683	-2.0047699952	 1.2677745817	-0.43351
C	 0.0691369796	-0.7167203093	 1.1732428863	 0.535465
O	 0.1174727616	 0.0479806415	 2.2727889453	-0.395722
H	 0.9009557639	 1.8650501829	 0.4444800405	 0.154751
H	-0.0614009838	 1.7489379827	-1.0570694465	 0.164316
H	-0.8743249878	 1.8505427304	 0.5313464471	 0.154728
H	-0.0803612948	-2.4335982948	-2.1050332358	 0.147403
H	 0.1598168559	-0.5715370926	 3.0167346843	 0.319605
75.5907	88.3104	212.1448	215.1447	322.2243	379.7229	454.417	501.1737	549.9311	561.4795	603.0425	739.4567	742.0394	782.3618	805.9918	939.2749	977.0872	1017.4933	1154.0161	1195.7922	1253.9699	1269.9804	1289.9492	1349.047	1440.1072	1483.2585	1501.2462	1525.8343	1602.2449	1672.6454	1790.0363	3058.1728	3125.0677	3177.6277	3196.6819	3756.0133
CN1N=CC(=O)N=C1O	Cn1ncc(=O)nc1O	
InChI=1S/C4H5N3O2/c1-7-4(9)6-3(8)2-5-7/h2H,1H3,(H,6,8,9)	InChI=1S/C4H5N3O2/c1-7-4(9)6-3(8)2-5-7/h2H,1H3,(H,6,8,9)
