13
gdb 21283	7.12353	1.35252	1.14493	3.6185	55.85	-0.2143	0.0472	0.2615	970.385	0.096631	-431.95481	-431.947297	-431.946353	-431.986876	26.217	
C	-0.0118693248	 1.388389135	 0.0062360301	-0.240426
O	-0.0248066289	-0.0453985201	 0.0149604783	-0.262395
C	-1.2340930429	-0.5952455099	 0.000630276	 0.535213
N	-2.374605151	 0.0172719366	-0.0200344668	-0.328108
N	-3.2911246171	-1.0322492917	-0.0271509133	-0.317166
C	-2.7240243486	-2.2831045972	-0.0116223372	 0.470696
O	-3.2368600823	-3.3791142331	-0.0130730185	-0.417891
N	-1.3527592569	-1.9581526128	 0.0076956447	-0.439644
H	 1.0398306661	 1.672362827	 0.0188616054	 0.141025
H	-0.5034848353	 1.7690033338	-0.8932438348	 0.147884
H	-0.5277829636	 1.7799853075	 0.8872146871	 0.147837
H	-4.275661555	-0.83768206	-0.0430186531	 0.280071
H	-0.6084397997	-2.6331278651	 0.020149032	 0.282904
84.5521	146.8278	153.2589	218.9789	271.5031	402.4299	432.0163	473.8879	553.8546	691.1693	698.9464	762.0449	777.5103	973.2212	1009.9827	1070.6411	1111.9404	1182.3309	1217.3673	1257.6855	1280.2069	1386.8341	1457.706	1477.8083	1500.3691	1538.7496	1682.7236	1865.0965	3047.9207	3121.8962	3164.3362	3693.7234	3708.6977
COC1=NNC(=O)N1	COc1n[nH]c(=O)[nH]1	
InChI=1S/C3H5N3O2/c1-8-3-4-2(7)5-6-3/h1H3,(H2,4,5,6,7)	InChI=1S/C3H5N3O2/c1-8-3-4-2(7)5-6-3/h1H3,(H2,4,5,6,7)
