18
gdb 103267	2.77898	1.42907	1.20639	3.5448	74.16	-0.2509	0.0188	0.2697	1100.4993	0.145558	-439.04181	-439.032989	-439.032045	-439.075156	32.872	
C	-0.4639035995	 0.9919094448	 0.0090427387	-0.253139
O	 0.3789424861	-0.1459041619	-0.090544399	-0.270702
C	 0.8364834888	-0.632934654	 1.1283035794	 0.415619
C	 2.0400769666	 0.0871054874	 1.7020408732	-0.462121
C	-0.1176986773	-1.2438488868	 2.1078722332	-0.016933
O	-1.2643079663	-1.7894634838	 1.4170643955	-0.271325
C	-0.4348952143	-2.6905486526	 0.7393987454	 0.466842
N	-0.725246165	-3.6424019416	-0.017397978	-0.55574
C	 0.8294526727	-2.1469131162	 1.3219896354	-0.290619
H	 0.0545983911	 1.8555277329	 0.4478816094	 0.106959
H	-0.7619950634	 1.2459104634	-1.010149505	 0.134225
H	-1.3593117652	 0.7688890355	 0.6018498476	 0.128244
H	 1.8135136448	 1.1424205148	 1.8817676378	 0.129542
H	 2.353247351	-0.3552787791	 2.6522513283	 0.124788
H	 2.8778999693	 0.0309416606	 1.0011764266	 0.141155
H	-0.2225347869	-1.0417063928	 3.1661209673	 0.120041
H	-1.7346382698	-3.7119195678	-0.155647263	 0.231371
H	 1.7040231376	-2.7137179929	 1.606826207	 0.121793
101.3026	121.4814	176.8432	194.2483	208.5311	257.8476	317.6394	356.6399	428.9892	493.3506	562.2032	699.3663	705.4831	754.5967	823.6008	867.3415	872.0391	921.7201	955.3665	970.2435	1013.5757	1040.3682	1053.1988	1097.9898	1118.5498	1157.3361	1177.6041	1185.9039	1223.9899	1273.0594	1291.9203	1383.5835	1411.9539	1474.1143	1482.6642	1495.2887	1498.732	1504.6371	1838.5956	3002.7528	3042.1737	3066.7788	3111.6808	3118.8521	3128.4619	3200.4111	3226.5656	3483.0188
COC1(C)C2OC(=N)C12	CO[C@@]1(C)[C@H]2O[C]([NH])[C@@H]12	
InChI=1S/C6H9NO2/c1-6(8-2)3-4(6)9-5(3)7/h3-4,7H,1-2H3	InChI=1S/C6H9NO2/c1-6(8-2)3-4(6)9-5(3)7/h3-4,7H,1-2H3/t3-,4-,6+/m0/s1
