17
gdb 83909	2.58569	1.4754	1.21143	3.9605	73.5	-0.2453	0.0315	0.2768	1065.2845	0.137385	-417.999844	-417.991449	-417.990504	-418.033244	30.915	
N	-0.17423922	 1.4637250323	 0.0432294691	-0.50626
C	-0.0782423361	 0.0403616356	 0.022098712	-0.095682
C	-0.4841143767	-0.726168313	 1.2434087553	 0.050736
O	-1.1041952097	-0.0030538936	 2.2594901771	-0.266603
C	-2.502020265	 0.1488429316	 1.9554876984	-0.067453
C	-2.6554650647	-0.0104275255	 0.4290993082	-0.31065
C	-1.3987738976	-0.7877746291	 0.0297246722	 0.139157
C	-1.4918409614	-1.9524604275	-0.7917817128	 0.200162
N	-1.5510510871	-2.8915064611	-1.4671524097	-0.354341
H	 0.2757856803	 1.8515005293	 0.8639556881	 0.249445
H	 0.2237835295	 1.8807705957	-0.7875078464	 0.244929
H	 0.7111469963	-0.4211527146	-0.5695931586	 0.10601
H	 0.0895219237	-1.5861105543	 1.5751011028	 0.121315
H	-3.0714124717	-0.6199721963	 2.49523941	 0.109739
H	-2.8123597591	 1.1327076724	 2.3156049343	 0.11942
H	-3.558987814	-0.5620916262	 0.1643056697	 0.125617
H	-2.6682247767	 0.9619543043	-0.0675215795	 0.134458
69.2741	126.5576	137.5359	164.9525	246.1359	279.2803	446.7486	484.2086	551.5485	580.3427	613.2869	649.6151	707.6578	783.7637	826.8967	862.6265	891.5836	963.875	977.9252	1026.3776	1059.2082	1085.6722	1137.7044	1147.1798	1206.281	1230.9605	1249.6363	1261.7705	1284.1709	1321.5386	1348.6436	1395.155	1448.2095	1480.7432	1518.3817	1643.2702	2341.8636	3013.446	3078.6343	3099.4127	3112.1502	3134.1741	3161.3056	3531.053	3624.1281
NC1C2OCCC12C#N	N[C@H]1[C@H]2OCC[C@@]12C#N	
InChI=1S/C6H8N2O/c7-3-6-1-2-9-5(6)4(6)8/h4-5H,1-2,8H2	InChI=1S/C6H8N2O/c7-3-6-1-2-9-5(6)4(6)8/h4-5H,1-2,8H2/t4-,5+,6+/m0/s1
