18
gdb 6836	3.33035	1.45466	1.29945	3.5367	63.85	-0.2482	0.054	0.3023	1012.0662	0.151945	-422.049506	-422.040684	-422.03974	-422.083009	32.27	
C	-0.1578447939	 1.5689788825	-0.1373948284	-0.462411
C	-0.0281507019	 0.0578068578	-0.0041533593	 0.307561
O	-1.2444754067	-0.5930823782	-0.3083275136	-0.470396
C	 1.2484482946	-0.5545742764	-0.6451415256	-0.108131
O	 1.7991522864	-0.8650867778	 0.6515278075	-0.312404
C	 0.5584834191	-0.5078421411	 1.3151137472	 0.110247
C	 0.8416803951	 0.3620575011	 2.5252141304	-0.082742
O	 1.6666555722	-0.33699234	 3.4399275439	-0.421275
H	 0.7759702578	 2.0805857695	 0.1095133479	 0.133492
H	-0.408428442	 1.831847925	-1.1732197723	 0.111176
H	-0.9507656601	 1.9515771308	 0.5120930555	 0.132092
H	-1.6195286734	-0.1870863131	-1.0972111741	 0.279162
H	 1.0373637679	-1.4573720845	-1.2313278225	 0.102703
H	 1.8989116476	 0.1185684631	-1.216260879	 0.097584
H	 0.0118386792	-1.4080142778	 1.624280044	 0.093148
H	 1.3099141779	 1.3078044422	 2.2135697972	 0.082137
H	-0.0899023708	 0.5999850264	 3.0502774483	 0.112416
H	 2.4297897909	-0.6406813294	 2.933668443	 0.29564
57.2538	98.0368	170.2203	260.8971	262.8911	280.3679	317.2988	361.0486	398.0892	437.9557	503.1024	542.2183	654.8136	820.5665	867.5441	904.2625	965.8552	977.842	1020.2504	1051.0894	1065.1605	1101.502	1144.3686	1157.6981	1197.7621	1210.0134	1225.0153	1294.6421	1330.1589	1348.5713	1392.4131	1405.176	1411.6877	1438.3298	1492.8583	1495.1719	1500.3111	1514.4508	2990.6242	3013.8544	3024.8596	3032.4659	3067.9903	3074.4863	3093.3529	3124.1867	3792.0651	3805.5322
CC1(O)COC1CO	C[C@@]1(O)CO[C@H]1CO	
InChI=1S/C5H10O3/c1-5(7)3-8-4(5)2-6/h4,6-7H,2-3H2,1H3	InChI=1S/C5H10O3/c1-5(7)3-8-4(5)2-6/h4,6-7H,2-3H2,1H3/t4-,5+/m0/s1
