15
gdb 128174	2.74131	1.28996	0.8841	6.7064	75.78	-0.2281	-0.0688	0.1594	1244.4509	0.112106	-453.934258	-453.925786	-453.924842	-453.967883	29.751	
C	 0.0584666949	 1.5089702891	-0.0268859524	-0.33569
N	-0.1393263519	 0.0741856387	 0.0840762838	-0.400248
C	 0.5367330276	-0.6595578748	 1.0201188865	 0.141854
C	 0.6988693119	-2.0302927602	 1.1286405673	 0.26181
O	 1.4124424934	-2.3056593759	 2.2575891387	-0.197734
N	 1.7257646888	-1.1394775607	 2.8909261161	-0.107068
C	 1.218442467	-0.1657973765	 2.174026044	-0.021538
C	 0.2548573001	-3.1151886654	 0.280095409	 0.069855
O	 0.4537467202	-4.2952025612	 0.4674089823	-0.277393
H	 1.096940971	 1.7866729495	-0.2585301721	 0.130858
H	-0.5879787221	 1.8912252185	-0.8188611397	 0.141262
H	-0.2322790628	 2.0047097825	 0.904848179	 0.145311
H	-0.3573378221	-0.4019718632	-0.7760295438	 0.254612
H	 1.3527934848	 0.8554849672	 2.4971286923	 0.138275
H	-0.3171845408	-2.7600567977	-0.6090954211	 0.055832
79.7098	143.7432	154.7685	161.7779	221.9744	237.6444	345.2818	370.9996	451.2643	583.0918	634.7872	685.7637	705.4546	786.8378	874.9079	956.5975	1004.4076	1017.5676	1064.2204	1119.6102	1153.4434	1207.2711	1244.0451	1263.5518	1411.9176	1449.2963	1469.9702	1485.7122	1495.6976	1516.6319	1524.0116	1663.7185	1779.2173	2843.0632	2999.5832	3076.9028	3133.2566	3257.6339	3633.4901
CNC1=C(ON=C1)C=O	CNc1c(onc1)C=O	
InChI=1S/C5H6N2O2/c1-6-4-2-7-9-5(4)3-8/h2-3,6H,1H3	InChI=1S/C5H6N2O2/c1-6-4-2-7-9-5(4)3-8/h2-3,6H,1H3
