15
gdb 127704	3.09356	1.50084	1.02341	5.1986	74.05	-0.2337	-0.0692	0.1645	1114.0942	0.111599	-450.099961	-450.091574	-450.09063	-450.133474	29.719	
C	-0.0950985562	 1.4596092584	 0.0218700916	-0.304963
N	-0.0264351774	 0.0039640949	 0.0157268788	 0.115418
N	 0.0232462515	-0.5934777955	-1.1741980374	-0.056983
N	 0.0844026591	-1.8652358172	-1.2511130789	-0.249208
C	 0.0994525219	-2.6472012377	-0.0715119527	 0.344252
O	 0.156046753	-3.8587063302	-0.122346093	-0.330734
C	 0.0429401265	-1.9022089214	 1.1957403805	 0.260646
C	 0.0564987042	-2.6539369375	 2.4834777529	-0.464519
N	-0.0185071893	-0.603859269	 1.2140923579	-0.261862
H	 0.767971736	 1.8669653936	 0.5534262871	 0.158678
H	-0.0929337972	 1.7903362909	-1.0149429871	 0.17258
H	-1.0102882634	 1.7831238005	 0.5230036084	 0.158685
H	-0.7864516428	-3.3521656234	 2.5146057781	 0.159886
H	 0.9603528076	-3.2690750074	 2.5447588256	 0.15984
H	 0.0094159065	-1.9698652291	 3.3316523582	 0.138285
63.7864	108.8242	145.7063	181.381	268.8365	324.2935	346.2496	434.1774	503.8082	532.3196	553.577	594.431	706.974	814.0013	816.5249	940.0249	999.4876	1047.4823	1048.0664	1135.6086	1152.1556	1249.8379	1322.7021	1380.78	1417.8362	1438.7153	1459.3824	1461.4657	1472.924	1477.4838	1503.9996	1626.3367	1778.5643	3045.7674	3061.8538	3101.3026	3132.102	3152.9023	3184.5498
CN1N=NC(=O)C(C)=N1	Cn1nnc(=O)c(C)n1	
InChI=1S/C4H6N4O/c1-3-4(9)5-7-8(2)6-3/h1-2H3	InChI=1S/C4H6N4O/c1-3-4(9)5-7-8(2)6-3/h1-2H3
