21
gdb 99408	2.09283	1.38657	1.08057	2.4506	82.99	-0.2248	0.0392	0.264	1263.6898	0.180226	-420.381867	-420.371289	-420.370345	-420.418127	36.93	
C	-1.511609051	-0.915713144	 0.2765355985	-0.238136
O	-0.3662796195	-0.2313511405	 0.7802801847	-0.254311
C	 0.8607417739	-0.8067238489	 0.6772554067	 0.452699
N	 1.9306135508	-0.1669113385	 0.9002710212	-0.316217
C	 1.8409330506	 1.254117276	 1.193928396	-0.315617
N	 0.8409803818	-2.1446736621	 0.2577071225	-0.162221
C	 2.0144778078	-2.9686374708	 0.4951089322	-0.240368
C	 0.7602887217	-3.2364023381	 1.2555365772	 0.004763
C	 0.6755121872	-2.9367831666	 2.7334632048	-0.416236
H	-1.7616359893	-1.7908415213	 0.8854581336	 0.122671
H	-2.3303733386	-0.195689755	 0.3328617416	 0.130558
H	-1.363636283	-1.2353406932	-0.7578845868	 0.139906
H	 2.8161627905	 1.7163105865	 1.0163738969	 0.112307
H	 1.0877215727	 1.771678054	 0.5863714979	 0.114223
H	 1.5804980722	 1.4267319943	 2.2471376633	 0.114577
H	 2.2990800457	-3.6102751034	-0.3339827417	 0.117032
H	 2.8338474151	-2.4917251476	 1.0245383845	 0.144196
H	 0.1299702189	-4.0573622911	 0.9175836403	 0.093679
H	 1.3218921691	-2.0977553662	 3.00267575	 0.146978
H	-0.3493846191	-2.693758856	 3.0345791185	 0.124304
H	 0.9917180526	-3.8126349272	 3.3095209879	 0.125213
57.2502	66.1254	109.0955	117.9811	175.9487	191.3218	224.2181	229.5816	262.7039	346.4257	397.0549	450.9391	564.8021	589.8254	734.0039	755.1142	810.0661	884.1793	915.8765	1020.6321	1042.0886	1059.7647	1086.8467	1120.0698	1134.7443	1142.7939	1163.4569	1174.1842	1180.4513	1198.3521	1199.9812	1247.2955	1360.5228	1396.8102	1422.7408	1440.884	1477.2631	1487.2342	1488.6705	1495.2221	1496.1846	1500.0754	1502.4698	1510.0331	1745.6412	3002.6628	3034.9141	3036.1695	3053.4598	3093.5602	3095.2695	3108.154	3112.1484	3117.4163	3131.9996	3137.7216	3209.5448
COC(=NC)N1CC1C	COC(=NC)N1C[C@H]1C	
InChI=1S/C6H12N2O/c1-5-4-8(5)6(7-2)9-3/h5H,4H2,1-3H3	InChI=1S/C6H12N2O/c1-5-4-8(5)6(7-2)9-3/h5H,4H2,1-3H3/t5-,8?/m1/s1
