18
gdb 29641	2.35415	1.66593	0.99291	2.8573	77.58	-0.1785	0.0403	0.2188	1179.6738	0.147279	-435.2972	-435.287565	-435.28662	-435.331976	34.605	
C	 0.0575434696	 1.4355366252	-0.0132783299	-0.345242
N	 0.0407458087	-0.0083434906	 0.0410804572	-0.14987
C	-0.0174167859	-0.8060687419	-1.0855938019	 0.44746
N	-0.0624675055	-0.3958384697	-2.2886304582	-0.621258
O	-0.0164809258	-2.1062404518	-0.6455283976	-0.242617
C	 0.0427783144	-2.0918372604	 0.7621544264	 0.146725
N	 0.0561579241	-3.2902949608	 1.4649506273	-0.593729
C	 0.0776447943	-0.8195891892	 1.1829907792	 0.290678
C	 0.1429932671	-0.2806233781	 2.5664635585	-0.503783
H	 0.9725930727	 1.8430100623	 0.4311296402	 0.127634
H	 0.0177291162	 1.7150151079	-1.0665729262	 0.181497
H	-0.8066738654	 1.8665641374	 0.5046125271	 0.127632
H	-0.1000659745	-1.1803165045	-2.9327478163	 0.218875
H	 0.859600072	-3.8670069934	 1.231645973	 0.247019
H	-0.7790010732	-3.8451581614	 1.3000834325	 0.247018
H	 0.1608570004	-1.1143226089	 3.2704227473	 0.154987
H	 1.0417971527	 0.3270750389	 2.7249577924	 0.133491
H	-0.7222305617	 0.351598909	 2.7987041291	 0.133483
43.7307	107.8297	150.9287	175.1517	224.3412	250.9862	266.0003	291.7314	335.7036	341.0454	558.5321	609.687	620.0037	639.1091	701.1096	716.0353	740.3826	798.6356	891.8733	987.3923	1022.6733	1068.7726	1080.2578	1153.3117	1156.4824	1218.0565	1228.9487	1311.2361	1370.3121	1419.3038	1426.526	1468.6241	1479.8093	1496.8836	1498.8736	1512.9924	1659.1679	1753.7777	1806.7337	3022.7656	3027.7602	3071.8258	3077.6563	3140.7722	3153.7022	3482.0335	3541.1493	3547.1894
CN1C(=N)OC(N)=C1C	CN1[C@H]([NH])OC(=C1C)N	
InChI=1S/C5H9N3O/c1-3-4(6)9-5(7)8(3)2/h7H,6H2,1-2H3	InChI=1S/C5H10N3O/c1-3-4(6)9-5(7)8(3)2/h5,7H,6H2,1-2H3/t5-/m0/s1
