19
gdb 10342	2.72185	1.38791	1.10312	2.2326	68.16	-0.2416	0.0351	0.2767	1142.7155	0.163542	-402.232523	-402.222219	-402.221275	-402.268873	35.292	
C	 0.4194197575	 1.358497372	-0.2952102005	-0.385739
C	 0.1320799723	-0.1444667216	-0.2222035796	-0.16259
C	-1.3422240784	-0.5248500812	 0.0629212441	-0.090884
C	-2.3022036372	-0.2379997435	-1.0968885436	-0.075952
O	-2.4784379647	 1.1685992784	-1.2131346285	-0.423624
C	-1.3965722711	-2.0233975746	 0.3643934489	 0.400313
N	-1.3602406735	-2.3546418163	 1.6881348793	-0.526011
O	-1.4426663463	-2.8651020385	-0.5142414031	-0.375672
H	 1.4865587757	 1.5321553738	-0.468553229	 0.104028
H	-0.1502290496	 1.8356578301	-1.0932431012	 0.138233
H	 0.1491409773	 1.8565877512	 0.6427665312	 0.106713
H	 0.4324414812	-0.6359955149	-1.1553991019	 0.113843
H	 0.7558215511	-0.5877168757	 0.5647772287	 0.09278
H	-1.6933204857	 0.0430558876	 0.9348020434	 0.075537
H	-1.8941585119	-0.6780379545	-2.0165561625	 0.110034
H	-3.2639605789	-0.735164901	-0.9002844724	 0.09398
H	-3.0475899213	 1.3322417384	-1.9706887666	 0.28726
H	-1.3125825137	-1.6650578457	 2.416528201	 0.258713
H	-1.3298193729	-3.3300655838	 1.936465752	 0.259037
29.584	57.9973	114.5184	117.0805	190.1938	192.0038	243.4387	261.7084	324.4117	345.7509	369.6122	494.3975	582.8707	630.9528	751.038	781.0497	848.0697	907.6019	980.0322	994.6926	1056.2786	1068.8285	1097.6807	1124.911	1168.0997	1224.5035	1252.017	1274.1167	1311.9813	1350.1321	1372.583	1393.8477	1415.9664	1460.0015	1488.2149	1496.2153	1511.0509	1519.3862	1615.5845	1786.7366	2987.2036	3017.9639	3020.6784	3035.8658	3037.4184	3061.9628	3095.2105	3148.9284	3602.5726	3742.596	3831.0449
CCC(CO)C(N)=O	CC[C@@H](CO)C(=O)N	
InChI=1S/C5H11NO2/c1-2-4(3-7)5(6)8/h4,7H,2-3H2,1H3,(H2,6,8)	InChI=1S/C5H11NO2/c1-2-4(3-7)5(6)8/h4,7H,2-3H2,1H3,(H2,6,8)/t4-/m0/s1
