21
gdb 95075	2.27533	1.90249	1.28875	1.8371	77.42	-0.2362	0.0702	0.3065	1053.0013	0.183552	-424.227388	-424.219046	-424.218102	-424.259624	33.6	
C	-0.1002943791	 1.5484305347	 0.0312439403	-0.476488
C	 0.068674899	 0.0493304049	-0.0147243151	 0.399707
C	 0.7390257151	-0.6229609412	-1.2358331271	-0.297905
C	-0.3765252598	-1.6650716136	-1.0210736171	 0.097969
C	 0.0032662895	-2.729628325	 0.0061264931	-0.208708
C	 0.8685856414	-2.0753449131	 1.1093798834	-0.260747
C	 0.5498930714	-0.5726809413	 1.3091249228	 0.109385
O	 1.6947934908	 0.1444230024	 1.7572803172	-0.443886
O	-1.1721590045	-0.6617908087	-0.3266103074	-0.330313
H	 0.8627264407	 2.0305248855	 0.2164260981	 0.137672
H	-0.5133949313	 1.9119901891	-0.9135953001	 0.113845
H	-0.7838909651	 1.8322214283	 0.8386450263	 0.120327
H	 0.5839525361	-0.0382658124	-2.1441590004	 0.103154
H	 1.782737897	-0.9326643498	-1.160670528	 0.1042
H	-0.899269123	-2.0702603748	-1.8918958154	 0.071538
H	-0.9249527781	-3.1386228881	 0.4189340648	 0.109693
H	 0.5462174232	-3.5590184272	-0.4621450542	 0.094608
H	 0.7746681051	-2.6176748326	 2.0566691171	 0.091116
H	 1.9246123347	-2.1291538907	 0.8240242571	 0.10942
H	-0.2835965962	-0.451167064	 2.0180792763	 0.072251
H	 2.0023921631	-0.2625393625	 2.5732801885	 0.283161
128.1226	197.6538	230.8998	253.778	266.6153	324.2273	373.9367	411.8458	451.4954	473.6794	538.8627	588.1165	688.9535	793.562	834.7025	859.4437	871.6031	920.8615	946.504	950.1792	985.0739	1027.1876	1029.7728	1072.1407	1080.1069	1097.8815	1129.4414	1186.3741	1221.84	1223.5932	1230.9559	1271.0546	1280.7265	1310.7083	1330.6106	1352.6018	1366.4867	1376.2262	1405.1791	1433.403	1477.5589	1480.7151	1488.1526	1492.5403	1515.632	2982.0033	3031.924	3040.8699	3041.7231	3068.1337	3069.7931	3080.3397	3088.7247	3109.8475	3132.009	3136.1104	3817.6101
CC12CC(CCC1O)O2	C[C@@]12C[C@@H](CC[C@H]1O)O2	
InChI=1S/C7H12O2/c1-7-4-5(9-7)2-3-6(7)8/h5-6,8H,2-4H2,1H3	InChI=1S/C7H12O2/c1-7-4-5(9-7)2-3-6(7)8/h5-6,8H,2-4H2,1H3/t5-,6-,7-/m1/s1
