19
gdb 63133	2.33993	1.88866	1.35114	2.8472	74.86	-0.2255	-0.0182	0.2073	1009.6742	0.15871	-423.015077	-423.006807	-423.005863	-423.047318	32.415	
C	-0.0771379806	 1.5730397438	 0.0378264491	-0.473226
C	-0.0190745047	 0.0481113436	 0.004949668	 0.30749
C	-1.4179713594	-0.5611723859	 0.1261165917	-0.470886
C	 0.856631187	-0.6456728801	-1.1249428099	-0.22384
C	 2.2239973463	 0.0136527495	-0.8985400174	-0.105009
O	 2.2836681768	 0.0189061933	 0.5578926195	-0.280004
C	 1.0537779965	-0.6262982601	 0.9309957502	-0.054051
C	 1.0091644103	-1.7872892707	-0.0877436045	 0.440701
O	 0.998274644	-2.9793099916	-0.0898805071	-0.322957
H	 0.9102018029	 2.021220039	 0.1559601479	 0.140702
H	-0.5352975378	 1.9658372614	-0.8764095289	 0.11871
H	-0.692353908	 1.9043868801	 0.8810436943	 0.120372
H	-2.0535907348	-0.2228292476	-0.699242169	 0.123457
H	-1.4077790194	-1.6550471492	 0.10722326	 0.141441
H	-1.8938469697	-0.2469964632	 1.0610191162	 0.122452
H	 0.5093554997	-0.801618875	-2.1441354354	 0.089607
H	 3.0546776149	-0.5743278233	-1.3050453425	 0.119227
H	 2.2958620488	 1.0389719425	-1.2754826319	 0.110442
H	 0.9778599672	-0.7155675565	 2.0120502296	 0.095371
146.7651	178.721	197.9086	225.9529	282.6753	318.6855	348.3331	377.6744	475.0724	508.8347	612.8499	665.5906	667.9147	747.3736	824.4907	900.6385	933.4039	946.7408	962.5072	969.8085	1000.8672	1018.8871	1054.6885	1071.8372	1111.4894	1149.8855	1192.1999	1196.3697	1208.7617	1237.6472	1269.2705	1297.034	1364.6305	1404.4495	1428.4509	1482.7247	1490.2325	1504.901	1511.6859	1537.6205	1913.579	3032.1097	3032.6101	3039.0497	3073.1276	3093.7732	3097.9093	3110.134	3139.4513	3148.5256	3159.7087
CC1(C)C2COC1C2=O	CC1(C)[C@H]2CO[C@@H]1C2=O	
InChI=1S/C7H10O2/c1-7(2)4-3-9-6(7)5(4)8/h4,6H,3H2,1-2H3	InChI=1S/C7H10O2/c1-7(2)4-3-9-6(7)5(4)8/h4,6H,3H2,1-2H3/t4-,6+/m0/s1
