16
gdb 38808	3.36853	2.01449	1.71802	2.2837	66.65	-0.2468	0.009	0.2558	816.1718	0.128601	-437.879968	-437.874282	-437.873338	-437.909742	24.203	
C	-0.0518945705	 1.5822773683	 0.0480349921	-0.244638
C	 1.4787595153	 1.3769998301	-0.0054485764	 0.074585
O	 1.7426544733	 0.7337663627	 1.264710265	-0.275722
C	 0.7832900219	-0.3126164366	 1.2612786464	 0.224859
O	 1.4476374245	-1.5745770957	 1.1400011782	-0.236779
C	 2.1709540094	-1.6905721634	-0.0053231931	 0.127974
N	 2.1601961427	-0.9196114539	-1.0097664848	-0.285267
C	 1.2106917074	 0.1656797344	-0.9498911264	 0.032336
C	-0.0283550439	 0.031678584	 0.0028965268	-0.145518
H	-0.4409410213	 2.075356658	 0.9408951455	 0.110611
H	-0.4751573825	 2.0188996711	-0.8584577233	 0.113183
H	 2.2144531901	 2.1580100843	-0.1834888688	 0.093938
H	 0.2492607699	-0.3598789109	 2.2108823446	 0.099692
H	 2.7960444153	-2.5799278832	 0.0245482397	 0.131415
H	 0.9302015017	 0.4839811166	-1.9548099626	 0.092172
H	-0.8905263032	-0.5925269559	-0.2207966329	 0.087159
249.1507	332.9033	375.4747	479.1448	515.2155	589.6619	633.8286	740.2892	814.3928	827.6711	854.6438	874.8027	918.9591	931.0604	942.0424	972.3749	980.3694	1022.8314	1046.2697	1051.2705	1087.3937	1107.0786	1109.6414	1164.4853	1190.1102	1228.3191	1244.0733	1269.3136	1286.8925	1343.9697	1359.9487	1383.8805	1409.0045	1491.3484	1713.0355	3074.7452	3105.5998	3113.105	3140.2186	3147.2368	3154.7931	3172.9195
C1C2OC3OC=NC2C13	C1[C@H]2O[C@@H]3OC=N[C@H]2[C@H]13	
InChI=1S/C6H7NO2/c1-3-5-4(1)9-6(3)8-2-7-5/h2-6H,1H2	InChI=1S/C6H7NO2/c1-3-5-4(1)9-6(3)8-2-7-5/h2-6H,1H2/t3-,4+,5-,6-/m0/s1
