15
gdb 26543	2.43084	1.86599	1.06266	6.5853	72.28	-0.218	-0.0259	0.1921	1058.7109	0.11431	-454.018966	-454.01116	-454.010216	-454.051371	29.167	
C	 0.033754965	 1.557349023	 0.0221106146	-0.505406
C	-0.040032933	 0.0636617734	 0.0145573828	 0.236915
C	-1.1703732458	-0.6767474591	-0.0841395136	 0.197764
O	-2.4016898275	-0.1505942235	-0.1903805788	-0.43329
C	-1.1251134579	-2.1476353307	-0.0814601083	 0.337078
O	-2.1907647176	-2.7525358991	-0.1741653182	-0.410595
N	 0.1108101183	-2.7656861163	 0.0249341469	-0.327322
C	 1.1587767374	-2.0087664377	 0.1164432889	 0.089246
N	 1.1466217095	-0.6560889485	 0.1167211429	-0.343564
H	 0.6348730164	 1.9343007549	-0.8144339351	 0.138395
H	-0.9704962303	 1.9725285955	-0.0646318651	 0.172358
H	 0.4819375141	 1.9329143339	 0.9501916453	 0.138386
H	-2.9698889473	-0.9490014032	-0.2403914373	 0.306634
H	 2.1444688139	-2.4614869403	 0.2013731459	 0.135276
H	 2.0174366449	-0.1533478123	 0.1927624089	 0.268125
104.6681	123.7387	193.4097	271.5947	322.5096	339.0599	496.7334	503.3665	538.0748	540.5671	582.8255	608.1205	694.5082	721.3735	813.6036	882.7711	947.2811	965.7059	1059.719	1061.2022	1152.2529	1225.6435	1290.8194	1305.3345	1412.6932	1423.0853	1440.7062	1486.1092	1486.2677	1546.3871	1625.0792	1709.5413	1743.0669	3022.9874	3071.88	3153.5993	3155.7674	3525.1344	3629.2619
CC1=C(O)C(=O)N=CN1	Cc1c(O)c(=O)nc[nH]1	
InChI=1S/C5H6N2O2/c1-3-4(8)5(9)7-2-6-3/h2,8H,1H3,(H,6,7,9)	InChI=1S/C5H6N2O2/c1-3-4(8)5(9)7-2-6-3/h2,8H,1H3,(H,6,7,9)
