19
gdb 52667	3.24551	0.8155	0.67627	2.3483	82.43	-0.2449	-0.0428	0.2021	1658.946	0.155064	-423.010928	-423.000002	-422.999058	-423.048908	37.339	
C	-0.0458045466	 1.4843863418	 0.0743113723	-0.498832
C	-0.0361426841	 0.0289906722	 0.0425949728	 0.074693
C	-0.0074124285	-1.1743066234	 0.02077713	 0.086708
C	-0.0141343116	-2.6341538034	-0.0241664757	-0.185492
C	-1.4599948228	-3.1699552827	-0.0838406964	-0.405934
C	 0.8653345051	-3.1207364624	-1.2221122217	 0.056209
O	 2.1561976607	-2.5925475456	-1.1388100892	-0.426992
C	 0.9351785702	-4.6355565805	-1.2963701456	 0.123851
O	 1.9894747618	-5.2207860438	-1.2167003253	-0.260019
H	 0.7983078872	 1.8962459903	-0.4896634787	 0.152735
H	-0.9658186507	 1.8890099785	-0.3619282761	 0.145129
H	 0.027146062	 1.860290597	 1.1008560693	 0.147748
H	 0.4693698746	-3.0145541774	 0.8859921848	 0.112163
H	-1.9332830528	-2.9104822373	-1.0362710114	 0.127629
H	-1.4983423697	-4.2559715945	 0.039858026	 0.115238
H	-2.0537472581	-2.7195929061	 0.7145849325	 0.136874
H	 0.366465241	-2.7796873927	-2.1471799699	 0.098921
H	 2.7505060893	-3.3588076731	-1.0995219279	 0.293991
H	-0.0159165272	-5.1821149968	-1.441115	 0.105379
23.1211	45.0695	74.0418	107.9151	143.6428	205.8544	253.3389	302.2579	308.994	337.9694	359.6424	400.3983	463.6038	486.6689	558.577	727.1847	759.005	827.2198	919.4373	969.01	1020.1156	1051.6588	1053.8502	1086.4734	1115.0577	1158.3747	1198.4679	1252.3691	1283.8708	1327.4996	1353.963	1395.2051	1411.934	1414.5889	1441.6706	1478.2172	1478.6373	1493.5802	1502.4682	1805.8781	2372.8469	2944.2289	2961.9182	3015.1519	3027.0372	3043.285	3087.0275	3089.1029	3113.0695	3127.2735	3687.3038
CC#CC(C)C(O)C=O	CC#C[C@@H](C)[C@@H](O)C=O	
InChI=1S/C7H10O2/c1-3-4-6(2)7(9)5-8/h5-7,9H,1-2H3	InChI=1S/C7H10O2/c1-3-4-6(2)7(9)5-8/h5-7,9H,1-2H3/t6-,7+/m1/s1
