17
gdb 53985	1.87572	1.60018	1.16519	1.4076	75.72	-0.2522	-0.0615	0.1906	1136.4255	0.130158	-421.816913	-421.806501	-421.805556	-421.852632	36.593	
C	-0.0892363473	 1.4545941969	 0.0830103869	-0.495137
C	 0.124504068	-0.0447095506	 0.0949712592	 0.374912
O	 0.3912387093	-0.6589267744	 1.0938389503	-0.275181
C	 0.0208031051	-0.7760169557	-1.2941806702	-0.178711
C	-1.1527659143	-0.2383210175	-2.1415622216	-0.432927
C	 1.3696365362	-0.4611130585	-1.9896497072	 0.141612
O	 1.5344205762	 0.4708157623	-2.7292088606	-0.245666
C	-0.0646068528	-2.2176247716	-1.1051005396	 0.341366
C	-0.1130795182	-3.4139256256	-1.008232823	-0.436184
H	 0.449071609	 1.9249736225	-0.7446702648	 0.162561
H	-1.1523892311	 1.6797012378	-0.0532486397	 0.153293
H	 0.2407985117	 1.8654556282	 1.0375956353	 0.148902
H	-0.9785395576	 0.800621923	-2.4226261421	 0.144701
H	-1.2412213329	-0.8272511779	-3.0569870061	 0.142111
H	-2.0930452896	-0.3187456202	-1.591022251	 0.132294
H	 2.1855568319	-1.1625691189	-1.7241659369	 0.118484
H	-0.1674082936	-4.4690057798	-0.8976867289	 0.203569
51.3315	65.3168	136.9848	160.7695	185.5855	199.4419	229.5733	273.2133	286.2954	399.9366	412.6056	508.4763	516.8158	583.6837	612.3474	640.9771	652.5715	701.4056	828.5612	909.9276	969.4324	996.3718	1049.8581	1117.5152	1135.3857	1167.4262	1228.2178	1386.7742	1396.181	1410.5103	1464.8805	1472.8466	1490.1	1499.7426	1808.4507	1832.7442	2240.5155	2939.2539	3048.2026	3060.3205	3114.9705	3133.554	3154.4524	3158.5815	3500.4834
CC(=O)C(C)(C=O)C#C	CC(=O)[C@@](C)(C=O)C#C	
InChI=1S/C7H8O2/c1-4-7(3,5-8)6(2)9/h1,5H,2-3H3	InChI=1S/C7H8O2/c1-4-7(3,5-8)6(2)9/h1,5H,2-3H3/t7-/m1/s1
