18
gdb 115437	3.3433	1.04018	0.91554	3.7697	71.67	-0.2674	0.0134	0.2808	1289.264	0.148418	-439.099685	-439.090939	-439.089995	-439.13418	31.755	
O	 0.3021028561	 1.1222398452	 0.4614359875	-0.41974
C	-0.0069434272	-0.1819274332	 0.0254670222	-0.057003
C	-1.5135505141	-0.4010559891	-0.0803329073	 0.107398
C	-1.9246771127	-1.8590116141	-0.3620084658	-0.26928
C	-2.3497925529	-2.3873225632	 1.0187359238	-0.234815
C	-2.895059515	-1.1123874341	 1.686115491	-0.027263
O	-2.0755966032	-0.0590710112	 1.2131576773	-0.280652
C	-4.314842484	-0.8745892629	 1.3369204251	 0.271119
N	-5.4221299255	-0.6971260258	 1.0584007375	-0.319243
H	-0.2237025813	 1.2725349944	 1.256103161	 0.293425
H	 0.451664792	-0.3086110572	-0.9614066994	 0.112137
H	 0.4211899542	-0.9485278403	 0.6947372424	 0.079878
H	-1.9287980416	 0.2954813176	-0.816779168	 0.101785
H	-2.7648821632	-1.8942520548	-1.0598249448	 0.13284
H	-1.1057175319	-2.4393491416	-0.7946103427	 0.119418
H	-3.0841105144	-3.1928670111	 0.972234964	 0.133331
H	-1.4869840528	-2.7358682509	 1.5928060813	 0.122442
H	-2.8174436524	-1.1379167477	 2.7774157951	 0.134223
35.6901	100.7218	124.4163	182.8035	229.2682	292.5647	375.9188	439.3365	460.0332	489.3394	581.6562	672.3472	738.5754	807.0669	841.0198	868.8092	943.3688	961.2918	994.4876	1016.9651	1065.1568	1078.9507	1104.4138	1119.0451	1184.6358	1208.1405	1234.3556	1284.5306	1310.4122	1326.5562	1345.0939	1355.8083	1374.9986	1400.714	1438.7147	1482.9411	1495.5798	1499.8854	2354.3015	2955.4529	3049.017	3065.2328	3067.1272	3074.5787	3076.4465	3112.4701	3133.4879	3794.2698
OCC1CCC(O1)C#N	OC[C@H]1CC[C@@H](O1)C#N	
InChI=1S/C6H9NO2/c7-3-5-1-2-6(4-8)9-5/h5-6,8H,1-2,4H2	InChI=1S/C6H9NO2/c7-3-5-1-2-6(4-8)9-5/h5-6,8H,1-2,4H2/t5-,6-/m1/s1
