20
gdb 102819	1.66037	1.49815	0.86417	4.0558	77.71	-0.2596	0.0189	0.2786	1379.0769	0.168705	-440.258724	-440.248687	-440.247743	-440.295196	35.01	
C	-0.2455988018	 1.3624599015	 0.0486688689	-0.399289
C	-0.0106318618	-0.1456661295	 0.1433612636	-0.173958
C	 0.8075416849	-0.5608437262	 1.3681499593	 0.064611
O	 0.0756449385	-0.1898527717	 2.5402065858	-0.187933
C	 0.754657908	 0.3702868473	 3.5603670012	 0.130168
N	 0.1843534577	 0.5652044861	 4.668921945	-0.445846
C	 1.0959413795	-2.0532593685	 1.3573627005	 0.071113
C	 0.8657064224	-2.9352725673	 2.5080629339	-0.182995
O	-0.0296412637	-2.9247847846	 1.3921590219	-0.228909
H	 0.700664404	 1.9115771115	-0.0218832936	 0.108377
H	-0.8374310518	 1.6076255602	-0.8378040681	 0.119484
H	-0.7846712637	 1.7285478785	 0.926287297	 0.141176
H	-0.9626184963	-0.6843882313	 0.1865643546	 0.134925
H	 0.5152254518	-0.5058893808	-0.7492927385	 0.10013
H	 1.7734467881	-0.0317721117	 1.363961726	 0.076828
H	 1.7927477203	 0.6279991997	 3.3055158994	 0.087166
H	 0.8264914888	 1.0214595862	 5.313496621	 0.229557
H	 1.8600275597	-2.3390005594	 0.6305257656	 0.09512
H	 1.4662769311	-3.8376033679	 2.6157475795	 0.11401
H	 0.4574022345	-2.523581552	 3.427136137	 0.146266
40.6458	63.8854	95.3969	101.1691	170.7925	196.016	261.6038	280.1848	314.6115	408.4982	504.2349	563.2267	677.4636	787.2997	798.1438	823.3075	893.3398	906.9704	955.5055	979.3531	1025.6046	1041.3489	1057.4557	1091.6354	1107.9686	1148.2395	1159.962	1171.7264	1177.736	1278.2036	1289.2237	1297.1364	1318.7608	1381.4928	1385.6794	1411.1207	1426.0808	1433.8855	1479.6728	1499.2056	1509.8731	1523.367	1741.6499	2983.0959	3013.1594	3035.2707	3038.7162	3081.4464	3085.8725	3095.1993	3105.6698	3124.4304	3192.7224	3518.7174
CCC(OC=N)C1CO1	CC[C@@H](O[CH][NH])[C@H]1CO1	
InChI=1S/C6H11NO2/c1-2-5(9-4-7)6-3-8-6/h4-7H,2-3H2,1H3	InChI=1S/C6H11NO2/c1-2-5(9-4-7)6-3-8-6/h4-7H,2-3H2,1H3/t5-,6-/m1/s1
