16
gdb 25663	5.59317	0.78471	0.69412	1.8341	89.49	-0.2172	-0.0235	0.1937	1620.5342	0.123337	-400.77187	-400.762772	-400.761828	-400.808538	31.181	
C	-0.156783724	 1.4034513062	 0.032786136	-0.513026
C	-0.0464984774	-0.0448492916	 0.0320583302	 0.29538
C	 0.0502790298	-1.2466772497	 0.0318152295	-0.099115
C	 0.1674749475	-2.6500372979	 0.0318661275	 0.183601
N	 1.2443334682	-3.3791189662	 0.1092903833	-0.313331
C	 0.783506246	-4.6811967264	 0.0659415335	-0.200416
C	-0.5714362194	-4.6897945362	-0.0373376235	 0.324279
C	-1.6091899976	-5.7461521441	-0.1230729497	-0.502811
O	-0.9824234036	-3.3869882306	-0.0604026147	-0.200159
H	 0.437280106	 1.8450908799	-0.7748910079	 0.158816
H	-1.1969258817	 1.7170516552	-0.1055079809	 0.157684
H	 0.1984689604	 1.8268797001	 0.9788097723	 0.158451
H	 1.45661939	-5.5230337716	 0.1118975341	 0.118817
H	-2.3186540138	-5.6797875072	 0.7092794233	 0.145036
H	-2.1844504779	-5.6686513203	-1.0523860638	 0.145033
H	-1.1363497627	-6.7302808694	-0.0932734493	 0.141762
6.3894	84.2527	94.861	142.5868	220.6856	273.6987	308.9279	360.7023	470.9331	474.1893	555.2401	648.7508	679.9229	751.0161	852.9517	943.434	985.8653	1019.6396	1048.9066	1051.3051	1053.6806	1066.1566	1147.5488	1244.4958	1268.3537	1360.5606	1411.0839	1417.9167	1471.5358	1471.9258	1474.1266	1490.0095	1569.6505	1631.5878	2364.4038	3028.4742	3033.0114	3085.4266	3089.5235	3095.5804	3130.128	3259.2768	6.4359	84.2536	94.8613	142.5871	220.6856	273.6988	308.9276	360.7022	470.9332	474.1883	555.2409	648.751	679.923	751.0158	852.9524	943.4341	985.8652	1019.6396	1048.906	1051.3047	1053.6802	1066.1566	1147.5487	1244.4959	1268.3534	1360.5606	1411.0834	1417.9167	1471.5349	1471.9258	1474.1257	1490.0095	1569.6504	1631.5877	2364.4036	3028.4742	3033.0114	3085.4265	3089.5235	3095.5804	3130.128	3259.2769
CC#CC1=NC=C(C)O1	CC#Cc1ncc(C)o1	
InChI=1S/C7H7NO/c1-3-4-7-8-5-6(2)9-7/h5H,1-2H3	InChI=1S/C7H7NO/c1-3-4-7-8-5-6(2)9-7/h5H,1-2H3
