16
gdb 15822	3.86375	1.1335	0.94142	1.2842	61.64	-0.2527	-0.0286	0.2241	1202.8026	0.128035	-420.85882	-420.850115	-420.849171	-420.89312	29.888	
O	 0.1419076744	 0.6262743747	 1.2811862444	-0.424429
C	-0.0219684934	-0.0412477176	 0.0390593714	-0.078101
C	-1.2652678582	-0.9093509935	 0.1601085212	-0.293645
C	-1.558339095	-1.6909523409	-1.1021907583	 0.349511
O	-0.9139224139	-1.5708951763	-2.1216763148	-0.313203
C	-2.7243093722	-2.6443528462	-1.0787201472	-0.005007
C	-2.8416208987	-3.6907569426	-0.0412463387	-0.177168
O	-3.6627395229	-2.5340077084	-0.0071813182	-0.21457
H	 0.9113797604	 1.1986660025	 1.2123665518	 0.288067
H	-0.1464617706	 0.6662137695	-0.7926053364	 0.104667
H	 0.8469239564	-0.6704166654	-0.2031973103	 0.099517
H	-1.1647218198	-1.5924220282	 1.0127294467	 0.133314
H	-2.1426424996	-0.2946306765	 0.3969399385	 0.150708
H	-3.1446790222	-2.8456443803	-2.062734385	 0.119671
H	-3.3432123315	-4.6221701939	-0.298188274	 0.133209
H	-2.0916908433	-3.7625009269	 0.744384439	 0.127459
63.8461	80.4914	106.4541	131.4173	248.6874	269.133	274.1375	379.0585	493.2603	555.2605	574.6194	795.8046	819.7244	874.1072	910.756	942.6297	1036.0658	1059.4414	1080.9998	1095.9875	1149.8125	1164.2082	1188.0855	1206.7992	1257.9263	1265.9455	1298.9472	1358.4335	1392.8857	1440.4875	1468.2176	1523.3666	1524.5238	1794.5382	2994.6434	3024.429	3041.6005	3073.0805	3091.3253	3135.3433	3181.9767	3832.5612
OCCC(=O)C1CO1	OCCC(=O)[C@H]1CO1	
InChI=1S/C5H8O3/c6-2-1-4(7)5-3-8-5/h5-6H,1-3H2	InChI=1S/C5H8O3/c6-2-1-4(7)5-3-8-5/h5-6H,1-3H2/t5-/m1/s1
