19
gdb 7469	3.58789	1.42377	1.2899	3.9637	74.99	-0.3034	0.0314	0.3349	1028.48	0.165375	-327.941853	-327.933488	-327.932544	-327.974601	31.296	
C	-0.25015038	 1.7153176123	 0.1203110173	-0.467495
C	 0.0619545305	 0.2254503071	 0.0504709208	 0.342113
C	-1.2211832567	-0.6019013687	-0.1953621306	-0.389325
C	-1.8607081551	-0.3018026137	-1.4760552894	 0.269645
N	-2.3469962219	-0.0539171823	-2.4949951652	-0.317817
C	 1.222974243	-0.2140521691	-0.8987829971	-0.252445
C	 1.7746222028	-1.1322209495	 0.224689253	-0.213526
C	 0.8704851189	-0.3842081033	 1.2411410975	-0.2641
H	 0.6624804825	 2.2919460333	 0.2992610861	 0.115697
H	-0.6980460633	 2.0737418997	-0.8127228698	 0.141216
H	-0.9502315592	 1.9362250642	 0.935077934	 0.114509
H	-0.9932867661	-1.6737380304	-0.172551616	 0.146683
H	-1.9443039139	-0.4157514163	 0.6080094319	 0.146591
H	 0.937816096	-0.6799829296	-1.845468443	 0.113324
H	 1.8937445828	 0.6210446752	-1.1176472754	 0.104889
H	 1.4862897447	-2.1786773874	 0.094359751	 0.10577
H	 2.8506430011	-1.1001101986	 0.4060881443	 0.104562
H	 1.4143220864	 0.3908765186	 1.7879351668	 0.103794
H	 0.3123695974	-0.9857564916	 1.964885014	 0.095913
77.5469	129.677	144.3953	234.6977	291.099	329.2889	373.4661	381.2773	404.8637	522.8648	643.4108	725.5603	783.2655	858.6061	880.1079	898.0814	938.0321	944.1091	957.7814	981.1441	1003.731	1070.3274	1148.3625	1163.4387	1202.8497	1215.9065	1259.0418	1261.8511	1277.3628	1291.7468	1323.8112	1334.346	1415.8214	1462.1381	1477.9334	1486.4073	1495.224	1498.255	1509.3059	2357.6573	3025.1669	3035.9773	3049.9345	3059.4991	3066.2004	3075.6266	3091.7561	3096.2987	3105.8464	3106.9444	3123.2494
CC1(CC#N)CCC1	CC1(CC#N)CCC1	
InChI=1S/C7H11N/c1-7(5-6-8)3-2-4-7/h2-5H2,1H3	InChI=1S/C7H11N/c1-7(5-6-8)3-2-4-7/h2-5H2,1H3
