18
gdb 80514	2.19797	1.507	1.26157	4.4503	78.58	-0.2156	0.0052	0.2209	1095.9868	0.147771	-398.082242	-398.073318	-398.072374	-398.115537	33.258	
C	 2.0263374644	 0.2892193165	-1.9759684772	-0.342631
N	 2.3997017319	-0.8369974018	-1.1396090577	-0.120254
C	 3.7709870205	-0.9961733496	-0.6038561004	-0.198334
C	 3.2069726032	-1.2734969816	 0.7953150935	-0.163349
C	 2.3887788267	-0.1320924073	 1.2977473273	-0.028858
N	 2.7975351138	 1.2360984408	 1.2109078642	-0.524085
C	 1.807520439	-1.0195213482	 0.1786847099	 0.189706
C	 0.5773992913	-1.7300885832	 0.3417831209	 0.227667
N	-0.4356613771	-2.2724925066	 0.4862898143	-0.353011
H	 2.2743380168	 1.2783798993	-1.5588016549	 0.089392
H	 2.5212534673	 0.1940977525	-2.9478500569	 0.129749
H	 0.946486173	 0.2546623368	-2.149275524	 0.142464
H	 4.2897514425	-1.8510306369	-1.0487664482	 0.12519
H	 4.4223126922	-0.1150676701	-0.692654423	 0.100178
H	 3.5059573604	-2.1019661239	 1.4230120954	 0.121975
H	 1.9119657716	-0.3631494167	 2.2490390482	 0.121513
H	 3.4399238259	 1.4027086578	 0.4473695284	 0.239934
H	 2.0049478565	 1.8581256921	 1.0964867902	 0.242757
122.0851	140.9073	165.9971	178.3501	213.3864	260.2124	292.055	339.9012	446.5564	505.684	544.8767	565.1144	661.569	699.8546	771.6523	805.3464	862.8628	895.4794	960.2314	992.7746	1030.3109	1087.3706	1091.9529	1126.9136	1157.847	1184.5339	1220.1706	1243.2556	1254.769	1286.6894	1317.0257	1337.8008	1446.9844	1458.5077	1486.371	1502.3194	1519.2387	1654.431	2336.3527	2970.7234	2999.2608	3066.4589	3067.5894	3109.3775	3128.8102	3211.7656	3525.7492	3616.292
CN1CC2C(N)C12C#N	CN1C[C@H]2[C@@H](N)[C@@]12C#N	
InChI=1S/C6H9N3/c1-9-2-4-5(8)6(4,9)3-7/h4-5H,2,8H2,1H3	InChI=1S/C6H9N3/c1-9-2-4-5(8)6(4,9)3-7/h4-5H,2,8H2,1H3/t4-,5+,6-/m0/s1
