14
gdb 49337	2.17191	1.73031	1.0042	3.7315	65.	-0.2701	-0.0645	0.2056	1094.724	0.099171	-473.85539	-473.847136	-473.846191	-473.89023	28.481	
N	 0.0303639037	 1.2784108477	 0.1615577922	-0.515605
C	 0.0424844836	 0.0207458431	 0.099506468	 0.398987
O	 1.1796286421	-0.7487872858	 0.1089708857	-0.238642
C	 0.886199399	-2.1418490741	 0.1317164339	-0.198486
C	-0.6372232841	-2.2700602057	 0.1870642906	 0.365566
O	-1.251367533	-3.2887088957	 0.3151989998	-0.270432
C	-1.1918813164	-0.8433010453	 0.0396817952	-0.317396
C	-2.2445614074	-0.4890755982	 1.0928434706	 0.177456
O	-3.4143240323	-0.6989973845	 0.9436624423	-0.227805
H	 0.9788721272	 1.6540512549	 0.2166251916	 0.233981
H	 1.2779535447	-2.627967637	-0.7693261153	 0.155978
H	 1.3464304171	-2.6089174293	 1.0089629595	 0.157041
H	-1.6806361415	-0.7780397312	-0.9383539326	 0.170664
H	-1.8320244827	-0.0302508588	 2.0140395983	 0.108694
28.5007	47.7993	134.3119	185.9349	227.4641	344.9406	454.0767	501.1088	564.5381	573.3491	639.308	686.7187	792.9928	892.4045	902.765	928.9322	1015.0805	1043.1262	1066.1387	1098.5348	1143.7853	1175.2112	1210.3071	1215.6534	1291.4832	1371.4499	1416.0787	1482.8501	1779.3064	1826.0116	1885.0041	2929.4759	3041.6776	3070.6111	3088.1424	3475.8957
N=C1OCC(=O)C1C=O	[NH][C]1OCC(=O)[C@H]1C=O	
InChI=1S/C5H5NO3/c6-5-3(1-7)4(8)2-9-5/h1,3,6H,2H2	InChI=1S/C5H5NO3/c6-5-3(1-7)4(8)2-9-5/h1,3,6H,2H2/t3-/m1/s1
