18
gdb 93547	3.40479	1.24409	0.9599	4.1471	76.07	-0.2241	0.004	0.2281	1215.6887	0.149572	-439.136478	-439.12824	-439.127295	-439.16947	31.218	
C	-0.0180472343	 1.5564177616	-0.0071584102	-0.402029
C	-0.0652348809	 0.0183325788	-0.0003683507	-0.057596
C	 0.654711459	-0.5308984236	-1.2291765162	-0.093742
O	 0.4507260818	-1.9386154496	-1.4202641173	-0.234804
C	 1.2399110841	-2.8458966418	-0.8114649039	 0.446217
O	 1.4641410851	-3.9168701371	-1.3149529523	-0.37215
N	 1.7735816611	-2.4999789993	 0.424057493	-0.378006
C	 1.3287447084	-1.5921272792	 1.3941224217	-0.007775
C	 0.5289683569	-0.531520406	 1.2664607374	-0.08
H	 1.0149725855	 1.9197247858	 0.0224707805	 0.122648
H	-0.4992153121	 1.9638476329	-0.9019811241	 0.118566
H	-0.5372971697	 1.961101891	 0.8665068965	 0.123193
H	-1.1189622463	-0.2870807369	-0.0796123781	 0.10075
H	 0.2565897638	-0.0750366028	-2.1388255619	 0.124277
H	 1.7279376689	-0.3139423	-1.176923421	 0.122934
H	 2.3521370887	-3.2511158658	 0.7674180428	 0.264096
H	 1.7205805468	-1.8420512572	 2.374770029	 0.113694
H	 0.307200593	 0.0097791292	 2.1812987747	 0.089726
74.0068	118.8252	223.1701	238.538	289.7565	327.7808	351.1622	396.3184	529.1822	558.8095	627.3065	651.8019	744.4469	778.1133	782.5946	851.4422	886.1268	948.9479	960.6758	962.3051	1066.4529	1079.9199	1106.82	1137.96	1175.3623	1255.5346	1285.9543	1305.2626	1327.9893	1377.0679	1405.3286	1426.2882	1450.497	1489.0911	1496.8192	1499.4957	1506.9661	1743.6202	1837.3634	2995.4329	3033.13	3043.6296	3102.0297	3108.178	3110.9181	3165.1401	3188.1695	3632.9786
CC1COC(=O)NC=C1	C[C@H]1COC(=O)NC=C1	
InChI=1S/C6H9NO2/c1-5-2-3-7-6(8)9-4-5/h2-3,5H,4H2,1H3,(H,7,8)	InChI=1S/C6H9NO2/c1-5-2-3-7-6(8)9-4-5/h2-3,5H,4H2,1H3,(H,7,8)/t5-/m1/s1
