18
gdb 11464	3.40242	1.58379	1.24845	1.7232	64.05	-0.2533	0.0893	0.3426	1007.6795	0.153781	-422.080031	-422.071863	-422.070919	-422.113101	29.814	
C	 0.3210076575	 1.4327186033	 0.3960344912	-0.406285
C	 0.2065565028	-0.0200556428	-0.0047357862	 0.231471
O	 1.2224898224	-0.3667133406	-0.914887567	-0.245947
C	 1.3549764403	-1.7751726901	-0.7977472743	-0.138255
C	 1.1218117781	-2.0278953367	 0.7032149252	 0.091698
C	 2.4075701499	-2.0790428096	 1.526285546	-0.061654
O	 2.1340996872	-2.0218935336	 2.9089809863	-0.423148
O	 0.377512008	-0.8739623896	 1.123395739	-0.298909
H	 1.3083755878	 1.6212637656	 0.8244456469	 0.130292
H	 0.180095338	 2.0733122665	-0.4782685384	 0.131212
H	-0.4454932496	 1.6753262672	 1.1361467355	 0.13057
H	-0.7820646056	-0.2327362675	-0.4531847321	 0.065118
H	 0.6072560054	-2.295427651	-1.4139514262	 0.100746
H	 2.3549234481	-2.0567358718	-1.1376144178	 0.120823
H	 0.5193803319	-2.9244141048	 0.8904904534	 0.087969
H	 2.935280224	-3.0213603753	 1.3397893539	 0.104363
H	 3.0627812568	-1.2525564878	 1.2039261954	 0.090153
H	 1.5337442069	-1.2746769913	 3.0231589892	 0.289784
51.3416	130.7909	160.9081	217.2517	252.4457	320.257	382.2494	462.8179	489.6528	506.8406	698.5008	754.4368	820.4094	864.0524	895.0931	949.6378	1002.5047	1060.187	1067.343	1097.8536	1115.5735	1133.4743	1151.3534	1171.4381	1223.2518	1253.3373	1308.8154	1346.5371	1354.5909	1383.0894	1396.8883	1404.078	1438.5195	1441.3854	1485.0567	1486.4545	1501.5267	1513.6953	2925.902	2968.232	2997.4813	3041.1541	3053.8228	3067.5759	3098.5943	3134.1784	3138.357	3782.9028
CC1OCC(CO)O1	C[C@H]1OC[C@@H](CO)O1	
InChI=1S/C5H10O3/c1-4-7-3-5(2-6)8-4/h4-6H,2-3H2,1H3	InChI=1S/C5H10O3/c1-4-7-3-5(2-6)8-4/h4-6H,2-3H2,1H3/t4-,5+/m0/s1
