15
gdb 33692	3.91886	1.50175	1.40318	5.419	73.16	-0.2524	0.0031	0.2555	928.4257	0.11514	-379.627834	-379.621586	-379.620641	-379.658428	25.325	
N	 0.1320906972	-1.1053919667	-0.0389054841	-0.351163
C	 0.0480085339	 0.0489988089	-0.0204354729	 0.168448
C	-0.034908487	 1.4663659625	 0.0160894005	 0.283431
C	 0.1039856072	 2.3381426423	 1.2530643535	-0.127528
C	-1.0204262051	 3.352303882	 1.2378221759	-0.246491
C	-1.1369407758	 3.5237739962	-0.2598226068	-0.049859
C	 0.1764852584	 3.331502154	-0.9257202774	-0.048187
C	 1.0327543416	 2.544893341	 0.0763672241	-0.160311
N	-0.8588600458	 2.2463600691	-0.9926347479	-0.188584
H	 0.4876430524	 1.8907736282	 2.1604012766	 0.122643
H	-1.9387419709	 2.9627270615	 1.6874451364	 0.127501
H	-0.7504568548	 4.2884302583	 1.7372964326	 0.121657
H	-1.9088848771	 4.135620174	-0.7114149741	 0.113204
H	 0.5255802227	 3.83702914	-1.8169202945	 0.112179
H	 2.1068978632	 2.4372768687	 0.0991991683	 0.123061
141.1199	166.0747	387.7228	478.3955	501.4161	534.4104	594.8692	708.4796	745.9799	761.7165	798.1703	845.5493	868.1274	899.0533	914.6817	929.4859	975.6964	989.9821	1002.1882	1029.5577	1057.1974	1073.7809	1115.1592	1169.5378	1187.1602	1211.481	1242.9812	1290.4359	1311.0808	1369.9279	1408.647	1484.7198	2347.2084	3055.3562	3102.1004	3189.811	3199.9736	3216.4587	3234.9701
N#CC12C3CC4C(C13)N24	N#C[C@@]12[C@@H]3C[C@H]4[C@@H]([C@H]13)N24	
InChI=1S/C7H6N2/c8-2-7-3-1-4-6(5(3)7)9(4)7/h3-6H,1H2	InChI=1S/C7H6N2/c8-2-7-3-1-4-6(5(3)7)9(4)7/h3-6H,1H2/t3-,4+,5-,6+,7-,9?/m1/s1
