18
gdb 18224	4.17912	1.52648	1.27946	3.0159	71.76	-0.2412	-0.0165	0.2247	973.2623	0.155354	-347.817171	-347.810011	-347.809067	-347.848858	27.528	
O	-0.0047893549	-0.0725139452	 0.0758984192	-0.25345
C	 0.0485079678	 1.1304597016	 0.0966300168	 0.156945
C	 1.3172625283	 1.9506484544	 0.0660490179	-0.059406
C	 1.3701403816	 2.8981316735	-1.1645859108	-0.257607
C	 2.2457981716	 4.0938152504	-0.7215872156	-0.217519
C	 2.0302669854	 4.2023908298	 0.7803854615	-0.026141
C	 0.6124252676	 4.1504109935	 1.28615495	-0.29138
C	 1.4509524313	 2.8896918792	 1.2651639065	-0.050006
H	-0.8818781647	 1.745138542	 0.1450783578	 0.067154
H	 2.160734442	 1.2527074825	 0.053078169	 0.09072
H	 1.7581685626	 2.3909161819	-2.050597559	 0.114602
H	 0.3593544699	 3.2388568362	-1.415923614	 0.108194
H	 3.3032909367	 3.8838994706	-0.9198862226	 0.105785
H	 1.9903181672	 5.009614237	-1.2653772671	 0.102682
H	 2.7682193136	 4.7309644806	 1.373356274	 0.086782
H	 0.4171360717	 4.584803959	 2.2602179593	 0.115739
H	-0.2076240618	 4.269375717	 0.5858461529	 0.112891
H	 1.7462899143	 2.456524676	 2.2139080742	 0.094014
72.8323	132.4309	246.6958	312.1905	363.5465	422.638	446.3264	625.9925	649.3269	770.7765	825.6425	838.8152	888.6757	894.4026	944.8871	959.6867	990.7694	1019.8197	1033.8375	1067.6431	1085.114	1099.0607	1114.8167	1146.8279	1191.2866	1206.6838	1224.0034	1282.2858	1307.0132	1316.4336	1336.6601	1360.0874	1388.8384	1429.6809	1485.5844	1493.432	1513.8892	1830.8062	2849.065	3036.0362	3045.0644	3060.8147	3075.6753	3107.9795	3135.7377	3168.295	3177.6358	3216.6796
O=CC1CCC2CC12	O=C[C@H]1CC[C@H]2C[C@@H]12	
InChI=1S/C7H10O/c8-4-6-2-1-5-3-7(5)6/h4-7H,1-3H2	InChI=1S/C7H10O/c8-4-6-2-1-5-3-7(5)6/h4-7H,1-3H2/t5-,6+,7+/m0/s1
