16
gdb 44512	4.59327	1.44691	1.26701	5.0638	68.53	-0.2498	0.0493	0.2991	969.8529	0.127345	-437.889632	-437.883156	-437.882212	-437.920635	26.178	
O	 0.0173337421	-0.0439300491	 0.0478354958	-0.390444
C	-0.0299789427	 1.157497768	 0.0135636979	 0.469857
N	-1.1704756319	 1.9118738538	 0.0374615068	-0.393002
C	-1.1200244364	 3.3484195817	-0.0076863505	 0.067725
C	-0.0999661086	 3.9539733364	-1.0223838476	-0.120276
C	-0.0323796824	 5.2027115826	-0.108281241	-0.237358
C	-0.0214145369	 4.0112117419	 0.8815122202	-0.12033
C	 0.980220746	 3.3263811375	-0.0936629871	 0.162829
O	 1.1072731614	 1.9118410183	-0.0563564822	-0.274647
H	-2.0395615499	 1.4093157348	 0.0892000521	 0.261375
H	-2.1238486167	 3.7747866034	 0.0208710182	 0.086609
H	-0.1434455998	 3.9082781303	-2.1100795395	 0.088957
H	 0.8817572926	 5.797546815	-0.1638807905	 0.107266
H	-0.9216917141	 5.8364572091	-0.0906431716	 0.104692
H	 0.0248990023	 4.0309341306	 1.969872541	 0.088952
H	 1.9947957849	 3.7220749456	-0.1474365619	 0.097795
76.1227	296.8365	337.5644	381.8461	465.1761	485.1625	501.8399	648.3057	770.6691	779.9052	794.501	810.9925	865.552	882.8795	904.5895	909.3806	1006.036	1006.0741	1031.6164	1080.6175	1098.5554	1104.3479	1116.4813	1157.9288	1170.7724	1200.3266	1243.3776	1246.8992	1254.2085	1267.121	1402.5265	1417.3938	1454.7322	1516.2676	1868.374	3065.5955	3103.9645	3113.9949	3123.0324	3130.0442	3131.2482	3675.1411
O=C1NC2C3CC2C3O1	O=C1N[C@@H]2[C@H]3C[C@@H]2[C@H]3O1	
InChI=1S/C6H7NO2/c8-6-7-4-2-1-3(4)5(2)9-6/h2-5H,1H2,(H,7,8)	InChI=1S/C6H7NO2/c8-6-7-4-2-1-3(4)5(2)9-6/h2-5H,1H2,(H,7,8)/t2-,3+,4-,5+
