17
gdb 49073	2.34607	1.73205	1.23521	1.9066	67.94	-0.2619	-0.0408	0.2211	1023.3487	0.136392	-458.945536	-458.937813	-458.936869	-458.978406	28.422	
O	-0.1661177243	-0.0079627497	 0.0180983754	-0.242572
C	-0.0132818728	 1.185401286	-0.0128000196	 0.09405
C	 1.317866011	 1.8898895729	-0.0365894885	 0.147523
C	 1.4222371132	 3.1756784539	 0.8228554172	-0.134029
O	 1.79530489	 3.9805969521	-0.3106860235	-0.283523
C	 1.5658862618	 2.8804338123	-1.2148748629	 0.057299
C	 2.8239831654	 2.3350344477	-1.9146077613	-0.096515
O	 2.9880990723	 1.0062370366	-1.445265066	-0.244531
C	 2.542458795	 0.9645852368	-0.0961632421	-0.159855
H	-0.8883549682	 1.8755671822	-0.0279755078	 0.084624
H	 0.4703836713	 3.5075028188	 1.2574389343	 0.109636
H	 2.1909612711	 3.1609911769	 1.6034649423	 0.118202
H	 0.7317594704	 3.0869373584	-1.8943199817	 0.092537
H	 2.738670339	 2.294059732	-3.0033769304	 0.116412
H	 3.6736151351	 2.9790115003	-1.6399573417	 0.107008
H	 3.3284195946	 1.3166200519	 0.5897931333	 0.092843
H	 2.2871491053	-0.069541919	 0.1412903232	 0.140891
81.2468	87.0668	169.1088	254.4574	290.2874	364.0511	415.5224	491.0362	616.5493	657.5976	755.7586	841.9045	886.6485	926.4497	952.4692	960.6756	966.6385	1027.6555	1047.5937	1072.3161	1102.6365	1113.8327	1162.4762	1181.6733	1218.0075	1224.9073	1273.6488	1305.3316	1329.5343	1351.1335	1361.5601	1395.3211	1429.1422	1500.2552	1512.8991	1521.1737	1826.6921	2865.5692	2983.9126	2993.9405	3013.5281	3048.1476	3067.1957	3100.1552	3121.6347
O=CC12COC1COC2	O=C[C@]12CO[C@H]1COC2	
InChI=1S/C6H8O3/c7-2-6-3-8-1-5(6)9-4-6/h2,5H,1,3-4H2	InChI=1S/C6H8O3/c7-2-6-3-8-1-5(6)9-4-6/h2,5H,1,3-4H2/t5-,6-/m0/s1
