15
gdb 129642	2.37848	1.91899	1.06753	5.4682	77.11	-0.1904	-0.0419	0.1484	1047.7183	0.115068	-446.282165	-446.273994	-446.27305	-446.314534	31.092	
N	 0.031734019	 1.4211166135	 0.0746488404	-0.591193
C	-0.0431022074	 0.0312979105	 0.0255706676	 0.375328
C	-1.201867497	-0.67585827	 0.0035373594	 0.16368
N	-2.4589249294	-0.0548262299	-0.0476815081	-0.61996
C	-1.1159497437	-2.1193688978	-0.0669835409	 0.343257
N	-2.1825959189	-2.8265402009	-0.1865438288	-0.563595
N	 0.1738304043	-2.7132799612	 0.0025478909	-0.276598
N	 1.230204317	-2.0234705198	 0.075504415	-0.051688
N	 1.1392916419	-0.6755949936	 0.0527647864	-0.309806
H	 0.8219103166	 1.8053869267	-0.4305487676	 0.252573
H	-0.8295086641	 1.8303878412	-0.2732673414	 0.268846
H	-2.6574894953	 0.5173148102	 0.7663483647	 0.246801
H	-3.1638489526	-0.7842321226	-0.1285674097	 0.269494
H	-1.933659567	-3.8149796623	-0.2317596911	 0.218687
H	 2.0233179066	-0.2169083941	 0.207581573	 0.274173
112.8748	182.7539	208.8514	245.7408	291.6033	333.5777	369.2518	416.6212	511.1731	524.9923	562.7997	592.3248	608.6525	695.6445	770.3163	779.973	851.1557	859.4022	934.971	998.1036	1038.2805	1116.6522	1143.5584	1282.8151	1286.7695	1369.2582	1384.2168	1491.5684	1574.3843	1634.937	1653.9686	1674.1941	1725.145	3479.9312	3483.6877	3507.8173	3569.2805	3602.3051	3639.3012
NC1=C(N)C(=N)N=NN1	Nc1c(N)c([NH])nn[nH]1	
InChI=1S/C3H6N6/c4-1-2(5)7-9-8-3(1)6/h(H2,4,9)(H4,5,6,7,8)	InChI=1S/C3H11N6/c4-1-2(5)7-9-8-3(1)6/h1-3,5,7-9H,4,6H2
