22
gdb 120926	3.19637	0.8853	0.8025	2.356	82.95	-0.2203	0.0782	0.2985	1522.8299	0.193641	-404.303322	-404.293616	-404.292672	-404.338111	36.246	
C	-0.1274206384	 1.5237516605	 0.0766831432	-0.510206
C	 0.0994348341	 0.0446626699	 0.0263692992	 0.330995
N	-0.7700483701	-0.9069150329	 0.7649247701	-0.368361
C	 0.6989715228	-0.9081246873	 1.0022221198	-0.105389
C	 1.2969520046	-1.7669373698	-0.113307571	-0.237815
C	 0.6855929366	-0.7560181206	-1.1574236152	-0.02948
C	-0.2797399979	-1.2677495536	-2.2193025187	-0.193764
C	 0.3934458499	-2.1499061591	-3.2629165597	-0.072976
O	-0.5926532549	-2.5433545139	-4.2070397406	-0.420623
H	 0.7446597388	 2.0695458839	-0.3001060442	 0.122373
H	-0.9910662786	 1.8159300137	-0.5327691223	 0.129989
H	-0.3151723282	 1.8598555661	 1.102692532	 0.115447
H	-1.1941302	-0.3819304627	 1.5303389939	 0.220002
H	 1.0937160373	-0.7316309077	 1.9962355581	 0.086944
H	 2.3889391216	-1.7817879969	-0.1252561166	 0.096944
H	 0.915832309	-2.791192839	-0.1531166406	 0.104586
H	 1.4934212802	-0.1782853621	-1.6222212082	 0.064655
H	-1.0851732772	-1.8302280202	-1.7373167116	 0.125334
H	-0.7466730088	-0.420644336	-2.7383825573	 0.096193
H	 1.2106169696	-1.5934293088	-3.7529708018	 0.076204
H	 0.8476723818	-3.0273544229	-2.7745577681	 0.08622
H	-0.1786654523	-3.1307283407	-4.8458376705	 0.282728
78.8546	93.7364	118.7702	173.8536	209.991	253.0295	263.1012	307.9671	344.324	411.6404	478.8546	551.823	634.7573	696.9351	791.061	833.3932	863.8666	893.9947	919.4113	936.043	981.1119	1016.3732	1024.5783	1054.7521	1083.1248	1093.2751	1102.1511	1112.297	1151.1841	1189.5072	1213.0813	1233.8426	1240.2698	1255.5089	1305.1707	1308.97	1322.1644	1340.516	1380.7209	1410.2328	1445.9363	1462.1413	1479.8171	1483.4759	1496.1725	1499.5387	1527.5316	2952.738	2981.3933	3020.1674	3029.5814	3033.583	3058.6821	3081.7709	3091.6151	3094.6921	3116.6171	3178.0387	3461.7539	3828.9718
CC12NC1CC2CCO	C[C@]12N[C@H]1C[C@H]2CCO	
InChI=1S/C7H13NO/c1-7-5(2-3-9)4-6(7)8-7/h5-6,8-9H,2-4H2,1H3	InChI=1S/C7H13NO/c1-7-5(2-3-9)4-6(7)8-7/h5-6,8-9H,2-4H2,1H3/t5-,6+,7-/m1/s1
