16
gdb 17837	5.15025	1.47621	1.24892	3.0395	66.07	-0.2311	0.0364	0.2674	965.4998	0.131419	-379.913049	-379.905693	-379.904749	-379.94501	27.817	
N	-0.0963135175	 1.3095521701	 0.0366255975	-0.535204
C	-0.0536632353	-0.0660546276	 0.0128890144	 0.398054
O	 0.8430500205	-0.7180560755	 0.5054725098	-0.365466
N	-1.1542401389	-0.6192473688	-0.682030906	-0.153207
C	-2.4588061613	-0.6905976256	 0.0125351774	-0.04418
C	-3.4882536661	-1.1356460849	-1.0324392142	-0.239886
C	-2.622648699	-2.4266054322	-1.2732904862	-0.24396
C	-1.6336327796	-1.9192879073	-0.2157398125	-0.010696
H	 0.7708118797	 1.7583256493	 0.2854972764	 0.261669
H	-0.6590119101	 1.7741800607	-0.6576305662	 0.259082
H	-2.6112854795	-0.1153772646	 0.917631726	 0.111545
H	-4.4623279227	-1.3647860098	-0.5948288228	 0.109054
H	-3.6197763349	-0.4611408136	-1.8818043953	 0.106827
H	-3.143279613	-3.3356956941	-0.966023695	 0.109224
H	-2.206878647	-2.562937068	-2.2739277655	 0.112348
H	-1.0154731454	-2.478716428	 0.4733078623	 0.124794
54.2205	171.3452	178.4014	285.1474	358.4301	447.4905	487.6384	526.7321	616.5404	712.9681	736.0832	778.8445	811.752	870.3521	894.4187	931.022	941.2842	996.6236	1024.0661	1074.1043	1085.2348	1112.2205	1154.9218	1202.5393	1220.2454	1243.9522	1249.6494	1298.6419	1355.1379	1385.3149	1466.7113	1487.0109	1613.2724	1801.3072	3065.8443	3074.2283	3117.3482	3134.7613	3193.6175	3220.9422	3590.7705	3715.1175
NC(=O)N1C2CCC12	NC(=O)N1[C@H]2CC[C@@H]12	
InChI=1S/C5H8N2O/c6-5(8)7-3-1-2-4(3)7/h3-4H,1-2H2,(H2,6,8)	InChI=1S/C5H8N2O/c6-5(8)7-3-1-2-4(3)7/h3-4H,1-2H2,(H2,6,8)/t3-,4+,7?
