20
gdb 82961	3.12418	1.39074	1.28923	1.3659	77.55	-0.2167	0.07	0.2867	1066.6917	0.173666	-403.103511	-403.096002	-403.095058	-403.135128	30.961	
O	 0.0546398401	 1.3689420558	 0.1538076669	-0.409481
C	 0.0207053701	-0.0230546951	 0.0283789856	 0.067262
C	-1.3276848595	-0.6791277048	 0.0200943793	-0.050444
C	-2.5981603809	 0.1634831739	-0.0736125941	-0.277854
C	-3.2981307213	-0.1069529266	-1.402019086	 0.018575
C	-3.4289955538	 0.9453329831	-2.4443163121	-0.254351
N	-2.4620049719	-0.1401224317	-2.6117178102	-0.084212
C	-1.0388433934	 0.1761552663	-2.3717876875	-0.198563
C	-0.4778606941	-0.6758774945	-1.2456799127	-0.077049
H	 0.810245322	 1.6965895032	-0.3455045729	 0.290395
H	 0.8169905408	-0.539178095	 0.5642437605	 0.08576
H	-1.4138022585	-1.6163500222	 0.5600409997	 0.085887
H	-3.2707808259	-0.0708900544	 0.7556289163	 0.101099
H	-2.3385857302	 1.2207721553	 0.019335073	 0.126387
H	-4.0403607357	-0.9033681143	-1.3765442917	 0.083052
H	-4.2640149442	 0.9464310799	-3.1406283327	 0.10862
H	-3.0445361592	 1.9355948504	-2.199412678	 0.105221
H	-0.4960448516	-0.019042117	-3.3014497827	 0.103283
H	-0.8972560836	 1.2393753209	-2.130402243	 0.091228
H	-0.0034152892	-1.6070281931	-1.5378501577	 0.085186
112.7874	213.052	286.0691	306.8013	314.8373	416.2611	461.5228	476.7436	545.3072	612.2592	633.8818	769.5056	782.1915	802.548	836.7892	875.9418	924.2148	937.4636	972.9019	1023.0472	1031.4642	1037.4075	1068.5239	1108.8897	1120.1274	1131.6984	1144.1665	1158.3124	1174.7631	1230.6397	1237.8687	1270.7784	1292.4881	1308.8779	1315.1028	1351.5609	1374.8083	1389.2112	1409.434	1453.8212	1491.0007	1495.3282	1519.4194	2994.6694	3064.6701	3067.2822	3082.6502	3098.0043	3099.2223	3115.7049	3151.6074	3162.3829	3169.1177	3805.3065
OC1C2CC3CN3CC12	O[C@H]1[C@H]2C[C@H]3CN3C[C@@H]12	
InChI=1S/C7H11NO/c9-7-5-1-4-2-8(4)3-6(5)7/h4-7,9H,1-3H2	InChI=1S/C7H11NO/c9-7-5-1-4-2-8(4)3-6(5)7/h4-7,9H,1-3H2/t4-,5-,6+,7-,8?/m0/s1
