16
gdb 10815	4.97711	1.52554	1.21822	4.9899	67.62	-0.2622	-0.0461	0.2161	970.2162	0.131475	-383.789518	-383.782269	-383.781324	-383.821021	27.157	
C	-0.209195686	 1.514993185	 0.0055414708	-0.40563
C	 0.0351558791	 0.0000408278	 0.016919333	-0.06208
C	 0.7867866966	-0.4423765818	-1.2377021328	-0.075359
O	 1.1677351508	-1.8243834786	-1.2102808171	-0.241663
C	 1.7844977115	-2.3013886543	-0.0949925342	 0.417167
O	 2.3295247484	-3.373972666	-0.1284677015	-0.337859
C	 1.6744213675	-1.4787504811	 1.1325396093	-0.209517
C	 0.8284973193	-0.4496704473	 1.2149246593	-0.04327
H	 0.7362066053	 2.0676898722	-0.0116833718	 0.128118
H	-0.7912933966	 1.8121365061	-0.872266462	 0.125779
H	-0.7636630309	 1.8258417468	 0.8960455993	 0.126262
H	-0.9418343148	-0.5065558941	 0.0409646563	 0.109392
H	 0.1742682425	-0.3293231817	-2.1352244671	 0.123726
H	 1.6894595134	 0.1731195678	-1.3577555564	 0.111296
H	 2.2547152308	-1.8372529943	 1.9742872347	 0.123266
H	 0.6872180731	 0.0797954835	 2.1546764702	 0.110374
87.2632	213.429	219.0592	258.0556	301.1276	430.4822	453.3648	462.5257	587.3274	706.212	752.2541	797.411	845.133	880.2207	941.9759	972.9913	1013.1437	1074.1195	1104.2368	1112.2183	1136.4106	1185.0139	1238.3601	1282.3412	1312.9977	1358.307	1396.9404	1410.2549	1430.0252	1496.0533	1500.4403	1505.3766	1690.2123	1827.9823	2990.6216	3014.67	3036.0398	3101.9473	3107.6157	3111.1587	3153.6753	3211.917
CC1COC(=O)C=C1	C[C@H]1COC(=O)C=C1	
InChI=1S/C6H8O2/c1-5-2-3-6(7)8-4-5/h2-3,5H,4H2,1H3	InChI=1S/C6H8O2/c1-5-2-3-6(7)8-4-5/h2-3,5H,4H2,1H3/t5-/m1/s1
