22
gdb 75901	2.3073	1.54237	1.17962	3.8108	82.58	-0.2315	0.0389	0.2705	1164.4182	0.194044	-404.413186	-404.403574	-404.402629	-404.447017	36.609	
C	-0.4740502462	 1.3562224973	-0.0203257333	-0.356985
N	-0.1932730597	-0.0625954236	 0.0038585693	-0.076444
C	 0.152677969	-0.73417309	-1.1419872772	 0.406963
O	 0.178431503	-0.2596372642	-2.2600110905	-0.398992
C	 0.5153113997	-2.1631323236	-0.7442260642	-0.343795
C	-0.0060070502	-2.2963974783	 0.6910923807	-0.245432
C	-0.0436109629	-0.843919532	 1.2423625894	 0.268709
C	 1.2729223668	-0.4846376877	 1.9580734234	-0.415093
C	-1.2337322322	-0.6310869703	 2.1854684479	-0.429781
H	 0.2686170021	 1.9293345231	 0.548570824	 0.119716
H	-0.4380314421	 1.6703984162	-1.0649871383	 0.165893
H	-1.4664024655	 1.5782754917	 0.3869858886	 0.123282
H	 0.0819041574	-2.8756029111	-1.4483015384	 0.128375
H	 1.6042082874	-2.2678357891	-0.8095533015	 0.127569
H	-1.0219027406	-2.7034383771	 0.6827591136	 0.10623
H	 0.6048550756	-2.9463454174	 1.3220519176	 0.103627
H	 2.1371956172	-0.6881391474	 1.3183693971	 0.119849
H	 1.2990712906	 0.574027508	 2.2341125624	 0.118704
H	 1.3811159124	-1.0697842322	 2.876892209	 0.117685
H	-1.1701334155	-1.3271151639	 3.0279924685	 0.120581
H	-1.2520716163	 0.3832383789	 2.5966344337	 0.117977
H	-2.17916981	-0.8099389473	 1.6644691683	 0.121364
93.0595	135.6806	156.1979	185.3354	248.8746	272.6594	296.0598	328.2408	340.5434	368.7094	462.4916	516.6747	563.1313	575.7773	659.1992	686.4627	782.3597	889.5028	923.255	938.2653	975.0253	992.4932	1017.8384	1038.0011	1112.8481	1118.1764	1162.13	1174.1702	1224.9507	1232.3594	1247.4001	1290.4166	1313.5295	1346.1699	1398.9538	1403.6709	1417.0813	1444.2183	1472.3847	1480.3511	1487.4949	1497.8184	1498.4991	1505.4222	1509.4611	1520.064	1802.5718	3019.7943	3033.1385	3038.3071	3053.6189	3054.7458	3072.3277	3100.6634	3104.632	3108.9671	3110.2856	3113.0086	3119.5349	3140.6574
CN1C(=O)CCC1(C)C	CN1C(=O)CCC1(C)C	
InChI=1S/C7H13NO/c1-7(2)5-4-6(9)8(7)3/h4-5H2,1-3H3	InChI=1S/C7H13NO/c1-7(2)5-4-6(9)8(7)3/h4-5H2,1-3H3
