19
gdb 82025	2.26819	1.45858	1.38689	1.5568	75.44	-0.2474	-0.0244	0.2229	1070.937	0.157263	-423.003373	-422.994238	-422.993294	-423.037248	34.053	
C	-0.0225086703	 1.6997262782	-0.3346442882	-0.462755
C	 0.0038256081	 0.1836837553	-0.1526928171	 0.161755
C	-1.4127702793	-0.3344392241	 0.0018979943	 0.1138
O	-1.7928897433	-1.1225403847	 0.8307847414	-0.254191
C	 0.7394893575	-0.6599797144	-1.2246492003	-0.087686
C	 2.2075328259	-0.3429621258	-1.2403834977	-0.302718
C	 1.6739256416	-1.2439940149	-0.1624015519	-0.042602
C	 0.98482293	-0.4316380101	 0.923052048	 0.047983
O	 1.8454349887	 0.4517718637	 1.6089581625	-0.430418
H	 0.9782835914	 2.0939378095	-0.5164764548	 0.137649
H	-0.6590885171	 1.9811011723	-1.1812663089	 0.118749
H	-0.4156597807	 2.1971922012	 0.5593150618	 0.11595
H	-2.1232482544	 0.075678201	-0.7546727783	 0.074669
H	 0.2515997693	-1.1737188653	-2.0448227447	 0.090651
H	 2.7717595467	-0.845449711	-2.0196027767	 0.115697
H	 2.5775340823	 0.6461668549	-0.9924446564	 0.127362
H	 2.014465883	-2.2650905057	-0.04650476	 0.090972
H	 0.4164820318	-1.0646426491	 1.6109764476	 0.099099
H	 1.3790208488	 0.791978189	 2.3785568894	 0.286034
58.0261	140.585	154.3005	198.3425	238.4838	250.2303	283.7955	318.668	402.5009	453.0853	572.0284	595.8649	662.5253	757.949	798.7319	819.0629	903.1374	925.8407	947.6209	991.6269	1001.0107	1024.5219	1027.0456	1066.8096	1086.2063	1124.4473	1156.3826	1168.8774	1204.639	1219.7663	1240.253	1267.4809	1324.6369	1359.4778	1405.2331	1426.7449	1440.9551	1482.8631	1491.628	1503.1127	1820.3868	2849.8595	3031.2692	3068.0128	3089.4492	3131.8901	3136.8276	3176.1589	3192.4203	3215.0713	3824.4466
CC1(C=O)C2CC2C1O	C[C@@]1(C=O)[C@H]2C[C@H]2[C@H]1O	
InChI=1S/C7H10O2/c1-7(3-8)5-2-4(5)6(7)9/h3-6,9H,2H2,1H3	InChI=1S/C7H10O2/c1-7(3-8)5-2-4(5)6(7)9/h3-6,9H,2H2,1H3/t4-,5+,6-,7-/m1/s1
