20
gdb 111120	3.47311	1.3216	1.21765	1.6008	78.39	-0.2222	0.0823	0.3045	1108.4359	0.173009	-403.075792	-403.068254	-403.06731	-403.10775	30.418	
C	 0.0288237875	 1.31690401	-0.2082627511	-0.244062
O	-0.0592352046	 0.0192453319	 0.335513566	-0.269336
C	-1.3420566754	-0.5459588061	 0.2076379727	 0.180815
C	-1.6222857515	-1.250265409	-1.1657089712	-0.095203
C	-0.6736061504	-2.3839983492	-0.6327415278	-0.223861
C	-1.3515040191	-2.0040131838	 0.7342039872	-0.086929
C	-2.79399069	-2.4594562554	 0.4430626025	-0.03959
N	-3.7778083655	-1.3697220723	 0.2132674058	-0.342553
C	-2.9886888096	-1.9169815233	-0.9219567792	-0.038988
H	 1.0387852768	 1.6834491938	-0.0085370097	 0.123847
H	-0.1414032374	 1.3259407536	-1.2952611893	 0.104825
H	-0.697146734	 2.0008643935	 0.2578924284	 0.107105
H	-2.1049988516	 0.1396861724	 0.5819645119	 0.092031
H	-1.4579783131	-0.7473112751	-2.1186870683	 0.060204
H	-0.8402136872	-3.3963543534	-1.0119863176	 0.081826
H	 0.381001939	-2.1161057884	-0.6738248377	 0.11568
H	-0.9086739724	-2.2511957212	 1.6986195524	 0.066268
H	-3.1379220771	-3.4378899001	 0.7580086409	 0.090718
H	-4.7070900421	-1.7849004138	 0.1804465974	 0.227006
H	-3.4937146023	-2.453489254	-1.7172949332	 0.090197
94.5802	177.3791	183.7663	317.4686	366.6799	384.9694	444.8701	518.7384	590.3012	659.5244	788.0079	810.8129	844.8084	862.8709	881.879	909.865	916.7636	947.3888	963.263	1002.1214	1020.7074	1062.2659	1075.6278	1077.4568	1110.2273	1124.1439	1136.9431	1160.9222	1184.135	1196.7033	1227.0904	1233.7906	1253.2675	1256.2303	1268.2306	1302.0202	1342.3848	1378.1877	1405.0396	1479.4548	1486.6498	1494.4334	1510.3669	2977.662	3024.477	3062.4382	3086.8617	3112.1675	3114.0565	3121.3701	3155.3551	3168.5527	3180.3359	3486.4365
COC1C2CC1C1NC21	CO[C@H]1[C@H]2C[C@@H]1[C@H]1N[C@@H]21	
InChI=1S/C7H11NO/c1-9-7-3-2-4(7)6-5(3)8-6/h3-8H,2H2,1H3	InChI=1S/C7H11NO/c1-9-7-3-2-4(7)6-5(3)8-6/h3-8H,2H2,1H3/t3-,4+,5-,6+,7-
