15
gdb 5094	3.35282	1.99153	1.26056	1.5544	64.58	-0.1696	0.055	0.2246	909.9946	0.119738	-395.99248	-395.983965	-395.98302	-396.025034	31.312	
N	 0.0355305247	 1.4392304377	 0.1077830655	-0.618553
C	 0.0026577333	 0.0308864903	 0.0261948397	 0.20953
C	-1.0752426919	-0.8229621166	 0.0155600664	-0.182065
N	-0.5883103427	-2.1198278295	-0.0733038127	-0.310321
C	 0.7889301531	-2.077235372	-0.0505321862	 0.23796
O	 1.5409911049	-3.2198791436	-0.0406620413	-0.440641
C	 1.1910539625	-0.7661187202	-0.0098482561	 0.123852
N	 2.5037866739	-0.2449211986	-0.0923665777	-0.630826
H	 0.7032243381	 1.8229815376	-0.5540098683	 0.242652
H	-0.8703605856	 1.852890687	-0.0758580196	 0.234457
H	-2.1337710048	-0.6230087735	 0.037690485	 0.100908
H	-1.1096927476	-2.9466608902	 0.1608055611	 0.253741
H	 1.6654660564	-3.529617885	-0.9460553429	 0.299344
H	 3.1834895968	-0.9941197023	-0.0161524231	 0.237012
H	 2.6779661988	 0.4059068289	 0.6683602201	 0.242948
74.626	175.052	218.9237	233.6178	277.5983	294.0837	304.6487	334.9087	401.5449	534.772	570.9137	597.7052	629.7857	692.3451	747.5325	767.2752	831.2434	881.0782	1003.2477	1086.9706	1117.6654	1226.1863	1234.014	1268.1546	1300.0479	1346.7392	1452.6816	1514.0303	1598.463	1636.088	1647.7976	1702.025	3264.6458	3487.3579	3499.8877	3579.1445	3598.8763	3677.2532	3749.8877
NC1=CNC(O)=C1N	Nc1c[nH]c(O)c1N	
InChI=1S/C4H7N3O/c5-2-1-7-4(8)3(2)6/h1,7-8H,5-6H2	InChI=1S/C4H7N3O/c5-2-1-7-4(8)3(2)6/h1,7-8H,5-6H2
