19
gdb 31775	2.98325	1.28279	0.96157	2.2477	79.64	-0.2135	0.021	0.2345	1242.8035	0.159943	-419.250649	-419.241287	-419.240343	-419.284792	33.841	
C	 0.3817217236	 1.2517724513	-0.2569228946	-0.359656
N	 0.0160885408	-0.1470655657	-0.1169858311	-0.077312
C	-0.3343583265	-1.0006042286	-1.1544114327	 0.228205
C	-0.3483977348	-0.5917048207	-2.5854780811	-0.197243
O	 0.9368149922	-0.1969659373	-3.0790273818	-0.410265
C	-0.6087816926	-2.1996115303	-0.5471194523	-0.179907
N	-0.449290457	-2.1125632977	 0.8122647741	-0.308537
C	-0.0742135991	-0.8688856059	 1.0434756799	 0.328701
C	 0.2248739775	-0.3036538571	 2.3919082606	-0.502349
H	 0.9001905724	 1.3887387544	-1.2070836749	 0.170376
H	-0.4997797854	 1.9028630521	-0.2292963619	 0.136115
H	 1.0493140809	 1.5411014259	 0.5567998215	 0.140528
H	-0.7663906019	-1.4192213076	-3.1754637681	 0.110939
H	-0.9894077072	 0.2812178249	-2.7553889808	 0.115696
H	 1.5470821974	-0.9139587332	-2.8733221614	 0.282849
H	-0.9180079779	-3.1194008203	-1.0225999461	 0.104042
H	 1.2590108836	 0.0526591637	 2.4724626161	 0.13065
H	-0.431650459	 0.5370341292	 2.6446350135	 0.130563
H	 0.0760479633	-1.0920563772	 3.130480341	 0.156603
93.9434	123.9748	142.5485	145.6345	198.5076	239.2145	283.787	294.7265	386.6086	426.9626	472.5714	606.0868	684.9712	693.1444	719.4533	775.1357	846.2685	961.2811	975.5496	1008.1285	1027.4018	1061.0053	1153.7008	1171.9557	1184.7859	1201.0761	1246.2479	1301.4391	1355.2329	1388.5331	1403.668	1417.7316	1438.7014	1471.9766	1481.5937	1496.1942	1501.0682	1506.4994	1521.3196	1541.3568	1603.4842	3010.6787	3026.1885	3034.2865	3057.602	3073.9236	3112.2129	3148.6257	3151.3584	3236.4936	3802.0575
CN1C(CO)=CN=C1C	Cn1c(CO)cnc1C	
InChI=1S/C6H10N2O/c1-5-7-3-6(4-9)8(5)2/h3,9H,4H2,1-2H3	InChI=1S/C6H10N2O/c1-5-7-3-6(4-9)8(5)2/h3,9H,4H2,1-2H3
