16
gdb 18328	3.51812	2.15041	1.57781	2.9666	63.63	-0.2079	-0.0202	0.1878	814.9239	0.133123	-379.902468	-379.895702	-379.894758	-379.933675	25.778	
O	-0.0422530704	 0.1025080481	-0.4135920189	-0.31542
C	 0.0012453182	 1.2590069756	-0.0856928782	 0.432066
C	-1.1675429284	 2.1150328516	 0.4322519696	-0.288408
N	-0.8240460813	 3.5199328568	 0.1536326054	-0.303586
C	 0.6360063969	 3.6206569872	 0.0007107698	-0.012041
C	 1.4419354591	 3.7727818961	 1.318712864	-0.156975
N	 1.7237714831	 2.3160467163	 1.3043316506	-0.321568
C	 1.2216145523	 2.182242821	-0.0901473954	-0.127288
H	-2.1099835994	 1.8218075321	-0.0346105396	 0.128532
H	-1.2660318202	 1.9432378009	 1.5121776894	 0.143763
H	-1.2644094835	 3.801543644	-0.7136039777	 0.225742
H	 0.8857220841	 4.3343176717	-0.7839466892	 0.081806
H	 2.3282249247	 4.4102343472	 1.2018330507	 0.094866
H	 0.8699022283	 4.1118876383	 2.1885410084	 0.11109
H	 2.687136358	 2.0394331279	 1.4438270842	 0.227736
H	 1.9518943985	 1.9403949051	-0.8663764632	 0.079685
99.0339	110.8859	228.7687	375.1789	433.2049	514.2195	583.2613	654.5332	681.0282	746.2219	783.285	816.4806	854.3035	941.3873	967.9052	998.3722	1006.716	1031.7294	1061.1542	1116.3454	1145.1834	1172.3678	1197.0577	1222.0684	1226.9279	1264.0233	1300.7497	1332.0732	1370.9988	1377.9074	1464.3325	1471.6046	1509.5601	1853.8623	3010.1991	3026.9442	3072.2059	3078.3499	3112.8894	3114.2499	3546.4142	3560.2966
O=C1CNC2CNC12	O=C1CN[C@H]2CN[C@@H]12	
InChI=1S/C5H8N2O/c8-4-2-6-3-1-7-5(3)4/h3,5-7H,1-2H2	InChI=1S/C5H8N2O/c8-4-2-6-3-1-7-5(3)4/h3,5-7H,1-2H2/t3-,5+/m0/s1
