14
gdb 21308	7.62003	1.12589	0.99323	4.6257	60.68	-0.2688	-0.0361	0.2327	1117.2712	0.105943	-415.820796	-415.813147	-415.812203	-415.853854	25.925	
C	 0.3059869687	 1.4160174497	-0.0328783465	-0.229651
O	 0.5327121224	 0.0229047765	-0.0601543338	-0.230348
C	 0.1587382413	-0.6110768503	 1.1345666721	-0.165769
C	 0.4403321287	-2.0675140017	 0.9899938581	 0.386629
C	 0.9543524801	-2.8081485627	-0.0286690354	-0.187403
N	 0.9828054956	-4.1106046784	 0.4116184576	-0.10295
N	 0.5401136739	-4.2089192713	 1.577601021	-0.013607
O	 0.1637512145	-2.8705168286	 2.0096713518	-0.226716
H	 0.8844898512	 1.9050263232	 0.7655181094	 0.114895
H	 0.6261469656	 1.8123127977	-0.9982784936	 0.139443
H	-0.7590132342	 1.6502683742	 0.1159068172	 0.11489
H	 0.7169324783	-0.2106980543	 1.9984734007	 0.124663
H	-0.9124316804	-0.4619079884	 1.3550031936	 0.124648
H	 1.2923308544	-2.5136763355	-1.0053214822	 0.151274
55.6986	75.8961	138.1883	217.183	257.171	349.5576	394.5005	587.2043	657.5154	700.1233	750.5856	828.4155	982.1938	1003.0378	1044.161	1050.5382	1114.5955	1167.4892	1184.2579	1227.8955	1237.2417	1245.3388	1349.2595	1432.7749	1474.8607	1480.5838	1485.3692	1496.696	1518.2878	1610.6097	2954.8362	2976.1712	2981.3502	3029.677	3129.8414	3314.6311
COCC1=CN=NO1	COCc1cnno1	
InChI=1S/C4H6N2O2/c1-7-3-4-2-5-6-8-4/h2H,3H2,1H3	InChI=1S/C4H6N2O2/c1-7-3-4-2-5-6-8-4/h2H,3H2,1H3
