18
gdb 37255	3.22243	2.10226	1.69517	1.6372	76.22	-0.2153	0.0687	0.2839	845.5279	0.151344	-364.727363	-364.721461	-364.720517	-364.757157	26.188	
C	-0.0183556246	 1.5448737894	 0.1761742626	-0.308164
C	 1.2812361104	 0.8111859272	-0.026205734	-0.043952
C	-0.0126370388	 0.0411171091	 0.0059437427	-0.048144
C	-0.395823616	-0.5646223638	-1.3020043584	-0.017144
C	-0.1120250977	 0.0479980867	-2.6167989051	-0.072651
C	 1.2118079534	 0.8346125145	-2.6785719153	-0.131034
C	 1.9516396824	 0.7769266278	-1.3612289897	-0.046795
C	 1.8913492946	-0.4428175182	-2.2507866634	-0.021511
N	 0.5915504018	-1.2232145258	-2.2284419384	-0.181273
H	-0.2263888418	 1.9338055028	 1.1665507271	 0.110741
H	-0.4009062258	 2.1472476692	-0.6406836212	 0.11691
H	 1.9457374307	 0.7240796116	 0.8274998014	 0.085289
H	-0.2347225812	-0.5651994469	 0.8776937273	 0.087144
H	-1.2987486471	-1.1703331619	-1.277907006	 0.096206
H	-0.8277219785	 0.0551996504	-3.4336938627	 0.093239
H	 1.4654611787	 1.5259880815	-3.4708652669	 0.092076
H	 2.918047269	 1.2719813509	-1.4162356804	 0.090779
H	 2.7639439204	-0.9560988744	-2.6341381396	 0.098284
246.9673	258.0099	478.1136	490.004	577.6488	595.6394	664.7464	696.4355	735.8936	750.7988	789.6873	831.7214	858.6035	880.1548	898.8076	924.2602	955.8817	979.2907	999.6424	1024.1363	1051.6717	1059.3827	1061.3543	1074.9389	1081.3951	1097.3735	1122.9311	1129.2504	1146.6739	1207.6191	1235.6998	1267.4744	1309.0849	1329.8468	1378.8966	1406.5677	1419.9866	1448.5296	1488.0966	3131.4548	3134.1456	3138.6745	3147.7526	3152.1924	3161.9407	3187.1914	3202.3621	3223.6087
C1C2C1C1C3C4C2C4N13	C1[C@H]2[C@@H]1[C@H]1[C@H]3[C@H]4[C@@H]2[C@H]4N13	
InChI=1S/C8H9N/c1-2-3(1)6-8-5-4(2)7(5)9(6)8/h2-8H,1H2	InChI=1S/C8H9N/c1-2-3(1)6-8-5-4(2)7(5)9(6)8/h2-8H,1H2/t2-,3+,4+,5-,6-,7+,8+,9?/m0/s1
