18
gdb 51714	3.22212	0.96402	0.82671	3.4804	72.64	-0.2268	-0.0379	0.1889	1377.4121	0.146206	-439.100793	-439.091996	-439.091052	-439.135736	31.544	
O	 0.4358933617	-0.2454053153	 0.1657234085	-0.233767
C	 0.3144923211	 0.9362196185	-0.0195510712	 0.162052
C	 1.4705903909	 1.8872359181	-0.3003883428	-0.251539
N	 1.0493490429	 2.9595873513	-1.1901847732	-0.083484
C	 1.9321830231	 4.1463521234	-1.1866157423	-0.183319
C	 2.9976930704	 3.9007210303	-2.2684430314	-0.328663
C	 2.2635057824	 3.0119250371	-3.2778795633	 0.400991
O	 2.6130509195	 2.7360449214	-4.393473669	-0.297711
C	 0.9619098783	 2.54669028	-2.5946098191	-0.301105
H	-0.6742458323	 1.4466442769	 0.0128694018	 0.087727
H	 1.7390711549	 2.3289845465	 0.6694866589	 0.131074
H	 2.3365037371	 1.2932638906	-0.6391044665	 0.112422
H	 1.3323832558	 5.0285920864	-1.4425992694	 0.11517
H	 2.3447265827	 4.3076337253	-0.1890485559	 0.113398
H	 3.3903370773	 4.7986806451	-2.7499551557	 0.136116
H	 3.8521417124	 3.3363753489	-1.875177217	 0.139015
H	 0.8197697059	 1.4690837122	-2.7098397225	 0.145091
H	 0.1201763659	 3.0425827035	-3.09840293	 0.136532
45.221	72.3935	91.2425	129.1878	251.5141	351.5991	393.9272	455.584	466.942	500.8625	582.4254	646.3219	738.5327	767.0057	828.4447	867.3763	903.5549	962.5133	1040.1866	1053.261	1065.8746	1085.9543	1130.5519	1152.1778	1201.3455	1214.8459	1269.2622	1273.5082	1292.9	1339.8339	1349.5922	1368.9583	1401.713	1449.1339	1454.7557	1470.0076	1504.0367	1839.6867	1856.9978	2888.8809	2962.4297	3013.6099	3028.022	3036.4209	3046.762	3102.0367	3110.8745	3118.8308
O=CCN1CCC(=O)C1	O=CCN1CCC(=O)C1	
InChI=1S/C6H9NO2/c8-4-3-7-2-1-6(9)5-7/h4H,1-3,5H2	InChI=1S/C6H9NO2/c8-4-3-7-2-1-6(9)5-7/h4H,1-3,5H2
