14
gdb 133612	3.14272	1.26603	1.13315	1.1181	49.96	-0.2776	0.0742	0.3518	1038.9585	0.098256	-605.325368	-605.317656	-605.316711	-605.358645	27.387	
F	 0.0280841323	 0.0526626835	 0.2965416865	-0.080779
C	-0.0418552289	 1.3803251361	 0.1155877111	 0.265977
F	 1.2027417969	 1.8425467111	-0.0102994099	-0.065478
F	-0.6864873773	 1.6029226902	-1.0434110261	-0.081557
C	-0.7870495491	 2.0611216712	 1.2605526176	-0.044919
C	-2.2347973804	 1.5201595271	 1.4233220297	-0.137212
O	-2.3122851502	 1.1859548849	 2.7998743404	-0.231218
C	-1.0009600039	 0.8688214212	 3.1811353959	 0.018367
O	-0.1574077257	 1.781604304	 2.4950486585	-0.249009
H	-0.751135522	 3.1394802194	 1.0783143841	 0.119455
H	-2.9961962793	 2.2701034223	 1.2045126212	 0.131874
H	-2.4031936458	 0.6404946788	 0.7890747826	 0.123654
H	-0.8898087892	 1.0226019206	 4.2570361256	 0.129454
H	-0.7420274574	-0.1663459204	 2.9049909129	 0.101391
69.3728	78.4896	180.2474	246.3926	277.9147	345.3605	409.6309	521.6334	572.7279	671.8579	726.3983	749.5368	825.592	949.8153	968.2757	1004.3811	1059.3445	1108.4854	1119.4898	1175.4456	1187.4871	1216.8281	1222.6891	1261.2202	1291.66	1318.2113	1368.1917	1402.0721	1435.008	1514.5102	1545.2678	2974.2903	3030.792	3072.4137	3107.0192	3121.1806
FC(F)(F)C1COCO1	FC(F)(F)[C@H]1COCO1	
InChI=1S/C4H5F3O2/c5-4(6,7)3-1-8-2-9-3/h3H,1-2H2	InChI=1S/C4H5F3O2/c5-4(6,7)3-1-8-2-9-3/h3H,1-2H2/t3-/m1/s1
