21
gdb 56540	1.89573	1.41699	0.975	2.4516	84.38	-0.241	-0.0116	0.2294	1317.9319	0.178012	-387.086319	-387.075235	-387.074291	-387.122857	39.766	
C	-0.0500230073	 1.5373994875	-0.1170542617	-0.412249
C	 0.0651541701	 0.0034746718	-0.024036982	-0.129042
C	 0.8422478332	-0.5137826022	-1.1521803701	 0.316951
C	 1.5056840664	-0.9209473045	-2.069200077	-0.470924
C	 0.6815069945	-0.4933374221	 1.3174377725	-0.076333
C	-0.0684079089	 0.0321276649	 2.5522992522	-0.411951
C	 0.6323273332	-2.0304271395	 1.340295176	 0.412161
C	 1.951155697	-2.7611164763	 1.46176613	-0.488908
O	-0.4288024096	-2.6078562652	 1.270770663	-0.325037
H	 0.9276870681	 2.0118503733	 0.0142604917	 0.123803
H	-0.4333487938	 1.825513154	-1.0992238519	 0.130412
H	-0.7324545341	 1.9281418881	 0.6412352671	 0.122119
H	-0.941454611	-0.4309410535	-0.077857037	 0.127886
H	 2.0695761442	-1.2874884222	-2.8910447091	 0.196599
H	 1.7263135335	-0.1646043623	 1.3564493697	 0.079656
H	-1.1197473424	-0.2666215637	 2.5123076399	 0.139955
H	 0.3608065969	-0.3839655689	 3.4696496667	 0.117557
H	-0.00930434	 1.1202836742	 2.6265569387	 0.121146
H	 2.5004929685	-2.4158215904	 2.3454376967	 0.134332
H	 1.7862490449	-3.8376599496	 1.520539373	 0.138494
H	 2.5703284767	-2.5234367635	 0.5890243517	 0.153373
42.3307	58.8121	120.8628	169.5188	197.181	203.9465	213.4737	232.4818	289.2778	301.5732	326.9883	431.7621	506.4739	535.8655	600.9626	609.0919	627.4561	642.1084	778.8918	810.8087	901.1388	956.4392	970.788	1008.0526	1036.0274	1096.0719	1109.6129	1123.4143	1153.8013	1179.6761	1280.3956	1332.2362	1351.3376	1359.2926	1379.2809	1400.6891	1409.2193	1462.1479	1474.1066	1489.4845	1492.9529	1498.7576	1508.9842	1809.8939	2229.5651	3027.6837	3032.2911	3041.8171	3044.3269	3048.0671	3094.5653	3107.1657	3117.4008	3125.4539	3132.0254	3150.9276	3503.2018
CC(C#C)C(C)C(C)=O	C[C@@H](C#C)[C@@H](C)C(=O)C	
InChI=1S/C8H12O/c1-5-6(2)7(3)8(4)9/h1,6-7H,2-4H3	InChI=1S/C8H12O/c1-5-6(2)7(3)8(4)9/h1,6-7H,2-4H3/t6-,7+/m0/s1
