14
gdb 127210	2.36865	2.02968	1.10058	1.0957	65.98	-0.2707	-0.0687	0.202	1006.1869	0.10277	-470.070531	-470.062786	-470.061842	-470.103304	27.865	
C	-0.0124047437	 1.4690766713	 0.0058218075	-0.346872
N	 0.0050456717	 0.0055449047	 0.0162192687	-0.228223
C	 0.0817016358	-0.6291182605	-1.2181852126	 0.526441
O	 0.1335378739	-0.0433413942	-2.2761604937	-0.383023
N	 0.0940982679	-2.0156364517	-1.1375205212	-0.318996
N	 0.042073885	-2.7682185063	-0.0262408923	-0.137854
C	-0.0280760692	-2.1437720292	 1.096910729	-0.082093
C	-0.0544490817	-0.6794891012	 1.2396040819	 0.411545
O	-0.121079588	-0.1095645664	 2.3085423525	-0.363535
H	 0.8956034482	 1.8481482305	-0.4675892454	 0.154367
H	-0.8727666405	 1.8265164006	-0.563701796	 0.154319
H	-0.072819314	 1.7981658505	 1.0407813116	 0.171328
H	 0.1493801101	-2.5159599087	-2.0114996409	 0.287548
H	-0.0709558454	-2.7333992794	 2.0041412909	 0.155049
72.2322	119.8845	158.0936	225.2873	328.2937	393.4036	446.0758	497.4788	545.3927	599.7075	625.2685	694.3062	752.7652	775.2918	861.8569	909.4998	990.7792	1136.5125	1158.5023	1167.4843	1179.9245	1301.827	1353.9318	1401.7039	1455.7171	1456.8823	1491.6553	1505.3722	1654.4468	1773.6514	1823.3188	3068.2618	3134.5521	3189.4749	3221.0135	3640.7941
CN1C(=O)NN=CC1=O	Cn1c(=O)[nH]ncc1=O	
InChI=1S/C4H5N3O2/c1-7-3(8)2-5-6-4(7)9/h2H,1H3,(H,6,9)	InChI=1S/C4H5N3O2/c1-7-3(8)2-5-6-4(7)9/h2H,1H3,(H,6,9)
