17
gdb 83014	2.85672	1.45248	1.21402	1.9873	81.42	-0.2369	-0.0374	0.1995	1074.0344	0.135887	-380.821747	-380.813656	-380.812712	-380.854212	30.991	
C	-0.0483640693	 1.5450704156	 0.0718793579	-0.426468
C	 0.0340353745	 0.0434811338	-0.0594096746	 0.000389
C	 0.7084019787	-0.662829424	-1.1790671372	-0.070057
C	 1.7303808071	 0.0853185894	-2.0352230651	-0.205601
N	 2.7879696496	 0.5114734555	-1.1066318831	-0.267736
C	 2.4739640223	 0.0638228659	 0.0514182664	 0.160632
C	 3.2525232788	 0.2901712427	 1.2231733467	 0.292389
C	 3.8833328337	 0.473145339	 2.2302425303	-0.366722
N	 1.2909923276	-0.7361851317	 0.1882861335	-0.179163
H	 0.8133701258	 2.0589799536	-0.3581819663	 0.146242
H	-0.9480355591	 1.9032041594	-0.4400503858	 0.127032
H	-0.1270250707	 1.8354791342	 1.1244567053	 0.134707
H	-0.816497363	-0.4749390188	 0.3782708316	 0.102871
H	 0.2823448305	-1.5855121078	-1.5607938224	 0.101127
H	 2.160737201	-0.5690187318	-2.8022280265	 0.125699
H	 1.326635224	 0.961301089	-2.5577377278	 0.120939
H	 4.4513729185	 0.6383004657	 3.1125789872	 0.20372
97.9225	161.555	186.7153	223.1786	242.2129	355.2065	417.759	512.4673	522.9346	570.0779	650.3357	653.8277	698.9706	751.7672	791.8624	796.7666	877.1743	947.6168	972.4381	983.6305	998.7416	1078.9885	1091.0514	1134.1056	1166.5498	1201.597	1209.0386	1290.1726	1330.7884	1363.828	1412.341	1426.5351	1484.4994	1497.2963	1503.4882	1651.31	2241.1327	3031.0853	3041.1316	3059.5019	3100.1027	3122.1395	3139.625	3156.7322	3501.1495
CC1C2CN=C(C#C)N12	C[C@H]1[C@H]2CN=C(C#C)N12	
InChI=1S/C7H8N2/c1-3-7-8-4-6-5(2)9(6)7/h1,5-6H,4H2,2H3	InChI=1S/C7H8N2/c1-3-7-8-4-6-5(2)9(6)7/h1,5-6H,4H2,2H3/t5-,6+,9?/m0/s1
