19
gdb 63388	3.11426	1.14948	0.97759	0.4826	78.38	-0.2556	0.0352	0.2909	1250.1144	0.155326	-422.981183	-422.971459	-422.970515	-423.014916	37.761	
C	 0.6784980675	 1.4309860539	 0.1295869497	-0.460205
C	-0.136572852	 0.1563758713	-0.048938188	 0.412642
O	-1.5078249775	 0.4422635068	-0.2522103933	-0.481165
C	 0.4960485696	-0.8725762034	-1.0415571419	-0.299463
C	 1.0340619423	-1.6827796566	 0.1715875836	 0.210186
O	 2.3926238274	-1.3016655061	 0.3783500322	-0.468915
C	 0.0415250906	-0.8875427661	 1.0828877363	-0.303837
C	 0.8911346887	-3.1318396703	 0.1514475702	 0.281866
C	 0.7797022905	-4.3293391237	 0.1676634694	-0.453447
H	 1.7254878718	 1.1946210798	 0.332233048	 0.142206
H	 0.6408455453	 2.0435713599	-0.780778509	 0.102681
H	 0.2777973577	 2.0225349452	 0.9591772219	 0.119073
H	-1.5739486312	 1.1391524444	-0.9140808567	 0.273142
H	-0.2821391389	-1.4179699471	-1.5767999145	 0.116132
H	 1.2679990976	-0.5268001001	-1.7324153263	 0.110106
H	 2.6962442951	-1.736278943	 1.1834423974	 0.281509
H	 0.4462519987	-0.5426604002	 2.0377309587	 0.099348
H	-0.8890193422	-1.4341652967	 1.2447505942	 0.122011
H	 0.6805804692	-5.386741318	 0.1682651182	 0.196129
86.7736	136.3232	188.4571	253.7423	268.5358	273.6381	296.6946	345.9062	368.8985	395.0831	413.4815	454.1571	512.1867	569.5832	598.3727	622.2513	660.2894	713.6217	841.6136	851.0998	912.2383	928.1058	951.1106	981.1888	997.2967	1057.509	1091.3714	1135.5451	1188.1097	1223.3145	1241.6731	1264.6241	1296.5812	1360.385	1379.7923	1406.2059	1449.6064	1471.9602	1492.5472	1501.8761	2229.7749	3019.5743	3066.2856	3075.7842	3088.9016	3131.4211	3137.1113	3145.9273	3501.3774	3800.1404	3802.2508
CC1(O)CC(O)(C1)C#C	C[C@@]1(O)C[C@@](O)(C1)C#C	
InChI=1S/C7H10O2/c1-3-7(9)4-6(2,8)5-7/h1,8-9H,4-5H2,2H3	InChI=1S/C7H10O2/c1-3-7(9)4-6(2,8)5-7/h1,8-9H,4-5H2,2H3/t6-,7-
