14
gdb 29457	3.41589	1.66484	1.12711	0.8893	68.11	-0.2185	-0.0001	0.2184	1006.3689	0.102819	-436.710466	-436.703615	-436.702671	-436.741792	25.973	
C	-0.0141892277	 1.5223285752	 0.0089911173	-0.501832
C	-0.0057962132	 0.0285329719	 0.055055422	 0.111892
C	-0.0344496675	-0.8241528672	-1.0120920696	-0.11137
O	-0.016302425	-2.1774964477	-0.6383046725	-0.211141
C	 0.0239248523	-2.1021890134	 0.6869082481	 0.412438
C	 0.0335692157	-0.8505325975	 1.1995260076	 0.102532
N	 0.0767197605	-0.9609042831	 2.5895409976	-0.338751
C	 0.0886457048	-2.239109954	 2.7882024059	 0.033514
O	 0.0578057473	-3.0390486851	 1.6451247782	-0.207397
H	 0.8811199047	 1.9365990005	 0.4849717589	 0.14165
H	-0.0509429312	 1.8859669161	-1.021205867	 0.127272
H	-0.8787601829	 1.9284576625	 0.5449682458	 0.141665
H	-0.0680030043	-0.66187852	-2.0758377099	 0.143954
H	 0.1196951066	-2.779410418	 3.7199958276	 0.155575
141.3553	175.9846	235.6155	237.3061	399.7717	527.178	589.2136	598.3494	633.1817	693.2171	701.5261	756.3864	787.4322	789.9969	913.4044	1010.379	1022.8731	1054.3922	1064.7746	1109.7217	1212.8369	1246.2616	1312.3753	1419.6403	1429.238	1479.0982	1491.7412	1514.2307	1536.5266	1581.7289	1641.098	3035.9265	3090.0503	3117.8425	3290.6027	3290.9545
CC1=COC2=C1N=CO2	Cc1coc2c1nco2	
InChI=1S/C6H5NO2/c1-4-2-8-6-5(4)7-3-9-6/h2-3H,1H3	InChI=1S/C6H5NO2/c1-4-2-8-6-5(4)7-3-9-6/h2-3H,1H3
