20
gdb 100796	3.24766	0.93314	0.76428	2.6461	71.65	-0.2436	0.0555	0.2991	1475.1932	0.169253	-477.374336	-477.364018	-477.363074	-477.410239	37.138	
O	-0.1347614271	 1.1929174736	-0.7923891574	-0.436448
C	-0.0261208011	 0.0237488997	 0.0192678556	-0.106148
C	-1.4131542516	-0.612972359	 0.0171152338	 0.120573
O	-1.8409767559	-0.8355072378	-1.3134922634	-0.446845
C	-1.4325644958	-1.9598673261	 0.7515081303	 0.086168
O	-0.9061766234	-1.8188088557	 2.071607435	-0.437747
C	-2.8116450814	-2.5756580262	 0.7617106928	 0.004202
C	-3.1886695798	-3.6006874058	-0.2375263582	-0.224682
N	-2.981020551	-3.9789864471	 1.1696543824	-0.330604
H	 0.7490302306	 1.5167545028	-0.9855164739	 0.294933
H	 0.6981354993	-0.6859272481	-0.4081451836	 0.092666
H	 0.2820910425	 0.2641202148	 1.0432257032	 0.107138
H	-2.1034553147	 0.0796603741	 0.5339998991	 0.061967
H	-1.5711299247	-0.0472863563	-1.8026414642	 0.291859
H	-0.7411481754	-2.6394317019	 0.236197551	 0.083067
H	-1.6014110723	-1.4534007595	 2.6299407817	 0.284994
H	-3.5920431014	-1.9150599759	 1.1427521398	 0.084137
H	-4.215573384	-3.6650542903	-0.5843185916	 0.119175
H	-2.4430863819	-3.8776920374	-0.9773323856	 0.117939
H	-2.065724121	-4.4080810079	 1.2891930833	 0.233655
53.0978	65.1573	116.862	144.2523	223.5658	242.6724	259.1613	266.587	313.5796	352.6589	407.9056	456.6317	490.7274	559.4447	599.0735	820.1451	866.6415	899.4559	928.2724	954.5398	1023.5122	1046.0264	1068.984	1079.9614	1096.5637	1121.2003	1130.1271	1158.666	1181.6586	1215.5511	1243.849	1250.3416	1261.7942	1289.5696	1305.495	1335.5797	1367.5631	1400.8816	1428.1319	1441.1506	1461.9426	1511.5276	1515.1707	2930.921	2993.452	3030.7734	3062.8349	3094.6208	3116.4607	3201.1696	3491.8584	3768.4952	3802.9556	3844.1517
OCC(O)C(O)C1CN1	OC[C@@H](O)[C@@H](O)[C@H]1CN1	
InChI=1S/C5H11NO3/c7-2-4(8)5(9)3-1-6-3/h3-9H,1-2H2	InChI=1S/C5H11NO3/c7-2-4(8)5(9)3-1-6-3/h3-9H,1-2H2/t3-,4-,5+/m1/s1
