12
gdb 46835	2.79011	1.68411	1.19745	5.6116	59.69	-0.2932	-0.0533	0.2399	961.3258	0.077686	-472.63774	-472.63071	-472.629766	-472.669503	25.554	
O	-0.0215155748	 0.0067194078	 0.2160318481	-0.309496
C	-0.0105511172	 1.1774111966	 0.0000835913	 0.441198
O	-1.1285052543	 1.9315279835	-0.1680758056	-0.230532
C	-0.8365586516	 3.2612410656	-0.6304836771	-0.106629
C	 0.6634144304	 3.420926194	-0.5118763074	-0.053833
O	 1.1272526825	 3.1789576966	 0.8095933179	-0.258476
C	 1.1953749467	 2.0977377201	-0.1394571277	 0.145536
C	 2.4892585033	 1.5768492909	-0.4816812741	 0.237818
N	 3.5228196017	 1.1493266035	-0.7685942585	-0.314556
H	-1.1698016628	 3.3576695435	-1.6686943855	 0.144407
H	-1.3807927176	 3.9709438746	-0.0020611807	 0.15503
H	 1.2187199439	 4.1393646434	-1.1057726908	 0.149534
122.5438	143.471	198.2506	261.6955	393.2115	409.3376	506.5106	571.342	590.7988	679.1099	728.9895	792.2448	847.0109	925.6828	951.7346	1013.5816	1042.5088	1103.4273	1103.9361	1226.5415	1250.7006	1282.3899	1386.3762	1435.475	1499.057	1901.4199	2373.862	3059.1581	3114.4278	3185.4198
O=C1OCC2OC12C#N	O=C1OC[C@H]2O[C@@]12C#N	
InChI=1S/C5H3NO3/c6-2-5-3(9-5)1-8-4(5)7/h3H,1H2	InChI=1S/C5H3NO3/c6-2-5-3(9-5)1-8-4(5)7/h3H,1H2/t3-,5-/m1/s1
