17
gdb 89557	5.69873	0.87157	0.86399	2.7758	68.67	-0.2736	0.0091	0.2827	1330.6162	0.135183	-458.979139	-458.971087	-458.970143	-459.012068	30.785	
O	 0.5464303608	 0.6330167853	-0.9622181784	-0.429322
C	-0.0970145243	-0.2394905022	-0.0762648579	 0.176137
C	 0.2807991992	-0.2316026519	 1.4340301321	-0.345658
C	-1.2082609652	-0.4607189186	 1.7453208184	 0.451407
C	-1.57737715	 0.0185853887	 0.3308603248	-0.34563
C	-1.727413484	-1.7911942781	 2.3180753937	-0.491874
C	-2.273268777	-0.9063617753	 3.4380875229	 0.433751
O	-2.888433115	-1.0305480919	 4.4463473132	-0.314183
O	-1.7889973989	 0.253927061	 2.8856402649	-0.269741
H	 0.4644812803	 1.5295808496	-0.6194292236	 0.280831
H	 0.0245411375	-1.2369652728	-0.5072435617	 0.101707
H	 1.0098056266	-0.9564832388	 1.8022774997	 0.113312
H	 0.5784645793	 0.772481627	 1.7543708986	 0.117789
H	-1.7943266938	 1.0919485716	 0.3456489164	 0.117799
H	-2.3735709657	-0.5009747211	-0.2063953385	 0.113305
H	-2.4958253054	-2.3030436195	 1.7357084879	 0.145181
H	-0.9706090845	-2.5084281629	 2.6412091274	 0.145187
73.349	87.3946	262.1422	296.5015	308.4102	349.0144	392.7593	472.6363	476.0819	522.7815	528.8182	707.3558	800.1674	808.1321	850.6467	869.6511	930.1551	969.7316	985.1024	1035.0465	1037.1292	1080.496	1100.6109	1117.38	1186.9083	1196.6584	1215.035	1238.5663	1263.5634	1278.0407	1317.6449	1340.114	1440.3022	1454.4643	1458.6514	1487.0734	1943.4601	3051.5004	3057.4728	3077.9614	3084.6357	3117.0782	3121.203	3141.7814	3804.9707
OC1CC2(C1)CC(=O)O2	O[C@H]1C[C@@]2(C1)CC(=O)O2	
InChI=1S/C6H8O3/c7-4-1-6(2-4)3-5(8)9-6/h4,7H,1-3H2	InChI=1S/C6H8O3/c7-4-1-6(2-4)3-5(8)9-6/h4,7H,1-3H2/t4-,6+
