21
gdb 91115	2.65895	1.76722	1.42916	1.2934	79.76	-0.2521	0.0703	0.3224	998.6171	0.186562	-387.100785	-387.093499	-387.092555	-387.132206	30.524	
O	 0.0347240858	 1.4280624986	-0.1184260592	-0.436781
C	 0.0229344571	 0.0154018132	-0.0042793995	 0.148633
C	 0.7148179953	-0.5491675726	 1.2643450402	-0.281978
C	-0.0461047652	-1.8364023938	 1.5581366605	-0.041076
C	-1.4454032869	-1.7535006956	 2.1458760437	-0.033443
C	-2.046106661	-0.383430928	 2.4485013157	-0.238426
C	-2.3104942816	 0.2576007266	 1.0605830128	-0.200294
C	-1.4266129714	-0.5166169853	 0.0527133548	-0.060158
C	-1.2642776192	-1.9229407373	 0.6573866823	-0.086519
H	 0.9507851977	 1.7184466948	-0.1591765771	 0.2825
H	 0.5056223	-0.4383663749	-0.8850116599	 0.061285
H	 1.7781833646	-0.7445594689	 1.0930891241	 0.087513
H	 0.6486283859	 0.1834046071	 2.0778439584	 0.102081
H	 0.5209637555	-2.7319478521	 1.7877625291	 0.076616
H	-1.7558820254	-2.5995934035	 2.7499354542	 0.076462
H	-2.9724159927	-0.489302338	 3.0209639798	 0.093
H	-1.3742744821	 0.2316120613	 3.0583677508	 0.100033
H	-3.3606441257	 0.1108508922	 0.7878221657	 0.091023
H	-2.1090707429	 1.3304100469	 1.035691783	 0.11566
H	-1.8708986894	-0.5215087583	-0.9450309029	 0.067807
H	-1.5437281483	-2.8191370425	 0.1176492434	 0.076061
101.4395	249.8861	256.6037	276.8909	379.6839	441.4919	504.5471	530.3533	663.9452	702.0586	708.4224	767.8193	793.541	808.0322	858.8535	890.7787	930.0229	951.9462	969.4928	985.291	1014.6889	1019.8272	1035.6101	1073.1986	1097.8257	1100.3185	1118.7234	1156.2853	1183.9917	1204.6528	1212.64	1246.2399	1277.9541	1287.3575	1292.5133	1301.807	1325.6867	1337.0961	1358.5048	1378.0398	1406.1523	1424.4881	1486.866	1494.5948	1519.1294	2962.3757	3031.0415	3038.1722	3047.3256	3074.0948	3077.692	3085.5374	3116.7045	3156.0501	3165.2031	3186.0657	3825.5245
OC1CC2C3CCC1C23	O[C@H]1C[C@H]2[C@H]3CC[C@@H]1[C@@H]23	
InChI=1S/C8H12O/c9-7-3-6-4-1-2-5(7)8(4)6/h4-9H,1-3H2	InChI=1S/C8H12O/c9-7-3-6-4-1-2-5(7)8(4)6/h4-9H,1-3H2/t4-,5+,6+,7+,8+/m1/s1
