19
gdb 51662	3.89912	1.01898	0.9178	2.0643	77.74	-0.2222	0.0185	0.2407	1310.8639	0.160127	-419.15125	-419.142938	-419.141994	-419.185703	30.526	
N	-0.3936704523	 1.2799050289	 0.1576026069	-0.441042
C	-0.2286314125	 0.0430623542	-0.0243157779	 0.12369
O	-1.0225993904	-0.8441855904	 0.6107340089	-0.187209
C	-0.9021176238	-2.2125637215	 0.2600858126	 0.114569
C	-1.3540886435	-3.1841050402	 1.3714335161	-0.215374
N	-2.3133550013	-3.8697813506	 0.4463008169	-0.131361
C	-3.7084676019	-3.3319647148	 0.5763984166	-0.16293
C	-3.4364503885	-2.215450026	-0.468621564	-0.255534
C	-2.0236763156	-2.8203688887	-0.6182087842	-0.01
H	 0.3014909174	 1.8044609393	-0.3691947031	 0.230854
H	 0.5322545354	-0.4312284486	-0.6602063185	 0.087689
H	 0.1039500927	-2.412315273	-0.12537779	 0.087336
H	-0.5802709776	-3.8547107438	 1.7551183519	 0.110619
H	-1.8296592353	-2.6714699194	 2.2144473742	 0.118583
H	-4.4472422862	-4.0750893844	 0.2622188163	 0.108002
H	-3.9620371065	-3.0007486703	 1.5889690735	 0.106649
H	-4.0493630819	-2.2620033637	-1.3703081668	 0.107935
H	-3.4474786224	-1.1940079343	-0.0844063104	 0.1336
H	-1.7304193457	-3.1718924827	-1.6114313792	 0.073925
40.4008	55.224	109.1566	204.3462	248.7833	389.8916	408.4892	465.1227	604.6172	705.8447	725.553	771.4331	818.0041	840.2363	868.2171	915.4995	932.2427	976.8982	993.1444	1017.1377	1038.6109	1044.344	1088.8789	1117.7407	1165.0042	1168.2276	1207.0817	1211.7867	1222.7177	1259.3292	1271.5968	1287.7905	1293.1493	1315.2353	1345.8576	1388.2256	1428.3623	1481.9954	1488.0984	1512.6649	1745.427	3016.4383	3037.9617	3039.4274	3042.3361	3064.0158	3079.8505	3085.2798	3095.4855	3135.0399	3519.6265
N=COC1CN2CCC12	[NH][CH]O[C@H]1CN2CC[C@@H]12	
InChI=1S/C6H10N2O/c7-4-9-6-3-8-2-1-5(6)8/h4-7H,1-3H2	InChI=1S/C6H10N2O/c7-4-9-6-3-8-2-1-5(6)8/h4-7H,1-3H2/t5-,6-/m0/s1
