22
gdb 76697	3.07527	0.80003	0.74865	1.6048	89.27	-0.2186	0.0564	0.275	1635.331	0.191358	-367.152097	-367.141434	-367.140489	-367.188345	38.8	
C	 0.0581990415	 1.3189999409	 0.6327510869	-0.413645
C	 0.3272790988	-0.1516680768	 0.3919229834	-0.007044
C	 0.4583944242	-0.7566169649	-0.9712372686	-0.003249
C	 0.3152264565	 0.0368022889	-2.2528350776	-0.418816
N	 1.6195034915	-0.6648364376	-0.0737507915	-0.104298
C	 2.7179416485	 0.2463310182	-0.3589417444	-0.135271
C	 3.8707802499	-0.5442676874	-1.0096766673	-0.347152
C	 5.0306408311	 0.2906281636	-1.2931598544	 0.295901
C	 5.9711754499	 1.0061680492	-1.5140623494	-0.449242
H	 0.5027217658	 1.6401745027	 1.5812882218	 0.125184
H	 0.4505928551	 1.9679199998	-0.1521716149	 0.120877
H	-1.0209015826	 1.4938116218	 0.7019224409	 0.121839
H	-0.1101356016	-0.7844193129	 1.1653926978	 0.085377
H	 0.1112778031	-1.784417491	-1.0815089354	 0.08583
H	 0.5615985351	 1.0943681921	-2.1457171244	 0.123884
H	 0.9531877619	-0.3768738131	-3.0421186613	 0.124615
H	-0.7200600427	-0.0243545691	-2.605063155	 0.12391
H	 2.4631694307	 1.0944768237	-1.0093774578	 0.096104
H	 3.0679330598	 0.6677735701	 0.5896130064	 0.113705
H	 4.145810222	-1.3706731454	-0.3444863711	 0.139454
H	 3.5094345483	-1.0059503765	-1.9371950205	 0.129787
H	 6.8101228732	 1.6252034538	-1.7137890536	 0.19225
57.8729	65.323	93.4748	156.7472	156.9828	208.1192	244.2614	291.9294	302.4892	355.3595	451.5379	471.8803	530.2677	553.5253	616.1507	639.7	736.6202	763.4592	789.17	839.4658	959.0675	972.0173	1015.9841	1036.3738	1050.3076	1059.0707	1080.5782	1127.8146	1164.5008	1179.7529	1196.6347	1227.7216	1297.1524	1313.8065	1348.95	1380.9468	1388.54	1415.9209	1422.3655	1440.6071	1472.8528	1483.7568	1490.2975	1500.9045	1509.3049	1513.6919	2238.0336	3002.8594	3030.2474	3036.3871	3039.4339	3058.6797	3077.6791	3082.4613	3090.9988	3092.0246	3094.639	3130.7115	3141.2186	3507.7695
CC1C(C)N1CCC#C	C[C@H]1[C@@H](C)N1CCC#C	
InChI=1S/C8H13N/c1-4-5-6-9-7(2)8(9)3/h1,7-8H,5-6H2,2-3H3	InChI=1S/C8H13N/c1-4-5-6-9-7(2)8(9)3/h1,7-8H,5-6H2,2-3H3/t7-,8+,9?
