17
gdb 97812	3.82196	0.62933	0.57434	0.4085	75.31	-0.2611	0.0061	0.2671	1882.9728	0.133432	-458.891251	-458.881226	-458.880282	-458.928423	34.313	
O	-0.0001473217	 1.5229665175	-0.3531603796	-0.398026
C	 0.0453235871	 0.1588897577	 0.0354826546	-0.197748
C	-1.272082495	-0.4724611245	 0.1101762427	 0.123489
C	-2.3682126618	-0.9744805886	 0.1224866717	 0.051498
C	-3.6949214224	-1.5253293338	 0.1765818741	-0.167799
O	-4.1676818359	-2.2691108776	-0.9633345156	-0.251395
C	-3.9642065713	-2.9780845893	 0.2628178808	 0.050065
C	-2.8759325723	-4.0213790995	 0.2292846664	-0.096316
O	-3.2866520701	-5.1546509512	-0.5162342927	-0.415752
H	-0.4942902389	 1.5735123813	-1.1782422667	 0.290639
H	 0.6888005011	-0.4326463634	-0.6352702284	 0.124614
H	 0.5223770691	 0.145180185	 1.0217938983	 0.145836
H	-4.4471571408	-0.8603775079	 0.6005792362	 0.120201
H	-4.8889303182	-3.2862127946	 0.7533377843	 0.105821
H	-1.9546190061	-3.577020323	-0.1704688462	 0.10486
H	-2.6698378351	-4.3772636488	 1.2444325049	 0.116084
H	-3.4806363979	-4.8462476992	-1.408649435	 0.29393
23.526	61.7832	74.4037	115.1552	156.7304	220.9508	290.3622	329.2183	366.3911	405.3627	461.4341	506.5937	578.4933	594.7437	754.8753	803.2243	901.1	923.8982	984.0393	1035.74	1051.4525	1073.518	1103.1858	1135.0423	1179.5364	1215.8248	1229.3129	1285.0292	1351.7225	1361.1817	1383.35	1416.3194	1423.7566	1460.9172	1487.3748	1492.3875	2354.4831	2979.4227	3019.2415	3064.2692	3079.026	3103.2108	3114.9542	3802.1333	3815.3495
OCC#CC1OC1CO	OCC#C[C@H]1O[C@H]1CO	
InChI=1S/C6H8O3/c7-3-1-2-5-6(4-8)9-5/h5-8H,3-4H2	InChI=1S/C6H8O3/c7-3-1-2-5-6(4-8)9-5/h5-8H,3-4H2/t5-,6+/m1/s1
