17
gdb 44480	3.64938	1.57839	1.44509	2.0231	70.34	-0.2406	-0.0183	0.2223	922.4998	0.138872	-421.832449	-421.826208	-421.825263	-421.862972	26.143	
O	 0.0225429265	 0.0193154448	 0.1589013662	-0.323162
C	-0.0284212814	 1.2130219279	 0.0297403429	 0.409786
C	-1.3126954119	 2.0689890196	-0.0795426955	-0.36915
C	-0.7726597367	 3.4286262517	-0.5066499406	-0.038953
C	 0.1465983301	 4.2295835655	 0.475219874	 0.064966
C	 0.9648494451	 3.1352121741	 1.1848042669	-0.23818
C	 1.1293112221	 2.1968501273	-0.0668716854	-0.151388
C	 0.6381030103	 3.2431975453	-1.126468991	 0.071893
O	 1.0264521604	 4.5462588759	-0.6433682431	-0.290226
H	-1.977315409	 1.6288690568	-0.8300237976	 0.134987
H	-1.8587361198	 2.0690799788	 0.8695715664	 0.133449
H	-1.4351012022	 4.075039809	-1.0794981296	 0.090686
H	-0.1852574643	 5.0993871505	 1.041378372	 0.0855
H	 1.9237672132	 3.529404714	 1.5246159159	 0.124698
H	 0.4572054116	 2.6564228523	 2.0265913064	 0.112732
H	 2.1069254249	 1.7406742512	-0.2004001233	 0.089424
H	 0.8443487313	 3.0641841453	-2.1808355446	 0.09294
122.5658	307.3118	338.0621	432.7884	509.6149	542.1717	602.5915	677.2652	702.5228	765.8983	799.7505	840.1442	867.6449	886.6021	911.5055	952.0804	960.75	969.3039	1012.7461	1032.7516	1046.5039	1067.7941	1125.4182	1146.733	1175.9799	1209.9126	1223.074	1239.308	1249.4945	1262.2488	1295.2788	1311.122	1320.8871	1352.2954	1450.6461	1490.9088	1855.1524	3054.443	3069.4738	3094.8374	3126.6619	3127.4566	3131.0931	3141.2003	3155.8387
O=C1CC2C3CC1C2O3	O=C1C[C@H]2[C@H]3C[C@@H]1[C@@H]2O3	
InChI=1S/C7H8O2/c8-5-1-4-6-2-3(5)7(4)9-6/h3-4,6-7H,1-2H2	InChI=1S/C7H8O2/c8-5-1-4-6-2-3(5)7(4)9-6/h3-4,6-7H,1-2H2/t3-,4-,6+,7-/m0/s1
