20
gdb 89285	2.18783	1.76291	1.15884	3.7905	79.27	-0.2385	0.0285	0.2671	1123.9143	0.170619	-403.170154	-403.161365	-403.160421	-403.203264	33.954	
C	-0.1813505508	 1.5701572002	 0.0111954631	-0.406938
C	 0.049539243	 0.0654292406	 0.0125839519	 0.036606
C	 1.1623017814	-0.5326278154	-0.9055855147	-0.300185
C	 1.7872751778	-1.2709901564	 0.320248006	 0.376441
C	 2.0609517711	-2.7535848262	 0.2345272022	-0.477418
N	 2.8030617175	-0.4712663247	 1.0252222108	-0.366028
C	 1.9040537529	 0.2171106356	 1.8203469864	 0.436359
O	 2.0432963259	 1.1286655786	 2.592597661	-0.372875
C	 0.7228313892	-0.5977314929	 1.2604521833	-0.273878
H	 0.7392127835	 2.1197546291	 0.2293391288	 0.132793
H	-0.5523943334	 1.9015608658	-0.9648808402	 0.111522
H	-0.9200171179	 1.8569206025	 0.7669157174	 0.12411
H	-0.8973049562	-0.4473194515	-0.1823678846	 0.081602
H	 0.7841481209	-1.1977490679	-1.6859483338	 0.103308
H	 1.8315777689	 0.1984528816	-1.3673582012	 0.096759
H	 2.8856663119	-2.9605460782	-0.458222802	 0.120249
H	 2.3320538066	-3.1574451636	 1.2144575338	 0.127794
H	 1.1806026125	-3.2899381204	-0.1333394511	 0.122317
H	 3.7167118476	-0.1691118311	 0.7099765355	 0.238105
H	 0.0977147178	-1.1376519057	 1.9703567775	 0.089356
87.0523	138.8901	213.0783	219.6599	230.5847	294.3064	358.0523	390.8193	398.8097	481.39	530.0079	607.0114	644.0142	718.7185	783.9028	849.9793	864.0447	901.839	916.9852	925.462	970.6916	1004.0341	1057.9636	1104.8878	1125.2662	1144.4594	1147.0571	1183.3598	1222.3316	1229.1123	1264.6613	1297.7742	1313.0173	1362.6902	1368.2731	1414.1408	1417.0975	1479.1384	1487.8393	1492.0201	1492.78	1494.8998	1879.6263	3027.9817	3032.5015	3050.19	3057.4904	3092.0066	3098.2615	3108.2927	3112.2361	3114.9926	3127.4756	3564.0025
CC1CC2(C)NC(=O)C12	C[C@H]1C[C@@]2(C)NC(=O)[C@@H]12	
InChI=1S/C7H11NO/c1-4-3-7(2)5(4)6(9)8-7/h4-5H,3H2,1-2H3,(H,8,9)	InChI=1S/C7H11NO/c1-4-3-7(2)5(4)6(9)8-7/h4-5H,3H2,1-2H3,(H,8,9)/t4-,5+,7+/m0/s1
