25
gdb 118131	3.19279	0.77189	0.70054	0.9284	90.58	-0.2495	0.0873	0.3368	1764.5988	0.226805	-389.475002	-389.46384	-389.462896	-389.511712	40.367	
C	-1.0804998886	-0.8326199517	 2.114268979	-0.226185
O	 0.0261327366	-1.6067159072	 1.7247884621	-0.235326
C	 0.0610716701	-1.8593626158	 0.3352083549	-0.046254
C	 1.2821044185	-2.7243432864	 0.0132983434	-0.017989
C	 1.2096103516	-4.0758500532	 0.7378575715	-0.395139
C	 1.4061308224	-2.9005533978	-1.4897143096	 0.016017
C	 1.9976642435	-1.8221082645	-2.3696271659	-0.310507
C	 2.7239736019	-3.1348657168	-2.1976299134	-0.005883
C	 4.0548217165	-3.1993827185	-1.4792726755	-0.407414
H	-1.0839160365	 0.1541181867	 1.623475244	 0.100958
H	-2.0342412206	-1.3320873494	 1.8787076185	 0.10138
H	-1.0170779736	-0.6873168718	 3.1957429182	 0.124158
H	-0.8635644529	-2.3754675406	 0.0177429868	 0.07665
H	 0.1103572626	-0.9105399853	-0.2245059393	 0.085132
H	 2.1554984626	-2.1757441314	 0.3864615629	 0.077671
H	 2.1206310938	-4.6590207393	 0.5750565462	 0.111718
H	 1.0732117167	-3.9300805708	 1.8118102247	 0.128611
H	 0.3643537063	-4.6687220076	 0.3671379698	 0.104885
H	 0.563541347	-3.4388550228	-1.9216940466	 0.074799
H	 1.5259125315	-1.5952821952	-3.3196932656	 0.105501
H	 2.4245658	-0.9557971939	-1.8714923462	 0.106655
H	 2.6606018512	-3.8113525173	-3.0466715234	 0.079929
H	 4.1059728592	-2.4929945981	-0.6458993472	 0.119044
H	 4.2489475795	-4.200740062	-1.0787027811	 0.116821
H	 4.8739012109	-2.9531634493	-2.1643014382	 0.114766
53.1222	93.1278	94.6822	117.1593	190.3473	201.0807	223.8031	226.8143	244.6906	330.2	359.9877	387.6497	400.0098	489.6022	566.078	766.913	807.9789	856.2254	887.8438	918.1259	932.2693	955.8394	995.3178	1021.8969	1032.1503	1070.9062	1112.7347	1130.0398	1151.9674	1156.4729	1170.1367	1187.2435	1198.2612	1201.2245	1229.371	1249.3611	1267.5971	1296.8584	1354.4946	1391.5141	1400.3359	1418.4457	1420.9065	1432.8896	1480.3762	1485.1794	1491.2611	1492.9184	1495.4085	1501.5787	1503.0392	1508.9657	1526.4274	2936.7556	2965.9403	2978.9491	3007.4791	3027.5112	3030.3853	3038.2023	3085.2953	3097.6047	3103.2798	3109.496	3110.0701	3119.8122	3128.3381	3134.5395	3203.5301
COCC(C)C1CC1C	COC[C@@H](C)[C@H]1C[C@H]1C	
InChI=1S/C8H16O/c1-6-4-8(6)7(2)5-9-3/h6-8H,4-5H2,1-3H3	InChI=1S/C8H16O/c1-6-4-8(6)7(2)5-9-3/h6-8H,4-5H2,1-3H3/t6-,7-,8+/m1/s1
