16
gdb 44577	3.14537	1.61708	1.4561	4.5239	67.21	-0.235	0.0164	0.2514	927.8239	0.126268	-437.883466	-437.876657	-437.875713	-437.914841	27.08	
O	-0.1405564129	 0.0809213312	 0.3727645082	-0.352648
C	-0.064365976	 1.2540456701	 0.1360286156	 0.37924
N	-1.0077928271	 2.2167485947	-0.1611966139	-0.315356
C	-0.0917062684	 3.363929444	-0.1320722956	-0.031719
C	 0.0048018344	 4.1981382383	 1.1355771261	-0.086311
C	-0.1291990705	 3.467774991	 2.4632517635	-0.337665
C	 1.2267984796	 3.6870688863	 1.8666032358	 0.113614
O	 1.8415201911	 2.6429942982	 1.1485880768	-0.251522
C	 1.0749298723	 2.3275441028	 0.0145803104	-0.041228
H	-2.016331247	 2.1776584692	-0.1159102828	 0.251384
H	-0.1222553578	 3.9764578804	-1.0350517678	 0.092776
H	-0.2245320673	 5.2550448912	 1.0805000513	 0.09595
H	-0.3947920162	 4.0675431388	 3.3271677067	 0.120583
H	-0.5410143198	 2.4648362787	 2.467538087	 0.141896
H	 1.9545760297	 4.3277714668	 2.350972574	 0.107993
H	 1.734027906	 2.1645583283	-0.8418158652	 0.113014
79.6415	202.9049	253.2636	395.6416	412.4752	499.4308	538.9027	651.9025	670.4376	710.8433	776.4412	789.2931	823.5759	851.2045	907.5657	936.204	952.1608	990.7544	1028.08	1057.9959	1070.7247	1097.4954	1106.6422	1159.2295	1167.3916	1182.3342	1200.5413	1249.1496	1316.1342	1337.0412	1360.3646	1369.4376	1392.9995	1480.9124	1896.976	3084.4934	3095.654	3137.3033	3178.6972	3188.9048	3226.5246	3597.3668
O=C1NC2C3CC3OC12	O=C1N[C@H]2[C@H]3C[C@H]3O[C@@H]12	
InChI=1S/C6H7NO2/c8-6-5-4(7-6)2-1-3(2)9-5/h2-5H,1H2,(H,7,8)	InChI=1S/C6H7NO2/c8-6-5-4(7-6)2-1-3(2)9-5/h2-5H,1H2,(H,7,8)/t2-,3+,4-,5+/m0/s1
