19
gdb 89776	2.38625	1.47763	1.05958	1.4431	81.59	-0.2532	0.0382	0.2914	1173.0965	0.15769	-385.828536	-385.819656	-385.818712	-385.861965	34.493	
O	 0.4894470334	 0.6079754539	-0.8943155613	-0.431758
C	-0.0332921715	-0.2820315986	 0.0408649872	 0.169088
C	-0.0317165487	 0.0798530418	 1.5542413836	-0.349143
C	-1.4307311089	-0.5348914711	 1.6528334872	 0.391408
C	-1.8274844377	-1.703235399	 2.5077206813	-0.327261
C	-2.4786969492	-0.3511874462	 2.7019098099	-0.325886
C	-1.6025717888	-0.4880527871	 0.1150634511	-0.344022
C	-2.327047732	 0.6689705069	-0.374587332	 0.325758
C	-2.8642574195	 1.6656455833	-0.7853740821	-0.460194
H	-0.105913889	 1.3680584767	-0.9390625208	 0.282048
H	 0.4519541328	-1.2455967247	-0.1335058862	 0.098587
H	 0.7629259098	-0.3490734787	 2.1697986568	 0.102844
H	-0.0461850982	 1.1661073767	 1.6944302853	 0.105149
H	-2.4185491805	-2.494553715	 2.0570357706	 0.113889
H	-1.1229294079	-2.0460791381	 3.259125651	 0.114179
H	-2.2173604767	 0.2215622317	 3.5860095229	 0.11438
H	-3.5062119947	-0.2245645023	 2.3767172002	 0.120067
H	-1.976891065	-1.4024878283	-0.3552103437	 0.100233
H	-3.3763874977	 2.5242332282	-1.1440941408	 0.200633
71.3769	120.4504	147.9853	246.3287	275.9883	345.9749	358.7934	397.1508	429.2596	478.0837	525.4808	624.4849	643.901	658.7398	739.4145	772.8825	813.6533	874.245	890.8792	932.8688	942.2339	997.4658	1036.9612	1052.2443	1056.9029	1078.1147	1117.6458	1141.9461	1180.7877	1185.6355	1222.562	1242.2189	1255.426	1311.9356	1341.7208	1385.6883	1440.9419	1464.7198	1482.7316	1504.4675	2219.7755	3045.6548	3057.0949	3081.2158	3106.9933	3120.5757	3127.4282	3199.7029	3215.2642	3501.0092	3753.0636
OC1CC2(CC2)C1C#C	O[C@H]1CC2(CC2)[C@H]1C#C	
InChI=1S/C8H10O/c1-2-6-7(9)5-8(6)3-4-8/h1,6-7,9H,3-5H2	InChI=1S/C8H10O/c1-2-6-7(9)5-8(6)3-4-8/h1,6-7,9H,3-5H2/t6-,7-/m0/s1
