15
gdb 16409	3.66893	2.27452	1.80018	5.0717	60.45	-0.2427	0.0098	0.2525	749.4145	0.122078	-399.804016	-399.797989	-399.797045	-399.834107	23.681	
O	 0.0039741269	 0.0160828578	-0.2939329811	-0.337248
C	 0.0314913166	 1.1690391234	 0.0300470036	 0.48027
O	-1.1067206075	 1.8056951436	 0.4117843582	-0.241684
C	-1.0426605776	 3.184938429	 0.8313138355	-0.045199
C	 0.3496768798	 3.765532858	 0.6500743755	-0.024953
C	 0.9226951314	 3.3700902958	-0.7314438481	-0.239888
C	 1.2667760576	 2.0555008109	 0.0148838225	-0.147883
N	 1.280588479	 2.7951723389	 1.332327424	-0.329476
H	-1.7839722696	 3.732120969	 0.2392444755	 0.118208
H	-1.3297682384	 3.2172693929	 1.886839615	 0.129538
H	 0.389075049	 4.8036779957	 0.9879952938	 0.084905
H	 0.2571945642	 3.3342403721	-1.599247554	 0.116944
H	 1.8251421916	 3.9357523168	-0.9754844052	 0.110194
H	 2.1474129257	 1.4689226124	-0.2410486901	 0.100748
H	 2.1939510514	 3.2406759438	 1.413589025	 0.225525
141.3145	223.8439	371.2958	415.3906	447.9858	517.0391	645.3149	746.7415	767.6518	845.0035	863.4429	894.4869	911.2884	955.3401	976.9549	1012.5115	1038.4884	1078.2636	1085.1403	1143.3999	1170.6643	1202.379	1248.4227	1251.8175	1262.1662	1315.2165	1363.278	1404.8776	1422.8946	1494.0215	1502.9704	1866.8258	3045.6083	3052.3261	3090.173	3095.4288	3114.7884	3137.93	3463.201
O=C1OCC2CC1N2	O=C1OC[C@@H]2C[C@H]1N2	
InChI=1S/C5H7NO2/c7-5-4-1-3(6-4)2-8-5/h3-4,6H,1-2H2	InChI=1S/C5H7NO2/c7-5-4-1-3(6-4)2-8-5/h3-4,6H,1-2H2/t3-,4+/m0/s1
