17
gdb 34218	3.79016	1.39678	1.37131	5.3487	76.22	-0.2642	0.0211	0.2853	984.7581	0.139877	-380.885915	-380.879386	-380.878441	-380.916708	26.782	
N	 0.0081032263	-1.0898803594	-0.0973495752	-0.346497
C	 0.0097776517	 0.0649540788	-0.0368469928	 0.184357
C	-0.0060725872	 1.4923531645	 0.0841645178	 0.238439
C	-1.0625058253	 2.2283906697	 0.9129048813	-0.28744
C	-0.5952037441	 3.6505619331	 0.5408422579	-0.073042
C	 0.908383987	 3.5943671128	 0.8915442171	-0.23862
C	 1.2248131282	 2.3547848786	 0.0629931038	-0.073524
N	 0.3383080477	 2.3141757108	-1.1182005649	-0.148435
C	-0.5224382289	 3.5202223829	-0.9917829205	-0.158617
H	-2.0811241952	 2.0045714166	 0.5850536452	 0.121821
H	-0.975347724	 2.0054701754	 1.9796713642	 0.120575
H	-1.1700656676	 4.4788077332	 0.9499477128	 0.08361
H	 1.4615998692	 4.4757141008	 0.5536789047	 0.11414
H	 1.1001134273	 3.4451638536	 1.9579867867	 0.114638
H	 2.2186671936	 1.9411251198	-0.0510665518	 0.115971
H	-1.4891639578	 3.3384643744	-1.4685275733	 0.117094
H	-0.0337993311	 4.3655865843	-1.484326233	 0.11553
146.0444	165.5898	410.5736	420.1304	435.7383	506.1585	545.0317	571.1787	675.5285	690.2165	813.0419	845.3395	897.0513	911.5613	924.6875	928.666	938.4127	953.5197	975.2069	1048.8093	1056.6053	1080.7555	1143.8579	1155.623	1168.8798	1213.8633	1222.5251	1252.9875	1275.1417	1294.593	1304.6427	1323.59	1386.9457	1483.1404	1489.0411	1515.5819	2358.6151	3057.7312	3061.8917	3066.8544	3105.5537	3113.2558	3116.4415	3144.8487	3203.5775
N#CC12CC3CC1N2C3	N#C[C@@]12C[C@H]3C[C@@H]1N2C3	
InChI=1S/C7H8N2/c8-4-7-2-5-1-6(7)9(7)3-5/h5-6H,1-3H2	InChI=1S/C7H8N2/c8-4-7-2-5-1-6(7)9(7)3-5/h5-6H,1-3H2/t5-,6+,7+,9?/m1/s1
