18
gdb 117459	6.26244	0.60952	0.59476	4.1727	71.71	-0.2564	-0.0301	0.2264	1872.0313	0.144694	-476.273009	-476.262573	-476.261628	-476.311592	34.7	
C	 0.1433911129	 1.0697806158	-0.443558034	-0.37157
C	-0.3018944085	 0.1344213773	 0.6828736155	-0.145774
N	-1.5839964158	-0.5028705197	 0.4284942154	-0.356741
C	-1.6836470348	-1.7714398377	-0.0352214052	 0.524467
O	-0.7691902651	-2.5464534916	-0.2052247168	-0.406166
O	-3.0019037887	-2.0630297761	-0.27777316	-0.279614
C	-3.2768257226	-3.3754802982	-0.7554312383	-0.169738
C	-4.0630048882	-4.1533372911	 0.2841142596	 0.144398
O	-4.7357861348	-5.1148280824	 0.026106282	-0.230046
H	 1.1050645212	 1.5309206436	-0.1974099246	 0.122736
H	 0.2561667603	 0.5177357558	-1.3809476603	 0.135811
H	-0.5832531566	 1.8734021342	-0.6043592126	 0.114322
H	 0.4214543743	-0.6724465936	 0.8171451383	 0.150484
H	-0.3672305667	 0.6822365073	 1.6298206837	 0.111067
H	-2.4282453414	 0.0460609863	 0.4450494107	 0.254376
H	-3.8537335301	-3.3036609205	-1.6815739788	 0.139952
H	-2.3336407919	-3.8978256279	-0.9545629091	 0.173498
H	-3.9512295735	-3.7604488515	 1.3202275146	 0.088538
19.2801	32.4342	65.8906	80.5014	91.8665	196.9455	267.1207	331.6124	345.0921	371.4053	448.0315	480.044	589.7864	674.5451	749.289	772.3974	800.9701	907.9773	949.6457	1045.9583	1058.6525	1101.8893	1119.573	1170.336	1181.8413	1240.9712	1271.4331	1327.0385	1349.5698	1396.574	1408.9166	1413.3905	1448.5826	1481.4596	1492.6002	1502.2862	1550.9158	1821.5429	1843.8389	2883.3809	3036.5352	3043.4259	3047.4414	3100.1448	3108.6602	3117.7393	3128.8661	3644.7716
CCNC(=O)OCC=O	CCNC(=O)OCC=O	
InChI=1S/C5H9NO3/c1-2-6-5(8)9-4-3-7/h3H,2,4H2,1H3,(H,6,8)	InChI=1S/C5H9NO3/c1-2-6-5(8)9-4-3-7/h3H,2,4H2,1H3,(H,6,8)
