17
gdb 50194	3.052	1.28076	1.10694	3.5661	72.56	-0.243	-0.0353	0.2077	1114.0015	0.13471	-421.823872	-421.815836	-421.814891	-421.85739	29.719	
O	-0.7801091343	 1.0967674806	 0.5860860693	-0.242452
C	-0.0021602767	 1.348975735	-0.2994515277	 0.14309
C	 1.3416267537	 2.0025228779	-0.1218133751	-0.078889
C	 1.6339623112	 3.301848574	-0.9477045092	-0.277208
C	 2.1670323842	 3.9864443678	 0.3549383501	-0.146495
C	 1.7099250097	 2.7303406521	 1.1941593031	-0.051776
C	 0.5902474486	 3.5814841615	 1.8642428458	-0.363969
C	 1.0807500768	 4.8038875348	 1.0653244846	 0.405199
O	 0.7656827224	 5.9576830992	 1.0344521808	-0.296457
H	-0.2433785294	 1.0980266945	-1.359794874	 0.080313
H	 2.0882976599	 1.2378868283	-0.3726595547	 0.10905
H	 2.3844852467	 3.1837405449	-1.7300115333	 0.123902
H	 0.7574749258	 3.7867429553	-1.386218806	 0.124529
H	 3.179983274	 4.3872672355	 0.3202163727	 0.095241
H	 2.3773591084	 2.2081589157	 1.8771064032	 0.083916
H	-0.4435600306	 3.2705968762	 1.7085815795	 0.154659
H	 0.7436487196	 3.7227485466	 2.939280181	 0.137345
44.8223	90.6872	167.0153	202.2274	297.138	351.5911	436.8127	504.7277	557.1526	683.1325	716.8887	738.1262	791.381	849.5794	882.427	903.4299	954.8082	961.8172	1009.9342	1039.7516	1061.9812	1086.3397	1113.3799	1125.9675	1155.9037	1191.0754	1223.5498	1239.9055	1251.2555	1271.1735	1312.228	1336.7513	1421.4936	1439.4255	1491.0722	1821.9427	1888.5871	2851.0366	3028.3576	3064.1212	3065.9605	3113.3397	3125.2426	3130.3477	3137.1763
O=CC1CC2C1CC2=O	O=C[C@H]1C[C@@H]2[C@H]1CC2=O	
InChI=1S/C7H8O2/c8-3-4-1-6-5(4)2-7(6)9/h3-6H,1-2H2	InChI=1S/C7H8O2/c8-3-4-1-6-5(4)2-7(6)9/h3-6H,1-2H2/t4-,5+,6-/m1/s1
