23
gdb 111857	2.18907	1.50986	1.18826	0.9518	85.84	-0.2323	0.0807	0.3129	1205.4999	0.20615	-388.287431	-388.278045	-388.277101	-388.321248	35.707	
C	 0.2605994977	 1.0014267329	-0.384558599	-0.235516
O	 0.0230508156	-0.1079242718	 0.4584569084	-0.238773
C	-1.2551159511	-0.6430990281	 0.2948710055	 0.087872
C	-1.5755991693	-1.6960210995	-0.7466913547	-0.133858
C	-0.4307064795	-2.4309730966	-1.4320861729	-0.218183
C	 0.5215821209	-2.8823660649	-0.2980709074	-0.214347
C	-0.3557522139	-2.9665344451	 0.9717174425	-0.252739
C	-1.5517335398	-2.0423674405	 0.7448245442	 0.270431
C	-2.8026678421	-2.3088510964	 1.5511475289	-0.480032
H	 1.2778975621	 1.3472222074	-0.1860082751	 0.124842
H	 0.1697034582	 0.7354209008	-1.4471600838	 0.111655
H	-0.4412462876	 1.8233536512	-0.1741344908	 0.105197
H	-2.0467815348	 0.0883551935	 0.4774251465	 0.073421
H	-2.5167403266	-1.6012494814	-1.2809137357	 0.072025
H	-0.8434338518	-3.2982725272	-1.961437516	 0.096387
H	 0.0868043831	-1.8227150307	-2.1822540771	 0.094201
H	 1.0066740489	-3.8359406578	-0.5257638678	 0.086322
H	 1.3051463431	-2.1382888219	-0.1542225687	 0.117419
H	-0.7393797757	-3.9850697503	 1.1119319315	 0.09096
H	 0.2058962659	-2.7096925081	 1.8761274086	 0.101097
H	-2.6169813036	-2.1865209134	 2.6250279772	 0.118023
H	-3.6125267994	-1.6254300229	 1.2766564782	 0.110912
H	-3.1624939701	-3.332415659	 1.3920007575	 0.112684
96.9622	136.9464	166.2793	195.4518	205.7038	222.0202	257.9034	290.8481	348.3368	498.6011	532.8748	563.477	669.1848	734.4745	791.1447	846.8181	860.0128	892.553	913.0061	961.1871	1000.5737	1007.2337	1042.9255	1068.4122	1080.4187	1101.8212	1123.2521	1148.0475	1182.038	1188.1076	1200.6596	1235.7217	1260.0832	1261.714	1297.3261	1319.5065	1339.476	1350.8267	1367.1885	1414.9941	1447.7817	1483.5817	1484.0642	1485.8364	1489.2227	1492.9365	1499.8805	1509.8542	1516.6696	2979.9221	3018.1757	3024.643	3028.0182	3032.5938	3060.9892	3061.7853	3066.1353	3069.0306	3077.8915	3094.7551	3115.7806	3130.0541	3145.8811
COC1C2CCCC12C	CO[C@H]1[C@H]2CCC[C@@]12C	
InChI=1S/C8H14O/c1-8-5-3-4-6(8)7(8)9-2/h6-7H,3-5H2,1-2H3	InChI=1S/C8H14O/c1-8-5-3-4-6(8)7(8)9-2/h6-7H,3-5H2,1-2H3/t6-,7+,8-/m1/s1
