23
gdb 52650	2.52565	0.95665	0.8312	1.2402	90.77	-0.2396	0.0549	0.2945	1554.0482	0.200983	-388.278705	-388.26671	-388.265765	-388.316541	42.892	
C	 0.0413612137	 1.4944139826	 0.13575142	-0.499879
C	 0.009104355	 0.0408165203	 0.0521157549	 0.073416
C	 0.0004292201	-1.1615477066	-0.0185306894	 0.085987
C	-0.0614750849	-2.6222068002	-0.087700533	-0.204948
C	-1.5274564861	-3.1006532183	-0.0114711605	-0.402679
C	 0.7397303815	-3.1784094114	-1.3137730791	 0.365806
C	 0.8055084333	-4.7128370008	-1.2711889826	-0.425954
C	 0.172086541	-2.6926926778	-2.6480713402	-0.397744
O	 2.0696775461	-2.6553738439	-1.2693025446	-0.456303
H	 0.8548599295	 1.9089419425	-0.4700032961	 0.149133
H	-0.8953606934	 1.9375001373	-0.2206020629	 0.144258
H	 0.1935381218	 1.8313581933	 1.1673865776	 0.144193
H	 0.4533832294	-3.0221386126	 0.8010944171	 0.082467
H	-1.5904734261	-4.1912850944	 0.0252721071	 0.114761
H	-2.0007425188	-2.703201472	 0.8899277853	 0.125405
H	-2.1020995065	-2.7457656446	-0.8710214833	 0.12828
H	-0.1703680971	-5.1787702368	-1.4328186738	 0.116635
H	 1.4855103287	-5.0630165526	-2.0524267182	 0.122781
H	 1.1905786064	-5.0626845599	-0.3054662154	 0.099786
H	 0.1066157991	-1.6023986496	-2.6572287268	 0.132605
H	 0.8347246421	-3.0063898507	-3.4591903407	 0.11972
H	-0.820957738	-3.1093728756	-2.8352584581	 0.10985
H	 2.4449358432	-2.8643053983	-0.4069026474	 0.272426
30.2944	52.5134	85.9842	136.2082	197.0343	233.8743	240.0362	255.2045	266.492	278.7831	310.093	321.4335	364.3979	406.9889	439.9524	450.3897	544.445	560.2043	719.0562	769.3885	885.6252	929.7467	962.7953	983.4116	1011.4232	1052.6547	1053.7749	1066.2286	1089.5237	1138.529	1179.0163	1211.3725	1220.5787	1299.9837	1338.2341	1377.8532	1399.7132	1409.2265	1414.8548	1422.6747	1478.124	1479.2293	1479.7398	1484.8632	1492.8359	1502.4863	1505.8946	1507.4957	2368.0459	2965.2103	3024.7789	3027.4309	3048.4852	3051.7315	3083.5982	3085.7707	3097.9575	3116.8396	3120.7264	3126.2431	3128.3495	3134.0445	3801.5938
CC#CC(C)C(C)(C)O	CC#C[C@@H](C)C(C)(C)O	
InChI=1S/C8H14O/c1-5-6-7(2)8(3,4)9/h7,9H,1-4H3	InChI=1S/C8H14O/c1-5-6-7(2)8(3,4)9/h7,9H,1-4H3/t7-/m1/s1
