17
gdb 69481	4.63591	0.83193	0.79489	5.1608	71.29	-0.2682	0.0091	0.2773	1428.1547	0.134071	-458.94625	-458.937635	-458.93669	-458.980747	31.493	
O	-0.2815478333	 1.4593559399	-0.0561984206	-0.458991
C	-0.0954856327	 0.0976149479	 0.0526747155	 0.409902
C	-0.3268313592	-0.8537611725	-1.0837954053	-0.346616
C	-1.1668738834	-0.9787875692	 0.1732744291	-0.144399
C	-0.3396237298	-1.6979899836	 1.2376848052	 0.147972
C	 0.7352578718	-0.5740007647	 1.1587267971	-0.331868
O	-0.9761458003	-1.7148594646	 2.515474051	-0.192859
C	-1.2340483851	-2.9053875471	 3.0887559631	 0.163421
O	-1.7803925335	-3.0095305398	 4.1450932848	-0.275016
H	 0.3583921518	 1.8087799363	-0.6860630273	 0.289484
H	-0.8617878325	-0.4251302905	-1.9253987614	 0.123114
H	 0.4017016469	-1.6180961464	-1.349463187	 0.106563
H	-2.2467147087	-0.9070892962	 0.1625658476	 0.112013
H	-0.0078314416	-2.7111234483	 0.9785127197	 0.084757
H	 1.764065679	-0.8649591877	 0.9225415146	 0.096023
H	 0.7143735807	 0.0076232508	 2.0820046451	 0.138902
H	-0.88127998	-3.7607057141	 2.4793898687	 0.077599
27.957	88.5833	147.1981	236.8408	288.7983	343.1703	354.6325	375.7371	419.5063	448.7031	635.4978	662.12	755.5174	846.7166	882.6969	895.5637	938.0776	990.8592	1017.5437	1032.932	1043.5612	1049.0931	1081.955	1102.2132	1156.5301	1197.893	1219.7841	1226.2213	1259.1066	1286.6398	1313.1547	1382.8343	1407.9395	1440.5237	1472.0649	1504.9131	1866.5007	2943.6088	3024.6067	3050.2273	3097.7147	3131.6217	3198.3123	3207.3043	3797.3923
OC12CC1C(C2)OC=O	O[C@]12C[C@H]1[C@@H](C2)OC=O	
InChI=1S/C6H8O3/c7-3-9-5-2-6(8)1-4(5)6/h3-5,8H,1-2H2	InChI=1S/C6H8O3/c7-3-9-5-2-6(8)1-4(5)6/h3-5,8H,1-2H2/t4-,5+,6-/m0/s1
