17
gdb 13249	7.08106	0.89173	0.84388	2.9089	67.25	-0.2531	0.0167	0.2699	1333.2851	0.141812	-400.965041	-400.95657	-400.955626	-401.000242	28.294	
N	-0.0751810285	 1.2352254596	-0.2617790431	-0.434801
C	-0.0462116593	-0.0183945734	-0.1232601567	 0.130609
O	-1.1967206772	-0.7106566562	-0.0118241161	-0.187304
C	-1.0748091353	-2.1205546546	 0.185727967	-0.090142
C	-2.4689149941	-2.7094057749	 0.1421664344	-0.044234
C	-3.1182390543	-2.7633390689	-1.2572524457	-0.072441
O	-2.9840788466	-4.201210478	-1.3091029655	-0.270071
C	-2.5187322327	-4.2505030768	 0.0529847016	-0.092315
H	 0.8725628091	 1.59840379	-0.3383240163	 0.230336
H	 0.852552281	-0.6501851074	-0.0838003661	 0.085019
H	-0.4505341813	-2.5611742472	-0.6048060765	 0.113823
H	-0.5967877814	-2.3259008125	 1.1539963048	 0.11043
H	-3.0844919813	-2.2603548585	 0.9235767321	 0.096674
H	-4.1680454512	-2.4481629985	-1.2933561114	 0.106921
H	-2.5677800396	-2.2636508795	-2.062605743	 0.112354
H	-1.5589582056	-4.7761924008	 0.144221708	 0.100582
H	-3.2462136018	-4.7276468322	 0.7219111626	 0.10456
29.0135	60.6054	75.6943	134.8262	156.8187	313.0963	340.3368	450.1541	631.8613	801.4913	823.2039	875.5605	886.6437	924.4916	970.6463	1001.1138	1037.9278	1045.6776	1071.5479	1117.0708	1138.889	1153.7162	1160.991	1198.2199	1241.5751	1283.637	1298.1794	1310.1536	1351.429	1390.4781	1412.5241	1434.2386	1509.1177	1517.2939	1540.2434	1750.6598	2990.649	3005.5223	3019.8872	3023.5302	3036.2973	3046.2385	3066.6584	3101.113	3519.2845
N=COCC1COC1	[NH][CH]OCC1COC1	
InChI=1S/C5H9NO2/c6-4-8-3-5-1-7-2-5/h4-6H,1-3H2	InChI=1S/C5H9NO2/c6-4-8-3-5-1-7-2-5/h4-6H,1-3H2
