15
gdb 5773	6.14253	1.398	1.23048	2.9397	69.06	-0.2004	0.0306	0.231	960.939	0.120579	-362.671149	-362.664319	-362.663375	-362.702821	25.555	
C	 0.196056149	 1.5598530113	 0.0547376426	-0.172992
O	 1.1429150313	 0.5317329162	-0.2317740174	-0.224716
C	-0.1958889176	 0.135978924	 0.0734023495	-0.042115
C	-0.3922525276	-0.6222302735	 1.3218766206	 0.319435
C	 0.3961860714	-0.7339908015	 2.4476279118	-0.225338
C	-0.280437383	-1.585609313	 3.3621507315	-0.139613
C	-1.4613832972	-1.9717640581	 2.7715564447	-0.095002
N	-1.5173895637	-1.3854808269	 1.5320161517	-0.311497
H	 0.3369611949	 2.0733069825	 1.0041501154	 0.120156
H	-0.0809946335	 2.1905292229	-0.7900203085	 0.113264
H	-0.7598813795	-0.2321595115	-0.7872739643	 0.084654
H	 1.3611848297	-0.2694998466	 2.576178773	 0.10444
H	 0.0653347013	-1.8886047882	 4.3384602755	 0.094246
H	-2.2566927228	-2.611002536	 3.1193061983	 0.116671
H	-2.2746302629	-1.4867250217	 0.8785558159	 0.258409
47.9248	162.3553	179.1941	396.1243	431.7655	474.8063	627.6885	658.8048	680.4066	715.1787	802.5412	853.127	859.8965	880.995	902.4695	967.8573	1018.4591	1050.0789	1092.0032	1120.12	1137.0939	1152.7285	1167.2335	1239.4796	1268.6485	1292.1318	1405.7268	1448.7929	1480.0306	1495.0125	1523.431	1615.3008	3072.729	3079.3831	3173.6252	3245.5041	3261.0133	3272.9593	3675.6375
C1OC1C1=CC=CN1	C1O[C@H]1c1ccc[nH]1	
InChI=1S/C6H7NO/c1-2-5(7-3-1)6-4-8-6/h1-3,6-7H,4H2	InChI=1S/C6H7NO/c1-2-5(7-3-1)6-4-8-6/h1-3,6-7H,4H2/t6-/m1/s1
