20
gdb 86747	3.46049	1.16472	1.0251	2.9083	80.28	-0.234	0.0096	0.2436	1239.6756	0.171656	-403.12664	-403.118108	-403.117164	-403.160243	32.298	
C	 0.4938396655	 1.5200048626	-0.2961388208	-0.389113
C	 0.03049821	 0.0633806358	-0.2560353511	 0.088262
O	 0.8554803531	-0.7399919799	-1.1175165842	-0.295355
C	 1.4895646748	-1.7924172078	-0.3871144272	 0.033368
C	 0.9899028285	-1.626226977	 1.0243960371	-0.091544
C	 0.1560232464	-0.5963909436	 1.0919526131	-0.099225
C	 1.1642810741	-3.1477362637	-1.0044662025	 0.011663
C	-0.1759129556	-3.42010157	-1.5677581378	-0.236322
N	 0.9926398294	-3.2581113086	-2.4574927655	-0.329744
H	 1.5157703152	 1.6086077986	 0.0836953397	 0.122414
H	 0.4682353831	 1.895333059	-1.3229621623	 0.126989
H	-0.1626153434	 2.1478731087	 0.3156846473	 0.113163
H	-1.0062307507	 0.0141497871	-0.6264271689	 0.0846
H	 2.5824181848	-1.6511093233	-0.4437563921	 0.088818
H	 1.2861599765	-2.282138163	 1.8330626788	 0.109888
H	-0.3713397418	-0.2409727731	 1.9683500762	 0.107576
H	 1.7262275603	-3.9681608384	-0.5601399344	 0.086174
H	-0.5913729554	-4.4229939494	-1.5298850361	 0.112371
H	-0.9060297289	-2.6169038784	-1.5369932603	 0.115266
H	 0.964006274	-2.3131403057	-2.8377773794	 0.24075
70.0121	85.0457	153.2472	215.8106	234.2612	295.6618	369.0057	422.8703	515.0727	583.9056	722.8947	750.9169	803.9642	815.3375	842.5728	873.3113	888.703	941.2174	958.8557	967.9923	1001.8895	1016.7498	1035.5585	1083.4766	1100.4094	1117.4325	1128.7389	1137.1213	1158.4929	1205.4606	1277.9872	1289.6297	1309.7576	1341.5944	1345.2975	1366.5983	1379.554	1401.8739	1419.3834	1486.1215	1494.5258	1502.9889	1691.333	2953.0833	2967.9173	3037.6696	3111.2053	3113.2397	3118.1196	3122.428	3202.2397	3205.4609	3230.156	3484.1341
CC1OC(C=C1)C1CN1	C[C@H]1O[C@@H](C=C1)[C@H]1CN1	
InChI=1S/C7H11NO/c1-5-2-3-7(9-5)6-4-8-6/h2-3,5-8H,4H2,1H3	InChI=1S/C7H11NO/c1-5-2-3-7(9-5)6-4-8-6/h2-3,5-8H,4H2,1H3/t5-,6-,7+/m1/s1
