19
gdb 67293	3.10434	1.61426	1.34064	1.7867	80.51	-0.2269	0.0669	0.2938	1016.5797	0.159699	-381.940538	-381.932922	-381.931978	-381.972196	30.599	
C	-0.0522450921	 1.4955252655	 0.0494257775	-0.530292
C	-0.0604215709	-0.0001998552	-0.0406813778	 0.245392
C	 0.8237638294	-0.952276674	-0.9282068845	-0.100321
C	 1.9140926622	-0.9078943879	 0.133159615	-0.200856
N	 0.669504875	-0.9016585127	 1.0189872748	-0.191822
C	-0.0181423511	-1.8713808481	 0.009402895	-0.104215
C	-1.231181965	-0.9712077792	-0.0569305097	 0.392004
C	-2.56603421	-0.9566604405	 0.5529672249	-0.325524
N	-2.3877655503	-1.0743375042	-0.9247432495	-0.398987
H	 0.9693951307	 1.8876804584	 0.0726620494	 0.132193
H	-0.5604657379	 1.9393059326	-0.8140097095	 0.122641
H	-0.5638452589	 1.8275576727	 0.9585145497	 0.136025
H	 0.8840665332	-0.9848360787	-2.0210416711	 0.070335
H	 2.535517771	-1.798784897	 0.2696609953	 0.101357
H	 2.5255232935	-0.0042357895	 0.2236139027	 0.098476
H	 0.0640555221	-2.9505739187	 0.1370525484	 0.085723
H	-2.9675516871	-1.8456620222	 1.0309482798	 0.124711
H	-2.9388405529	-0.0180406977	 0.9557514689	 0.113445
H	-2.5855457608	-0.1804763537	-1.3699092891	 0.229714
153.8944	191.7059	200.6263	231.3882	302.4201	337.2551	498.2897	521.5051	590.5976	639.3138	696.5978	796.1818	832.1072	841.8443	863.4292	901.7225	910.6246	929.4853	961.9592	969.2656	1024.6953	1038.877	1068.2321	1086.2782	1100.0342	1117.0265	1135.8153	1164.71	1173.1233	1208.9021	1241.7656	1255.9196	1272.5661	1276.0337	1330.8606	1409.7798	1462.5834	1483.062	1488.1588	1525.9121	1537.099	3031.6974	3036.5972	3052.3035	3094.0272	3098.575	3106.6636	3108.0578	3123.7733	3191.6594	3484.7205
CC12C3CN1C3C21CN1	C[C@@]12[C@H]3CN1[C@H]3[C@]12CN1	
InChI=1S/C7H10N2/c1-6-4-2-9(6)5(4)7(6)3-8-7/h4-5,8H,2-3H2,1H3	InChI=1S/C7H10N2/c1-6-4-2-9(6)5(4)7(6)3-8-7/h4-5,8H,2-3H2,1H3/t4-,5+,6-,7-/m0/s1
