18
gdb 110430	2.67615	1.52096	1.17168	3.1132	74.91	-0.2472	-0.0149	0.2324	1095.5546	0.147914	-401.910303	-401.902436	-401.901491	-401.94314	29.923	
C	 0.115206229	 1.5334519039	-0.1130223856	-0.380971
C	-0.0155729248	 0.0079587556	-0.0407760404	-0.219921
C	 0.728889124	-0.591662467	 1.14671693	 0.019058
C	 0.9033228758	-2.0988504275	 1.3242960729	-0.062488
C	 2.0930440911	-2.5821822307	 0.5427578315	-0.192008
N	 2.2456596139	-1.9725943163	 1.9415626477	-0.1537
C	 2.2787010907	-0.5845201198	 1.1997813942	-0.158505
C	 2.7298901633	-1.3630539305	-0.0387804415	 0.471193
O	 3.4696508017	-1.1427447195	-0.9542883298	-0.336773
H	 1.1598911765	 1.835992434	-0.2405216189	 0.129092
H	-0.4510223542	 1.9371434186	-0.9571017505	 0.120914
H	-0.2613329628	 2.0082750422	 0.7997771426	 0.116791
H	-1.0745373817	-0.269801215	 0.0358555451	 0.102482
H	 0.3534103601	-0.4385010614	-0.9718551162	 0.113319
H	 0.3428066389	-0.1839978653	 2.0883616263	 0.093335
H	 0.1820479446	-2.8174842209	 1.7004772962	 0.107823
H	 2.2836283399	-3.62895507	 0.3446294035	 0.123601
H	 2.862866644	 0.2398742397	 1.6000859729	 0.106759
63.6991	130.787	162.8065	221.9026	282.1964	393.749	435.1961	535.4823	616.4766	700.5196	725.7443	754.4887	794.079	827.1569	830.615	898.132	942.2624	949.9317	997.1606	1028.175	1035.5085	1062.0394	1092.3371	1099.3477	1141.4906	1155.6557	1178.413	1188.4554	1264.2244	1287.4115	1309.9502	1342.7366	1354.9433	1403.839	1415.7699	1484.6056	1501.7646	1505.9764	1891.4825	3024.8731	3033.9299	3040.6363	3062.7973	3101.6462	3111.2298	3164.808	3166.7067	3213.5177
CCC1C2C3N2C1C3=O	CC[C@H]1[C@H]2[C@@H]3N2[C@H]1C3=O	
InChI=1S/C7H9NO/c1-2-3-4-6-7(9)5(3)8(4)6/h3-6H,2H2,1H3	InChI=1S/C7H9NO/c1-2-3-4-6-7(9)5(3)8(4)6/h3-6H,2H2,1H3/t3-,4-,5+,6-,8?/m0/s1
