25
gdb 96347	2.05771	1.56383	1.14476	1.3345	87.86	-0.2555	0.072	0.3275	1230.4202	0.229711	-389.524875	-389.515233	-389.514289	-389.558135	38.996	
C	-0.0239995728	 1.570515433	-0.0367006957	-0.423252
C	 0.0716418684	 0.0409469234	 0.0077948509	 0.051777
C	 0.6586867024	-0.530989627	-1.2949409753	-0.202961
C	 0.6958417733	-2.0645275277	-1.3010491811	-0.196909
C	 1.4421743753	-2.6075986207	-0.0759452925	-0.201012
C	 0.848367952	-2.0343773277	 1.2180656784	-0.231653
C	 0.8158958711	-0.4913535182	 1.2589252662	 0.365053
C	 2.2267219464	 0.0935014193	 1.4267792619	-0.432411
O	 0.0076095237	-0.0754535104	 2.3699161162	-0.477862
H	 0.9450965496	 2.0318800006	-0.2563843167	 0.107199
H	-0.7179925506	 1.8853818824	-0.8231249876	 0.104338
H	-0.3841645778	 1.9648385793	 0.916127907	 0.131124
H	-0.9513613111	-0.3482194769	 0.1097518201	 0.075451
H	 0.0657739443	-0.1651940999	-2.1417213443	 0.090171
H	 1.6732166421	-0.1367872385	-1.4463809757	 0.091078
H	-0.3332509529	-2.4493952084	-1.2943025681	 0.093203
H	 1.1587377904	-2.4299960404	-2.2247741078	 0.087432
H	 1.3948471856	-3.7022093475	-0.0527400272	 0.090991
H	 2.5064826888	-2.3486973964	-0.1491717448	 0.094367
H	-0.1860142175	-2.382081957	 1.3305639875	 0.098877
H	 1.401657606	-2.4060751628	 2.0913140099	 0.073183
H	 2.874737952	-0.1197227525	 0.5722043647	 0.117335
H	 2.1807251565	 1.1763798049	 1.5616371347	 0.12496
H	 2.7069713866	-0.3367732632	 2.3142036146	 0.099761
H	 0.4441551781	-0.3713703578	 3.1759331345	 0.26976
125.1488	181.4385	222.4465	245.1013	271.1108	279.1421	286.2509	320.6743	363.9094	372.2781	440.83	456.2428	476.045	519.0226	565.6492	690.3532	808.4069	842.0796	858.3713	895.8266	925.2678	953.2061	956.7468	991.032	999.1329	1026.4732	1075.4918	1096.6451	1103.6535	1120.7621	1173.5606	1188.3849	1207.1559	1228.2504	1276.6357	1288.0724	1331.8931	1355.9874	1366.9708	1371.613	1378.0015	1381.4732	1396.3004	1408.017	1413.2705	1479.6523	1481.7595	1486.7596	1496.655	1501.1885	1505.5137	1508.275	1515.0544	3001.4585	3009.5186	3011.5604	3015.8772	3021.9053	3032.018	3035.9646	3052.6635	3054.8408	3060.7157	3069.7176	3093.1117	3099.5814	3127.2706	3131.3913	3804.7754
CC1CCCCC1(C)O	C[C@H]1CCCC[C@]1(C)O	
InChI=1S/C8H16O/c1-7-5-3-4-6-8(7,2)9/h7,9H,3-6H2,1-2H3	InChI=1S/C8H16O/c1-7-5-3-4-6-8(7,2)9/h7,9H,3-6H2,1-2H3/t7-,8-/m0/s1
