19
gdb 38777	2.81201	1.97796	1.64441	1.8999	76.66	-0.2449	0.081	0.3259	897.9248	0.162964	-385.853293	-385.846937	-385.845992	-385.883574	27.439	
C	-0.0017588868	 1.5749385645	-0.1204614501	-0.242719
C	 1.528268816	 1.5794865643	-0.0909704799	-0.07364
C	 2.1028747679	 0.8199694591	 1.0866772364	-0.03264
C	 1.4856737792	 0.6552841991	 2.4480708511	 0.02895
O	 0.2801530242	 1.363021974	 2.7746693368	-0.257352
C	 0.206869093	-0.0580901209	 2.5943856889	 0.051691
C	-0.5115793454	-0.5702417806	 1.3639072357	-0.254497
C	 0.023598578	 0.0124690066	 0.0467198667	-0.030629
C	 1.5607468171	 0.0546336022	-0.0945660065	-0.099961
H	-0.5225519866	 2.1602435896	 0.6361201566	 0.119696
H	-0.3713528702	 1.8454154296	-1.1133212303	 0.093172
H	 2.1608187426	 2.2665163325	-0.6410938794	 0.083536
H	 3.1877515766	 0.8715585134	 1.1134541489	 0.081886
H	 2.1985640751	 0.614344953	 3.2716928882	 0.085223
H	 0.014307855	-0.6080417116	 3.516351455	 0.085974
H	-0.4080350231	-1.6640785213	 1.3506450347	 0.099759
H	-1.5855698805	-0.3618385404	 1.4533456494	 0.10842
H	-0.4633017602	-0.4891032274	-0.792087741	 0.073477
H	 2.1658822782	-0.6307880458	-0.6757603313	 0.079655
217.9115	251.5361	351.6085	366.8029	471.0173	489.3536	619.9281	696.2888	726.3253	772.9384	789.2319	816.7128	831.9658	851.8188	884.5384	927.3843	966.3689	976.531	999.1538	1018.9897	1033.0152	1069.6901	1074.1198	1083.981	1092.1828	1131.9781	1153.845	1178.4372	1220.8619	1257.4641	1269.7161	1288.1322	1305.1745	1310.7648	1338.3359	1382.3367	1393.3482	1436.4401	1463.8958	1476.7308	1490.794	3012.7788	3049.4254	3062.5489	3083.0561	3095.4259	3107.472	3140.9414	3148.8163	3170.7279	3184.0975
C1C2C3C4OC4CC1C23	C1[C@H]2[C@H]3[C@H]4O[C@H]4C[C@@H]1[C@@H]23	
InChI=1S/C8H10O/c1-3-2-5-8(9-5)7-4(1)6(3)7/h3-8H,1-2H2	InChI=1S/C8H10O/c1-3-2-5-8(9-5)7-4(1)6(3)7/h3-8H,1-2H2/t3-,4-,5+,6+,7-,8+/m1/s1
