23
gdb 58687	2.54266	1.03492	0.96818	2.6314	85.84	-0.2506	-0.0253	0.2253	1390.3434	0.203088	-388.29299	-388.282488	-388.281544	-388.329092	38.578	
C	 0.443377611	 1.394125141	 0.2810713979	-0.398551
C	-0.0503394032	-0.0242947421	-0.0419606111	-0.027628
C	-1.5848043394	-0.0935317132	-0.044101695	-0.399266
C	 0.560478166	-0.5823402082	-1.3324915855	 0.371814
C	 0.1235084855	 0.1260446038	-2.6229724776	-0.344845
C	 0.9504457497	-0.2517778505	-3.8324871708	 0.136213
O	 0.6403736759	-1.098977508	-4.6319452835	-0.240728
C	 1.958973261	-1.1519830826	-1.2216596384	-0.323966
C	 0.775429152	-2.0747403568	-1.3951802453	-0.31267
H	 1.5368462453	 1.4434370545	 0.2829750085	 0.115
H	 0.0741821378	 2.128641505	-0.4431867431	 0.114433
H	 0.0889837853	 1.7101185365	 1.2675858364	 0.113078
H	 0.3059909951	-0.6814279728	 0.7635098739	 0.071029
H	-2.0170642528	 0.5869859572	-0.7858032836	 0.11596
H	-1.937043142	-1.1048170807	-0.27092566	 0.11814
H	-1.986350893	 0.1934123511	 0.933040554	 0.111896
H	-0.9197539584	-0.1204681891	-2.8439172661	 0.125779
H	 0.204996924	 1.2122394646	-2.4907794585	 0.10666
H	 1.9045142788	 0.3115901163	-3.946856915	 0.080106
H	 2.6521389868	-1.0488114401	-2.0489339904	 0.114429
H	 2.4385953719	-1.1135675109	-0.2489906184	 0.109722
H	 0.4610677843	-2.6687085563	-0.5433541412	 0.109627
H	 0.6545199984	-2.5678933488	-2.353702747	 0.133765
47.6067	59.987	80.8503	196.3438	213.6531	240.7637	252.1565	275.6012	303.285	333.4065	414.9957	481.5277	492.2181	529.7695	650.6661	784.8882	838.9968	867.1063	905.1769	925.3499	942.954	950.0648	966.6625	977.0419	1033.9953	1058.6661	1081.2204	1090.5647	1100.2769	1140.3643	1187.758	1188.8151	1234.0362	1255.329	1288.8992	1338.5712	1348.1057	1394.2969	1397.4511	1418.5711	1430.3426	1474.2162	1476.4686	1486.7813	1494.7729	1504.0096	1510.4975	1511.1985	1824.9058	2868.2472	3003.0436	3026.8764	3028.9959	3034.2962	3087.2349	3094.6752	3099.7262	3103.4713	3105.1826	3130.5842	3133.3072	3207.9629	3220.7299
CC(C)C1(CC=O)CC1	CC(C)C1(CC=O)CC1	
InChI=1S/C8H14O/c1-7(2)8(3-4-8)5-6-9/h6-7H,3-5H2,1-2H3	InChI=1S/C8H14O/c1-7(2)8(3-4-8)5-6-9/h6-7H,3-5H2,1-2H3
