18
gdb 22422	3.50314	1.19497	1.03966	1.003	75.7	-0.2393	0.0183	0.2576	1163.9598	0.147952	-439.034033	-439.026111	-439.025167	-439.066118	31.88	
O	-0.1862881705	 1.3039189667	 0.0342476838	-0.397427
N	-0.0120189735	-0.0974897007	 0.0186030728	-0.290897
C	-1.131987302	-0.6912217224	 0.0035869922	 0.481995
C	-2.5561616768	-0.1565579483	 0.0013343443	-0.381402
C	-3.2726208126	-1.5305863381	-0.028796354	 0.411517
O	-4.6616354178	-1.5544818472	 0.0331231004	-0.481368
C	-2.4793996963	-2.3377973842	 1.0280056252	-0.264339
C	-1.3237221352	-2.1838736381	-0.0202021994	-0.113877
C	-2.4449302195	-2.3080019062	-1.1062594974	-0.295538
H	 0.7237265999	 1.6184438658	 0.0480045984	 0.305002
H	-2.7877703843	 0.4282331995	 0.8967819068	 0.128169
H	-2.7630128195	 0.4654407946	-0.8769980662	 0.114183
H	-5.0093592218	-0.9343448983	-0.6167139647	 0.281039
H	-2.3420144634	-1.8998109924	 2.0199279402	 0.103474
H	-2.8305585812	-3.3687079621	 1.1029481792	 0.110614
H	-0.4375807495	-2.8122731026	-0.0146910455	 0.084214
H	-2.7943082142	-3.3356947172	-1.2226617234	 0.108428
H	-2.2722874519	-1.8404875887	-2.0798454928	 0.096213
112.4681	184.1326	262.8033	278.6986	354.9766	363.6695	415.6332	454.4175	456.6302	536.3406	582.4061	596.8134	689.7569	812.4518	813.2827	825.3647	901.0272	939.0912	953.9784	967.0355	1003.7789	1019.2691	1058.7807	1063.0453	1122.2135	1131.4964	1170.771	1205.4757	1217.2431	1230.1468	1238.5832	1279.1047	1322.3544	1386.7494	1407.1876	1472.214	1485.8328	1528.5605	1785.5373	3043.9976	3057.6513	3066.4169	3092.0987	3128.3572	3134.0216	3163.0466	3807.575	3820.7884
ON=C1CC2(O)CC1C2	ON=C1C[C@]2(O)C[C@H]1C2	
InChI=1S/C6H9NO2/c8-6-1-4(2-6)5(3-6)7-9/h4,8-9H,1-3H2	InChI=1S/C6H9NO2/c8-6-1-4(2-6)5(3-6)7-9/h4,8-9H,1-3H2/t4-,6-
