20
gdb 96494	2.49017	1.46664	1.03886	1.5352	75.88	-0.25	0.0038	0.2538	1173.2231	0.172382	-440.2812	-440.272696	-440.271752	-440.31404	32.858	
O	-0.0611403935	 1.4547037763	 0.0073475768	-0.433437
C	 0.0603729256	 0.0347075161	 0.0158137363	 0.117824
C	-1.3742081988	-0.4725312721	 0.2370869543	-0.17425
C	-1.5432384344	-1.9731445261	 0.5440123115	-0.232008
C	-1.7616842065	-2.8577154767	-0.6859214159	-0.077136
O	-0.8227544632	-2.5878029235	-1.7343584379	-0.220988
C	 0.4866616198	-2.7392153921	-1.3735553255	 0.093164
N	 1.2902070362	-1.7880967879	-1.1865298199	-0.215559
C	 0.7595475234	-0.4277430013	-1.2823212908	-0.181736
H	 0.8194071343	 1.8290733953	-0.096945901	 0.282522
H	 0.6803536102	-0.2927281661	 0.866898736	 0.073474
H	-1.7545182853	 0.1067008942	 1.0843547386	 0.111426
H	-1.9844093666	-0.1878346483	-0.6284725066	 0.107388
H	-0.6810880129	-2.3358439908	 1.1164033043	 0.111306
H	-2.4160117348	-2.1185404588	 1.191537562	 0.103463
H	-1.7242664255	-3.9215640684	-0.4075796555	 0.101039
H	-2.7379530583	-2.6603176037	-1.1370906641	 0.121194
H	 0.8201685151	-3.7761283049	-1.2751283993	 0.10945
H	 0.0683373562	-0.3061439335	-2.1237653671	 0.118308
H	 1.6147440991	 0.2372757223	-1.4506180161	 0.084557
117.6846	141.0604	202.1842	255.4902	287.243	301.2577	313.2369	386.0678	416.961	488.5629	514.433	581.1163	702.0999	783.4388	872.4556	891.6337	911.6032	951.0002	988.8577	1004.498	1023.6452	1060.4773	1089.2089	1094.7531	1126.6003	1139.0221	1214.6511	1235.1235	1268.6205	1292.5469	1308.571	1334.4584	1349.1561	1381.5701	1391.7932	1392.7815	1413.4578	1436.8697	1481.1568	1484.8514	1500.3035	1500.7595	1745.8201	2963.9924	2998.3305	3023.7075	3033.5984	3039.1169	3065.6019	3071.2104	3085.32	3096.058	3096.6213	3816.4018
OC1CCCOC=NC1	O[C@H]1CCCOC=NC1	
InChI=1S/C6H11NO2/c8-6-2-1-3-9-5-7-4-6/h5-6,8H,1-4H2/b7-5-	InChI=1S/C6H11NO2/c8-6-2-1-3-9-5-7-4-6/h5-6,8H,1-4H2/b7-5-/t6-/m0/s1
