13
gdb 132471	3.23228	1.40458	0.97911	3.939	67.18	-0.2056	-0.0413	0.1643	1077.642	0.090267	-494.06666	-494.059412	-494.058468	-494.098341	27.929	
O	-0.1364781708	 1.3201785782	 0.0109175808	-0.415022
C	 0.0499673532	-0.0151854593	 0.0024315979	 0.459879
C	 1.2359545903	-0.6829944959	-0.0078692179	-0.223419
N	 1.2529020678	-2.060016077	-0.0156500987	-0.279351
C	 0.1495924203	-2.6921486205	-0.0130668788	 0.260702
F	 0.160280635	-4.0253519582	-0.0205548783	-0.072363
C	-1.1948217867	-2.1058277632	-0.0023443567	 0.260566
N	-2.3339172152	-2.6853385032	 0.000750875	-0.557157
N	-1.1202906472	-0.7120877561	 0.0050217468	-0.371767
H	 0.7216898188	 1.7583253795	 0.0086319542	 0.319236
H	 2.1872845567	-0.1673823785	-0.010262048	 0.109039
H	-2.2021695616	-3.6944067406	-0.0056030974	 0.231211
H	-1.9974275906	-0.2094036553	 0.0126975212	 0.278445
123.5288	174.3049	317.6192	353.2544	354.4289	414.7826	441.6977	484.3959	531.5775	608.2866	622.7247	674.6664	719.6157	753.4021	762.2358	785.8206	824.0411	1043.262	1107.6603	1204.7166	1225.0102	1286.1815	1302.955	1369.2643	1400.4282	1555.7347	1622.376	1677.9216	1710.5322	3207.5655	3524.7765	3610.089	3827.808
OC1=CN=C(F)C(=N)N1	OC1=CN=C(F)[C@@H]([NH])N1	
InChI=1S/C4H4FN3O/c5-3-4(6)8-2(9)1-7-3/h1H,(H3,6,8,9)	InChI=1S/C4H5FN3O/c5-3-4(6)8-2(9)1-7-3/h1,4,6,8-9H/t4-/m0/s1
