16
gdb 126454	4.76355	1.05204	0.87093	4.3955	76.96	-0.2538	-0.0931	0.1607	1297.8868	0.123722	-434.044844	-434.036541	-434.035597	-434.07908	30.043	
C	-0.0451128047	 1.5537051531	-0.0404695874	-0.378661
C	 0.0375248603	 0.0311106288	 0.0614062834	-0.278424
C	 0.7617408447	-0.4888310424	 1.2753288737	 0.322195
N	 1.2470257129	 0.3487868279	 2.1210457517	-0.112692
O	 1.9052314536	-0.1832766631	 3.2220580796	-0.276906
C	 2.0486921914	-1.561154516	 3.4265386173	 0.454843
N	 2.6593962479	-1.9849216713	 4.4483656744	-0.499889
N	 1.5095600751	-2.4393560017	 2.4892229199	-0.235155
C	 0.9072316063	-1.92625068	 1.4833806432	-0.02161
H	 0.9514291374	 2.0006654242	-0.073669711	 0.139517
H	-0.5846282809	 1.8388649393	-0.9473075874	 0.117404
H	-0.5652099435	 1.9782694038	 0.8216190701	 0.13957
H	-0.9704076313	-0.407450928	 0.0597910836	 0.129737
H	 0.5323812548	-0.3853348496	-0.8273757935	 0.129694
H	 2.9831975298	-1.2026012731	 5.0182725198	 0.235281
H	 0.4816876862	-2.6045667518	 0.7423632229	 0.135096
25.8751	74.0078	182.4557	212.0715	301.0738	329.6624	373.3597	453.2772	531.6885	548.6074	631.9229	738.1058	755.3055	800.7325	814.171	872.5393	907.8697	979.5518	986.785	1019.0913	1046.1234	1103.7619	1106.7766	1223.292	1268.8869	1286.3459	1381.6679	1419.2909	1430.0721	1467.4623	1493.5202	1500.5664	1622.3435	1707.1052	1733.1845	3011.2217	3035.6224	3054.9501	3122.1492	3128.3063	3131.7253	3495.
CCC1=NOC(=N)N=C1	CCC1=NOC(=N[CH]1)[NH]	
InChI=1S/C5H7N3O/c1-2-4-3-7-5(6)9-8-4/h3,6H,2H2,1H3	InChI=1S/C5H7N3O/c1-2-4-3-7-5(6)9-8-4/h3,6H,2H2,1H3
