16
gdb 18908	3.39202	2.73793	2.21652	1.119	66.65	-0.2195	0.0681	0.2876	690.5995	0.131625	-346.524952	-346.519041	-346.518097	-346.554455	24.972	
O	-0.1400927726	 1.4283318873	 0.0145205664	-0.478897
C	-0.0353992532	 0.0574445458	 0.0064637766	 0.422992
C	-1.2706853427	-0.8800837368	 0.0480971166	-0.156863
C	-0.3848093718	-1.8658424607	 0.7789146033	-0.058333
C	-0.4399852518	-1.8610440805	-0.7507974723	-0.058325
C	 0.6941692114	-0.8575213193	-1.070440382	-0.134422
C	 1.8386628392	-1.1347506692	-0.0647296676	-0.252965
C	 0.7695406235	-0.8639594194	 1.0223672449	-0.134493
H	 0.7451513558	 1.8096233665	-0.0138118666	 0.284232
H	-2.3363460736	-0.7024285576	 0.0871198128	 0.090518
H	-0.6760070306	-2.7183455899	 1.3778905853	 0.084754
H	-0.7738199447	-2.7098350622	-1.3325485469	 0.084753
H	 0.8597607584	-0.5665056608	-2.1073267218	 0.064024
H	 2.3206857382	-2.1165112864	-0.0850791386	 0.09447
H	 2.6040960205	-0.3506236741	-0.0898786625	 0.084554
H	 1.0092984441	-0.5793231429	 2.0464574725	 0.064002
216.6597	275.4559	341.7993	438.0825	543.3382	599.3784	694.5868	751.3308	784.7674	792.4442	815.3496	856.3346	890.237	923.2029	934.9802	952.0585	966.8239	987.418	1000.4793	1025.0378	1035.1943	1078.5402	1081.737	1122.0938	1140.3856	1204.4298	1217.9944	1223.705	1248.8437	1291.2758	1307.3954	1353.1273	1411.7588	1490.7924	3038.263	3095.4114	3120.2921	3123.038	3194.4134	3199.1606	3216.4023	3792.7315
OC12C3C4C3C1CC24	O[C@@]12[C@@H]3[C@H]4[C@@H]3[C@@H]1C[C@@H]24	
InChI=1S/C7H8O/c8-7-2-1-3(7)5-4(2)6(5)7/h2-6,8H,1H2	InChI=1S/C7H8O/c8-7-2-1-3(7)5-4(2)6(5)7/h2-6,8H,1H2/t2-,3+,4-,5+,6-,7-
