19
gdb 52554	2.17954	1.00181	0.73137	3.5127	85.89	-0.2468	-0.0454	0.2013	1582.4891	0.156791	-385.869971	-385.859703	-385.858759	-385.908365	35.042	
C	 0.5096898868	 0.6870971263	-1.0387633054	-0.50132
C	 0.2248650325	-0.5803904792	-0.388329569	 0.02832
C	-0.0282985926	-1.6316342127	 0.1488833012	 0.084342
C	-0.3390884533	-2.8783382061	 0.8216449558	 0.224822
O	-1.458995403	-3.1256959895	 1.2189757049	-0.288018
C	 0.812503073	-3.8653095365	 0.9714078846	-0.317635
C	 1.0362921037	-4.6435283831	-0.3156015276	 0.030715
C	 1.9014914707	-4.0864562499	-1.4183043215	-0.249212
C	 2.3804336745	-5.2630016802	-0.605272601	-0.276599
H	 1.5705140673	 0.9480696023	-0.9641832823	 0.156176
H	 0.2507623765	 0.6390065601	-2.1023536174	 0.163236
H	-0.0746163809	 1.4985187384	-0.5921109263	 0.162769
H	 1.7282636012	-3.3260383417	 1.2394173129	 0.105169
H	 0.5517184428	-4.5459697389	 1.7879650253	 0.121642
H	 0.1687341223	-5.2158377293	-0.6320365171	 0.098394
H	 1.5975270893	-4.256343587	-2.4450484502	 0.114125
H	 2.3760099514	-3.1258260752	-1.250757987	 0.11579
H	 3.1793649764	-5.0950808824	 0.1096315764	 0.112215
H	 2.4028275414	-6.2412550452	-1.0724876163	 0.115068
17.8078	27.8173	60.9445	116.6614	121.563	178.0726	292.295	319.879	361.6013	396.9196	427.9645	587.7969	640.201	743.5409	776.6041	818.1316	842.1964	913.9662	935.8056	992.6718	1024.8974	1044.8515	1054.6052	1057.8744	1077.8781	1112.8961	1143.3192	1197.8511	1211.019	1231.9779	1287.4731	1302.9878	1398.5714	1410.233	1464.0357	1469.8446	1472.5947	1474.67	1506.3546	1759.4899	2336.1921	3031.6611	3036.8987	3093.8575	3094.6528	3098.64	3131.4484	3138.6672	3148.6709	3210.5414	3226.3816
CC#CC(=O)CC1CC1	CC#CC(=O)CC1CC1	
InChI=1S/C8H10O/c1-2-3-8(9)6-7-4-5-7/h7H,4-6H2,1H3	InChI=1S/C8H10O/c1-2-3-8(9)6-7-4-5-7/h7H,4-6H2,1H3
