17
gdb 56779	3.06591	1.28648	1.05158	1.993	73.59	-0.2637	0.0311	0.2947	1156.7658	0.133933	-421.744825	-421.736279	-421.735335	-421.778071	32.514	
O	-0.1497822506	 1.3943368475	 0.1231319115	-0.408934
C	-0.0401859947	-0.0056479368	-0.0477348882	-0.19469
C	 0.7454472505	-0.3749161481	-1.2363395489	 0.318449
C	 1.4043639541	-0.6795122554	-2.1939320555	-0.456117
C	 0.556843522	-0.6344478654	 1.1912105746	 0.434359
C	 0.765095632	-2.1081547591	 1.5658395301	-0.303411
C	 0.6707327838	-1.6782383082	 3.0751269172	-0.236885
C	 0.4651210283	-0.2324239324	 2.6031385824	-0.053688
O	 1.6200260301	 0.1100007836	 1.8080317966	-0.296834
H	 0.7008361368	 1.6772179931	 0.4871731509	 0.294889
H	-1.0643411242	-0.3795612825	-0.1728575701	 0.124407
H	 1.9796627903	-0.9412335861	-3.0476983824	 0.201441
H	-0.0633650854	-2.7521814808	 1.2616859756	 0.113168
H	 1.708453853	-2.5385004989	 1.2253989054	 0.120555
H	-0.2049275491	-2.0958627015	 3.5768511808	 0.111688
H	 1.5585424866	-1.839801013	 3.690072188	 0.117732
H	-0.0644224435	 0.5871563639	 3.0735559419	 0.113872
73.736	107.6672	192.1426	216.4498	247.4517	349.6164	372.7161	443.7442	483.3523	509.316	585.4604	636.4617	673.4384	724.8107	768.6306	783.7195	887.0686	908.281	923.1845	941.1018	966.0789	1037.6804	1053.7021	1071.159	1133.802	1178.5857	1210.0844	1218.1798	1244.4095	1270.8317	1289.8921	1324.9867	1429.9814	1445.7746	1464.398	1490.5844	2233.863	3034.2222	3069.8112	3076.9088	3123.0052	3138.763	3197.6785	3501.5081	3755.6265
OC(C#C)C12CCC1O2	O[C@@H](C#C)[C@]12CC[C@H]1O2	
InChI=1S/C7H8O2/c1-2-5(8)7-4-3-6(7)9-7/h1,5-6,8H,3-4H2	InChI=1S/C7H8O2/c1-2-5(8)7-4-3-6(7)9-7/h1,5-6,8H,3-4H2/t5-,6+,7+/m0/s1
