21
gdb 57290	3.61813	0.68671	0.68399	1.9718	90.28	-0.2356	0.0411	0.2767	1798.1487	0.179554	-387.05622	-387.045609	-387.044664	-387.092854	38.81	
C	 0.050587312	 1.5489083561	 0.0616251379	-0.382392
C	-0.0031039446	 0.016009057	 0.0040650444	 0.176009
C	 0.6480796407	-0.6033523695	 1.255740272	-0.39562
O	-1.4010432712	-0.3084310693	-0.025065739	-0.444227
C	 0.6644620679	-0.4859962759	-1.2068933278	 0.110652
C	 1.1992490677	-0.9309958145	-2.1929212379	-0.000368
C	 1.8303416069	-1.4426395166	-3.3746453263	-0.155484
C	 3.2846888362	-1.8881346425	-3.3345771987	-0.250709
C	 2.201334859	-2.9149948478	-3.4721615734	-0.251924
H	 1.0847851311	 1.8972600185	 0.1135447549	 0.11832
H	-0.4222675229	 1.9733076498	-0.8264561762	 0.129007
H	-0.4897923798	 1.8971306974	 0.9467240835	 0.119483
H	 0.12349855	-0.2512857205	 2.1485584314	 0.12006
H	 0.5835706716	-1.6952293146	 1.2200899183	 0.10963
H	 1.7042726855	-0.3282551126	 1.3286183554	 0.11927
H	-1.4743423618	-1.2410267714	-0.2545222981	 0.278316
H	 1.5088628055	-0.9782868331	-4.3025279545	 0.111168
H	 3.8965606301	-1.6582559464	-4.1994702556	 0.11944
H	 3.796297212	-1.8104252583	-2.3828518903	 0.12619
H	 1.9762707309	-3.5365263258	-2.6138095523	 0.124032
H	 2.0616049131	-3.39853143	-4.4323794177	 0.119146
25.0144	79.2785	88.0613	184.8339	201.6294	217.2962	262.3157	285.4334	327.5967	356.8969	389.2019	478.1893	493.9108	563.4516	576.6463	635.4812	783.139	822.6016	823.5085	894.2789	896.698	927.4392	954.1356	1015.0433	1021.1383	1062.0141	1079.791	1118.985	1124.9183	1150.5559	1189.4159	1201.8069	1213.4745	1258.0222	1364.8614	1389.216	1393.8823	1410.5931	1467.4055	1474.8884	1478.685	1492.2	1497.295	1503.2214	2348.9717	3036.5749	3049.4097	3111.5401	3119.4316	3127.6112	3138.3686	3141.0141	3142.8737	3147.6088	3225.542	3240.6035	3811.0519
CC(C)(O)C#CC1CC1	CC(C)(O)C#CC1CC1	
InChI=1S/C8H12O/c1-8(2,9)6-5-7-3-4-7/h7,9H,3-4H2,1-2H3	InChI=1S/C8H12O/c1-8(2,9)6-5-7-3-4-7/h7,9H,3-4H2,1-2H3
