20
gdb 102188	2.98346	1.03651	0.84159	3.5061	79.88	-0.2642	0.0326	0.2968	1394.5484	0.169528	-403.140326	-403.130344	-403.1294	-403.176239	35.24	
C	 1.0324062434	 1.3089104843	 0.3171069232	-0.253379
O	 0.0943988554	 0.3703584385	-0.1836637255	-0.250587
C	 0.5702367235	-0.4796953516	-1.208826109	 0.083503
C	 0.8283458023	-1.8965115765	-0.6342874751	-0.336732
C	 1.8913650991	-1.9278534338	 0.3661721285	 0.26698
N	 2.7434184547	-1.9400703651	 1.1472442173	-0.316977
C	-0.4559076659	-0.5589469242	-2.3256558694	 0.002483
C	-1.9316519354	-0.5213879712	-2.0144356343	-0.257544
C	-1.2719014559	 0.646506636	-2.7054162291	-0.280943
H	 1.8948881435	 0.8185532016	 0.7834201802	 0.142316
H	 1.3881959778	 1.9826010987	-0.475604104	 0.110472
H	 0.5096364331	 1.8997515045	 1.0728626289	 0.132224
H	 1.5152193341	-0.0892947823	-1.613944466	 0.08876
H	-0.1006780993	-2.2596171567	-0.18336383	 0.161478
H	 1.0915840495	-2.5847653784	-1.4452759308	 0.146105
H	-0.1490860108	-1.2098887668	-3.1401530902	 0.085124
H	-2.5931207372	-1.1609056464	-2.5877217992	 0.110858
H	-2.2174638806	-0.3768750285	-0.979216141	 0.13082
H	-1.1323900501	 1.5455203742	-2.1171678727	 0.123361
H	-1.4747814714	 0.8134272237	-3.7572425917	 0.11168
50.6599	71.2998	87.3748	131.5423	164.1923	218.5837	229.2298	348.4879	358.9098	399.0874	416.0734	564.0714	587.3053	787.7986	809.3668	834.2601	842.6917	908.2619	970.6578	985.5655	1026.3709	1049.7235	1064.7163	1091.0213	1125.9464	1137.4408	1153.9046	1182.7549	1200.3192	1210.1585	1231.9715	1248.7678	1290.6145	1355.743	1394.1956	1403.217	1453.5268	1455.9979	1482.2727	1492.105	1501.9725	1511.3569	2358.4817	2993.5767	3002.6515	3050.1385	3069.7684	3097.749	3122.8527	3139.4732	3140.9262	3146.4464	3224.829	3237.9842
COC(CC#N)C1CC1	CO[C@@H](CC#N)C1CC1	
InChI=1S/C7H11NO/c1-9-7(4-5-8)6-2-3-6/h6-7H,2-4H2,1H3	InChI=1S/C7H11NO/c1-9-7(4-5-8)6-2-3-6/h6-7H,2-4H2,1H3/t7-/m0/s1
