15
gdb 26078	3.32681	1.19423	0.9254	5.0173	71.57	-0.2283	0.0135	0.2418	1195.6182	0.114052	-416.847129	-416.83897	-416.838026	-416.880696	29.949	
O	-0.789619649	 0.8358750575	 0.0099653097	-0.401103
C	 0.0379822693	-0.3143808929	-0.1168300468	-0.148557
C	 0.992267536	-0.1512952516	-1.2396953604	 0.286032
N	 1.7425860421	 0.0000144624	-2.1053573982	-0.339866
C	 0.7595199361	-0.6657234686	 1.1525792866	 0.238096
C	 2.1226249013	-0.7108275379	 1.355165017	-0.158541
N	 2.3361573331	-1.0488420978	 2.6624808921	-0.24981
C	 1.1347684825	-1.2179230565	 3.3063052203	-0.06332
C	 0.1344380923	-0.9872739813	 2.3955989818	-0.251837
H	-0.259713131	 1.5207292416	 0.4351939293	 0.289174
H	-0.6549177596	-1.1171045596	-0.3964003942	 0.140513
H	 2.9381186416	-0.5438317659	 0.6704091092	 0.150956
H	 3.2406552308	-1.1626403941	 3.0856635342	 0.269154
H	 1.0960573451	-1.485034654	 4.3499353243	 0.12917
H	-0.9265800308	-1.0315767616	 2.5860501953	 0.109937
38.3181	122.5765	161.6175	215.032	302.7219	356.8158	419.244	481.4211	507.2197	592.9283	641.4272	657.5889	709.0055	764.0004	809.1576	842.2381	906.049	913.8587	986.2997	1044.1741	1085.4589	1099.6066	1164.5926	1230.5512	1265.596	1298.332	1342.65	1416.9841	1417.6488	1463.3119	1527.1188	1603.5175	2355.103	3044.2564	3252.3763	3270.9643	3274.632	3683.4652	3794.9925
OC(C#N)C1=CNC=C1	O[C@@H](C#N)c1c[nH]cc1	
InChI=1S/C6H6N2O/c7-3-6(9)5-1-2-8-4-5/h1-2,4,6,8-9H	InChI=1S/C6H6N2O/c7-3-6(9)5-1-2-8-4-5/h1-2,4,6,8-9H/t6-/m0/s1
