26
gdb 118843	2.60744	0.8437	0.71947	1.1066	94.57	-0.2181	0.0844	0.3025	1761.9574	0.238396	-369.599258	-369.58793	-369.586986	-369.635926	41.634	
C	-0.3150782477	 1.5834708204	-0.0023196987	-0.381525
C	-0.2942382266	 0.0563575962	-0.113699857	-0.1682
C	 0.8544012681	-0.4561622022	-0.9966971964	-0.241813
C	 0.8713870466	-1.9691244005	-1.1766739245	 0.336715
C	 1.0922023297	-2.7689863502	 0.0949719545	-0.446629
C	 0.0456547928	-2.5713887874	-2.2695157623	-0.293489
N	 1.5032537729	-2.5827462361	-2.354037318	-0.121642
C	 2.1388770435	-1.7832998392	-3.3953274314	-0.112254
C	 2.3832968584	-2.64317803	-4.6343988653	-0.374391
H	 0.6168360486	 1.9618594541	 0.4325944484	 0.114217
H	-0.4330073839	 2.0520060213	-0.9858800011	 0.11299
H	-1.1398732238	 1.9258684908	 0.630403722	 0.111396
H	-0.2155677009	-0.3779124359	 0.8895155238	 0.101084
H	-1.2476494186	-0.297911324	-0.5260406986	 0.097632
H	 0.7835624466	 0.0356278858	-1.9721071866	 0.094002
H	 1.8116890508	-0.137187899	-0.5595847428	 0.092748
H	 0.2622800873	-2.6478603138	 0.798853461	 0.11439
H	 1.1914446692	-3.8301438875	-0.1441512042	 0.123371
H	 2.0110346719	-2.4496251652	 0.6012368726	 0.110775
H	-0.439995585	-3.5360232568	-2.1384143191	 0.104797
H	-0.4931375238	-1.8824274292	-2.9215771788	 0.096684
H	 1.5501695104	-0.8965810051	-3.6835670647	 0.081603
H	 3.0953227315	-1.4170461757	-3.0023420303	 0.099281
H	 2.996179288	-3.5131489511	-4.3830591531	 0.124489
H	 1.4364145618	-3.0064460608	-5.0473629129	 0.116765
H	 2.893297882	-2.0662476692	-5.4123870766	 0.107005
66.846	81.6535	97.0758	117.3478	181.6865	207.6896	229.0757	240.2673	271.7998	307.2193	322.5918	375.2193	439.0965	459.59	565.6806	714.0713	748.6833	759.1461	814.1827	875.5923	894.6939	919.832	934.6006	966.1518	1006.4901	1044.9106	1055.1729	1072.3795	1097.3779	1106.3715	1122.6638	1131.9342	1184.4922	1206.789	1262.5034	1288.6227	1308.7629	1316.4272	1333.8573	1380.9019	1385.1947	1402.5558	1409.1644	1411.4443	1418.0947	1477.7298	1487.8058	1488.9485	1491.942	1493.4925	1497.2705	1498.8106	1507.4769	1511.0462	1521.3603	2954.5859	3005.1623	3026.6102	3028.7673	3029.9529	3037.4671	3043.7672	3056.122	3073.2684	3077.9755	3091.6461	3097.4177	3101.3339	3105.9749	3119.1623	3124.8798	3158.0462
CCCC1(C)CN1CC	CCC[C@@]1(C)CN1CC	
InChI=1S/C8H17N/c1-4-6-8(3)7-9(8)5-2/h4-7H2,1-3H3	InChI=1S/C8H17N/c1-4-6-8(3)7-9(8)5-2/h4-7H2,1-3H3/t8-,9?/m0/s1
