17
gdb 34930	4.82157	0.99175	0.916	2.1174	81.25	-0.2298	0.03	0.2598	1277.7528	0.13548	-380.750379	-380.742461	-380.741517	-380.782723	30.932	
C	-0.0970194525	-1.1031728206	-0.0087897578	-0.380141
C	-0.014626169	 0.0953106898	 0.0309297636	 0.305034
C	 0.0446628136	 1.5282287272	 0.0934963889	-0.237146
C	 0.6058836099	 2.2004976362	 1.3020400566	-0.133287
N	 1.4057440003	 2.1294312746	 0.0240921639	-0.130264
C	 1.1784532787	 3.6151436793	-0.1571132888	-0.241097
C	 0.4351538358	 3.6954389261	 1.1814279143	 0.356447
C	-0.639899532	 4.5651380637	 1.7049908375	-0.311421
N	 0.7501216425	 4.6875961267	 2.1976215524	-0.369967
H	-0.1579107809	-2.1623049578	-0.0534462657	 0.195684
H	-0.7540741296	 2.0437005422	-0.4385969663	 0.113879
H	 0.8845923379	 1.6427326109	 2.1912591735	 0.10998
H	 2.1340207958	 4.1422206482	-0.1367849815	 0.133261
H	 0.6301673928	 3.8694174675	-1.0696604759	 0.111684
H	-0.9894113192	 5.4135556837	 1.1228204284	 0.124574
H	-1.3906118459	 4.1161842461	 2.3510006039	 0.117505
H	 0.8419313518	 4.2490493662	 3.1114644529	 0.235275
107.8342	128.8378	187.6586	271.7964	323.1907	383.397	453.1892	486.448	494.203	575.8646	610.5348	660.4787	784.6897	808.0957	838.8572	872.2057	905.1541	941.5967	962.5641	990.0182	1004.5224	1038.1192	1058.4692	1070.8055	1101.5115	1129.0797	1170.379	1192.4406	1256.1983	1265.0087	1288.8263	1294.7845	1392.8401	1435.1218	1488.0437	1514.9635	2243.4539	3053.6751	3104.0577	3109.8057	3125.3224	3158.994	3190.0627	3491.3326	3504.6085
C#CC1C2N1CC21CN1	C#C[C@H]1[C@H]2N1C[C@]12CN1	
InChI=1S/C7H8N2/c1-2-5-6-7(3-8-7)4-9(5)6/h1,5-6,8H,3-4H2	InChI=1S/C7H8N2/c1-2-5-6-7(3-8-7)4-9(5)6/h1,5-6,8H,3-4H2/t5-,6+,7-,9?/m0/s1
