14
gdb 43029	3.00252	1.66997	1.23527	5.0459	72.83	-0.2684	-0.0087	0.2597	968.2571	0.102308	-395.665473	-395.658619	-395.657675	-395.696814	26.434	
N	 0.0121655628	 1.2132584774	 0.1395330139	-0.540984
C	 0.0153094486	-0.0344541645	 0.0740341169	 0.331925
N	 1.0838757597	-1.034629558	-0.1578423307	-0.215258
C	 1.0036943004	-1.8220811957	 1.1508696271	-0.195159
C	-0.3597044832	-2.3310000046	 0.703347362	-0.126079
C	-0.0232369793	-1.9640590204	-0.6892776942	-0.060409
C	-1.0443826132	-1.0835744744	 0.0381443982	 0.177708
C	-2.4527416398	-0.993238616	-0.1396120493	 0.183569
N	-3.5979296203	-0.9215418124	-0.28646095	-0.340261
H	 0.9614173399	 1.5813830396	 0.0463125752	 0.240394
H	 1.7622227647	-2.6075232339	 1.1513014122	 0.135422
H	 1.0849410924	-1.20591956	 2.0505572594	 0.132228
H	-0.9746120316	-3.1457960414	 1.0648087617	 0.131949
H	-0.067118501	-2.4171798857	-1.6678784023	 0.144954
138.7058	152.4361	187.486	365.0983	413.8124	503.9183	542.0456	609.1795	630.9806	738.9059	766.0418	823.6016	859.5849	866.6435	901.6839	933.3572	955.3564	960.4237	989.5148	1010.7024	1090.8895	1124.4548	1159.9435	1194.3918	1216.7969	1279.8786	1302.2742	1389.6882	1504.8852	1830.5096	2355.7118	3063.6581	3128.8144	3202.5669	3246.9592	3467.1923
N=C1N2CC3C2C13C#N	[NH][C]1N2C[C@@H]3[C@H]2[C@]13C#N	
InChI=1S/C6H5N3/c7-2-6-3-1-9(4(3)6)5(6)8/h3-4,8H,1H2	InChI=1S/C6H5N3/c7-2-6-3-1-9(4(3)6)5(6)8/h3-4,8H,1H2/t3-,4+,6-/m1/s1
