24
gdb 15080	2.53493	1.41594	1.03903	0.0547	85.08	-0.2695	0.0828	0.3523	1265.4459	0.222683	-314.267838	-314.257927	-314.256983	-314.302754	36.631	
C	-0.5640794847	 1.2670468282	-0.67112907	-0.392823
C	-0.2491090427	-0.2249028218	-0.5219923233	-0.170641
C	 1.0103871743	-0.6997360698	-1.2747309815	 0.02035
C	 2.3089687062	 0.0202579263	-0.8448678894	-0.184952
C	 2.7019161925	-0.1326523728	 0.6297609566	-0.379376
C	 1.1426761839	-2.2119318219	-1.184070905	 0.041501
C	 0.3847957622	-3.1047532981	-2.1339822363	-0.275578
C	 1.8861320574	-2.983750893	-2.2444342415	-0.279299
H	 0.2091025874	 1.8977807716	-0.2213230062	 0.117706
H	-0.6484660182	 1.5505199741	-1.7266846898	 0.111111
H	-1.5128324879	 1.5166364908	-0.1853607962	 0.109835
H	-0.156945978	-0.475195972	 0.5427993544	 0.093128
H	-1.1004515975	-0.8101038142	-0.8903604144	 0.095319
H	 0.8608784768	-0.4565080205	-2.3380902094	 0.057873
H	 3.1259451266	-0.3578575558	-1.4713605157	 0.093789
H	 2.2196691877	 1.087410931	-1.0803298388	 0.091524
H	 1.9420834408	 0.2792222645	 1.3018278188	 0.116091
H	 2.8546033621	-1.1812758074	 0.9045308038	 0.116447
H	 3.6380480339	 0.3967941039	 0.8335877587	 0.11048
H	 1.2404371567	-2.5958935662	-0.1713403149	 0.078177
H	-0.0319840955	-4.0326623709	-1.7577621713	 0.107238
H	-0.2165521965	-2.6304226878	-2.9034758337	 0.107318
H	 2.2847150943	-2.4283844349	-3.0878418	 0.10762
H	 2.4964115682	-3.8287271932	-1.9447274647	 0.107162
63.3135	77.5736	111.4625	167.0318	193.0995	222.644	275.2612	296.5872	308.7229	412.7348	445.5651	549.0261	727.6273	776.5728	783.9349	825.5324	835.9875	871.412	903.7389	948.4407	967.6513	1016.8019	1024.5216	1042.6844	1055.8757	1059.2691	1076.0188	1138.2025	1144.2027	1175.2248	1198.3432	1205.3499	1225.0223	1277.6148	1293.5501	1309.3939	1349.7152	1368.0883	1390.3972	1410.3816	1414.0487	1424.8063	1470.1934	1483.2562	1489.2248	1500.8296	1503.2925	1504.3596	1507.0856	1514.4602	2980.3444	3022.4036	3027.5939	3031.484	3035.8565	3052.706	3057.0663	3094.6597	3099.9496	3102.1973	3105.1909	3124.117	3127.4464	3131.5983	3201.2758	3216.6338
CCC(CC)C1CC1	CCC(CC)C1CC1	
InChI=1S/C8H16/c1-3-7(4-2)8-5-6-8/h7-8H,3-6H2,1-2H3	InChI=1S/C8H16/c1-3-7(4-2)8-5-6-8/h7-8H,3-6H2,1-2H3
