16
gdb 49981	4.22077	1.14416	1.04374	2.4184	71.47	-0.2569	-0.0055	0.2514	1135.5449	0.123342	-437.790453	-437.782956	-437.782012	-437.8228	28.28	
O	 0.1880123034	 0.1321057047	-0.5602916071	-0.276917
C	 0.0987560359	 1.241635521	-0.0984287523	 0.130705
N	 1.1069880005	 1.8958772744	 0.5945411335	-0.153567
C	 2.5243691857	 1.8074089841	 0.2260677714	-0.336646
C	 1.7914983148	 3.0910920384	 0.1970672125	 0.426334
C	 1.5397901207	 4.1638297733	-0.8769248296	-0.042471
C	 0.6550317847	 4.9319228838	 0.1408816787	-0.227384
C	 1.9439793425	 4.4676052979	 0.8648128868	-0.041276
O	 2.7193384398	 4.87669554	-0.3336991181	-0.299541
H	-0.8341711339	 1.8371233195	-0.1244796172	 0.085962
H	 3.2086894693	 1.587759972	 1.0405078644	 0.136614
H	 2.7489626556	 1.3145123338	-0.7164537224	 0.14583
H	 1.4511791227	 4.0727381481	-1.9588963942	 0.112639
H	 0.5978492154	 6.0065785708	-0.0337762261	 0.11852
H	-0.2969308561	 4.489688882	 0.4449513094	 0.11017
H	 2.3371907289	 4.7361019364	 1.8438615903	 0.111028
84.3807	129.2184	197.1289	239.638	342.373	361.092	467.4357	524.6509	644.325	738.7738	767.8818	808.7095	865.4243	874.9571	877.0635	922.195	996.494	1012.419	1034.0381	1046.5351	1101.3618	1104.1226	1121.9033	1138.3686	1150.1435	1170.8516	1216.0468	1221.5375	1259.1788	1268.6915	1414.6383	1456.3404	1481.616	1531.3545	1803.5455	2949.3803	3068.5148	3114.6835	3132.5522	3142.2163	3155.4756	3203.666
O=CN1CC11C2CC1O2	O=CN1C[C@]21[C@H]1C[C@@H]2O1	
InChI=1S/C6H7NO2/c8-3-7-2-6(7)4-1-5(6)9-4/h3-5H,1-2H2	InChI=1S/C6H7NO2/c8-3-7-2-6(7)4-1-5(6)9-4/h3-5H,1-2H2/t4-,5+,6+,7?
