18
gdb 89266	2.55791	1.84005	1.36291	1.2469	71.07	-0.2056	0.0609	0.2665	981.4113	0.14634	-438.995651	-438.987671	-438.986727	-439.027634	31.384	
C	-0.3221533335	 1.4560299555	-0.0709304712	-0.329972
N	 0.1498054674	 0.0885231939	-0.019876075	-0.055859
C	 1.2552623846	-0.3653545531	-0.896432866	-0.253533
C	 1.8841030452	-1.1104981442	 0.314188589	 0.382567
O	 2.1980259261	-2.4611049466	 0.258145558	-0.487936
C	 2.9230858689	-0.3059376798	 1.1357053706	-0.02046
O	 2.6169229224	 1.0802198561	 0.9916563907	-0.231932
C	 1.8676522787	 0.3230258117	 1.9518330507	 0.008092
C	 0.7533682395	-0.4721352525	 1.1909447575	-0.135483
H	 0.471506528	 2.202526911	 0.0882646249	 0.118941
H	-0.786829623	 1.6481293988	-1.0443354904	 0.117688
H	-1.0928123005	 1.6008816176	 0.6942775301	 0.115143
H	 0.9180915197	-1.0237820038	-1.7093962445	 0.085564
H	 1.8806858107	 0.4323033756	-1.3143468845	 0.109198
H	 1.4420388814	-2.9363341668	-0.1032313134	 0.288545
H	 3.9466434804	-0.5852088772	 1.3589489185	 0.110293
H	 1.8809709861	 0.6804221587	 2.9760565489	 0.106762
H	 0.095979248	-1.053885715	 1.845248426	 0.072383
139.383	186.4456	236.4825	249.1569	298.3881	311.167	345.9472	393.129	506.1856	562.8634	623.8205	701.676	789.2456	810.907	848.3367	879.2551	900.3587	959.294	988.2622	1013.8055	1028.6497	1046.8183	1079.1175	1111.8503	1122.8389	1157.685	1200.823	1226.7711	1238.9393	1247.9618	1280.1345	1300.2948	1331.8698	1376.1601	1397.899	1447.3765	1479.1644	1501.0938	1512.7313	2983.3998	2995.8718	3053.0053	3055.3929	3059.0344	3090.3653	3168.1293	3189.1689	3809.2016
CN1CC2(O)C3OC3C12	CN1C[C@@]2(O)[C@H]3O[C@H]3[C@@H]12	
InChI=1S/C6H9NO2/c1-7-2-6(8)4(7)3-5(6)9-3/h3-5,8H,2H2,1H3	InChI=1S/C6H9NO2/c1-7-2-6(8)4(7)3-5(6)9-3/h3-5,8H,2H2,1H3/t3-,4+,5-,6-/m0/s1
