12
gdb 131431	6.00531	0.99508	0.85364	5.734	60.12	-0.2579	-0.0421	0.2158	1220.5979	0.078198	-505.965357	-505.957883	-505.956939	-505.998046	26.479	
O	 0.0814572495	 1.3398941031	 0.0307291706	-0.398882
C	 0.0606534332	 0.0115292401	-0.0445213301	 0.455065
N	-0.009794707	-0.6039392301	-1.1975834434	-0.199905
O	-0.005284214	-1.9733444709	-0.7978871498	-0.183245
C	 0.0666356044	-1.9684590276	 0.523682211	 0.591113
N	 0.0902689041	-3.1443028201	 1.2302098823	-0.421268
C	 0.0469749625	-4.4433608727	 0.736161467	 0.157002
O	-0.0202615696	-4.7491688201	-0.4215709175	-0.25416
N	 0.1113344307	-0.7845238613	 1.0714937903	-0.45315
H	 0.1352845555	 1.5742074261	 0.9652393267	 0.320408
H	 0.1462711713	-3.0179995448	 2.230661395	 0.283464
H	 0.0829061496	-5.1675487616	 1.5714082878	 0.103559
54.5342	153.4305	174.3745	290.5165	300.6914	380.0962	413.2453	493.0699	598.0759	610.5034	717.3873	764.5215	787.2237	859.2607	924.8956	1022.5053	1031.9497	1053.5772	1135.8959	1221.1003	1391.6396	1436.3284	1459.2801	1480.3823	1642.8179	1681.1113	1845.1512	2965.1348	3621.344	3814.9737
OC1=NOC(NC=O)=N1	Oc1noc(NC=O)n1	
InChI=1S/C3H3N3O3/c7-1-4-3-5-2(8)6-9-3/h1H,(H2,4,5,6,7,8)	InChI=1S/C3H3N3O3/c7-1-4-3-5-2(8)6-9-3/h1H,(H2,4,5,6,7,8)
