21
gdb 98692	3.27206	0.95455	0.90101	1.5053	81.6	-0.2642	0.0138	0.278	1434.8054	0.180331	-424.262179	-424.25194	-424.250996	-424.297475	37.082	
C	-0.3436237108	 1.2944533238	 0.1477554898	-0.239102
O	-0.2280428765	-0.1226555676	 0.3149558787	-0.239118
C	 0.9190018499	-0.5421609966	 0.8953913855	 0.457943
O	 1.792111021	 0.2163302316	 1.2517597676	-0.383219
C	 0.9312305742	-2.0200132881	 1.015372285	-0.184209
C	 2.2720152827	-2.7266984613	 1.12388381	-0.321714
C	 1.3677935029	-2.7159285371	 2.3158458307	 0.337848
C	 1.7530296907	-1.8921082165	 3.5291954762	-0.467412
C	 0.6173661167	-3.9939121396	 2.6449231951	-0.443371
H	 0.4673015683	 1.6782823706	-0.476684739	 0.13934
H	-1.30728871	 1.4589695843	-0.3348680176	 0.130317
H	-0.3088844614	 1.803051596	 1.1147132019	 0.138219
H	 0.1395982143	-2.5109904021	 0.4626697538	 0.097705
H	 2.3954588951	-3.6453889483	 0.5602991172	 0.111683
H	 3.1374631858	-2.0732188913	 1.1416439993	 0.13428
H	 2.2518694523	-0.9648954804	 3.245895181	 0.154954
H	 0.8688172725	-1.6379791178	 4.1255053919	 0.111169
H	 2.427826612	-2.4697170365	 4.1715273693	 0.112034
H	 1.2261177001	-4.6405525637	 3.2876668553	 0.119227
H	-0.3145473904	-3.7780904103	 3.1795638019	 0.119737
H	 0.3657310406	-4.5606202093	 1.7432226166	 0.11369
57.7807	108.6335	127.6505	153.0001	204.7072	212.6579	257.2389	283.858	324.3447	356.9833	378.0778	425.4053	453.5238	663.8496	696.7964	784.7724	845.6377	863.4366	927.204	954.6421	976.441	984.9218	1031.6549	1065.3642	1078.4484	1114.6471	1125.7945	1150.581	1179.5606	1197.2561	1216.2317	1293.1726	1337.7173	1409.8142	1418.3256	1426.9693	1474.3343	1480.2968	1481.1275	1485.0829	1491.1955	1498.3514	1510.3901	1512.803	1795.3461	3023.613	3029.5951	3049.9327	3081.3644	3086.9886	3101.7122	3123.1789	3132.2241	3147.3615	3155.6379	3183.6589	3224.958
COC(=O)C1CC1(C)C	COC(=O)[C@H]1CC1(C)C	
InChI=1S/C7H12O2/c1-7(2)4-5(7)6(8)9-3/h5H,4H2,1-3H3	InChI=1S/C7H12O2/c1-7(2)4-5(7)6(8)9-3/h5H,4H2,1-3H3/t5-/m1/s1
