17
gdb 97298	3.48816	1.08798	0.83788	1.739	82.74	-0.2212	-0.0175	0.2037	1355.2838	0.136091	-418.057917	-418.049517	-418.048573	-418.091165	30.821	
C	-0.0573271272	 1.4688664468	 0.0541388194	-0.311666
N	 0.0522877029	 0.0249962484	 0.0869767157	-0.236775
C	-1.0156097567	-0.6429646138	-0.0353122988	 0.104492
N	-1.0135475362	-2.0304907238	-0.0168010781	-0.135619
C	 0.1205515701	-2.8573981618	 0.1341675585	 0.004097
C	-0.2173746306	-4.1477932613	 0.1102018649	-0.155734
C	-1.7069313334	-4.26732901	-0.071266355	-0.40028
C	-2.1748896444	-2.810431567	-0.148443242	 0.422819
O	-3.2916202329	-2.3759412384	-0.2911352607	-0.36114
H	 0.5577860512	 1.8647706888	-0.7622824894	 0.129832
H	-1.0878690591	 1.8340049025	-0.0771139298	 0.104786
H	 0.3436237512	 1.8880306161	 0.9842195264	 0.129836
H	-2.0237905146	-0.2362904901	-0.1644939034	 0.126654
H	 1.0795434463	-2.3764275076	 0.2453369336	 0.157485
H	 0.4645137282	-4.9788403777	 0.205477911	 0.117286
H	-2.0024445931	-4.7946841091	-0.9858510795	 0.151965
H	-2.2174549617	-4.771910392	 0.7573048373	 0.15196
99.0541	144.7292	149.0046	180.3733	215.3701	352.6941	357.1729	375.4804	454.2211	571.4118	598.2562	669.3854	720.4126	797.187	883.8743	940.6939	960.531	977.2745	993.9261	999.4325	1070.0739	1139.3816	1141.3402	1152.096	1153.2946	1240.8154	1276.0199	1324.4211	1394.6617	1422.3676	1437.6004	1450.2796	1480.2331	1503.062	1674.1587	1749.9883	1834.4215	2980.2332	3045.4105	3061.8557	3076.2627	3076.6512	3084.4476	3248.6297	3279.0605
CN=CN1C=CCC1=O	CN=CN1C=CCC1=O	
InChI=1S/C6H8N2O/c1-7-5-8-4-2-3-6(8)9/h2,4-5H,3H2,1H3	InChI=1S/C6H8N2O/c1-7-5-8-4-2-3-6(8)9/h2,4-5H,3H2,1H3
