22
gdb 57782	3.24409	0.73973	0.67541	1.483	93.83	-0.2186	0.0415	0.2601	1790.744	0.192008	-367.162431	-367.15172	-367.150776	-367.199833	38.394	
C	 1.354259983	 0.7043888964	-0.6939616682	-0.37329
C	 0.084268914	 0.4402818159	 0.1399139186	-0.125933
C	-0.9816536512	-0.3094222194	-0.6841301784	-0.372894
C	 0.4038858624	-0.2770911025	 1.3747600719	 0.090649
C	 0.6638810833	-0.8869748235	 2.3829780451	 0.062095
C	 0.985580378	-1.5558506506	 3.6149326715	-0.174365
C	 0.8455563404	-3.046654705	 3.73004405	-0.239029
N	 2.1629776705	-2.4379190857	 3.7472950346	-0.079013
C	 3.0011772978	-2.6435570256	 2.573660831	-0.307361
H	 1.8097117974	-0.2390581917	-1.010796305	 0.122442
H	 1.1061080585	 1.2829055817	-1.5895984397	 0.112056
H	 2.0961346647	 1.2611466122	-0.1157595911	 0.124322
H	-0.3368818223	 1.4153667222	 0.4231863972	 0.105919
H	-0.6062521364	-1.2878031311	-1.0001061218	 0.121661
H	-1.8909041897	-0.4689078552	-0.0987901662	 0.123782
H	-1.2418508444	 0.2637295951	-1.5799164285	 0.111718
H	 0.8053860162	-0.9632393302	 4.5095525121	 0.110171
H	 0.506176268	-3.4877628408	 4.6638328555	 0.116854
H	 0.5331681266	-3.5719062845	 2.8287837492	 0.113584
H	 2.4420938065	-2.6773703111	 1.6269500218	 0.1102
H	 3.7342345867	-1.8337884877	 2.5090449087	 0.125244
H	 3.5412729299	-3.5874326789	 2.6969530018	 0.121188
14.7346	72.3166	85.2836	160.1297	201.2174	224.1762	228.2183	274.6921	313.4441	344.865	368.7182	444.9369	505.451	561.0811	589.5732	690.712	753.5076	835.1265	890.7763	931.2463	961.4227	963.1272	1029.3762	1051.5501	1104.5638	1114.6044	1120.1507	1130.3368	1154.8993	1174.139	1208.6166	1215.5147	1321.3482	1323.1555	1349.3281	1377.6535	1395.582	1417.3068	1449.3739	1485.4558	1488.5173	1488.61	1493.9114	1497.8938	1507.7953	1510.1367	2350.2398	2993.5934	3003.4796	3035.1667	3039.0753	3076.1461	3092.4275	3105.5032	3108.0901	3111.1601	3119.0419	3121.0173	3121.2081	3181.1456
CC(C)C#CC1CN1C	CC(C)C#C[C@H]1CN1C	
InChI=1S/C8H13N/c1-7(2)4-5-8-6-9(8)3/h7-8H,6H2,1-3H3	InChI=1S/C8H13N/c1-7(2)4-5-8-6-9(8)3/h7-8H,6H2,1-3H3/t8-,9?/m0/s1
