13
gdb 130657	3.2527	1.84517	1.18618	3.4922	66.42	-0.2436	-0.0447	0.199	937.8208	0.092154	-452.782186	-452.775888	-452.774944	-452.813076	23.965	
O	 0.0180291546	-0.0251807791	 0.002731402	-0.316725
C	 0.0123785476	 1.171353085	 0.0089251038	 0.408956
C	-1.2031227242	 2.1208392278	 0.0317205263	-0.23116
O	-0.6906232358	 3.4715822534	 0.0309052757	-0.272016
C	 0.6488037237	 3.3661044411	 0.010437451	 0.525761
C	 1.7472686245	 4.1752185832	-0.0018633377	-0.411622
C	 2.8236756228	 3.2293106937	-0.0227224501	 0.052435
N	 2.442583246	 1.9614485098	-0.0233537232	-0.273357
N	 1.0792340592	 2.0663647069	-0.0024839353	-0.080172
H	-1.8286965667	 1.9706128349	-0.851994557	 0.167819
H	-1.8022227616	 1.9616452886	 0.9320527681	 0.167814
H	 1.7969104867	 5.2496459864	 0.002801197	 0.130348
H	 3.8806087432	 3.4582525482	-0.0373590106	 0.131919
139.0913	171.7523	311.965	312.7147	552.7565	563.4546	639.5534	651.5595	691.1113	704.2522	736.4213	776.1978	920.7974	935.514	1004.7978	1013.7966	1035.7199	1061.7726	1126.9258	1198.3005	1233.2401	1322.9326	1333.6588	1347.4223	1422.5843	1469.3294	1506.4549	1655.3164	1883.2052	3072.799	3124.8574	3237.7283	3292.7631
O=C1COC2=CC=NN12	O=C1COc2ccnn12	
InChI=1S/C5H4N2O2/c8-4-3-9-5-1-2-6-7(4)5/h1-2H,3H2	InChI=1S/C5H4N2O2/c8-4-3-9-5-1-2-6-7(4)5/h1-2H,3H2
