17
gdb 54116	2.72073	1.56773	1.17979	2.8674	69.65	-0.2271	-0.0169	0.2102	1062.745	0.13315	-458.92125	-458.912606	-458.911661	-458.954613	32.442	
C	-0.0417853195	 1.5031721072	 0.1780895746	-0.491558
C	 0.111850177	-0.0029377663	 0.0474709312	 0.33641
O	 1.2027617074	-0.5296704986	-0.0061670786	-0.308773
C	-1.1639946529	-0.7941976268	 0.0116256581	 0.221814
O	-2.3398676658	-0.0619699018	-0.2300533397	-0.460498
C	-1.3123657719	-2.1879130644	-0.5893453616	-0.171042
C	-0.1206849161	-3.0789940967	-0.2418529961	-0.095086
O	-0.2830661734	-2.7834153305	 1.1813265872	-0.269612
C	-1.4314801661	-2.0200876519	 0.8970791882	 0.040091
H	 0.9485532085	 1.9587616844	 0.1972309842	 0.141825
H	-0.6310801202	 1.902716477	-0.6524035346	 0.152119
H	-0.5766164951	 1.7616924686	 1.1002981024	 0.12519
H	-2.6171559081	 0.3595328899	 0.5909195182	 0.290405
H	-2.065549941	-2.3579345455	-1.3458971911	 0.117192
H	-0.3284021534	-4.1382333794	-0.4249029008	 0.11336
H	 0.8629879094	-2.7927738661	-0.6101986318	 0.146916
H	-2.267769909	-2.0349818991	 1.5891754103	 0.111245
54.0263	154.9922	173.011	218.2916	295.9955	303.4382	342.7723	386.0861	417.2646	432.1807	583.7094	624.9038	638.325	760.3132	832.8799	904.5193	918.7774	937.4421	953.3766	992.2072	1015.4903	1044.5821	1068.1856	1086.9506	1147.4952	1158.7016	1171.2692	1231.1836	1293.1722	1318.5125	1329.9406	1375.3188	1394.8294	1460.604	1472.3917	1491.5188	1787.969	3034.4069	3053.022	3102.0536	3154.2691	3157.534	3161.6518	3215.4651	3795.1518
CC(=O)C1(O)C2COC12	CC(=O)[C@@]1(O)[C@H]2CO[C@@H]12	
InChI=1S/C6H8O3/c1-3(7)6(8)4-2-9-5(4)6/h4-5,8H,2H2,1H3	InChI=1S/C6H8O3/c1-3(7)6(8)4-2-9-5(4)6/h4-5,8H,2H2,1H3/t4-,5+,6+/m0/s1
