18
gdb 112347	2.56733	1.29496	0.89135	5.2485	78.44	-0.2196	-0.0151	0.2044	1277.3646	0.147836	-439.121989	-439.11315	-439.112206	-439.155687	33.023	
C	 0.0954098359	 1.1542950019	-0.6134620797	-0.237941
O	-0.2681049104	 0.4061586086	 0.52811527	-0.259288
C	-1.3729701362	-0.4578072204	 0.3147068091	 0.04441
C	-1.1049041946	-1.7315292078	-0.5005521633	-0.362087
C	-1.7442388626	-2.8677955968	 0.3311431084	 0.395103
O	-1.8924094184	-4.0057258244	-0.0614654397	-0.359645
C	-2.0861165192	-2.3109804741	 1.6345226809	-0.342377
C	-1.8245921903	-0.9816271826	 1.6663258162	 0.371657
N	-1.9662725655	-0.0782001923	 2.6684350369	-0.579035
H	 0.9160695688	 1.8127492045	-0.319912668	 0.131054
H	 0.4354568822	 0.5091901519	-1.4354009806	 0.119822
H	-0.7436796479	 1.7669834546	-0.9779407576	 0.109368
H	-2.1962072183	 0.1257408051	-0.1320967544	 0.089861
H	-1.5097577132	-1.7167128279	-1.5146080607	 0.118884
H	-0.026520414	-1.9114961482	-0.5669132684	 0.134295
H	-2.4747580545	-2.910385303	 2.4473752941	 0.095261
H	-2.0767999736	-0.416237042	 3.6110355646	 0.262873
H	-1.4179895382	 0.7634335929	 2.5698579422	 0.267786
82.7883	107.7348	164.2755	187.2694	227.1019	298.911	388.7372	415.5428	497.8725	513.8559	536.2627	547.3491	592.8167	616.4772	686.6133	838.6161	846.0898	860.5194	967.6643	1013.7883	1050.9311	1094.4516	1142.3932	1165.5878	1185.2909	1192.6925	1218.5292	1243.4029	1285.5668	1318.0949	1370.4632	1417.3346	1458.0817	1479.651	1488.7317	1510.0873	1627.0437	1691.2049	1801.9312	2955.3887	2982.9259	3038.7144	3059.154	3116.5173	3120.2422	3217.9856	3578.1633	3691.6425
COC1CC(=O)C=C1N	CO[C@H]1CC(=O)C=C1N	
InChI=1S/C6H9NO2/c1-9-6-3-4(8)2-5(6)7/h2,6H,3,7H2,1H3	InChI=1S/C6H9NO2/c1-9-6-3-4(8)2-5(6)7/h2,6H,3,7H2,1H3/t6-/m0/s1
