25
gdb 60122	2.6568	0.95283	0.82762	1.4174	89.33	-0.2429	0.0649	0.3078	1558.4723	0.226879	-389.484743	-389.473658	-389.472713	-389.520814	41.258	
C	 0.2879122491	 1.6016342963	 0.0739392405	-0.3913
C	 0.0755898009	 0.0830125906	-0.0032017636	 0.049791
C	 0.662797472	-0.4790497167	-1.3043149283	-0.39267
C	 0.6606711097	-0.6531236184	 1.2193356525	-0.203792
C	-0.0104868506	-0.2980518227	 2.5322812015	-0.066557
C	 0.5742332359	-0.7055037335	 3.8785152856	-0.064117
C	 1.8673613137	-1.4833184268	 4.003350768	-0.402538
C	 0.5714938336	 0.7423265278	 3.4713550093	 0.083955
O	 1.8173981488	 1.3127075695	 3.1840410412	-0.420008
H	 1.3587275001	 1.8438099144	 0.0799967315	 0.108552
H	-0.1520454778	 2.1077775943	-0.7916758232	 0.112154
H	-0.1707697052	 2.0294906083	 0.971136913	 0.114047
H	-1.0085469308	-0.1020587479	-0.0156236463	 0.070072
H	 1.7480680952	-0.3250452355	-1.3426881692	 0.112019
H	 0.4776771776	-1.5545838121	-1.3937189909	 0.110489
H	 0.228047451	 0.0108729538	-2.1820073311	 0.107709
H	 0.5688319218	-1.7341737252	 1.0497198376	 0.091583
H	 1.7343800419	-0.4421586207	 1.2793723488	 0.101999
H	-1.0980611989	-0.3162876917	 2.4825805624	 0.074172
H	-0.1659605274	-0.9647691838	 4.6315149407	 0.080417
H	 2.6469556438	-1.0759902267	 3.3582692694	 0.134739
H	 2.239937206	-1.4393270931	 5.0323347812	 0.114823
H	 1.7215828856	-2.5386761532	 3.7482432275	 0.110336
H	-0.1194606484	 1.413687425	 3.9820109055	 0.077422
H	 1.6975349323	 1.9297678279	 2.4542232863	 0.286705
59.9589	88.6206	114.2953	160.1203	202.0907	210.4036	225.9138	258.7551	275.4024	342.0132	349.9341	389.5643	425.5893	479.8673	569.5504	587.4395	752.5797	809.186	822.9596	887.5177	892.4292	930.0367	952.5311	965.3098	982.1305	1000.4117	1067.3744	1091.7297	1107.6267	1140.0722	1159.7261	1184.5104	1191.3361	1194.1969	1251.2775	1266.3214	1300.3609	1313.5852	1365.5935	1369.8692	1376.2675	1396.1868	1403.9206	1416.5272	1420.5545	1459.6458	1479.7394	1490.6264	1493.7783	1498.7326	1503.6808	1506.1357	1515.1029	2995.1597	3015.2221	3016.9591	3025.0633	3036.0401	3065.4028	3082.2209	3087.0327	3089.3295	3090.4512	3097.3382	3099.8153	3112.8474	3129.2607	3144.8245	3802.1856
CC(C)CC1C(C)C1O	CC(C)C[C@H]1[C@@H](C)[C@H]1O	
InChI=1S/C8H16O/c1-5(2)4-7-6(3)8(7)9/h5-9H,4H2,1-3H3	InChI=1S/C8H16O/c1-5(2)4-7-6(3)8(7)9/h5-9H,4H2,1-3H3/t6-,7+,8-/m1/s1
