25
gdb 106512	2.89911	1.28935	1.12591	0.0754	91.58	-0.2683	0.0774	0.3457	1249.9894	0.231897	-352.36879	-352.360126	-352.359182	-352.401651	35.328	
C	 0.0992017211	 1.5218376289	 0.2730139298	-0.386486
C	-0.1212272948	 0.0465937344	-0.0831732861	-0.268268
C	 0.6862340512	-0.4513281262	-1.2790836829	 0.372475
C	 2.2488909739	-0.4192200837	-1.1977278514	-0.265302
C	 2.2290903036	-1.7138413166	-2.0619068128	-0.011436
C	 0.8261977493	-1.9923980618	-1.462262992	-0.257542
C	 2.0858087605	-1.3794458713	-3.55578833	-0.198286
C	 1.2702462993	-0.0794931313	-3.7440437316	-0.206072
C	 0.2175127475	 0.1345311745	-2.6309930403	-0.246037
H	 1.1563998412	 1.7242040385	 0.4762515972	 0.117372
H	-0.2169666405	 2.1918591204	-0.5325519171	 0.116911
H	-0.4688031953	 1.7956303611	 1.167610094	 0.110257
H	 0.1382842993	-0.5691860811	 0.7881707367	 0.085618
H	-1.1895427173	-0.130658184	-0.2716062108	 0.088791
H	 2.7835236436	 0.4574903114	-1.5743133562	 0.08666
H	 2.5882333411	-0.6280923299	-0.1785506142	 0.088307
H	 3.0115588322	-2.4565673987	-1.8873824597	 0.054309
H	 0.8868213225	-2.5061142039	-0.4974317568	 0.084089
H	 0.0912308542	-2.5008944077	-2.096040808	 0.080089
H	 3.0704617254	-1.2625502361	-4.0234670369	 0.088568
H	 1.6004174655	-2.2241821123	-4.0607328437	 0.092497
H	 1.9643883469	 0.7673480687	-3.7256078266	 0.102106
H	 0.7981977821	-0.053734211	-4.7313182728	 0.089922
H	-0.7349040813	-0.3423116751	-2.8973501142	 0.091912
H	 0.0095197988	 1.2065776128	-2.5408904337	 0.089544
89.4158	154.5103	192.7871	224.4111	280.7907	318.1151	400.3062	418.5487	439.0922	477.2769	568.5907	636.8573	763.0857	780.3188	817.3034	845.8257	865.3833	881.084	923.4312	931.0206	940.3227	945.484	975.6287	1033.6119	1049.4843	1064.6191	1067.9513	1091.192	1118.1911	1126.4227	1186.6873	1204.8585	1222.2255	1231.1725	1248.8221	1254.8447	1290.2943	1301.0635	1330.3391	1336.7295	1363.2677	1366.4624	1375.4736	1385.7317	1411.2086	1476.1115	1481.5406	1492.0121	1494.7539	1500.2181	1501.8531	1507.0727	1524.0851	3004.2763	3017.6427	3019.7822	3030.1139	3033.8416	3036.2202	3036.7987	3047.5653	3055.5779	3060.7205	3071.0579	3080.3947	3086.8332	3097.6427	3100.5587	3104.1929
CCC12CC(C1)CCC2	CC[C@@]12C[C@@H](C1)CCC2	
InChI=1S/C9H16/c1-2-9-5-3-4-8(6-9)7-9/h8H,2-7H2,1H3	InChI=1S/C9H16/c1-2-9-5-3-4-8(6-9)7-9/h8H,2-7H2,1H3/t8-,9+
