17
gdb 82996	3.78113	1.60754	1.49116	1.0068	65.83	-0.2326	0.0698	0.3025	904.6408	0.138884	-458.934848	-458.928543	-458.927599	-458.96525	26.516	
O	 0.1450899278	 1.4168412644	-0.0874611009	-0.447834
C	 0.0315495509	 0.0287895932	-0.0300186483	 0.166509
C	 0.1287710551	-0.6507086206	 1.3582550239	-0.015475
O	-0.860001952	 0.1053846526	 2.0920995522	-0.303888
C	-2.0392833073	-0.143233449	 1.2681061441	 0.040688
C	-2.6745383378	-1.3964249604	 1.8593615859	-0.072323
O	-1.6722294319	-2.4029132304	 1.6320824236	-0.277179
C	-0.7220155418	-1.8252241573	 0.768051772	 0.126632
C	-1.3653454607	-0.6547735863	-0.0312872512	-0.169784
H	-0.1836032989	 1.7407052213	 0.7625803914	 0.291202
H	 0.6950202234	-0.4067352937	-0.7804805833	 0.094679
H	 1.0391329711	-0.7511238498	 1.9460937194	 0.086408
H	-2.667012169	 0.7462989543	 1.2194004128	 0.088991
H	-2.8486390746	-1.2897902285	 2.9339991134	 0.119139
H	-3.6149583384	-1.6758254963	 1.3619222119	 0.095078
H	-0.1742462703	-2.5947945773	 0.2272329339	 0.095681
H	-1.9858933856	-0.7896662363	-0.9145571206	 0.081477
202.5602	258.983	279.9243	417.5136	497.0945	502.7152	576.3403	679.9948	749.2434	759.6364	778.5936	836.3359	846.2161	879.7841	930.4896	948.2096	961.8839	991.7479	1014.4638	1036.4185	1050.472	1088.7322	1102.2671	1149.5632	1171.3572	1194.4432	1196.4895	1215.8946	1249.9016	1279.3721	1288.0606	1313.5332	1327.1856	1351.2356	1393.4299	1448.1245	1506.0118	2998.7728	3086.7307	3096.4696	3123.2576	3137.7858	3143.7774	3151.1075	3750.8863
OC1C2OC3COC2C13	O[C@H]1[C@H]2O[C@@H]3CO[C@H]2[C@H]13	
InChI=1S/C6H8O3/c7-4-3-2-1-8-5(3)6(4)9-2/h2-7H,1H2	InChI=1S/C6H8O3/c7-4-3-2-1-8-5(3)6(4)9-2/h2-7H,1H2/t2-,3+,4-,5+,6-/m1/s1
