15
gdb 125280	5.3554	1.26705	1.0312	2.9565	75.37	-0.2091	-0.0013	0.2078	1101.606	0.115543	-416.834894	-416.827819	-416.826874	-416.866333	27.117	
C	 0.0716865276	 1.4692452692	 0.0296398744	-0.490614
C	-0.0741968092	-0.0087944291	-0.0004082311	 0.370257
C	-1.1674888912	-0.8159956431	-0.1613286965	-0.456427
C	-0.6483331209	-2.1480004285	-0.0954738975	 0.366784
C	 0.7149491673	-2.0381270544	 0.0994416892	 0.245761
O	 1.0894293045	-0.7297131207	 0.16096941	-0.242588
C	 1.2335435369	-3.3399358399	 0.1656665668	-0.15025
N	 0.2348768714	-4.2151292337	 0.0179685078	-0.223934
N	-0.9000649503	-3.4799569206	-0.1397424712	-0.35295
H	 0.7412468897	 1.8191933065	-0.7641757267	 0.144028
H	-0.9025218283	 1.9432209347	-0.1069971627	 0.136844
H	 0.4907467438	 1.8087741944	 0.9836279402	 0.144013
H	-2.1809592237	-0.4770891631	-0.3033246719	 0.117253
H	 2.2425687308	-3.6927065924	 0.3071909612	 0.119997
H	-1.7703406584	-3.9650897792	-0.2650031021	 0.271826
126.4402	147.5025	279.0687	292.8642	347.2166	422.3803	501.5002	557.4717	623.806	667.1129	743.5903	769.5453	769.9752	812.2999	856.1289	947.6014	977.8944	1016.5188	1061.8045	1080.3114	1164.9452	1170.7958	1243.4114	1297.8043	1344.8271	1406.3257	1414.4105	1469.484	1480.7865	1491.147	1550.3465	1592.5003	1622.4982	3032.3549	3083.652	3132.9792	3262.3211	3263.786	3692.2432
CC1=CC2=C(O1)C=NN2	Cc1cc2c(o1)cn[nH]2	
InChI=1S/C6H6N2O/c1-4-2-5-6(9-4)3-7-8-5/h2-3H,1H3,(H,7,8)	InChI=1S/C6H6N2O/c1-4-2-5-6(9-4)3-7-8-5/h2-3H,1H3,(H,7,8)
