14
gdb 13736	3.15547	1.61246	1.34187	4.0977	62.99	-0.2589	-0.039	0.2198	928.937	0.106024	-378.721084	-378.713078	-378.712134	-378.754199	27.952	
C	-0.7048009076	 0.6085804951	 0.8826232766	-0.502809
C	 0.2843587851	 0.0170083924	-0.0913462035	 0.395416
O	 1.4449296018	 0.3527211096	-0.1519322382	-0.296469
C	-0.1824514164	-1.0734284442	-1.0337788001	-0.120167
N	-1.4359193872	-1.7761369058	-0.7610534505	-0.30878
C	-1.3657307993	-0.9466935018	-1.9650564291	-0.181112
C	-2.2135901024	 0.2206413059	-2.0193423856	 0.340457
N	-2.8876443976	 1.1566920023	-2.0952974502	-0.328772
H	-0.1735235218	 1.2627015313	 1.5742307206	 0.14384
H	-1.4666226466	 1.1866689926	 0.3481121107	 0.175399
H	-1.2333783927	-0.18356761	 1.419973617	 0.156235
H	 0.6558102591	-1.6235876051	-1.455605754	 0.121574
H	-1.3722147874	-2.7612657417	-1.0028817855	 0.258205
H	-1.2466753168	-1.4319668605	-2.9306891784	 0.146983
49.3522	108.1028	150.5969	203.5882	265.4191	281.1131	458.6825	483.1923	534.5769	590.5506	646.7966	725.7095	817.3432	876.6508	940.0152	963.6693	988.2944	1055.0045	1090.3502	1164.6681	1196.7298	1222.1778	1273.2568	1386.5006	1394.2446	1436.7486	1462.2585	1471.1188	1805.7914	2360.8499	3050.5705	3116.0585	3140.6275	3149.2672	3161.8902	3517.2154
CC(=O)C1NC1C#N	CC(=O)[C@H]1N[C@H]1C#N	
InChI=1S/C5H6N2O/c1-3(8)5-4(2-6)7-5/h4-5,7H,1H3	InChI=1S/C5H6N2O/c1-3(8)5-4(2-6)7-5/h4-5,7H,1H3/t4-,5+/m0/s1
