16
gdb 8168	2.97746	2.56854	1.76849	2.5779	64.32	-0.2476	-0.0167	0.2309	770.8704	0.131851	-383.753585	-383.747124	-383.74618	-383.783821	26.296	
O	 0.0379267707	 1.412755622	 0.0157196687	-0.486576
C	-0.0283524466	 0.0419409902	 0.0523254666	 0.34358
C	 0.3015977717	-0.8338986883	 1.3139449799	-0.288643
C	-0.4396228317	-1.9284658055	 0.4927408732	-0.035323
C	-1.3579263855	-0.7897131334	-0.0381196035	-0.288636
C	 0.5228878294	-2.1575665175	-0.6961452802	-0.33374
C	 0.8019503488	-0.6797444909	-0.9903499481	 0.379609
O	 1.4918669859	-0.1410218253	-1.8191620402	-0.359145
H	 0.6389638746	 1.6320477417	-0.7146299373	 0.290942
H	 1.3508301165	-0.9944538127	 1.5776270011	 0.103177
H	-0.2663150141	-0.4968386938	 2.1832817356	 0.116044
H	-0.8568219012	-2.8084021398	 0.9760498542	 0.080781
H	-2.0837091919	-0.4484634829	 0.7026018376	 0.116039
H	-1.8326912192	-0.9096900141	-1.0160763586	 0.103172
H	 1.4388272129	-2.6957537006	-0.4328507002	 0.129361
H	 0.0633026697	-2.6591130991	-1.5535534389	 0.129358
146.0222	268.318	354.2582	389.2787	444.9905	458.2179	516.1308	595.6517	635.5126	669.7171	769.8279	815.9644	892.7877	894.7551	912.328	963.3752	986.7608	988.5003	1043.1015	1062.1975	1109.0857	1125.779	1153.9145	1181.9629	1210.7853	1242.7599	1269.3097	1305.2534	1369.2537	1412.0497	1458.4249	1484.2677	1524.4759	1855.5112	3055.4044	3057.3425	3061.5277	3102.4356	3126.4681	3129.385	3146.3944	3686.3729
OC12CC(C1)CC2=O	O[C@@]12C[C@@H](C1)CC2=O	
InChI=1S/C6H8O2/c7-5-1-4-2-6(5,8)3-4/h4,8H,1-3H2	InChI=1S/C6H8O2/c7-5-1-4-2-6(5,8)3-4/h4,8H,1-3H2/t4-,6-
