19
gdb 77608	2.1292	1.59737	1.27612	1.0511	84.27	-0.2281	0.0318	0.2599	1103.3396	0.156853	-385.833573	-385.824222	-385.823278	-385.867054	35.663	
C	 0.0299600194	 1.5950669957	 0.0107615509	-0.489668
C	 0.0650167744	 0.0975804863	-0.0109638169	 0.247649
C	 0.5870021491	-0.7682956183	-1.1644270586	-0.288054
C	 1.2183625387	-1.7704838309	-0.1462697904	-0.298965
C	 0.6919178427	-0.9122769732	 1.0114965088	 0.127561
C	 1.2988126947	-0.6931045594	 2.2747187414	 0.163147
C	 1.7704448759	-0.5152800213	 3.3704535118	-0.434561
C	-0.8158731725	-0.7465820314	 0.8631510155	 0.029298
O	-1.4750979927	-0.0821916822	 1.8922002322	-0.429133
H	 1.0183102363	 2.0219866793	-0.1896459878	 0.11709
H	-0.6582865351	 1.9705200315	-0.7566595765	 0.121788
H	-0.3200512064	 1.9553184268	 0.9801681466	 0.140982
H	-0.1799107889	-1.1693362908	-1.8357834905	 0.100899
H	 1.3426614395	-0.2577896958	-1.7654832385	 0.109733
H	 0.8490712053	-2.8009056345	-0.1715476118	 0.10066
H	 2.3083290583	-1.7857388385	-0.1946695721	 0.118146
H	 2.2138756231	-0.3478302733	 4.3205685811	 0.189368
H	-1.3862794428	-1.5736554272	 0.4302113779	 0.082717
H	-1.0752184489	-0.3497401629	 2.7296360869	 0.291343
111.8493	120.3989	170.4581	199.8744	248.6327	264.022	285.9019	330.8391	369.823	472.3176	535.3714	558.0322	587.12	626.2712	659.8155	676.6712	711.556	782.1381	836.3273	947.5615	954.1138	997.5736	1051.0028	1068.4339	1109.5935	1139.0911	1174.3391	1215.3721	1236.6462	1242.2517	1246.7371	1308.3605	1362.1499	1363.7215	1412.9873	1423.2169	1479.4818	1488.7607	1492.9337	1503.4128	2215.6771	3027.0313	3042.4558	3049.6933	3052.4308	3084.0526	3099.8946	3121.9828	3133.2083	3500.6449	3758.1518
CC12CCC1(C#C)C2O	C[C@@]12CC[C@]1(C#C)[C@H]2O	
InChI=1S/C8H10O/c1-3-8-5-4-7(8,2)6(8)9/h1,6,9H,4-5H2,2H3	InChI=1S/C8H10O/c1-3-8-5-4-7(8,2)6(8)9/h1,6,9H,4-5H2,2H3/t6-,7-,8+/m0/s1
