15
gdb 18895	4.50197	2.36483	2.02342	1.554	62.08	-0.2295	0.0617	0.2911	689.0903	0.120456	-362.589784	-362.584068	-362.583124	-362.619092	24.108	
O	-0.1145503785	 1.3284462168	-0.0776639858	-0.474448
C	 0.0219140348	-0.050577484	-0.0480788678	 0.368495
C	 1.0509342638	-0.7990139618	-0.8841298623	-0.224352
N	 0.7373876066	-2.1930450887	-0.5709117018	-0.125154
C	 0.235049112	-2.2794927431	 0.8211605425	-0.064391
C	-0.7167269556	-2.3129383346	-0.3234987938	-0.063494
C	-1.2251050716	-0.8923543115	 0.037768397	-0.125216
C	-0.252107452	-0.8611103135	 1.2097962028	-0.171515
H	 0.6297246784	 1.7146384827	 0.3972736067	 0.287951
H	 0.930437342	-0.6141743601	-1.956101899	 0.113241
H	 2.0835522604	-0.5726668894	-0.5950470788	 0.097731
H	 0.6089224199	-3.0578448138	 1.4740944493	 0.094931
H	-1.2728826	-3.1216788016	-0.779789655	 0.095163
H	-2.2270335767	-0.4958012448	-0.0343060694	 0.09885
H	-0.3806853437	-0.4388616526	 2.1958948854	 0.092209
275.7713	308.21	351.2752	440.7609	546.0454	581.6023	723.3569	731.4448	776.4085	787.6377	802.0311	841.3484	865.5145	915.5912	922.4326	951.8603	997.8129	1003.9468	1044.3017	1061.5329	1068.6414	1138.8928	1183.1235	1202.9828	1209.2961	1234.0695	1266.4403	1281.5982	1323.2292	1336.9863	1435.3997	1497.9201	3041.9046	3093.4843	3186.219	3198.8319	3219.6688	3231.5083	3795.0033
OC12CN3C4C3C1C24	O[C@]12CN3[C@@H]4[C@H]3[C@H]1[C@H]24	
InChI=1S/C6H7NO/c8-6-1-7-4-2(6)3(6)5(4)7/h2-5,8H,1H2	InChI=1S/C6H7NO/c8-6-1-7-4-2(6)3(6)5(4)7/h2-5,8H,1H2/t2-,3+,4-,5+,6-,7?
