20
gdb 123118	5.17836	0.59211	0.57805	5.8001	73.41	-0.2457	0.0235	0.2692	1933.0293	0.170132	-477.437764	-477.427635	-477.426691	-477.474507	35.08	
C	 0.3343102466	 1.3517738558	 0.1187317617	-0.229307
O	 0.3678838806	-0.0539617044	 0.0183030895	-0.23959
C	 0.259796403	-0.5213304717	-1.3111158352	-0.068083
C	 0.2307601635	-2.0391044426	-1.2621140621	-0.156042
N	-0.9218766709	-2.491695699	-0.4798159568	-0.317778
H	-0.918782742	-1.9944072799	 0.4031152239	 0.245275
H	-2.3507960411	-2.8730798454	-1.7020641542	 0.299885
C	-0.9909067067	-3.9370894268	-0.2838920406	-0.305785
C	-1.7884062927	-4.6128080819	-1.412377738	 0.419416
O	-2.5451868717	-3.7483119984	-2.1058112409	-0.363474
O	-1.7587641499	-5.7923191352	-1.6326704662	-0.331875
H	 1.1711118552	 1.8164470993	-0.4247647237	 0.111133
H	-0.6060359505	 1.7653986471	-0.2769058916	 0.111046
H	 0.416340516	 1.6057666731	 1.1779927391	 0.132347
H	-0.6622075867	-0.1382868547	-1.7785181175	 0.096703
H	 1.1134814044	-0.1790024441	-1.9176910635	 0.097349
H	 0.1498619615	-2.4323540818	-2.2821529091	 0.121659
H	 1.1812383716	-2.4050415325	-0.8408121569	 0.108245
H	-0.011666033	-4.4295156281	-0.2158054146	 0.128955
H	-1.5238473572	-4.1508508586	 0.6488194567	 0.139922
43.513	58.3337	93.021	102.2588	132.0817	223.8512	270.1187	312.2757	331.7385	337.2064	499.3792	561.8226	585.6037	668.9091	785.776	852.7747	861.8375	873.7651	917.1479	993.8592	1038.2868	1102.7639	1121.9264	1142.3557	1167.5441	1185.8214	1206.639	1219.8907	1257.3944	1265.5367	1296.292	1355.1165	1381.3735	1422.0613	1426.5557	1467.8267	1478.2349	1484.755	1486.8916	1499.9573	1505.523	1523.4557	1880.0508	2965.3247	2975.8207	2980.67	3006.0552	3021.2167	3026.202	3064.1822	3081.8502	3119.7882	3465.5048	3551.23
COCC[NH2+]CC([O-])=O	COCCNCC(=O)O	
InChI=1S/C5H11NO3/c1-9-3-2-6-4-5(7)8/h6H,2-4H2,1H3,(H,7,8)	InChI=1S/C5H11NO3/c1-9-3-2-6-4-5(7)8/h6H,2-4H2,1H3,(H,7,8)
