15
gdb 19541	4.43476	1.75627	1.65072	4.425	70.91	-0.2608	0.016	0.2768	818.2881	0.12141	-325.495233	-325.489131	-325.488187	-325.525402	24.119	
N	-0.1343164051	-1.1667039306	 0.004354457	-0.366998
C	-0.0789175034	-0.0088808078	 0.0069312252	 0.113592
C	 0.0091282736	 1.3984596438	 0.0093045334	 0.294568
C	-0.7413199446	 2.4749717285	 0.7861182824	-0.112773
C	 0.5698786351	 3.1220327679	 1.2297557941	-0.227874
C	 1.2147786507	 2.4383189582	-0.0061240535	-0.117302
C	 0.5330004147	 3.1284943758	-1.2183919733	-0.227875
C	-0.7642883428	 2.478989783	-0.7388795462	-0.112767
H	-1.6479631202	 2.3290700871	 1.3581433236	 0.112718
H	 0.6225366632	 4.2149559308	 1.2783474713	 0.100565
H	 0.9257232437	 2.6896884344	 2.1677817723	 0.117552
H	 2.2695186817	 2.1777546773	-0.0226996491	 0.095751
H	 0.5842574029	 4.2216634108	-1.2627818542	 0.100569
H	 0.8603984856	 2.701134565	-2.1689781966	 0.117556
H	-1.687760375	 2.3360291358	-1.2840978663	 0.112719
141.0154	171.8934	405.3443	426.3656	523.5717	552.8592	553.4123	715.6068	726.505	818.2182	886.9554	892.9575	915.4926	964.195	966.4097	989.4601	1015.91	1027.0708	1072.0774	1101.8928	1133.2612	1133.3467	1185.148	1224.2776	1225.4773	1254.9018	1293.3399	1322.605	1416.384	1492.3658	1510.3023	2336.7591	3042.3695	3048.3108	3111.0685	3113.2873	3159.3926	3206.8791	3216.3308
N#CC12C3CC1CC23	N#C[C@@]12[C@H]3C[C@@H]1C[C@@H]23	
InChI=1S/C7H7N/c8-3-7-4-1-5(7)6(7)2-4/h4-6H,1-2H2	InChI=1S/C7H7N/c8-3-7-4-1-5(7)6(7)2-4/h4-6H,1-2H2/t4-,5+,6-,7+
