17
gdb 30080	3.0551	1.26629	0.99584	2.0053	76.11	-0.2238	-0.0353	0.1885	1176.8805	0.136501	-418.053969	-418.045328	-418.044384	-418.088099	30.45	
C	 0.0888870803	 1.424921861	 0.2200235199	-0.361269
N	 0.0658187312	-0.0247982492	 0.1231607039	-0.037708
C	 0.0385110248	-0.7572869401	-1.0265754806	 0.003446
N	-0.0517975191	-2.0486725922	-0.8013085829	-0.269727
C	-0.0924342484	-2.1651303034	 0.564718726	-0.162539
C	-0.0300586787	-0.931587472	 1.1679566851	 0.243373
C	 0.0186333625	-0.5232940723	 2.6076425534	-0.390364
C	 1.456395974	-0.1838592129	 2.9824187288	 0.156589
O	 1.8729737833	 0.9362872284	 3.1349517974	-0.237173
H	 0.8144366448	 1.7488440262	 0.9688231068	 0.174085
H	 0.3708945773	 1.8363249386	-0.750782942	 0.146207
H	-0.8968888449	 1.8175590503	 0.4925675684	 0.143146
H	 0.0863883274	-0.284317956	-1.997038049	 0.127722
H	-0.1689270838	-3.1278552372	 1.0490447943	 0.108785
H	-0.6148884526	 0.3433163235	 2.8214202352	 0.126898
H	-0.3198972352	-1.3665688947	 3.2187237192	 0.134207
H	 2.1291040369	-1.066657558	 3.0556105761	 0.094323
61.5712	92.846	123.0037	158.4555	210.6851	253.7657	343.5967	402.1384	488.3321	639.7777	669.8849	687.263	711.1601	817.4682	845.3997	867.6957	930.468	1003.7442	1053.9065	1084.6365	1148.9695	1156.7846	1168.0509	1219.8944	1274.0725	1285.0442	1308.7637	1383.3624	1413.8575	1418.4878	1456.4382	1463.5861	1489.6657	1516.4382	1534.0951	1585.1999	1821.4017	2894.7051	3040.1803	3045.9298	3102.3772	3114.5607	3148.3785	3238.4852	3242.6613
CN1C=NC=C1CC=O	Cn1cncc1CC=O	
InChI=1S/C6H8N2O/c1-8-5-7-4-6(8)2-3-9/h3-5H,2H2,1H3	InChI=1S/C6H8N2O/c1-8-5-7-4-6(8)2-3-9/h3-5H,2H2,1H3
