17
gdb 70514	2.41244	1.91742	1.24255	3.6038	75.39	-0.2415	-0.0546	0.1869	1003.5991	0.136771	-421.852625	-421.845109	-421.844165	-421.884283	30.072	
O	-0.0340776249	 1.3565202566	 0.1564059499	-0.4783
C	-0.0174593639	-0.0208250725	 0.0189940417	 0.346404
C	-0.5270128919	-0.6251787297	-1.2817577715	-0.34771
C	-1.3264413874	-0.7864017372	-0.0156252977	-0.111237
C	-1.4119824773	-2.1447004282	 0.6520188835	-0.289123
C	-0.077372707	-2.7832347234	 0.9171119944	-0.054713
C	 1.0876392504	-2.1216904559	 0.9120487558	-0.156019
C	 1.1504023947	-0.6698679083	 0.6793813289	 0.326439
O	 2.0914111628	 0.0238721452	 1.0383563021	-0.377628
H	 0.8515560975	 1.5703734092	 0.4947329014	 0.293065
H	-0.8801424336	 0.104297095	-2.0012983098	 0.133268
H	-0.01717161	-1.4875158503	-1.6977028874	 0.120946
H	-2.2102764835	-0.162319739	 0.0667449605	 0.109875
H	-1.9475227968	-2.0688247079	 1.6098239398	 0.13276
H	-2.0191028269	-2.8234287022	 0.03676025	 0.123779
H	-0.088610042	-3.8428005649	 1.1631297033	 0.112993
H	 2.0236177198	-2.6061254865	 1.1699511752	 0.1152
109.4666	201.5699	267.88	333.3416	354.9922	391.0525	444.8678	473.9941	512.3448	528.0225	663.8133	670.6168	766.0947	780.542	872.71	883.1858	894.5695	932.8517	949.2618	1008.5994	1035.0939	1046.4575	1088.1938	1102.1068	1157.8862	1191.572	1235.1013	1240.5275	1314.6257	1364.6021	1405.6037	1413.4988	1445.3872	1460.1949	1486.5853	1678.7141	1742.6339	3003.6452	3028.2155	3134.2917	3154.3187	3167.7069	3193.7216	3231.9228	3673.2677
OC12CC1CC=CC2=O	O[C@]12C[C@H]1CC=CC2=O	
InChI=1S/C7H8O2/c8-6-3-1-2-5-4-7(5,6)9/h1,3,5,9H,2,4H2	InChI=1S/C7H8O2/c8-6-3-1-2-5-4-7(5,6)9/h1,3,5,9H,2,4H2/t5-,7-/m1/s1
