22
gdb 102665	3.03962	0.81837	0.71992	2.778	79.31	-0.2394	0.0659	0.3053	1630.1259	0.193695	-441.439928	-441.429886	-441.428942	-441.475582	36.846	
O	-0.0458054343	 1.4792850434	 0.004122925	-0.423715
C	 0.0039022236	 0.0459704214	-0.0113237586	-0.073149
C	-1.3819642655	-0.6098685531	-0.0939085183	-0.045011
C	-2.1468505012	-0.1620000722	-1.3510348737	-0.054274
O	-2.4763869423	 1.2113947884	-1.3447417127	-0.437404
C	-1.252337793	-2.1384959067	-0.0503606806	-0.162257
N	-0.6524554307	-2.5899763505	 1.2021964562	-0.063503
C	-1.5783637235	-2.8977311521	 2.2885354932	-0.222064
C	-0.8729990861	-3.9860936829	 1.5573380756	-0.220252
H	-0.4176674623	 1.7494412586	 0.8506041324	 0.289556
H	 0.5855324608	-0.2096050773	-0.905035459	 0.111873
H	 0.5494000742	-0.3353977861	 0.85871571	 0.120045
H	-1.9701628328	-0.2904204578	 0.7794520626	 0.073661
H	-1.5536921654	-0.431453539	-2.2442841785	 0.077495
H	-3.0941656207	-0.7100128766	-1.422875629	 0.096932
H	-1.6592247292	 1.6791155319	-1.1201438301	 0.283729
H	-2.2463190905	-2.5934007976	-0.2157145602	 0.082399
H	-0.6073683818	-2.4816487904	-0.8702054196	 0.105354
H	-1.25976814	-2.6034460923	 3.2843365198	 0.117688
H	-2.6445912045	-2.7821539633	 2.0976584415	 0.112375
H	-1.4704196874	-4.5954191002	 0.8806561081	 0.111177
H	-0.0286915473	-4.5002087657	 2.0075521658	 0.119344
57.7327	76.7082	114.9406	137.4408	187.9164	241.6705	311.5311	324.8521	339.4181	382.1451	413.2775	434.2763	596.2185	636.4712	770.2715	827.5877	861.7528	897.0858	906.4919	938.0258	1018.6451	1029.5141	1042.7001	1081.4763	1094.5789	1110.3195	1113.3872	1119.098	1120.8504	1168.7792	1183.5779	1201.7601	1255.6487	1278.1036	1307.7652	1322.1517	1350.5955	1390.3056	1393.6241	1404.2171	1421.9704	1478.2	1487.3839	1496.1609	1503.4745	1516.7182	1521.7573	2929.2429	2935.6536	3000.2095	3032.764	3038.4552	3046.7667	3082.6967	3091.8351	3097.0952	3176.3271	3190.5511	3719.8741	3812.1103
OCC(CO)CN1CC1	OCC(CO)CN1CC1	
InChI=1S/C6H13NO2/c8-4-6(5-9)3-7-1-2-7/h6,8-9H,1-5H2	InChI=1S/C6H13NO2/c8-4-6(5-9)3-7-1-2-7/h6,8-9H,1-5H2
