21
gdb 83260	1.82471	1.73263	1.50063	1.1227	77.48	-0.2418	0.0663	0.3081	1074.1644	0.182378	-424.222128	-424.212987	-424.212043	-424.255157	35.767	
C	-0.0901922836	 1.5789665488	-0.0545072634	-0.420538
C	-0.0040478658	 0.0509916604	-0.0146694026	-0.009141
C	 0.6817742288	-0.5837837739	-1.2467171698	-0.228873
C	 1.300023066	-1.9140828295	-0.7490846274	-0.229018
C	 1.5306501398	-1.727788362	 0.7453804718	-0.150589
C	 2.248970254	-0.4747902652	 1.2223244951	 0.007242
O	 2.9645438361	 0.3731437037	 0.3658324998	-0.418708
C	 0.7474566517	-0.5118725758	 1.1914968947	 0.361633
O	 0.0645769067	-0.5479957372	 2.412403077	-0.475681
H	 0.9085736236	 2.0198625353	-0.121597328	 0.137555
H	-0.6753113713	 1.9187566406	-0.9155801213	 0.11005
H	-0.5801453099	 1.9723671995	 0.8441444879	 0.097746
H	-1.0208256445	-0.3550948507	 0.0765462994	 0.076794
H	-0.0232608573	-0.739156643	-2.0685807811	 0.089916
H	 1.4685593493	 0.0813747975	-1.6072993001	 0.111767
H	 0.6021438726	-2.746885552	-0.8925372217	 0.103587
H	 2.2134522329	-2.171558939	-1.2973784804	 0.088784
H	 1.5988050623	-2.6025344591	 1.3835349869	 0.088993
H	 2.6636996787	-0.5542733741	 2.2280803842	 0.087303
H	 3.7656782396	-0.0866778033	 0.0929375643	 0.289432
H	 0.0744582702	 0.3409754591	 2.7842106648	 0.281746
121.2566	183.2822	212.7872	228.2639	243.2467	260.9156	279.2376	321.199	362.1544	409.2682	521.6457	551.8078	570.4374	677.9135	691.3056	788.1987	836.1696	899.0862	902.6473	941.4712	965.864	993.3906	1045.2542	1058.1216	1069.3915	1111.1006	1135.4414	1147.7262	1189.9344	1228.5814	1240.2559	1260.5525	1293.0527	1319.7417	1326.2624	1334.4918	1342.9933	1365.1289	1384.1677	1406.6952	1471.438	1486.3961	1499.8279	1504.303	1507.8151	3009.9899	3026.6513	3031.593	3062.4555	3062.9268	3085.9884	3093.0633	3113.9357	3118.1319	3167.1759	3793.4228	3799.1257
CC1CCC2C(O)C12O	C[C@H]1CC[C@H]2[C@@H](O)[C@@]12O	
InChI=1S/C7H12O2/c1-4-2-3-5-6(8)7(4,5)9/h4-6,8-9H,2-3H2,1H3	InChI=1S/C7H12O2/c1-4-2-3-5-6(8)7(4,5)9/h4-6,8-9H,2-3H2,1H3/t4-,5-,6+,7+/m0/s1
