18
gdb 57695	3.14085	0.82578	0.75684	2.7644	78.63	-0.2707	0.0121	0.2828	1525.7902	0.144015	-401.929107	-401.918775	-401.917831	-401.964602	37.332	
C	 0.1816758015	 1.5760735934	 0.0083910325	-0.403917
C	 0.0000415414	 0.0531162887	-0.0016260073	 0.189896
O	 0.6602626699	-0.4265027393	 1.1654248036	-0.438115
C	-1.4837205831	-0.3882396322	-0.0302787999	-0.205455
C	-2.2794722451	 0.0787113761	 1.2058058044	-0.378987
C	-3.6094331637	-0.5144504712	 1.2519634458	 0.280885
C	-4.700009172	-1.0189854287	 1.2661205698	-0.419452
C	 0.6630630021	-0.5082609726	-1.2057002158	 0.249429
N	 1.1721362203	-0.9748310069	-2.1324078026	-0.331528
H	 1.2443320398	 1.8225729945	-0.0302466589	 0.148308
H	-0.320480476	 2.0319494554	-0.8479487348	 0.136684
H	-0.2326644405	 1.9867914441	 0.9312486377	 0.140758
H	 0.6494593475	-1.3907979558	 1.1507197295	 0.295118
H	-1.9547993726	-0.0187814176	-0.9464813223	 0.13143
H	-1.5166363067	-1.4820778192	-0.0844752831	 0.121882
H	-1.7180679062	-0.1846238508	 2.1093777065	 0.146975
H	-2.3707330673	 1.1709311937	 1.20559879	 0.137743
H	-5.6666006692	-1.4578621015	 1.2914219951	 0.198347
59.1813	92.6281	107.3826	184.9384	186.9038	237.5654	244.0873	332.5926	345.4596	366.2208	397.2714	447.797	475.3502	591.039	606.9193	624.2233	646.3569	754.6811	772.1072	900.4511	952.9878	975.689	988.8498	1037.7135	1098.9585	1155.7104	1181.786	1223.6701	1291.5355	1311.4619	1373.4038	1387.2528	1414.0545	1472.2935	1483.5955	1491.0813	1499.5853	2241.9306	2351.3249	3036.9641	3049.8243	3061.1079	3070.5581	3098.2145	3143.5061	3144.7411	3506.4052	3797.9821
CC(O)(CCC#C)C#N	C[C@@](O)(CCC#C)C#N	
InChI=1S/C7H9NO/c1-3-4-5-7(2,9)6-8/h1,9H,4-5H2,2H3	InChI=1S/C7H9NO/c1-3-4-5-7(2,9)6-8/h1,9H,4-5H2,2H3/t7-/m1/s1
