20
gdb 22106	2.72547	0.88736	0.77906	1.9093	79.67	-0.2347	-0.0243	0.2104	1551.4387	0.16695	-440.276202	-440.265295	-440.264351	-440.313695	37.942	
C	 0.8059644192	 1.3245864517	 0.1326115355	-0.377681
C	 0.7563831416	-0.1635199877	-0.2001311479	-0.27807
C	 0.1675288575	-0.4684072307	-1.5660227127	 0.373729
O	-0.3232868943	 0.3804169797	-2.2748358021	-0.303717
C	 0.2695217469	-1.9296670299	-2.0282716701	-0.361001
C	 1.5003558886	-2.0984717279	-2.8930398406	 0.352841
C	 1.4805868246	-1.5375746762	-4.2866346707	-0.484892
N	 2.4814017499	-2.7063647098	-2.3411754517	-0.165908
O	 3.5869339064	-2.8208368004	-3.1972921735	-0.394296
H	 1.4368054013	 1.8632382835	-0.5796513926	 0.129647
H	-0.1914881629	 1.7680767255	 0.082028453	 0.133207
H	 1.2075516457	 1.483591125	 1.1371387705	 0.111123
H	 1.7502375974	-0.6290079442	-0.1579299109	 0.137448
H	 0.1569653569	-0.7169521857	 0.5378244359	 0.124815
H	 0.3399066877	-2.6035439436	-1.1721824525	 0.122438
H	-0.6271514082	-2.1608546764	-2.6119789016	 0.127038
H	 0.8409406552	-0.6527026588	-4.325305833	 0.155958
H	 2.4876719316	-1.2907089701	-4.6239624903	 0.150721
H	 1.0669349886	-2.2786151137	-4.9820394528	 0.140011
H	 4.2258630965	-3.2766870002	-2.639549932	 0.306589
39.5327	43.0238	82.9854	108.8571	140.2322	192.3965	236.9812	299.2309	307.1493	342.9096	393.9113	415.7675	503.5669	522.7046	618.7286	647.2884	761.143	803.9466	840.445	927.7022	987.6854	997.0181	1008.361	1050.3882	1087.2789	1096.255	1128.174	1207.3674	1264.2637	1271.3941	1299.4291	1374.0592	1394.1182	1403.89	1412.2369	1449.0864	1465.4253	1484.2304	1488.879	1492.2373	1497.992	1725.144	1803.987	3013.2813	3037.4255	3047.9006	3051.0516	3055.5402	3107.852	3121.3622	3125.4691	3127.3723	3155.8277	3822.1717
CCC(=O)CC(C)=NO	CCC(=O)CC(=NO)C	
InChI=1S/C6H11NO2/c1-3-6(8)4-5(2)7-9/h9H,3-4H2,1-2H3	InChI=1S/C6H11NO2/c1-3-6(8)4-5(2)7-9/h9H,3-4H2,1-2H3
