23
gdb 120681	2.25682	0.78254	0.61871	0.1923	96.53	-0.2244	0.0578	0.2822	1911.2949	0.203682	-351.131708	-351.120593	-351.119648	-351.170384	38.981	
C	-0.2346345587	 1.5164042085	 0.0729052861	-0.380256
C	-0.2312401007	-0.002192608	-0.120956664	-0.157185
C	 0.9145630809	-0.4878081056	-1.0187452615	-0.194175
C	 0.9248822242	-1.9892004434	-1.2020561315	 0.005335
C	 0.0713998585	-2.6475683056	-2.2486728933	-0.288567
C	 1.5861031758	-2.6403703395	-2.4131900832	-0.210227
C	 2.2064390047	-1.8545703779	-3.441426901	 0.095122
C	 2.7432166792	-1.2071932858	-4.3054074793	 0.049714
C	 3.3895712185	-0.4292570378	-5.3529013325	-0.498017
H	 0.69900484	 1.8592582658	 0.5329147235	 0.113086
H	-0.3390026647	 2.0371487438	-0.8855833583	 0.113633
H	-1.0598119945	 1.8361645289	 0.7170108362	 0.109583
H	-0.1607341144	-0.4965393395	 0.8571628179	 0.091571
H	-1.1876527939	-0.3228819304	-0.5531699231	 0.097215
H	 0.8473823851	-0.0036195121	-2.0002151601	 0.103747
H	 1.8740106921	-0.1668677737	-0.5902356124	 0.095195
H	 1.0492599502	-2.55108264	-0.2789015884	 0.084217
H	-0.4062182178	-3.5957200784	-2.0276475269	 0.111877
H	-0.4899248797	-2.0035319056	-2.9170374927	 0.119631
H	 2.0792124284	-3.5881184269	-2.2140004849	 0.103814
H	 4.1051850751	-1.0402460118	-5.9147150498	 0.146298
H	 2.6592967728	-0.0373865065	-6.0701004979	 0.144217
H	 3.9390704488	 0.4248191514	-4.9407197128	 0.144171
15.0726	57.5448	73.5628	94.5919	135.1487	161.0975	244.1871	251.1614	291.4225	329.8978	387.7592	422.3977	509.191	581.0403	701.8873	744.3194	804.1648	852.8964	861.7275	897.5456	926.9746	978.8934	1005.4877	1050.3588	1051.8293	1053.8993	1065.6199	1098.1194	1117.0183	1139.2782	1181.626	1199.4213	1243.5087	1269.0461	1303.1914	1326.8152	1378.7191	1392.5102	1411.0574	1414.9406	1422.9123	1477.9276	1479.7054	1480.3817	1488.8577	1494.8315	1499.5496	1510.9665	2364.7968	3011.5202	3017.8324	3021.9266	3028.0612	3042.429	3065.4869	3079.6949	3082.2004	3094.6597	3099.9985	3126.0464	3131.9323	3138.4909	3221.1191
CCCC1CC1C#CC	CCC[C@H]1C[C@H]1C#CC	
InChI=1S/C9H14/c1-3-5-8-7-9(8)6-4-2/h8-9H,3,5,7H2,1-2H3	InChI=1S/C9H14/c1-3-5-8-7-9(8)6-4-2/h8-9H,3,5,7H2,1-2H3/t8-,9+/m0/s1
