16
gdb 33338	5.25502	0.77702	0.73865	1.711	92.25	-0.2359	-0.025	0.2109	1518.4796	0.123576	-363.506254	-363.498062	-363.497118	-363.539455	30.958	
C	-0.0118939248	-3.8476366895	-0.1246913348	-0.561004
C	-0.0024641666	-2.6407865024	-0.079636108	 0.306132
C	 0.0075567191	-1.2818784273	-0.0277577494	-0.333835
C	 0.015979302	-0.0712019543	 0.0206635331	 0.522502
C	 0.0245801249	 1.3729271153	 0.0874648642	-0.203308
C	-0.2457329486	 2.0637621955	 1.4664747956	-0.264608
C	 1.1469982091	 2.6666640607	 1.3324257427	-0.007793
C	 2.1698158194	 1.6247610009	 1.133596151	-0.236602
N	 1.3840131423	 2.0530058538	-0.0407717073	-0.129974
H	-0.019401711	-4.9085347535	-0.1656186396	 0.193555
H	-0.619148291	 1.7824972373	-0.6956917439	 0.121617
H	-1.0541729765	 2.7931287967	 1.4016136073	 0.120408
H	-0.4169414751	 1.4111366543	 2.3257469834	 0.117845
H	 1.3999660292	 3.7022992828	 1.5330930475	 0.100668
H	 3.2057609709	 1.941932055	 1.0692797839	 0.126716
H	 2.0235090966	 0.6237452048	 1.5323845644	 0.127681
73.4863	86.0993	186.484	228.767	299.3982	406.2564	438.6875	498.1334	522.3519	550.8422	590.6364	605.4424	703.4959	753.9783	761.9339	778.2586	907.915	933.6795	957.1588	999.2193	1050.0492	1078.3147	1112.4665	1131.2287	1150.2859	1199.5784	1223.9676	1243.4262	1271.1329	1349.2992	1367.4977	1487.4001	1503.6567	2179.1808	2352.1366	3066.9945	3071.5205	3113.2853	3131.2341	3169.3055	3204.988	3504.5066
C#CC#CC1CC2CN12	C#CC#C[C@H]1C[C@H]2CN12	
InChI=1S/C8H7N/c1-2-3-4-7-5-8-6-9(7)8/h1,7-8H,5-6H2	InChI=1S/C8H7N/c1-2-3-4-7-5-8-6-9(7)8/h1,7-8H,5-6H2/t7-,8-,9?/m0/s1
