18
gdb 84637	2.23212	1.81945	1.35732	2.8275	77.33	-0.2302	-0.0219	0.2084	1016.7998	0.149063	-401.95367	-401.945797	-401.944853	-401.985952	30.608	
C	-0.4045632362	 1.4513446337	 0.0123870581	-0.402004
C	 0.0335965377	-0.0352308427	-0.0373299729	-0.150792
C	 0.8241803418	-0.3424637577	-1.2865850186	-0.083405
C	 2.1461162999	-0.5076577547	-1.311410791	-0.032116
C	 2.9737360083	-0.3676481158	-0.0863657319	-0.090725
N	 2.857672376	 0.92499345	 0.6180517775	-0.32872
C	 2.2727073427	-0.2891196305	 1.2369139194	-0.145492
C	 0.7799428663	-0.4004000253	 1.2470401219	 0.429428
O	 0.194580899	-0.8071851228	 2.2269192829	-0.336408
H	 0.4703161974	 2.103318284	 0.0500147191	 0.152362
H	-0.9902583924	 1.7011805142	-0.8776173632	 0.115282
H	-1.0257627582	 1.628833333	 0.894871015	 0.13047
H	-0.8769974516	-0.6454561398	-0.0246323827	 0.105589
H	 0.2523876558	-0.4039658551	-2.2094627017	 0.099438
H	 2.6621420718	-0.7206144373	-2.2427075258	 0.095348
H	 3.9497597189	-0.8451751812	-0.0933047909	 0.097851
H	 3.7280506086	 1.1386321357	 1.1005401321	 0.242151
H	 2.7503299844	-0.7064814178	 2.1181699925	 0.101746
85.4715	170.0255	217.2009	240.4588	293.3235	341.2836	443.9875	477.4108	535.2144	587.957	664.105	744.6825	751.5766	808.1869	851.8617	889.2227	908.5855	935.8408	972.0151	987.3879	990.0758	1057.2211	1085.0547	1109.4559	1154.7651	1162.8947	1193.8396	1251.3017	1263.2603	1304.7736	1343.0681	1377.8264	1393.5645	1411.2163	1441.7985	1492.2236	1507.352	1715.8345	1798.0622	3041.2116	3042.557	3113.1292	3142.4794	3144.0967	3152.5125	3162.8758	3180.4801	3492.5793
CC1C=CC2NC2C1=O	C[C@H]1C=C[C@H]2N[C@H]2C1=O	
InChI=1S/C7H9NO/c1-4-2-3-5-6(8-5)7(4)9/h2-6,8H,1H3	InChI=1S/C7H9NO/c1-4-2-3-5-6(8-5)7(4)9/h2-6,8H,1H3/t4-,5+,6+/m0/s1
