19
gdb 90349	2.90095	1.60697	1.24168	1.5025	76.7	-0.2302	0.0214	0.2516	1052.1885	0.161376	-419.193508	-419.185571	-419.184627	-419.225868	30.794	
C	-0.2803449277	 1.3722586262	 0.1221885039	-0.391946
C	 0.0250568404	-0.1104767453	-0.0031433108	-0.007739
N	 1.2429271516	-0.4490291249	-0.8128149423	-0.371715
C	 2.0034086205	-0.6074028939	 0.3381466116	 0.369375
N	 3.217621836	-0.4320911426	 0.6475971133	-0.325873
C	 3.3358410749	-0.4941509543	 2.1177755638	-0.183033
C	 2.2401541078	 0.3545087427	 2.7824527164	-0.070056
O	 0.9019320261	-0.0525334814	 2.4456661909	-0.276227
C	 0.7895387345	-0.7373903596	 1.2245714971	 0.023548
H	 0.5988178713	 1.9299624738	 0.4577035213	 0.129896
H	-0.6067414477	 1.7851269133	-0.8380408473	 0.116824
H	-1.0807237752	 1.5327722145	 0.8506585912	 0.134681
H	-0.8556101656	-0.670938226	-0.3302836911	 0.083768
H	 1.5633979385	 0.1192539319	-1.5882761493	 0.239485
H	 3.2836702308	-1.5299339867	 2.4830577593	 0.107744
H	 4.3123786449	-0.098049449	 2.4125678301	 0.109119
H	 2.3061995818	 0.2913126723	 3.8733259007	 0.108856
H	 2.3852614485	 1.403958364	 2.4880753044	 0.101137
H	 0.4683789386	-1.769400135	 1.4058895467	 0.102155
87.7697	165.857	199.0077	222.0274	310.0733	379.2374	413.6231	503.5718	505.9625	519.9841	624.0633	745.5004	762.8618	810.8378	845.2889	878.5341	908.6488	947.4517	1020.277	1046.6558	1066.3073	1082.7027	1100.4916	1116.29	1181.0541	1209.1989	1217.3759	1250.4102	1282.317	1306.7226	1340.5227	1357.2763	1368.8486	1384.2172	1406.3766	1415.6298	1487.3979	1491.8591	1493.7154	1506.8991	1793.614	2996.9254	3007.2033	3036.1443	3038.581	3062.5262	3076.0773	3078.9099	3108.1831	3120.2341	3554.7017
CC1NC2=NCCOC12	C[C@H]1N[C]2[N]CCO[C@@H]12	
InChI=1S/C6H10N2O/c1-4-5-6(8-4)7-2-3-9-5/h4-5H,2-3H2,1H3,(H,7,8)	InChI=1S/C6H10N2O/c1-4-5-6(8-4)7-2-3-9-5/h4-5H,2-3H2,1H3,(H,7,8)/t4-,5+/m1/s1
