17
gdb 84051	3.45085	1.2051	0.99168	5.0687	81.3	-0.2551	-0.0466	0.2085	1193.6822	0.13759	-380.873416	-380.865566	-380.864622	-380.905799	30.031	
C	-0.111899469	 1.5807439995	 0.0783438829	-0.396421
C	 0.0218531237	 0.0512690965	 0.0105258204	-0.027844
C	 0.8074796998	-0.4415476655	-1.1876806139	-0.174474
C	 1.8149056867	-1.2614160962	-0.846350663	 0.254915
C	 2.7158090336	-1.9033219147	-1.736244338	 0.195043
N	 3.4583744019	-2.452077599	-2.4362492565	-0.34039
C	 1.8977706626	-1.3944233567	 0.6471547046	-0.177026
N	 2.1833393219	-0.0891530018	 1.2950257742	-0.324577
C	 0.7889550883	-0.5638993751	 1.184840433	-0.05571
H	 0.8742509072	 2.0381281231	 0.1858678359	 0.14769
H	-0.5868789258	 1.9751018156	-0.8251045497	 0.118162
H	-0.7261079652	 1.8740838943	 0.9352763457	 0.118581
H	-0.9873649603	-0.3849448542	-0.0274479924	 0.095717
H	 0.5810138718	-0.1340098127	-2.2021289732	 0.123261
H	 2.2474855016	-2.3116663161	 1.1059031468	 0.109356
H	 2.5131081974	-0.2563373952	 2.2438110149	 0.237126
H	 0.2555934838	-0.8397973817	 2.0879146883	 0.096591
109.9151	145.0994	187.3233	231.4188	264.8454	393.9848	430.927	495.265	548.897	574.8767	653.0891	707.662	812.5713	854.9273	868.7771	877.1829	902.003	915.3482	947.0431	1028.5103	1058.8886	1101.6901	1118.3094	1137.7598	1165.5661	1181.8405	1244.3708	1273.2807	1311.6381	1332.4201	1372.943	1398.7168	1416.784	1493.8576	1505.3485	1658.4433	2337.4229	2998.291	3042.2815	3108.1147	3134.0573	3169.2112	3188.5079	3207.1661	3488.5997
CC1C=C(C#N)C2NC12	C[C@H]1C=C(C#N)[C@H]2N[C@@H]12	
InChI=1S/C7H8N2/c1-4-2-5(3-8)7-6(4)9-7/h2,4,6-7,9H,1H3	InChI=1S/C7H8N2/c1-4-2-5(3-8)7-6(4)9-7/h2,4,6-7,9H,1H3/t4-,6-,7+/m0/s1
