17
gdb 98341	3.51543	0.88522	0.74145	3.0702	71.9	-0.257	-0.0067	0.2503	1497.9358	0.132267	-458.956769	-458.946521	-458.945577	-458.992976	35.459	
C	-0.0083333136	 1.332699234	 0.0141728892	-0.245375
O	-0.0850033956	-0.1030767376	 0.0056112199	-0.224027
C	-1.317484243	-0.617665197	 0.0038686471	 0.415591
O	-2.3350578761	 0.0353299078	 0.0095359133	-0.37422
C	-1.3193489344	-2.1436162229	-0.0122221319	 0.024271
O	-2.6340898458	-2.605880796	 0.1170855043	-0.426899
C	-0.656919543	-2.6681786421	-1.3142560324	-0.369597
C	-0.5562148146	-4.1198521094	-1.3358500076	 0.313159
C	-0.460901849	-5.317335864	-1.3387927489	-0.438596
H	 1.0546949346	 1.5706535307	 0.0158969417	 0.142961
H	-0.4946834152	 1.7459451784	-0.8723660465	 0.148163
H	-0.4944335144	 1.7338072384	 0.9063589872	 0.149628
H	-0.7150144908	-2.4903543967	 0.8377678406	 0.114477
H	-3.1987112202	-1.8196921797	 0.0697060449	 0.296808
H	-1.2548632324	-2.3204731516	-2.1659403977	 0.1361
H	 0.3385596266	-2.2200373053	-1.408520929	 0.141185
H	-0.385014043	-6.3762376471	-1.3473467941	 0.19637
48.7363	67.2378	101.2406	116.8812	161.504	201.3936	276.6973	340.0351	355.9771	363.4027	400.1957	444.9171	527.5652	617.8885	642.1005	682.1391	768.476	874.2457	920.4034	985.4753	1010.822	1042.5673	1136.146	1177.9559	1209.893	1236.1209	1241.6836	1295.614	1321.6632	1368.1315	1448.3012	1462.3225	1477.4499	1482.5522	1495.6141	1804.2458	2243.8658	3013.1576	3031.55	3057.8585	3076.5358	3136.3366	3168.681	3507.5948	3715.471
COC(=O)C(O)CC#C	COC(=O)[C@@H](O)CC#C	
InChI=1S/C6H8O3/c1-3-4-5(7)6(8)9-2/h1,5,7H,4H2,2H3	InChI=1S/C6H8O3/c1-3-4-5(7)6(8)9-2/h1,5,7H,4H2,2H3/t5-/m0/s1
