27
gdb 116445	2.33229	1.18661	0.92409	0.0378	95.29	-0.281	0.0793	0.3603	1448.5773	0.254006	-353.592114	-353.58215	-353.581206	-353.626504	39.122	
C	 0.045931273	 1.594378308	 0.1489699024	-0.391693
C	 0.0112891889	 0.0794886585	-0.0845640368	-0.193619
C	-1.4032349823	-0.5278141376	-0.1035737348	 0.062235
C	-2.2180939618	-0.1031902776	-1.3407574405	-0.193748
C	-3.6507753905	-0.6556002736	-1.3031975752	-0.195658
C	-3.6643916911	-2.1793913179	-1.1270779612	-0.182583
C	-2.8444805073	-2.599998862	 0.1017262641	-0.208581
C	-1.3945718751	-2.0708493119	 0.0652029063	 0.019908
C	-0.5425580254	-2.8139619316	-0.9781247726	-0.396462
H	 1.0766301683	 1.9604944583	 0.1934013751	 0.109405
H	-0.4608569294	 2.1439814513	-0.650278803	 0.117835
H	-0.4416518952	 1.8600244377	 1.0938498659	 0.111781
H	 0.5254034282	-0.1506712777	-1.0263996955	 0.09428
H	 0.5939091202	-0.4120406794	 0.7062518763	 0.087595
H	-1.9332257964	-0.1323842047	 0.7779671307	 0.058922
H	-2.2486997748	 0.989393714	-1.4128131834	 0.088994
H	-1.7128268215	-0.4530829072	-2.251607117	 0.090848
H	-4.1905165617	-0.1921535862	-0.4652047391	 0.089403
H	-4.1905270254	-0.3708533077	-2.2138013239	 0.085606
H	-4.6943942239	-2.5413673579	-1.0293479399	 0.086914
H	-3.2581289798	-2.6551011011	-2.0289984139	 0.093602
H	-3.3379677715	-2.2103332202	 1.0027538794	 0.085765
H	-2.838741391	-3.6923902171	 0.1999273708	 0.083315
H	-0.9445841717	-2.2803516386	 1.0458049432	 0.059845
H	-0.8909982679	-2.6478768477	-2.0020867577	 0.115149
H	 0.5062304927	-2.5070797919	-0.9343596017	 0.113164
H	-0.5757419274	-3.8933813481	-0.7943522182	 0.107778
78.428	119.3497	163.6303	207.2883	221.5102	230.6712	296.5417	314.7975	338.8503	390.3072	416.7531	483.9574	525.7067	604.2533	743.7258	778.4712	808.7647	842.078	855.318	905.5146	911.4015	961.4902	982.5389	986.7689	1014.0523	1045.2388	1052.4325	1067.486	1102.0642	1108.3969	1126.0711	1177.1908	1182.944	1231.0188	1271.1404	1278.1796	1298.8772	1319.6924	1335.6596	1347.6456	1360.8969	1368.7423	1379.1669	1384.6591	1394.3478	1404.8494	1411.1176	1415.9606	1480.8099	1482.1593	1485.1519	1488.4017	1500.3963	1501.2741	1504.4101	1508.9605	1509.6761	2967.6997	2995.015	3006.2547	3010.2104	3013.2801	3016.6408	3021.145	3031.117	3036.8659	3045.9265	3050.5079	3056.5096	3061.7472	3066.8241	3096.4936	3098.0254	3104.1451	3110.2373
CCC1CCCCC1C	CC[C@H]1CCCC[C@H]1C	
InChI=1S/C9H18/c1-3-9-7-5-4-6-8(9)2/h8-9H,3-7H2,1-2H3	InChI=1S/C9H18/c1-3-9-7-5-4-6-8(9)2/h8-9H,3-7H2,1-2H3/t8-,9+/m1/s1
