21
gdb 54139	2.31571	1.3963	1.1183	1.7641	79.98	-0.2394	-0.0129	0.2265	1204.0029	0.178287	-424.242213	-424.231666	-424.230722	-424.277136	39.317	
C	 0.1297227054	 1.2305766723	 0.6704888129	-0.488169
C	-0.0326052425	 0.0340786529	-0.2507653042	 0.330814
O	 0.8467865838	-0.2608842866	-1.0362517308	-0.319874
C	-1.3038008448	-0.7684090997	-0.1397259589	 0.168107
C	-2.5081846838	-0.0855620073	 0.4867035184	-0.477128
C	-1.5407397941	-1.7747232632	-1.2645305333	-0.375557
C	-1.1443862838	-2.2855504178	 0.0854079259	 0.377336
C	 0.1977849004	-2.9410526539	 0.3173385224	-0.463737
O	-2.1632387049	-2.8139619274	 0.8985764308	-0.459643
H	 1.1176139747	 1.665420267	 0.5166193824	 0.13885
H	-0.6377301555	 1.9855407402	 0.4702273604	 0.142073
H	 0.0133097122	 0.9318596357	 1.7180263825	 0.141099
H	-2.8005845184	 0.7978587373	-0.091671896	 0.114601
H	-3.3559216142	-0.7690837659	 0.5211813813	 0.137481
H	-2.3098240589	 0.2343912779	 1.514257245	 0.119692
H	-2.570307765	-1.9194795629	-1.5733228495	 0.109795
H	-0.7942258082	-1.780691915	-2.0508503782	 0.135057
H	 0.9817791111	-2.4770118953	-0.2803824568	 0.158901
H	 0.4704347885	-2.888981226	 1.376317581	 0.120724
H	 0.1404488467	-4.0009509978	 0.0389402392	 0.104755
H	-2.3031737187	-3.7281791245	 0.6279509452	 0.284826
59.4918	142.2653	170.1217	182.5492	192.484	218.9332	244.4512	279.6006	303.9231	357.2472	398.158	419.3171	461.1207	467.3966	574.7752	603.8799	658.4512	706.6204	819.1986	896.8528	932.044	958.0932	968.0068	1004.4543	1035.6297	1054.7154	1087.5618	1108.2049	1143.3936	1194.4488	1234.4282	1296.2665	1319.349	1371.9324	1381.731	1411.9914	1417.8947	1459.079	1460.0641	1473.4241	1495.6203	1498.632	1499.7813	1504.518	1774.9565	3026.882	3036.7267	3041.5365	3088.1204	3096.1428	3102.0134	3132.1475	3150.0229	3154.3734	3158.6459	3231.743	3797.4444
CC(=O)C1(C)CC1(C)O	CC(=O)[C@@]1(C)C[C@]1(C)O	
InChI=1S/C7H12O2/c1-5(8)6(2)4-7(6,3)9/h9H,4H2,1-3H3	InChI=1S/C7H12O2/c1-5(8)6(2)4-7(6,3)9/h9H,4H2,1-3H3/t6-,7+/m1/s1
