23
gdb 120503	4.28123	0.77429	0.71639	0.9345	89.67	-0.241	0.0209	0.2619	1707.6072	0.205002	-388.303471	-388.293545	-388.292601	-388.339111	36.563	
C	-0.1076339556	 1.5529513289	 0.0955258275	-0.383432
C	-0.0329441416	 0.0536924965	-0.1435574984	-0.036485
O	-1.3066042831	-0.5019110568	 0.1129625342	-0.257294
C	-1.3695103989	-1.9162094306	-0.0091022625	 0.109437
C	-2.6716785168	-2.4204445006	 0.6468730079	-0.258092
C	-3.2059810831	-3.5623081559	-0.2563803457	-0.013704
C	-4.7325642124	-3.5936644686	-0.3929200895	-0.396362
C	-2.4704925625	-3.3145007957	-1.5558263059	-0.062968
C	-1.4863935406	-2.427558781	-1.4309484777	-0.107924
H	 0.865684993	 2.0187286509	-0.0861636074	 0.111752
H	-0.8423589707	 2.0110457464	-0.572734526	 0.12616
H	-0.4074575267	 1.7613200937	 1.1265052865	 0.12499
H	 0.2851322464	-0.1494318463	-1.1791886794	 0.084831
H	 0.7210400458	-0.4066846294	 0.5181230523	 0.08305
H	-0.4765724858	-2.3464624078	 0.4788304694	 0.062404
H	-2.5335443147	-2.7226039916	 1.6877178475	 0.09499
H	-3.3749056132	-1.5809558893	 0.6348699668	 0.11587
H	-2.8863960172	-4.5335348385	 0.1511261648	 0.078414
H	-5.1047934689	-2.6536233688	-0.8144612514	 0.118568
H	-5.056799743	-4.4091929785	-1.0485063242	 0.110053
H	-5.2114000331	-3.7392869269	 0.5811679386	 0.113701
H	-2.7282230393	-3.8408174605	-2.4701333492	 0.089623
H	-0.811051158	-2.1186093994	-2.2209302482	 0.092417
47.203	67.7507	91.1313	180.7654	218.0719	244.6824	256.5348	296.5939	336.5006	417.9739	440.6807	582.7752	614.7705	743.4302	778.9867	821.148	846.7965	866.1099	907.3737	938.7072	952.0024	978.9174	1026.2673	1044.3097	1067.8628	1104.9168	1118.2067	1144.5965	1154.928	1173.6714	1189.0609	1216.3887	1285.0714	1297.8344	1304.6283	1324.6849	1339.8662	1358.1915	1387.8334	1401.8422	1409.1224	1437.6364	1483.3743	1484.4209	1497.1522	1498.4402	1500.2198	1529.4537	1684.7106	2933.3528	2955.0212	2981.6641	2982.7674	3026.947	3044.025	3055.147	3095.7083	3098.9465	3107.5651	3118.1734	3121.0833	3169.9714	3201.6279
CCOC1CC(C)C=C1	CCO[C@H]1C[C@@H](C)C=C1	
InChI=1S/C8H14O/c1-3-9-8-5-4-7(2)6-8/h4-5,7-8H,3,6H2,1-2H3	InChI=1S/C8H14O/c1-3-9-8-5-4-7(2)6-8/h4-5,7-8H,3,6H2,1-2H3/t7-,8+/m0/s1
