20
gdb 13511	3.14831	1.56067	1.38791	2.5998	75.04	-0.2379	-0.0108	0.2271	1020.2333	0.175666	-349.022477	-349.013485	-349.012541	-349.056533	32.566	
C	-0.7332279572	 1.2783106273	 0.2068559783	-0.399673
C	-0.2360733243	-0.1628545415	 0.1459329473	 0.0103
C	 0.7922612286	-0.4321263175	-0.9916595928	-0.221833
C	 1.9399231037	-0.3948354097	 0.0498430273	-0.234462
C	 0.8998578775	-0.5478633663	 1.1846803663	-0.084385
C	 1.0380417009	 0.337823048	 2.4048480148	 0.380475
C	 0.2432652475	-0.0747310996	 3.6313698256	-0.480537
O	 1.7237204598	 1.3372666527	 2.3965118346	-0.310326
H	 0.0965302264	 1.9910550713	 0.23135227	 0.138981
H	-1.345418426	 1.4999166214	-0.6740362098	 0.11278
H	-1.3501344814	 1.4594683493	 1.0939332698	 0.111979
H	-1.089585347	-0.8466579647	 0.1653985308	 0.070215
H	 0.664227683	-1.4212642497	-1.439691673	 0.09795
H	 0.8252097952	 0.3088296333	-1.7952762705	 0.097802
H	 2.7067667491	-1.1693159107	-0.0194285209	 0.097052
H	 2.4274268267	 0.580012251	 0.1141855617	 0.12742
H	 0.7687861739	-1.588879105	 1.4960914974	 0.071192
H	 0.655585661	-1.0047703217	 4.0409531102	 0.139932
H	 0.2884568535	 0.7063819878	 4.3912770106	 0.139484
H	-0.7995063909	-0.2830776257	 3.3665534422	 0.135655
49.4282	87.6455	123.2337	154.6731	237.1656	253.9274	343.7272	355.932	392.9077	566.3385	599.3914	667.2513	753.5467	777.3512	885.1019	896.4783	927.1078	941.4719	967.0066	984.9013	1009.1972	1068.7899	1086.9981	1136.3121	1156.0178	1188.6597	1224.3469	1239.144	1260.304	1276.2517	1284.9565	1356.2794	1368.8518	1384.1509	1416.9789	1462.1464	1474.2373	1482.9586	1493.0019	1498.9378	1501.6	1798.8038	3029.9097	3031.4288	3047.2205	3053.2018	3063.2648	3073.1052	3091.0101	3092.7169	3100.7268	3111.5928	3131.1315	3149.5347
CC1CCC1C(C)=O	C[C@H]1CC[C@H]1C(=O)C	
InChI=1S/C7H12O/c1-5-3-4-7(5)6(2)8/h5,7H,3-4H2,1-2H3	InChI=1S/C7H12O/c1-5-3-4-7(5)6(2)8/h5,7H,3-4H2,1-2H3/t5-,7+/m0/s1
