17
gdb 55977	3.56507	0.98014	0.8215	1.7375	71.29	-0.2557	0.0112	0.2669	1379.5993	0.135123	-455.174544	-455.16519	-455.164245	-455.210869	32.207	
C	-0.0392741159	 1.5038481001	 0.0537811534	-0.488218
C	-0.3596792144	 0.0338385627	-0.1489045945	 0.408279
O	-1.3578081996	-0.5014557385	 0.2991957843	-0.371127
N	 0.5581711043	-0.6769354756	-0.8729294099	-0.331364
C	 0.4357668451	-2.105146561	-0.988488399	-0.063944
C	-0.565053173	-2.6999223694	-2.0052261533	-0.085651
O	 0.5497508816	-3.3546575958	-2.7062548077	-0.251179
C	 1.4715634223	-2.7482914576	-1.8896589754	 0.400606
N	 2.7234898824	-2.6993356234	-1.9301154585	-0.547947
H	 0.3997657104	 1.6395998197	 1.0476331349	 0.155368
H	 0.6599117377	 1.8961343594	-0.6891901651	 0.122733
H	-0.9684232717	 2.0747033638	 0.0197576432	 0.155628
H	 1.4319279006	-0.2638713138	-1.1588069713	 0.263895
H	 0.3489011417	-2.57557603	-0.0044278099	 0.13248
H	-1.2748886665	-3.4334830171	-1.6220925525	 0.134438
H	-1.0557211128	-1.9702196826	-2.6512970075	 0.131325
H	 3.0990085478	-3.2257032511	-2.720626181	 0.234679
28.2224	44.1097	91.6721	118.5108	156.0534	231.6416	349.6266	416.4992	429.6181	488.1845	612.9097	635.1605	660.0929	737.5996	866.9558	886.2607	914.506	949.2267	996.4042	1016.4306	1022.0899	1053.5449	1080.3336	1149.2444	1201.8621	1209.3511	1236.9111	1277.7801	1344.98	1389.523	1399.4438	1467.6015	1484.8212	1505.1925	1516.6948	1776.7467	1827.3078	3049.4597	3067.6224	3084.3345	3117.8604	3149.2124	3154.2795	3481.143	3634.9038
CC(=O)NC1COC1=N	CC(=O)N[C@H]1CO[C]1[NH]	
InChI=1S/C5H8N2O2/c1-3(8)7-4-2-9-5(4)6/h4,6H,2H2,1H3,(H,7,8)	InChI=1S/C5H8N2O2/c1-3(8)7-4-2-9-5(4)6/h4,6H,2H2,1H3,(H,7,8)/t4-/m0/s1
