16
gdb 125625	2.41583	1.64785	0.98648	2.672	75.54	-0.2166	-0.0264	0.1901	1141.3624	0.12538	-434.118995	-434.11047	-434.109526	-434.151858	31.641	
C	-0.0245132069	 1.4830761201	-0.0703270386	-0.499181
C	-0.0209273159	-0.009836258	 0.011726744	 0.282604
N	-0.02449346	-0.7385648637	-1.085787703	-0.29781
N	-0.0164820303	-2.0463267775	-0.640780222	-0.286624
C	-0.0113124986	-2.1455911904	 0.7005077246	 0.389457
N	-0.0613575417	-3.2994294709	 1.4178323031	-0.600362
C	-0.009246037	-0.8266603318	 1.1881934557	 0.008355
C	 0.0541765767	-0.4998274068	 2.5820666839	 0.046025
O	 0.0881128632	-1.333081265	 3.4841046509	-0.341698
H	 0.8585214866	 1.9124725699	 0.4153274841	 0.133529
H	-0.029947265	 1.7930274188	-1.117032683	 0.145113
H	-0.9053269017	 1.9072762911	 0.4235951921	 0.134706
H	-0.050691122	-2.7873629597	-1.3195572643	 0.270428
H	 0.3409469487	-4.1348095788	 1.0233112363	 0.255481
H	 0.0974668104	-3.1372963824	 2.407883736	 0.287535
H	 0.0817328836	 0.5821593251	 2.8277885803	 0.072441
121.6974	159.5904	193.3742	196.927	271.9638	281.5741	354.6926	380.3748	422.1099	468.464	521.2977	613.909	634.6697	678.5482	755.1308	779.4642	828.9359	995.0059	1032.7551	1066.6304	1078.9194	1088.1695	1129.21	1310.7734	1356.0223	1398.8424	1420.7779	1448.6756	1482.3878	1482.7689	1518.2555	1567.5311	1592.2218	1659.5584	1730.6025	2910.5572	3037.6656	3089.9982	3137.0663	3497.0585	3664.6657	3676.5471
CC1=NNC(N)=C1C=O	Cc1n[nH]c(N)c1C=O	
InChI=1S/C5H7N3O/c1-3-4(2-9)5(6)8-7-3/h2H,1H3,(H3,6,7,8)	InChI=1S/C5H7N3O/c1-3-4(2-9)5(6)8-7-3/h2H,1H3,(H3,6,7,8)
