22
gdb 100142	3.00492	0.80793	0.75974	5.2898	83.57	-0.2643	0.0432	0.3075	1607.1872	0.191068	-404.366256	-404.355168	-404.354224	-404.402965	39.561	
C	-0.0642860034	 1.3123304642	-0.1590052031	-0.245595
O	 0.0828690837	-0.0786394118	 0.0240642421	-0.277835
C	 0.7496380174	-0.5387154002	 1.2079835403	 0.35013
C	 2.182923174	 0.0131136439	 1.3003964579	-0.430309
C	-0.0471443325	-0.1690091863	 2.4693596901	-0.426473
C	 0.7420814811	-2.0729820767	 1.0535930758	-0.194804
C	 1.4047770015	-2.5665520769	-0.2481158702	-0.3552
C	 1.2840772986	-4.0127172729	-0.4105119559	 0.258129
N	 1.1832523236	-5.1585630267	-0.5234608627	-0.311065
H	 0.8993647662	 1.8328282996	-0.2458162766	 0.108767
H	-0.6097341915	 1.4421500767	-1.0971647895	 0.131489
H	-0.6446800501	 1.7862969272	 0.6441191704	 0.110018
H	 2.1868716267	 1.0806951433	 1.5369348813	 0.120622
H	 2.7354718442	-0.4972970155	 2.0951223422	 0.122078
H	 2.7248847903	-0.1239858521	 0.3606135592	 0.123851
H	-1.0834244832	-0.5067056478	 2.3779824491	 0.125696
H	 0.3940535999	-0.6421300489	 3.3519435886	 0.12048
H	-0.0485750146	 0.910380657	 2.6450399629	 0.117513
H	 1.2382138164	-2.5265596681	 1.9171476638	 0.113811
H	-0.2985330593	-2.4111619005	 1.0634119731	 0.123775
H	 0.9358675048	-2.067711818	-1.1008757305	 0.16902
H	 2.4691649063	-2.3098484696	-0.2706908781	 0.145904
53.4677	64.153	99.5571	125.2142	174.969	223.2421	246.1651	251.1001	298.4176	337.8919	360.9125	395.3786	419.6225	452.0001	517.0526	580.2615	740.7058	761.7392	883.1563	918.2419	928.1353	949.8403	994.2415	1036.051	1048.5103	1116.9439	1163.7332	1179.2664	1186.2598	1210.4762	1237.9275	1277.7967	1298.1116	1331.7268	1385.9429	1394.4079	1414.4926	1466.8979	1475.0041	1478.7334	1484.8997	1486.5895	1496.7077	1504.9916	1510.0802	1518.6789	2361.0528	2996.2587	3039.2924	3044.4655	3049.7937	3053.544	3061.5029	3093.2362	3109.4379	3110.8001	3112.1333	3117.0898	3118.9372	3121.8159
COC(C)(C)CCC#N	COC(C)(C)CCC#N	
InChI=1S/C7H13NO/c1-7(2,9-3)5-4-6-8/h4-5H2,1-3H3	InChI=1S/C7H13NO/c1-7(2,9-3)5-4-6-8/h4-5H2,1-3H3
