18
gdb 46303	3.07574	1.32463	1.21616	2.5892	79.24	-0.2307	-0.0258	0.2049	1099.3178	0.148617	-401.954918	-401.947019	-401.946075	-401.98777	30.116	
O	 0.030414273	 0.0179673072	-0.0453238752	-0.293442
C	-0.0523502201	 1.2060735608	 0.0379685932	 0.339834
C	-1.1839814895	 2.2152170059	 0.2722511232	-0.288224
N	-0.1414507024	 3.2519166189	 0.4980599359	-0.362977
C	 0.9748622645	 2.3620649962	 0.0203514965	 0.211397
C	 2.2230641873	 2.2342173329	 0.9256522915	-0.283663
C	 3.4083747917	 2.8409392279	 0.1316564534	-0.266211
C	 2.8545893296	 2.9883606288	-1.2617835254	-0.065473
C	 1.5523820248	 2.7120016333	-1.3279577319	-0.132973
H	-1.8122801963	 2.3485271241	-0.6196059008	 0.122219
H	-1.8354368267	 2.0237246465	 1.1319132153	 0.132719
H	-0.2588332757	 4.0826822088	-0.0724846488	 0.218756
H	 2.0432192713	 2.7251966485	 1.8835449177	 0.116918
H	 2.4036300461	 1.1723754915	 1.119736775	 0.125023
H	 3.7298069548	 3.8129836038	 0.5285487253	 0.113042
H	 4.2935761236	 2.1953061278	 0.1571582561	 0.114124
H	 3.4634396717	 3.3041659308	-2.1025086111	 0.10201
H	 0.9375098024	 2.7654727763	-2.2202230199	 0.096922
71.0594	106.8235	157.5924	223.367	317.3976	388.4962	464.7179	528.6022	580.1381	667.723	708.2022	760.8198	780.9263	807.9449	852.8328	909.302	936.3041	954.6959	978.5396	988.5497	1014.8885	1038.9693	1076.9914	1112.6049	1119.2676	1153.8265	1188.989	1202.8358	1242.4741	1268.3069	1303.7873	1315.8879	1359.5472	1379.0576	1472.7428	1475.2363	1492.7298	1674.4242	1908.9238	3009.5617	3022.3535	3053.1958	3065.8807	3067.905	3122.6959	3177.2245	3202.2568	3528.8499
O=C1CNC11CCC=C1	O=C1CN[C@]21CCC=C2	
InChI=1S/C7H9NO/c9-6-5-8-7(6)3-1-2-4-7/h1,3,8H,2,4-5H2	InChI=1S/C7H9NO/c9-6-5-8-7(6)3-1-2-4-7/h1,3,8H,2,4-5H2/t7-/m0/s1
