17
gdb 24431	3.4231	1.59986	1.1362	2.385	73.84	-0.1936	0.0131	0.2067	1038.4351	0.140441	-418.049166	-418.042305	-418.041361	-418.080379	27.314	
C	-0.0134201926	 1.5050883477	 0.0127121733	-0.208324
C	 1.4293844312	 2.0577895317	 0.0417702113	-0.164624
N	 2.229642067	 1.6171764544	 1.1926675395	-0.392359
C	 1.9263617017	 0.3203035063	 1.5917400947	 0.248416
C	 0.9722539757	-0.4576101013	 1.0218682834	 0.279416
C	-0.0332858645	-0.0435166374	 0.0134923594	-0.335185
O	 1.0406998129	-1.6941869391	 1.6239665493	-0.193852
C	 2.0265520255	-1.5573396586	 2.5391805334	 0.050059
N	 2.5971178082	-0.3946514367	 2.5734964727	-0.329706
H	-0.5572109029	 1.8704539743	 0.8915384782	 0.106968
H	-0.5282843644	 1.8903962583	-0.8727440937	 0.10244
H	 1.9460706443	 1.7364140551	-0.8731156179	 0.114455
H	 1.4169966863	 3.1507260426	 0.0322031245	 0.107405
H	 2.2695097796	 2.2776591142	 1.9577431941	 0.238384
H	-1.0341385406	-0.4102081811	 0.2689928281	 0.117843
H	 0.195743666	-0.4338867823	-0.9879462082	 0.114579
H	 2.2464543964	-2.4218720379	 3.145621128	 0.144085
117.5887	209.1576	300.127	320.7184	397.3646	456.8314	517.7051	561.6737	637.9084	690.0233	724.7536	762.6229	820.6373	856.5138	877.6783	925.2066	957.0203	988.1058	1058.3235	1100.9954	1131.5944	1164.7159	1176.5314	1215.1424	1248.6276	1294.1156	1315.27	1333.1927	1362.0633	1393.3692	1410.4216	1463.0563	1480.0941	1494.8686	1498.4184	1549.0386	1695.1842	3004.2821	3012.7528	3038.5045	3058.7794	3090.1539	3095.0015	3274.6947	3565.5072
C1CNC2=C(C1)OC=N2	C1CNc2c(C1)ocn2	
InChI=1S/C6H8N2O/c1-2-5-6(7-3-1)8-4-9-5/h4,7H,1-3H2	InChI=1S/C6H8N2O/c1-2-5-6(7-3-1)8-4-9-5/h4,7H,1-3H2
