15
gdb 67362	3.03427	1.93332	1.36581	4.1139	65.22	-0.2477	-0.0013	0.2464	894.4684	0.114256	-453.900706	-453.893966	-453.893021	-453.931487	27.416	
O	 0.0759573871	 1.395374002	 0.0014657299	-0.477986
C	 0.0218866144	 0.0313591745	 0.0299721174	 0.362874
C	 0.0339454634	-0.8242990868	 1.3475203954	-0.097164
N	-1.4244816818	-0.5050924432	 1.5610590624	-0.326955
C	-1.3206735508	-0.8085316486	 0.0905877725	-0.113074
C	-0.3055381762	-1.9744386532	 0.3518196367	-0.020518
N	 0.734557389	-2.0059276485	-0.6734845965	-0.350304
C	 0.9125422515	-0.6779787865	-0.9849220825	 0.355341
O	 1.5714959083	-0.1452397807	-1.8490140902	-0.388287
H	 0.66302344	 1.6168629288	-0.7390005011	 0.298588
H	 0.7726777764	-0.8131208196	 2.1502979607	 0.096361
H	-1.8806762268	-1.2887949575	 2.0411754516	 0.207892
H	-2.1775613368	-0.7697805399	-0.5844767847	 0.093201
H	-0.6471682188	-2.9369832472	 0.7249216269	 0.101048
H	 0.841569581	-2.7388217137	-1.3577357785	 0.258983
155.2902	268.2366	336.8341	371.4738	388.0758	421.6927	448.6256	566.1859	629.7954	682.4179	716.3798	729.5912	823.9082	869.0279	888.8807	908.9053	924.9808	994.3119	1009.3252	1056.5724	1114.6755	1127.9891	1139.8773	1143.4373	1186.9157	1225.461	1279.8751	1292.2832	1323.2327	1357.1316	1405.6475	1439.9729	1851.7971	3103.9563	3112.0827	3159.4432	3370.1443	3630.9256	3697.2904
OC12C3NC1C3NC2=O	O[C@@]12[C@H]3N[C@@H]1[C@H]3NC2=O	
InChI=1S/C5H6N2O2/c8-4-5(9)2-1(6-4)3(5)7-2/h1-3,7,9H,(H,6,8)	InChI=1S/C5H6N2O2/c8-4-5(9)2-1(6-4)3(5)7-2/h1-3,7,9H,(H,6,8)/t1-,2-,3+,5-
