18
gdb 65346	3.97919	1.0008	0.91976	3.9818	77.53	-0.2785	0.0322	0.3107	1287.7576	0.146778	-401.931019	-401.922142	-401.921198	-401.964687	32.687	
C	 0.1908159318	 1.484783877	-0.0498147779	-0.475293
C	 0.0494826482	-0.0270273848	 0.0548511217	 0.147285
C	 1.2908056277	-0.9117084045	 0.0178508165	-0.323634
C	 0.5220996042	-0.7873842101	 1.2983876283	-0.068967
C	 1.0924833602	-0.0599011171	 2.476275793	 0.042578
C	 2.3892950402	-0.4421131813	 3.0558284605	-0.171644
O	 2.2568549409	 0.7392284351	 2.2614220522	-0.226341
C	-1.1312959417	-0.5604201262	-0.5809409868	 0.239203
N	-2.083930427	-0.9794715267	-1.0870255285	-0.347519
H	 1.1043635004	 1.8181378368	 0.4439888944	 0.159809
H	 0.2301112703	 1.7905048806	-1.0994052165	 0.136895
H	-0.6607359426	 1.9897672449	 0.4161070252	 0.134421
H	 1.2409500306	-1.8434460706	-0.5319504439	 0.13609
H	 2.2343958437	-0.3807887403	-0.0389515259	 0.143674
H	-0.1011927249	-1.6321000115	 1.5783150117	 0.118369
H	 0.359905522	 0.3999508966	 3.1409765269	 0.107525
H	 2.5804725306	-0.2719231703	 4.113564602	 0.124713
H	 2.9579200753	-1.2488211676	 2.5967687571	 0.122835
90.5789	117.4239	138.7871	189.9177	222.2229	252.2215	312.6833	352.4337	424.1411	576.5599	581.0728	595.2992	679.746	758.8154	848.4137	870.4125	900.8195	946.6605	969.0212	994.3392	1022.704	1079.8295	1096.8193	1116.4756	1126.1665	1141.2389	1165.4032	1173.9897	1263.4554	1285.4836	1302.8056	1403.0826	1420.3504	1431.6618	1477.9195	1498.0094	1503.0886	1523.1314	2347.4844	3048.411	3091.5099	3102.8948	3111.0101	3144.7823	3151.0429	3153.6508	3183.3438	3240.8564
CC1(CC1C1CO1)C#N	C[C@]1(C[C@H]1[C@H]1CO1)C#N	
InChI=1S/C7H9NO/c1-7(4-8)2-5(7)6-3-9-6/h5-6H,2-3H2,1H3	InChI=1S/C7H9NO/c1-7(4-8)2-5(7)6-3-9-6/h5-6H,2-3H2,1H3/t5-,6+,7-/m0/s1
