16
gdb 92867	2.37919	1.81875	1.04413	6.5322	74.61	-0.2403	-0.0747	0.1656	1093.1415	0.124791	-437.939003	-437.930774	-437.92983	-437.972248	29.742	
C	-0.0633617821	 1.4519351962	-0.1312434144	-0.348336
N	 0.0101635904	 0.0064815342	 0.0226762915	-0.129936
C	-1.2554620953	-0.6693220493	 0.2058271436	-0.194532
C	-1.1741862112	-2.1467483084	 0.3623235391	-0.080761
C	-0.0266804244	-2.8283210925	 0.339560444	-0.139069
C	 1.2584035221	-2.1425998387	 0.1536739363	 0.275922
O	 2.3173429999	-2.7259499998	 0.1274221171	-0.292486
C	 1.242140915	-0.6048779745	-0.0148731911	 0.311589
O	 2.2807654069	 0.0021152726	-0.1706578883	-0.352685
H	 0.9497764202	 1.8285121504	-0.259451884	 0.179303
H	-0.6680903732	 1.7169029331	-1.0071473882	 0.12692
H	-0.5176320174	 1.912213946	 0.754704124	 0.126917
H	-1.7718959843	-0.248941036	 1.085882623	 0.134518
H	-1.9201586378	-0.4402602032	-0.6448209918	 0.134511
H	-2.1260177053	-2.6524720768	 0.4997548452	 0.125056
H	 0.0130984265	-3.9065307833	 0.4554623339	 0.12307
74.9838	109.5573	132.534	212.2905	319.4401	326.8092	380.5439	453.3979	478.8485	510.5628	571.4543	661.2232	710.0114	846.9437	863.073	939.3208	996.3522	998.0065	1032.6766	1111.7261	1146.5673	1153.1395	1212.2306	1253.5416	1286.7953	1365.0972	1406.7449	1429.3634	1449.5682	1483.4878	1501.0372	1528.7462	1705.2422	1778.6351	1791.4321	2960.727	2967.4503	3019.0801	3068.8171	3169.8722	3173.6124	3196.0164
CN1CC=CC(=O)C1=O	CN1CC=CC(=O)C1=O	
InChI=1S/C6H7NO2/c1-7-4-2-3-5(8)6(7)9/h2-3H,4H2,1H3	InChI=1S/C6H7NO2/c1-7-4-2-3-5(8)6(7)9/h2-3H,4H2,1H3
