12
gdb 9985	2.65112	1.66407	1.12204	2.9377	57.17	-0.2877	-0.0613	0.2265	986.9864	0.082818	-414.70708	-414.699216	-414.698272	-414.740646	26.024	
O	-0.0981557957	 0.0157108006	 0.1025405532	-0.280838
C	 0.0139690638	 1.2109417636	 0.1607361505	 0.180186
N	 1.2237032502	 1.8985128518	 0.0223326159	-0.107927
C	 1.2616586307	 3.3582343749	 0.0802751263	-0.320399
C	 0.9550292715	 3.8824632692	 1.4153084006	 0.272207
N	 0.6923029788	 4.2957131793	 2.4610618452	-0.284921
C	 2.4238613004	 1.2066978048	-0.1859477378	 0.181563
O	 3.4839886589	 1.7594836525	-0.3317314036	-0.296566
H	-0.8332122757	 1.9003323714	 0.3293551877	 0.117321
H	 2.275725868	 3.6505117838	-0.2060122036	 0.20824
H	 0.5632030977	 3.7897599687	-0.6438691649	 0.175793
H	 2.2665426214	 0.1209573195	-0.2023943795	 0.155339
31.0182	105.8678	201.3152	222.8429	253.8135	311.734	336.1976	368.1008	490.0441	634.3367	745.0458	879.3884	952.7308	977.9321	1033.3979	1053.6416	1208.8307	1251.5809	1344.6571	1384.5064	1413.4958	1447.4057	1467.1593	1805.7805	1835.9961	2368.9891	2975.2388	3060.7455	3077.4561	3113.5898
O=CN(CC#N)C=O	O=CN(CC#N)C=O	
InChI=1S/C4H4N2O2/c5-1-2-6(3-7)4-8/h3-4H,2H2	InChI=1S/C4H4N2O2/c5-1-2-6(3-7)4-8/h3-4H,2H2
