16
gdb 49830	2.66724	1.37692	0.98546	2.8387	73.23	-0.2466	-0.0445	0.2021	1162.1656	0.122718	-437.891405	-437.882959	-437.882015	-437.925984	30.205	
O	-0.0034213528	-0.0112758716	 0.2885174995	-0.328883
C	 0.074291935	 1.1976996305	 0.3631342332	 0.129531
N	 1.1898815733	 1.9082251445	 0.0858571321	-0.12594
C	 2.4850771764	 1.4444588146	-0.4314190523	-0.288077
C	 2.8716180604	 2.9415439728	-0.5333706122	 0.319704
O	 3.8368869886	 3.5499971703	-0.8821918276	-0.291877
C	 1.5110120746	 3.3256822291	-0.0010696179	 0.256582
C	 0.6396389999	 4.4744481855	-0.4379746789	-0.313119
C	 1.1824488018	 4.4329280091	 0.9662987614	-0.310634
H	-0.7686696502	 1.8457579477	 0.6769692386	 0.070224
H	 3.0746565849	 0.8566208884	 0.279122333	 0.155444
H	 2.4248821256	 0.9111116789	-1.3855658865	 0.156865
H	 1.0729430941	 5.1735169319	-1.1455358798	 0.147007
H	-0.4143969495	 4.26448721	-0.5842866058	 0.138341
H	 0.4967583917	 4.1917322201	 1.7714099744	 0.138218
H	 1.9918305063	 5.104112928	 1.2336078588	 0.146612
19.5278	127.2472	150.6516	178.8754	208.8938	314.7552	386.469	421.2396	550.5521	558.059	607.562	733.369	784.4384	830.9271	836.9406	933.1504	982.6949	1001.8807	1014.6934	1027.5153	1062.8552	1077.2167	1112.9888	1134.8657	1194.1583	1202.2637	1268.6121	1364.2842	1400.8597	1449.5155	1452.1806	1471.5313	1493.4291	1788.1533	1923.7657	2928.4732	3050.8296	3101.6357	3133.504	3134.4157	3218.9675	3232.9752
O=CN1CC(=O)C11CC1	O=CN1CC(=O)C21CC2	
InChI=1S/C6H7NO2/c8-4-7-3-5(9)6(7)1-2-6/h4H,1-3H2	InChI=1S/C6H7NO2/c8-4-7-3-5(9)6(7)1-2-6/h4H,1-3H2
