13
gdb 129860	3.29169	1.27344	0.91996	5.5005	77.76	-0.1822	-0.0573	0.1249	1156.4323	0.089983	-448.946584	-448.938629	-448.937685	-448.979031	29.472	
N	-0.0482918616	 1.3540291107	 0.190070167	-0.597744
C	-0.0114628766	-0.0277756716	 0.0524349195	 0.398169
C	-1.0023544651	-0.9536462435	 0.0724335226	-0.383067
C	-0.3375964878	-2.2449937762	-0.00658408	 0.254522
C	 1.1274324119	-2.0429877618	-0.0735142131	 0.365902
N	 1.2344017097	-0.6468378992	-0.0710706568	-0.392024
O	 2.0423340187	-2.8367018752	-0.1117512696	-0.387181
N	-1.2938631659	-4.4835339055	-0.0422786307	-0.237193
N	-0.8630837947	-3.4311377936	-0.0244286247	 0.092113
H	 0.5124516416	 1.8455683932	-0.4970662749	 0.254176
H	-0.9915259916	 1.7186850659	 0.191355346	 0.258314
H	-2.0642345835	-0.7776321091	 0.0996016094	 0.1095
H	 2.1147848949	-0.1938088241	 0.1128047652	 0.264514
123.4044	141.4956	178.2528	279.5581	316.315	336.3895	411.0564	450.7112	492.5209	523.175	611.1315	635.3813	653.5501	676.9554	741.2139	758.9717	805.7887	1003.7563	1115.0812	1139.5193	1200.5156	1246.7648	1314.9104	1443.6951	1472.7138	1634.2651	1693.5378	1812.98	2202.6204	3273.743	3521.2307	3627.4803	3659.2858
NC1=CC2=C(N1)ON=N2	N[C]1C=C(C(=O)N1)[N][N]	
InChI=1S/C4H4N4O/c5-3-1-2-4(6-3)9-8-7-2/h1,6H,5H2	InChI=1S/C4H4N4O/c5-3-1-2(8-6)4(9)7-3/h1H,(H3,5,7,8,9)
