16
gdb 43830	3.0689	1.48735	1.17476	2.3697	68.71	-0.2477	-0.035	0.2127	1034.5216	0.1249	-437.858725	-437.8515	-437.850556	-437.890538	28.192	
O	 0.0795720463	-0.0206600245	 0.1024871753	-0.310542
C	 0.00819446	 1.1748370853	-0.0044432901	 0.418543
C	-1.274541029	 2.011560055	-0.1557988658	-0.443918
C	-0.8235238431	 3.2511054866	-0.9286654535	 0.339522
C	-1.4021918078	 3.6148177401	-2.2469607147	-0.293447
N	-1.6260248858	 4.4669337007	-1.0635971337	-0.359911
C	 0.6479714811	 3.4000547797	-0.6523136992	-0.004198
O	 0.9601500579	 3.2864960595	 0.7337781667	-0.248956
C	 1.1720481897	 2.1324612733	-0.1026662239	-0.093676
H	-2.0546924249	 1.4297845173	-0.6495995121	 0.132943
H	-1.6278729957	 2.2836997152	 0.8458040696	 0.149739
H	-0.780460754	 4.0618212856	-3.0185790856	 0.123958
H	-2.2192256473	 3.0040374881	-2.622018317	 0.119791
H	-2.5595899472	 4.3145855299	-0.6890519615	 0.237444
H	 1.259686907	 4.0892026584	-1.2273558275	 0.113915
H	 2.1919115627	 1.7775201699	-0.207163407	 0.118794
86.9976	169.326	272.6892	302.2759	344.8908	436.9625	494.0619	519.1885	561.6968	655.5006	788.4516	812.9992	849.4311	867.0487	873.6933	906.8611	954.0819	980.1187	997.6833	1017.0031	1053.8967	1096.769	1135.2557	1164.2572	1182.7149	1236.0824	1251.0966	1261.0547	1290.4477	1332.1307	1364.366	1429.0612	1454.5736	1516.0955	1852.833	3047.7076	3105.1116	3122.9082	3164.1639	3184.1548	3190.5712	3498.6955
O=C1CC2(CN2)C2OC12	O=C1C[C@]2(CN2)[C@H]2O[C@@H]12	
InChI=1S/C6H7NO2/c8-3-1-6(2-7-6)5-4(3)9-5/h4-5,7H,1-2H2	InChI=1S/C6H7NO2/c8-3-1-6(2-7-6)5-4(3)9-5/h4-5,7H,1-2H2/t4-,5-,6-/m0/s1
