15
gdb 28723	3.80222	1.06206	0.94432	3.4413	69.76	-0.2417	-0.0042	0.2375	1246.0748	0.112578	-454.005156	-453.996679	-453.995735	-454.040098	29.299	
C	 0.16983434	 1.4806030694	 0.0049637896	-0.489527
C	 0.0055001536	 0.005311252	-0.0490245634	 0.401187
N	-0.5431839525	-0.709862281	-0.9841635608	-0.299576
C	-0.4549184842	-2.0142646915	-0.5235920944	-0.154128
C	 0.1604608879	-2.0236905865	 0.6805016921	 0.370949
N	 0.5268864296	-3.0216667976	 1.5763236306	-0.42872
C	-0.1459180923	-3.2655069627	 2.7556843993	 0.134572
O	-1.130634389	-2.6796750419	 3.1246710927	-0.281102
O	 0.4687421025	-0.7202587839	 0.9980103357	-0.185697
H	 1.2247995	 1.7574292568	 0.0989720845	 0.145537
H	-0.2342964438	 1.9131530002	-0.9104044146	 0.158803
H	-0.3604467204	 1.9014775262	 0.8653033807	 0.153604
H	-0.8404472935	-2.8504807212	-1.0846011887	 0.129066
H	 1.3689879771	-3.550815706	 1.4018299035	 0.262489
H	 0.3377151051	-4.0832264223	 3.3257648533	 0.082542
19.1857	97.4897	110.9643	179.9424	224.4834	310.8702	349.4569	447.127	507.2121	599.3899	645.4969	699.6159	716.7717	861.2386	899.0551	975.2969	983.8179	1034.8657	1035.234	1067.3098	1118.4598	1162.7782	1227.3846	1286.7975	1354.7328	1413.3386	1431.6202	1475.4554	1479.2656	1481.1582	1608.0274	1664.6781	1835.4775	2943.335	3046.4827	3102.1697	3159.1586	3267.6512	3593.2474
CC1=NC=C(NC=O)O1	Cc1ncc(NC=O)o1	
InChI=1S/C5H6N2O2/c1-4-6-2-5(9-4)7-3-8/h2-3H,1H3,(H,7,8)	InChI=1S/C5H6N2O2/c1-4-6-2-5(9-4)7-3-8/h2-3H,1H3,(H,7,8)
