19
gdb 91175	2.49378	1.88792	1.83132	1.7888	77.4	-0.2278	0.0055	0.2334	896.4883	0.16275	-385.888699	-385.881961	-385.881017	-385.919366	28.85	
O	 0.2279716339	 1.3689497032	-0.3020530507	-0.439265
C	 0.041322105	-0.0102637506	-0.0249332014	 0.114052
C	 0.6486308712	-0.4813398309	 1.3318429782	-0.232243
C	-0.555608306	-0.5476904486	 2.3074947076	-0.094683
C	-0.9796044943	 0.8702378221	 2.6670436186	-0.086585
C	-1.9828103247	 1.2864316313	 1.8888708008	-0.110282
C	-2.4376784784	 0.1956445148	 0.9726489111	-0.079488
C	-1.420849295	-0.4812730034	 0.0400296927	-0.072546
C	-1.7078198003	-1.0557181351	 1.4006751769	-0.078738
H	-0.2228744006	 1.8580204476	 0.3947618349	 0.277183
H	 0.5417336711	-0.5175849773	-0.8551968731	 0.083875
H	 1.0753624577	-1.484327841	 1.2149374562	 0.096139
H	 1.4506324974	 0.1885127862	 1.6562420048	 0.099974
H	-0.3558980036	-1.1764319301	 3.1792479116	 0.070068
H	-0.4342565972	 1.4776835043	 3.3809377998	 0.098749
H	-2.4235701333	 2.2772686694	 1.8937070488	 0.099165
H	-3.4731699608	 0.1637636485	 0.6510340733	 0.085963
H	-1.8443724145	-0.9392735558	-0.8473573174	 0.084378
H	-2.1944772476	-2.0089915147	 1.5660728874	 0.084283
152.0189	229.5247	347.5112	382.0734	419.6677	457.8627	585.8348	632.2682	695.7738	735.4358	742.7491	797.2534	807.0539	812.7235	841.3091	898.0694	914.6029	946.6811	972.969	988.7925	995.9829	1011.6	1028.7821	1046.9852	1083.5259	1097.7067	1128.6005	1143.7858	1183.0622	1203.5509	1275.0946	1281.9161	1299.4266	1311.1435	1321.5239	1349.8528	1373.8605	1392.8849	1449.5905	1482.8012	1657.2744	3033.329	3062.0479	3071.245	3093.0939	3159.5153	3166.933	3182.5832	3185.4478	3207.9552	3797.6778
OC1CC2C=CC3C1C23	O[C@H]1C[C@H]2C=C[C@H]3[C@@H]1[C@@H]23	
InChI=1S/C8H10O/c9-6-3-4-1-2-5-7(4)8(5)6/h1-2,4-9H,3H2	InChI=1S/C8H10O/c9-6-3-4-1-2-5-7(4)8(5)6/h1-2,4-9H,3H2/t4-,5-,6+,7+,8+/m1/s1
