15
gdb 43463	2.89829	1.43296	1.04601	1.3288	65.82	-0.2528	-0.0603	0.1925	1089.5339	0.110628	-457.783559	-457.775704	-457.77476	-457.816936	28.981	
O	-0.0013891134	 0.3478591696	-0.9257801163	-0.291813
C	-0.00710862	 1.3148488723	-0.2124905362	 0.38002
C	-1.2508013458	 2.0197087515	 0.3279613657	-0.447539
C	-0.7742318097	 3.3853817629	 0.8131212622	 0.342487
O	-1.4572607951	 4.2979331654	 1.1943141015	-0.302199
C	 0.7476078679	 3.4179838254	 0.7244483084	 0.32218
C	 1.417527068	 4.7044810333	 0.4495568995	-0.223379
O	 1.4295046849	 4.1341606818	 1.7505348799	-0.255126
C	 1.2421474449	 2.0513088455	 0.290131387	-0.436341
H	-2.0564933674	 2.0793712874	-0.4077823666	 0.16663
H	-1.6445121245	 1.4551807466	 1.1843614008	 0.173492
H	 2.3672427283	 4.691238057	-0.0836011826	 0.125997
H	 0.8076370024	 5.5991419925	 0.3410786623	 0.142218
H	 1.6387067293	 1.5048333278	 1.1559927534	 0.158083
H	 2.0203875904	 2.059187531	-0.4758634489	 0.145291
51.4357	58.8873	254.1053	263.743	348.7294	367.1992	422.17	488.7608	547.6468	563.131	617.0254	709.6826	768.3968	805.5401	869.4371	889.7835	940.3019	983.4213	1044.764	1131.1839	1134.7881	1167.8569	1179.6635	1200.4217	1222.7775	1228.5567	1261.4727	1397.81	1400.5856	1446.845	1507.6884	1837.8148	1870.8057	3037.2751	3040.0585	3086.6498	3113.388	3113.5129	3186.9788
O=C1CC(=O)C2(CO2)C1	O=C1CC(=O)[C@]2(CO2)C1	
InChI=1S/C6H6O3/c7-4-1-5(8)6(2-4)3-9-6/h1-3H2	InChI=1S/C6H6O3/c7-4-1-5(8)6(2-4)3-9-6/h1-3H2/t6-/m1/s1
