13
gdb 133512	3.11615	1.1143	1.02763	1.7103	52.86	-0.2762	-0.0646	0.2116	1132.7919	0.085258	-584.230234	-584.222021	-584.221077	-584.264546	28.483	
F	 0.0371528043	 0.0270982777	 0.0071477181	-0.042812
C	 0.0850447987	 1.3474958548	 0.0527245731	 0.227506
F	 1.3254218696	 1.7266776186	 0.3965720658	-0.075746
F	-0.1664554916	 1.8354751709	-1.1713386284	-0.075605
C	-0.9324866427	 1.9294993447	 1.0653304212	 0.242163
O	-1.6007094167	 1.1978648684	 1.7532341047	-0.309393
C	-1.0025410721	 3.4122105831	 1.1138533313	-0.110315
C	-2.3859833921	 4.001206722	 1.0754814506	-0.216719
N	-1.6180538257	 4.012354356	 2.3071464047	-0.300142
H	-0.1773667841	 3.9612389852	 0.6743474098	 0.124907
H	-2.5153398786	 4.9643604783	 0.5913606542	 0.140079
H	-3.2137577461	 3.3045531368	 0.9774027062	 0.14153
H	-1.9344349128	 3.2472541934	 2.9040567986	 0.254548
38.603	68.4013	163.1866	214.0921	281.5655	300.0913	338.1049	420.0788	519.94	571.7896	715.3386	776.3576	787.6408	842.7806	882.0337	962.7503	1002.3515	1050.9046	1119.9976	1137.9615	1173.6416	1184.4931	1230.202	1285.9659	1316.0247	1320.3032	1414.8557	1501.0827	1821.6275	3117.978	3181.5796	3213.7121	3468.3942
FC(F)(F)C(=O)C1CN1	FC(F)(F)C(=O)[C@H]1CN1	
InChI=1S/C4H4F3NO/c5-4(6,7)3(9)2-1-8-2/h2,8H,1H2	InChI=1S/C4H4F3NO/c5-4(6,7)3(9)2-1-8-2/h2,8H,1H2/t2-/m1/s1
