14
gdb 128757	6.90037	0.76877	0.70926	3.2396	69.67	-0.2565	-0.035	0.2215	1518.0566	0.100841	-469.994146	-469.985984	-469.98504	-470.028392	27.452	
C	 0.09900826	 1.3517679966	 0.1252752992	-0.254444
O	-0.204908923	-0.0228452222	-0.1225379934	-0.176902
C	 0.5537524111	-0.6388870681	-1.0231097224	 0.144621
N	 0.4131083477	-1.8855283273	-1.2213063142	-0.306826
C	 1.1354360377	-2.4517428482	-2.2480341316	 0.411164
N	 1.3507227809	-1.8645384021	-3.4082302917	-0.198312
O	 2.0780650896	-2.825794375	-4.1252637513	-0.157614
C	 2.2023511317	-3.875469123	-3.3112583245	 0.117057
N	 1.6503835373	-3.7314069957	-2.1524006248	-0.305728
H	 1.0511183293	 1.450978984	 0.6571668929	 0.141715
H	 0.1354916931	 1.9231469505	-0.8083287611	 0.1419
H	-0.707543061	 1.7321097968	 0.7516251779	 0.157257
H	 1.2761284846	-0.0073326575	-1.5553124679	 0.12133
H	 2.739403091	-4.7314953688	-3.6936551872	 0.164782
48.7754	79.0845	111.4282	167.5993	206.28	310.8045	413.9291	426.568	549.0421	624.1538	789.4742	818.4108	907.4986	926.7276	978.9795	1007.5879	1022.7896	1071.159	1146.7267	1169.7654	1177.0698	1282.3018	1311.5306	1364.0432	1410.0194	1479.6353	1493.0988	1499.3714	1533.2607	1588.5724	1741.2102	3029.8906	3053.7262	3102.7066	3158.4187	3262.5626
COC=NC1=NOC=N1	COC=Nc1nocn1	
InChI=1S/C4H5N3O2/c1-8-2-5-4-6-3-9-7-4/h2-3H,1H3	InChI=1S/C4H5N3O2/c1-8-2-5-4-6-3-9-7-4/h2-3H,1H3
