22
gdb 7493	3.53677	1.19864	1.08768	1.4179	78.14	-0.2511	0.074	0.3251	1227.0471	0.199247	-350.203784	-350.194479	-350.193535	-350.237647	34.917	
C	-0.1942043638	 1.5706770363	 0.2661672332	-0.379857
C	-0.0413370361	 0.0571596244	 0.0869388751	-0.192537
C	-1.387422604	-0.6651996469	-0.0505235111	-0.209961
C	-1.2864051368	-2.1907832973	-0.1680764582	 0.418741
O	-0.5256604289	-2.5796315755	-1.299008152	-0.484646
C	-0.9502385534	-2.9137217019	 1.1788147115	-0.276658
C	-2.4611668252	-3.2282573275	 1.3473932529	-0.211103
C	-2.66671706	-2.8935329506	-0.1547147567	-0.257034
H	 0.7793013382	 2.0644414488	 0.3454001419	 0.111862
H	-0.7270139479	 2.0164468852	-0.5808336774	 0.117581
H	-0.762308082	 1.8049684495	 1.1731599666	 0.115564
H	 0.568797237	-0.131283698	-0.8068396656	 0.0903
H	 0.5169223258	-0.355749002	 0.9374082674	 0.0994
H	-2.0189009884	-0.4186188523	 0.8134518643	 0.091917
H	-1.911566026	-0.2900369416	-0.9392973114	 0.098387
H	 0.3591103615	-2.2099971316	-1.2111036681	 0.274286
H	-0.3640460047	-3.8150282043	 0.9820577285	 0.102691
H	-0.4600948917	-2.3327903394	 1.9650745853	 0.088476
H	-2.7236204971	-4.2374683065	 1.670268073	 0.099414
H	-2.9638628707	-2.5162529158	 2.0071689792	 0.101401
H	-3.5349975226	-2.2908536026	-0.4343503549	 0.091648
H	-2.6323537831	-3.7857518704	-0.7840878534	 0.110127
77.6357	101.9434	139.8185	176.6521	244.971	250.3567	307.5658	327.883	361.3737	440.6331	483.5538	646.2744	727.2581	753.4062	790.0002	852.3501	871.7795	897.7504	936.393	943.6296	977.4607	993.2252	1033.9474	1051.5086	1059.5279	1126.9561	1182.7235	1198.0165	1204.8412	1248.7012	1262.6784	1265.9646	1288.9917	1299.1213	1306.9235	1341.6925	1358.5757	1402.7326	1412.1355	1465.3312	1475.4841	1482.6999	1491.8379	1499.197	1504.9991	1508.7796	3006.3332	3016.0652	3030.8545	3035.9893	3052.8779	3058.3963	3060.8327	3067.5532	3098.1293	3102.383	3102.7483	3114.1517	3127.3502	3810.3625
CCCC1(O)CCC1	CCCC1(O)CCC1	
InChI=1S/C7H14O/c1-2-4-7(8)5-3-6-7/h8H,2-6H2,1H3	InChI=1S/C7H14O/c1-2-4-7(8)5-3-6-7/h8H,2-6H2,1H3
