20
gdb 55283	2.57107	1.31651	1.22377	5.4266	74.82	-0.2554	0.0171	0.2725	1142.0865	0.171009	-440.308183	-440.299219	-440.298275	-440.341425	34.487	
C	-0.5381297842	 1.4950428741	-0.0213863028	-0.450807
C	-0.0690981741	 0.0442775926	 0.0041850534	 0.312449
C	-1.1160136887	-0.8574182103	-0.6617885713	-0.435841
N	 1.3220023002	-0.1714962086	-0.5196172905	-0.363837
H	 1.4020168696	-0.4282810121	-1.4997764938	 0.221694
H	 2.1059359936	 1.0256310307	 0.8753480814	 0.30978
C	 1.5469507973	-1.2485366624	 0.4768595847	-0.202388
C	 0.450329971	-0.5847951467	 1.3549237225	-0.184102
C	 1.0343010202	 0.424109051	 2.3346986818	 0.425398
O	 2.006190656	 1.2192203856	 1.8310508066	-0.383569
O	 0.6840490927	 0.5182388764	 3.4798867375	-0.335746
H	 0.182701101	 2.1712448102	 0.4399540492	 0.139316
H	-0.6956547186	 1.8186116311	-1.056469238	 0.115057
H	-1.4920597025	 1.5971401157	 0.5062843737	 0.129158
H	-1.2729231292	-0.5491001745	-1.7017524805	 0.118618
H	-0.8214512839	-1.9105770543	-0.6593708735	 0.119133
H	-2.0773682685	-0.7777666752	-0.1444360351	 0.131315
H	 1.2585131774	-2.2511981443	 0.1420324604	 0.111649
H	 2.561790679	-1.2877179725	 0.8816716315	 0.123435
H	-0.2402485482	-1.2311020864	 1.8927060528	 0.099288
101.4354	148.0076	187.5886	198.1458	254.4628	291.3432	327.1793	370.2414	380.2972	432.4555	469.9716	613.8138	650.7763	737.4483	773.0112	829.916	840.6589	873.866	934.7772	944.3369	971.3515	985.9583	1012.4903	1018.0444	1071.5915	1140.1922	1157.837	1199.7901	1225.3306	1243.3556	1272.522	1311.6603	1324.9231	1365.7484	1403.789	1416.6311	1425.1057	1481.9594	1482.9848	1502.6977	1509.9837	1530.7734	1862.6403	3029.0317	3034.3292	3039.4914	3091.1394	3096.22	3102.9799	3112.9164	3141.1318	3142.669	3495.4998	3501.8812
CC1(C)[NH2+]CC1C([O-])=O	CC1(C)NC[C@H]1C(=O)O	
InChI=1S/C6H11NO2/c1-6(2)4(3-7-6)5(8)9/h4,7H,3H2,1-2H3,(H,8,9)	InChI=1S/C6H11NO2/c1-6(2)4(3-7-6)5(8)9/h4,7H,3H2,1-2H3,(H,8,9)/t4-/m0/s1
