16
gdb 125976	3.79753	1.26383	1.10115	2.4677	70.97	-0.2335	-0.0218	0.2117	1103.6436	0.126097	-430.204897	-430.197202	-430.196258	-430.237757	28.203	
C	-0.1957313982	 1.3302233252	 1.1608304365	-0.41108
C	 0.0303498531	-0.0727024896	 0.6539719953	 0.012823
C	 0.223686934	-0.3457343839	-0.8007391941	-0.245747
N	 1.3396951862	-0.4883446891	 0.1272012565	-0.147063
C	 2.4063548959	 0.3830532532	 0.0602021454	 0.450462
N	 3.0850508956	 0.7988670181	 1.1308131358	-0.295099
N	 4.0399191427	 1.5184244699	 0.5457080088	-0.063289
N	 3.9863616078	 1.5582314841	-0.7718072801	-0.101654
N	 2.9431328881	 0.8403349335	-1.1062935568	-0.267475
H	 0.2161387139	 2.0778012202	 0.4771495707	 0.13042
H	-1.2691270671	 1.5183891809	 1.2639266493	 0.126431
H	 0.2715602493	 1.47315083	 2.1402137668	 0.141515
H	-0.4322712351	-0.8539023619	 1.2534269189	 0.10405
H	-0.1269747432	-1.2732886203	-1.2433361214	 0.126019
H	 0.2442354775	 0.507364769	-1.4739084248	 0.139546
H	 4.7592195894	 1.9939308308	 1.0691676333	 0.30014
56.2322	117.5717	180.1166	227.2952	307.0179	382.0495	448.5629	549.9224	554.2435	589.1143	729.3229	787.4061	817.146	889.6037	910.5235	1011.3723	1027.183	1051.3343	1067.8486	1133.1283	1140.3816	1148.4876	1164.4467	1188.4979	1197.1471	1269.4275	1291.4674	1352.278	1402.0853	1422.7655	1488.1105	1493.3012	1500.3239	1515.0768	1571.832	3040.4244	3108.4566	3112.2211	3115.0027	3135.8552	3203.3064	3652.1142
CC1CN1C1=NNN=N1	C[C@H]1CN1c1n[nH]nn1	
InChI=1S/C4H7N5/c1-3-2-9(3)4-5-7-8-6-4/h3H,2H2,1H3,(H,5,6,7,8)	InChI=1S/C4H7N5/c1-3-2-9(3)4-5-7-8-6-4/h3H,2H2,1H3,(H,5,6,7,8)/t3-,9?/m0/s1
