20
gdb 35937	2.23481	1.46964	1.23969	3.9873	83.3	-0.2501	0.0069	0.257	1130.1441	0.173502	-366.045178	-366.036793	-366.035849	-366.078277	32.126	
N	-0.297797235	-1.1826820449	-0.2544209923	-0.335776
C	-0.1717589006	-0.0388856446	-0.1439199013	 0.282567
C	-0.0275527859	 1.4155078683	-0.0102972211	-0.143369
C	-0.7391553632	 1.9338035429	 1.2627020819	-0.20505
C	-0.2308579677	 1.3836433533	 2.5998524955	-0.192945
C	 1.1947456202	 1.8196329212	 2.986655855	-0.246378
C	 2.3046970304	 1.1961319186	 2.1735868527	-0.043194
C	 2.4147935489	 1.1990086409	 0.8454248583	-0.046385
C	 1.4584566206	 1.8425104938	-0.131253895	-0.266563
H	-0.5543268163	 1.8548893305	-0.8674001797	 0.123534
H	-0.6497066906	 3.0279777684	 1.2574254742	 0.099941
H	-1.8068534479	 1.7081203196	 1.1681068706	 0.114585
H	-0.918783039	 1.7276053983	 3.3809477909	 0.09912
H	-0.2888042146	 0.2890428589	 2.5933947106	 0.125639
H	 1.2587136131	 2.9168575073	 2.9194737021	 0.106511
H	 1.3548385339	 1.5795632796	 4.042426828	 0.104853
H	 3.0887707081	 0.7002623177	 2.7410345129	 0.092594
H	 3.2761786597	 0.7069110626	 0.401934279	 0.095119
H	 1.790751289	 1.6303435888	-1.1513750184	 0.118901
H	 1.481222697	 2.9361523589	-0.023556934	 0.116295
84.6506	96.2298	172.9817	237.2775	306.4136	334.0292	344.5681	431.8555	476.157	568.1355	608.2903	699.6039	734.2404	771.1552	818.3533	872.1713	881.7372	912.4024	954.5552	994.9262	1011.1437	1042.8719	1046.6007	1093.5393	1131.8116	1187.8732	1224.502	1238.0603	1256.9918	1286.2988	1309.9063	1351.0377	1365.7403	1375.8399	1390.448	1400.9845	1428.0014	1476.2973	1478.8925	1486.1995	1492.2181	1727.5615	2353.7273	2990.7345	3011.304	3018.7539	3030.7983	3032.7947	3069.2355	3071.7382	3077.781	3083.3877	3145.387	3170.1679
N#CC1CCCC=CC1	N#C[C@H]1CCCC=CC1	
InChI=1S/C8H11N/c9-7-8-5-3-1-2-4-6-8/h1,3,8H,2,4-6H2	InChI=1S/C8H11N/c9-7-8-5-3-1-2-4-6-8/h1,3,8H,2,4-6H2/t8-/m1/s1
