18
gdb 8495	2.73763	2.0735	1.9794	1.6033	68.13	-0.2315	0.0699	0.3013	834.8526	0.151278	-384.882419	-384.874256	-384.873312	-384.914087	31.73	
C	 0.0153499143	 1.4763216592	 0.0546949992	-0.522776
C	-0.0171620651	-0.014046754	-0.0691121756	 0.373816
C	 0.6524058707	-0.9461366613	-1.1186349354	-0.272081
C	 0.0935131764	-1.8179290634	 0.024421007	-0.018626
O	 0.6215333873	-0.8364060105	 0.9960192726	-0.347873
C	-1.237165878	-0.9888442328	-0.0038993614	 0.402637
C	-2.1041505635	-0.9871114537	 1.2418402509	-0.485312
O	-2.0077456269	-1.002710406	-1.1842299003	-0.482411
H	 1.0457554139	 1.8438706284	 0.0480980697	 0.132811
H	-0.5210968282	 1.9283338019	-0.7853445699	 0.136208
H	-0.4623666741	 1.7989395781	 0.9850677868	 0.130677
H	 0.1942231097	-1.0251259066	-2.1035065808	 0.114819
H	 1.7409685982	-0.8807064327	-1.1412758616	 0.098606
H	 0.2608527869	-2.8735714179	 0.2430304051	 0.083061
H	-1.4893793953	-0.9488753902	 2.1406913224	 0.148068
H	-2.7838131649	-0.1286930711	 1.2302805873	 0.122239
H	-2.7178041467	-1.8965805571	 1.2814969847	 0.104574
H	-2.7379068349	-1.6171052401	-1.0595022506	 0.281565
174.6338	188.3257	201.6906	241.7029	243.8588	316.1106	338.0413	404.4016	452.5594	542.3752	609.5824	653.65	687.4158	729.9657	808.0277	873.915	902.1638	942.3756	968.2574	1020.5364	1026.3493	1084.3333	1109.6073	1154.085	1158.6622	1205.407	1211.9344	1235.2827	1237.878	1320.0966	1389.0576	1398.2819	1415.6228	1477.4021	1478.7577	1487.552	1494.7623	1505.174	3023.8495	3039.3205	3085.5782	3086.3615	3110.0173	3112.4617	3116.4215	3154.9027	3167.7035	3816.7443
CC12CC(O1)C2(C)O	C[C@@]12C[C@@H](O1)[C@]2(C)O	
InChI=1S/C6H10O2/c1-5-3-4(8-5)6(5,2)7/h4,7H,3H2,1-2H3	InChI=1S/C6H10O2/c1-5-3-4(8-5)6(5,2)7/h4,7H,3H2,1-2H3/t4-,5+,6+/m1/s1
