17
gdb 43449	2.96831	1.44081	1.05691	0.9504	75.66	-0.2552	-0.0052	0.25	1115.0076	0.137837	-418.060652	-418.052923	-418.051979	-418.093311	29.96	
N	-0.1459872529	 1.2898253102	 0.0131333911	-0.550637
C	-0.047441164	 0.023791693	 0.0046963734	 0.340781
N	 1.0986928622	-0.7720875577	-0.0069378904	-0.377346
C	 0.8712178313	-2.1420592492	-0.014590688	 0.415914
O	 1.7308903549	-2.9867436694	-0.0236882701	-0.351383
C	-0.6452094703	-2.3337922824	-0.0061176345	-0.455949
C	-1.2108219553	-0.9201030521	 0.0061383577	 0.291722
C	-2.4584572094	-0.5231518512	 0.7656070772	-0.296022
C	-2.4680923841	-0.5138890355	-0.7321932021	-0.296052
H	 0.7624917403	 1.7529274244	 0.0105796482	 0.212816
H	 2.0383159174	-0.4030595337	-0.0098438264	 0.259574
H	-0.9306713693	-2.9141837618	-0.8888553398	 0.143327
H	-0.9197811959	-2.9251546676	 0.8727835298	 0.143395
H	-2.9918833607	-1.3137592882	 1.2828357737	 0.116714
H	-2.4251264214	 0.4330587989	 1.2749565109	 0.143219
H	-2.4412369106	 0.4485483427	-1.2300686938	 0.143215
H	-3.0082052221	-1.2980784803	-1.2522464268	 0.116712
51.8464	137.7467	255.839	257.6412	346.9474	358.5573	492.7991	537.5795	570.785	626.6953	642.1638	707.1717	735.1994	790.3235	838.2775	866.414	877.0139	931.077	960.6744	1001.8332	1017.6266	1065.1977	1093.2997	1093.7952	1186.1481	1192.3443	1203.2806	1250.8857	1297.06	1335.723	1363.806	1410.7011	1454.5594	1465.4172	1489.1204	1756.8913	1854.0777	3058.1355	3096.2858	3133.2203	3135.267	3222.9717	3236.6432	3480.0714	3624.3479
N=C1NC(=O)CC11CC1	[NH][C]1NC(=O)CC21CC2	
InChI=1S/C6H8N2O/c7-5-6(1-2-6)3-4(9)8-5/h1-3H2,(H2,7,8,9)	InChI=1S/C6H8N2O/c7-5-6(1-2-6)3-4(9)8-5/h1-3H2,(H2,7,8,9)
