21
gdb 110112	2.20492	1.1869	0.93659	1.7122	84.94	-0.2476	0.04	0.2876	1360.565	0.180513	-387.044355	-387.034039	-387.033094	-387.079941	37.918	
C	-0.3264797324	 1.5347647331	-0.230630126	-0.378491
C	 0.1763730158	 0.1280259424	 0.1150091359	-0.204998
C	 0.8409227619	-0.5440658616	-1.0701909963	-0.025218
C	 1.0662979431	-2.0267308813	-1.1941077418	-0.075724
C	 0.6082103236	-3.0347851676	-0.1610786911	-0.084953
O	 0.2433438608	-4.2707408356	-0.7547139033	-0.424667
C	 0.0364544279	-1.3428711953	-2.0977512496	-0.216753
C	-1.3595070639	-1.6089170588	-1.9076986023	 0.329085
C	-2.5280441778	-1.8622009366	-1.7585765655	-0.482814
H	 0.4923012836	 2.1749343469	-0.5775592676	 0.112376
H	-1.0796704693	 1.4945761475	-1.0237202652	 0.128274
H	-0.779591136	 2.0160483341	 0.6413556669	 0.112663
H	 0.8946855732	 0.1847114874	 0.9429151226	 0.099403
H	-0.6641784797	-0.4743112477	 0.4708582044	 0.114197
H	 1.6188034178	 0.0672657387	-1.5234147905	 0.090956
H	 1.9718625766	-2.3300199997	-1.7125663015	 0.097769
H	 1.4332405419	-3.2605382751	 0.5230841932	 0.109525
H	-0.2137956731	-2.6296329923	 0.4422640337	 0.097432
H	-0.5406497007	-4.0979887023	-1.2889093731	 0.287672
H	 0.325619384	-1.2147243314	-3.136660742	 0.113994
H	-3.5630083172	-2.0633243047	-1.6319073211	 0.200273
63.4507	72.9303	115.1799	139.3225	177.7092	226.6502	250.9022	302.0509	367.4171	391.8172	403.3862	561.4593	578.4721	605.9191	610.5057	652.8386	741.587	791.9611	810.4106	841.2561	935.1154	970.0805	1006.1209	1021.5488	1048.9135	1068.5185	1109.619	1126.1614	1142.0854	1173.6935	1232.3793	1256.3035	1297.9884	1336.6114	1353.8038	1382.4561	1401.0945	1410.3876	1427.9733	1449.4168	1481.9076	1498.2842	1500.8972	1506.3153	2222.7324	3023.0445	3029.459	3033.2327	3071.5443	3081.7781	3103.5181	3111.1117	3124.3794	3142.0013	3153.6046	3502.4512	3794.1895
CCC1C(CO)C1C#C	CC[C@H]1[C@@H](CO)[C@H]1C#C	
InChI=1S/C8H12O/c1-3-6-7(4-2)8(6)5-9/h1,6-9H,4-5H2,2H3	InChI=1S/C8H12O/c1-3-6-7(4-2)8(6)5-9/h1,6-9H,4-5H2,2H3/t6-,7+,8-/m0/s1
