15
gdb 33605	5.28668	1.27792	1.27315	0.8527	75.83	-0.2354	0.032	0.2674	988.768	0.112759	-383.37046	-383.364015	-383.363071	-383.401124	26.679	
C	 0.1005891724	-1.211887522	 0.0761685832	-0.372161
C	 0.0352074486	-0.0099620844	 0.0356758948	 0.004253
C	-0.0566256688	 1.3971997536	-0.026360206	 0.336884
C	-0.0410102917	 2.4677483608	 1.0605161384	-0.156962
C	 1.0100506547	 2.4879290435	-0.0376682088	-0.156963
C	 0.2384135896	 3.3636509688	-1.0651032183	 0.075434
O	-0.430849944	 4.4103424867	-0.3291543213	-0.290863
C	-1.1173024999	 3.3376198692	 0.3513959864	 0.075433
C	-0.9517877922	 2.3727871994	-0.8651820373	-0.181775
H	 0.1619962967	-2.2708313966	 0.1154849028	 0.176662
H	 0.1890421007	 2.3543289284	 2.1102871337	 0.108353
H	 2.0708321668	 2.3904612586	 0.1441278601	 0.108353
H	 0.6955104643	 3.6824101561	-1.9994282343	 0.090631
H	-2.0363050963	 3.6299571661	 0.8548652128	 0.090631
H	-1.7138690708	 2.127744992	-1.5990636561	 0.092089
141.8538	150.8782	447.0263	464.5278	509.2237	569.9358	573.3602	607.6564	651.7055	754.5304	768.4244	806.7042	819.2317	843.1951	861.8075	884.1394	893.3793	929.2771	944.8573	998.388	1013.7136	1030.2869	1101.2209	1104.4446	1164.2261	1170.8772	1195.4664	1207.6369	1256.6241	1265.8378	1309.1546	1412.132	2232.6691	3146.1188	3146.7311	3169.2824	3217.9494	3227.2787	3503.9314
C#CC12C3C1C1OC3C21	C#C[C@@]12[C@H]3[C@@H]1[C@@H]1O[C@H]3[C@H]21	
InChI=1S/C8H6O/c1-2-8-3-4(8)7-5(8)6(3)9-7/h1,3-7H	InChI=1S/C8H6O/c1-2-8-3-4(8)7-5(8)6(3)9-7/h1,3-7H/t3-,4+,5-,6+,7-,8+
