22
gdb 83881	2.30482	1.60141	1.31305	1.1536	81.56	-0.2176	0.0822	0.2997	1112.4352	0.195576	-404.323894	-404.315202	-404.314258	-404.356722	34.131	
C	-0.1797541709	 1.562285954	 0.0440658937	-0.403771
C	 0.0468878451	 0.0499108923	-0.0727442986	 0.093662
O	 0.687062098	-0.2864258277	-1.308335332	-0.25727
C	 2.0908103528	-0.0864529019	-1.3183858237	-0.078056
C	 2.7989545416	-1.0622467645	-0.3763411313	-0.237558
C	 2.1559547775	-1.0557679915	 1.0066935826	-0.032965
C	 0.7709459988	-0.4964258568	 1.1534834372	-0.037516
N	 1.0249800044	-1.9160834733	 1.3575445625	-0.107102
C	 0.5103353004	-2.9040590248	 0.417570133	-0.334496
H	 0.7583847196	 2.1060034597	 0.1936567827	 0.119533
H	-0.6556236134	 1.9349450058	-0.8664783101	 0.124162
H	-0.8322135533	 1.7861808276	 0.8937961049	 0.118387
H	-0.9340000342	-0.4359346317	-0.1513351184	 0.089592
H	 2.4043902012	-0.2354576822	-2.3559058724	 0.105502
H	 2.3417123098	 0.9486258616	-1.0413230235	 0.09036
H	 2.7812981066	-2.0700996714	-0.8059894824	 0.111035
H	 3.852878161	-0.7791331565	-0.2860980109	 0.099272
H	 2.8515480982	-0.9217943489	 1.8329611544	 0.087423
H	 0.5144496765	 0.0379856193	 2.0676940489	 0.084073
H	 0.4640545513	-2.5763396875	-0.6284489854	 0.129142
H	 1.1341616128	-3.8020504119	 0.4782349706	 0.117053
H	-0.4998013637	-3.1843295099	 0.7340329178	 0.119537
103.0405	172.1739	199.3009	229.9536	247.384	278.5668	324.8869	397.8323	442.0913	492.2423	541.0572	549.0743	725.1475	729.2992	787.4007	800.6509	869.6499	912.0981	946.1266	1012.1147	1028.3996	1043.0061	1071.4163	1076.0932	1112.8398	1147.3562	1151.1418	1167.2556	1175.2466	1199.8316	1251.5411	1288.7335	1334.5421	1345.5527	1362.4445	1371.6413	1376.1145	1401.4822	1416.2695	1418.4085	1456.5815	1481.0233	1488.6029	1494.0802	1496.4964	1509.67	1519.9358	2992.1073	3014.847	3025.6826	3040.1914	3041.3991	3075.994	3081.225	3084.4172	3094.1357	3100.9142	3110.2012	3116.1776	3124.7881
CC1OCCC2C1N2C	C[C@H]1OCC[C@H]2[C@@H]1N2C	
InChI=1S/C7H13NO/c1-5-7-6(8(7)2)3-4-9-5/h5-7H,3-4H2,1-2H3	InChI=1S/C7H13NO/c1-5-7-6(8(7)2)3-4-9-5/h5-7H,3-4H2,1-2H3/t5-,6+,7-,8?/m1/s1
