14
gdb 21161	3.45708	1.86373	1.23067	4.438	63.62	-0.2082	-0.0083	0.1999	934.1209	0.106302	-412.012624	-412.004108	-412.003163	-412.046665	28.892	
C	-0.0396211708	 1.4841066476	-0.1345279705	-0.329243
N	-0.0719078377	 0.0479289007	 0.0705285807	-0.372289
C	-1.2151332483	-0.6681297458	 0.0688250031	 0.519603
C	-1.322698676	-2.0616049957	 0.0227845202	 0.053926
N	-0.2531768268	-2.9649783882	-0.0741306918	-0.609365
N	-2.6568464454	-2.3313658778	 0.0871598562	-0.090048
N	-3.3963274792	-1.3544016637	 0.1563503435	-0.070637
O	-2.3773012157	-0.0937947941	 0.1450164375	-0.285715
H	 0.9328049319	 1.8662502038	 0.1833952438	 0.133153
H	-0.2052483233	 1.7684619085	-1.1824274918	 0.132233
H	-0.8150089302	 1.954400325	 0.4733204162	 0.161208
H	 0.7524806521	-0.497516978	-0.1315540087	 0.260481
H	-0.1553095792	-3.5567002319	 0.7444117641	 0.248233
H	-0.3159387513	-3.5651843104	-0.8894216826	 0.248458
32.2918	93.6468	110.0231	237.1596	244.8196	274.0301	306.83	324.0538	523.3582	574.2519	648.9755	654.0614	749.695	784.1771	824.0866	921.0575	1070.0365	1148.836	1170.3736	1212.0754	1229.9506	1278.2078	1449.3289	1476.9369	1489.1537	1513.5324	1523.879	1538.3877	1640.7711	1678.6289	3013.5496	3098.7582	3141.4012	3499.4912	3564.9241	3620.2715
CNC1=C(N)N=NO1	CNc1c(N)nno1	
InChI=1S/C3H6N4O/c1-5-3-2(4)6-7-8-3/h5H,4H2,1H3	InChI=1S/C3H6N4O/c1-5-3-2(4)6-7-8-3/h5H,4H2,1H3
