18
gdb 60627	2.85484	1.13268	0.92396	3.0361	68.95	-0.2613	0.0162	0.2775	1285.2246	0.146157	-476.240215	-476.23081	-476.229866	-476.274818	34.689	
C	 0.5500088396	 1.4948861074	-0.4069661161	-0.422863
C	 0.1591378343	 0.0952249013	-0.015990133	 0.080779
O	 1.2150338503	-0.8543818327	 0.2253967562	-0.277934
C	 0.3461252434	-0.5036951084	 1.3160234223	 0.034322
C	 0.9817544164	 0.2062652164	 2.5011108914	-0.001615
O	-0.0138218536	 0.5625958801	 3.4176382846	-0.433167
C	 2.0082891581	-0.702009606	 3.2138829491	 0.37202
N	 3.0143455178	-1.1726613328	 2.4447816813	-0.515906
O	 1.8880766257	-0.9133542195	 4.4104175883	-0.381953
H	 1.3684946167	 1.8812197345	 0.2033001471	 0.13194
H	 0.869665058	 1.5154883498	-1.4537930397	 0.132891
H	-0.3086185263	 2.1663245654	-0.3035922844	 0.137233
H	-0.6496590055	-0.3274455848	-0.6145166978	 0.099975
H	-0.3385429373	-1.2966502981	 1.6198394812	 0.106654
H	 1.5297479902	 1.0936854975	 2.1508009091	 0.093988
H	 0.2828143785	 0.1652494724	 4.2572930485	 0.296451
H	 2.9415186761	-1.1055508803	 1.4399475051	 0.28212
H	 3.6600482377	-1.8292947621	 2.8532274669	 0.265065
56.1871	79.8078	144.9564	193.4699	213.5781	311.6144	336.5307	381.6473	403.2819	445.2861	472.4998	522.8668	565.3106	593.9745	660.6095	720.9768	778.6116	848.321	889.5823	967.9206	998.2177	1093.3944	1105.808	1123.0206	1150.5769	1174.5457	1181.2735	1260.967	1289.4436	1313.4371	1356.1082	1403.3833	1419.2463	1450.2669	1470.2607	1489.0979	1509.1362	1623.2905	1790.473	2994.6699	3045.0178	3093.7745	3107.2213	3111.3476	3138.1855	3562.4239	3610.9348	3702.8897
CC1OC1C(O)C(N)=O	C[C@H]1O[C@H]1[C@@H](O)C(=O)N	
InChI=1S/C5H9NO3/c1-2-4(9-2)3(7)5(6)8/h2-4,7H,1H3,(H2,6,8)	InChI=1S/C5H9NO3/c1-2-4(9-2)3(7)5(6)8/h2-4,7H,1H3,(H2,6,8)/t2-,3-,4-/m1/s1
