16
gdb 34578	3.46597	1.26182	0.99776	4.452	89.24	-0.2374	-0.0727	0.1647	1154.0821	0.126757	-363.653087	-363.645656	-363.644712	-363.685007	28.631	
N	 0.3522001298	-0.8982716836	-1.0394670923	-0.338951
C	 0.179069998	 0.1578627692	-0.5926542565	 0.220738
C	 0.0092020025	 1.4545449468	-0.0283825628	 0.11195
C	-1.2209730835	 2.0269520489	 0.021139314	-0.110888
C	-1.4934418371	 3.3820110979	 0.4154760246	-0.102235
C	-0.6604329324	 4.4479917657	 0.2490303755	-0.096436
C	 0.6569356082	 4.4188347685	-0.3379340139	-0.049932
C	 1.5069801234	 3.3752782078	-0.2945722175	-0.081447
C	 1.2267263807	 2.1568066518	 0.5437970295	-0.355874
H	-2.0742314978	 1.4281499366	-0.2862210611	 0.11884
H	-2.5094963623	 3.5875281202	 0.7420066791	 0.105093
H	-1.0725202481	 5.4319365293	 0.4606246388	 0.104822
H	 0.9633588872	 5.3173853717	-0.868583524	 0.103353
H	 2.4324813255	 3.408768372	-0.8615447061	 0.110408
H	 1.0039141538	 2.4558341495	 1.576277737	 0.131421
H	 2.083922382	 1.4826294578	 0.5656942158	 0.129136
101.4592	155.1414	238.3231	309.7879	340.5409	379.2388	424.0122	572.5946	588.1693	598.5117	630.8526	731.8747	794.9734	823.2801	892.961	921.4144	948.3345	970.7462	991.5152	1008.1191	1010.1694	1094.6427	1144.6484	1224.0766	1255.5489	1283.4487	1328.8546	1354.1169	1408.243	1470.7787	1475.1855	1565.32	1652.763	1670.8858	2322.172	3018.397	3119.7287	3144.264	3154.146	3164.18	3174.559	3181.7133
N#CC1=CC=CC=CC1	N#CC1=CC=CC=CC1	
InChI=1S/C8H7N/c9-7-8-5-3-1-2-4-6-8/h1-5H,6H2	InChI=1S/C8H7N/c9-7-8-5-3-1-2-4-6-8/h1-5H,6H2
