19
gdb 93375	3.01669	1.48314	1.12962	4.4432	76.22	-0.2288	0.0026	0.2314	1103.5419	0.161059	-419.205941	-419.197874	-419.19693	-419.238465	31.294	
C	 0.1311812146	 1.5742801192	-0.0858236858	-0.406354
C	 0.0248958809	 0.0512646423	-0.0205475082	 0.032416
N	 0.6123351568	-0.5631313421	-1.2066962412	-0.318551
C	 0.5429879656	-2.0279962461	-1.1538125543	-0.273376
C	 1.5782845264	-2.4424617171	-0.1168379557	 0.394687
O	 2.4769146461	-3.2176137993	-0.3238919769	-0.316741
N	 1.4187858232	-1.7958369805	 1.1267311143	-0.117791
C	 2.1915539881	-0.5789718269	 1.3916552992	-0.246061
C	 0.7076991376	-0.5234904302	 1.2148178623	 0.00002
H	 1.1759221865	 1.8826573466	-0.1795480906	 0.131065
H	-0.4223009264	 1.9668703321	-0.9458611282	 0.114137
H	-0.2893422435	 2.0304289232	 0.8154766849	 0.122448
H	-1.0465191768	-0.2172992128	 0.0736117859	 0.061834
H	 0.1663154939	-0.2099661468	-2.0453703797	 0.227445
H	-0.457977462	-2.4125007293	-0.8828335659	 0.099696
H	 0.8344182502	-2.4547577936	-2.1141943677	 0.129718
H	 2.624708923	-0.4970379682	 2.3845066154	 0.125274
H	 2.813969128	-0.2167507977	 0.5785697302	 0.140974
H	 0.1110263175	-0.4334941328	 2.1211306521	 0.099161
75.1373	191.4776	227.0269	248.6899	264.4136	314.5636	391.7788	431.6782	503.5071	568.95	637.7635	691.3512	719.2949	764.1023	819.8506	914.8311	952.2064	961.4589	993.7627	1038.1357	1052.1644	1069.437	1098.1845	1121.0722	1130.8185	1160.1942	1178.8009	1222.0122	1254.7291	1295.9921	1352.5903	1368.8832	1393.3991	1407.4553	1414.9747	1468.6957	1481.0639	1495.3382	1499.9778	1505.723	1829.6734	2889.969	2930.6512	3036.5346	3103.0952	3113.0702	3118.7901	3123.5916	3126.2048	3205.7294	3537.9731
CC1NCC(=O)N2CC12	C[C@H]1NCC(=O)N2C[C@@H]12	
InChI=1S/C6H10N2O/c1-4-5-3-8(5)6(9)2-7-4/h4-5,7H,2-3H2,1H3	InChI=1S/C6H10N2O/c1-4-5-3-8(5)6(9)2-7-4/h4-5,7H,2-3H2,1H3/t4-,5+,8?/m1/s1
