18
gdb 99810	1.84124	1.50763	1.29606	2.8091	74.15	-0.2427	0.0154	0.2581	1121.5061	0.145222	-439.08539	-439.075336	-439.074392	-439.120096	37.402	
C	-0.3991352743	 1.5710507325	-0.0767014264	-0.413281
C	 0.0009222057	 0.0841637727	-0.0371763661	-0.061547
C	 0.8898208347	-0.1730085213	 1.2160199753	-0.108301
O	 1.1415331363	-1.5472467761	 1.4703123077	-0.41497
C	-1.183540708	-0.7698643777	 0.0697279489	 0.341185
C	-2.1332639805	-1.4962005664	 0.2094058084	-0.504298
C	 0.752603138	-0.2668715703	-1.3671645941	 0.387666
N	 1.4918858697	-1.4016018885	-1.3165561383	-0.522849
O	 0.6551688884	 0.4330786434	-2.3544840855	-0.365101
H	 0.4953752459	 2.2005938385	-0.0539372695	 0.122959
H	-0.9352880817	 1.7870492292	-0.9999770192	 0.155902
H	-1.0305637231	 1.817745138	 0.7804396859	 0.116288
H	 1.8661620998	 0.2974469211	 1.0700820756	 0.127524
H	 0.4071461863	 0.2979910303	 2.0826474822	 0.112101
H	 0.2796422795	-1.9721798499	 1.5780740002	 0.292378
H	-2.9897854553	-2.119178479	 0.2934389827	 0.206167
H	 1.6111547448	-1.8990802383	-0.4448988801	 0.270526
H	 2.0216464738	-1.6539174283	-2.1346483075	 0.25765
48.2305	130.1146	142.3236	202.4757	207.1053	257.9852	292.7239	305.4057	374.2204	404.1215	437.783	464.861	518.5891	564.7305	624.8772	635.3838	654.53	676.6504	694.0964	794.7083	843.4729	929.6228	999.3635	1063.463	1108.4701	1153.7531	1161.4451	1181.6141	1262.0719	1335.5583	1387.0915	1407.2384	1429.752	1483.199	1491.877	1499.4342	1613.7532	1800.8178	2219.0631	3016.4699	3052.482	3097.9243	3123.0432	3162.9166	3497.2494	3536.0114	3700.3229	3756.5551
CC(CO)(C#C)C(N)=O	C[C@@](CO)(C#C)C(=O)N	
InChI=1S/C6H9NO2/c1-3-6(2,4-8)5(7)9/h1,8H,4H2,2H3,(H2,7,9)	InChI=1S/C6H9NO2/c1-3-6(2,4-8)5(7)9/h1,8H,4H2,2H3,(H2,7,9)/t6-/m0/s1
