19
gdb 123861	3.41873	1.5636	1.12143	2.9538	81.45	-0.2247	0.0293	0.2539	1082.4478	0.164566	-382.119497	-382.112465	-382.11152	-382.150939	28.164	
C	-0.0205979872	 1.503538512	-0.0425578985	-0.217336
C	 1.3952218094	 2.0949041357	-0.0008518058	-0.20446
C	 2.0735215292	 1.7663947497	 1.33995412	-0.317858
C	 1.8932092262	 0.3221771505	 1.7053054005	 0.395932
C	 2.5361821801	-0.5097601364	 2.6049931198	-0.346749
C	 1.8618771493	-1.7413577986	 2.4989113035	 0.000911
N	 0.8762048683	-1.6938399815	 1.6055159555	-0.282833
N	 0.9069096707	-0.427119673	 1.1409100951	-0.009061
C	 0.0259360893	-0.0226806105	 0.0572733975	-0.133629
H	-0.611896184	 1.9093356307	 0.7878550241	 0.11057
H	-0.5343891205	 1.7806479638	-0.9681633154	 0.106898
H	 1.9862265505	 1.6796074059	-0.8271189507	 0.106917
H	 1.3631811555	 3.1790367915	-0.1460219962	 0.101236
H	 3.1401002875	 2.0110899657	 1.3074292693	 0.117427
H	 1.6395425632	 2.3993305761	 2.1267975101	 0.119205
H	 3.3640527464	-0.2529851228	 3.2465861247	 0.095914
H	 2.0503582082	-2.6595613315	 3.0363364454	 0.106392
H	-0.9611661025	-0.4507788583	 0.2484507233	 0.130264
H	 0.3945410802	-0.4539350189	-0.882786642	 0.120261
106.9715	172.8478	274.7724	316.9548	377.942	450.5016	500.4968	642.7717	663.8588	682.5956	714.9556	784.2968	834.1502	870.1642	886.466	934.1866	944.2619	957.2485	973.001	1064.9131	1072.5579	1114.0743	1152.6397	1178.4428	1194.1566	1221.4651	1266.4795	1282.076	1299.0989	1341.0899	1364.5152	1374.2864	1382.287	1385.1276	1449.2897	1476.2897	1489.769	1495.3385	1504.3796	1531.0347	1575.8987	3007.8218	3019.6674	3027.9907	3035.7675	3070.9509	3082.6934	3086.9245	3098.5429	3238.8801	3263.2539
C1CCC2=CC=NN2C1	C1CCc2ccnn2C1	
InChI=1S/C7H10N2/c1-2-6-9-7(3-1)4-5-8-9/h4-5H,1-3,6H2	InChI=1S/C7H10N2/c1-2-6-9-7(3-1)4-5-8-9/h4-5H,1-3,6H2
