19
gdb 81973	2.40977	1.75479	1.41598	1.4217	69.3	-0.2576	0.0592	0.3168	986.2391	0.161254	-460.151621	-460.143817	-460.142873	-460.183569	31.979	
O	 0.2270246255	 1.385625116	 0.1128296194	-0.44563
C	 0.0318669219	-0.025473781	 0.0127742069	 0.051617
C	-1.4145267819	-0.5093725895	-0.0954008237	-0.050356
C	-2.4169166144	 0.3190506484	-0.8519087474	-0.293862
C	-1.7015285659	-0.7879406537	-1.5708758355	-0.038505
C	-0.4412334452	-0.42233917	-2.3500913397	 0.056774
O	-0.4813374609	 0.9282743835	-2.8094130477	-0.447358
C	 0.6895857297	-0.5466413668	-1.2943810623	 0.095978
O	 1.8445220513	 0.1822329529	-1.6555351721	-0.455106
H	-0.2178160141	 1.7819697147	-0.6491412529	 0.286781
H	 0.5178217004	-0.4358959161	 0.9008811368	 0.092412
H	-1.7838567909	-1.1689957285	 0.6806610713	 0.08863
H	-3.4595991447	 0.1517043796	-0.6050596961	 0.115922
H	-2.1917335739	 1.3423677447	-1.1256624337	 0.125993
H	-2.2581268667	-1.6628868669	-1.8831691837	 0.088651
H	-0.2869053189	-1.1021399944	-3.1976166442	 0.071193
H	 0.4460567603	 1.1433947689	-2.9890594237	 0.284542
H	 0.9491013297	-1.6056621496	-1.1721278836	 0.081778
H	 1.848884549	 0.9490034278	-1.0612094581	 0.290545
93.6039	192.0286	263.5708	298.4967	328.4351	422.5962	456.6632	489.3823	501.6964	536.3457	620.2035	669.9749	720.8884	783.0373	794.1243	808.1865	860.6805	901.2028	930.4241	939.0181	1022.0956	1047.6905	1048.9429	1062.7305	1095.7015	1107.2642	1123.4763	1145.1781	1194.9576	1213.347	1271.3637	1276.1689	1294.124	1324.6397	1349.4412	1359.1457	1387.452	1419.1908	1431.7212	1450.3035	1498.3777	3016.4997	3036.2048	3088.0021	3145.1149	3176.3426	3186.3617	3229.1108	3692.6613	3726.3259	3751.7553
OC1C2CC2C(O)C1O	O[C@H]1[C@H]2C[C@H]2[C@@H](O)[C@H]1O	
InChI=1S/C6H10O3/c7-4-2-1-3(2)5(8)6(4)9/h2-9H,1H2	InChI=1S/C6H10O3/c7-4-2-1-3(2)5(8)6(4)9/h2-9H,1H2/t2-,3+,4-,5+,6-
