18
gdb 67112	2.59591	2.06333	1.74381	1.5294	75.38	-0.2404	0.076	0.3164	879.2474	0.149452	-401.857017	-401.850191	-401.849247	-401.887715	28.471	
O	 0.0545547513	 1.4460168053	 0.018814492	-0.474008
C	 0.1085781744	 0.062247347	-0.0248593132	 0.353806
C	 0.3547116033	-0.9626510703	 1.1146608752	-0.092953
C	-1.1300932168	-0.9619818636	 1.5627120316	-0.352407
C	-1.1491440197	-0.8503223959	 0.0288626949	 0.304892
C	-1.8867610491	-0.8539094318	-1.2891337402	-0.344199
C	-0.6035425295	-0.875059218	-2.206154294	-0.221561
C	 0.527438537	-0.8845313924	-1.1523720625	-0.086795
N	 0.0187185147	-1.8593170266	-0.0936659468	-0.171337
H	 0.9529195683	 1.7893281817	 0.0794919055	 0.283246
H	 1.2467246435	-1.1395311946	 1.7174165183	 0.077632
H	-1.5050418018	-1.896269149	 1.987809169	 0.108865
H	-1.4749572487	-0.0892903317	 2.1202760041	 0.111352
H	-2.5141809374	-1.7371984172	-1.4283034348	 0.111829
H	-2.4955287139	 0.0413055749	-1.4371623035	 0.112621
H	-0.5673556251	-1.7696227811	-2.8331884099	 0.110728
H	-0.5446523759	 0.0018830558	-2.8564455441	 0.107488
H	 1.5536497452	-1.0089225325	-1.5066718617	 0.060799
209.6328	219.1043	260.9156	301.7337	418.5347	452.6182	486.6171	627.5183	683.9139	723.2827	764.0128	828.3406	832.4334	877.3018	883.3305	893.0113	920.8041	952.9576	981.7354	1010.0837	1012.3521	1065.0554	1082.3901	1098.4758	1147.2586	1162.7273	1198.3508	1214.0172	1225.4124	1235.7525	1249.488	1262.1277	1268.7715	1311.4225	1334.3279	1392.4111	1473.0691	1488.8972	1496.9696	3060.9315	3066.5729	3070.5712	3087.9438	3104.1563	3104.8276	3123.0248	3136.5724	3800.0553
OC12C3CC11CCC2N31	O[C@@]12[C@H]3C[C@]41CC[C@@H]2N34	
InChI=1S/C7H9NO/c9-7-4-1-2-6(7)3-5(7)8(4)6/h4-5,9H,1-3H2	InChI=1S/C7H9NO/c9-7-4-1-2-6(7)3-5(7)8(4)6/h4-5,9H,1-3H2/t4-,5+,6-,7-/m0/s1
