21
gdb 61010	2.64603	1.21965	0.9393	2.807	82.62	-0.2413	-0.0177	0.2236	1300.797	0.181444	-387.071401	-387.062218	-387.061274	-387.106133	34.113	
C	 0.0618534103	 1.4796015922	-0.060407614	-0.414077
C	 0.0948091345	-0.0540011989	 0.061471811	-0.083697
C	 0.7237488922	-0.4414893723	 1.3845683246	 0.170837
O	 1.7043848896	-1.1255412548	 1.5225440428	-0.253577
C	-1.3212420013	-0.649339564	-0.0108840256	 0.019244
C	-2.135553083	-0.5283316016	-1.3492870449	-0.268445
C	-2.3410989413	-2.0482501155	-1.3369447682	-0.041184
C	-1.0115499354	-2.7418839301	-1.3736483729	-0.27155
C	-1.4958753346	-2.1756319247	-0.0668935912	-0.065109
H	 1.0712460439	 1.9013083224	-0.0706966085	 0.127884
H	-0.4411024357	 1.7802341789	-0.9840311685	 0.12942
H	-0.4839847533	 1.929891705	 0.7769248594	 0.119531
H	 0.7215819134	-0.4791911477	-0.7289626831	 0.09127
H	 0.1835493769	-0.0304193654	 2.2735440264	 0.062828
H	-1.9176249176	-0.234849311	 0.8101121116	 0.075318
H	-3.0547077952	 0.0482393542	-1.2281916162	 0.10567
H	-1.5913439806	-0.1371726889	-2.2163039458	 0.096752
H	-3.263722935	-2.555003572	-1.5909220261	 0.087628
H	-1.0489589275	-3.8244357589	-1.4387580425	 0.114244
H	-0.1729043748	-2.2988692655	-1.9055694385	 0.108695
H	-1.6539961556	-2.8120605414	 0.7956294803	 0.088318
51.4085	61.2098	151.4058	174.4108	204.2146	288.2058	316.5731	353.7265	408.7208	494.3812	538.5447	686.5606	781.5237	800.852	825.1546	891.1693	922.2123	942.6926	953.3137	961.725	1005.7554	1015.0122	1032.4978	1052.8371	1067.7632	1086.3645	1104.3746	1137.8577	1154.5295	1171.817	1212.2484	1244.2872	1264.507	1273.1866	1301.5635	1318.2994	1368.4332	1383.9333	1403.6777	1429.1533	1483.149	1495.9206	1498.4073	1499.6905	1834.0882	2824.0164	3031.4661	3035.0614	3040.064	3064.8521	3100.8203	3107.9306	3111.7081	3113.5367	3176.9626	3187.4663	3203.4397
CC(C=O)C1CC2CC12	C[C@@H](C=O)[C@H]1C[C@H]2C[C@@H]12	
InChI=1S/C8H12O/c1-5(4-9)7-2-6-3-8(6)7/h4-8H,2-3H2,1H3	InChI=1S/C8H12O/c1-5(4-9)7-2-6-3-8(6)7/h4-8H,2-3H2,1H3/t5-,6-,7+,8+/m0/s1
