21
gdb 42041	2.86846	1.47914	1.07788	1.9313	77.62	-0.2503	0.0778	0.3281	1150.5258	0.185618	-424.213552	-424.205738	-424.204794	-424.24697	30.648	
C	-0.0580077959	 1.4633586412	-0.3018891321	-0.24269
C	 1.3979111215	 1.6527088236	 0.2121079689	-0.242773
C	 1.4427499448	 0.1569630979	 0.6504002686	 0.010434
C	 1.6186797282	-0.0873860649	 2.143949433	-0.104347
O	 1.3952575094	-1.4460307333	 2.4980985735	-0.233791
C	 0.0524456662	-1.7835723193	 2.7142021973	 0.010521
O	-0.7504598001	-1.8315246067	 1.5661164937	-0.233644
C	-1.0707611323	-0.5612686435	 1.0135781066	-0.10564
C	 0.006851871	-0.0507240875	 0.0641433762	 0.014212
H	-0.8078631095	 2.0217774648	 0.2670345412	 0.097402
H	-0.2123515302	 1.6811538446	-1.3607327394	 0.10397
H	 2.1204664174	 1.9138906673	-0.5639276903	 0.10465
H	 1.509967907	 2.3721349377	 1.0289974675	 0.097358
H	 2.1951325449	-0.4336299028	 0.1213318892	 0.079031
H	 2.6486376963	 0.1448334639	 2.4380396221	 0.107159
H	 0.9573975999	 0.569755129	 2.7327810102	 0.082468
H	 0.0590004107	-2.7971545092	 3.1213952212	 0.114609
H	-0.3917518318	-1.0802462205	 3.4441402745	 0.07416
H	-2.0165716334	-0.6847015103	 0.4737128656	 0.10666
H	-1.252701489	 0.1637472956	 1.8238354034	 0.08229
H	 0.0268902448	-0.6996465774	-0.8154188608	 0.077962
20.7199	174.7423	213.8777	300.983	324.4611	389.1811	414.9953	456.827	561.6053	611.316	710.3324	745.075	785.7895	861.6244	938.5516	950.5587	955.1376	957.8953	1006.307	1011.8906	1029.2288	1070.6504	1082.9717	1121.3566	1168.32	1178.4306	1196.418	1236.7194	1253.5942	1259.2478	1271.2837	1285.3687	1288.1076	1305.6335	1345.0666	1357.9087	1366.2911	1405.9322	1406.3798	1448.8694	1479.1228	1490.6973	1493.9119	1497.1574	1511.2553	2920.5392	2962.2157	2976.618	3048.2786	3051.2935	3055.3687	3056.6991	3065.0141	3077.6546	3097.6136	3107.0897	3116.7299
C1CC2COCOCC12	C1C[C@H]2COCOC[C@@H]12	
InChI=1S/C7H12O2/c1-2-7-4-9-5-8-3-6(1)7/h6-7H,1-5H2	InChI=1S/C7H12O2/c1-2-7-4-9-5-8-3-6(1)7/h6-7H,1-5H2/t6-,7+
