18
gdb 12326	2.73004	2.16373	1.41474	2.6597	73.35	-0.2344	-0.0118	0.2226	924.7665	0.154584	-347.844524	-347.836792	-347.835848	-347.876768	29.107	
C	-0.2020499615	 1.4985839441	 0.0530423084	-0.396942
C	 0.0507573529	-0.0255309013	-0.0192756928	-0.119736
C	 0.8009173134	-0.4185612351	-1.267409	-0.051456
C	 1.9669442672	-1.062607843	-1.2766092074	-0.070666
C	 2.7047697647	-1.4568573771	-0.0250182354	-0.261915
C	 2.262449498	-0.6098419804	 1.1832128182	-0.303594
C	 0.7504947763	-0.4880485677	 1.2614391686	 0.385725
O	 0.1274956909	-0.7104159145	 2.2737193887	-0.322713
H	 0.7398587811	 2.0544438825	 0.101351958	 0.120801
H	-0.7426379353	 1.8362785125	-0.8366719174	 0.12023
H	-0.7988028874	 1.7436405661	 0.9355392022	 0.136827
H	-0.9321756892	-0.5147455188	-0.0166916099	 0.106504
H	 0.3193525741	-0.1592704768	-2.208431946	 0.089232
H	 2.4223660657	-1.3346758595	-2.2255099273	 0.091275
H	 2.5385704092	-2.5232145373	 0.1850629833	 0.123806
H	 3.7857226273	-1.3519673014	-0.1728887864	 0.111192
H	 2.6335092267	-1.0075312561	 2.1301667532	 0.11833
H	 2.6643261159	 0.4053554039	 1.0590246019	 0.1231
58.8216	142.5436	219.6851	247.1819	262.3028	402.7307	454.6762	491.74	515.7237	655.4816	697.5707	732.3804	785.0647	868.7341	888.5573	941.0528	985.0068	1005.0034	1031.555	1034.0309	1086.2503	1104.0433	1148.8881	1183.4787	1241.5589	1257.9267	1301.8576	1319.0339	1335.9697	1370.2089	1394.6493	1419.6574	1464.7696	1485.7492	1495.5558	1498.4068	1725.0753	1814.8122	3007.6005	3021.9843	3022.5736	3036.4519	3054.6516	3105.7286	3112.2578	3122.5139	3137.5663	3165.3692
CC1C=CCCC1=O	C[C@H]1C=CCCC1=O	
InChI=1S/C7H10O/c1-6-4-2-3-5-7(6)8/h2,4,6H,3,5H2,1H3	InChI=1S/C7H10O/c1-6-4-2-3-5-7(6)8/h2,4,6H,3,5H2,1H3/t6-/m0/s1
