17
gdb 29946	3.3434	1.36103	0.97898	2.2874	79.11	-0.2349	-0.0361	0.1989	1186.9375	0.137117	-418.089954	-418.081542	-418.080598	-418.123119	30.715	
C	 0.0056639176	 1.4479394634	-0.0075126436	-0.335225
N	 0.0162683776	-0.010684093	-0.0127992737	-0.119844
C	 0.0461292897	-0.7219817613	-1.1658233599	 0.104959
N	 0.0577101884	-2.0141554198	-1.258228803	-0.353716
C	 0.0374632497	-2.7158451971	-0.0714996976	 0.325587
C	 0.0517272762	-4.2093361487	-0.219314469	-0.464487
C	 0.0069502731	-2.0953016351	 1.1422817296	-0.287326
C	-0.0059127283	-0.6581027712	 1.2555754682	 0.427364
O	-0.0323570584	 0.0121610642	 2.2735035461	-0.404775
H	 0.8736336007	 1.8244352512	 0.5380790278	 0.160541
H	 0.0250106318	 1.8091899333	-1.0366770514	 0.131329
H	-0.8901391879	 1.8118627447	 0.5003566726	 0.16053
H	 0.0613682815	-0.1277781905	-2.0774163493	 0.128756
H	-0.8119435203	-4.5352547161	-0.8084552932	 0.143652
H	 0.944783147	-4.5221990837	-0.7704992541	 0.143658
H	 0.0346032915	-4.7141686885	 0.7484709427	 0.125713
H	-0.0087787599	-2.6527420318	 2.0705132077	 0.113283
106.1142	118.0974	129.8124	189.1425	279.2919	302.3354	336.0028	439.3483	450.9879	533.7553	608.5155	643.9566	759.2002	776.329	779.3991	885.1027	941.6511	964.0724	1035.526	1064.5829	1081.3162	1145.3663	1155.4254	1214.9841	1241.5779	1356.9987	1381.6502	1410.9114	1448.1479	1463.4342	1466.0503	1472.2943	1480.4031	1513.8085	1585.8477	1658.027	1778.6827	3041.5445	3060.2627	3099.2329	3131.4867	3136.5425	3150.2856	3156.4015	3213.3815
CN1C=NC(C)=CC1=O	Cn1cnc(C)cc1=O	
InChI=1S/C6H8N2O/c1-5-3-6(9)8(2)4-7-5/h3-4H,1-2H3	InChI=1S/C6H8N2O/c1-5-3-6(9)8(2)4-7-5/h3-4H,1-2H3
