20
gdb 50526	3.0083	1.20368	1.008	4.2732	81.29	-0.2354	0.0269	0.2624	1240.7224	0.171492	-403.153083	-403.144451	-403.143507	-403.187197	31.967	
O	 0.3581176614	-0.3036134124	 0.1625312522	-0.336398
C	 0.2616194378	 0.8990947015	 0.3094644537	 0.118922
N	 1.2359092934	 1.7872431054	 0.0187695044	-0.092295
C	 2.5776979936	 1.5638426782	-0.5139413343	-0.169365
C	 2.7983047144	 3.1029319778	-0.4573895238	-0.324357
C	 1.3514690897	 3.2418605739	 0.1078585354	 0.390462
C	 0.3578413048	 4.2081871295	-0.5895665217	-0.282314
C	 0.5772035809	 5.2031940714	 0.5831705625	-0.209309
C	 1.1290551555	 4.0232810605	 1.4297867656	-0.28232
H	-0.6509857214	 1.3926900055	 0.7030147438	 0.061082
H	 3.2155492051	 0.9645713649	 0.1429048806	 0.124721
H	 2.5837065204	 1.1157961473	-1.5122523201	 0.124733
H	 3.5836555893	 3.4259395136	 0.2279169796	 0.115327
H	 2.9510518195	 3.5773680438	-1.4281257615	 0.115326
H	 0.603863515	 4.5303177323	-1.6048111953	 0.102439
H	-0.6571549332	 3.8002591234	-0.5863456258	 0.112002
H	 1.3502267949	 5.9414759328	 0.3555543404	 0.109832
H	-0.3006976303	 5.7255096895	 0.9662803775	 0.107068
H	 0.3437862724	 3.5602549118	 2.0344169176	 0.112002
H	 2.0043043968	 4.1945773195	 2.0619372992	 0.102442
53.4086	88.5669	107.6464	189.837	273.6596	322.0546	337.4289	407.9244	444.6187	590.8245	697.0419	779.4414	790.753	833.4575	864.6681	909.0177	915.7513	935.5406	953.6133	963.3663	1028.6569	1035.7978	1078.4992	1142.1143	1167.3182	1182.986	1196.17	1204.3127	1220.5741	1248.0238	1254.7858	1273.0491	1273.3816	1301.0959	1324.8751	1398.8793	1443.9953	1467.7702	1482.2986	1489.3413	1505.2912	1522.1803	1785.1712	2916.4673	3047.0747	3052.548	3057.3787	3071.6962	3079.8595	3088.524	3104.4819	3108.1143	3129.7307	3135.2221
O=CN1CCC11CCC1	O=CN1CCC21CCC2	
InChI=1S/C7H11NO/c9-6-8-5-4-7(8)2-1-3-7/h6H,1-5H2	InChI=1S/C7H11NO/c9-6-8-5-4-7(8)2-1-3-7/h6H,1-5H2
