17
gdb 65064	2.20243	1.75412	1.15328	4.3544	72.68	-0.2627	0.016	0.2787	1069.3856	0.135326	-417.969953	-417.961348	-417.960403	-418.003225	32.709	
O	 0.1725764183	 1.0216833073	-0.9879174854	-0.459259
C	 0.0740720251	-0.068589191	-0.1072371399	 0.309095
C	 1.268631299	-0.9707118942	 0.0426014389	-0.344121
C	 0.9045517436	 0.0083721776	 1.1415747035	-0.295452
C	-1.3425189957	-0.6183172445	-0.0420884708	 0.132849
C	-2.4863634709	 0.3413209955	-0.1080780329	-0.261094
N	-2.2058606648	-0.5496022759	-1.2393051657	-0.341223
C	-1.4983899712	-1.825446283	 0.7417079714	 0.259398
N	-1.5919163534	-2.7748055466	 1.3949257714	-0.351565
H	 0.5587865977	 0.7094382576	-1.8127583115	 0.295981
H	 1.1035645243	-2.0272462843	 0.219616106	 0.150326
H	 2.136121693	-0.7383842936	-0.5666181377	 0.117405
H	 1.5164160891	 0.8959212109	 1.2487798305	 0.130617
H	 0.4940936348	-0.389368786	 2.062707272	 0.141198
H	-3.3988640983	 0.1219006204	 0.4363986165	 0.140618
H	-2.2210985156	 1.3899906931	-0.1971749082	 0.142228
H	-1.6994325651	-0.0185512633	-1.9456518483	 0.233
53.2127	145.8538	207.9537	247.4538	266.0948	313.2111	351.2916	385.6899	431.0955	505.1143	555.2264	580.8296	609.4253	771.1945	830.967	864.5413	905.0924	933.0197	937.3271	948.971	990.5581	1001.1944	1058.3892	1080.082	1088.7089	1132.117	1190.8841	1217.0164	1250.9431	1296.4338	1334.359	1357.1429	1366.5806	1452.2467	1489.4668	1495.8961	2356.2755	3126.206	3134.4348	3145.5841	3223.1932	3224.0039	3241.3117	3493.3159	3811.496
OC1(CC1)C1(CN1)C#N	OC1(CC1)[C@]1(CN1)C#N	
InChI=1S/C6H8N2O/c7-3-5(4-8-5)6(9)1-2-6/h8-9H,1-2,4H2	InChI=1S/C6H8N2O/c7-3-5(4-8-5)6(9)1-2-6/h8-9H,1-2,4H2/t5-/m1/s1
