18
gdb 85261	2.54791	1.55133	1.16336	4.2427	72.7	-0.2395	0.0116	0.251	1098.0938	0.14817	-439.11371	-439.105413	-439.104469	-439.146902	31.464	
C	 0.5770980759	 1.471725784	-0.1504772182	-0.389021
C	-0.1034515625	 0.1159051444	 0.0605180052	 0.025227
C	 0.118399874	-0.8758578615	-1.1160529214	-0.332215
C	 1.2517320891	-1.7642180678	-0.6418712189	 0.320037
C	 1.8019284035	-2.9370290032	-1.3203069952	-0.240516
O	 2.523498681	-1.7035889614	-1.299719529	-0.266403
C	 1.3136836394	-1.6385258633	 0.873128864	 0.370937
O	 1.9854199761	-2.2995017393	 1.6333163022	-0.379896
N	 0.4593477021	-0.6201408534	 1.19186697	-0.32604
H	 1.6395759312	 1.339313243	-0.3783950203	 0.140069
H	 0.1081958013	 2.010162968	-0.9804815614	 0.122244
H	 0.4946194497	 2.0963711278	 0.745085606	 0.116422
H	-1.1748446449	 0.2737298713	 0.2270733464	 0.08874
H	-0.785381992	-1.4708728131	-1.2787008746	 0.119581
H	 0.3679197914	-0.3659412626	-2.0484287965	 0.12705
H	 2.2310068151	-3.73230494	-0.7140242255	 0.138666
H	 1.39847421	-3.2285916127	-2.2894067108	 0.113147
H	 0.4207030798	-0.27242767	 2.1378048678	 0.251972
56.6029	102.8881	254.0301	262.6063	266.3318	315.5242	368.1888	428.8299	479.1845	528.2982	588.594	690.6181	734.2195	753.3871	808.9053	843.696	904.7347	933.9553	969.7411	1000.9646	1042.9863	1108.6373	1132.1064	1135.8835	1155.6566	1179.3884	1220.5437	1270.7932	1301.4023	1337.3308	1391.7136	1411.1616	1425.0272	1442.3343	1476.614	1495.9212	1496.7968	1518.4033	1836.3317	3033.0431	3035.2622	3061.4012	3085.2842	3104.4216	3114.5311	3121.3373	3182.6501	3630.739
CC1CC2(CO2)C(=O)N1	C[C@H]1C[C@]2(CO2)C(=O)N1	
InChI=1S/C6H9NO2/c1-4-2-6(3-9-6)5(8)7-4/h4H,2-3H2,1H3,(H,7,8)	InChI=1S/C6H9NO2/c1-4-2-6(3-9-6)5(8)7-4/h4H,2-3H2,1H3,(H,7,8)/t4-,6-/m0/s1
