15
gdb 28912	2.46318	1.87542	1.06852	2.2042	72.32	-0.2055	0.0026	0.2082	1044.6897	0.116298	-450.202521	-450.194819	-450.193875	-450.234317	30.06	
N	-0.0275672907	 1.3671418159	-0.1756786056	-0.574352
C	-0.0242308434	-0.0087213051	-0.0950627524	 0.339473
C	-1.2435097779	-0.6960265493	 0.0058954558	 0.123885
N	-2.4666272269	 0.0034706537	 0.0908990325	-0.62392
C	-1.1315632537	-2.0800865272	 0.071625882	 0.380697
O	-2.2635306266	-2.8096486265	 0.2000965548	-0.432776
N	 0.0286617861	-2.7316744592	 0.0234041594	-0.365182
C	 1.1135167206	-1.9685627759	-0.1039014642	 0.048657
N	 1.1559075042	-0.6425012575	-0.1614083022	-0.334304
H	 0.8825242423	 1.7787292108	-0.0263302662	 0.2579
H	-0.778973067	 1.8184813296	 0.3284990617	 0.258898
H	-3.2504619681	-0.6356948164	 0.1418102631	 0.259421
H	-2.6006170449	 0.6284017247	-0.698357488	 0.249159
H	-1.9816239139	-3.7343004383	 0.2276758417	 0.300823
H	 2.0665468798	-2.4883827693	-0.1588606624	 0.111619
141.0929	208.4562	250.3791	279.6828	314.6404	328.8523	503.6279	514.0764	528.6372	543.8598	559.2078	573.0081	623.3155	708.3254	727.11	798.7738	846.2504	904.9189	973.3772	1012.2791	1081.4191	1152.8763	1270.774	1308.6913	1344.1102	1358.9238	1362.7368	1493.7088	1503.8355	1620.3426	1628.3738	1644.0974	1675.4543	3165.9014	3501.1702	3550.4543	3606.8986	3667.2188	3771.8697
NC1=C(N)C(O)=NC=N1	Nc1c(N)c(O)ncn1	
InChI=1S/C4H6N4O/c5-2-3(6)7-1-8-4(2)9/h1H,5H2,(H3,6,7,8,9)	InChI=1S/C4H6N4O/c5-2-3(6)7-1-8-4(2)9/h1H,5H2,(H3,6,7,8,9)
