22
gdb 99131	4.24042	0.7068	0.65381	1.9091	83.7	-0.2361	-0.0066	0.2296	1812.1364	0.191856	-404.352882	-404.342222	-404.341277	-404.390177	37.684	
C	-0.2757078056	 1.5274983974	 0.0381529453	-0.375794
C	-0.1160023114	 0.0169500583	 0.1877277564	-0.280262
C	 0.8695431665	-0.3924763313	 1.2726720902	 0.388809
O	 1.358537205	 0.4111350123	 2.0340108538	-0.305555
C	 1.2227564091	-1.8794521406	 1.3305111109	-0.319947
C	 1.7797346944	-2.2948627506	 2.6714321443	 0.003623
N	 0.822431518	-2.8810841472	 3.6274706063	-0.342677
C	 1.9290556915	-3.7075791695	 3.112777936	-0.008338
C	 1.5652784283	-4.9103947652	 2.2743879886	-0.392404
H	 0.6713371143	 1.9955004807	-0.2441525969	 0.126718
H	-1.019387306	 1.7650760941	-0.7275753445	 0.109263
H	-0.5905795076	 1.9781564301	 0.9822610128	 0.135448
H	-1.0761179206	-0.4586547744	 0.4357703148	 0.129517
H	 0.1949078037	-0.4533547587	-0.7553121361	 0.116119
H	 0.3439313911	-2.475347315	 1.0680325589	 0.120607
H	 1.9631075104	-2.052601287	 0.5342457731	 0.124479
H	 2.4995167796	-1.5837927858	 3.068312137	 0.101345
H	 1.0191255064	-2.558219207	 4.5705478538	 0.231713
H	 2.7599916861	-3.885303461	 3.7956764118	 0.080446
H	 0.7118210165	-4.7019330393	 1.6255144595	 0.12247
H	 2.409980422	-5.2200874305	 1.6489174915	 0.11403
H	 1.2951939283	-5.75652274	 2.9153024726	 0.12039
38.0634	41.9556	80.211	111.9822	174.5246	191.7816	206.3134	264.0033	340.0278	372.2141	446.8355	468.5661	496.3975	651.0999	731.139	774.887	802.0241	862.8789	883.7623	920.0803	975.7394	995.5814	1006.79	1030.5146	1049.7264	1085.7722	1101.7857	1127.6228	1158.0537	1191.7888	1238.8397	1264.557	1280.7777	1290.2001	1320.2733	1372.7102	1402.9369	1413.7635	1425.876	1438.948	1452.1371	1472.9098	1490.9106	1492.3464	1498.6795	1505.1928	1807.5894	3004.3164	3014.341	3035.0627	3041.5129	3051.112	3088.2967	3094.0054	3098.7356	3119.8677	3129.6974	3129.7877	3148.1011	3509.2379
CCC(=O)CC1NC1C	CCC(=O)C[C@H]1N[C@H]1C	
InChI=1S/C7H13NO/c1-3-6(9)4-7-5(2)8-7/h5,7-8H,3-4H2,1-2H3	InChI=1S/C7H13NO/c1-3-6(9)4-7-5(2)8-7/h5,7-8H,3-4H2,1-2H3/t5-,7+/m0/s1
