14
gdb 5215	7.86692	1.201	1.04244	2.5893	75.78	-0.1829	-0.0069	0.1759	1069.2094	0.108525	-378.758804	-378.751664	-378.75072	-378.790302	26.529	
N	-0.0443510951	 1.3503821692	-0.1716597125	-0.49851
C	-0.0926429165	-0.0124535846	-0.220614747	 0.090258
N	-1.0444794902	-0.6695135424	 0.3311905735	-0.349245
C	-1.1135811504	-2.0281180443	 0.2104758754	 0.440425
C	-2.0205394896	-2.9126115432	 0.7234820247	-0.276106
C	-1.6140898878	-4.2148725835	 0.2911183164	-0.169361
C	-0.4938904306	-4.0370613961	-0.4540930404	-0.025777
O	-0.1682894649	-2.7134062719	-0.5180806562	-0.191408
H	 0.8366793274	 1.8069695403	-0.3356972687	 0.260815
H	-0.6702832403	 1.8018386638	 0.4783382761	 0.263166
H	 0.7144157973	-0.4721492982	-0.7968573407	 0.121047
H	-2.8687858871	-2.6495374605	 1.3339502001	 0.104143
H	-2.0954028048	-5.15611146	 0.5064974897	 0.105328
H	 0.1633210427	-4.7054123687	-0.9853969205	 0.125226
93.5955	154.4521	161.2663	359.4071	369.6306	430.7648	477.5891	576.2067	608.8701	690.825	724.2842	767.2638	800.6609	843.8955	896.0148	935.0792	997.6202	1030.3944	1081.1149	1111.0335	1178.9806	1224.4641	1274.0675	1303.7722	1391.2704	1411.4924	1542.6019	1616.1811	1650.4671	1728.0721	3098.0052	3250.7711	3270.8913	3283.4188	3586.3826	3716.1049
NC=NC1=CC=CO1	NC=Nc1ccco1	
InChI=1S/C5H6N2O/c6-4-7-5-2-1-3-8-5/h1-4H,(H2,6,7)	InChI=1S/C5H6N2O/c6-4-7-5-2-1-3-8-5/h1-4H,(H2,6,7)
