19
gdb 31001	2.41413	1.23164	0.85883	0.9538	81.89	-0.1752	0.0506	0.2258	1356.6405	0.159227	-419.23692	-419.226896	-419.225952	-419.272587	35.983	
C	-0.2033963083	 1.4677461204	 0.0603835183	-0.508284
C	-0.0095729996	-0.0073514558	-0.0661254758	 0.198903
C	 0.1744783607	-0.8273196759	-1.1601696857	 0.24184
C	 0.2238654018	-0.4242873463	-2.5952352633	-0.21362
O	-0.8810675362	-1.0107422806	-3.2898604067	-0.418328
C	 0.2880678954	-2.1724910049	-0.6793271963	-0.296064
C	 0.1814158466	-2.1332149961	 0.6877218857	 0.28157
N	 0.2763233047	-3.1171590244	 1.6948686206	-0.61063
N	 0.0034310846	-0.8186981606	 1.0513290312	-0.320739
H	 0.6037381464	 1.9484571442	 0.6291209075	 0.12132
H	-0.2301169841	 1.936025929	-0.9255598351	 0.137096
H	-1.146729512	 1.7136507237	 0.5645797655	 0.124557
H	 0.2034081172	 0.6729066368	-2.6832027151	 0.078474
H	 1.1712676224	-0.7625307855	-3.0463780247	 0.084369
H	-0.7560693099	-0.8378619487	-4.2286527324	 0.278288
H	 0.3967063264	-3.0597698264	-1.2845196237	 0.083296
H	 0.6803292168	-3.966004119	 1.3181578149	 0.245507
H	-0.6326477176	-3.3596562739	 2.0806792792	 0.241431
H	 0.0014552847	-0.5007978361	 2.0054872059	 0.251014
33.2615	93.7685	132.4509	145.4373	195.8809	244.4982	264.0161	289.8739	319.0984	412.0572	452.7122	505.2585	605.2018	625.9236	651.3762	692.5602	772.9221	803.9068	839.4939	987.0361	996.8911	1030.1597	1042.232	1059.4292	1147.6254	1156.1139	1186.1313	1240.3591	1248.9279	1265.1245	1341.1319	1412.6271	1446.014	1470.4076	1474.8229	1478.2437	1495.2621	1514.8808	1578.4568	1643.0969	1663.4193	2958.7922	2990.3262	3009.9875	3051.0267	3125.5944	3244.7921	3481.6578	3592.6182	3670.9997	3808.6601
CC1=C(CO)C=C(N)N1	Cc1c(CO)cc(N)[nH]1	
InChI=1S/C6H10N2O/c1-4-5(3-9)2-6(7)8-4/h2,8-9H,3,7H2,1H3	InChI=1S/C6H10N2O/c1-4-5(3-9)2-6(7)8-4/h2,8-9H,3,7H2,1H3
