18
gdb 23138	2.66834	1.18476	0.885	2.5691	71.28	-0.2474	-0.0047	0.2427	1289.4191	0.147252	-476.179274	-476.170351	-476.169407	-476.213438	32.81	
O	-0.0453201159	 1.393147606	-0.220615967	-0.422391
C	 0.0054372179	-0.0123400226	-0.1128014585	-0.057929
C	-1.372995707	-0.5732178644	 0.2585152658	 0.005705
O	-2.3474374838	-0.137778606	-0.698710451	-0.27996
C	-2.5272295265	-1.1692904385	-1.6733379537	-0.097932
C	-2.3606825694	-2.4924822974	-0.9121851258	-0.323751
C	-1.4462775705	-2.0843832305	 0.2154724816	 0.375349
N	-0.7955897455	-2.8079420086	 1.0318574755	-0.223237
O	-1.0110437693	-4.1730408121	 0.7878634986	-0.388876
H	-0.824505071	 1.5859225659	-0.7572598248	 0.287931
H	 0.3552305547	-0.4809784076	-1.0479915587	 0.080407
H	 0.7242739501	-0.2658225915	 0.6720841178	 0.124348
H	-1.6720827142	-0.1640907943	 1.2289429103	 0.110998
H	-3.5170765462	-1.0333785869	-2.1147259535	 0.119173
H	-1.7785500863	-1.0848706942	-2.4744082949	 0.104135
H	-3.3138585768	-2.8469356966	-0.5033223056	 0.138854
H	-1.9387834131	-3.3036350534	-1.5097922189	 0.137632
H	-0.4667958571	-4.5910168173	 1.464047013	 0.309544
61.6429	111.941	133.1006	181.7578	227.4554	295.9692	352.4132	400.0113	456.8735	467.6595	515.8256	560.1802	659.3326	724.7776	829.6252	848.1495	897.1114	955.5348	988.8188	1007.6502	1053.0422	1075.6834	1092.298	1107.7998	1194.2388	1218.1761	1223.9889	1245.0396	1279.0087	1296.2393	1339.1758	1381.5024	1391.9948	1409.7079	1428.4072	1465.8245	1499.8312	1522.3196	1763.1318	2963.5269	2998.6289	3049.6572	3061.9313	3090.7522	3101.5134	3112.633	3778.2267	3816.064
OCC1OCCC1=NO	OC[C@H]1OCCC1=NO	
InChI=1S/C5H9NO3/c7-3-5-4(6-8)1-2-9-5/h5,7-8H,1-3H2	InChI=1S/C5H9NO3/c7-3-5-4(6-8)1-2-9-5/h5,7-8H,1-3H2/t5-/m1/s1
