18
gdb 108356	2.62283	1.64967	1.30702	3.3125	70.86	-0.2254	0.063	0.2884	1013.9017	0.147897	-438.988726	-438.980916	-438.979972	-439.021006	30.391	
O	 0.0207007354	 1.4064509279	-0.1901829545	-0.421414
C	 0.0183880002	 0.0091749792	 0.0728863323	-0.197318
C	-1.405443869	-0.4768611142	 0.0293765507	 0.296863
C	-1.6707683423	-2.0015206548	-0.0582312053	-0.138733
O	-2.4630173578	-1.8406993212	-1.2631013563	-0.291746
C	-2.2889745036	-0.414489028	-1.237566691	 0.084044
C	-3.3358730287	 0.4163975953	-0.45029249	-0.063395
N	-3.7433337769	-0.3784161628	 0.73380346	-0.337032
C	-2.4740725773	 0.3752777585	 0.7681127246	-0.113803
H	 0.9291043013	 1.7190561193	-0.1497718242	 0.291174
H	 0.6148211883	-0.5388851797	-0.6737523904	 0.094963
H	 0.4527066553	-0.2090072159	 1.0640022516	 0.089546
H	-0.7748981565	-2.605209284	-0.2536575549	 0.088428
H	-2.2518341743	-2.435104115	 0.7590816983	 0.119367
H	-1.9600428356	 0.0136702068	-2.1877130826	 0.080455
H	-3.9750089574	 1.2028998017	-0.8327288998	 0.091223
H	-4.4383661486	 0.1766376952	 1.2317858371	 0.231676
H	-2.2824427326	 1.1392172016	 1.5106721845	 0.095702
92.2856	156.7853	223.0376	244.4938	289.9558	324.6653	409.2436	475.8068	563.6559	663.8129	715.8087	800.1785	821.9327	831.3392	885.0902	905.8758	947.2055	967.4527	976.059	998.3039	1029.2401	1060.1064	1089.5247	1095.6219	1110.6671	1148.741	1171.3629	1181.2699	1227.1699	1248.008	1270.4836	1289.2303	1322.4134	1333.8627	1350.6246	1393.0312	1463.5826	1497.2185	1514.7389	2951.1331	2987.9756	3014.5348	3083.1169	3099.4251	3183.3142	3200.2988	3477.325	3832.3306
OCC12COC1C1NC21	OC[C@]12CO[C@H]1[C@H]1N[C@@H]21	
InChI=1S/C6H9NO2/c8-1-6-2-9-5(6)3-4(6)7-3/h3-5,7-8H,1-2H2	InChI=1S/C6H9NO2/c8-1-6-2-9-5(6)3-4(6)7-3/h3-5,7-8H,1-2H2/t3-,4+,5-,6+/m0/s1
