14
gdb 18568	3.8863	2.10033	1.70142	4.0288	56.36	-0.2586	-0.0062	0.2524	762.5758	0.109189	-419.703392	-419.697294	-419.696349	-419.733798	23.084	
O	-0.0195543216	 0.3168712426	 0.7396625269	-0.313024
C	 0.0418191506	 1.3781224062	 0.2134094656	 0.414565
O	-1.0038967734	 2.178040798	-0.1935139706	-0.259161
C	-0.1052516446	 3.2319814889	-0.6817016545	 0.090056
C	-0.0468726296	 4.4427538047	 0.2388281315	-0.244014
C	 0.8857362429	 3.9608111785	 1.3681006046	-0.101863
O	 1.8214423557	 3.0805627145	 0.7334273516	-0.245395
C	 1.1246658222	 2.3882032328	-0.2649654448	-0.069909
H	-0.296482025	 3.4341835357	-1.7344309058	 0.105829
H	 0.4044858977	 5.2808746666	-0.3013610518	 0.121838
H	-1.0340448307	 4.7452196746	 0.594423526	 0.130671
H	 1.4561517876	 4.758563135	 1.8463833117	 0.124672
H	 0.3189114768	 3.4222075695	 2.1403084395	 0.123168
H	 1.8242671114	 2.0107094725	-1.0109154099	 0.122565
117.5272	195.9212	287.7531	374.5739	476.8965	622.8417	657.7035	725.4918	815.5874	831.8377	868.5911	895.814	929.757	958.4081	988.2242	1019.9759	1079.8925	1113.6764	1143.1704	1185.8125	1209.1256	1239.3403	1286.5931	1309.3249	1339.1905	1349.2176	1392.9723	1469.3614	1521.9133	1942.0706	3014.0114	3063.6157	3117.9829	3121.7329	3127.057	3135.382
O=C1OC2CCOC12	O=C1O[C@H]2CCO[C@@H]12	
InChI=1S/C5H6O3/c6-5-4-3(8-5)1-2-7-4/h3-4H,1-2H2	InChI=1S/C5H6O3/c6-5-4-3(8-5)1-2-7-4/h3-4H,1-2H2/t3-,4+/m0/s1
