17
gdb 99237	3.22351	0.88135	0.69851	6.4498	67.93	-0.2488	0.0239	0.2727	1526.4754	0.134765	-492.3285	-492.31874	-492.317796	-492.364283	34.166	
C	 0.5659475404	 0.1391921452	-0.2334623958	-0.235344
O	-0.7248252303	 0.595105655	 0.1717794664	-0.250706
C	-1.694651442	-0.3315116393	 0.259917893	 0.504593
N	-2.892379001	 0.2608330048	 0.5667471032	-0.566415
H	-3.6042551483	-0.3208247861	 0.9761351652	 0.272509
H	-2.8399671965	 1.201962148	 0.9231311905	 0.26917
N	-1.4777145899	-1.5689564537	 0.036036775	-0.378675
C	-2.5746715645	-2.5107375766	 0.1229366403	-0.319684
C	-2.0911893909	-3.9242947036	-0.2371287089	 0.418656
O	-0.7930303686	-3.9786131689	-0.5558297319	-0.360868
O	-2.8157817493	-4.8823499643	-0.2301946369	-0.342404
H	 1.1946890361	 1.029666996	-0.2565248505	 0.137426
H	 0.9637185539	-0.5876500883	 0.4797386162	 0.139763
H	 0.5222470362	-0.320243794	-1.2245556286	 0.140701
H	-0.4751437531	-3.0532818051	-0.4681137458	 0.304738
H	-3.0080997624	-2.5772295646	 1.1332868325	 0.127505
H	-3.4019698998	-2.2687020345	-0.5600836341	 0.139034
49.3734	61.1502	113.7443	145.7471	185.9397	256.0947	270.1605	284.1145	408.0104	462.08	467.1256	527.5605	580.2686	635.4906	665.303	736.2238	797.7156	878.3055	913.1035	1004.1109	1038.2358	1129.4292	1168.4543	1181.9408	1227.8816	1229.4421	1233.6646	1343.0388	1392.5316	1442.6486	1463.3685	1481.3349	1487.4723	1504.854	1633.2686	1749.8857	1877.1364	2980.8072	3021.3814	3047.8377	3122.0835	3154.9117	3484.8626	3600.3963	3716.5201
COC(=[NH2+])NCC([O-])=O	COC(=NCC(=O)O)N	
InChI=1S/C4H8N2O3/c1-9-4(5)6-2-3(7)8/h2H2,1H3,(H2,5,6)(H,7,8)	InChI=1S/C4H8N2O3/c1-9-4(5)6-2-3(7)8/h2H2,1H3,(H2,5,6)(H,7,8)
