25
gdb 104436	2.78161	1.13612	1.02328	1.2733	88.01	-0.2623	0.0731	0.3354	1328.3132	0.230401	-389.51585	-389.506227	-389.505283	-389.549461	38.167	
C	-0.1704885319	 1.6144914744	 0.0100260613	-0.420245
C	-0.0223704318	 0.0806468973	-0.0140218993	 0.279561
C	-1.4254138878	-0.5438562138	 0.0030433393	-0.105092
O	-2.1461713375	-0.1168150868	-1.1457672567	-0.428634
C	 0.7293582286	-0.3891023111	-1.2850570787	-0.195293
C	 2.2208835051	-0.0243969196	-1.286205392	-0.209018
C	 2.9281704944	-0.5481316412	-0.0290901461	-0.175897
C	 2.225300579	-0.0591158047	 1.2445081297	-0.205216
C	 0.7333892813	-0.4253448518	 1.2378035335	-0.216367
H	 0.7932449455	 2.1266991439	-0.0417763493	 0.109243
H	-0.7800528577	 1.9485691441	-0.8328859449	 0.130683
H	-0.6659060022	 1.9393668556	 0.9325402167	 0.101222
H	-1.3332545926	-1.6421099378	 0.0191152767	 0.077893
H	-1.9460189937	-0.2420430842	 0.9271938969	 0.077428
H	-3.0260738977	-0.501432527	-1.1091720003	 0.286689
H	 0.6391913674	-1.4831514935	-1.3522820994	 0.080533
H	 0.2311696867	 0.0134655781	-2.1718357731	 0.104595
H	 2.6960679629	-0.4317933588	-2.186146796	 0.087325
H	 2.3427918792	 1.0648669334	-1.3453301323	 0.094864
H	 2.9224483289	-1.6474392766	-0.0439743481	 0.088185
H	 3.9807967542	-0.2428660802	-0.0251842738	 0.085677
H	 2.703090267	-0.489162131	 2.1323251391	 0.087573
H	 2.3431951792	 1.0285023916	 1.3312923644	 0.096009
H	 0.2474663839	-0.0406794889	 2.1435044769	 0.083994
H	 0.6454773498	-1.5207143315	 1.2813697355	 0.08429
116.5808	145.3365	198.222	206.4654	235.4401	257.9964	313.8687	338.5911	350.6397	408.077	420.4982	457.6686	502.2654	581.5639	708.8058	791.9278	832.6364	856.9482	882.4799	911.2875	938.3201	953.0022	989.336	998.7656	1035.2562	1057.303	1069.8968	1090.9329	1104.6814	1171.129	1183.9961	1195.8693	1214.8284	1254.8563	1283.7723	1292.2356	1311.0958	1335.7965	1355.2099	1370.2244	1379.449	1385.0341	1389.4975	1407.5745	1455.212	1478.6639	1482.0904	1486.2072	1488.7222	1503.6923	1507.9583	1511.1707	1519.7086	2953.4567	2985.0772	2997.3919	3004.4468	3006.7814	3022.3477	3023.5698	3036.3484	3045.2235	3057.5357	3059.8999	3067.2794	3083.9253	3104.5638	3129.2143	3838.3272
CC1(CO)CCCCC1	CC1(CO)CCCCC1	
InChI=1S/C8H16O/c1-8(7-9)5-3-2-4-6-8/h9H,2-7H2,1H3	InChI=1S/C8H16O/c1-8(7-9)5-3-2-4-6-8/h9H,2-7H2,1H3
