17
gdb 82428	2.47103	1.81709	1.25085	3.9307	67.45	-0.2685	0.0019	0.2703	1001.7953	0.137375	-458.988048	-458.980516	-458.979572	-459.020016	29.419	
O	 0.3696017295	 0.7815826204	 0.8247844528	-0.436779
C	-0.1056527127	-0.2477373779	 0.0001242683	 0.009171
C	-1.6157713929	-0.226633463	-0.1243455773	-0.049096
C	-2.2760218872	 0.5216485036	-1.2569555418	-0.301276
C	-2.1593348853	-0.981007972	-1.3041667287	-0.051951
C	-1.1360622046	-1.6453306313	-2.1993336603	-0.099882
O	 0.0545023289	-0.8573457881	-2.3904739594	-0.219117
C	 0.5741199773	-0.157788738	-1.3686720443	 0.379852
O	 1.5505795221	 0.5290303341	-1.5352221525	-0.350157
H	 1.1462458761	 1.1404101507	 0.3678670644	 0.296691
H	 0.1818557025	-1.2317495705	 0.4180533737	 0.096866
H	-2.1382638042	-0.2779645715	 0.8246941194	 0.104725
H	-3.2587768696	 0.9403304545	-1.0743478161	 0.122271
H	-1.6581483747	 1.1175675711	-1.9204250665	 0.139829
H	-3.0635463404	-1.5686859063	-1.1779019074	 0.101287
H	-0.8472793007	-2.6228417853	-1.7915419738	 0.123043
H	-1.5222319441	-1.8030588404	-3.2097667903	 0.134523
96.0071	160.0205	254.3295	306.1531	324.5569	412.552	449.7864	471.7903	525.1059	572.0736	656.3178	735.5446	772.5872	826.5678	867.6066	920.1151	940.2601	1010.8968	1050.7176	1068.7302	1087.8132	1115.8591	1123.9487	1130.9476	1153.2277	1212.268	1221.7445	1261.0826	1283.5202	1351.5954	1372.3089	1406.233	1429.2229	1453.5681	1503.4642	1514.4401	1824.9726	2919.4265	3024.4307	3093.8555	3140.3389	3155.9434	3170.4708	3225.135	3703.038
OC1C2CC2COC1=O	O[C@H]1[C@H]2C[C@H]2COC1=O	
InChI=1S/C6H8O3/c7-5-4-1-3(4)2-9-6(5)8/h3-5,7H,1-2H2	InChI=1S/C6H8O3/c7-5-4-1-3(4)2-9-6(5)8/h3-5,7H,1-2H2/t3-,4-,5-/m0/s1
