19
gdb 105991	2.67183	1.56972	1.20301	1.0979	78.82	-0.2154	0.0731	0.2885	1095.2966	0.157659	-385.778894	-385.770638	-385.769694	-385.811618	32.497	
C	 0.075902365	 1.4458247765	 0.2613440365	-0.374275
C	-0.0614251566	-0.0228837527	-0.1629375411	-0.326344
C	-1.4688441384	-0.5258446215	-0.1240372582	 0.328009
C	-2.760923	-0.1106910673	-0.9027615364	-0.147568
C	-3.6179941378	-0.5027537523	 0.2898493956	-0.079613
C	-3.3020425933	-1.5298871797	-0.7886623374	-0.180973
C	-2.0054972068	-1.9332300269	 0.0029556412	 0.308521
O	-1.268962463	-3.086825397	 0.0539679076	-0.454752
C	-2.3470024404	-0.9116121316	 1.086803382	-0.251119
H	 1.1179910745	 1.7757052508	 0.2064261346	 0.109406
H	-0.5164429605	 2.1007239238	-0.3864564403	 0.116683
H	-0.2741555834	 1.5914620603	 1.2882447281	 0.116759
H	 0.3426353349	-0.1514097943	-1.1765520399	 0.102686
H	 0.5511714517	-0.6593201782	 0.4878340984	 0.108093
H	-2.9370412093	 0.6263787904	-1.6764184944	 0.082532
H	-4.5803328994	-0.122646064	 0.607635526	 0.083717
H	-3.9691334372	-2.06519874	-1.4518425375	 0.086931
H	-1.7232891727	-3.7162680315	 0.6264833608	 0.288056
H	-2.0935200073	-0.8927292848	 2.1390172146	 0.08325
83.8816	121.0634	191.2061	248.522	288.536	311.3537	391.5374	443.5558	560.2446	642.4981	715.9785	744.4085	757.0395	775.5368	794.5449	801.7788	863.5025	881.9481	905.5884	922.644	963.7201	976.0556	995.83	1006.4125	1037.5911	1071.7845	1092.9078	1155.8271	1177.6751	1195.0974	1238.1026	1278.2493	1308.6128	1319.3204	1337.1658	1379.0319	1408.5493	1475.9063	1487.5911	1497.4668	1507.3892	3011.6658	3034.0715	3050.355	3102.6731	3107.0385	3180.7149	3186.109	3198.2563	3203.6104	3774.2306
CCC12C3C4C3C1(O)C24	CC[C@@]12[C@@H]3[C@H]4[C@@H]3[C@]1(O)[C@@H]24	
InChI=1S/C8H10O/c1-2-7-4-3-5(4)8(7,9)6(3)7/h3-6,9H,2H2,1H3	InChI=1S/C8H10O/c1-2-7-4-3-5(4)8(7,9)6(3)7/h3-6,9H,2H2,1H3/t3-,4+,5-,6+,7-,8-/m0/s1
