17
gdb 97037	3.01024	1.28236	0.94228	4.0959	72.33	-0.233	-0.0434	0.1896	1220.0224	0.134538	-455.159789	-455.150546	-455.149602	-455.194201	32.941	
C	-0.0081146092	 1.4080533732	-0.1302505256	-0.339473
N	 0.0408345441	-0.0438231199	-0.1034027743	-0.294388
C	-1.0500411749	-0.6692666215	 0.0403481123	 0.364278
N	-2.335019292	-0.1739181102	 0.2409972512	-0.357381
C	-3.4035455337	-1.1363383608	 0.0234966681	-0.2699
C	-2.6285319593	-2.415030594	-0.2877117044	 0.35554
O	-3.0465153798	-3.4101443673	-0.8190113863	-0.309892
C	-1.1698427038	-2.1884990722	 0.0948742654	-0.025545
O	-0.2754526249	-2.8984179689	-0.7022437395	-0.416645
H	 0.9766549272	 1.7995054113	-0.396390826	 0.130013
H	-0.7289921983	 1.8006330714	-0.8671945381	 0.098608
H	-0.2767734368	 1.8299720415	 0.8506414583	 0.112111
H	-2.5142031255	 0.8130245071	 0.1660358342	 0.254479
H	-4.0397157757	-1.276784848	 0.9085151502	 0.14094
H	-4.0575599406	-0.8893068349	-0.821995437	 0.143753
H	-1.0801631263	-2.4752895584	 1.162091292	 0.117342
H	-0.7753151305	-3.6436716185	-1.0652566306	 0.29616
58.1761	105.3097	142.067	169.7725	206.4704	249.0817	312.1891	336.4876	382.3657	430.8671	516.9946	597.8726	615.0633	681.7284	725.6717	786.4451	881.8903	994.0278	1040.7159	1074.582	1103.4852	1114.3494	1170.9957	1177.9485	1185.979	1217.1361	1250.1168	1325.8454	1358.0799	1407.5453	1425.483	1439.079	1493.0418	1498.0771	1506.91	1778.1363	1863.1341	2908.2321	2956.729	3008.676	3009.0173	3049.3535	3101.8815	3659.3407	3738.7931
CN=C1NCC(=O)C1O	CN=C1NCC(=O)[C@H]1O	
InChI=1S/C5H8N2O2/c1-6-5-4(9)3(8)2-7-5/h4,9H,2H2,1H3,(H,6,7)	InChI=1S/C5H8N2O2/c1-6-5-4(9)3(8)2-7-5/h4,9H,2H2,1H3,(H,6,7)/t4-/m1/s1
