15
gdb 74743	2.56066	1.86292	1.4085	3.8638	64.62	-0.2563	-0.0304	0.2259	938.0411	0.113347	-457.789665	-457.782669	-457.781725	-457.821134	27.05	
C	 0.0054733352	 1.486266032	 0.0580079432	-0.50809
C	-0.0656454311	 0.0023205792	-0.0287950203	 0.333389
C	-0.0671485691	-0.8343613124	-1.0697306737	-0.208687
C	 0.0017888013	-2.228208422	-0.4474677696	 0.14844
O	-0.7585568133	-2.0847643265	 0.72539376	-0.218037
C	-0.024075463	-0.9379796667	 1.1916748088	-0.215078
C	 1.4026747032	-1.5473389568	 1.1468845486	 0.478422
O	 2.3529432652	-1.3471116452	 1.8411289785	-0.344943
O	 1.3693712828	-2.3980539094	 0.0814575887	-0.254289
H	 0.9137485767	 1.8022400844	 0.5852155261	 0.153985
H	 0.0106890464	 1.944133614	-0.9339916033	 0.138758
H	-0.843911617	 1.8896441441	 0.6224804059	 0.140469
H	-0.0204107965	-0.6150741518	-2.1263658378	 0.124324
H	-0.2605913307	-3.112445692	-1.0210034613	 0.114862
H	-0.3629888102	-0.5808611809	 2.1598332263	 0.116475
128.5775	163.5003	195.4361	303.6757	444.0816	473.5997	495.9273	583.6497	652.8606	690.2461	746.4188	796.2112	827.1567	858.5808	876.0684	906.4907	922.6567	1004.7185	1032.8731	1062.1232	1070.9213	1107.4949	1189.7205	1215.0364	1245.293	1300.1015	1321.9551	1338.4096	1415.109	1477.2378	1483.6632	1695.7789	1903.2757	3026.29	3076.9802	3122.0459	3176.3413	3179.5533	3243.5955
CC1=CC2OC1C(=O)O2	CC1=C[C@@H]2O[C@H]1C(=O)O2	
InChI=1S/C6H6O3/c1-3-2-4-8-5(3)6(7)9-4/h2,4-5H,1H3	InChI=1S/C6H6O3/c1-3-2-4-8-5(3)6(7)9-4/h2,4-5H,1H3/t4-,5-/m1/s1
