25
gdb 58587	2.21098	1.26362	1.23599	1.3658	87.18	-0.2581	0.0659	0.3239	1256.9021	0.229092	-389.512134	-389.501885	-389.500941	-389.547211	39.416	
C	 0.1810897593	 1.317736291	-0.2571994644	-0.422869
C	-0.1760072238	-0.1603063355	-0.0734658643	 0.121019
O	 0.6651442528	-0.742701073	 0.9249437335	-0.439801
C	-1.6811414476	-0.4568297337	 0.2077744789	 0.28904
C	-2.1525052139	 0.2353826406	 1.4932770554	-0.4697
C	-2.5641356596	-0.0890469922	-1.0100341091	-0.235077
C	-2.380542014	-1.235535178	-2.0300060346	-0.210385
C	-1.9536708867	-2.476328938	-1.1917357674	-0.21273
C	-1.8862804857	-1.9917074021	 0.274691406	-0.225551
H	 1.2504166041	 1.406682471	-0.4673381882	 0.123527
H	-0.3674104981	 1.7788182538	-1.0829459821	 0.11995
H	-0.0319028346	 1.8963723394	 0.6488451138	 0.109653
H	 0.1033542373	-0.6920242392	-0.9900741093	 0.085407
H	 0.5783681439	-0.2139644652	 1.7249639254	 0.276694
H	-2.1158367577	 1.3268154261	 1.4160419187	 0.112597
H	-3.1882889689	-0.0411054638	 1.7148266263	 0.114363
H	-1.5510531313	-0.0629637291	 2.3598840222	 0.101958
H	-3.608031334	-0.0547747859	-0.6752025187	 0.090945
H	-2.3428585	 0.8952896886	-1.4321870716	 0.08941
H	-3.2978835197	-1.4144532451	-2.5976102573	 0.094567
H	-1.6101573547	-0.9829216898	-2.7653085022	 0.098374
H	-2.6543135196	-3.3081992088	-1.304345128	 0.093798
H	-0.9800606738	-2.8489119472	-1.523891202	 0.103276
H	-1.0959054275	-2.477156877	 0.8506292051	 0.109981
H	-2.8371229261	-2.1972411469	 0.780552914	 0.081554
44.3426	88.1518	144.8418	221.5425	231.9235	254.8054	277.8507	293.9272	330.3245	348.3262	425.7305	472.6659	481.0546	608.0591	650.4535	698.2885	784.1861	806.7158	867.7155	896.105	912.0301	923.1453	953.7863	998.5865	1009.8864	1043.4761	1049.7676	1064.2226	1100.3092	1103.3474	1149.0694	1186.5309	1230.5431	1233.291	1264.3487	1273.5934	1297.6223	1313.331	1336.3395	1339.2948	1359.2759	1376.4825	1404.8852	1411.2151	1424.8191	1482.8206	1489.5154	1491.7031	1495.1238	1500.323	1506.6954	1509.9921	1520.2212	3026.3913	3028.6238	3034.3807	3038.488	3044.1625	3046.297	3058.222	3074.6584	3085.3234	3089.5218	3097.6113	3099.8837	3107.6552	3113.7573	3121.549	3810.8065
CC(O)C1(C)CCCC1	C[C@@H](O)C1(C)CCCC1	
InChI=1S/C8H16O/c1-7(9)8(2)5-3-4-6-8/h7,9H,3-6H2,1-2H3	InChI=1S/C8H16O/c1-7(9)8(2)5-3-4-6-8/h7,9H,3-6H2,1-2H3/t7-/m1/s1
