19
gdb 106666	2.8219	1.21095	1.01707	1.7609	71.91	-0.2521	0.0651	0.3172	1225.3585	0.156629	-460.123144	-460.113576	-460.112632	-460.15748	35.429	
C	 0.1365281373	 1.4614516766	-0.0463158183	-0.51299
C	-0.0520264813	 0.0071245582	 0.2282739109	 0.34716
O	 1.0161257254	-0.9142759732	-0.0330200221	-0.340869
C	 0.4124922083	-0.9162420409	 1.2865951597	 0.317476
C	 1.3590910843	-0.7522909925	 2.4323634545	-0.177716
O	 2.1918557729	-1.8917032698	 2.5906457153	-0.414904
C	-0.8421317815	-1.7900623991	 1.1626373306	-0.326149
C	-1.3419335756	-0.8152855492	 0.0342026215	 0.058827
O	-2.4630574617	-0.0336152101	 0.3831455934	-0.436946
H	 1.0725602709	 1.8244326707	 0.3856833071	 0.129385
H	 0.1645251933	 1.6462751911	-1.1260679384	 0.131667
H	-0.698546505	 2.0289985893	 0.3727705117	 0.146001
H	 1.9510696997	 0.1636927041	 2.285675363	 0.094754
H	 0.8023163915	-0.6477010742	 3.3692318966	 0.114348
H	 2.6417104659	-2.0218223957	 1.7480218352	 0.293501
H	-0.6657108044	-2.8339765498	 0.894266546	 0.106679
H	-1.4971960082	-1.7247179644	 2.0354177244	 0.10589
H	-1.4425402349	-1.2586376865	-0.9652666701	 0.07441
H	-3.2421577868	-0.5982247345	 0.370771249	 0.289475
68.109	112.8097	154.2963	190.3407	220.3027	249.8707	267.3481	319.0574	405.3288	428.6815	474.9894	504.8015	507.6199	618.0028	734.16	761.5104	822.7827	888.4834	911.0215	939.3138	1023.7836	1037.9807	1068.5715	1080.3484	1120.7305	1169.8586	1184.9365	1208.5841	1216.6067	1246.7145	1276.9129	1323.3501	1369.3626	1400.454	1412.0711	1427.7475	1453.7435	1477.3822	1487.0445	1490.7116	1518.2185	2992.0166	3015.9341	3039.8469	3063.423	3079.931	3105.9195	3126.629	3130.8983	3802.2658	3821.3716
CC12OC1(CO)CC2O	C[C@@]12O[C@]1(CO)C[C@H]2O	
InChI=1S/C6H10O3/c1-5-4(8)2-6(5,3-7)9-5/h4,7-8H,2-3H2,1H3	InChI=1S/C6H10O3/c1-5-4(8)2-6(5,3-7)9-5/h4,7-8H,2-3H2,1H3/t4-,5+,6+/m1/s1
