15
gdb 26438	4.24728	1.15896	0.91574	2.6984	71.16	-0.2285	-0.0199	0.2086	1195.5711	0.113498	-453.99918	-453.991112	-453.990168	-454.032572	28.494	
C	-0.0066486829	 1.4590060358	-0.0215334544	-0.344789
N	-0.0081461931	-0.0042030138	-0.0200219576	-0.212884
C	-0.024587727	-0.6995533989	 1.1791910585	 0.153781
O	-0.0383535884	-0.1678542971	 2.2638473104	-0.319687
C	 0.0073791729	-0.6391701365	-1.243135244	 0.559527
N	 0.0234679204	-0.0663450169	-2.4057472065	-0.36391
C	 0.0340830697	-1.1372132544	-3.298090124	-0.107644
C	 0.0236970774	-2.2987164096	-2.614454913	-0.048105
O	 0.0061781778	-1.9899289902	-1.2669314725	-0.19464
H	 0.8870052899	 1.8334519068	-0.5256462272	 0.151062
H	-0.8858363552	 1.8352264103	-0.5492071045	 0.15106
H	-0.020156622	 1.7764332659	 1.0194503493	 0.169839
H	-0.0237062325	-1.7891185682	 1.0323906317	 0.121601
H	 0.0484087119	-0.9804441033	-4.3646130762	 0.132096
H	 0.0257812412	-3.3454107198	-2.86038594	 0.152693
60.1552	118.352	130.8454	195.8237	281.7769	321.1867	359.5395	470.1315	492.1089	614.6666	713.7947	760.0777	811.8023	866.6619	923.986	936.0492	1019.626	1031.9487	1080.8586	1137.6285	1157.9657	1163.2492	1184.6654	1305.2257	1335.3317	1419.4884	1444.3258	1460.8944	1490.936	1508.4606	1580.0045	1641.7828	1803.324	3041.6093	3063.5016	3129.4605	3181.9125	3269.0013	3311.616
CN(C=O)C1=NC=CO1	CN(C=O)c1ncco1	
InChI=1S/C5H6N2O2/c1-7(4-8)5-6-2-3-9-5/h2-4H,1H3	InChI=1S/C5H6N2O2/c1-7(4-8)5-6-2-3-9-5/h2-4H,1H3
