21
gdb 100281	2.08708	1.32726	1.18516	2.7371	74.35	-0.2418	-0.0272	0.2146	1208.5742	0.177928	-461.367343	-461.356161	-461.355217	-461.403503	39.786	
C	-0.1911033861	 1.4053756415	-0.0044171334	-0.26636
O	-0.0705537192	-0.0083431903	-0.0806070042	-0.290836
C	 0.6575369247	-0.5258305759	-1.2069177323	 0.212492
C	 0.6635206629	-2.0467598484	-1.0104061674	-0.436106
C	-0.0596945852	-0.150096643	-2.5167685541	-0.078818
O	-1.4201810046	-0.5399100688	-2.4753384357	-0.434974
C	 2.1120439127	-0.0044413598	-1.2063025903	 0.348264
C	 2.8876805034	-0.1160121721	 0.093837246	-0.478917
O	 2.6117232989	 0.4347347596	-2.2166603616	-0.305999
H	 0.7821129962	 1.9118693865	-0.0598602502	 0.122511
H	-0.8370114327	 1.8147395073	-0.7916625665	 0.125611
H	-0.6430045715	 1.6227180081	 0.9661387544	 0.135488
H	-0.3512166063	-2.4266980922	-1.146716282	 0.142595
H	 1.3140761087	-2.5254714399	-1.7481467125	 0.129555
H	 1.0078615432	-2.3063694951	-0.0070378954	 0.125355
H	 0.0498527382	 0.925658536	-2.7104230879	 0.097898
H	 0.4093503786	-0.6698677678	-3.3550383821	 0.122619
H	-1.7357514279	-0.339688443	-1.5856390231	 0.287639
H	 2.2482536825	 0.0403740721	 0.9645458956	 0.146965
H	 3.3013640886	-1.1287421812	 0.1712497972	 0.152014
H	 3.7191382048	 0.5902637165	 0.0828800256	 0.143005
60.1914	94.9104	122.5342	137.7895	165.6481	188.1172	225.4518	255.6258	289.324	299.9331	350.2035	361.4558	424.3558	463.605	504.1672	580.086	621.7352	718.3903	852.0546	906.7069	931.6223	965.1694	1027.4136	1074.7476	1093.3035	1119.2236	1151.2336	1183.512	1185.2339	1233.2976	1256.6743	1260.8768	1357.2562	1375.9085	1397.1012	1425.9447	1463.8574	1471.5495	1478.3312	1484.7602	1493.0099	1496.7714	1508.7567	1517.6732	1805.6854	2999.6533	3015.7468	3043.4794	3051.8143	3057.5847	3106.0703	3115.4265	3119.6207	3128.4435	3140.041	3159.6798	3782.6988
COC(C)(CO)C(C)=O	CO[C@@](C)(CO)C(=O)C	
InChI=1S/C6H12O3/c1-5(8)6(2,4-7)9-3/h7H,4H2,1-3H3	InChI=1S/C6H12O3/c1-5(8)6(2,4-7)9-3/h7H,4H2,1-3H3/t6-/m0/s1
