13
gdb 42636	2.77746	1.77628	1.30696	5.9927	67.35	-0.2527	-0.0285	0.2242	927.0972	0.089889	-415.553512	-415.546726	-415.545782	-415.584821	26.018	
O	-0.026931243	 0.0579151487	 0.0278793632	-0.309121
C	-0.0423504029	 1.2466422944	 0.0825347746	 0.490575
C	-1.0831031309	 2.3134445486	 0.038839003	-0.217196
C	-0.4142503471	 3.5586664139	 0.6188666033	-0.015017
N	 0.8778396802	 3.1194867994	 1.2036825277	-0.346161
C	 1.0594634751	 2.3530684925	-0.0893006336	 0.062964
C	 2.3782494587	 2.0888447654	-0.5789860701	 0.154322
N	 3.4391671034	 1.8811265743	-0.9889272269	-0.324983
C	-0.0937384984	 3.1954925309	-0.7858242274	-0.141835
H	-2.1524260211	 2.2210884243	-0.0838824059	 0.134503
H	-1.0043940599	 4.3688004934	 1.0256539179	 0.130603
H	 1.5107363689	 3.9194960862	 1.168747932	 0.239368
H	-0.2240659129	 3.6134943079	-1.7735007377	 0.141977
127.73	154.956	198.837	374.5616	466.5456	489.7543	530.1217	623.5193	657.1485	731.2229	745.6858	799.1355	818.2663	853.0984	888.3761	938.6846	946.5621	985.7768	1022.8949	1047.3962	1093.8178	1128.8167	1180.4876	1236.1904	1283.4275	1348.1062	1380.7806	1912.8718	2357.3741	3213.288	3227.5481	3238.707	3455.072
O=C1C2C3NC1(C#N)C23	O=C1[C@H]2[C@H]3N[C@]1(C#N)[C@@H]23	
InChI=1S/C6H4N2O/c7-1-6-3-2(5(6)9)4(3)8-6/h2-4,8H	InChI=1S/C6H4N2O/c7-1-6-3-2(5(6)9)4(3)8-6/h2-4,8H/t2-,3+,4-,6-/m1/s1
