14
gdb 21282	6.93086	1.35847	1.14584	2.5649	61.22	-0.1944	0.049	0.2434	991.4388	0.108664	-412.043696	-412.036142	-412.035197	-412.07553	27.346	
C	-0.0083568729	 1.3635399855	-0.0094957025	-0.240125
O	-0.0382165011	-0.0690865025	 0.0123153653	-0.265354
C	-1.2541832719	-0.6031671682	 0.0321080186	 0.534556
N	-2.3849388678	 0.019457233	 0.0450988269	-0.340491
N	-3.3251579576	-1.0280113247	 0.1437435296	-0.323437
C	-2.7353052562	-2.2852328301	 0.027334595	 0.438508
N	-3.19549301	-3.4717535843	-0.0517608656	-0.598893
N	-1.375962597	-1.9672006501	 0.0563373432	-0.393919
H	 1.0466400064	 1.6357847479	-0.0099018044	 0.139393
H	-0.5038238654	 1.7426022322	-0.9076756103	 0.145469
H	-0.5122161149	 1.7683508633	 0.8723370951	 0.148765
H	-4.2343349232	-0.834774849	-0.2422649304	 0.264028
H	-4.212453474	-3.4731245545	-0.0459281035	 0.209352
H	-0.6365235144	-2.6447582186	-0.000242357	 0.282148
93.1923	148.6899	192.9514	218.0219	366.5859	385.9988	402.7655	427.3558	532.9379	686.7571	694.6863	714.1217	739.5892	767.7877	987.2103	1008.5168	1068.5027	1081.4698	1102.9521	1182.971	1222.6271	1288.2246	1352.7074	1379.1464	1458.3366	1477.4348	1500.6382	1543.4052	1696.0988	1763.4663	3047.7154	3121.6139	3162.9585	3522.5829	3660.3476	3697.6689
COC1=NNC(=N)N1	COC1=NN[C@H]([NH])N1	
InChI=1S/C3H6N4O/c1-8-3-5-2(4)6-7-3/h1H3,(H3,4,5,6,7)	InChI=1S/C3H7N4O/c1-8-3-5-2(4)6-7-3/h2,4,6H,1H3,(H,5,7)/t2-/m1/s1
