18
gdb 11750	5.06849	1.30858	1.23924	2.2244	67.61	-0.2466	0.0781	0.3248	1040.0893	0.152753	-384.908001	-384.899948	-384.899004	-384.940495	30.336	
C	-0.2518365532	 1.5079652327	 0.1582064971	-0.379675
C	 0.0610750679	 0.0171839084	-0.0316822145	-0.299293
C	 0.9569903262	-0.5227140019	 1.0388748142	 0.440605
C	 2.4450692719	-0.238950075	 1.2966282819	-0.344157
C	 2.5389173699	-1.6535485599	 1.9945852012	 0.145538
O	 2.8881291836	-1.7072294615	 3.348115436	-0.434755
C	 1.048328905	-1.8527618947	 1.6689118275	-0.100814
O	 0.3793536097	-0.7689849355	 2.342088269	-0.308413
H	 0.6618186183	 2.1110661668	 0.1396201572	 0.121056
H	-0.9097679465	 1.8721521619	-0.6359368788	 0.116043
H	-0.7481620162	 1.6782701839	 1.1180470471	 0.134614
H	-0.8678100791	-0.5637836745	-0.0331688514	 0.112027
H	 0.5420846643	-0.1431669412	-1.0048158203	 0.104464
H	 3.0472574166	-0.1790513984	 0.3861310721	 0.106272
H	 2.6588396149	 0.6190735973	 1.9385333542	 0.106169
H	 3.2008873068	-2.3379738572	 1.4589191614	 0.092901
H	 2.2040776255	-1.2091590056	 3.8146023843	 0.287727
H	 0.4780833044	-2.7630570654	 1.516631802	 0.09969
80.5279	106.2623	181.7246	219.6399	299.8902	361.3516	413.358	445.7272	496.5881	616.5115	666.2733	709.3707	782.8294	814.5289	877.7694	926.8304	930.6936	964.226	992.2903	1021.9143	1067.0371	1072.9192	1124.5756	1149.5614	1191.9307	1200.6917	1248.4378	1262.4518	1301.3066	1329.5907	1351.0769	1409.1598	1434.0806	1447.7189	1471.1674	1483.3982	1498.7226	1510.5556	3029.3974	3040.2967	3061.4159	3071.6042	3090.5823	3110.1672	3118.5799	3121.968	3175.7388	3768.4986
CCC12CC(O)C1O2	CC[C@]12C[C@@H](O)[C@H]1O2	
InChI=1S/C6H10O2/c1-2-6-3-4(7)5(6)8-6/h4-5,7H,2-3H2,1H3	InChI=1S/C6H10O2/c1-2-6-3-4(7)5(6)8-6/h4-5,7H,2-3H2,1H3/t4-,5-,6+/m1/s1
