21
gdb 92950	2.14323	1.50307	1.19891	2.7835	83.54	-0.2378	-0.0175	0.2203	1163.3314	0.18119	-387.11743	-387.108034	-387.10709	-387.151624	35.391	
C	-0.7384969649	 1.1475994792	 0.0238078131	-0.416825
C	 0.1530839084	-0.0837863245	-0.1300127448	-0.01649
C	 1.312399321	 0.0857024748	-1.1463686029	-0.272897
C	 2.3699159833	-0.8574613354	-0.6285195082	-0.091082
C	 2.1167302932	-1.2557552419	 0.6151384724	-0.079096
C	 0.8575977929	-0.6254611191	 1.1718569028	 0.148126
C	 1.2014523135	 0.4754484616	 2.2041091947	-0.442613
C	-0.0497987201	-1.6228719532	 1.8694334191	 0.127092
O	 0.2321136751	-2.7640557285	 2.1303285518	-0.256332
H	-0.1727891185	 2.0199567763	 0.3655858457	 0.119895
H	-1.1926143916	 1.4070377814	-0.9382796791	 0.118379
H	-1.5543970789	 0.9769226986	 0.7341546613	 0.116048
H	-0.4705627269	-0.9073010644	-0.5032018724	 0.086856
H	 0.9926904524	-0.1409831447	-2.1699150682	 0.10664
H	 1.6819930508	 1.1220125599	-1.1636428602	 0.103803
H	 3.2394947671	-1.1413945447	-1.2109945781	 0.09653
H	 2.7277818522	-1.920892362	 1.2125900352	 0.107378
H	 1.7726857562	 1.2800807382	 1.7329317959	 0.128342
H	 0.3018592075	 0.9115407165	 2.651738882	 0.119176
H	 1.8116237731	 0.059923996	 3.0120836146	 0.127452
H	-1.0476843559	-1.206000824	 2.1499360953	 0.06962
55.9432	87.2358	194.1863	244.2813	250.1074	263.576	280.5583	295.8394	347.9317	446.6343	469.587	521.0585	643.338	703.3283	760.2918	783.2583	868.8656	916.9061	924.726	944.3931	974.4373	977.5523	1003.7438	1031.7644	1085.9651	1107.434	1126.1571	1160.1072	1191.9254	1205.5326	1248.036	1307.4227	1340.7281	1365.1805	1372.7	1401.4369	1412.8986	1430.155	1486.9162	1487.7411	1494.1316	1506.4137	1507.2609	1690.1272	1827.5324	2835.2967	2995.8511	3008.5061	3031.3439	3035.0733	3055.6183	3095.9281	3102.3129	3105.6382	3114.3092	3188.2561	3219.5933
CC1CC=CC1(C)C=O	C[C@H]1CC=C[C@]1(C)C=O	
InChI=1S/C8H12O/c1-7-4-3-5-8(7,2)6-9/h3,5-7H,4H2,1-2H3	InChI=1S/C8H12O/c1-7-4-3-5-8(7,2)6-9/h3,5-7H,4H2,1-2H3/t7-,8+/m0/s1
