20
gdb 62085	2.78	0.87978	0.83634	2.8378	76.4	-0.2432	-0.0146	0.2286	1487.31	0.168214	-440.337344	-440.326537	-440.325593	-440.374902	37.116	
C	 0.2407498064	 1.3545701776	-0.3800497213	-0.400858
C	 0.055557306	-0.0240761004	 0.2822672308	-0.08238
C	 0.4802724453	-0.0192466981	 1.7633783639	-0.167963
N	 1.8797287524	 0.3303292005	 1.9637270116	-0.271649
C	 2.8853383028	-0.5512277427	 1.7296926226	 0.147236
O	 2.7303881714	-1.6753864331	 1.2978939953	-0.325668
C	-1.4160584737	-0.4300921284	 0.1743837727	 0.395185
C	-1.8113660159	-1.2460010325	-1.0401476094	-0.482126
O	-2.2194928543	-0.101667048	 1.0192457193	-0.316078
H	 1.2841489328	 1.6728758246	-0.3046272261	 0.121088
H	-0.0233031516	 1.3323572409	-1.4416090138	 0.123007
H	-0.3892505989	 2.1050207855	 0.1093746858	 0.129588
H	 0.6709196874	-0.7582356288	-0.2477513526	 0.109867
H	-0.1402747269	 0.6852507306	 2.3201843795	 0.12724
H	 0.3141081506	-1.0142661208	 2.186193433	 0.135295
H	 2.1148878457	 1.2371295037	 2.3319595563	 0.251898
H	 3.8790030757	-0.1285195717	 1.9799798579	 0.075849
H	-1.4196571259	-0.7987212688	-1.9599505119	 0.137125
H	-1.3651083279	-2.2449218781	-0.9625559209	 0.152083
H	-2.8966778415	-1.3372252121	-1.0975894427	 0.141262
33.444	46.3608	60.7701	146.9816	161.9232	209.8746	232.1841	248.14	269.2594	310.6121	364.3818	463.6494	519.3841	590.0676	600.3854	760.3513	790.0962	877.2793	921.864	956.0866	988.8219	1004.4887	1032.4096	1065.5331	1123.5018	1143.7119	1188.7385	1222.2633	1283.097	1337.2393	1357.3593	1382.3955	1397.5102	1406.5181	1427.6523	1461.5988	1468.5159	1474.5412	1499.5875	1502.5878	1521.4416	1799.6232	1803.9169	2934.0314	3034.2623	3037.183	3063.5337	3067.4443	3095.3411	3108.5277	3115.2468	3126.8637	3151.8804	3646.9884
CC(CNC=O)C(C)=O	C[C@@H](CNC=O)C(=O)C	
InChI=1S/C6H11NO2/c1-5(6(2)9)3-7-4-8/h4-5H,3H2,1-2H3,(H,7,8)	InChI=1S/C6H11NO2/c1-5(6(2)9)3-7-4-8/h4-5H,3H2,1-2H3,(H,7,8)/t5-/m0/s1
