18
gdb 81859	2.86268	1.53358	1.15505	2.6562	72.86	-0.2565	0.0129	0.2694	1084.5166	0.147657	-439.09305	-439.084799	-439.083855	-439.125657	32.085	
C	-0.0098221885	 1.6192166181	 0.2459976369	-0.471756
C	 0.120936011	 0.1372237592	 0.0653085011	 0.407921
C	-0.8847640795	-0.8741598803	 0.5340547034	-0.338602
C	 0.5204621517	-0.8690078484	 1.1115411006	-0.11987
C	 1.5242841868	-1.7839782226	 0.4489688712	 0.044158
O	 1.249060154	-3.1576580393	 0.5961021582	-0.434112
C	 1.4523491634	-1.3679721144	-1.0210629661	 0.356527
N	 1.9441963474	-2.0741432195	-1.9439599328	-0.555754
O	 0.7680983382	-0.2056684402	-1.1691304251	-0.259588
H	 0.9717722854	 2.1032525441	 0.2322046989	 0.13099
H	-0.6186647081	 2.0557514863	-0.5521901891	 0.135995
H	-0.4923581549	 1.8406428599	 1.2016694834	 0.127254
H	-1.6840824034	-0.5269488336	 1.1792305756	 0.121191
H	-1.1564750839	-1.6849407039	-0.1334712723	 0.135245
H	 0.6712330353	-0.5753386437	 2.1427498881	 0.100272
H	 2.5330040748	-1.5484464386	 0.8264948585	 0.09415
H	 1.6074721386	-3.5792635853	-0.1981021153	 0.295903
H	 1.7556138215	-1.6846217376	-2.8675413252	 0.230076
87.9866	151.3421	208.9273	248.4222	286.2842	330.3821	416.9374	431.1134	468.8892	520.3401	583.2206	621.0378	707.2448	746.518	839.2175	874.133	887.8417	908.9422	947.2755	968.1941	998.7415	1047.5153	1076.114	1086.1903	1105.0153	1133.047	1141.3762	1220.0364	1253.3799	1284.4001	1326.0288	1370.502	1400.1887	1431.141	1436.7901	1478.7395	1486.531	1504.5855	1778.7275	2967.1849	3039.9721	3106.3019	3122.0998	3135.917	3189.6804	3226.0583	3492.8181	3740.7177
CC12CC1C(O)C(=N)O2	C[C@]12C[C@H]1[C@@H](O)[C]([NH])O2	
InChI=1S/C6H9NO2/c1-6-2-3(6)4(8)5(7)9-6/h3-4,7-8H,2H2,1H3	InChI=1S/C6H9NO2/c1-6-2-3(6)4(8)5(7)9-6/h3-4,7-8H,2H2,1H3/t3-,4+,6-/m0/s1
