17
gdb 90465	2.89387	1.40465	1.22578	0.7938	74.43	-0.2318	0.0432	0.2751	1079.3986	0.134251	-421.771394	-421.76305	-421.762106	-421.804479	31.591	
C	-0.6021626462	 1.1761674064	-0.0094875218	-0.403516
C	 0.3057487482	-0.0340968985	 0.012374416	 0.217987
O	 1.1899783127	-0.0213966831	-1.1133576037	-0.270672
C	 2.4724495409	-0.3317274204	-0.6671130632	 0.047807
C	 2.4286496661	-0.3378580751	 0.8160408443	 0.047809
O	 1.1220088151	-0.0309045477	 1.1883809836	-0.270666
C	 2.7023849828	-1.6614022465	 0.076416858	-0.329127
C	 1.7818605369	-2.7531678835	 0.044709341	 0.344174
C	 1.023647146	-3.6872625493	 0.0185400732	-0.431016
H	-0.0062652346	 2.091878911	 0.0125349181	 0.128073
H	-1.2122290751	 1.1651978153	-0.9165588466	 0.130849
H	-1.2657180538	 1.1572898867	 0.8590822413	 0.130827
H	-0.2647854614	-0.9705871876	-0.0083301394	 0.103617
H	 3.2551399929	 0.0914107551	-1.2844380433	 0.119491
H	 3.173449864	 0.0799737294	 1.4819459381	 0.119493
H	 3.7526999492	-1.9451170859	 0.1062666961	 0.118711
H	 0.3508022363	-4.5082047364	-0.0043163716	 0.196159
79.85	120.5854	130.1917	216.9851	283.979	354.4071	362.3525	476.5666	571.0252	613.3128	646.338	657.1313	703.8081	734.2241	770.7671	773.934	833.858	870.7055	937.9199	1009.2786	1044.658	1073.8451	1091.4424	1106.7707	1132.7218	1139.1719	1144.1347	1220.3505	1304.2467	1347.9133	1385.7787	1394.7001	1403.3954	1421.7611	1483.7236	1484.6835	2233.0503	3036.7011	3051.4659	3126.7667	3131.3567	3137.6573	3186.5013	3195.7168	3503.8407
CC1OC2C(O1)C2C#C	C[C@H]1O[C@H]2[C@@H](O1)[C@H]2C#C	
InChI=1S/C7H8O2/c1-3-5-6-7(5)9-4(2)8-6/h1,4-7H,2H3	InChI=1S/C7H8O2/c1-3-5-6-7(5)9-4(2)8-6/h1,4-7H,2H3/t4-,5-,6+,7-
