22
gdb 14797	12.11851	0.54092	0.52808	1.8896	77.7	-0.2485	0.0872	0.3356	2144.1434	0.19757	-387.325059	-387.314396	-387.313452	-387.361906	35.699	
C	 0.0306641504	 1.5190925513	 0.1018747001	-0.384119
C	 0.0287666916	 0.0010791381	 0.0377377382	-0.028206
O	 0.6985864257	-0.4992302251	 1.1755937662	-0.241906
C	 0.7549748408	-1.9072476669	 1.2164001203	-0.050227
C	 1.4957203441	-2.324462041	 2.4796789088	-0.212166
C	 1.6091310793	-3.8365423192	 2.6152050273	-0.049889
O	 2.3055816215	-4.1275107141	 3.8067135914	-0.228829
C	 2.4636804413	-5.5074337864	 4.0247958017	-0.227647
H	 1.0554944588	 1.900708195	 0.1190769201	 0.126586
H	-0.4825931696	 1.9390833796	-0.7683418511	 0.113053
H	-0.4778336597	 1.8651100635	 1.0062567043	 0.126589
H	-1.0053497491	-0.3835914655	 0.0044929177	 0.082932
H	 0.5282579757	-0.3480376679	-0.8826403858	 0.082932
H	-0.2646248164	-2.3323239228	 1.2071484819	 0.082126
H	 1.2691872738	-2.2966246091	 0.3195583651	 0.082128
H	 2.4990083687	-1.8859993639	 2.4724008338	 0.116055
H	 0.9749690825	-1.9212402992	 3.3543904655	 0.116056
H	 0.6067831115	-4.300740423	 2.634900219	 0.082587
H	 2.1408772347	-4.2652672969	 1.7468656987	 0.082584
H	 1.4935939561	-6.0238639332	 4.1080418234	 0.101413
H	 3.0363672316	-5.9882255205	 3.2151245393	 0.101413
H	 3.0097189367	-5.6311353429	 4.9633006441	 0.126536
47.2845	70.4755	85.5077	103.4229	130.3815	151.6522	210.6559	239.5622	247.5295	297.3318	367.5462	496.1334	520.1452	780.5459	822.0109	893.1203	895.7192	979.9846	1039.3196	1066.5435	1083.9076	1149.9354	1160.2847	1166.6431	1177.9631	1183.8485	1202.2986	1229.5818	1240.1519	1295.0428	1298.9802	1303.4435	1306.4498	1391.3088	1410.051	1430.4327	1457.2779	1482.8751	1483.7337	1485.8413	1497.4246	1499.8866	1505.305	1518.0674	1533.2801	1541.69	2932.7905	2940.0603	2952.8839	2957.281	2965.1444	2966.2801	2971.8502	3006.898	3044.7868	3053.0203	3099.028	3112.4505	3118.9919	3121.2373
CCOCCCOC	CCOCCCOC	
InChI=1S/C6H14O2/c1-3-8-6-4-5-7-2/h3-6H2,1-2H3	InChI=1S/C6H14O2/c1-3-8-6-4-5-7-2/h3-6H2,1-2H3
