15
gdb 27457	2.36323	1.64192	0.96881	3.5816	81.08	-0.2307	-0.0771	0.1536	1133.8047	0.114682	-420.677445	-420.670143	-420.669199	-420.709424	28.234	
O	-0.0939640771	 1.3644199675	 0.0107302274	-0.421995
C	 0.0223659108	 0.0074286666	 0.0026052911	 0.37806
C	 1.251790065	-0.5792061633	-0.007690375	-0.318098
C	 1.659185159	-1.9796226076	-0.0174943115	 0.334507
O	 2.855949761	-2.2633514178	-0.0259001185	-0.385202
C	 0.6736234288	-3.0751441138	-0.018536797	-0.155929
C	-0.6790281822	-3.0529822911	-0.0107129066	-0.081876
C	-1.5726648996	-1.9312632241	 0.0009549402	-0.08619
C	-1.2763710033	-0.6107104776	 0.0067361597	-0.122913
H	 0.785380708	 1.7601317454	 0.0078661539	 0.307043
H	 2.116525214	 0.0837164207	-0.0090355643	 0.094441
H	 1.1652971635	-4.0445529308	-0.0270198639	 0.118264
H	-1.1738510365	-4.0215657413	-0.0135603552	 0.108835
H	-2.6294433317	-2.184311531	 0.0056675592	 0.111366
H	-2.0959492397	 0.1009822683	 0.0155411704	 0.119689
79.6768	184.6424	277.3817	342.564	373.2557	443.1772	445.9145	491.1966	516.1419	577.2314	637.1927	716.5226	809.4055	819.9701	842.9554	896.9723	918.5258	982.7891	1018.1421	1019.8108	1045.7845	1207.6974	1231.0457	1238.0183	1283.1516	1324.9254	1406.5523	1445.8213	1509.6251	1600.3463	1651.3412	1675.9689	1705.5884	3135.0128	3146.6936	3165.8362	3177.0933	3188.8684	3806.5766
OC1=CC(=O)C=CC=C1	Oc1cc(=O)cccc1	
InChI=1S/C7H6O2/c8-6-3-1-2-4-7(9)5-6/h1-5,8H	InChI=1S/C7H6O2/c8-6-3-1-2-4-7(9)5-6/h1-5,8H
