25
gdb 114201	2.59263	1.13219	0.95152	0.2086	93.06	-0.2573	0.0859	0.3432	1411.2348	0.228645	-352.341508	-352.331629	-352.330685	-352.375988	38.378	
C	 0.1256061443	 1.3940261952	-0.567280099	-0.384082
C	-0.0593296649	-0.1215603218	-0.4373503453	-0.177614
C	-1.3665997374	-0.5008471714	 0.2598120836	 0.017748
C	-2.6398645486	-0.3354539566	-0.6308513361	-0.320133
C	-2.6799479373	-1.8586967931	-0.7948413927	 0.38523
C	-3.8405062986	-2.7247611459	-1.1755805545	-0.336182
C	-2.6559044387	-2.5905906845	-2.1074763713	-0.31832
C	-1.6823693015	-2.0365105668	 0.3645568816	-0.05455
C	-0.5661874066	-3.0658373203	 0.2564820876	-0.418195
H	 1.0622022105	 1.6380882754	-1.0784182865	 0.109338
H	-0.691352891	 1.8503575871	-1.1365043914	 0.117036
H	 0.1481975927	 1.8736676682	 0.4177815086	 0.112363
H	-0.0257413065	-0.5802068288	-1.4340695882	 0.097208
H	 0.7872606345	-0.5411698825	 0.1209869149	 0.092423
H	-1.4186745075	 0.0217673875	 1.2211189811	 0.056146
H	-3.499955258	 0.0585630036	-0.0799724373	 0.094265
H	-2.5168902629	 0.2532158852	-1.5456430461	 0.092705
H	-3.9706188487	-3.6682400828	-0.6533466186	 0.106092
H	-4.7715323525	-2.2412046374	-1.4554777756	 0.10677
H	-2.7824892146	-2.0111972447	-3.0170779899	 0.106145
H	-1.994810668	-3.4448057542	-2.2146168423	 0.108906
H	-2.2395955359	-2.2174735041	 1.2925904125	 0.067104
H	 0.0302996938	-2.9329749885	-0.6508205868	 0.117468
H	 0.1111470262	-3.0059391148	 1.1155985997	 0.112151
H	-0.9760483327	-4.0824755542	 0.2372886118	 0.109977
58.1219	127.7158	177.0332	201.9571	223.065	238.463	258.4967	304.7155	327.2633	379.9353	450.2741	499.7326	592.9041	722.2221	772.7806	781.446	811.6676	838.8241	891.822	904.4657	919.5219	945.4915	968.7666	984.874	1018.7569	1049.1733	1057.7679	1076.2592	1080.0617	1112.7966	1120.4021	1164.9671	1189.2263	1196.2673	1220.3322	1246.2349	1268.5159	1280.737	1307.8955	1340.3337	1364.0508	1380.8559	1395.6988	1408.78	1413.7567	1464.5837	1481.9283	1491.2904	1495.5009	1500.0296	1503.8062	1506.2808	1508.5893	3012.4451	3016.4777	3028.5281	3030.2927	3033.3321	3041.987	3054.5646	3085.3213	3085.9201	3097.537	3101.5722	3108.8469	3115.7163	3122.4426	3192.9708	3209.2119
CCC1CC2(CC2)C1C	CC[C@H]1CC2(CC2)[C@H]1C	
InChI=1S/C9H16/c1-3-8-6-9(4-5-9)7(8)2/h7-8H,3-6H2,1-2H3	InChI=1S/C9H16/c1-3-8-6-9(4-5-9)7(8)2/h7-8H,3-6H2,1-2H3/t7-,8-/m0/s1
