18
gdb 16697	2.69423	2.40261	1.79805	1.7728	66.48	-0.2427	0.066	0.3088	819.4481	0.154806	-384.915094	-384.907826	-384.906882	-384.946129	28.667	
C	-0.2723121994	 1.6225906697	-0.1091412035	-0.435315
C	 0.0064157323	 0.132688069	 0.0056662122	 0.046175
C	 1.1733902452	-0.587573566	-0.7184078468	 0.06111
C	 2.4527950844	 0.1349741303	-0.2527527166	-0.268529
C	 2.1277247197	 0.1376392617	 1.2793731402	 0.12717
O	 2.028918722	 1.4079038641	 1.898493243	-0.435662
C	 0.7472136231	-0.5475297378	 1.1886947819	 0.035455
O	 1.0681987097	-1.6513149126	 0.2872595217	-0.303402
H	 0.6021231355	 2.2318245563	 0.1184882317	 0.134798
H	-0.6216281565	 1.8648209343	-1.1193506294	 0.109302
H	-1.0637753047	 1.9150665046	 0.5891034086	 0.119542
H	-0.9005783503	-0.4494470019	-0.1796779621	 0.086159
H	 1.1090607724	-0.9373929839	-1.7492945985	 0.0753
H	 3.3468391871	-0.4418283076	-0.4989800284	 0.104163
H	 2.5586066588	 1.1479292581	-0.6510895342	 0.100577
H	 2.8175864224	-0.5102700518	 1.8336010206	 0.07884
H	 2.9169824291	 1.7623602119	 2.0006717045	 0.287229
H	 0.2597501592	-0.8431175084	 2.1176123951	 0.077088
157.0467	215.0704	233.3181	250.2547	295.4952	375.2993	457.0616	523.7483	598.4854	716.5548	729.109	810.2231	843.1434	871.0851	903.0498	938.0651	957.7507	990.1996	1041.7188	1057.8563	1085.4052	1098.8532	1159.3908	1160.7161	1186.6871	1206.5269	1223.5777	1254.0942	1284.9759	1297.569	1328.5344	1351.7122	1389.5809	1416.5105	1426.4075	1480.1566	1492.068	1508.0981	3026.4374	3036.797	3064.8479	3073.8105	3092.2573	3114.6096	3118.8541	3126.6421	3154.4513	3827.8897
CC1C2CC(O)C1O2	C[C@H]1[C@H]2C[C@@H](O)[C@@H]1O2	
InChI=1S/C6H10O2/c1-3-5-2-4(7)6(3)8-5/h3-7H,2H2,1H3	InChI=1S/C6H10O2/c1-3-5-2-4(7)6(3)8-5/h3-7H,2H2,1H3/t3-,4+,5+,6+/m0/s1
