18
gdb 80293	2.44826	1.49842	1.23143	3.5986	71.77	-0.2366	0.0268	0.2634	1076.438	0.147618	-439.114603	-439.10609	-439.105145	-439.147431	32.828	
C	-0.1003709491	 1.5421277491	-0.0374673711	-0.432261
C	 0.0292703273	 0.0404401843	 0.0701915413	-0.088957
C	 1.3330105477	-0.7188575625	-0.1780890973	-0.081074
N	 2.5683517539	-0.0004844229	-0.0929747574	-0.296306
C	 2.8269878741	 0.5491190282	 1.1426723903	 0.398693
O	 3.7467706865	 1.2867852246	 1.4116262298	-0.372252
C	 1.7136179531	 0.0625491685	 2.0890548552	-0.424706
C	 0.7330054131	-0.6895792666	 1.2013016189	 0.362221
O	 0.1714913936	-1.8694818579	 1.693852039	-0.464554
H	 0.8283657726	 2.0579101796	 0.2196967534	 0.138788
H	-0.3654764276	 1.8344584857	-1.0591036092	 0.123766
H	-0.8839119575	 1.9195507755	 0.6285393506	 0.121581
H	-0.8348734415	-0.5198871672	-0.2799354803	 0.094624
H	 1.3283497949	-1.6269248058	-0.7695282113	 0.113672
H	 3.0771721183	 0.3282973077	-0.8989741793	 0.252208
H	 2.1385080036	-0.6203701612	 2.8312813447	 0.141617
H	 1.2950002444	 0.9198513438	 2.6236639317	 0.12896
H	-0.5771691274	-1.6331669127	 2.2525302208	 0.28398
92.6888	157.269	199.0374	226.5442	270.6626	309.8221	355.7011	447.3306	480.1187	488.2776	562.7345	577.0869	603.3971	697.0226	743.6143	813.4409	857.9743	898.465	958.0877	992.2785	1003.0716	1056.613	1112.0279	1120.1717	1129.369	1163.3364	1223.2519	1233.5272	1270.8406	1307.5571	1341.1167	1363.1907	1403.4416	1421.9719	1450.1722	1471.9542	1495.2269	1504.6923	1832.1366	3035.46	3062.2273	3092.0846	3106.1533	3115.1583	3140.4789	3182.0626	3632.1724	3795.7488
CC1C2NC(=O)CC12O	C[C@H]1[C@H]2NC(=O)C[C@@]12O	
InChI=1S/C6H9NO2/c1-3-5-6(3,9)2-4(8)7-5/h3,5,9H,2H2,1H3,(H,7,8)	InChI=1S/C6H9NO2/c1-3-5-6(3,9)2-4(8)7-5/h3,5,9H,2H2,1H3,(H,7,8)/t3-,5+,6+/m0/s1
