20
gdb 101418	2.96855	1.08501	0.8505	2.1156	77.06	-0.2603	0.0263	0.2866	1379.7136	0.169573	-440.275996	-440.26631	-440.265366	-440.31108	34.705	
C	 0.1410952403	 1.3810355461	 0.2011893344	-0.238105
O	-0.0906754228	 0.0162930599	-0.0662475465	-0.253763
C	 0.6408770881	-0.5086208917	-1.1667720396	 0.127424
C	 2.132677664	-0.6784508167	-0.8773205678	-0.421353
C	-0.0228027576	-1.8451726068	-1.483276781	-0.135846
C	-1.4727345133	-1.8098413962	-2.0024617612	-0.102921
O	-1.0401284255	-2.4198593921	-3.264209762	-0.255168
C	 0.2711939916	-2.4492760411	-2.8438230566	 0.42772
N	 1.3109756216	-2.8314500409	-3.4329716142	-0.545545
H	 1.1619816863	 1.5746559991	 0.5587547534	 0.1125
H	-0.0370835715	 2.0049223666	-0.6888335529	 0.104524
H	-0.5615602435	 1.6771327238	 0.984069955	 0.128856
H	 0.5141506292	 0.1623932002	-2.0348145758	 0.068268
H	 2.6134681024	-1.1951370338	-1.7126503571	 0.160557
H	 2.6276929931	 0.2863402966	-0.7373729287	 0.113847
H	 2.2730583766	-1.274213691	 0.0305065678	 0.121063
H	 0.135296301	-2.5406101812	-0.6548356311	 0.111681
H	-2.1953849473	-2.4467466407	-1.489004657	 0.123285
H	-1.8900720591	-0.8147949834	-2.1713051536	 0.124601
H	 1.1038938765	-3.1696412967	-4.3743652955	 0.228377
68.0602	87.3773	121.2109	133.932	196.8671	239.8951	268.5594	282.9342	361.2611	406.7085	479.1799	519.584	644.3155	744.5134	835.998	863.4035	878.3569	948.0711	956.8457	987.6269	1017.4285	1049.4781	1087.1698	1122.9182	1142.0871	1149.2857	1181.6441	1201.4486	1209.0104	1234.6037	1243.7931	1294.8866	1362.647	1373.1262	1400.8679	1406.3159	1476.6505	1485.0124	1494.7742	1505.7974	1513.24	1518.1786	1817.625	2947.6773	2979.482	3033.2434	3042.3461	3071.8128	3084.377	3112.2525	3115.3074	3126.5917	3133.0132	3475.0334
COC(C)C1COC1=N	CO[C@@H](C)[C@H]1CO[C]1[NH]	
InChI=1S/C6H11NO2/c1-4(8-2)5-3-9-6(5)7/h4-5,7H,3H2,1-2H3	InChI=1S/C6H11NO2/c1-4(8-2)5-3-9-6(5)7/h4-5,7H,3H2,1-2H3/t4-,5+/m0/s1
