20
gdb 9686	4.54275	1.10612	1.01393	2.0151	71.67	-0.2557	0.0841	0.3398	1236.5817	0.174704	-386.129155	-386.119582	-386.118638	-386.163597	34.528	
C	 0.6421019985	 1.4094219613	 0.1586435199	-0.372525
C	-0.1649341726	 0.1297777253	-0.0952305338	-0.22138
C	 0.2848286251	-0.5737913048	-1.3535056529	 0.028437
O	 1.5524503992	-1.25202812	-1.3132690673	-0.310808
C	 0.3562077453	-2.0331615256	-1.5438167627	 0.345347
C	 0.0006489828	-3.0338498331	-0.4676590132	-0.465925
C	 0.3201822792	-2.5811123971	-2.9609251998	-0.115275
O	 1.32212657	-3.5664418988	-3.1487121673	-0.417683
H	 1.7048317399	 1.1755680472	 0.2710646859	 0.134669
H	 0.5400595642	 2.1150282395	-0.6730859186	 0.115549
H	 0.3043244899	 1.9136273352	 1.0686523371	 0.11437
H	-0.0750326771	-0.5403515546	 0.7639632325	 0.105385
H	-1.2303311905	 0.3733395342	-0.2004479268	 0.101949
H	 0.1539400807	 0.0277093536	-2.2580002658	 0.079947
H	-1.0719038782	-3.2565427476	-0.4870859327	 0.11997
H	 0.5413590879	-3.966427485	-0.6529828112	 0.140437
H	 0.2662722652	-2.6709268906	 0.5258049037	 0.127627
H	-0.6380101565	-3.0731440975	-3.1607407262	 0.108125
H	 0.4345539965	-1.754255085	-3.6772964558	 0.088908
H	 2.1587258803	-3.1424089669	-2.9227404148	 0.292876
62.8128	77.4477	154.055	164.2983	199.1836	240.2324	285.8686	330.6964	362.5296	412.2803	455.5556	478.9087	631.4082	708.5744	768.3374	836.7781	897.7527	923.7342	938.1041	1005.5574	1041.9231	1057.8938	1091.0175	1110.8957	1151.2359	1159.6011	1204.7272	1271.4467	1290.5653	1337.5156	1348.1282	1392.0655	1406.57	1414.6522	1426.7682	1466.865	1473.5279	1492.5997	1496.1609	1499.0363	1505.4711	1517.1476	2994.3087	3028.8282	3036.7418	3043.1864	3059.8397	3072.9485	3088.0447	3108.576	3109.9448	3117.8468	3144.8691	3791.1404
CCC1OC1(C)CO	CC[C@H]1O[C@]1(C)CO	
InChI=1S/C6H12O2/c1-3-5-6(2,4-7)8-5/h5,7H,3-4H2,1-2H3	InChI=1S/C6H12O2/c1-3-5-6(2,4-7)8-5/h5,7H,3-4H2,1-2H3/t5-,6-/m1/s1
