18
gdb 98770	3.59357	1.13269	1.013	2.1063	72.22	-0.2334	0.0215	0.2549	1225.0623	0.147475	-439.065131	-439.056456	-439.055512	-439.099682	31.196	
C	-0.2670340993	 1.361391498	-0.2547501159	-0.238373
O	-0.2431970276	-0.0600206615	-0.4356331627	-0.230605
C	 0.8486622389	-0.5387132451	-1.0654438165	 0.459828
O	 1.7580065815	 0.1533362661	-1.4476974576	-0.37384
C	 0.8099014172	-2.0447579938	-1.1916174631	-0.135035
C	-0.5500377752	-2.8085648579	-1.3915627805	-0.241133
C	 0.0051423736	-3.3398143029	-2.7182044302	-0.041276
N	 0.2979801858	-2.1396316857	-3.5382692318	-0.326965
C	 1.2859967669	-2.6041307987	-2.5369721699	-0.043898
H	 0.5863619639	 1.6889411567	 0.3446698115	 0.137538
H	-0.232169765	 1.8712663693	-1.2206309512	 0.143924
H	-1.2026321517	 1.5803223337	 0.2601487218	 0.129858
H	 1.3742363175	-2.4650503019	-0.3533652317	 0.109955
H	-0.7023409656	-3.582197795	-0.6368282473	 0.104548
H	-1.4425216447	-2.187061032	-1.4729813317	 0.120445
H	-0.1865579347	-4.2988577576	-3.1824047047	 0.096173
H	 0.6244725778	-2.4620839028	-4.4487042077	 0.230625
H	 2.2980677307	-2.8562434788	-2.8243355009	 0.098232
34.7102	100.0829	115.9914	157.8905	184.2402	311.4488	357.1794	438.4664	496.279	572.4927	708.1503	775.4865	810.3849	829.5932	853.3005	914.7091	949.7038	963.7716	990.4624	1019.0315	1046.6628	1068.8299	1099.1393	1116.5764	1156.6455	1178.6309	1187.4253	1209.5506	1245.1662	1250.1375	1280.3741	1323.0094	1354.6103	1381.5378	1471.2581	1480.5302	1481.625	1497.04	1818.6953	3051.4015	3066.8027	3082.1608	3126.1168	3141.2519	3157.4422	3192.2949	3208.5446	3477.3326
COC(=O)C1CC2NC12	COC(=O)[C@H]1C[C@H]2N[C@@H]12	
InChI=1S/C6H9NO2/c1-9-6(8)3-2-4-5(3)7-4/h3-5,7H,2H2,1H3	InChI=1S/C6H9NO2/c1-9-6(8)3-2-4-5(3)7-4/h3-5,7H,2H2,1H3/t3-,4+,5-/m0/s1
