21
gdb 82381	2.61097	1.75626	1.3422	1.3826	80.52	-0.252	0.0724	0.3244	1029.5709	0.185427	-387.068733	-387.061137	-387.060192	-387.100292	31.95	
O	-0.0265675175	 1.4715235782	-0.0806403531	-0.426076
C	-0.0096303047	 0.0498054349	 0.023790619	 0.051585
C	 0.7182403569	-0.4484883992	 1.2853381202	-0.035924
C	 1.1964725703	 0.4945227178	 2.3666757283	-0.316581
C	-0.0383808676	-0.3411720592	 2.5882381791	-0.002867
C	-1.4291207085	 0.2832510715	 2.4741335588	-0.256614
C	-2.2121526936	-0.350105588	 1.3254384632	-0.010754
C	-2.6305490429	 0.470853983	 0.1318421147	-0.299661
C	-1.4525943261	-0.4630755546	 0.0224057841	-0.006479
H	 0.8849026943	 1.771889087	-0.0049544994	 0.281506
H	 0.5030514344	-0.3691390833	-0.8536468902	 0.061895
H	 1.3126156484	-1.3432195087	 1.1266354036	 0.078815
H	 2.1063277345	 0.2363786482	 2.8983461689	 0.106225
H	 1.0502916475	 1.5601206516	 2.2211317741	 0.108634
H	 0.050019851	-1.1755283623	 3.277713588	 0.077201
H	-1.9740052405	 0.1715254499	 3.4160373972	 0.094661
H	-1.3309864345	 1.3579338964	 2.2951867113	 0.112166
H	-2.8473854906	-1.1887150519	 1.5952824702	 0.073759
H	-3.5409189355	 0.1977115345	-0.3913975429	 0.101035
H	-2.4193517304	 1.5333318064	 0.1499450144	 0.130034
H	-1.5924756647	-1.3678575425	-0.5600377598	 0.077441
108.5005	235.3853	269.1819	335.8413	350.2832	373.0939	458.1877	467.396	531.1847	560.1927	700.2089	775.0455	794.2379	805.4178	835.6998	847.5473	884.8382	905.1638	934.929	966.5681	1003.537	1016.0989	1047.603	1067.0906	1075.2272	1080.5674	1103.9074	1125.5783	1132.4393	1164.9172	1181.7138	1213.4435	1223.8126	1240.1969	1271.7644	1313.7628	1345.9109	1366.2015	1376.5862	1401.8025	1409.1189	1417.3665	1469.9309	1479.8794	1494.3124	2986.7786	3051.3818	3089.8532	3123.9677	3134.3806	3140.0606	3143.574	3151.0616	3157.5856	3209.3464	3226.7656	3816.6223
OC1C2CC2CC2CC12	O[C@H]1[C@H]2C[C@H]2C[C@H]2C[C@@H]12	
InChI=1S/C8H12O/c9-8-6-2-4(6)1-5-3-7(5)8/h4-9H,1-3H2	InChI=1S/C8H12O/c9-8-6-2-4(6)1-5-3-7(5)8/h4-9H,1-3H2/t4-,5+,6+,7-,8+
