21
gdb 57459	2.94238	1.33204	1.21814	1.8186	77.49	-0.2421	0.0767	0.3187	1141.554	0.180907	-424.187468	-424.178435	-424.177491	-424.220609	35.696	
C	 0.3052830915	 1.4626449145	-0.6144088593	-0.40575
C	-0.0239001526	 0.0974876955	-0.0143129576	 0.329989
C	 0.5381557696	-0.0413230488	 1.4108592614	-0.420937
O	-1.447285238	-0.0037905467	 0.0289286995	-0.465409
C	 0.548193504	-1.0283638499	-0.8938699752	 0.115732
O	-0.1224380406	-2.3045872183	-0.6369958424	-0.324403
C	-0.281106024	-2.5086916168	-2.0507153497	 0.098004
C	-1.1771211412	-1.4851871504	-2.668497161	-0.305166
C	 0.2777525046	-1.1496301884	-2.3963468461	-0.15456
H	 1.3873322045	 1.6017161473	-0.7043199252	 0.109439
H	-0.1464581252	 1.5619141646	-1.6047010333	 0.12875
H	-0.0904105643	 2.2564666919	 0.0253569509	 0.12438
H	 0.0532820685	 0.6842412253	 2.0693702386	 0.120596
H	 0.3443812416	-1.0454050204	 1.8027352136	 0.124012
H	 1.6196304467	 0.1297590194	 1.4363691146	 0.107828
H	-1.6311767135	-0.9375408135	 0.1984550891	 0.282429
H	 1.6210028539	-1.1442351741	-0.6923662467	 0.080062
H	-0.0840322544	-3.5026350793	-2.4339861129	 0.106317
H	-1.390908997	-1.6557802788	-3.7197502298	 0.113422
H	-1.9704982922	-1.0176345422	-2.0994836738	 0.135282
H	 0.9729563581	-0.8607418011	-3.1723131548	 0.099983
82.6848	179.5321	190.5806	216.1813	266.8996	289.6709	335.1544	368.0096	390.4947	455.3972	501.7071	525.6971	593.6533	726.9193	777.0796	796.9549	837.2582	901.2058	931.0477	937.2993	962.7565	971.5041	989.6593	1016.9928	1037.8549	1046.2656	1054.195	1083.8937	1095.3549	1153.7806	1192.9465	1207.4118	1248.2402	1260.4539	1299.6948	1361.8596	1366.417	1393.1034	1408.7551	1421.2457	1477.5885	1480.0647	1487.2569	1500.0605	1509.2204	3020.5298	3033.1197	3043.9714	3102.5122	3113.7418	3120.2196	3125.3578	3134.5272	3185.2313	3206.8367	3234.3602	3758.4158
CC(C)(O)C1OC2CC12	CC(C)(O)[C@H]1O[C@H]2C[C@@H]12	
InChI=1S/C7H12O2/c1-7(2,8)6-4-3-5(4)9-6/h4-6,8H,3H2,1-2H3	InChI=1S/C7H12O2/c1-7(2,8)6-4-3-5(4)9-6/h4-6,8H,3H2,1-2H3/t4-,5+,6+/m1/s1
