20
gdb 91024	2.66835	1.68832	1.23124	1.6501	78.27	-0.2437	0.0762	0.3199	1066.5304	0.171256	-403.094013	-403.08582	-403.084876	-403.12644	32.216	
C	-0.9402767694	 1.0798011155	 0.5745328957	-0.410004
C	-0.4058866672	-0.3259682096	 0.758395476	 0.153492
O	 0.3029786379	-0.8125646893	-0.4100289223	-0.311523
C	 1.4098425931	-1.2651254438	 0.3849315634	 0.105714
C	 2.5552528953	-0.2636801343	 0.4798470362	-0.123529
N	 3.2255418182	-0.4248766167	 1.7647597075	-0.365125
C	 1.9673601662	 0.3294162407	 1.7416295916	 0.352382
C	 1.9898376543	 1.7155255792	 2.317742197	-0.494693
C	 0.7924430296	-0.6579978379	 1.691501193	-0.20757
H	-0.149683382	 1.7689229719	 0.2701504393	 0.131111
H	-1.7073594838	 1.082321547	-0.2065192671	 0.126512
H	-1.3981782298	 1.4453727129	 1.5000504166	 0.116888
H	-1.2407154157	-1.0064931967	 0.9818354353	 0.076787
H	 1.6455741627	-2.3214074215	 0.2185250284	 0.077914
H	 3.0867440074	 0.2019421976	-0.3424048245	 0.099084
H	 3.126554855	-1.3662936035	 2.1443279054	 0.225196
H	 1.1833833806	 2.3407689531	 1.9276751191	 0.121065
H	 1.8839076568	 1.6759740873	 3.4086918086	 0.120538
H	 2.9463806272	 2.1952284029	 2.0956328371	 0.135
H	 0.5590491439	-1.214508305	 2.6022239739	 0.070761
98.9128	173.2582	189.9318	255.1487	273.5877	327.6088	361.6356	422.6853	487.9531	552.7842	611.0691	683.819	795.8318	829.6844	850.4622	875.6384	919.7498	942.8163	968.1346	999.9675	1029.728	1059.5404	1072.7274	1096.9666	1103.6871	1120.0235	1144.8779	1165.2051	1183.1903	1200.1488	1262.9509	1282.9624	1296.5187	1309.6844	1343.7774	1386.5176	1399.2023	1407.3481	1436.4693	1477.8564	1485.3453	1492.6406	1505.0939	2986.8332	3035.0697	3038.7445	3053.4105	3081.5556	3101.4302	3104.4642	3128.0372	3134.44	3182.1122	3443.4558
CC1OC2C3NC3(C)C12	C[C@H]1O[C@H]2[C@@H]3N[C@]3(C)[C@@H]12	
InChI=1S/C7H11NO/c1-3-4-5(9-3)6-7(4,2)8-6/h3-6,8H,1-2H3	InChI=1S/C7H11NO/c1-3-4-5(9-3)6-7(4,2)8-6/h3-6,8H,1-2H3/t3-,4+,5-,6+,7-/m1/s1
