17
gdb 51916	4.85306	0.58743	0.52739	2.0017	83.03	-0.2496	-0.0239	0.2257	1972.4758	0.134165	-417.999841	-417.990111	-417.989167	-418.03547	33.984	
O	-0.5770791342	 0.7467569889	 1.1594992118	-0.297528
C	-0.2007015678	 1.4496807611	 0.2513926866	 0.155985
N	 1.0376774489	 1.3710092455	-0.3401958874	-0.32129
C	 2.0221777229	 0.4622036018	 0.0371652495	 0.140626
N	 3.1359937176	 0.4572308018	-0.5608392028	-0.259658
C	 4.1798264845	-0.4770049802	-0.1901782882	-0.123505
C	 3.8962129223	-1.4716887875	 0.9596133527	-0.392205
C	 5.0425552715	-2.3352436614	 1.2040501827	 0.274282
C	 6.0086217277	-3.0291953263	 1.37624194	-0.405297
H	-0.8214750857	 2.2424621053	-0.2063978746	 0.092727
H	 1.2729558842	 1.9987470321	-1.0963435765	 0.26417
H	 1.6979312944	-0.1804313463	 0.8563914605	 0.140351
H	 4.449585016	-1.0451859716	-1.0887233751	 0.129534
H	 5.0727094738	 0.1077595899	 0.0623930566	 0.129534
H	 3.647652043	-0.9223971316	 1.8769139605	 0.138864
H	 3.0192321882	-2.0852508415	 0.7159175149	 0.138861
H	 6.8532894528	-3.6507864799	 1.5417386389	 0.194551
73.6282	75.8564	78.6095	156.3653	170.8105	224.0235	266.7629	354.2746	373.8757	385.7276	477.2451	602.1303	622.8176	642.6493	654.7601	761.5662	790.4669	980.7414	994.1245	1004.2656	1030.9687	1055.6382	1084.9331	1097.8916	1227.014	1244.434	1295.8952	1318.485	1357.8431	1392.1301	1437.2416	1473.1026	1486.4657	1505.0095	1758.4116	1817.4578	2240.4057	2961.7433	3017.6937	3034.8069	3045.4958	3068.2403	3132.6003	3507.5453	3609.5863
O=CNC=NCCC#C	O=CNC=NCCC#C	
InChI=1S/C6H8N2O/c1-2-3-4-7-5-8-6-9/h1,5-6H,3-4H2,(H,7,8,9)	InChI=1S/C6H8N2O/c1-2-3-4-7-5-8-6-9/h1,5-6H,3-4H2,(H,7,8,9)
