17
gdb 127548	3.10084	1.46753	1.0087	5.1673	82.72	-0.2187	-0.0399	0.1788	1153.5788	0.136892	-414.198993	-414.19047	-414.189526	-414.232655	30.999	
C	-0.0171194235	 1.4418386037	-0.0616025151	-0.32731
N	 0.0034828469	-0.0125336646	 0.0193301216	-0.059319
N	-0.0251600044	-0.6538701082	-1.1815160001	-0.192009
C	-0.0077883726	-1.9406408776	-1.1499005692	-0.039447
C	 0.0403163307	-2.7462594309	 0.0768310771	 0.296602
N	 0.0588384798	-4.0277142665	 0.1235043541	-0.510391
N	 0.0666663701	-2.0089603754	 1.2653314793	-0.326984
C	 0.048257427	-0.7196724762	 1.2006139156	 0.413908
C	 0.0768362376	 0.0761812396	 2.4767499725	-0.485361
H	 0.8817396813	 1.8799438034	 0.3830514208	 0.142608
H	-0.0532966282	 1.6966301251	-1.1194576747	 0.164663
H	-0.8970988548	 1.8578263863	 0.438550594	 0.142611
H	-0.0313325662	-2.4339016844	-2.1191389634	 0.123962
H	 0.034992914	-4.4069080121	-0.8250019133	 0.206613
H	 0.1103915827	-0.6264141753	 3.3079031622	 0.166681
H	 0.9536200463	 0.7308925492	 2.5228909011	 0.141602
H	-0.8111132467	 0.7095645439	 2.5759917375	 0.141571
63.8567	76.7916	173.2843	205.1717	236.5226	325.3352	355.8854	448.3246	485.1544	532.033	586.3248	599.3913	719.8073	764.1132	794.4257	853.0772	936.3623	940.347	998.7307	1048.4033	1058.6938	1135.9253	1147.5758	1195.5264	1285.8318	1325.1279	1354.7681	1402.3564	1423.5005	1455.2097	1472.6816	1478.1339	1499.4697	1507.2937	1613.3051	1667.4836	1689.6949	3039.1221	3043.6121	3097.5287	3100.9831	3156.9677	3169.3866	3169.8465	3455.3679
CN1N=CC(=N)N=C1C	CN1N=CC(=N[C@H]1C)[NH]	
InChI=1S/C5H8N4/c1-4-8-5(6)3-7-9(4)2/h3,6H,1-2H3	InChI=1S/C5H9N4/c1-4-8-5(6)3-7-9(4)2/h3-4,6H,1-2H3/t4-/m1/s1
