20
gdb 90210	3.15378	1.71798	1.48251	0.7437	84.6	-0.2029	0.0662	0.2691	978.472	0.171339	-365.852318	-365.845002	-365.844058	-365.88352	30.308	
C	-0.0492143613	 1.5505799199	 0.0662328643	-0.329883
N	 0.0147810913	 0.106545356	 0.1414438286	-0.140061
C	-1.2256971607	-0.687391647	 0.4499275923	-0.271078
C	-0.3181542343	-1.7203156989	 1.1746469544	 0.179938
C	 0.6930184872	-2.6337936422	 0.4505729706	-0.281644
C	 1.555787527	-1.8508313318	 1.454258889	-0.098699
C	 0.407234117	-1.8514000309	 2.5674690398	-0.091852
C	 0.4748938514	-0.3296776165	 2.7777072137	-0.302246
C	 0.6913085348	-0.5491613464	 1.2599199366	 0.276672
H	 0.9599855479	 1.9536404731	-0.066303088	 0.124101
H	-0.6467108688	 1.8506748514	-0.8013843507	 0.119591
H	-0.4928989979	 2.0184821252	 0.9636312502	 0.094838
H	-1.9283727441	-0.1569597647	 1.1099535872	 0.098423
H	-1.7629983686	-1.0439842703	-0.4347162239	 0.109629
H	 0.5932155138	-3.7116474827	 0.6135155177	 0.086109
H	 0.8718129556	-2.4136417506	-0.6050784174	 0.104373
H	 2.6274548803	-1.9429845595	 1.6631962896	 0.063573
H	 0.2728662194	-2.634001636	 3.3197701314	 0.072162
H	-0.456137608	 0.1530239665	 3.090489504	 0.094444
H	 1.3207994381	 0.0594846255	 3.3517695208	 0.091608
144.6251	199.0235	254.8657	320.9632	355.4557	390.1515	455.6003	553.4384	557.578	652.1922	741.3731	779.258	842.3087	862.5859	892.1265	910.0417	913.9551	931.5004	999.2635	1002.6143	1012.7745	1058.3288	1085.1097	1111.4416	1124.2497	1136.542	1148.6504	1152.4523	1177.5716	1178.8041	1208.4676	1211.8842	1228.3744	1255.2204	1273.6408	1278.4092	1307.3289	1445.622	1480.7954	1493.7002	1501.4104	1503.3373	1510.9631	2941.8941	2987.2255	3037.7473	3043.1434	3049.6029	3056.7175	3069.4628	3071.4684	3099.6407	3100.5795	3107.7062
CN1CC23CC4C2CC134	CN1C[C@]23C[C@@H]4[C@H]2C[C@]134	
InChI=1S/C8H11N/c1-9-4-7-2-6-5(7)3-8(6,7)9/h5-6H,2-4H2,1H3	InChI=1S/C8H11N/c1-9-4-7-2-6-5(7)3-8(6,7)9/h5-6H,2-4H2,1H3/t5-,6-,7-,8-/m1/s1
