21
gdb 113055	3.24505	0.9791	0.81709	3.2995	79.51	-0.2441	-0.0284	0.2157	1463.268	0.18144	-424.23945	-424.229679	-424.228735	-424.274612	35.712	
C	-0.415469884	 1.4461860835	-0.0564362538	-0.385495
C	-0.0304511175	-0.0354115635	 0.0177340723	-0.197558
C	 0.7220437944	-0.5141282887	-1.2213520348	-0.072124
C	 1.1125698855	-2.0236547139	-1.3859638648	-0.302173
C	 0.6097434157	-2.009200134	-2.8645589137	-0.109646
C	-0.3636735344	-3.0687377146	-3.3830174865	-0.076843
O	-0.9286316849	-2.6707206499	-4.6148219518	-0.422326
C	-0.0538774758	-0.6694417007	-2.5361852541	 0.388925
O	-0.9922282258	-0.0967620893	-3.0300551162	-0.330672
H	 0.4739225907	 2.0813486602	-0.1356514369	 0.112454
H	-1.0447556233	 1.6383289528	-0.9294084825	 0.147038
H	-0.965348493	 1.7533720799	 0.8381897858	 0.11368
H	 0.5920341747	-0.221087422	 0.9020409448	 0.102041
H	-0.933660776	-0.6459281074	 0.1432907675	 0.100934
H	 1.600293793	 0.1208579008	-1.4007587161	 0.103422
H	 2.1627254926	-2.2721602712	-1.231125999	 0.111998
H	 0.4960612839	-2.6694305803	-0.7533994246	 0.113514
H	 1.4271486603	-1.8759418515	-3.5816988015	 0.110437
H	 0.1509681293	-4.0195986291	-3.5578854875	 0.110858
H	-1.1384157583	-3.2527543198	-2.6195518062	 0.084526
H	-1.333902317	-1.8059535013	-4.4651752304	 0.297009
50.3708	97.122	120.8828	172.372	187.1167	237.214	266.6638	288.0892	351.5296	417.5118	516.4968	545.0807	597.0917	693.5774	740.9077	806.8747	850.5287	905.2262	952.0516	974.6122	986.6102	1010.8959	1052.7489	1072.7106	1089.8949	1121.3574	1133.0248	1164.0797	1197.9289	1231.8903	1243.778	1254.2654	1286.2549	1321.8216	1337.4487	1370.1291	1385.3936	1414.3333	1446.5306	1487.6553	1490.1692	1499.1435	1512.9141	1513.6175	1845.5656	2961.2028	3019.0887	3023.8049	3036.5185	3055.4068	3056.1916	3064.0033	3069.7656	3101.9836	3125.3279	3131.2006	3756.9486
CCC1CC(CO)C1=O	CC[C@H]1C[C@@H](CO)C1=O	
InChI=1S/C7H12O2/c1-2-5-3-6(4-8)7(5)9/h5-6,8H,2-4H2,1H3	InChI=1S/C7H12O2/c1-2-5-3-6(4-8)7(5)9/h5-6,8H,2-4H2,1H3/t5-,6-/m0/s1
