16
gdb 45344	2.51502	1.83316	1.14777	5.7827	70.6	-0.2563	-0.0246	0.2317	1026.8131	0.125935	-437.944688	-437.93746	-437.936516	-437.9767	27.566	
O	-0.1048235641	-0.0497949923	-0.0580985266	-0.29441
C	-0.1252037366	 1.1394142662	-0.0578305724	 0.4075
C	-1.1889431172	 2.2511518123	-0.1992891898	-0.403745
C	-0.0319017938	 3.2523233267	 0.0664001518	 0.041732
C	 0.1486739149	 3.9681157115	 1.4158270559	-0.251113
C	 1.6205698373	 3.6481801058	 1.7608967167	-0.324313
C	 1.8507156624	 2.2386437327	 1.1838348647	 0.379777
O	 2.6223902339	 1.3996537921	 1.5542064775	-0.310123
N	 0.9066496023	 2.1093685532	 0.1398980202	-0.147011
H	-1.670493373	 2.303477745	-1.1774508741	 0.143117
H	-1.9539812722	 2.2072278977	 0.5793938798	 0.143962
H	 0.1888507976	 3.9125720838	-0.7777220395	 0.098413
H	-0.0640623772	 5.0378164718	 1.3657397624	 0.117719
H	-0.5137254037	 3.5279642679	 2.1696406237	 0.118051
H	 2.3067057967	 4.3463318723	 1.2659441367	 0.138501
H	 1.8546403828	 3.652965883	 2.826264023	 0.141945
93.9545	141.7993	170.5915	297.8643	439.1734	473.8146	504.1164	545.6451	591.8441	649.0961	707.6888	748.3419	810.9489	847.7369	943.7476	966.6574	999.4921	1035.9577	1050.803	1074.9399	1097.4647	1135.63	1194.4557	1205.5273	1222.6872	1238.6875	1285.8027	1300.344	1321.8216	1375.828	1450.3102	1467.4789	1497.1668	1842.7935	1927.4223	3044.7396	3050.1167	3060.6412	3081.1977	3114.3391	3131.1239	3139.0994
O=C1CC2CCC(=O)N12	O=C1C[C@H]2CCC(=O)N12	
InChI=1S/C6H7NO2/c8-5-2-1-4-3-6(9)7(4)5/h4H,1-3H2	InChI=1S/C6H7NO2/c8-5-2-1-4-3-6(9)7(4)5/h4H,1-3H2/t4-/m1/s1
