21
gdb 115424	3.99101	0.90205	0.82076	1.7091	85.69	-0.2491	0.0608	0.3098	1466.1662	0.181865	-387.063764	-387.054204	-387.05326	-387.098772	35.39	
C	 0.5764207991	 0.6664668891	-0.5134324787	-0.236317
O	-0.1080084364	-0.4158278444	 0.0695758772	-0.24727
C	-1.5125507288	-0.2229289077	 0.1957523326	 0.112301
C	-2.258614047	-0.4517297021	-1.1471795847	-0.237439
C	-2.7774140718	-1.9143559648	-1.1144840892	-0.213717
C	-2.1492607317	-2.5456428404	 0.1592952762	-0.149407
C	-2.027098018	-1.3342706492	 1.1125339757	-0.223773
C	-2.8970591673	-3.6706620701	 0.6975306071	 0.29709
C	-3.529670547	-4.5910112869	 1.143865167	-0.448048
H	 1.6405348461	 0.417292786	-0.5078673293	 0.12754
H	 0.2692165159	 0.8544224229	-1.5534845991	 0.104027
H	 0.4260453356	 1.5957740916	 0.0589070575	 0.103366
H	-1.7017591084	 0.7791731622	 0.6079217007	 0.058764
H	-3.0862276351	 0.2552445242	-1.2560616514	 0.101766
H	-1.5807756375	-0.2761930317	-1.986456604	 0.107544
H	-3.8670733145	-1.9354314538	-1.021429921	 0.110696
H	-2.5213953856	-2.479502503	-2.0134460889	 0.107384
H	-1.1313782951	-2.8760931898	-0.0801143218	 0.117236
H	-1.3561009018	-1.5102352363	 1.9552553306	 0.115045
H	-3.0168675625	-1.0721772916	 1.5016892439	 0.104807
H	-4.0805476381	-5.4089462843	 1.5368691896	 0.188405
48.173	82.2053	115.3325	153.6181	206.4165	234.1457	310.0212	375.4516	431.3218	509.5665	514.7989	547.1781	620.7808	626.7689	737.2775	781.8104	826.2274	865.0014	902.7843	953.5274	984.1149	997.1461	1048.0834	1072.4818	1083.4556	1134.6222	1179.0225	1185.5265	1208.0889	1221.7057	1237.355	1280.1273	1291.499	1323.1619	1324.4943	1333.2439	1373.5355	1389.6023	1472.863	1479.4454	1479.8229	1490.3727	1505.9615	1511.511	2235.0817	2971.4043	2990.8781	3017.826	3035.3345	3055.9209	3056.3384	3067.4607	3093.6953	3111.3821	3114.9199	3123.4485	3506.1193
COC1CCC(C1)C#C	CO[C@H]1CC[C@@H](C1)C#C	
InChI=1S/C8H12O/c1-3-7-4-5-8(6-7)9-2/h1,7-8H,4-6H2,2H3	InChI=1S/C8H12O/c1-3-7-4-5-8(6-7)9-2/h1,7-8H,4-6H2,2H3/t7-,8-/m0/s1
