21
gdb 106169	2.65612	1.51235	1.34814	1.7518	81.14	-0.2214	0.0824	0.3039	1085.8371	0.184006	-387.066966	-387.058946	-387.058002	-387.099582	31.629	
C	 0.1085070113	 1.521135729	-0.1436144473	-0.375991
C	-0.004917572	 0.0075938276	 0.0875146933	-0.321306
C	-1.4210329051	-0.4911999005	 0.0620659032	 0.328727
C	-2.0315266929	-1.8955941189	-0.0933732951	-0.173286
C	-2.9515804115	-1.6665519674	 1.1040230485	-0.230809
C	-2.5919901629	-0.146960883	 1.0407720923	-0.124767
C	-3.5854765524	 0.5840646393	 0.1406465093	-0.081448
O	-3.5158562958	-0.1197274526	-1.1080123635	-0.273037
C	-2.2771222234	-0.7994641557	-1.1163196392	 0.067119
H	 1.1530692911	 1.846298492	-0.1165789711	 0.112185
H	-0.3099529826	 1.8029940283	-1.1151878262	 0.122941
H	-0.4328643414	 2.0812952671	 0.6264211943	 0.116993
H	 0.5714404733	-0.5255452557	-0.6793275801	 0.099468
H	 0.4611113308	-0.2510746286	 1.0481016298	 0.097152
H	-1.5371031382	-2.824057865	-0.3602814088	 0.077908
H	-4.0098025213	-1.9263980377	 0.98854822	 0.096973
H	-2.5613923999	-2.1374168034	 2.0096283784	 0.099922
H	-2.3625581047	 0.3554119308	 1.9805743492	 0.070917
H	-4.618283104	 0.5363105161	 0.5022337784	 0.104508
H	-3.3077380547	 1.6407585654	 0.0006042114	 0.089342
H	-1.8547814636	-0.9127507572	-2.1083742069	 0.096486
75.8998	127.5056	201.6015	235.3069	296.1066	358.0306	381.0067	499.8397	577.3714	642.9486	739.5576	776.6758	794.5171	833.2149	875.8922	893.2358	896.1813	943.0575	987.4493	992.3883	1008.6895	1015.1612	1045.8824	1051.8187	1082.8747	1097.7545	1112.1688	1154.4663	1170.1971	1201.9866	1232.4627	1240.7784	1281.3259	1293.234	1307.472	1318.9947	1357.2762	1376.0629	1405.8797	1456.7933	1483.1326	1495.0274	1498.105	1505.3965	1512.6664	2978.1532	3010.54	3032.9987	3037.8463	3043.5737	3067.0726	3098.1182	3100.6256	3107.1309	3115.7473	3160.1805	3183.734
CCC12C3CC1COC23	CC[C@@]12[C@H]3C[C@@H]1CO[C@@H]23	
InChI=1S/C8H12O/c1-2-8-5-3-6(8)7(8)9-4-5/h5-7H,2-4H2,1H3	InChI=1S/C8H12O/c1-2-8-5-3-6(8)7(8)9-4-5/h5-7H,2-4H2,1H3/t5-,6+,7-,8+/m1/s1
