23
gdb 109562	2.4453	1.23496	0.93954	2.6747	86.08	-0.2313	-0.0124	0.219	1370.6966	0.203787	-388.31525	-388.304807	-388.303863	-388.350626	38.333	
C	 0.0813739715	 1.6188545155	-0.1180831135	-0.38799
C	-0.0874836229	 0.0956709964	-0.0593968369	-0.202915
C	 0.7214108634	-0.5309158482	 1.0727005605	-0.08006
C	 0.7806568798	-2.0865227394	 1.3156844193	-0.062455
C	 0.4614892394	-2.9402048107	 0.0917022614	-0.394318
C	 2.315339916	-1.9557804738	 1.6480852951	-0.084049
C	 3.3487744517	-2.970359505	 1.1815242858	-0.415281
C	 2.2526441551	-0.584560324	 0.9616963383	 0.374644
O	 3.0666997166	 0.0861859556	 0.3886382264	-0.314824
H	 1.1325850166	 1.8824364268	-0.2606448865	 0.147633
H	-0.4964332151	 2.0466359278	-0.9430906386	 0.109403
H	-0.2623803351	 2.0904388636	 0.809567248	 0.109209
H	-1.1471110855	-0.1593006331	 0.0705019755	 0.096626
H	 0.2202933243	-0.3396616646	-1.0167807672	 0.103193
H	 0.468116888	-0.0374177553	 2.0212415114	 0.095376
H	 0.1760629262	-2.4195732547	 2.1628610263	 0.070856
H	 1.0486211333	-2.6428932829	-0.7840212624	 0.123657
H	 0.673810584	-3.9962344144	 0.2864538414	 0.117713
H	-0.5959046937	-2.8578381578	-0.1787394204	 0.119294
H	 2.4231532114	-1.7817072896	 2.7268873653	 0.099733
H	 3.259219154	-3.1758527891	 0.1113819413	 0.124105
H	 4.3572129523	-2.5843924722	 1.3580471131	 0.133735
H	 3.2500604386	-3.918590391	 1.7195553365	 0.116715
60.8954	100.0986	146.4629	166.2587	185.6747	211.0471	235.7342	258.7375	266.4246	311.2516	431.1837	473.0083	530.6862	559.554	720.9218	757.275	777.7809	817.5684	845.8203	918.9465	978.0886	989.9791	1005.1697	1024.316	1042.2291	1076.1275	1109.9553	1149.3686	1167.9503	1175.8157	1186.7441	1246.3603	1265.89	1282.4698	1335.9096	1345.2671	1367.7073	1382.4466	1406.8791	1410.9907	1416.3957	1485.4788	1490.1443	1491.632	1498.6227	1502.0366	1503.6992	1513.0454	1869.0774	3014.3834	3022.282	3024.6376	3032.1437	3034.1259	3041.5934	3064.0939	3069.5428	3099.0685	3100.8413	3102.7288	3108.155	3118.1478	3125.3837
CCC1C(C)C(C)C1=O	CC[C@H]1[C@@H](C)[C@@H](C)C1=O	
InChI=1S/C8H14O/c1-4-7-5(2)6(3)8(7)9/h5-7H,4H2,1-3H3	InChI=1S/C8H14O/c1-4-7-5(2)6(3)8(7)9/h5-7H,4H2,1-3H3/t5-,6+,7-/m0/s1
