15
gdb 133592	3.15897	1.28638	1.19108	3.1495	57.18	-0.2299	0.0655	0.2954	1035.7587	0.110092	-548.264527	-548.257033	-548.256088	-548.297112	28.484	
F	 0.3471304785	 0.1444750401	-0.1226817483	-0.06877
C	-0.0146798352	 1.4275287942	-0.0234218895	 0.292229
F	 1.0950289723	 2.1747295062	-0.1664422916	-0.084157
F	-0.8238658914	 1.7003980381	-1.0597592226	-0.081402
C	-0.696277055	 1.7635472196	 1.2929078038	-0.133703
N	-1.865260055	 0.9006169998	 1.6359925891	-0.334114
C	-1.3056340468	 0.7245858761	 3.0010790802	-0.004103
C	-0.0481081279	-0.067972798	 2.8946077918	-0.266656
C	-0.0068357685	 1.4218420173	 2.6167793342	-0.109343
H	-0.9489553414	 2.8280069215	 1.2444678829	 0.10305
H	-2.7196786571	 1.4462093318	 1.6430480577	 0.230455
H	-1.9207556052	 0.8005807912	 3.8887469997	 0.101343
H	 0.4120722713	-0.3394427685	 3.8393815549	 0.116494
H	 0.0656000392	-0.7921442169	 2.0968538571	 0.134416
H	 0.6292599323	 2.1003015776	 3.1681574103	 0.104262
59.4823	163.8791	177.1169	285.0001	370.3593	394.2366	471.8024	522.47	575.4668	680.4061	720.8777	758.6708	809.1285	820.305	888.8305	942.5473	975.2642	1003.6775	1045.3515	1046.4601	1054.1356	1085.7397	1097.3128	1172.3213	1173.5665	1196.0437	1232.2559	1289.3402	1310.5602	1338.4891	1394.3105	1420.7979	1483.4616	3056.5686	3138.2822	3191.5242	3206.4477	3232.0318	3540.2293
FC(F)(F)C1NC2CC12	FC(F)(F)[C@H]1N[C@H]2C[C@@H]12	
InChI=1S/C5H6F3N/c6-5(7,8)4-2-1-3(2)9-4/h2-4,9H,1H2	InChI=1S/C5H6F3N/c6-5(7,8)4-2-1-3(2)9-4/h2-4,9H,1H2/t2-,3+,4+/m1/s1
