18
gdb 90753	3.0962	1.35458	1.0718	3.3357	71.51	-0.2395	0.0286	0.268	1119.3075	0.149738	-439.11718	-439.109316	-439.108371	-439.149745	30.407	
O	 0.7621613008	 0.6761175475	-0.5256742755	-0.431114
C	 0.1298149564	-0.2982472205	 0.2604540102	 0.160744
C	-0.0534451125	-0.058527612	 1.7856487256	-0.278922
C	-1.4853400763	-0.6437165573	 1.6638554876	-0.150177
C	-1.4130713889	-0.5121973324	 0.1191140069	-0.064135
C	-1.8786969242	-1.8536011711	-0.4658747982	-0.192732
N	-1.7435740617	-2.7475039992	 0.6731819056	-0.303641
C	-1.5735924741	-2.1541304291	 1.8988549623	 0.400643
O	-1.5031518238	-2.7326928843	 2.9612960507	-0.38502
H	 0.3628467722	 1.5299235982	-0.3272286343	 0.278462
H	 0.6691579575	-1.2297137209	 0.0611099023	 0.100377
H	 0.6381192794	-0.5495470576	 2.4735212291	 0.124173
H	-0.0800454648	 1.0119184253	 2.0161212509	 0.096075
H	-2.2762119116	-0.1402542751	 2.2220631042	 0.098331
H	-1.9147211408	 0.351273947	-0.3219429354	 0.071091
H	-2.9162145084	-1.8107868748	-0.825289972	 0.107555
H	-1.2468562965	-2.1718270508	-1.3041929602	 0.117138
H	-1.8828343827	-3.7439466131	 0.6149184703	 0.25115
78.4696	135.966	205.1984	278.081	293.9153	367.5988	451.2622	462.4352	527.8088	588.2342	681.6053	728.4861	747.7576	803.4118	845.9073	889.4715	934.3393	983.5217	1001.6148	1019.3267	1065.6516	1075.8394	1116.8156	1142.5099	1169.1121	1203.8	1235.6347	1239.9643	1252.578	1260.8569	1280.4195	1312.5507	1344.0253	1369.3558	1433.6554	1448.6172	1484.2261	1529.9295	1824.0236	3001.4817	3044.2715	3048.4828	3064.0016	3092.6835	3102.5986	3116.111	3640.2217	3803.5952
OC1CC2C1CNC2=O	O[C@H]1C[C@H]2[C@@H]1CNC2=O	
InChI=1S/C6H9NO2/c8-5-1-3-4(5)2-7-6(3)9/h3-5,8H,1-2H2,(H,7,9)	InChI=1S/C6H9NO2/c8-5-1-3-4(5)2-7-6(3)9/h3-5,8H,1-2H2,(H,7,9)/t3-,4-,5-/m0/s1
