22
gdb 5987	4.02684	0.99432	0.96453	0.2204	74.47	-0.2575	0.063	0.3204	1331.102	0.197227	-387.342899	-387.332341	-387.331397	-387.377987	38.415	
C	-0.2328985921	 1.5039245399	-0.0472106477	-0.39353
C	 0.0722228388	 0.0040622769	 0.0016551651	-0.19321
C	 0.8384020889	-0.469550049	 1.2590239526	 0.336916
C	 2.2013558381	 0.2186419618	 1.3831912214	-0.402365
O	 0.1188871913	-0.0841642656	 2.4414279743	-0.459312
C	 0.9728466519	-2.0061058662	 1.2057281166	-0.193178
C	 1.6478894058	-2.6422919165	 2.4159084542	-0.090864
O	 1.4787006573	-4.0505782187	 2.2991510256	-0.425055
H	 0.6717735705	 2.1017033084	-0.1919038638	 0.11712
H	-0.9107671253	 1.7322740572	-0.8752268312	 0.108428
H	-0.7044832402	 1.8300618588	 0.8837615061	 0.125411
H	-0.8726410743	-0.5565489552	-0.0396491588	 0.082811
H	 0.6360573535	-0.2966297774	-0.890152709	 0.095493
H	 2.0820478945	 1.3034535421	 1.4217766604	 0.123791
H	 2.7080802151	-0.0885086669	 2.301041185	 0.122714
H	 2.8406685539	-0.0326685876	 0.5315968331	 0.111179
H	-0.7512708235	-0.4967806685	 2.4003107859	 0.275018
H	-0.0315409264	-2.44357038	 1.1242596176	 0.092396
H	 1.5085353221	-2.3005719816	 0.2956588583	 0.100907
H	 2.715824413	-2.3792173341	 2.4448222862	 0.084932
H	 1.1860652845	-2.2541206821	 3.3347485264	 0.096546
H	 1.8995889027	-4.4639802657	 3.0584089415	 0.283854
78.9607	98.1481	113.223	149.8541	202.7969	239.3688	269.3253	294.5077	322.9712	328.9688	355.3984	368.7968	418.6242	456.9848	601.6538	763.0203	781.0319	800.2146	897.163	945.8998	976.9228	1000.7751	1018.5651	1065.629	1072.8659	1088.6381	1143.1274	1177.9846	1206.3751	1235.7948	1253.2822	1290.7191	1311.3363	1347.4031	1368.0534	1387.6303	1405.9207	1424.6607	1457.9249	1471.9297	1486.8877	1488.0955	1495.8303	1509.4996	1515.8054	1535.0375	2984.7254	3003.7951	3017.8371	3021.9374	3043.4195	3048.2984	3051.1768	3070.8136	3107.0257	3121.1795	3123.4305	3131.3995	3794.7523	3829.0508
CCC(C)(O)CCO	CC[C@@](C)(O)CCO	
InChI=1S/C6H14O2/c1-3-6(2,8)4-5-7/h7-8H,3-5H2,1-2H3	InChI=1S/C6H14O2/c1-3-6(2,8)4-5-7/h7-8H,3-5H2,1-2H3/t6-/m1/s1
