16
gdb 66543	2.96911	1.92883	1.51939	3.811	70.94	-0.2392	-0.0121	0.2271	891.6219	0.124705	-400.678091	-400.671294	-400.67035	-400.709143	27.194	
C	-0.037833116	 1.430141926	 0.0488085087	-0.511495
C	-0.0191439891	-0.061179116	 0.0258076077	 0.347772
C	 0.486446403	-1.0602156357	-0.9718958249	-0.178036
C	 1.2009287505	-0.962874169	 0.3647947378	-0.118864
C	 0.4533167753	-2.1616300305	 0.9979518852	-0.213872
C	-0.4760823636	-2.0421137068	-0.2649050437	-0.001918
N	-1.192021987	-0.8932418351	 0.4790129984	-0.246877
C	-0.6870498723	-1.475910058	 1.7540163823	 0.425162
O	-1.1249692085	-1.4259458369	 2.8560589558	-0.302635
H	 0.9060350365	 1.8284631057	-0.3380547525	 0.12473
H	-0.8554454956	 1.8212162712	-0.5642207614	 0.137524
H	-0.1689535302	 1.804028129	 1.0700792311	 0.138143
H	 0.8315183083	-0.9526294124	-1.9904032691	 0.104238
H	 2.1786534043	-0.5699408819	 0.6057205624	 0.103824
H	 0.9914127889	-3.0428034805	 1.3381865731	 0.093527
H	-1.0867960046	-2.8385269391	-0.6805102208	 0.098778
120.0906	201.3586	233.762	292.3242	419.211	575.6351	608.0185	633.5627	716.3868	752.0405	784.1638	822.1595	839.6337	869.3641	881.1841	899.3031	923.384	944.4177	952.182	1008.9472	1021.0079	1059.1457	1099.1654	1121.2354	1147.2858	1165.0441	1196.2803	1214.912	1240.9906	1271.3241	1400.0158	1437.3519	1474.6572	1498.0506	1927.7406	3032.6082	3100.0734	3108.5015	3151.3782	3160.3148	3211.9486	3223.1973
CC12C3C1C1C3N2C1=O	C[C@@]12[C@H]3[C@@H]1[C@@H]1[C@H]3N2C1=O	
InChI=1S/C7H7NO/c1-7-3-2-5(4(3)7)8(7)6(2)9/h2-5H,1H3	InChI=1S/C7H7NO/c1-7-3-2-5(4(3)7)8(7)6(2)9/h2-5H,1H3/t2-,3+,4+,5-,7+/m1/s1
