13
gdb 16267	3.43089	1.96321	1.44751	3.7536	66.5	-0.2466	-0.0008	0.2457	841.3095	0.094933	-361.419039	-361.412152	-361.411208	-361.44998	26.321	
O	-0.0856418688	 0.0358296568	 0.1230570064	-0.323052
C	-0.0417587008	 1.2251536105	 0.0299640091	 0.366709
N	-1.0443857007	 2.2124942481	 0.0399034674	-0.340087
C	-0.0790144096	 3.3083772358	-0.0305065709	-0.0444
C	 0.9132246018	 3.2415031016	 1.0789008181	-0.315293
C	 1.0613939434	 2.2882447241	-0.1294782233	 0.027393
C	 2.2073483943	 2.2471952051	-0.9624293652	 0.180959
C	 3.1807480088	 2.1869625842	-1.6665547712	-0.402556
H	-1.8290994819	 2.1936896074	 0.6818869401	 0.248308
H	-0.2494958948	 4.1601349207	-0.6744909901	 0.133516
H	 1.6704740374	 4.0187832188	 1.1123481672	 0.142358
H	 0.6236866768	 2.8347764984	 2.0433645952	 0.131758
H	 4.0362046541	 2.1299573085	-2.2929391529	 0.194388
130.6865	159.5046	220.8599	379.5184	417.069	493.9908	524.0387	586.3845	607.018	651.9242	662.2842	710.3409	761.8344	840.387	887.7805	917.6933	977.3948	1018.4511	1058.1055	1098.3688	1129.832	1214.0334	1289.5953	1327.3351	1371.1558	1479.2329	1909.9616	2240.4357	3121.2328	3213.0705	3221.4343	3502.6862	3547.3376
O=C1NC2CC12C#C	O=C1N[C@H]2C[C@@]12C#C	
InChI=1S/C6H5NO/c1-2-6-3-4(6)7-5(6)8/h1,4H,3H2,(H,7,8)	InChI=1S/C6H5NO/c1-2-6-3-4(6)7-5(6)8/h1,4H,3H2,(H,7,8)/t4-,6+/m0/s1
