21
gdb 92354	2.80706	1.47804	1.3142	0.5092	76.66	-0.2395	0.0777	0.3171	1063.7355	0.186035	-424.246595	-424.239003	-424.238059	-424.278249	31.241	
O	-0.1377715714	 1.5184795364	-0.1256343695	-0.443308
C	 0.0281902361	 0.1082619702	-0.0259373477	 0.139136
C	-1.3756965922	-0.4970490972	 0.1243359833	-0.21098
C	-1.3719630369	-2.0252520099	-0.0759133638	-0.043482
C	-0.274272063	-2.7176416054	 0.7505464521	-0.079094
O	 0.9334825859	-2.5898348991	-0.0155558015	-0.281805
C	 0.6128642453	-2.0035443989	-1.290138672	 0.105982
C	-0.8658459639	-2.3476785579	-1.4928791268	-0.222034
C	 0.7922327368	-0.477622552	-1.2297654112	-0.245173
H	 0.7371979364	 1.9195920267	-0.133654492	 0.278268
H	 0.6043568047	-0.1337648305	 0.8791341857	 0.079442
H	-1.7737935078	-0.2303277029	 1.1093643573	 0.099649
H	-2.033745868	-0.0315873091	-0.6193072294	 0.104366
H	-2.3601390636	-2.4414696493	 0.1360425822	 0.069391
H	-0.1269206085	-2.2603782649	 1.7365649045	 0.098403
H	-0.497460826	-3.7832765161	 0.8989749087	 0.093357
H	 1.278629601	-2.4528005371	-2.0325595643	 0.072951
H	-0.9881422433	-3.4092309792	-1.7298712548	 0.097805
H	-1.3475887969	-1.7546792033	-2.2740567095	 0.099169
H	 0.4148439949	-0.0240395811	-2.1543217149	 0.099166
H	 1.8559789704	-0.2227419395	-1.1499023164	 0.088792
138.8492	189.2698	276.8992	327.6915	338.3953	350.3236	411.7195	467.7274	487.3816	550.4767	747.7834	764.0464	834.1128	837.8735	870.6958	897.904	918.4654	942.1445	962.9228	994.6109	1022.6617	1040.0874	1056.9901	1089.5544	1110.0747	1115.5456	1140.1551	1177.7581	1203.1267	1226.1463	1261.0294	1297.6171	1303.877	1313.956	1324.9431	1344.1152	1354.4275	1368.6727	1391.6681	1397.122	1445.8536	1483.5227	1487.0391	1502.5169	1529.2014	2985.6818	3001.7749	3024.8704	3034.5653	3046.1798	3050.5374	3068.7816	3070.593	3076.846	3080.3198	3108.6947	3814.0142
OC1CC2COC(C2)C1	O[C@H]1C[C@@H]2CO[C@@H](C2)C1	
InChI=1S/C7H12O2/c8-6-1-5-2-7(3-6)9-4-5/h5-8H,1-4H2	InChI=1S/C7H12O2/c8-6-1-5-2-7(3-6)9-4-5/h5-8H,1-4H2/t5-,6-,7-/m0/s1
