18
gdb 87493	2.95149	1.40764	1.14364	2.1155	72.47	-0.2459	0.0519	0.2979	1108.5387	0.146918	-438.976138	-438.968089	-438.967145	-439.008521	31.584	
C	-0.0001173352	 1.5383752885	-0.069417936	-0.392968
C	 0.0096014325	 0.0349392876	 0.0474361215	-0.136905
N	 1.3425024044	-0.640103461	-0.108125097	-0.428802
C	 0.633171678	-0.6680229818	 1.1671679497	 0.424548
C	 1.1481573294	-0.2855969858	 2.5693403003	-0.092376
O	-0.1126341655	-0.8265535506	 3.1195373183	-0.29764
C	 0.285381359	-1.8272635991	 2.1081824192	-0.115956
C	 1.7447075345	-1.7211823055	 2.6923278242	 0.158376
O	 2.8736972481	-2.1065227849	 1.9829758703	-0.437826
H	 0.8853560493	 1.9668654131	 0.4070077655	 0.126323
H	-0.0033829734	 1.8472366175	-1.1196825696	 0.124699
H	-0.8903422067	 1.954954463	 0.4129796598	 0.12872
H	-0.8277998827	-0.4717149435	-0.4299180655	 0.097652
H	 1.2193160851	-1.5254740001	-0.5962088186	 0.238419
H	 1.5076482235	 0.6673735559	 2.9563158576	 0.100231
H	-0.3646242664	-2.6899474358	 1.9582876407	 0.096064
H	 1.8156618877	-2.0844372576	 3.71854899	 0.104778
H	 2.9011685084	-1.5993304196	 1.1606915897	 0.302663
120.3223	145.4461	193.4891	218.9389	322.1165	371.4816	420.9433	452.9898	505.9789	515.448	620.4892	675.6461	773.5304	814.7556	846.7666	863.9257	894.7668	903.8758	918.5342	1026.232	1038.1115	1049.557	1080.3692	1101.9668	1128.6335	1134.2908	1153.3623	1190.0783	1230.4888	1242.1298	1250.4056	1256.0286	1314.4731	1361.7839	1413.8713	1437.7911	1481.1112	1492.4098	1532.3899	3039.1022	3105.1834	3113.3314	3114.9839	3120.6796	3130.8128	3132.2918	3480.6668	3757.4239
CC1NC11C2OC1C2O	C[C@H]1N[C@]21[C@H]1O[C@@H]2[C@H]1O	
InChI=1S/C6H9NO2/c1-2-6(7-2)4-3(8)5(6)9-4/h2-5,7-8H,1H3	InChI=1S/C6H9NO2/c1-2-6(7-2)4-3(8)5(6)9-4/h2-5,7-8H,1H3/t2-,3-,4-,5+,6+/m1/s1
