14
gdb 25023	4.30276	1.11546	0.94042	3.931	66.63	-0.2265	-0.0058	0.2207	1185.4069	0.100913	-473.808969	-473.801633	-473.800688	-473.841451	27.041	
N	-0.1593524066	 1.247072584	 0.1578358402	-0.575018
C	-0.0391941902	 0.0031631438	 0.0574289916	 0.500425
O	 1.0852788056	-0.7268425463	-0.2627406527	-0.21655
C	 0.713099446	-2.0560196258	-0.2489329157	-0.154334
C	-0.5764963283	-2.1469749411	 0.0720391932	 0.346715
O	-1.0687766234	-0.8680796073	 0.2675586161	-0.226505
C	-1.4769509823	-3.2865071697	 0.2510921172	-0.060264
C	-2.7381851719	-3.1760946645	 1.0024598831	-0.177062
O	-2.74121494	-3.2337522044	-0.4223073772	-0.222924
H	 0.722396279	 1.7123070908	-0.0394743342	 0.2399
H	 1.4682453103	-2.7856543627	-0.4811918653	 0.168011
H	-0.9739120911	-4.2511666854	 0.2029038301	 0.109859
H	-3.1262379886	-4.0566767349	 1.512182808	 0.124516
H	-3.0163984986	-2.2156812065	 1.4300364957	 0.143229
81.8199	124.9922	152.6818	232.9114	396.8858	430.8595	499.1888	625.088	667.0399	728.0925	757.7712	762.9353	777.3012	840.6286	897.2316	908.598	978.2247	1007.5115	1018.9512	1091.6166	1107.3844	1161.968	1163.6279	1203.9756	1264.4587	1291.3045	1359.1955	1427.0149	1519.7754	1732.6949	1817.6495	3093.1678	3127.6657	3190.2975	3303.6737	3551.7101
N=C1OC=C(O1)C1CO1	[NH][C@H]1OC=C(O1)[C@H]1CO1	
InChI=1S/C5H5NO3/c6-5-8-2-4(9-5)3-1-7-3/h2-3,6H,1H2	InChI=1S/C5H6NO3/c6-5-8-2-4(9-5)3-1-7-3/h2-3,5-6H,1H2/t3-,5+/m1/s1
