20
gdb 65779	2.80307	1.20111	1.07239	3.179	76.85	-0.2576	0.0289	0.2865	1231.4636	0.170802	-440.304647	-440.295531	-440.294587	-440.339106	33.692	
C	-0.1389030592	 1.7482911878	-0.0403823771	-0.440347
C	 0.0814523687	 0.2436600704	-0.0423545528	 0.470285
C	 0.8187729828	-0.3256280186	-1.2788731022	-0.286308
C	 1.942119629	-1.203970847	-0.6824743517	-0.215144
C	 1.5228051706	-1.336209652	 0.786113651	-0.096207
O	 0.8557175605	-0.1035710952	 1.0773913264	-0.265135
O	-1.1940193987	-0.4474694331	-0.0165530954	-0.24125
C	-1.9143712632	-0.3882139782	 1.1232649218	 0.107
N	-3.0950008486	-0.8405520581	 1.1367543489	-0.447667
H	 0.819694889	 2.2649620539	-0.1297344787	 0.126923
H	-0.7805303396	 2.0308091816	-0.87835335	 0.13741
H	-0.6168235524	 2.0690498107	 0.8890257004	 0.127184
H	 0.1114518155	-0.9003397382	-1.8776973339	 0.134512
H	 1.2153405164	 0.479210413	-1.900902413	 0.110626
H	 2.0349371834	-2.1719633084	-1.1793765668	 0.112178
H	 2.908078008	-0.6962115222	-0.7519718069	 0.111596
H	 0.8384955959	-2.1824436198	 0.9332001697	 0.111769
H	 2.3554422125	-1.4309862103	 1.4861130129	 0.111847
H	-1.367525071	 0.0368035973	 1.9705967872	 0.107008
H	-3.4839056396	-0.7449413638	 2.0732330102	 0.22372
46.2842	91.1114	154.2685	179.5956	225.9133	247.2626	324.7458	360.942	399.2816	504.1444	573.4918	632.6794	693.9731	802.529	831.7968	845.6671	888.1087	914.0073	920.1207	935.6882	1009.4291	1042.4577	1059.3246	1061.1233	1091.8272	1145.8027	1180.722	1211.7034	1224.7469	1267.1417	1271.7332	1299.7917	1323.948	1346.6081	1390.758	1411.0847	1419.0286	1483.0319	1485.2754	1490.3799	1501.007	1519.1388	1735.2766	3018.3301	3052.6964	3063.8258	3078.1589	3083.5851	3106.8782	3116.0627	3128.6991	3136.9194	3139.1849	3506.1766
CC1(CCCO1)OC=N	C[C@]1(CCCO1)O[CH][NH]	
InChI=1S/C6H11NO2/c1-6(9-5-7)3-2-4-8-6/h5,7H,2-4H2,1H3	InChI=1S/C6H11NO2/c1-6(9-5-7)3-2-4-8-6/h5,7H,2-4H2,1H3/t6-/m1/s1
