21
gdb 113359	2.68213	0.99946	0.84319	2.6582	81.06	-0.2522	-0.0334	0.2188	1474.7187	0.179239	-424.230254	-424.219845	-424.218901	-424.266218	37.082	
C	 0.5815041533	 1.3404150407	 0.2966658989	-0.380242
C	-0.1585266992	 0.1330218068	-0.2947274437	-0.221156
C	 0.6834956356	-0.5799373133	-1.3257746937	 0.022749
O	 1.7060131075	-1.4575580914	-0.8685066615	-0.290681
C	 0.6146727555	-2.0383675651	-1.6152084393	 0.275412
C	-0.2956498578	-3.0203925971	-0.9135322404	-0.27628
C	 0.4568517886	-4.274477715	-0.4476705745	-0.384455
C	 1.0404972136	-2.4029449225	-3.0100937169	 0.129699
O	 0.5098411543	-3.2432447704	-3.6906983717	-0.260366
H	 1.509202446	 1.0245567567	 0.7829885073	 0.136259
H	 0.8393432384	 2.0686624611	-0.4796796879	 0.119621
H	-0.0372226402	 1.8496941991	 1.0408584597	 0.119713
H	-0.4306305358	-0.5596717368	 0.5056608511	 0.114145
H	-1.0904709506	 0.4599828153	-0.7730306363	 0.109863
H	 1.0080377956	 0.0647200034	-2.1488354139	 0.088917
H	-0.7835839734	-2.5416867808	-0.0614890138	 0.103768
H	-1.079485742	-3.3006850685	-1.6250135518	 0.125191
H	-0.2202222897	-4.9580816724	 0.0721282638	 0.115154
H	 0.889264765	-4.8114995778	-1.2966007919	 0.134906
H	 1.2660226907	-4.0063529485	 0.2378338834	 0.130317
H	 1.9124810646	-1.8105368534	-3.3679721268	 0.087464
59.8769	73.2693	101.7969	147.3813	188.7013	216.486	228.2104	275.1838	301.2296	316.7925	396.2561	489.6422	544.8799	591.9451	725.1788	759.9244	795.6353	829.6975	895.768	934.8936	992.682	1014.0302	1036.7123	1050.5504	1101.2263	1105.8644	1149.139	1164.8408	1251.4299	1292.5739	1317.1999	1323.218	1346.5847	1371.7896	1406.7916	1409.9419	1416.6293	1467.7528	1471.4722	1478.7404	1499.3714	1500.7794	1507.2958	1510.2389	1823.7887	2887.3738	3035.2476	3038.6339	3045.2997	3056.8546	3059.7333	3091.3968	3101.8396	3113.7802	3117.5711	3118.9662	3126.8948
CCC1OC1(CC)C=O	CC[C@H]1O[C@]1(CC)C=O	
InChI=1S/C7H12O2/c1-3-6-7(4-2,5-8)9-6/h5-6H,3-4H2,1-2H3	InChI=1S/C7H12O2/c1-3-6-7(4-2,5-8)9-6/h5-6H,3-4H2,1-2H3/t6-,7-/m1/s1
