21
gdb 90867	3.28158	1.49905	1.27613	1.3678	81.1	-0.2358	0.0829	0.3187	1072.2494	0.184809	-387.072448	-387.064929	-387.063985	-387.104041	31.114	
C	-0.8113907412	 1.3140459685	 0.1283880593	-0.3957
C	 0.046779668	 0.0639170225	 0.0035908429	 0.164587
C	 0.7446277005	-0.0662063525	-1.360651974	-0.256824
C	 1.6622817055	-1.2865472755	-1.3651271375	-0.040294
C	 3.1015017872	-1.2508786942	-0.9103118842	-0.066426
C	 3.3107080031	-0.1357242707	 0.1111121515	-0.259927
C	 2.1199692408	-0.7244416827	 0.9511633285	 0.117126
O	 0.9743954918	 0.094101897	 1.0900427467	-0.289299
C	 2.0282097275	-1.8991018239	-0.0361747772	-0.11247
H	-0.2037790834	 2.2126260425	-0.0184826955	 0.117448
H	-1.612699262	 1.3079252716	-0.6172563491	 0.108225
H	-1.2621347672	 1.3673802907	 1.1231241266	 0.122684
H	-0.594251073	-0.8260958234	 0.1217177138	 0.065047
H	-0.0256847061	-0.1721713663	-2.1314261411	 0.09775
H	 1.2922053723	 0.8561793119	-1.5896879508	 0.102174
H	 1.480707852	-2.0141354421	-2.1502492688	 0.08528
H	 3.8799299624	-1.7417729067	-1.4815367707	 0.082802
H	 4.2578306272	-0.2271354183	 0.6487330299	 0.099958
H	 3.1959778569	 0.8976825258	-0.2296302403	 0.094765
H	 2.422668324	-1.0021300991	 1.9628195979	 0.082688
H	 1.8579807136	-2.9394635049	 0.2111695022	 0.080406
113.2992	210.9453	235.6609	300.7782	357.0623	418.5601	444.9233	469.3612	541.1604	676.6381	730.7261	760.4025	792.0405	823.2196	858.6675	901.3566	930.43	941.2934	963.6627	978.8282	1007.5647	1009.9891	1055.7269	1069.8287	1092.2388	1125.295	1136.5197	1155.0659	1160.8807	1164.9571	1218.8719	1249.4803	1255.3938	1299.7976	1312.1341	1335.7122	1371.6627	1384.2518	1396.9401	1410.3421	1420.1504	1472.3122	1483.6487	1493.8134	1499.4934	2953.0236	3028.5683	3039.2779	3050.2651	3075.5774	3082.9252	3105.865	3111.6602	3118.5872	3154.2839	3179.0283	3191.7623
CC1CC2C3CC(O1)C23	C[C@H]1C[C@H]2[C@H]3C[C@@H](O1)[C@@H]23	
InChI=1S/C8H12O/c1-4-2-5-6-3-7(9-4)8(5)6/h4-8H,2-3H2,1H3	InChI=1S/C8H12O/c1-4-2-5-6-3-7(9-4)8(5)6/h4-8H,2-3H2,1H3/t4-,5-,6+,7+,8-/m0/s1
