13
gdb 130872	2.23477	1.61984	0.93913	2.4449	75.74	-0.2518	-0.0523	0.1996	1138.897	0.08985	-415.608651	-415.601023	-415.600078	-415.641065	27.913	
O	-0.0697242049	-0.0272013796	-0.0001901284	-0.281021
C	-0.0156066193	 1.1840753953	 0.0085917241	 0.046286
C	 1.2289750911	 1.9476904851	 0.0001649316	 0.016833
C	 2.516674409	 1.4368733327	-0.0184534282	-0.082305
N	 3.3417520226	 2.4983985309	-0.0198724453	-0.18701
N	 2.7072029961	 3.6883137238	-0.0035940637	-0.292296
C	 1.4105472683	 3.3656461143	 0.0089762156	 0.163957
C	 0.3978721799	 4.3566777849	 0.0282153325	 0.277242
C	-0.4891744041	 5.1692219787	 0.0442724039	-0.41346
H	-0.9356827331	 1.8043245463	 0.0237504064	 0.085155
H	 2.868400365	 0.4180154426	-0.0302366778	 0.174837
H	 4.3489697399	 2.4950988684	-0.03146252	 0.289467
H	-1.2641112306	 5.8954418267	 0.0573828092	 0.202315
118.9142	142.8493	169.9104	218.3828	270.1999	428.2901	470.8157	576.5467	586.016	608.6593	608.7479	673.5396	678.0643	755.5892	811.2563	843.9455	954.0312	1047.5742	1079.4719	1130.0736	1219.4321	1334.1158	1376.3464	1425.3678	1459.4235	1499.2837	1569.121	1783.3686	2241.1903	2919.5897	3277.5843	3501.3106	3660.6344
O=CC1=CNN=C1C#C	O=Cc1c[nH]nc1C#C	
InChI=1S/C6H4N2O/c1-2-6-5(4-9)3-7-8-6/h1,3-4H,(H,7,8)	InChI=1S/C6H4N2O/c1-2-6-5(4-9)3-7-8-6/h1,3-4H,(H,7,8)
