19
gdb 62429	3.64509	1.20187	1.17291	0.9416	88.24	-0.2219	0.0085	0.2304	1140.0047	0.158796	-348.72204	-348.713671	-348.712727	-348.754403	33.271	
C	-0.0786607579	 1.5628823859	 0.0518756087	-0.469704
C	 0.0279403927	 0.0476062107	-0.0038392398	 0.11516
C	-1.120938603	-0.6324823269	 0.5373148327	 0.259614
C	-2.084206331	-1.1897025977	 0.9961330023	-0.433373
C	 0.706068902	-0.6826704881	-1.1608861791	-0.084062
C	 1.6319919424	 0.0990833531	-2.0959141256	-0.292358
C	 2.7739389701	 0.5252882484	-1.1967225636	-0.077498
C	 2.623470182	 0.0701200524	 0.0505848438	-0.085782
C	 1.3637332378	-0.7069247395	 0.2047963018	-0.109061
H	 0.8495060148	 2.0462153035	-0.2570779968	 0.125632
H	-0.8860104628	 1.9109197406	-0.6006618432	 0.123587
H	-0.3099853677	 1.8885197751	 1.0704382178	 0.125725
H	-2.9346896873	-1.6804090174	 1.3995494942	 0.187392
H	 0.1922268255	-1.5541375013	-1.5469211685	 0.097522
H	 1.9818359769	-0.5354534927	-2.920789858	 0.111923
H	 1.1340754829	 0.958619039	-2.5642793469	 0.114236
H	 3.5890047624	 1.1498471383	-1.5448915139	 0.097206
H	 3.3077002607	 0.2471061012	 0.8723446702	 0.09613
H	 1.3302341796	-1.5749786146	 0.8526878839	 0.097711
134.9373	147.7849	183.8944	235.2143	246.0457	347.4636	405.331	465.0267	526.4369	544.671	580.3441	641.2614	651.5709	700.2387	755.0324	795.6579	840.2456	867.1293	930.9805	945.8905	963.1402	984.7909	1000.7324	1007.658	1069.0668	1088.0012	1104.8931	1131.7708	1177.4027	1208.7519	1282.9168	1295.1975	1310.7776	1367.5018	1387.0614	1412.6071	1473.2722	1494.695	1500.7791	1662.6277	2228.2131	3016.3071	3040.081	3042.5171	3103.162	3134.9637	3176.643	3187.34	3189.4193	3212.295	3503.7933
CC1(C#C)C2CC=CC12	C[C@@]1(C#C)[C@H]2CC=C[C@@H]12	
InChI=1S/C9H10/c1-3-9(2)7-5-4-6-8(7)9/h1,4-5,7-8H,6H2,2H3	InChI=1S/C9H10/c1-3-9(2)7-5-4-6-8(7)9/h1,4-5,7-8H,6H2,2H3/t7-,8+,9+/m1/s1
