17
gdb 23184	2.31079	1.61645	1.04458	1.5585	72.37	-0.2374	-0.0111	0.2263	1125.0687	0.136418	-455.073267	-455.065087	-455.064143	-455.106197	30.686	
O	-0.1270249639	 1.2862638378	 0.1653847589	-0.392429
N	 0.0117159502	-0.1112530413	 0.1634561115	-0.242942
C	-1.1062537402	-0.6829351088	-0.0299426727	 0.304276
C	-2.4807392379	-0.0854158271	-0.2056352214	-0.162206
O	-3.33030002	-1.1826707776	-0.5157075901	-0.25633
C	-2.7678412736	-2.3620334333	 0.0539574753	-0.161831
C	-1.2609654378	-2.1635294131	-0.0481485731	 0.254234
C	-0.3270457358	-3.0314011992	-0.8192989796	-0.272387
N	-0.3385400486	-3.0553000129	 0.6499460711	-0.3641
H	 0.7748010721	 1.5865312248	 0.3213484454	 0.310398
H	-2.7903882418	 0.4266775819	 0.7202395633	 0.121623
H	-2.5239461004	 0.6435573321	-1.0202080018	 0.140036
H	-3.0607582059	-2.476717033	 1.1097610262	 0.104863
H	-3.1408346655	-3.2206418102	-0.5086473555	 0.119807
H	-0.7064090282	-3.9312474261	-1.2969263075	 0.123501
H	 0.4985841622	-2.5413432273	-1.3276813309	 0.128051
H	 0.4385298352	-2.5014450366	 1.0077436308	 0.245437
81.0989	166.2099	174.57	196.1653	298.349	318.3761	358.359	439.0973	503.0529	540.746	577.4061	661.9149	775.6351	844.1723	904.0642	946.1221	954.0439	988.9913	996.0168	1021.0286	1072.621	1082.295	1106.7994	1120.7905	1175.9266	1200.0603	1241.3308	1279.8272	1311.955	1325.9189	1366.9924	1395.0638	1435.1166	1488.4716	1503.6647	1515.3694	1764.1347	2974.6263	2982.8871	3082.7489	3103.0847	3105.8706	3199.8688	3481.4326	3818.1222
ON=C1COCC11CN1	ON=C1COC[C@]21CN2	
InChI=1S/C5H8N2O2/c8-7-4-1-9-3-5(4)2-6-5/h6,8H,1-3H2	InChI=1S/C5H8N2O2/c8-7-4-1-9-3-5(4)2-6-5/h6,8H,1-3H2/t5-/m0/s1
