15
gdb 27337	3.32234	1.41352	0.99385	6.9357	73.55	-0.1938	-0.0042	0.1896	1116.2213	0.11552	-450.194511	-450.186557	-450.185613	-450.226553	31.099	
N	 0.0062922452	 1.3678057781	 0.1173657504	-0.572845
C	 0.0046388924	-0.0148620967	 0.0399349778	 0.458474
N	-1.1279354343	-0.655705834	 0.0390953168	-0.38327
C	-1.1351173507	-2.0376174686	 0.0497037968	 0.355945
O	-2.1676975599	-2.6944897501	 0.0384041358	-0.395721
C	 0.1778292109	-2.7448228818	 0.0431386961	 0.179182
N	 0.090132748	-4.1218361378	 0.0975600479	-0.584271
C	 1.311390705	-2.0113235646	 0.0199649163	-0.116413
N	 1.2194772385	-0.6190632331	 0.0129885829	-0.345796
H	 0.705672886	 1.8467346911	-0.4326630323	 0.250553
H	-0.9234267894	 1.7376761589	-0.0246728062	 0.271708
H	-0.8567400135	-4.4197220228	-0.1099245975	 0.26421
H	 0.8088810833	-4.6507004322	-0.3717597121	 0.241844
H	 2.313985616	-2.4178143403	 0.0031715749	 0.114631
H	 2.0543313424	-0.0718487962	 0.1427269524	 0.261768
106.7169	198.6434	312.801	320.7947	331.0052	363.2787	377.3593	417.8037	462.0915	485.6028	554.4722	598.7144	626.3422	653.5161	744.7938	757.3135	803.0119	814.2738	826.4739	983.0257	1091.0872	1143.2301	1203.4194	1260.0984	1308.7207	1373.3511	1421.6805	1569.5271	1596.4709	1612.8222	1657.9269	1716.791	1745.6211	3213.1563	3526.2369	3558.1876	3647.7744	3658.3408	3664.9123
NC1=NC(=O)C(N)=CN1	Nc1nc(=O)c(N)c[nH]1	
InChI=1S/C4H6N4O/c5-2-1-7-4(6)8-3(2)9/h1H,5H2,(H3,6,7,8,9)	InChI=1S/C4H6N4O/c5-2-1-7-4(6)8-3(2)9/h1H,5H2,(H3,6,7,8,9)
