23
gdb 90769	2.93631	1.27807	1.04091	1.5846	85.14	-0.2384	0.0808	0.3192	1268.4812	0.206837	-388.299502	-388.290605	-388.289661	-388.333259	34.602	
C	 0.1984959941	 1.5183191981	-0.356314132	-0.406867
C	 0.0527782381	 0.0675934238	 0.0529319977	 0.151362
O	 0.8406062609	-0.8292948785	-0.7699618224	-0.318497
C	 1.3152350765	-1.5496849342	 0.3938656577	 0.135635
C	 0.697762998	-0.499476374	 1.3478777755	-0.097436
C	 1.8971095627	 0.2125868378	 2.0072338573	-0.246261
C	 3.0251157989	-0.8374555629	 1.9516150149	-0.204775
C	 2.8468590132	-1.5369410443	 0.5850255189	 0.029676
C	 3.5177231741	-2.9067437514	 0.4846171712	-0.418324
H	 1.2425554932	 1.8412367089	-0.3460647973	 0.122159
H	-0.1822671228	 1.6534217189	-1.3738600773	 0.126456
H	-0.3785412638	 2.1675730339	 0.311345831	 0.114371
H	-1.0089625037	-0.2166350431	-0.0022912904	 0.068467
H	 0.8934998229	-2.5627292278	 0.4264983136	 0.062803
H	-0.0174924558	-0.8652151886	 2.0867454133	 0.068783
H	 2.193456706	 1.0996495266	 1.438573834	 0.102008
H	 1.679526041	 0.5466178864	 3.0253444593	 0.096172
H	 4.0222268119	-0.4049757399	 2.0802875275	 0.094928
H	 2.8888809205	-1.5728247122	 2.756446545	 0.09327
H	 3.2447148086	-0.8817667603	-0.1993915072	 0.083385
H	 3.1112492131	-3.5994432936	 1.231134904	 0.110746
H	 3.3653290616	-3.3531914039	-0.5034332787	 0.119996
H	 4.5971405207	-2.8351549997	 0.6548863244	 0.111942
44.8327	136.0319	196.8229	222.7656	246.9625	285.9571	311.8922	363.9715	452.862	510.553	532.9618	599.1358	757.8073	799.0415	820.8032	851.6532	891.4275	904.1278	940.5422	961.2578	973.1507	1008.0577	1024.724	1057.2891	1084.7123	1102.2804	1136.1954	1159.2511	1164.6967	1178.2466	1205.5818	1236.9162	1263.6919	1297.6841	1307.2678	1323.4277	1323.9518	1345.3609	1358.3344	1378.7287	1398.3319	1410.6259	1416.8979	1477.3874	1488.3138	1496.1662	1496.2115	1500.6691	1505.0777	2980.3587	3013.54	3015.6002	3025.6312	3035.8311	3037.1683	3053.2764	3078.3244	3084.7514	3091.8688	3099.3971	3101.1846	3104.2332	3119.1729
CC1OC2C1CCC2C	C[C@H]1O[C@@H]2[C@H]1CC[C@H]2C	
InChI=1S/C8H14O/c1-5-3-4-7-6(2)9-8(5)7/h5-8H,3-4H2,1-2H3	InChI=1S/C8H14O/c1-5-3-4-7-6(2)9-8(5)7/h5-8H,3-4H2,1-2H3/t5-,6-,7+,8+/m1/s1
