17
gdb 19210	2.67524	2.60508	2.58577	1.8754	62.2	-0.2216	0.0674	0.289	711.1142	0.146539	-400.991599	-400.985423	-400.984479	-401.021921	24.565	
C	-0.0143435378	 1.5348240526	 0.0623108693	-0.192973
N	 1.3786099988	 2.0421898988	 0.0052884302	-0.298078
C	 2.3016112792	 0.8990250301	-0.0245281715	-0.066351
C	 2.0257796852	 0.0667625093	 1.2302613911	-0.050625
O	 0.7140062901	-0.5071194878	 1.1247381203	-0.26935
C	 0.0319811991	 0.0028501723	-0.0012423962	 0.200312
O	 0.6519454921	-0.4077460163	-1.204566948	-0.267474
C	 2.0242779253	 0.006370834	-1.2435622216	-0.061973
H	-0.5006048697	 1.8441783182	 0.9963721221	 0.108826
H	-0.6134912553	 1.9140565764	-0.7717966637	 0.105505
H	 1.5079658742	 2.5987295629	-0.8321435895	 0.219653
H	 3.3348215495	 1.2580389676	-0.0268754715	 0.078436
H	 2.7495681728	-0.7512509481	 1.3251183	 0.104805
H	 2.0832373178	 0.6984014533	 2.12548714	 0.107747
H	-0.9620723636	-0.4473527469	 0.0048241832	 0.089643
H	 2.1987281787	 0.5558855209	-2.178575151	 0.09242
H	 2.6707767736	-0.8833890274	-1.246770813	 0.099476
86.221	306.1075	323.1415	408.1795	429.2674	542.581	597.3748	711.7797	776.746	839.5921	854.8208	869.6058	916.7679	947.771	949.2697	982.9786	1050.965	1069.1617	1086.2414	1112.4075	1141.3666	1172.6166	1218.6481	1228.1829	1257.4293	1304.8422	1323.9567	1343.1941	1354.8214	1395.9529	1405.3998	1411.5257	1465.5546	1504.9161	1511.2959	1525.1828	2990.7049	3017.3858	3018.9325	3028.4547	3061.696	3070.8032	3072.4703	3108.4432	3528.6427
C1NC2COC1OC2	C1N[C@H]2CO[C@@H]1OC2	
InChI=1S/C5H9NO2/c1-5-7-2-4(6-1)3-8-5/h4-6H,1-3H2	InChI=1S/C5H9NO2/c1-5-7-2-4(6-1)3-8-5/h4-6H,1-3H2/t4-,5+
