18
gdb 40638	3.49188	1.22931	1.19054	2.5604	77.03	-0.2203	0.0053	0.2257	1110.8145	0.148675	-401.894104	-401.886641	-401.885696	-401.926655	28.907	
C	-1.1376429623	 0.2322514675	-1.2608286779	-0.18662
O	-0.091461264	 0.8997671793	-0.5614650397	-0.240808
C	-0.1362999059	-0.5379996226	-0.5097541992	 0.069119
C	-0.4732244397	-1.1226811946	 0.819924721	-0.020816
C	-0.1202519829	-2.5264619811	 1.2167550942	-0.099166
C	 0.9431252219	-3.2258416128	 0.4405889662	-0.077408
C	 2.1043282626	-2.5823299395	 0.5687771335	-0.086909
C	 1.9419119618	-1.3747025421	 1.4654899217	-0.212768
N	 0.5187177221	-1.3669636118	 1.8828124986	-0.122246
H	-2.1365862436	 0.3628633105	-0.8457307602	 0.114191
H	-1.080117981	 0.271714193	-2.3479819904	 0.114169
H	 0.65488317	-1.022123769	-1.0761204096	 0.101917
H	-1.39405431	-0.7137302739	 1.2332860658	 0.095568
H	-0.8353724005	-3.1107495832	 1.7919061457	 0.094422
H	 0.7657434483	-4.1289544624	-0.1301146389	 0.10352
H	 3.0404564278	-2.8483750021	 0.0914915371	 0.103618
H	 2.5719776255	-1.4415942625	 2.3619212901	 0.116542
H	 2.2027906499	-0.4326042729	 0.9665811219	 0.133676
49.2808	156.569	171.056	310.0653	332.7274	376.9331	538.8425	579.6316	715.2438	740.2847	765.393	778.6679	841.9816	861.7772	869.2101	920.4489	941.4845	953.4606	977.4391	1026.4404	1037.9921	1074.8448	1098.184	1104.6533	1124.7027	1156.4579	1166.7139	1182.7451	1206.0295	1283.5696	1289.293	1312.3385	1327.6297	1350.1127	1371.5613	1466.6875	1492.0162	1528.9274	1665.6229	3016.4899	3047.575	3078.7826	3113.3102	3128.9727	3146.112	3166.0883	3195.0191	3221.2216
C1OC1C1C2C=CCN12	C1O[C@H]1[C@H]1[C@H]2C=CCN12	
InChI=1S/C7H9NO/c1-2-5-7(6-4-9-6)8(5)3-1/h1-2,5-7H,3-4H2	InChI=1S/C7H9NO/c1-2-5-7(6-4-9-6)8(5)3-1/h1-2,5-7H,3-4H2/t5-,6-,7-,8?/m1/s1
