15
gdb 5771	6.07745	1.49118	1.30274	2.8484	67.79	-0.2106	0.0312	0.2418	923.5056	0.122468	-358.855563	-358.849028	-358.848084	-358.886564	24.724	
C	 1.0091291314	 1.0474214811	 0.0389080112	-0.226122
N	 0.3072913328	 0.0410293747	-0.7693248501	-0.332629
C	-0.3717236186	 0.6133957916	 0.4075149109	-0.131295
C	-0.6273411131	-0.339905162	 1.5044056059	 0.392049
N	-1.3111866073	-0.1114824847	 2.6059352736	-0.325515
C	-1.2524292119	-1.288570487	 3.3175874285	-0.092248
C	-0.5285844208	-2.2319176835	 2.6361622488	-0.112656
N	-0.130501579	-1.6082248077	 1.4756088235	-0.269823
H	 1.8551731724	 0.6700666236	 0.6054563478	 0.125893
H	 1.1349174942	 2.0492937439	-0.3626137858	 0.121325
H	-0.0518366432	 0.4507675282	-1.6261763146	 0.242133
H	-1.164654822	 1.3404602569	 0.258488883	 0.109633
H	-1.7360831344	-1.3892420095	 4.2773906462	 0.102924
H	-0.2708629122	-3.2547436165	 2.8542774109	 0.123589
H	 0.3685053416	-1.9950708092	 0.6905426703	 0.272742
87.5254	159.8334	196.7222	387.5371	464.3827	607.7275	657.6661	667.2069	725.3317	745.0741	854.1776	859.1149	895.975	912.7885	933.5766	972.2245	998.5783	1083.4228	1090.5507	1118.0293	1135.5148	1165.5477	1180.4874	1230.6278	1275.8125	1293.1228	1371.1381	1415.7031	1471.3338	1506.1091	1518.0331	1598.1454	3112.6376	3157.766	3203.2848	3247.1622	3280.9842	3521.9922	3654.4625
C1NC1C1=NC=CN1	C1N[C@H]1c1ncc[nH]1	
InChI=1S/C5H7N3/c1-2-7-5(6-1)4-3-8-4/h1-2,4,8H,3H2,(H,6,7)	InChI=1S/C5H7N3/c1-2-7-5(6-1)4-3-8-4/h1-2,4,8H,3H2,(H,6,7)/t4-/m1/s1
