17
gdb 128770	3.42669	1.03181	0.80591	5.0851	72.52	-0.2078	0.0089	0.2167	1387.986	0.13682	-451.307598	-451.298491	-451.297547	-451.342738	31.791	
C	-0.141689266	 1.3609886928	-0.0520009185	-0.228139
O	-0.1789775104	-0.037878802	 0.1275344707	-0.247689
C	 0.812417298	-0.5056795708	 1.0196978451	-0.180764
C	 0.7412845267	-1.993872128	 1.0494089189	 0.283853
C	 1.1852537644	-2.9638985557	 1.9261553079	 0.206983
N	 1.8940687462	-2.8261926989	 3.1232080695	-0.599301
N	 0.8938937942	-4.187994345	 1.4069154073	-0.253898
N	 0.2923430657	-4.0358426578	 0.2539964983	-0.128325
N	 0.2024832396	-2.7218256065	 0.0359745712	-0.215142
H	 0.8259245237	 1.6925065853	-0.4585615078	 0.113508
H	-0.9327275715	 1.6181378323	-0.7595187679	 0.135579
H	-0.3212010804	 1.8947529181	 0.8935171926	 0.112938
H	 1.8101452655	-0.1646332881	 0.6896209863	 0.115696
H	 0.6604588448	-0.0925898804	 2.0316690933	 0.10279
H	 1.4799808205	-2.1541956953	 3.7581005364	 0.24327
H	 1.9649288337	-3.7254980711	 3.5848850234	 0.254763
H	-0.2757300749	-2.361871319	-0.7746553266	 0.283879
32.0623	81.6885	122.9982	192.685	225.8658	250.9345	280.7136	336.3233	353.3783	495.7076	592.4604	673.1047	697.0614	736.8807	794.8294	823.302	985.7637	1014.8823	1039.6708	1102.2721	1117.9042	1155.2586	1182.8708	1212.368	1232.1705	1241.7077	1264.526	1358.8894	1376.7823	1424.7119	1480.8864	1486.2302	1502.8326	1523.7309	1530.8207	1640.9039	1655.4972	2939.7782	2962.8808	2981.1111	3028.9123	3124.6516	3522.9167	3614.0402	3661.9318
COCC1=C(N)N=NN1	COCc1c(N)nn[nH]1	
InChI=1S/C4H8N4O/c1-9-2-3-4(5)7-8-6-3/h2H2,1H3,(H3,5,6,7,8)	InChI=1S/C4H8N4O/c1-9-2-3-4(5)7-8-6-3/h2H2,1H3,(H3,5,6,7,8)
