14
gdb 28542	3.19634	1.44735	0.99714	2.4671	70.77	-0.195	-0.0276	0.1674	1092.4225	0.102907	-470.075871	-470.068356	-470.067412	-470.107481	29.62	
N	-0.0463016996	 1.4148780415	-0.0785594007	-0.571262
C	-0.0376064971	 0.0288799014	-0.0342097017	 0.285982
N	-1.1798521821	-0.6349732523	 0.0557279864	-0.30078
C	-1.1491945995	-1.9737761938	 0.0262666401	-0.114029
C	 0.0538200866	-2.656104405	-0.083820272	 0.381938
O	 0.0781564848	-4.0090049871	-0.1116788714	-0.425224
N	 1.2195871053	-2.003939446	-0.1587850411	-0.430089
C	 1.1764594115	-0.6888476366	-0.1366688322	 0.373087
O	 2.3303904782	 0.0159788722	-0.2001609838	-0.427531
H	 0.7977180173	 1.8568535564	 0.2539294791	 0.259276
H	-0.8942068313	 1.8178954839	 0.2936114226	 0.254086
H	-2.0897446572	-2.508065579	 0.0974117503	 0.117528
H	 1.0053466287	-4.267414995	-0.1881999905	 0.296637
H	 3.0500068344	-0.6274585606	-0.2499266453	 0.300383
131.1438	249.0036	294.1941	337.2931	360.4785	396.5389	431.2705	455.8165	509.0885	522.963	537.9898	597.461	610.9104	684.4229	738.8888	800.408	825.213	891.6725	1027.3037	1078.0418	1174.0223	1197.7977	1298.4487	1307.7521	1354.8108	1413.6862	1498.0538	1525.9144	1601.2623	1635.8811	1672.8825	3193.7803	3566.2172	3679.8228	3777.7843	3792.6766
NC1=NC=C(O)N=C1O	Nc1ncc(O)nc1O	
InChI=1S/C4H5N3O2/c5-3-4(9)7-2(8)1-6-3/h1H,(H2,5,6)(H2,7,8,9)	InChI=1S/C4H5N3O2/c5-3-4(9)7-2(8)1-6-3/h1H,(H2,5,6)(H2,7,8,9)
