19
gdb 8211	2.7156	2.37248	1.59456	3.0855	71.44	-0.2302	0.0711	0.3013	880.7949	0.165652	-365.051274	-365.043277	-365.042332	-365.083017	30.559	
C	-0.1059544384	 1.5191185653	 0.0115759705	-0.498379
C	 0.1022896088	 0.0290209401	 0.0061937048	 0.25638
C	 0.4526260691	-0.6654006014	-1.2992808518	-0.105753
O	 0.9477412194	-1.9504236173	-0.9498055116	-0.25319
C	 1.4640873944	-1.912862164	 0.3732713054	-0.105753
C	 0.7514832348	-0.7716452722	 1.0796988863	 0.25638
C	 1.318476128	-0.2376654202	 2.3670101003	-0.498379
N	-0.7143261603	-0.8642878669	 0.865403346	-0.398102
H	 0.7351261592	 2.0380095613	-0.4612365089	 0.125702
H	-1.0135609843	 1.7876464017	-0.5413775812	 0.130628
H	-0.2129032641	 1.9083850418	 1.0287424139	 0.11759
H	-0.4105026701	-0.8105646907	-1.9579989359	 0.109017
H	 1.2112791327	-0.0732931706	-1.8393715425	 0.081423
H	 1.2758146762	-2.8903444522	 0.8304967956	 0.109017
H	 2.551807052	-1.7266018101	 0.3773249492	 0.081423
H	 2.3805528461	 0.0086677186	 2.2596364705	 0.125702
H	 0.7948383716	 0.6655091893	 2.6951459791	 0.11759
H	 1.2302663386	-0.9797168413	 3.1690033778	 0.130628
H	-1.1764287337	-0.2920207813	 1.5716789126	 0.218074
165.8791	179.6292	203.0748	204.364	232.034	329.4447	337.9155	457.4709	465.0665	549.017	639.1075	690.9126	761.1199	871.6537	923.068	953.0205	970.5004	992.9742	993.0382	1072.0786	1086.3045	1098.7217	1126.66	1149.8769	1163.2995	1227.3096	1249.642	1302.6387	1309.8944	1376.1124	1392.3383	1417.8814	1424.2477	1457.0668	1479.1864	1492.4279	1494.517	1501.623	1509.2249	1515.7083	2955.5355	2962.7812	3026.012	3029.2406	3062.5776	3065.677	3086.8943	3087.8139	3099.5313	3104.8931	3465.7254
CC12COCC1(C)N2	C[C@@]12COC[C@]1(C)N2	
InChI=1S/C6H11NO/c1-5-3-8-4-6(5,2)7-5/h7H,3-4H2,1-2H3	InChI=1S/C6H11NO/c1-5-3-8-4-6(5,2)7-5/h7H,3-4H2,1-2H3/t5-,6+
