19
gdb 22728	3.02592	1.12817	0.90741	1.4817	80.3	-0.2427	0.0029	0.2456	1303.1957	0.157866	-419.127647	-419.118521	-419.117577	-419.16171	34.296	
C	-0.390755218	 1.3055922011	-0.1025595112	-0.402036
C	-0.0170921268	-0.169569496	-0.0116761576	-0.155481
C	 1.173402345	-0.6619867435	-0.822548296	 0.410907
C	 1.8413584818	-1.3394593887	 0.358896177	-0.391981
C	 0.7491446304	-0.6950245892	 1.2320342879	 0.340422
C	 0.8948863364	-0.0204610317	 2.5382418119	-0.301128
N	 0.1888119589	-1.3161574555	 2.423048801	-0.363787
N	 1.4560745066	-0.4483312225	-2.0370557667	-0.243738
O	 2.6839888431	-1.0443081996	-2.3826881014	-0.391366
H	 0.4773058799	 1.942307759	 0.0914854112	 0.122337
H	-0.7672387953	 1.5432080595	-1.1015944642	 0.134619
H	-1.1723371398	 1.5596663057	 0.6219003439	 0.111287
H	-0.900769309	-0.7934538152	-0.2071998245	 0.095902
H	 1.7926960779	-2.4330076133	 0.3289051436	 0.133849
H	 2.8759718734	-1.041397314	 0.5502168414	 0.129765
H	 1.8413953474	-0.0638291725	 3.0710284042	 0.120801
H	 0.3123060949	 0.8787060328	 2.7232977944	 0.113903
H	-0.8177252026	-1.1677945448	 2.4590817233	 0.229741
H	 2.7755185758	-0.7971343315	-3.3091157581	 0.305984
47.1944	147.1463	180.5505	204.4945	214.4054	279.8628	333.8232	356.3313	382.1103	475.336	481.0657	511.5374	631.6508	728.7979	810.7529	815.2394	879.3631	925.0196	948.7807	971.2017	981.8628	1020.6555	1044.2146	1058.9441	1114.0453	1120.6953	1134.007	1185.0536	1205.7419	1244.1909	1263.9087	1288.9005	1340.4537	1400.3285	1400.6699	1415.3788	1455.5177	1491.1312	1495.1933	1514.9732	1788.3585	3005.6836	3034.3734	3052.0382	3101.3631	3102.7901	3103.3243	3117.4319	3187.3225	3484.0753	3817.6848
CC1C(CC11CN1)=NO	C[C@H]1C(=NO)C[C@]21CN2	
InChI=1S/C6H10N2O/c1-4-5(8-9)2-6(4)3-7-6/h4,7,9H,2-3H2,1H3	InChI=1S/C6H10N2O/c1-4-5(8-9)2-6(4)3-7-6/h4,7,9H,2-3H2,1H3/t4-,6+/m0/s1
