15
gdb 39612	4.31826	1.32447	1.32168	0.2471	64.6	-0.266	0.0022	0.2682	975.2196	0.114949	-453.976684	-453.969938	-453.968994	-454.008199	25.606	
C	 0.2103245024	 1.6907841994	 0.2101010435	-0.252865
N	 1.4948441788	 1.8535706202	-0.4815464607	-0.253796
C	 1.9367077171	 0.6788031074	-0.6405251021	 0.110178
O	 1.2042829081	-0.3800881955	-0.1928727921	-0.237403
C	-0.0424628733	 0.1696054584	 0.2602494493	 0.434682
C	-0.5068286086	-0.5183634822	 1.5608120767	-0.252865
N	-1.6073876386	-1.4055969387	 1.1652699864	-0.253796
C	-1.8156531394	-1.1507654379	-0.0563202823	 0.110178
O	-1.0524336344	-0.213145295	-0.6859654811	-0.237404
H	 0.2729335495	 2.1255697847	 1.2137237317	 0.127206
H	-0.5949015158	 2.1959001695	-0.3289934224	 0.141031
H	 2.8795206496	 0.4081796637	-1.1012281962	 0.148309
H	 0.3136254584	-1.0834441592	 2.0099147486	 0.141031
H	-0.8642109758	 0.2076894821	 2.2992846784	 0.127206
H	-2.574497418	-1.6046234969	-0.6828575878	 0.148309
105.3531	109.9299	267.6093	414.5626	417.3181	429.8405	508.3607	562.6273	767.0764	825.1367	835.7948	889.6795	911.4773	934.1719	954.3134	972.1605	989.5294	997.753	1052.1653	1116.0868	1126.2566	1147.5207	1191.9073	1224.385	1242.8942	1310.8691	1335.1709	1336.8983	1345.3003	1478.0096	1478.0993	1707.3934	1711.6847	3047.2843	3051.6136	3104.0264	3105.6044	3225.3177	3225.6241
C1N=COC11CN=CO1	C1N=CO[C@]21CN=CO2	
InChI=1S/C5H6N2O2/c1-5(8-3-6-1)2-7-4-9-5/h3-4H,1-2H2	InChI=1S/C5H6N2O2/c1-5(8-3-6-1)2-7-4-9-5/h3-4H,1-2H2
