19
gdb 79808	4.02137	1.40307	1.19688	1.2109	80.11	-0.2275	0.0203	0.2478	1054.4631	0.161891	-385.850806	-385.843828	-385.842884	-385.881707	29.299	
O	 0.0323649433	 1.4679332919	-0.0899523386	-0.443219
C	 0.0389077745	 0.064086962	-0.009172071	 0.133465
C	-0.0234658805	-0.6408794935	 1.3778610751	-0.119763
C	-1.4891676792	-0.1014223712	 1.5131567533	 0.01884
C	-2.4546608523	-0.8268486756	 2.4469554055	-0.31327
C	-2.347302603	-2.3198097723	 2.3017227954	-0.064899
C	-1.4720439043	-2.8103991308	 1.4269795466	-0.086157
C	-0.6285415243	-1.8701133256	 0.6205872145	-0.028864
C	-1.3476324213	-0.6070946039	 0.0337438864	-0.088107
H	 0.9230797446	 1.7821072373	 0.0930688967	 0.28326
H	 0.7508232158	-0.3750285092	-0.7223000804	 0.059269
H	 0.7466425407	-0.6760965144	 2.1519541824	 0.061402
H	-1.5623346079	 0.9817899342	 1.6097209531	 0.081264
H	-2.2575557535	-0.5290837185	 3.4874367155	 0.105847
H	-3.4839331261	-0.4962733733	 2.2440975088	 0.107844
H	-2.9819549943	-2.9589489324	 2.9084707111	 0.085323
H	-1.3477967656	-3.8784439553	 1.2756359387	 0.083514
H	 0.0531355483	-2.3800904974	-0.0661352948	 0.055271
H	-2.1107300348	-0.6006190922	-0.7464425683	 0.068978
201.9559	240.0736	261.5342	292.3573	366.5751	479.9758	487.1332	559.7678	612.7011	700.8487	772.7977	776.7609	782.7801	835.2343	914.992	934.8065	938.88	973.5776	988.6405	999.1581	1021.0255	1040.4134	1063.6116	1102.8497	1119.9247	1145.6973	1150.6927	1171.7663	1176.0789	1211.6128	1231.0734	1245.8237	1267.7744	1312.4076	1330.1575	1362.6117	1399.7301	1418.2583	1446.0339	1467.9918	1715.8088	2997.1408	3001.9946	3016.9166	3062.9813	3084.1491	3098.997	3113.7382	3159.1482	3182.962	3822.0529
OC1C2C3CC=CC2C13	O[C@H]1[C@H]2[C@@H]3CC=C[C@H]2[C@H]13	
InChI=1S/C8H10O/c9-8-6-4-2-1-3-5(6)7(4)8/h1-2,4-9H,3H2	InChI=1S/C8H10O/c9-8-6-4-2-1-3-5(6)7(4)8/h1-2,4-9H,3H2/t4-,5+,6-,7+,8+
