17
gdb 41087	3.471	1.88413	1.6252	1.235	70.89	-0.2366	0.0609	0.2975	857.0554	0.138255	-421.714158	-421.708262	-421.707318	-421.744037	25.649	
C	-0.0158486218	 1.451250041	-0.2660502062	-0.161527
O	 1.36451887	 1.6601893301	 0.2199772927	-0.360506
C	 1.2067557414	 0.4227074153	 0.8785925967	 0.471203
C	 1.9483943924	-0.7904012039	 1.5672530912	-0.021336
C	 1.5678709386	-0.2423810187	 2.9526230738	-0.2492
C	 0.3371767226	 0.30744653	 2.2104848097	-0.130495
C	-0.2705407602	-0.8423652615	 1.3426084433	 0.032816
O	 0.8827880822	-1.7480880655	 1.3366299423	-0.278845
C	 0.0510227332	-0.0843656846	 0.0327577777	-0.110575
H	-0.7281971497	 2.037128434	 0.3216400896	 0.117323
H	-0.0893128141	 1.7080650115	-1.3239649434	 0.124269
H	 2.9115237302	-1.2130967115	 1.2920619621	 0.090751
H	 1.4424511997	-0.9772555335	 3.75053289	 0.104474
H	 2.2154932875	 0.5789765304	 3.2720672227	 0.110583
H	-0.3011821476	 1.1018284277	 2.5871244261	 0.084717
H	-1.1740107766	-1.4077279666	 1.5651310798	 0.081816
H	 0.2256282021	-0.6979451342	-0.8511893781	 0.09453
269.1613	320.9552	336.696	470.8157	522.7423	532.6321	634.7584	714.9293	774.6917	816.6522	821.4434	866.3884	869.4926	908.4789	913.9377	929.471	945.5452	993.8407	1016.2076	1022.9857	1047.5234	1079.8847	1109.8369	1125.376	1149.4922	1166.7411	1192.7985	1213.9479	1229.1559	1248.3885	1269.7577	1279.8182	1305.4528	1328.0358	1342.9776	1480.6608	1501.5399	3058.3792	3062.2829	3110.1036	3125.8243	3127.6897	3131.9395	3156.335	3161.2648
C1OC23C4CC2C(O4)C13	C1O[C@@]23[C@H]4C[C@@H]2[C@H](O4)[C@@H]13	
InChI=1S/C7H8O2/c1-3-6-4-2-8-7(3,4)5(1)9-6/h3-6H,1-2H2	InChI=1S/C7H8O2/c1-3-6-4-2-8-7(3,4)5(1)9-6/h3-6H,1-2H2/t3-,4-,5-,6+,7+/m1/s1
