14
gdb 129656	2.42307	1.9207	1.07465	2.7359	71.49	-0.2095	-0.0521	0.1574	1023.9119	0.103699	-466.204133	-466.19652	-466.195576	-466.235927	29.349	
N	-0.0482294683	 1.3570234661	-0.2990217001	-0.573356
C	-0.0559920834	-0.0211385379	-0.1313604242	 0.337109
C	-1.2315257964	-0.7132040306	 0.0499686524	 0.115349
N	-2.4747190902	-0.1154663345	 0.1354363865	-0.601872
C	-1.1605260719	-2.1434364753	 0.1973837968	 0.436277
O	-2.109922448	-2.897342849	 0.3675687323	-0.414623
N	 0.1523437863	-2.6047168292	 0.1066881544	-0.289011
N	 1.2768654866	-1.8991701825	-0.1054183231	-0.070448
N	 1.1697372044	-0.6321237139	-0.2127869609	-0.270847
H	 0.8882714277	 1.7381120004	-0.2635570051	 0.262878
H	-0.6853058636	 1.8494678112	 0.3148505812	 0.258498
H	-3.2168235787	-0.8058442425	 0.1188133675	 0.272099
H	-2.6274064277	 0.6488812893	-0.5098738925	 0.258105
H	 0.2988168934	-3.6032685317	 0.1791514048	 0.279842
137.0798	207.5304	259.1873	267.8422	306.7119	331.1089	483.1972	506.4413	538.7717	564.4934	580.9217	638.3917	697.9284	705.0544	737.2219	746.6163	801.5538	938.2956	1001.9595	1082.8038	1141.5173	1222.8431	1308.9845	1352.8902	1370.1347	1453.3306	1518.0287	1625.959	1634.2219	1663.02	1768.9084	3521.616	3534.2548	3600.0501	3628.8662	3640.9308
NC1=C(N)C(=O)NN=N1	NC1=N[N]NC(=O)[C]1N	
InChI=1S/C3H5N5O/c4-1-2(5)6-8-7-3(1)9/h(H2,4,8)(H3,5,6,7,9)	InChI=1S/C3H5N5O/c4-1-2(5)6-8-7-3(1)9/h(H2,4,8)(H3,5,6,7,9)
