23
gdb 101182	3.2753	1.03113	0.92776	1.0093	87.04	-0.2473	0.0874	0.3347	1397.1841	0.205432	-388.228278	-388.218925	-388.217981	-388.263239	35.189	
C	-1.4022020046	 0.1761787807	-2.2355117728	-0.231948
O	-1.5802564266	-0.8497925104	-1.289769665	-0.247747
C	-1.2991817782	-0.4804831749	 0.0591555521	 0.070944
C	-2.4047271096	 0.3973380921	 0.6568636029	-0.403722
C	-1.1723791582	-1.7944176476	 0.8155600205	 0.083015
C	 0.0772338715	-2.7191237547	 0.6634853141	-0.056179
C	 0.8717935888	-1.7346142291	 1.572863944	-0.227085
C	-0.529837275	-1.885228178	 2.2373117182	-0.064338
C	-0.3906399267	-3.4140407239	 1.9758986211	-0.22145
H	-1.5425726089	-0.2696357797	-3.2239241473	 0.124527
H	-2.1275576582	 0.9954033524	-2.1212073687	 0.103749
H	-0.3892580581	 0.6073740758	-2.1848898493	 0.099704
H	-0.35320075	 0.0815855224	 0.0785019006	 0.060373
H	-2.1724523338	 0.6459297454	 1.6972690018	 0.117913
H	-2.5173600508	 1.337755854	 0.109905295	 0.113176
H	-3.3633912402	-0.1307663347	 0.6327916723	 0.120929
H	-2.1246165239	-2.3311183185	 0.7250541761	 0.065123
H	 0.423565859	-3.201990511	-0.2506011671	 0.073168
H	 1.7121984224	-2.164148071	 2.1254526956	 0.087487
H	 1.1416290076	-0.7612935521	 1.1607910512	 0.091518
H	-0.8818759011	-1.4067943447	 3.1533367344	 0.065844
H	-1.3180796946	-3.9911497768	 1.9245372123	 0.088251
H	 0.3779982791	-3.9364137956	 2.5517030779	 0.086748
40.7124	69.0986	134.3795	187.6977	208.0403	252.5907	294.8716	371.2508	418.2658	480.9239	571.9715	591.8156	776.4361	805.0422	855.2007	867.083	885.8091	900.1205	903.37	989.2393	1007.7853	1015.6489	1029.591	1048.6859	1098.4474	1104.8414	1114.0238	1128.3292	1141.6946	1148.7189	1179.7712	1187.8254	1191.7214	1214.5468	1221.7428	1248.3291	1250.3488	1268.1657	1333.0236	1365.3512	1398.5001	1436.1324	1476.663	1481.7949	1492.6136	1503.0982	1504.5848	1512.808	1543.2216	2969.9155	2986.061	3018.7678	3033.7011	3039.0002	3048.145	3059.218	3090.4264	3104.9257	3109.7732	3111.1444	3112.9045	3114.2458	3124.2068
COC(C)C1C2CC1C2	CO[C@@H](C)[C@H]1[C@H]2C[C@@H]1C2	
InChI=1S/C8H14O/c1-5(9-2)8-6-3-7(8)4-6/h5-8H,3-4H2,1-2H3	InChI=1S/C8H14O/c1-5(9-2)8-6-3-7(8)4-6/h5-8H,3-4H2,1-2H3/t5-,6-,7+,8-/m0/s1
