17
gdb 71748	2.85216	2.25138	1.68104	2.7878	68.87	-0.2344	0.0682	0.3026	831.7026	0.138344	-421.79053	-421.784327	-421.783383	-421.820615	26.823	
O	-0.0756340081	 1.3653509804	 0.0993982253	-0.494561
C	 0.0359641994	-0.0202028247	 0.0769393303	 0.421005
C	 0.9132309592	-0.7227817675	 1.1030836889	-0.316714
C	 0.5887495811	-2.1466554372	 0.6958735926	-0.070689
C	 0.323270045	-2.1843959906	-0.7976040114	-0.081977
C	-0.838302264	-2.1943027707	 0.1858999617	-0.081814
C	-1.3348984871	-0.7552383814	-0.0546998187	 0.023714
O	-1.2821107597	-0.5821858845	-1.4995718699	-0.296596
C	 0.1523273525	-0.7455057781	-1.3173909647	-0.017965
H	 0.7887461997	 1.7449324573	-0.0906037936	 0.28184
H	 1.9758421134	-0.4761848095	 0.9848679786	 0.092108
H	 0.6098889052	-0.4849114191	 2.1281589404	 0.109031
H	 1.0258469414	-3.0002878729	 1.2000237177	 0.088042
H	 0.578618791	-3.0232228965	-1.4301859816	 0.09336
H	-1.4993666981	-3.0383208956	 0.3238064403	 0.093783
H	-2.2562489986	-0.4014954469	 0.4050435094	 0.083749
H	 0.7517513778	-0.3869521326	-2.1540772254	 0.073684
231.815	286.0349	335.4449	417.8859	495.4052	529.8967	614.3076	691.9214	710.0395	719.5653	805.7737	807.0815	848.0229	858.4511	898.5179	917.7432	932.705	967.8698	983.0224	1013.6891	1032.4155	1056.4115	1080.589	1084.1042	1125.6376	1166.2434	1179.5434	1187.6471	1225.5571	1259.2108	1274.2218	1295.4418	1309.208	1329.3669	1377.3818	1398.6209	1488.8303	3029.7925	3081.6024	3123.4659	3140.0348	3182.5824	3206.9249	3217.3134	3808.5207
OC12CC3C4C3C1OC24	O[C@@]12C[C@@H]3[C@H]4[C@@H]3[C@@H]1O[C@@H]24	
InChI=1S/C7H8O2/c8-7-1-2-3-4(2)6(7)9-5(3)7/h2-6,8H,1H2	InChI=1S/C7H8O2/c8-7-1-2-3-4(2)6(7)9-5(3)7/h2-6,8H,1H2/t2-,3+,4-,5-,6+,7-
