22
gdb 22501	3.09168	0.68356	0.60571	1.15	83.36	-0.2424	0.0108	0.2532	1910.8283	0.191182	-441.439049	-441.427806	-441.426862	-441.476618	39.108	
C	-1.5118957795	 0.4845719423	-0.4747190684	-0.37499
C	-0.117685147	 0.0197524934	-0.0124080874	-0.264455
C	 0.6686903148	-0.6064138058	-1.1396279774	 0.341919
C	 0.715146682	-2.1073180015	-1.2735785752	-0.283187
C	 1.662094311	-2.7587542506	-0.2630517429	-0.050156
O	 1.5379375848	-4.1577019596	-0.3871895963	-0.228255
C	 2.3850717645	-4.8618090201	 0.4880811759	-0.229108
N	 1.3032899205	 0.0525112152	-2.0338222599	-0.171603
O	 1.2062704391	 1.442674217	-1.8342490982	-0.400908
H	-1.4190961272	 1.240629957	-1.2574595148	 0.140967
H	-2.0982698243	-0.3502743792	-0.8717793106	 0.117945
H	-2.0682992485	 0.9181329944	 0.3616467416	 0.114408
H	 0.4369429187	 0.8786898506	 0.3757157789	 0.127512
H	-0.2234295876	-0.7052567991	 0.8010908337	 0.098533
H	-0.287562439	-2.5243733744	-1.1175329043	 0.113356
H	 1.0370947337	-2.3733724777	-2.2829503588	 0.125164
H	 2.698184263	-2.4385611132	-0.4626448814	 0.097567
H	 1.4186328755	-2.4430421403	 0.7663359315	 0.085819
H	 3.4469083224	-4.6345785556	 0.302207539	 0.104658
H	 2.1666420185	-4.6311975934	 1.5433162964	 0.102137
H	 2.217849483	-5.928347342	 0.318766994	 0.127246
H	 1.7308755215	 1.7854208525	-2.5649939954	 0.305431
49.969	67.7536	78.276	101.0218	134.1276	218.0013	222.1086	234.4045	276.7742	312.4383	338.957	377.6737	416.7746	458.3962	611.2375	702.6868	776.0168	801.3232	820.5929	967.964	984.1546	997.591	1035.7192	1057.1072	1090.0581	1116.2782	1161.4549	1181.2152	1223.2306	1230.1228	1251.7175	1292.7104	1305.7644	1315.4072	1352.0102	1401.2179	1408.5898	1423.1931	1478.1356	1480.997	1484.7121	1485.1335	1497.2997	1504.4376	1509.4573	1531.6447	1726.1954	2949.6837	2969.2204	2983.7359	3010.8306	3037.3765	3041.4165	3049.0581	3092.8134	3109.6075	3112.2013	3113.1719	3133.0577	3825.0914
CCC(CCOC)=NO	CCC(=NO)CCOC	
InChI=1S/C6H13NO2/c1-3-6(7-8)4-5-9-2/h8H,3-5H2,1-2H3	InChI=1S/C6H13NO2/c1-3-6(7-8)4-5-9-2/h8H,3-5H2,1-2H3
