22
gdb 95582	2.2624	1.55744	1.12218	2.277	82.44	-0.2397	0.0157	0.2553	1181.3694	0.195082	-404.359749	-404.350476	-404.349532	-404.393689	35.061	
C	-0.1488398847	 1.5027036322	-0.0478712529	-0.415801
C	 0.0716514731	-0.0174467101	-0.0014153979	 0.005726
C	 0.7162194635	-0.4671026355	-1.3127297513	-0.068652
O	 0.7204447778	-1.8767845639	-1.5694207211	-0.235773
C	 1.4483560666	-2.7245217196	-0.7877226374	 0.109218
N	 1.5697533745	-2.8140468602	 0.4627742524	-0.235108
C	 0.8182322365	-2.0026637841	 1.4103797858	-0.172236
C	 0.8494554287	-0.4706159278	 1.2537711342	 0.009134
C	 2.2826237236	 0.0736046644	 1.3628472808	-0.402041
H	 0.7864240331	 2.0483142221	-0.2123588979	 0.121705
H	-0.8340851575	 1.7753372006	-0.8570841566	 0.116531
H	-0.5810886996	 1.8622682464	 0.8909565125	 0.118876
H	-0.9165299053	-0.4965364824	 0.0458584615	 0.079044
H	 0.1599361269	-0.0496626927	-2.1565415208	 0.112842
H	 1.7466704782	-0.0944575031	-1.3813930027	 0.108934
H	 1.9448364001	-3.4629972117	-1.41997995	 0.113181
H	-0.2306450427	-2.3341781386	 1.3825356431	 0.10543
H	 1.1942271463	-2.2536856877	 2.4085045708	 0.100179
H	 0.2884753366	-0.083375269	 2.1163654831	 0.072169
H	 2.9373741335	-0.332175703	 0.5866899741	 0.125875
H	 2.311979268	 1.1648984083	 1.2965366512	 0.112395
H	 2.716146773	-0.2095999945	 2.327346339	 0.118371
59.2722	126.7752	187.0717	206.0749	235.3677	264.7426	309.7969	333.9622	349.46	398.6116	508.4587	519.8736	634.4927	733.8092	792.4982	867.1948	892.1466	936.5251	946.1251	963.6499	972.0683	991.1529	1031.1135	1046.9985	1103.2922	1121.7944	1154.6557	1168.9161	1195.025	1279.7907	1290.3767	1308.2179	1346.4467	1359.0683	1385.3953	1392.8803	1406.0326	1416.9501	1426.2389	1433.5386	1486.685	1490.5653	1496.2811	1500.7987	1506.735	1512.1576	1751.7322	2991.7224	2999.595	3010.7428	3025.7034	3032.3449	3043.1032	3052.3419	3089.5911	3097.3008	3104.7484	3106.6956	3116.3301	3120.1056
CC1COC=NCC1C	C[C@H]1COC=NC[C@H]1C	
InChI=1S/C7H13NO/c1-6-3-8-5-9-4-7(6)2/h5-7H,3-4H2,1-2H3	InChI=1S/C7H13NO/c1-6-3-8-5-9-4-7(6)2/h5-7H,3-4H2,1-2H3/t6-,7+/m1/s1
