20
gdb 96939	3.27158	1.16401	1.05529	2.2515	82.15	-0.244	0.031	0.275	1250.74	0.170719	-403.134771	-403.125831	-403.124886	-403.168873	32.925	
C	 0.3800098811	 1.4190398808	-0.1564577433	-0.339112
N	 0.4212360015	-0.0296909092	-0.0133624563	-0.336373
C	 0.5655657847	-0.7403005872	-1.0309778793	 0.472653
O	 0.693218042	-0.3787778561	-2.3746593347	-0.283627
C	 0.7096607545	-1.7788329471	-2.7880767966	 0.096457
C	 2.1372576735	-2.3551704976	-2.9487154744	 0.015227
C	 3.2225717974	-1.4440795406	-3.5010209129	-0.404996
C	 2.145114766	-2.7079615228	-1.4231898836	-0.260736
C	 0.6645513766	-2.2196399208	-1.2992089834	-0.195653
H	 1.2305558695	 1.85746896	 0.3779759484	 0.125978
H	 0.402546707	 1.7680487578	-1.1954906128	 0.125366
H	-0.5277778893	 1.7994297323	 0.3241558625	 0.125889
H	-0.0538157734	-1.971759733	-3.5422779858	 0.087091
H	 2.0788043684	-3.2745661948	-3.5419262871	 0.079423
H	 3.2413852466	-0.4914773789	-2.9647656474	 0.132629
H	 4.207541016	-1.9125182439	-3.4039080183	 0.116361
H	 3.0573682948	-1.2278010751	-4.5620631885	 0.11767
H	 2.273150226	-3.7717480272	-1.2155622534	 0.110219
H	 2.853218156	-2.1463538531	-0.809591137	 0.11686
H	-0.0737610688	-2.8789870635	-0.8490038163	 0.098677
70.886	79.6578	139.1233	194.3529	212.8438	242.6435	309.9287	353.5968	468.2582	523.6681	634.524	700.1894	769.4916	796.5275	848.9441	884.26	891.8741	940.0546	946.6446	988.8066	1044.4218	1061.371	1082.3384	1114.1758	1123.3565	1134.3537	1161.3278	1173.3623	1198.4994	1224.073	1255.899	1287.0237	1296.0944	1329.0963	1357.2527	1411.2716	1439.414	1487.0536	1492.4244	1494.0565	1498.0346	1499.8384	1845.4602	3016.2799	3034.5655	3043.1301	3071.3071	3080.1318	3087.2977	3098.2341	3109.165	3118.4421	3124.9357	3146.9676
CN=C1OC2C(C)CC12	CN=C1O[C@H]2[C@@H](C)C[C@@H]12	
InChI=1S/C7H11NO/c1-4-3-5-6(4)9-7(5)8-2/h4-6H,3H2,1-2H3	InChI=1S/C7H11NO/c1-4-3-5-6(4)9-7(5)8-2/h4-6H,3H2,1-2H3/t4-,5+,6-/m0/s1
