19
gdb 63415	3.50781	1.05825	1.00576	3.2247	78.45	-0.2356	-0.0328	0.2028	1265.462	0.156151	-423.047417	-423.038084	-423.03714	-423.081887	34.341	
C	 0.2974088017	 1.3900632528	-0.1957229311	-0.405505
C	-0.064770812	-0.0830946822	 0.0307345165	 0.322155
C	-1.5821121464	-0.260243669	 0.1810673723	-0.407172
O	 0.3757708951	-0.8450509334	-1.1215526713	-0.307821
C	 1.2840782946	-1.866205991	-0.7487223936	-0.023794
C	 2.6237506266	-1.6614395256	-1.4607147005	 0.136813
O	 3.4221733017	-2.537656863	-1.6564529441	-0.241491
C	 1.4495712054	-1.7190421009	 0.7447575801	-0.116867
C	 0.702976695	-0.7086869092	 1.1716718736	-0.10989
H	 1.3776769545	 1.5062859522	-0.3155103977	 0.118051
H	-0.1947201191	 1.7609872223	-1.0995681051	 0.127153
H	-0.0264826593	 2.0060653436	 0.6493671601	 0.11438
H	-2.0915619909	 0.105889689	-0.7151712826	 0.126343
H	-1.8331391735	-1.315331443	 0.3169222845	 0.121928
H	-1.9579054236	 0.3002329604	 1.0432677658	 0.113368
H	 0.9030762498	-2.859072541	-1.0315894187	 0.108562
H	 2.7982777547	-0.6036620425	-1.762489333	 0.085985
H	 2.1002232232	-2.3598123785	 1.3247815313	 0.125998
H	 0.6090719927	-0.3611568813	 2.1930782635	 0.111805
57.5919	68.9637	165.9962	200.2326	240.8257	265.8359	301.7642	327.5873	371.9361	443.201	470.7513	552.4384	643.7128	765.4171	786.3405	838.1083	875.3776	896.3559	924.8633	960.9763	965.1721	1010.745	1037.3131	1064.8825	1078.3185	1123.9241	1190.9976	1200.1208	1239.6055	1279.6709	1307.4068	1351.077	1385.9617	1392.7202	1412.3068	1475.5367	1479.5555	1494.3359	1503.7713	1684.0435	1836.6168	2881.5875	2995.1906	3036.7786	3041.6119	3109.1929	3115.5177	3121.3027	3123.7818	3208.7619	3236.3993
CC1(C)OC(C=O)C=C1	CC1(C)O[C@@H](C=O)C=C1	
InChI=1S/C7H10O2/c1-7(2)4-3-6(5-8)9-7/h3-6H,1-2H3	InChI=1S/C7H10O2/c1-7(2)4-3-6(5-8)9-7/h3-6H,1-2H3/t6-/m1/s1
