20
gdb 122462	2.67251	0.92301	0.74585	4.0511	81.	-0.2604	0.0295	0.2899	1576.9935	0.169413	-403.146488	-403.136549	-403.135605	-403.182708	35.145	
C	 0.2860213396	 1.0881990267	-0.4201482219	-0.385358
C	-0.2142255673	-0.177516008	 0.2803084356	-0.185862
C	 0.8345642434	-0.7769532554	 1.2036536017	-0.051689
O	 0.2793608808	-1.941943104	 1.81608135	-0.239196
C	 1.1429409052	-2.5884896533	 2.669518435	 0.137711
C	 0.8836611758	-4.0298104114	 2.9124667421	-0.319742
C	 2.1210791903	-3.632295847	 2.1059634024	-0.218938
C	 2.1471348089	-3.8766101653	 0.6944028216	 0.297909
N	 2.1838557464	-4.0624232373	-0.4474523924	-0.34522
H	 1.1697586421	 0.8819593795	-1.0334578096	 0.123907
H	-0.4845614848	 1.500025779	-1.0776648345	 0.120757
H	 0.5563380477	 1.8666716099	 0.302081309	 0.115006
H	-1.1137982906	 0.0408938569	 0.8671158602	 0.106963
H	-0.4950184777	-0.9355856655	-0.4589116092	 0.121048
H	 1.7389649183	-1.0478218651	 0.6407818519	 0.111913
H	 1.1275499415	-0.0555606936	 1.9838736188	 0.089185
H	 1.5369987849	-1.9823855072	 3.4869946263	 0.100398
H	 1.0482590312	-4.4405927105	 3.9012920258	 0.132611
H	 0.0674204845	-4.4698388512	 2.3523984582	 0.154742
H	 3.0847770399	-3.7238150674	 2.5954932692	 0.133857
40.594	55.5217	120.7978	122.3435	180.5857	218.242	231.5775	308.373	339.566	431.8914	477.3441	564.8174	671.1219	764.8154	770.8145	780.196	853.9104	901.1594	910.7475	967.6544	1015.1611	1051.2765	1067.9107	1084.4595	1117.3353	1127.062	1145.4784	1187.4029	1192.5871	1250.0161	1270.2688	1318.5457	1333.3822	1366.5086	1388.8539	1413.0552	1443.1742	1482.9574	1491.5428	1500.5946	1505.9627	1522.6567	2350.4597	2972.6415	3024.68	3033.1549	3042.5652	3077.3089	3090.8244	3103.2044	3111.5783	3151.6223	3169.8851	3247.4472
CCCOC1CC1C#N	CCCO[C@H]1C[C@H]1C#N	
InChI=1S/C7H11NO/c1-2-3-9-7-4-6(7)5-8/h6-7H,2-4H2,1H3	InChI=1S/C7H11NO/c1-2-3-9-7-4-6(7)5-8/h6-7H,2-4H2,1H3/t6-,7-/m0/s1
