14
gdb 130198	2.46314	1.84498	1.05551	5.1639	71.18	-0.1918	-0.0271	0.1647	1038.9682	0.102588	-470.032142	-470.024293	-470.023349	-470.064062	30.371	
N	-0.0276285287	 1.309194795	 0.1268818479	-0.543868
C	-0.0533339431	-0.0516946213	 0.0501088847	 0.288029
N	-1.2017118173	-0.6844830038	 0.0318607535	-0.299493
N	-1.1275927834	-2.0282338306	 0.0087855496	-0.228797
C	 0.0198283073	-2.743605185	-0.0005391816	-0.106022
C	 1.2397477195	-2.1193583793	-0.0001251839	 0.225674
O	 2.43118449	-2.7748910989	-0.021330895	-0.424216
C	 1.2895684495	-0.6792299083	 0.0138335538	 0.283254
O	 2.3070140809	 0.0145280583	-0.0115038885	-0.415979
H	 0.8767677679	 1.7037778612	-0.0903337081	 0.272037
H	-0.8531264014	 1.8171008521	-0.142413733	 0.256416
H	-2.0217160457	-2.4884053064	 0.0025035105	 0.278851
H	-0.0956692715	-3.8225363467	-0.0142067856	 0.11929
H	 2.2791679161	-3.7255615463	-0.0383679144	 0.294824
114.3627	253.8578	283.0547	304.8707	321.7177	338.9613	406.7554	421.3441	483.0417	520.3431	548.9696	562.8341	580.2516	589.5067	716.8162	790.8013	832.1469	900.7848	1011.4486	1066.6785	1159.4417	1223.8951	1305.7569	1350.9726	1413.9702	1454.1515	1550.3835	1577.6903	1636.3007	1653.2903	1709.7387	3179.7957	3570.1895	3666.0269	3711.3444	3819.5157
NC1=NNC=C(O)C1=O	Nc1n[nH]cc(O)c1=O	
InChI=1S/C4H5N3O2/c5-4-3(9)2(8)1-6-7-4/h1H,(H,6,9)(H3,5,7,8)	InChI=1S/C4H5N3O2/c5-4-3(9)2(8)1-6-7-4/h1H,(H,6,9)(H3,5,7,8)
