22
gdb 57189	2.27305	1.27165	1.14148	6.1774	77.82	-0.2427	0.0338	0.2765	1231.2107	0.192843	-441.534381	-441.524086	-441.523142	-441.568911	39.144	
C	 0.9554945511	-0.3704956622	 1.0315154798	-0.434135
C	 0.0843984727	 0.2327582983	-0.0899528351	-0.091179
C	 0.7341324689	-0.1455826483	-1.436564326	 0.388386
O	 0.3927224663	-1.3410277847	-1.9375896519	-0.382704
O	 1.541757526	 0.5655117866	-1.9767948569	-0.343897
C	-1.4308523027	-0.1224899345	 0.0033942756	 0.214022
C	-2.0361725447	 0.382524445	 1.3241532362	-0.418735
C	-2.1837684743	 0.5156199055	-1.1754263261	-0.415085
N	-1.5699639883	-1.5995688243	-0.1275544764	-0.542911
H	-1.3332928679	-2.0598310897	 0.7466565469	 0.240875
H	-2.533433545	-1.8444594952	-0.3360854963	 0.240194
H	-0.3290473987	-1.7202380978	-1.3675870819	 0.314461
H	 1.9936945547	-0.0583120507	 0.8925131478	 0.148861
H	 0.6357864805	-0.0327391525	 2.0206267312	 0.119829
H	 0.9399468609	-1.4653650484	 1.016505567	 0.120251
H	 0.1695760821	 1.3216134442	-0.0334151813	 0.102093
H	-1.8954335563	 1.4623029974	 1.4392824842	 0.12529
H	-3.1125326267	 0.1810177516	 1.34755512	 0.112074
H	-1.5863330284	-0.108940962	 2.1917900507	 0.116197
H	-1.8220387168	 0.1354182837	-2.1339265351	 0.145844
H	-3.2573415376	 0.3059755048	-1.1065075074	 0.108519
H	-2.0567102857	 1.6015594333	-1.1681233349	 0.13175
73.7209	113.2186	199.8771	224.6809	229.8355	249.6772	281.5869	299.9028	323.7109	353.9284	373.3399	394.5742	423.1997	466.8214	556.9461	665.2361	742.7594	774.4471	824.6548	890.3192	929.0577	940.5393	956.469	995.1149	1007.1823	1022.2076	1074.845	1089.236	1100.6988	1189.7898	1255.5888	1270.3874	1315.355	1319.2393	1358.0185	1400.2414	1407.6324	1426.1389	1484.6091	1487.1441	1497.0677	1500.4275	1504.2625	1510.4399	1517.0914	1647.8573	1850.6766	3030.6999	3037.3012	3042.6665	3073.1041	3098.1771	3105.8562	3108.4159	3113.8121	3123.8031	3129.3788	3201.9172	3492.6739	3570.9445
CC(C([O-])=O)C(C)(C)[NH3+]	C[C@@H](C(=O)O)C(C)(C)N	
InChI=1S/C6H13NO2/c1-4(5(8)9)6(2,3)7/h4H,7H2,1-3H3,(H,8,9)	InChI=1S/C6H13NO2/c1-4(5(8)9)6(2,3)7/h4H,7H2,1-3H3,(H,8,9)/t4-/m0/s1
