17
gdb 87815	2.85038	1.55051	1.28751	2.6301	67.96	-0.2327	0.041	0.2737	1010.0093	0.134285	-458.878645	-458.870532	-458.869588	-458.911212	31.627	
O	-0.0799888665	 1.2804385225	-0.3298032034	-0.438009
C	 0.0140229117	-0.090658121	-0.0791064646	 0.06683
C	-0.4704674953	-0.6975470645	 1.2328871356	-0.417777
C	-1.2585145855	-0.8692134215	-0.0297007537	 0.407517
O	-2.47148133	-0.0972413743	-0.1958681701	-0.342172
C	-3.0756264652	-1.2047424161	-0.8954147375	 0.025788
C	-2.3018041234	-1.5151744778	-2.1337384092	 0.127641
O	-1.6456560807	-0.5591752164	-2.8952179511	-0.430451
C	-1.8009710516	-2.045784801	-0.797913557	-0.299226
H	-1.0151580035	 1.5166767757	-0.2604174471	 0.296583
H	 0.8926941121	-0.5217841124	-0.547143225	 0.117779
H	 0.0683716845	-1.552271808	 1.6298465667	 0.123728
H	-0.8943348745	-0.0308295356	 1.9776426904	 0.130267
H	-4.1215176658	-1.3997845389	-0.6888086911	 0.112314
H	-2.7459289261	-2.2784117278	-2.7661980703	 0.116308
H	-1.4873289418	 0.2127000047	-2.3366693626	 0.295089
H	-1.6468531284	-3.0901867677	-0.56241395	 0.10779
76.8986	149.7	203.8982	244.2847	321.6269	361.9987	407.2858	419.0855	490.4603	578.8276	646.8705	676.2262	724.4247	801.2898	806.179	867.2069	896.6815	917.5809	976.2095	992.6808	1026.5004	1029.8682	1046.7269	1065.8886	1081.0869	1089.3627	1140.7522	1166.1497	1177.216	1255.4421	1295.107	1315.1183	1343.0214	1384.5594	1424.9209	1453.4406	1497.7619	3122.9857	3164.1939	3170.256	3180.5063	3204.8938	3216.893	3753.1931	3778.9467
OC1CC11OC2C(O)C12	O[C@H]1C[C@]21O[C@H]1[C@@H](O)[C@@H]21	
InChI=1S/C6H8O3/c7-2-1-6(2)3-4(8)5(3)9-6/h2-5,7-8H,1H2	InChI=1S/C6H8O3/c7-2-1-6(2)3-4(8)5(3)9-6/h2-5,7-8H,1H2/t2-,3+,4-,5+,6+/m0/s1
