14
gdb 18831	4.50804	2.274	1.88607	1.8368	61.39	-0.214	0.0122	0.2261	709.243	0.109539	-378.675315	-378.669508	-378.668564	-378.704838	23.861	
N	 0.0188870435	 1.3374260774	 0.1010261798	-0.590636
C	-0.0159621758	-0.0332059596	 0.0770128586	 0.421344
N	-1.0816646855	-0.7453312399	-0.0281513742	-0.292186
C	-0.6507137596	-2.1180174407	 0.0162023887	-0.039358
C	 0.5422119487	-2.5302081596	-0.8878285443	 0.087377
O	 1.2603615987	-1.3852429347	-1.3253440541	-0.29112
C	 1.2441280929	-0.8845034978	 0.0655001629	-0.046001
C	 0.7486122206	-2.259987929	 0.5736061332	-0.161259
H	 0.8665400836	 1.7741328647	-0.2248608241	 0.257962
H	-0.8247418426	 1.7860904885	-0.2278412375	 0.26119
H	-1.4001894605	-2.8729616912	 0.2200964217	 0.09451
H	 0.5812621904	-3.4161512392	-1.5103207375	 0.110697
H	 2.2033419319	-0.4557588485	 0.3554171914	 0.085236
H	 1.0919285036	-2.8514351005	 1.4116511755	 0.102245
195.5202	335.1523	377.1106	417.6763	535.1624	590.278	636.4901	701.9873	732.3599	782.6365	801.2616	831.9333	869.6877	876.7019	919.6156	982.5058	1020.1963	1026.0032	1047.4127	1074.8692	1102.2586	1170.2785	1211.6409	1233.8607	1240.1332	1305.8743	1363.4259	1421.4879	1625.0277	1696.7825	3118.7721	3186.4765	3192.6001	3205.7098	3569.0136	3683.9961
NC1=NC2C3OC1C23	N[C]1[N][C@H]2[C@H]3O[C@@H]1[C@@H]23	
InChI=1S/C5H6N2O/c6-5-4-1-2(7-5)3(1)8-4/h1-4H,(H2,6,7)	InChI=1S/C5H6N2O/c6-5-4-1-2(7-5)3(1)8-4/h1-4H,(H2,6,7)/t1-,2+,3-,4+/m0/s1
