17
gdb 123892	3.62025	1.58404	1.14476	1.8019	74.33	-0.2336	0.0216	0.2552	1027.7205	0.14048	-418.031021	-418.024223	-418.023279	-418.062336	26.592	
C	 0.0115946168	 1.4169345638	 0.017907958	-0.098783
C	 1.452341489	 1.9277389705	-0.0346980889	-0.147546
N	 2.1306095554	 1.235596368	-1.1130161684	-0.004771
N	 3.3025787952	 1.6694904505	-1.6190923422	-0.282877
C	 3.6382727562	 0.7371935418	-2.5087354601	 0.007024
C	 2.6905651244	-0.3050050733	-2.5690903917	-0.347789
C	 1.7294264644	 0.0513992327	-1.6419306529	 0.368708
C	 0.4271543181	-0.5510755237	-1.1967908075	-0.202082
O	-0.016179337	 0.0006331554	 0.0334352237	-0.241899
H	-0.4760307554	 1.7544380864	 0.9355557817	 0.122622
H	-0.5583709449	 1.8043788154	-0.8419992769	 0.103363
H	 1.4880865108	 3.003829301	-0.2245212951	 0.132489
H	 1.9631114814	 1.7263257078	 0.9140306947	 0.131081
H	 4.5509294192	 0.8460909539	-3.0763233209	 0.111535
H	 2.7018370422	-1.1831399663	-3.1945977088	 0.102289
H	-0.343381536	-0.4035834979	-1.9732634479	 0.112094
H	 0.53010294	-1.627864056	-1.0359282266	 0.134542
105.845	181.4492	268.5298	343.0632	381.6852	467.6894	530.8305	646.9904	663.0363	720.0607	745.3054	785.4278	876.8004	887.4471	949.8812	964.4264	987.0901	1028.147	1063.1498	1121.5363	1126.4852	1170.1779	1220.6159	1236.2333	1247.8171	1301.3863	1318.6202	1345.5235	1370.7377	1379.4673	1415.6448	1447.6627	1485.6561	1495.3399	1500.0891	1529.7579	1575.427	2954.0659	2981.1858	3040.8942	3085.6419	3101.578	3105.8376	3242.882	3266.3886
C1CN2N=CC=C2CO1	C1Cn2nccc2CO1	
InChI=1S/C6H8N2O/c1-2-7-8-3-4-9-5-6(1)8/h1-2H,3-5H2	InChI=1S/C6H8N2O/c1-2-7-8-3-4-9-5-6(1)8/h1-2H,3-5H2
