18
gdb 105208	2.19273	1.52139	1.08878	4.9102	68.23	-0.24	0.0171	0.2572	1141.244	0.146522	-476.228321	-476.218932	-476.217988	-476.262406	34.563	
C	 0.373226838	-1.2836267196	 1.6823967555	-0.341318
N	 0.0241225578	-0.4800268301	 0.4979241489	-0.387097
H	-0.9324809449	 1.0334312796	 1.269133874	 0.304176
H	 0.7370885395	-0.5746934515	-0.2135039418	 0.235216
C	-1.2872850735	-0.7359042229	-0.0464904664	 0.127102
C	-1.4731579936	-0.9265134858	-1.5463931122	-0.370637
C	-1.701901304	-2.0804136043	-0.6141163298	 0.076054
O	-0.7312104828	-3.0830532019	-0.5446471141	-0.425291
C	-2.3798391919	 0.0780911247	 0.6124180946	 0.430246
O	-1.9071724305	 1.0798303758	 1.3692609874	-0.380322
O	-3.5556671539	-0.1281826709	 0.4546876769	-0.35738
H	 1.3652650078	-0.9818973795	 2.0295061242	 0.121567
H	-0.3402254665	-1.0669242127	 2.4833869114	 0.137289
H	 0.3664347873	-2.3606722509	 1.4880331161	 0.147247
H	-2.3279989132	-0.4422991533	-2.0032080755	 0.145184
H	-0.5664515687	-0.9547445752	-2.1429959411	 0.118266
H	-2.7279588416	-2.3837936265	-0.4197992051	 0.124099
H	-0.8389988355	-3.6542790049	-1.3122977629	 0.295599
76.4797	131.5615	160.4049	191.9793	208.8307	248.4599	276.6284	303.0875	368.884	425.8091	485.2536	532.7271	651.7273	698.8045	743.8085	765.8889	843.1433	846.0818	915.8175	937.8351	1014.1895	1040.2136	1074.7071	1087.9103	1136.6232	1152.9119	1183.4951	1198.5691	1262.8572	1276.4897	1333.9055	1404.5811	1410.1955	1456.9251	1465.5713	1481.309	1490.9759	1525.7591	1856.6797	3035.4553	3106.8836	3116.5098	3131.5012	3141.7509	3232.5021	3510.8583	3565.9429	3807.2788
C[NH2+]C1(CC1O)C([O-])=O	CN[C@]1(C[C@H]1O)C(=O)O	
InChI=1S/C5H9NO3/c1-6-5(4(8)9)2-3(5)7/h3,6-7H,2H2,1H3,(H,8,9)	InChI=1S/C5H9NO3/c1-6-5(4(8)9)2-3(5)7/h3,6-7H,2H2,1H3,(H,8,9)/t3-,5+/m1/s1
