18
gdb 75822	2.55138	1.63469	1.21726	3.3466	70.84	-0.2437	0.0028	0.2466	1057.0504	0.14818	-439.110151	-439.101759	-439.100815	-439.142855	32.114	
C	-0.3482321497	 1.4573953989	-0.0064383453	-0.485851
C	 0.0250326319	-0.0041568042	 0.0272296257	 0.331553
C	-0.6335094115	-0.936824968	 1.0384847235	-0.368926
C	 0.8324961421	-0.6293115654	 1.1308014428	 0.048632
O	 1.6929671207	-1.6319090146	 0.6088734013	-0.21664
C	 1.4930173206	-1.7594524898	-0.7345495425	 0.411738
O	 1.9929400611	-2.6311999883	-1.3839398484	-0.340099
C	 0.5383159997	-0.6558603073	-1.2419032567	-0.204883
N	-0.4872194879	-1.113224418	-2.1712374043	-0.513088
H	 0.4819622139	 2.0674329395	-0.3797756184	 0.123411
H	-1.2061386404	 1.6178830306	-0.6672551407	 0.141789
H	-0.6152901812	 1.8254540718	 0.9889702733	 0.1172
H	-1.296543981	-0.4751788484	 1.7620269447	 0.12558
H	-0.9100832624	-1.9484187591	 0.7567091554	 0.125087
H	 1.2782199187	-0.089338775	 1.9563027204	 0.117507
H	 1.1668591248	 0.0693732591	-1.7781608314	 0.112736
H	-0.0363250029	-1.6532291703	-2.9067248485	 0.244981
H	-1.1110174064	-1.7595165114	-1.6944596809	 0.229274
92.8716	193.0968	199.8215	232.8322	249.4823	277.8449	303.0933	446.3184	479.1778	508.7936	565.3597	662.4954	708.6579	741.0111	844.5997	867.8967	899.316	947.6545	961.8668	973.548	1029.2726	1051.3481	1093.3759	1108.6361	1125.6966	1143.0721	1157.3555	1220.8298	1251.4785	1313.7161	1325.0848	1387.9673	1419.49	1429.2073	1484.6325	1487.6315	1502.8484	1657.9053	1879.428	3010.8681	3030.5657	3096.1949	3106.5555	3127.2481	3197.9582	3217.5592	3477.4906	3554.1458
CC12CC1OC(=O)C2N	C[C@]12C[C@H]1OC(=O)[C@H]2N	
InChI=1S/C6H9NO2/c1-6-2-3(6)9-5(8)4(6)7/h3-4H,2,7H2,1H3	InChI=1S/C6H9NO2/c1-6-2-3(6)9-5(8)4(6)7/h3-4H,2,7H2,1H3/t3-,4-,6+/m1/s1
