19
gdb 54630	3.7927	1.12072	0.93889	3.2491	83.9	-0.2352	-0.045	0.1902	1272.7975	0.159322	-385.915655	-385.907313	-385.906369	-385.948959	31.81	
C	-0.02841142	 1.4886770657	 0.0725217213	-0.488449
C	 0.0176207791	-0.0300068809	 0.0432134077	 0.292499
O	 1.0770152079	-0.628545688	 0.0518084803	-0.315998
C	-1.280473514	-0.7467463902	-0.0066640112	 0.205165
C	-1.3787723208	-2.0881297417	-0.0413661497	-0.133498
C	-2.7832552058	-2.5527624175	-0.0142983561	-0.075044
C	-3.5535419288	-2.162836082	 1.2399643846	-0.274244
C	-3.6218308372	-1.277454853	 0.0298900791	-0.041047
C	-2.6571261768	-0.0940681484	-0.0444346811	-0.347727
H	 0.9878524343	 1.8833708411	 0.0595669311	 0.138421
H	-0.588220324	 1.877940211	-0.7855466531	 0.134575
H	-0.5457211034	 1.8399970886	 0.9729214081	 0.135935
H	-0.5193808791	-2.7477901216	-0.0605107466	 0.125306
H	-3.0810533311	-3.4443579002	-0.5537303437	 0.094298
H	-4.4365091381	-2.7482435576	 1.4737438126	 0.115981
H	-2.9796263607	-1.8401268717	 2.1027847852	 0.117567
H	-4.5630572473	-1.2182092255	-0.5031746794	 0.091381
H	-2.8108846214	 0.6130891458	 0.7801888772	 0.113351
H	-2.8010007729	 0.4776990462	-0.970870206	 0.111528
60.4169	129.7784	142.2177	189.586	324.6302	338.341	389.8368	461.6464	489.4915	603.7649	615.8529	688.4959	788.9286	804.688	836.8678	880.709	923.8684	937.6225	961.4057	988.134	1012.0712	1042.1875	1047.4806	1062.5896	1085.3231	1096.6495	1102.9409	1186.3769	1206.6733	1262.5732	1272.9883	1326.4499	1354.8854	1374.9694	1381.2199	1461.3968	1472.7761	1475.3843	1484.916	1644.3878	1767.526	3015.1631	3033.065	3047.3405	3091.9191	3125.6306	3153.2446	3175.5682	3183.3236	3214.3517	3216.6674
CC(=O)C1=CC2CC2C1	CC(=O)C1=C[C@H]2C[C@H]2C1	
InChI=1S/C8H10O/c1-5(9)6-2-7-4-8(7)3-6/h2,7-8H,3-4H2,1H3	InChI=1S/C8H10O/c1-5(9)6-2-7-4-8(7)3-6/h2,7-8H,3-4H2,1H3/t7-,8+/m0/s1
