20
gdb 47596	2.33523	1.73091	1.13166	2.7312	78.3	-0.2087	-0.0175	0.1912	1106.3418	0.1739	-403.154621	-403.146785	-403.145841	-403.187376	30.741	
O	 0.0447892362	-0.0906983949	-0.1886914308	-0.318255
C	 0.0062439478	 1.11960044	-0.1566165764	 0.356382
C	-1.3234666669	 1.8811140675	-0.1455735539	-0.27518
N	-1.3024491617	 3.1783896052	-0.8235498613	-0.284021
C	-0.2375239761	 4.0367758297	-0.3048694377	-0.181871
C	 1.1797365276	 3.4735508325	-0.5089064727	-0.033531
C	 2.1640965707	 3.7874053827	 0.6525442556	-0.233813
C	 1.8194023625	 2.4070679551	 1.2742442846	-0.232301
C	 1.2624276185	 1.9628800569	-0.1234330627	-0.070155
H	-2.0879416473	 1.2327733589	-0.5821411048	 0.127195
H	-1.6114157769	 2.0487795998	 0.9033308746	 0.126197
H	-1.176229694	 3.0381017718	-1.8221785529	 0.218932
H	-0.3190917767	 5.0256071293	-0.7689361994	 0.106133
H	-0.4355079967	 4.1795438469	 0.7659833813	 0.103266
H	 1.5293070769	 3.7090482937	-1.5191346378	 0.067142
H	 3.2020185766	 3.8296736353	 0.3121215801	 0.106109
H	 1.9583808081	 4.6784635712	 1.2521638464	 0.099917
H	 2.6347617863	 1.8070251891	 1.6809903278	 0.115041
H	 1.0328933026	 2.4758065774	 2.0307135576	 0.109372
H	 2.0417995925	 1.4338406119	-0.6776605977	 0.093442
53.3228	131.6792	209.9988	285.8326	326.318	410.7693	441.9872	457.2713	553.8977	629.1755	690.9331	737.8122	776.7195	839.0673	873.8901	893.2986	928.8138	954.1255	958.9499	962.8285	998.7546	1063.8361	1106.2161	1138.2482	1145.2263	1174.3464	1213.8488	1240.158	1248.5542	1254.3527	1273.2552	1276.8001	1313.2561	1327.8967	1339.5767	1355.0801	1387.6001	1447.9416	1477.1214	1484.8627	1485.8847	1499.6225	1801.341	3001.3606	3016.6489	3043.6256	3055.7812	3065.8755	3071.4009	3078.6698	3098.6846	3103.9754	3126.7041	3500.2437
O=C1CNCC2CCC12	O=C1CNC[C@H]2CC[C@@H]12	
InChI=1S/C7H11NO/c9-7-4-8-3-5-1-2-6(5)7/h5-6,8H,1-4H2	InChI=1S/C7H11NO/c9-7-4-8-3-5-1-2-6(5)7/h5-6,8H,1-4H2/t5-,6-/m1/s1
