17
gdb 125849	4.72146	1.25574	1.15195	3.1341	79.33	-0.2309	0.0039	0.2348	1095.3191	0.138238	-380.825024	-380.817997	-380.817053	-380.856374	27.73	
C	-0.2024782995	 1.328645677	 0.0170174714	-0.42653
C	 0.0934070645	-0.1520767215	 0.0923722256	-0.008337
C	 1.4963416671	-0.6113121382	-0.2266520272	-0.024838
C	 0.9962076357	-0.6567533725	 1.2208441286	-0.225032
C	 1.0724269902	-2.1645516837	 1.0942913468	 0.27179
C	 0.5403542645	-3.4300139129	 1.2159066334	-0.326132
C	 0.7949651816	-4.0033748578	-0.0672652876	 0.006115
N	 1.3567103374	-3.1570281113	-0.9373427862	-0.281001
N	 1.593034904	-2.0757474834	-0.1616368841	 0.061163
H	 0.6629017505	 1.9257899003	 0.3238682412	 0.121639
H	-0.4676659134	 1.6214088772	-1.0039655055	 0.132813
H	-1.0390068705	 1.5925768059	 0.6717934614	 0.131461
H	-0.7184259224	-0.8065821464	-0.2143805981	 0.116802
H	 2.2660512388	-0.0041265902	-0.684413938	 0.121381
H	 1.3056319747	-0.0343416789	 2.0486978019	 0.111201
H	 0.0630967369	-3.8999506416	 2.0596530358	 0.106381
H	 0.60033726	-5.0224050821	-0.3738356893	 0.111124
117.0514	203.753	228.5292	291.5232	309.4767	479.6185	499.3184	656.591	713.2863	755.4396	796.9032	807.761	822.535	840.3948	873.1007	893.1266	958.8799	1007.273	1017.9219	1034.5948	1041.374	1098.6696	1111.9691	1137.6936	1189.8204	1194.6855	1224.2157	1264.2231	1291.1102	1312.7025	1385.3142	1409.7195	1415.5989	1423.6882	1492.5554	1498.1708	1567.4009	3033.7348	3100.1364	3104.3498	3147.182	3205.6236	3217.8475	3229.3156	3275.1391
CC1C2C1C1=CC=NN21	C[C@H]1[C@H]2[C@@H]1c1ccnn21	
InChI=1S/C7H8N2/c1-4-6-5-2-3-8-9(5)7(4)6/h2-4,6-7H,1H3	InChI=1S/C7H8N2/c1-4-6-5-2-3-8-9(5)7(4)6/h2-4,6-7H,1H3/t4-,6+,7+/m1/s1
