20
gdb 116534	3.80397	0.83187	0.70048	3.8716	82.77	-0.2351	-0.0049	0.2302	1619.3813	0.169746	-436.501501	-436.490943	-436.489999	-436.537712	37.306	
C	-0.1441140185	 1.871098524	-0.4025233669	-0.3721
C	 0.6129869566	 0.6069707019	 0.0005802512	-0.131052
N	 1.1215864587	-0.0742631829	-1.1750702886	-0.303905
C	 2.0024759129	-0.9834712084	-1.0447072994	 0.438769
N	 2.4979559664	-1.5070964562	 0.1454657125	-0.571061
N	 2.5394026939	-1.5696261844	-2.2101446806	-0.14278
C	 2.3379690554	-0.8715796652	-3.4794292509	-0.331783
C	 3.0727230028	-2.843116715	-2.2313421464	 0.148134
O	 3.5112631893	-3.3874762213	-3.2199005042	-0.32776
H	 0.5174884179	 2.5597911924	-0.9361180297	 0.119556
H	-0.9736885046	 1.6195359711	-1.0691346783	 0.126152
H	-0.5451411963	 2.3851156766	 0.4767095407	 0.105092
H	 1.4252214471	 0.8825540383	 0.699058272	 0.078706
H	-0.0648817475	-0.0549410002	 0.5633313549	 0.102659
H	 2.1941239878	-1.009938067	 0.9686695245	 0.26092
H	 3.4858287452	-1.7152313272	 0.1636853831	 0.258619
H	 2.6720098605	 0.1629700162	-3.3872730939	 0.135162
H	 2.918500752	-1.4009900428	-4.2329668411	 0.158036
H	 1.2801392365	-0.8651902823	-3.7517635993	 0.147165
H	 3.0496352039	-3.3287487177	-1.2433391095	 0.101472
45.1404	78.305	122.2129	135.4179	140.8935	221.4184	280.5633	301.5922	330.502	354.4874	367.292	416.0711	452.1557	525.3626	576.6173	715.8026	753.0209	810.0785	845.156	902.9802	1021.9208	1045.0426	1072.5061	1119.3771	1139.976	1149.5038	1160.5218	1207.3961	1308.8731	1352.0185	1391.004	1393.8037	1411.0274	1444.6812	1453.339	1483.4043	1487.5879	1488.2133	1505.3018	1512.1933	1639.0384	1733.5526	1798.9109	2921.1559	2979.88	3013.9739	3041.2172	3066.5422	3113.57	3120.177	3132.7591	3178.0507	3572.6262	3675.8027
CCN=C(N)N(C)C=O	CCN=C(N)N(C)C=O	
InChI=1S/C5H11N3O/c1-3-7-5(6)8(2)4-9/h4H,3H2,1-2H3,(H2,6,7)	InChI=1S/C5H11N3O/c1-3-7-5(6)8(2)4-9/h4H,3H2,1-2H3,(H2,6,7)
