16
gdb 7528	3.7334	1.27498	1.2191	4.4062	62.16	-0.267	0.0047	0.2717	1039.1306	0.127486	-420.877804	-420.869222	-420.868278	-420.9108	30.861	
C	 0.0670038426	 1.5537397361	-0.3134188964	-0.444489
C	-0.0033902902	 0.0805509894	 0.0009425318	 0.379629
C	 1.2220862938	-0.7879520503	-0.1057843587	-0.368642
C	 0.614473221	-0.4898453876	 1.2494886688	 0.04463
O	 1.228908772	 0.4103501239	 2.1194993176	-0.416904
O	-1.1881975449	-0.5543307836	-0.4694266569	-0.224281
C	-2.3027289378	-0.3985661367	 0.2788769601	 0.152924
O	-3.3610948007	-0.8431780646	-0.049789219	-0.273791
H	 0.9879343505	 1.9797838019	 0.0874574239	 0.140449
H	 0.0370506862	 1.7123760678	-1.3955228812	 0.133998
H	-0.7738043093	 2.0928158876	 0.1354571303	 0.126379
H	 1.0954930017	-1.7859368314	-0.5091741629	 0.134865
H	 2.1509150618	-0.2901598457	-0.3619377048	 0.123197
H	 0.0747027162	-1.3072822566	 1.7274440805	 0.104665
H	 2.0305352264	-0.0011531214	 2.459647219	 0.295337
H	-2.1191604092	 0.164511641	 1.2125259178	 0.092032
94.5726	142.6643	168.4191	197.1326	229.5471	277.4769	297.0971	394.8998	413.7044	466.6931	506.3641	602.4033	767.3533	827.3677	925.6044	941.9442	966.5859	1036.8613	1043.0137	1054.054	1108.3581	1127.7771	1176.7374	1185.7207	1241.2709	1295.862	1330.2378	1415.023	1417.3602	1422.0001	1478.9489	1485.8959	1504.6398	1865.1691	2970.8268	3043.6305	3103.8238	3106.8522	3139.1734	3145.9085	3235.2864	3805.5513
CC1(CC1O)OC=O	C[C@]1(C[C@H]1O)OC=O	
InChI=1S/C5H8O3/c1-5(8-3-6)2-4(5)7/h3-4,7H,2H2,1H3	InChI=1S/C5H8O3/c1-5(8-3-6)2-4(5)7/h3-4,7H,2H2,1H3/t4-,5-/m1/s1
