22
gdb 118206	3.0608	0.83721	0.72875	1.2789	81.57	-0.251	0.0362	0.2873	1659.8465	0.191079	-441.490798	-441.479639	-441.478695	-441.528018	38.767	
C	 0.1574219419	 1.3819411967	-0.0932402661	-0.222275
O	 0.0634535149	-0.0203645614	-0.0603219321	-0.22766
C	 0.713511418	-0.5870983949	 1.0528784851	-0.067276
C	 0.5873575978	-2.1023050886	 1.0175318446	 0.129186
C	-0.8491146157	-2.5912126177	 0.8640269057	-0.403597
O	 1.3924571053	-2.5547642081	-0.0938468354	-0.25611
C	 1.9218500931	-3.792128104	-0.0291988608	 0.398883
C	 2.7166491119	-4.0726576325	-1.2802714017	-0.458476
N	 1.7357064897	-4.5525816287	 0.972302986	-0.524622
H	 1.2041532545	 1.7208813603	-0.151700939	 0.103709
H	-0.3745554683	 1.7255390393	-0.9837447721	 0.126913
H	-0.3013948003	 1.8447581959	 0.7956685164	 0.101646
H	 1.7805792234	-0.3104656754	 1.062695019	 0.090324
H	 0.2663472131	-0.2192511811	 1.9931369404	 0.084372
H	 1.0226745382	-2.5076592354	 1.9358285932	 0.109019
H	-1.2805244936	-2.2134054761	-0.0649266762	 0.135754
H	-0.8715765387	-3.6822939685	 0.8676348917	 0.136738
H	-1.4583371133	-2.2313806006	 1.6997169048	 0.110751
H	 2.0654771483	-4.0146618439	-2.1578049294	 0.147794
H	 3.4968691538	-3.3164308025	-1.4083745085	 0.144372
H	 3.176511334	-5.0613909755	-1.2403319658	 0.123271
H	 2.2226901219	-5.4359305872	 0.84358847	 0.217285
61.5933	65.6855	91.9393	107.5112	119.5213	178.9971	218.5487	231.7242	250.668	317.1382	334.6881	417.6345	459.274	576.3831	593.0257	654.6663	831.3447	842.7532	898.1214	937.537	963.7677	970.3195	1045.8326	1067.2259	1095.4606	1112.6345	1136.2751	1144.2971	1185.163	1189.1989	1234.207	1280.7546	1345.1609	1373.0049	1390.7846	1398.1463	1423.1289	1428.5089	1471.2652	1478.9986	1481.8311	1486.3877	1491.3432	1494.8314	1500.9615	1521.8836	1720.6142	2949.7774	2968.1714	2989.1839	3009.5223	3048.9291	3050.3951	3074.7974	3112.9637	3113.3426	3123.054	3142.6767	3151.099	3519.4059
COCC(C)OC(C)=N	COC[C@@H](C)O[C](C)[NH]	
InChI=1S/C6H13NO2/c1-5(4-8-3)9-6(2)7/h5,7H,4H2,1-3H3	InChI=1S/C6H13NO2/c1-5(4-8-3)9-6(2)7/h5,7H,4H2,1-3H3/t5-/m1/s1
