14
gdb 34443	3.09805	1.75266	1.28429	3.3307	65.37	-0.2657	0.0053	0.271	924.3891	0.101783	-436.62045	-436.613923	-436.612979	-436.651409	25.554	
N	-0.0095484162	-1.1347171712	 0.0363882223	-0.322295
C	-0.0072948508	 0.0212383694	 0.0366181819	 0.184336
C	-0.0255012461	 1.4605333881	 0.0584215399	 0.157379
C	-0.9115500376	 2.194117483	 1.0648652991	-0.148879
O	-0.6256204292	 3.5689597125	 0.7414839081	-0.267658
C	 0.2955470796	 3.4679729506	-0.3043033717	 0.092122
C	 1.3021670597	 2.2982532555	-0.083888239	-0.013735
O	 1.3645441415	 2.0489757076	-1.5190546747	-0.300762
C	-0.0510830915	 2.2992772754	-1.2759585726	-0.013713
H	-1.9773681408	 1.9863397007	 0.9247822732	 0.134462
H	-0.6383481698	 1.985314963	 2.1043478613	 0.13445
H	 0.6264837417	 4.4325245026	-0.6791516207	 0.124311
H	 2.2148976082	 2.2231011466	 0.5044349405	 0.119986
H	-0.7498956188	 2.2253553262	-2.1072509176	 0.119997
144.4114	163.9971	292.5531	415.7915	417.6055	509.733	535.6104	619.9769	689.2758	721.4765	753.8405	813.4512	886.8836	889.944	945.7577	967.3714	1042.9642	1069.1578	1085.6597	1098.3355	1147.3783	1163.2878	1175.5162	1204.9326	1205.0325	1245.7175	1277.0841	1318.3928	1392.2686	1519.6197	2359.2676	3045.0177	3091.1681	3142.7999	3145.6295	3180.5722
N#CC12COC3C1OC23	N#C[C@@]12CO[C@H]3[C@@H]1O[C@@H]23	
InChI=1S/C6H5NO2/c7-1-6-2-8-3-4(6)9-5(3)6/h3-5H,2H2	InChI=1S/C6H5NO2/c7-1-6-2-8-3-4(6)9-5(3)6/h3-5H,2H2/t3-,4-,5+,6+
