23
gdb 105084	2.47723	1.12623	1.05256	1.7893	85.03	-0.2515	0.0813	0.3328	1336.3434	0.204123	-388.261157	-388.251163	-388.250218	-388.296451	37.61	
C	-2.1128011836	-0.8275615279	 2.3559951518	-0.402189
C	-1.6587458107	-1.9022918583	 1.3651714426	-0.255578
C	-0.4146626033	-1.5627366145	 0.5562335033	 0.387917
C	-0.0268106037	-0.1650071662	 0.2889276723	-0.217698
O	 0.628388247	-0.9159563689	 1.3128221035	-0.278646
C	 0.1350609247	-2.6246446017	-0.3747244845	-0.073158
C	-0.5846507693	-3.9077479979	-0.722398457	-0.318248
C	-0.3720861087	-2.8596174895	-1.7847574542	 0.013719
C	-1.5367954105	-2.0854456144	-2.3619442336	-0.412123
H	-1.2775974302	-0.5060483642	 2.9832426343	 0.140577
H	-2.5188689365	 0.052782671	 1.848027671	 0.114229
H	-2.9001154362	-1.220137116	 3.0057738049	 0.111586
H	-1.4451929105	-2.8318104084	 1.9082551439	 0.112673
H	-2.4787159672	-2.1415188171	 0.6772912512	 0.103853
H	 0.5803820297	 0.0519324886	-0.5894196196	 0.106576
H	-0.6407347713	 0.6623927658	 0.6388854789	 0.107991
H	 1.2109720505	-2.7078374353	-0.2546138467	 0.099785
H	-0.0075684403	-4.8253997509	-0.7585931537	 0.110716
H	-1.5967270563	-4.0419681107	-0.355693524	 0.110632
H	 0.4065084514	-3.0798697261	-2.5109458089	 0.083345
H	-2.3104018674	-1.8914482227	-1.6131443269	 0.118632
H	-1.214525516	-1.1165108229	-2.759431178	 0.117147
H	-2.0058712617	-2.6405474819	-3.1817403406	 0.118263
34.049	92.0294	152.7385	178.2911	210.9882	232.6946	292.038	329.8607	346.9427	379.0764	411.4487	476.3344	570.831	671.1696	771.3138	781.2618	832.8823	846.6179	868.3366	913.169	936.2992	941.9304	1016.2645	1037.9484	1060.2571	1077.5226	1097.7729	1113.0188	1128.1683	1144.8289	1151.6941	1167.4575	1199.339	1211.5179	1265.8679	1301.459	1346.4587	1379.6876	1394.9162	1404.9909	1420.3678	1425.1121	1482.3909	1489.9724	1494.9124	1496.8726	1505.6399	1511.4902	1529.6718	3025.4074	3030.4082	3043.5771	3057.1401	3084.1447	3087.5637	3103.8978	3106.9284	3127.7057	3132.7544	3134.5988	3154.3583	3170.182	3215.1773
CCC1(CO1)C1CC1C	CC[C@]1(CO1)[C@H]1C[C@H]1C	
InChI=1S/C8H14O/c1-3-8(5-9-8)7-4-6(7)2/h6-7H,3-5H2,1-2H3	InChI=1S/C8H14O/c1-3-8(5-9-8)7-4-6(7)2/h6-7H,3-5H2,1-2H3/t6-,7+,8+/m1/s1
