17
gdb 53028	4.09235	1.01583	0.908	2.011	83.73	-0.2288	0.0209	0.2496	1329.1859	0.134593	-384.572081	-384.56393	-384.562986	-384.606519	30.154	
C	 0.0232068824	 1.4085352593	 0.0557087847	-0.51934
C	 0.0463095872	-0.0445327404	 0.0200937771	 0.384848
C	 0.0718189685	-1.2492517509	-0.0019212128	-0.39163
C	 0.0873155614	-2.6738307595	-0.0455647039	 0.466533
O	 0.9033609838	-3.4496898899	 0.8989321715	-0.363054
C	 0.2515362445	-4.4553772682	 0.073553738	 0.032052
C	-1.1083903645	-3.7004817888	-0.0233398002	-0.138913
C	-1.1368611093	-3.7995208272	-1.5623583759	-0.279739
C	 0.3666636782	-3.6467732601	-1.2536871475	-0.138922
H	 0.6734434012	 1.7867117528	 0.8520979529	 0.159115
H	 0.3726393335	 1.836525718	-0.8902334896	 0.153173
H	-0.9874404802	 1.787195203	 0.2435855125	 0.153169
H	 0.455193383	-5.5060979979	 0.2718500528	 0.09497
H	-1.9209163169	-3.7149390052	 0.702637611	 0.088795
H	-1.4521663302	-4.7582731939	-1.9822268384	 0.10074
H	-1.6110451705	-2.9713382996	-2.0947034577	 0.109408
H	 1.225964848	-3.6003572615	-1.9221911544	 0.088794
19.3887	86.8666	107.8006	272.6581	297.5433	395.257	472.8936	481.5465	532.4733	552.153	735.7982	774.758	810.8127	853.3441	876.7165	891.8702	898.3622	977.268	1016.3377	1023.5855	1047.2168	1052.4595	1055.4403	1093.8765	1104.9085	1143.2426	1167.0467	1178.0606	1238.0858	1248.4311	1284.5218	1376.892	1413.5832	1473.5074	1476.3582	1510.9705	2363.7068	3028.3437	3057.4143	3090.3332	3092.6448	3115.2382	3122.9972	3123.5752	3143.2969
CC#CC12OC3C1CC23	CC#C[C@@]12O[C@H]3[C@@H]1C[C@@H]23	
InChI=1S/C8H8O/c1-2-3-8-5-4-6(8)7(5)9-8/h5-7H,4H2,1H3	InChI=1S/C8H8O/c1-2-3-8-5-4-6(8)7(5)9-8/h5-7H,4H2,1H3/t5-,6+,7-,8+
