16
gdb 72568	2.44846	2.00845	1.50991	2.884	62.67	-0.2519	0.0045	0.2564	899.9466	0.126702	-475.059176	-475.051984	-475.051039	-475.090655	28.117	
N	-0.0119577218	 1.4365905056	 0.0841547419	-0.594344
C	-0.0242295348	 0.0012204485	 0.0168129758	 0.100094
C	 0.6385959111	-0.7062592562	 1.232309995	-0.097327
O	 0.1891670247	-2.0717222808	 1.116521653	-0.25349
C	-0.6409325522	-2.0906746524	-0.0161464909	 0.202761
C	-1.3749733545	-0.7496857694	 0.0185788385	-0.292752
O	 0.1860358463	-1.9754017133	-1.2046633378	-0.234611
C	 0.6162287893	-0.675331684	-1.2127444749	 0.420845
O	 1.3538302583	-0.2136710864	-2.0319437961	-0.353757
H	 0.9333758297	 1.7674510942	-0.0984802934	 0.245825
H	-0.5769580079	 1.8190640932	-0.6694037504	 0.240339
H	 1.732490908	-0.6778725841	 1.2102208898	 0.125705
H	 0.2793257331	-0.2622074177	 2.1668469513	 0.124223
H	-1.1863540666	-3.0289617136	-0.0673408698	 0.114406
H	-1.9577279417	-0.603023019	 0.9294684726	 0.129142
H	-1.9848653409	-0.5653490045	-0.8681909045	 0.122942
133.1466	166.4444	245.7801	287.0473	338.5205	449.6479	485.9411	540.4567	578.2237	649.0345	738.9011	754.204	825.9742	877.6135	898.7081	927.5016	945.2099	964.0888	1002.2691	1040.9934	1049.8944	1098.4318	1110.2412	1176.3092	1239.8647	1247.	1294.7801	1303.4469	1338.7773	1365.3334	1395.9666	1493.9549	1526.4959	1666.0611	1895.9929	3040.8288	3078.8929	3092.7373	3142.4761	3174.4046	3482.2944	3551.9915
NC12COC(C1)OC2=O	N[C@@]12CO[C@@H](C1)OC2=O	
InChI=1S/C5H7NO3/c6-5-1-3(8-2-5)9-4(5)7/h3H,1-2,6H2	InChI=1S/C5H7NO3/c6-5-1-3(8-2-5)9-4(5)7/h3H,1-2,6H2/t3-,5-/m1/s1
