20
gdb 127089	3.97991	1.04233	0.84418	3.4492	84.44	-0.1875	0.0495	0.237	1403.1012	0.171052	-399.34639	-399.336518	-399.335574	-399.38151	35.348	
C	-0.2658697225	 1.3799863239	-0.0284648024	-0.345293
N	 0.1866100425	 0.0008568974	 0.0221997647	-0.165142
C	-0.0500637871	-0.7002368566	 1.2723709303	-0.330611
C	 0.0450336425	-0.7607976671	-1.1271338606	 0.51432
C	-0.0059117445	-2.1339904299	-1.3162964107	-0.428383
C	-0.0976651322	-2.3083092603	-2.7201293809	 0.365772
C	-0.1773057264	-3.5939698169	-3.4817823093	-0.490421
N	-0.1149567292	-1.1471707531	-3.3616757961	-0.303784
N	-0.0308935546	-0.2136889342	-2.3708401253	-0.302913
H	 0.2679889616	 1.9325680537	-0.8091671546	 0.125039
H	-1.3489437275	 1.4805202458	-0.2094437767	 0.118293
H	-0.029513983	 1.8651965506	 0.9212469111	 0.131833
H	-1.0998224169	-1.0091789004	 1.4046219091	 0.114429
H	 0.5776790401	-1.5937863288	 1.31774018	 0.140397
H	 0.229622151	-0.049758897	 2.1049021379	 0.12303
H	 0.0142216313	-2.8993720324	-0.5592443654	 0.090053
H	-1.0479992336	-4.1864269027	-3.1788722859	 0.122093
H	-0.2564063522	-3.3865671613	-4.5511046557	 0.135583
H	 0.7100239586	-4.2149600717	-3.3147580573	 0.123056
H	-0.023989498	 0.7573500509	-2.6229326323	 0.262649
44.4347	106.0076	131.393	167.9133	180.1013	229.7226	247.3999	322.0413	341.2333	386.0375	427.3597	509.6335	580.4533	680.2211	700.6618	721.7814	742.374	948.4444	992.95	1007.6209	1045.4302	1064.9011	1080.3294	1128.7937	1150.0628	1165.2268	1173.8056	1241.5923	1284.485	1349.739	1404.1616	1429.3855	1448.5624	1473.9755	1476.9651	1483.5645	1486.9848	1491.4612	1494.3522	1504.0046	1515.442	1554.6624	1627.8208	2966.5665	2975.3456	3031.7626	3060.3282	3080.5585	3081.4209	3115.9397	3122.7422	3130.0185	3271.1928	3703.8279
CN(C)C1=CC(C)=NN1	CN(C)c1cc(C)n[nH]1	
InChI=1S/C6H11N3/c1-5-4-6(8-7-5)9(2)3/h4H,1-3H3,(H,7,8)	InChI=1S/C6H11N3/c1-5-4-6(8-7-5)9(2)3/h4H,1-3H3,(H,7,8)
