17
gdb 52228	4.10949	0.70028	0.64691	4.0803	72.83	-0.2581	-0.0373	0.2208	1669.5472	0.135201	-455.146055	-455.136763	-455.135819	-455.18224	32.034	
O	-0.1389928181	 0.6141135688	-1.0471252868	-0.31826
C	-0.0230365873	 1.3472714449	-0.0887478426	 0.154314
N	 1.1083395391	 1.4956347243	 0.6538331955	-0.272357
C	 2.3476050342	 0.7969091114	 0.3601880289	-0.175979
C	 3.4113379602	 1.7589248887	-0.1268147794	-0.011138
N	 4.0867724291	 2.5610382768	 0.8867081177	-0.341347
C	 4.8839145941	 1.580797559	 0.1181709877	-0.127931
C	 5.4428246611	 0.4393394962	 0.8993459122	 0.172888
O	 6.3819003501	-0.2191670431	 0.5308882233	-0.251345
H	-0.8475467692	 1.9818038255	 0.291861063	 0.078808
H	 1.1079881396	 2.1616044234	 1.4104330462	 0.256253
H	 2.6908987698	 0.2677290657	 1.2537748575	 0.116153
H	 2.1165892448	 0.0606259046	-0.4129314186	 0.159202
H	 3.1635270199	 2.2432988124	-1.0703064923	 0.11305
H	 4.2784516239	 3.5016394572	 0.5538771076	 0.247741
H	 5.5454976911	 1.9319355003	-0.6699651933	 0.113106
H	 4.9324447775	 0.2494657439	 1.8682915335	 0.086842
32.32	45.4306	84.0009	153.3221	203.9455	263.4353	305.998	348.7999	443.0848	454.4312	542.0665	558.4968	742.5536	832.615	860.8667	912.8199	960.2867	993.4901	1011.215	1034.1196	1041.8815	1060.1819	1139.6384	1191.3872	1209.3796	1233.3725	1242.6616	1301.7289	1353.5015	1375.792	1420.3117	1429.4609	1470.734	1474.3107	1530.1505	1806.2388	1825.3786	2901.0798	2940.9666	3062.8546	3118.6028	3131.2325	3150.3901	3516.9181	3634.9728
O=CNCC1NC1C=O	O=CNC[C@H]1N[C@H]1C=O	
InChI=1S/C5H8N2O2/c8-2-5-4(7-5)1-6-3-9/h2-5,7H,1H2,(H,6,9)	InChI=1S/C5H8N2O2/c8-2-5-4(7-5)1-6-3-9/h2-5,7H,1H2,(H,6,9)/t4-,5+/m1/s1
