17
gdb 80811	1.98891	1.65756	1.24013	4.4056	74.69	-0.2435	0.0248	0.2683	1075.2399	0.136907	-417.960419	-417.952102	-417.951158	-417.993007	32.11	
N	 0.2313942822	 1.4781337399	-0.0520735211	-0.540439
C	 0.0626575187	 0.0608190394	 0.0163332347	 0.046059
C	-0.055393189	-0.6383984592	 1.4013550027	-0.138515
C	-1.5352072854	-0.16352936	 1.4845101623	-0.287126
C	-1.3674131105	-0.6793538261	 0.0228735495	 0.168188
C	-2.3555320346	-0.695707177	-1.0199609604	 0.13859
N	-3.1369130722	-0.6770224838	-1.8735076171	-0.353959
C	-0.6227316522	-1.8887817059	 0.6446121546	 0.121625
O	 0.1814518238	-2.6131964732	-0.2390855025	-0.431633
H	 0.2003467449	 1.8046239098	-1.0110904172	 0.243939
H	-0.456942702	 1.9995977976	 0.4772508343	 0.233547
H	 0.7646181148	-0.414913522	-0.6663968585	 0.112401
H	 0.6810791177	-0.6281990388	 2.2042955243	 0.085692
H	-2.2086963998	-0.7436889494	 2.120439847	 0.111393
H	-1.718902799	 0.9029806635	 1.6090725	 0.109966
H	-1.2564393202	-2.5421100547	 1.2562560702	 0.086013
H	 0.6620437625	-3.2806824801	 0.2599975473	 0.294259
117.3984	142.3222	236.4838	238.225	260.2691	322.1553	357.87	388.5961	513.8864	540.3948	566.21	577.988	673.0507	767.0093	780.0305	816.4549	852.6015	923.7969	943.2511	965.4099	1029.4814	1076.8647	1122.1918	1143.9736	1162.9762	1182.1505	1203.6102	1215.053	1236.9382	1255.5369	1266.3301	1316.3837	1437.4118	1460.1164	1528.1292	1662.5033	2341.6755	3036.2951	3073.8877	3124.6084	3136.8284	3143.0876	3522.4063	3604.0328	3829.2356
NC1C2CC1(C#N)C2O	N[C@H]1[C@H]2C[C@]1(C#N)[C@H]2O	
InChI=1S/C6H8N2O/c7-2-6-1-3(4(6)8)5(6)9/h3-5,9H,1,8H2	InChI=1S/C6H8N2O/c7-2-6-1-3(4(6)8)5(6)9/h3-5,9H,1,8H2/t3-,4+,5+,6-/m1/s1
