15
gdb 48140	3.20314	1.25816	1.07191	1.9475	62.16	-0.2417	-0.1017	0.1399	1117.241	0.111096	-494.900231	-494.891771	-494.890827	-494.934755	28.761	
O	-0.5917492734	 1.0959813025	-0.6659938564	-0.213254
C	 0.2265713045	 0.9682612177	 0.2056785075	 0.095683
C	 1.2750592164	 2.0372533093	 0.5324467749	 0.276817
O	 2.1526054478	 1.7829616403	 1.3197872023	-0.27787
C	 1.0967532987	 3.406398317	-0.1552996101	 0.114408
O	 0.0665684473	 4.0530774593	 0.5916468926	-0.28118
C	 0.6621252444	 5.1577184426	 1.2805662685	-0.084898
C	 2.1685036174	 4.9180983188	 1.131814563	-0.119101
O	 2.2420068468	 4.1931688576	-0.0978026491	-0.23668
H	 0.3238366656	 0.056523822	 0.8323992193	 0.112393
H	 0.7897089735	 3.2873459038	-1.1990656723	 0.121076
H	 0.3497532304	 6.0926394363	 0.7997667298	 0.116898
H	 0.3254404363	 5.1571840672	 2.320794559	 0.121705
H	 2.7499648161	 5.8348101523	 1.0187891908	 0.12378
H	 2.5727004881	 4.3202367634	 1.9550836402	 0.130222
45.1331	76.7672	119.5817	148.1212	213.1369	235.8364	316.0661	520.4498	566.9508	611.8989	669.6686	770.6678	850.9198	887.4562	935.4434	955.6974	996.9168	1020.5967	1059.0436	1136.3721	1159.7549	1206.1648	1219.5864	1245.6113	1308.9262	1360.4174	1370.4612	1377.3313	1399.4429	1514.0362	1524.7569	1820.0622	1822.2162	2922.6935	3030.769	3055.7817	3069.7862	3094.9732	3126.0634
O=CC(=O)C1OCCO1	O=CC(=O)C1OCCO1	
InChI=1S/C5H6O4/c6-3-4(7)5-8-1-2-9-5/h3,5H,1-2H2	InChI=1S/C5H6O4/c6-3-4(7)5-8-1-2-9-5/h3,5H,1-2H2
