21
gdb 65127	3.28867	1.2962	1.17803	1.6316	82.37	-0.2582	0.0943	0.3525	1151.8048	0.182758	-387.017936	-387.009779	-387.008835	-387.050908	32.26	
C	 0.0458096757	 1.5906999247	-0.4266125552	-0.461057
C	 0.0201594395	 0.1218088554	-0.0595649399	 0.370574
C	 1.157724019	-0.7357001188	-0.4335441969	-0.224758
O	 1.0091708249	-0.2684790094	 0.9085359625	-0.26897
C	-1.3596589319	-0.4952298772	 0.0423598042	-0.025595
C	-1.6712217147	-1.707375626	 0.9757516884	-0.057157
C	-1.649469975	-0.7259067319	 2.1874602615	-0.220601
C	-2.4355329922	 0.010359328	 1.0624879891	-0.063748
C	-3.1742773361	-1.3355465752	 0.808080633	-0.223902
H	 1.0737385697	 1.9451499544	-0.5362376024	 0.12448
H	-0.4872411757	 1.7659859156	-1.3675328574	 0.120366
H	-0.4427316778	 2.1889781612	 0.3495244128	 0.129066
H	 1.0069628698	-1.8056846376	-0.5724215857	 0.109578
H	 1.9956421253	-0.3114312645	-0.9861078182	 0.106921
H	-1.7554577592	-0.6028816065	-0.9764283761	 0.06654
H	-1.2314832182	-2.7046525776	 0.9250440189	 0.068315
H	-2.2410671721	-1.0304840319	 3.0556853085	 0.083605
H	-0.6819732789	-0.3246177299	 2.4799600026	 0.125662
H	-2.8833845383	 1.0047948373	 1.1061829326	 0.066348
H	-3.6154065172	-1.4812551359	-0.1823761749	 0.084921
H	-3.8452933369	-1.6744662143	 1.6015855225	 0.089412
47.7737	160.4546	190.3425	218.8131	321.9407	349.1359	400.6417	445.7719	522.0665	587.396	769.3625	777.6243	808.2749	856.0211	875.4189	886.4572	899.9527	905.7303	924.6533	998.0023	1011.0944	1021.2392	1031.2924	1042.5861	1087.9027	1108.6054	1116.0831	1127.8506	1136.6746	1145.3412	1166.6983	1192.5667	1214.0394	1242.5237	1245.6356	1260.645	1281.6596	1382.3855	1406.1988	1412.6734	1482.0142	1495.9042	1501.6934	1527.3655	1542.873	3013.5615	3035.4725	3046.2114	3061.5661	3076.6449	3092.8188	3099.2581	3100.8456	3113.2286	3121.6642	3162.0605	3168.6204
CC1(CO1)C1C2CC1C2	C[C@]1(CO1)[C@H]1[C@H]2C[C@@H]1C2	
InChI=1S/C8H12O/c1-8(4-9-8)7-5-2-6(7)3-5/h5-7H,2-4H2,1H3	InChI=1S/C8H12O/c1-8(4-9-8)7-5-2-6(7)3-5/h5-7H,2-4H2,1H3/t5-,6+,7-,8-/m0/s1
