20
gdb 89089	5.31108	0.56237	0.54229	5.2824	81.06	-0.2702	0.0346	0.3048	2015.2918	0.169393	-403.153306	-403.143267	-403.142322	-403.189718	35.179	
C	 0.252919411	 1.4628797609	-0.3353620848	-0.420719
C	 0.0098577024	 0.0307658294	 0.0663033754	 0.077511
O	 1.154395855	-0.8105746641	 0.2560300169	-0.262537
C	 0.3129848035	-0.54929297	 1.3862734206	 0.05961
C	 0.9345093225	 0.1921437656	 2.5458829743	-0.236215
C	 1.9232183549	-0.6970090821	 3.3121833315	-0.170675
C	 2.5716762135	 0.0503712688	 4.4934600649	-0.344161
C	 3.5061491139	-0.7846295871	 5.2451154894	 0.257249
N	 4.2400872004	-1.4581396948	 5.8307774581	-0.302822
H	 1.0592829803	 1.9207985772	 0.2405166628	 0.127485
H	 0.5272257213	 1.5119249452	-1.3942067896	 0.134484
H	-0.6576150397	 2.0563557079	-0.1987396277	 0.124307
H	-0.7911073467	-0.4560527861	-0.4951142096	 0.090173
H	-0.2847654986	-1.4140943027	 1.6874656928	 0.089173
H	 1.4508507399	 1.0885787334	 2.1886512911	 0.106651
H	 0.1346343682	 0.5279744881	 3.220044619	 0.104244
H	 1.4123387384	-1.5899662177	 3.6893762692	 0.121235
H	 2.7026366146	-1.0451181766	 2.6274005839	 0.141804
H	 3.1101784598	 0.935053654	 4.1333221006	 0.152943
H	 1.8006884852	 0.4134601107	 5.1836960711	 0.150261
38.7269	81.7064	87.6146	111.1943	156.6876	195.9412	261.1356	312.4044	381.9465	399.684	477.3708	505.99	576.0948	737.7368	768.1429	816.9699	856.459	928.8259	947.9545	993.3253	1022.3059	1045.9607	1049.9818	1104.7976	1121.6714	1169.3517	1176.0868	1204.2369	1261.0934	1297.9977	1306.7657	1328.8536	1343.5156	1386.843	1405.7895	1421.8424	1467.3713	1469.4503	1474.0034	1491.9139	1502.5075	1514.4454	2363.1417	3020.4755	3035.3856	3040.9477	3049.599	3063.4375	3069.8888	3080.5062	3085.0728	3101.6684	3105.4461	3136.7341
CC1OC1CCCC#N	C[C@H]1O[C@H]1CCCC#N	
InChI=1S/C7H11NO/c1-6-7(9-6)4-2-3-5-8/h6-7H,2-4H2,1H3	InChI=1S/C7H11NO/c1-6-7(9-6)4-2-3-5-8/h6-7H,2-4H2,1H3/t6-,7+/m1/s1
