20
gdb 80654	2.53445	1.74751	1.28482	3.6711	78.42	-0.2358	0.0288	0.2646	1043.9561	0.173477	-403.186191	-403.178342	-403.177398	-403.218341	31.564	
C	-0.1916631374	 1.5264638392	 0.031752929	-0.404674
C	 0.0532214028	 0.013677664	-0.0221865966	-0.089979
C	 0.7982747264	-0.4465054784	-1.2900396394	-0.025967
C	 1.1129458043	-1.9674891677	-1.1873559355	-0.235578
C	 2.3239972751	-1.5301779595	-0.3199659163	 0.011703
C	 2.3310691938	-0.20661378	-1.1340836904	-0.230338
N	 1.8572215204	-1.2535066215	 1.0346290846	-0.302108
C	 0.7748199265	-0.4502145074	 1.262780987	 0.398372
O	 0.4045423073	-0.1320386229	 2.3773110326	-0.390875
H	 0.7454877425	 2.0864927226	-0.0568555937	 0.115847
H	-0.8500489946	 1.8400221658	-0.7842992283	 0.108454
H	-0.6547644771	 1.7923263678	 0.9840389848	 0.145227
H	-0.9252675035	-0.4856380639	 0.0038355933	 0.101977
H	 0.3054884236	-0.0778355965	-2.1931656571	 0.065997
H	 0.3743103631	-2.6224857052	-0.7178379157	 0.100899
H	 1.4295682108	-2.3849325284	-2.1462769186	 0.102284
H	 3.2181518153	-2.1527140771	-0.2761176356	 0.074972
H	 2.8558444013	-0.3160463877	-2.0862109419	 0.103455
H	 2.6763811939	 0.6934850217	-0.6195097803	 0.103281
H	 2.3873247856	-1.5475997449	 1.840078388	 0.247052
75.9394	202.5449	227.479	269.8308	387.1607	396.4313	407.1405	449.441	503.0228	524.6474	609.8246	694.5429	768.6439	809.9274	836.6209	882.9467	890.9735	912.7777	971.1875	985.6258	1036.6242	1064.2815	1086.3886	1101.8451	1120.6789	1124.1602	1128.5101	1161.2909	1241.8665	1258.7141	1269.1139	1287.3062	1303.5436	1332.4572	1363.267	1380.9252	1403.5701	1449.9882	1471.5291	1495.4571	1501.7563	1505.4623	1791.9596	3014.3239	3038.1527	3056.3029	3059.9141	3075.7612	3102.3083	3106.4272	3118.1779	3121.6826	3135.5435	3631.5439
CC1C2CC(C2)NC1=O	C[C@H]1[C@@H]2C[C@@H](C2)NC1=O	
InChI=1S/C7H11NO/c1-4-5-2-6(3-5)8-7(4)9/h4-6H,2-3H2,1H3,(H,8,9)	InChI=1S/C7H11NO/c1-4-5-2-6(3-5)8-7(4)9/h4-6H,2-3H2,1H3,(H,8,9)/t4-,5-,6+/m0/s1
