21
gdb 76237	2.72248	1.36184	1.09945	1.8158	84.38	-0.234	0.028	0.262	1201.8362	0.181558	-387.094259	-387.085183	-387.084238	-387.127958	34.698	
C	 0.6371953898	 1.7742676717	-0.1029852338	-0.398672
C	 0.2151183627	 0.2973875071	 0.000320176	-0.157307
C	 0.7094422324	-0.5341151044	-1.1743925469	 0.334586
C	 0.1756552976	-0.3344498047	-2.5583962808	-0.497733
C	 1.6482873489	-1.4057886146	-0.7962838179	-0.179516
C	 1.9429176122	-1.352056515	 0.6805738679	-0.336962
C	 0.8296650379	-0.4396515231	 1.2009147466	 0.416949
C	 0.7404582545	 0.0236218939	 2.5879465739	-0.248792
O	-0.0957972474	-1.0379204227	 2.1199408435	-0.273163
H	 1.727349669	 1.8692347843	-0.146174921	 0.117465
H	 0.2259047725	 2.2390063451	-1.0045738598	 0.11632
H	 0.2789797454	 2.3496426682	 0.7560669846	 0.115435
H	-0.878058511	 0.2512754665	 0.0894423505	 0.088706
H	 0.3411427303	 0.6901426983	-2.9136691468	 0.125679
H	 0.6466255768	-1.0170802199	-3.2709982215	 0.123259
H	-0.9083773286	-0.5036140332	-2.5907482038	 0.12708
H	 2.16068481	-2.086112763	-1.4686720775	 0.085544
H	 1.8901789128	-2.3278019937	 1.1767114897	 0.119898
H	 2.9422227851	-0.9429629727	 0.8858867137	 0.107462
H	 1.5098343412	-0.2658429539	 3.304242162	 0.106501
H	 0.2261374279	 0.9548242056	 2.8241831013	 0.107263
52.3942	158.8267	205.4222	213.4805	243.1408	260.3355	269.8357	344.1795	412.4318	462.4874	507.5617	580.7855	646.986	761.0592	797.8265	823.6933	837.2225	890.5162	962.8265	969.7097	999.3442	1020.0547	1039.9993	1047.406	1089.0335	1105.3929	1129.8573	1160.4739	1168.3414	1191.998	1232.6755	1272.6895	1296.4554	1321.022	1344.4102	1404.4709	1414.6735	1425.8557	1474.5341	1477.6235	1488.8527	1496.4081	1500.2972	1535.959	1719.9014	3007.3303	3017.5902	3024.5264	3033.5348	3060.8083	3064.231	3072.3067	3103.1617	3105.4841	3109.7191	3153.9248	3183.787
CC1C(C)=CCC11CO1	C[C@H]1C(=CC[C@]21CO2)C	
InChI=1S/C8H12O/c1-6-3-4-8(5-9-8)7(6)2/h3,7H,4-5H2,1-2H3	InChI=1S/C8H12O/c1-6-3-4-8(5-9-8)7(6)2/h3,7H,4-5H2,1-2H3/t7-,8+/m0/s1
