21
gdb 71245	2.16697	2.07009	1.64384	1.5353	81.78	-0.2339	0.0861	0.32	975.3361	0.182755	-387.065984	-387.058038	-387.057094	-387.097668	32.683	
C	-0.1614330977	 1.483221164	 0.065901472	-0.503303
C	 0.0558212651	-0.0024091083	 0.0438895594	 0.391051
C	 0.9316556651	-0.7532597972	-0.9926272747	-0.283457
C	 0.8226297713	-1.8909897477	 0.0279502922	-0.10777
C	-0.7107472821	-1.9913648168	 0.4164027267	 0.079472
C	-0.3457132705	-1.6649950548	 1.8787397765	-0.294022
C	 0.7712165174	-0.8443389421	 1.2097999795	 0.284398
C	 1.9616747061	-0.2702473379	 1.931907028	-0.511047
O	-1.1869884398	-0.7271347361	-0.0658199799	-0.304294
H	 0.7925513957	 2.0144247632	 0.1331675003	 0.117434
H	-0.6703114146	 1.8075928913	-0.8478236007	 0.129544
H	-0.7822917543	 1.7719278835	 0.9197820797	 0.124906
H	 0.5075593545	-0.8727875434	-1.9929622553	 0.095663
H	 1.9533452447	-0.3681321813	-1.0500026034	 0.096578
H	 1.4353348285	-2.7912153746	 0.0385328067	 0.067929
H	-1.3719312433	-2.802468292	 0.1151905665	 0.074245
H	-1.1120966594	-1.1676558068	 2.4803324284	 0.094204
H	 0.0738606453	-2.5215353354	 2.4157239317	 0.093168
H	 2.4758066752	-1.0378552964	 2.5206649317	 0.117609
H	 2.6926611554	 0.159330079	 1.2376598519	 0.116805
H	 1.6573200273	 0.5261857297	 2.6214671128	 0.120886
186.3501	193.6781	201.3493	226.6898	295.304	347.9037	447.1713	454.7678	533.1238	579.5935	628.4682	670.1224	713.6075	813.9725	837.4944	858.6597	886.3689	919.3875	923.2037	955.4062	970.0495	990.4435	1001.3578	1041.9945	1080.479	1107.5369	1145.8473	1156.5153	1177.7875	1181.1227	1211.2799	1220.2391	1245.4539	1275.1127	1303.1421	1327.7888	1329.4731	1411.8419	1414.7621	1478.0214	1480.914	1483.4774	1488.3988	1491.5496	1496.1041	3021.3928	3036.4932	3046.5045	3057.4168	3082.8176	3089.1717	3105.3458	3106.7448	3112.5262	3117.7829	3125.7219	3134.8821
CC12CC3C(CC13C)O2	C[C@@]12C[C@@H]3[C@@H](C[C@]13C)O2	
InChI=1S/C8H12O/c1-7-4-6-5(7)3-8(7,2)9-6/h5-6H,3-4H2,1-2H3	InChI=1S/C8H12O/c1-7-4-6-5(7)3-8(7,2)9-6/h5-6H,3-4H2,1-2H3/t5-,6-,7+,8-/m1/s1
