15
gdb 127902	3.91902	1.21401	0.9322	2.0734	78.62	-0.2427	-0.0736	0.1691	1201.0128	0.113612	-446.283493	-446.275169	-446.274225	-446.317122	29.983	
C	-0.2432386504	 1.448807078	-0.0865820353	-0.328923
N	 0.1435634434	 0.061483275	 0.0745250665	-0.316197
C	 0.7793213414	-0.5463302633	-0.8372785119	 0.496054
N	 1.1321146042	-1.8798257318	-0.6419711914	-0.390433
C	 1.8173342561	-2.6484053849	-1.5463692411	 0.4949
N	 2.1134247967	-3.8632086077	-1.3160514397	-0.557587
N	 2.1169032963	-1.9099099329	-2.6978137478	-0.302531
N	 1.796868402	-0.613549614	-2.9349014653	-0.024254
N	 1.1675964958	 0.0467880018	-2.0728226462	-0.244731
H	 0.1870698396	 2.0316512219	 0.7363513574	 0.127797
H	 0.0588711751	 1.8962726795	-1.0379590214	 0.139704
H	-1.3322862382	 1.5242684582	 0.0152325762	 0.127798
H	 0.8636886733	-2.3139104179	 0.2294405015	 0.278756
H	 2.6212952209	-4.2898468254	-2.0868407681	 0.219261
H	 2.6204371939	-2.3429791865	-3.4549474336	 0.280386
55.4594	99.7961	124.4625	231.6141	236.1827	369.9584	395.737	492.8597	514.5692	551.9362	626.1673	627.0163	706.7655	741.613	748.3498	771.788	934.2072	1008.5439	1056.0421	1071.6613	1133.9724	1134.6491	1160.9381	1283.624	1385.1626	1409.7283	1437.3156	1451.3527	1493.5578	1495.1636	1600.9776	1747.9658	1766.8242	3020.5229	3071.4791	3105.595	3526.7097	3622.5265	3656.9837
CN=C1NC(=N)NN=N1	C[N]C1=N[N]N[C@H](N1)[NH]	
InChI=1S/C3H6N6/c1-5-3-6-2(4)7-9-8-3/h1H3,(H3,4,5,6,7,8)	InChI=1S/C3H7N6/c1-5-3-6-2(4)7-9-8-3/h2,4H,1H3,(H2,5,6,7,8)/t2-/m0/s1
