17
gdb 53366	5.3768	0.73317	0.67128	4.714	77.81	-0.2553	0.0102	0.2655	1642.4076	0.135545	-421.852917	-421.843849	-421.842905	-421.889018	31.512	
C	 0.1517676487	 1.5482156399	-0.2221128503	-0.499439
C	 0.0795545125	 0.1012508582	-0.0792925245	 0.110227
C	 0.0219650623	-1.0964557628	 0.0312752517	 0.03591
C	-0.0544004417	-2.5395149883	 0.1858433741	-0.207231
C	 0.4046766638	-3.0458011627	 1.575814986	-0.083514
O	-0.2415731073	-4.3118707871	 1.7555468302	-0.215117
C	-1.3472924078	-4.4145429573	 0.9618001618	 0.422474
O	-2.0666864175	-5.3680672049	 0.988846816	-0.329654
C	-1.4641930644	-3.156606494	 0.107511357	-0.360175
H	 0.8516686648	 1.8342730987	-1.0146792404	 0.152716
H	-0.8267138125	 1.9712546117	-0.4742666649	 0.152738
H	 0.4888979417	 2.0224990914	 0.7059733127	 0.152013
H	 0.5743929499	-3.0239251196	-0.5719771259	 0.118056
H	 1.4826648246	-3.1997512851	 1.6445780915	 0.133002
H	 0.0874815935	-2.3587227614	 2.3681359161	 0.124033
H	-2.2093035605	-2.4948750968	 0.562425709	 0.14705
H	-1.8006629101	-3.4015871301	-0.8997063199	 0.14691
14.823	69.1928	88.6212	158.0332	206.4012	283.2355	318.07	426.1384	462.5705	510.5067	542.3274	601.5224	686.4337	806.0017	853.1047	910.4294	925.3804	1049.8096	1052.0099	1060.7741	1064.8915	1078.7946	1160.463	1175.5934	1190.6733	1240.4805	1264.3209	1315.231	1353.1168	1398.6844	1415.1746	1465.1359	1477.4519	1477.6608	1521.2068	1889.3416	2373.9693	3023.0582	3029.1193	3048.3138	3063.9156	3090.9419	3091.5043	3122.5999	3140.3379
CC#CC1COC(=O)C1	CC#C[C@H]1COC(=O)C1	
InChI=1S/C7H8O2/c1-2-3-6-4-7(8)9-5-6/h6H,4-5H2,1H3	InChI=1S/C7H8O2/c1-2-3-6-4-7(8)9-5-6/h6H,4-5H2,1H3/t6-/m1/s1
