16
gdb 48406	2.47037	1.57888	1.17784	2.1383	69.11	-0.2512	-0.0458	0.2054	1047.7981	0.122516	-437.843563	-437.835286	-437.834342	-437.877188	29.716	
O	-0.1472788205	 0.0292167457	-0.326885047	-0.258145
C	-0.0281528152	 1.1541442364	 0.0897651005	 0.111172
C	 1.2698008361	 1.9313380804	 0.0389032736	 0.100446
C	 2.5467757807	 1.2194728576	-0.5038344798	-0.228331
N	 2.7168032717	 2.2035773861	-1.628650514	-0.117141
C	 1.502420823	 2.0760959914	-2.4486921785	-0.244672
C	 1.4173103885	 2.854332324	-1.1967936944	-0.09385
C	 1.541632997	 2.6790285353	 1.3232037157	 0.115741
O	 0.8517670326	 2.614523574	 2.3080499765	-0.25312
H	-0.8905969385	 1.7143863944	 0.5038057592	 0.106071
H	 3.4005080794	 1.2685763987	 0.1745674923	 0.126919
H	 2.3810806262	 0.187761311	-0.8218857581	 0.143958
H	 1.5553289916	 2.6474166178	-3.3699200999	 0.134448
H	 1.0109297433	 1.1099365888	-2.5279995677	 0.144528
H	 1.2875454123	 3.9317039734	-1.1733065578	 0.113256
H	 2.4589091119	 3.3096341052	 1.2941095393	 0.098721
63.4291	78.0475	147.071	213.2347	242.4555	314.3509	385.2679	417.4636	492.088	626.7747	698.2492	758.6713	783.0529	837.8143	912.214	922.4372	971.4096	996.8702	1025.4328	1056.596	1109.8265	1117.7876	1126.8101	1172.2058	1194.102	1225.8423	1265.5011	1290.9899	1344.4079	1417.5171	1429.6877	1486.914	1506.963	1815.3374	1823.8685	2881.1263	2932.2057	3071.1657	3117.6961	3131.89	3161.7264	3211.8164
O=CC1(CN2CC12)C=O	O=CC1(CN2C[C@@H]12)C=O	
InChI=1S/C6H7NO2/c8-3-6(4-9)2-7-1-5(6)7/h3-5H,1-2H2	InChI=1S/C6H7NO2/c8-3-6(4-9)2-7-1-5(6)7/h3-5H,1-2H2/t5-,7?/m0/s1
