16
gdb 35295	3.24547	1.11582	0.96871	3.8831	81.34	-0.2511	0.0122	0.2633	1219.8179	0.123841	-363.566044	-363.557949	-363.557005	-363.598825	30.924	
C	-0.0117172408	-1.2340283648	-0.1041022536	-0.388466
C	 0.0078377964	-0.032098916	-0.047996079	 0.141039
C	 0.0116711753	 1.3873909035	 0.0406668643	 0.239709
C	 0.2791577254	 2.2884141578	-1.1455971569	-0.334193
C	 1.1974001584	 2.3796728193	 0.0311191516	-0.099498
C	 0.5300714087	 3.2210567256	 1.1372271017	-0.15402
C	-0.6682644727	 2.1999169101	 1.1587154794	-0.311012
C	 1.2723909766	 3.2879069737	 2.385823601	 0.267321
N	 1.8664118456	 3.3394872742	 3.376249855	-0.323418
H	-0.0238600419	-2.2945581135	-0.1547617236	 0.192028
H	 0.6890347438	 1.7850234643	-2.0137086844	 0.138706
H	-0.4108193542	 3.0980367663	-1.373807347	 0.116494
H	 2.2559444602	 2.1638140106	-0.025769405	 0.126045
H	 0.2698150695	 4.2391839206	 0.8292972961	 0.12567
H	-1.6528981042	 2.6132604003	 0.9248672035	 0.115847
H	-0.7156959561	 1.6551168978	 2.1010614368	 0.147747
73.5421	160.1595	174.9535	201.6936	308.0394	400.908	465.6866	496.375	526.3865	550.7533	586.31	603.1852	661.2336	739.8047	803.1437	838.2474	876.0078	936.2878	986.0754	995.6922	1033.137	1057.6145	1091.1646	1098.2713	1140.6291	1210.9501	1215.9114	1256.3034	1269.1074	1342.2632	1379.3984	1480.1818	1494.9427	2236.1343	2358.2806	3053.5162	3069.6045	3110.1486	3147.1485	3208.477	3219.404	3502.8955
C#CC12CC1C(C2)C#N	C#C[C@]12C[C@H]1[C@@H](C2)C#N	
InChI=1S/C8H7N/c1-2-8-3-6(5-9)7(8)4-8/h1,6-7H,3-4H2	InChI=1S/C8H7N/c1-2-8-3-6(5-9)7(8)4-8/h1,6-7H,3-4H2/t6-,7-,8-/m0/s1
