14
gdb 127200	3.24008	1.42685	0.99679	0.7302	68.27	-0.239	-0.0918	0.1473	1095.6658	0.10051	-470.003345	-469.995126	-469.994182	-470.036812	28.751	
C	 0.3509135412	 1.293926523	 0.2215169705	-0.349626
N	 0.0888348832	-0.1327414194	 0.1119865182	-0.174248
C	-0.0216113328	-0.7840017162	-1.1072673429	 0.486033
N	 0.0850087516	-0.2543451748	-2.246731888	-0.6023
O	-0.2683295902	-2.1087041494	-0.7904028082	-0.236019
N	-0.3081991482	-2.2651818275	 0.5989543963	-0.149648
C	-0.0930376171	-1.0774493689	 1.0815854593	 0.314763
C	-0.072466719	-0.9025784533	 2.548108696	 0.102569
O	 0.1168108578	 0.1484967378	 3.1112146449	-0.263779
H	 1.2984620577	 1.5289715846	-0.2702517525	 0.158147
H	-0.4434810765	 1.8500556662	-0.2830720943	 0.158121
H	 0.3921166999	 1.5598060877	 1.2749373269	 0.180958
H	-0.0347415854	-0.9359763186	-2.9910384679	 0.241159
H	-0.2518388021	-1.8524434311	 3.0845175118	 0.13387
66.114	100.9461	183.9603	185.4381	208.3322	288.3397	364.5418	433.3266	527.3935	640.0133	684.743	727.0647	728.2876	757.2778	824.937	936.6684	1000.3772	1019.8446	1022.3681	1166.8152	1202.8501	1231.8683	1351.1519	1399.032	1449.5213	1486.1865	1487.5688	1537.8325	1615.6372	1788.9849	1805.4723	2976.2511	3058.1523	3119.5685	3193.5966	3548.3392
CN1C(=N)ON=C1C=O	CN1[C@H]([NH])ON=C1C=O	
InChI=1S/C4H5N3O2/c1-7-3(2-8)6-9-4(7)5/h2,5H,1H3	InChI=1S/C4H6N3O2/c1-7-3(2-8)6-9-4(7)5/h2,4-5H,1H3/t4-/m0/s1
