15
gdb 132743	2.4187	1.83359	1.05013	2.4857	72.05	-0.2338	-0.0192	0.2146	1067.4262	0.113216	-458.16278	-458.154613	-458.153669	-458.196023	30.06	
C	-0.0101525813	 1.5057148664	 0.0178084923	-0.478729
C	-0.0446456467	 0.0049170829	-0.0132043064	 0.211865
C	 0.0578852216	-0.7091700003	-1.1858439166	 0.153124
F	 0.2031415047	-0.1039567844	-2.3819026481	-0.092996
C	 0.0213166146	-2.1128611855	-1.1547989509	 0.305284
N	 0.080442356	-2.8425594096	-2.3042219664	-0.56956
N	-0.1056598088	-2.7492398264	 0.012637275	-0.331458
C	-0.2025775922	-1.9754431085	 1.0965191369	 0.054251
N	-0.1817997654	-0.6514209732	 1.1594713331	-0.327952
H	 0.1242228094	 1.9287076473	-0.9784000438	 0.132817
H	-0.9414757096	 1.8884209623	 0.4467359986	 0.148086
H	 0.8039824429	 1.843755219	 0.6660162479	 0.147196
H	 0.4191782716	-2.3931915053	-3.13772454	 0.267291
H	 0.2617228586	-3.8273766321	-2.1974168272	 0.266773
H	-0.3084592555	-2.5020461626	 2.0422868357	 0.114008
42.1534	127.8592	228.2393	285.0795	289.0678	316.1854	373.0602	477.8321	518.8734	524.4745	553.1123	554.7444	630.1215	700.4339	802.3475	888.19	974.1356	989.2131	1022.525	1059.1026	1107.028	1219.3022	1297.6529	1321.1731	1356.4628	1405.723	1472.3517	1480.5884	1483.3279	1515.911	1599.5074	1619.319	1657.6415	3049.2738	3107.8897	3149.8769	3160.4656	3604.2361	3731.3809
CC1=C(F)C(N)=NC=N1	Cc1c(F)c(N)ncn1	
InChI=1S/C5H6FN3/c1-3-4(6)5(7)9-2-8-3/h2H,1H3,(H2,7,8,9)	InChI=1S/C5H6FN3/c1-3-4(6)5(7)9-2-8-3/h2H,1H3,(H2,7,8,9)
