23
gdb 111211	2.83136	0.99145	0.85666	1.9289	86.38	-0.2328	0.0834	0.3163	1502.3167	0.204741	-388.227657	-388.218086	-388.217142	-388.262519	36.031	
C	 0.2517524125	 1.3366487752	 0.1765516851	-0.378755
C	 0.1226714866	-0.1729559133	 0.4120506215	-0.215962
C	-1.3130614586	-0.6617171598	 0.3066415162	 0.03566
C	-1.9340981839	-0.9129555936	-1.0996766202	 0.01876
O	-1.0376348114	-2.0827348159	-1.2587961043	-0.312578
C	-1.5896364524	-2.1799080798	 0.1151087237	-0.015838
C	-2.9931120278	-1.8768180773	-0.4831889325	 0.059619
C	-4.1989416303	-1.4256242633	 0.3293924879	-0.238582
C	-5.3121827454	-0.8544564402	-0.5583611547	-0.371328
H	 1.2911091406	 1.6642868807	 0.2758382634	 0.113659
H	-0.0876592889	 1.612727555	-0.8277163088	 0.115542
H	-0.3465135266	 1.9076624428	 0.8958343474	 0.110031
H	 0.7355049639	-0.7229305649	-0.3072578873	 0.118509
H	 0.5052458897	-0.4180031023	 1.4117518671	 0.090594
H	-1.9629056228	-0.1492397526	 1.02213917	 0.06514
H	-2.0229761796	-0.2371656033	-1.9521333703	 0.086546
H	-1.2631752297	-3.0252726353	 0.7241058015	 0.085277
H	-3.2720420175	-2.6457364029	-1.2101901776	 0.080241
H	-4.5836340926	-2.2929115123	 0.8816464815	 0.1018
H	-3.9204027673	-0.6852321355	 1.0858858912	 0.101278
H	-6.1902161226	-0.5807624048	 0.0343333528	 0.113993
H	-4.9750537223	 0.0422260413	-1.0893112663	 0.117568
H	-5.6307118936	-1.5833242578	-1.3114324676	 0.118825
58.2669	85.7055	151.01	161.5977	198.9626	218.6303	282.2444	341.0958	383.9061	426.4431	566.5547	624.1965	732.7366	756.182	771.8409	824.1227	855.0133	879.3968	893.914	896.1163	954.3699	971.8861	1048.0826	1054.8663	1066.9027	1071.0526	1115.7072	1120.9279	1143.94	1163.0852	1174.888	1194.0005	1219.7285	1259.811	1268.6067	1288.0732	1295.1854	1342.2086	1351.9294	1406.1866	1409.2636	1415.9442	1422.4911	1488.0309	1490.0151	1499.1486	1499.6388	1506.0478	1507.4705	3022.3313	3026.3019	3028.9461	3032.8736	3057.4845	3065.5381	3078.5565	3083.1917	3095.9029	3102.3358	3102.9627	3104.2995	3105.8625	3106.8928
CCC1C2OC1C2CC	CC[C@H]1[C@H]2O[C@@H]1[C@H]2CC	
InChI=1S/C8H14O/c1-3-5-7-6(4-2)8(5)9-7/h5-8H,3-4H2,1-2H3	InChI=1S/C8H14O/c1-3-5-7-6(4-2)8(5)9-7/h5-8H,3-4H2,1-2H3/t5-,6-,7-,8+
