17
gdb 77141	2.94713	1.21665	0.93208	3.1065	70.58	-0.2513	-0.0345	0.2168	1230.9636	0.134808	-455.188352	-455.17922	-455.178276	-455.222564	33.092	
C	-0.2877808155	 1.5001570934	 0.0459841597	-0.401949
C	 0.0940384597	 0.0322847698	-0.063258555	-0.06218
N	 0.9904543034	-0.3408296704	-1.183739978	-0.133473
C	 2.0071980067	-0.9999553455	-0.3384992917	-0.314492
C	 1.1892357419	-0.5077126618	 0.8759858819	 0.381315
O	 1.3595656356	-0.5124361061	 2.0558452443	-0.27819
C	 0.4803083391	-0.8012200912	-2.3829882121	 0.417582
N	 1.3894354908	-1.5014429473	-3.1575081452	-0.555749
O	-0.6772367371	-0.6165357605	-2.7103772816	-0.388574
H	 0.5980540158	 2.1410103841	 0.0172921091	 0.120262
H	-0.944724991	 1.7701063908	-0.7843812541	 0.151093
H	-0.8175912327	 1.6775263899	 0.9865567703	 0.1351
H	-0.8062873219	-0.5974733777	-0.0456576939	 0.125927
H	 2.0451819198	-2.0922426541	-0.4377925171	 0.146812
H	 3.0217945699	-0.5926518617	-0.4158580938	 0.136199
H	 2.3687247915	-1.282194521	-3.0587760171	 0.25571
H	 1.0802867139	-1.6362063805	-4.1080464257	 0.264606
68.4317	102.9076	153.4607	168.7586	209.0598	213.8285	352.1466	422.449	432.4662	467.2208	548.1837	552.8043	580.7037	662.3628	743.7239	778.72	800.4139	910.5191	1008.0672	1023.9492	1079.3674	1090.6468	1132.3541	1137.5397	1153.7561	1172.9053	1261.111	1283.7191	1353.2629	1398.4708	1420.7621	1478.8179	1483.3255	1499.2634	1623.3387	1790.124	1924.7337	3018.7546	3025.2018	3045.71	3071.3197	3121.3893	3131.9444	3579.656	3696.2392
CC1N(CC1=O)C(N)=O	C[C@H]1N(CC1=O)C(=O)N	
InChI=1S/C5H8N2O2/c1-3-4(8)2-7(3)5(6)9/h3H,2H2,1H3,(H2,6,9)	InChI=1S/C5H8N2O2/c1-3-4(8)2-7(3)5(6)9/h3H,2H2,1H3,(H2,6,9)/t3-/m1/s1
