18
gdb 76928	2.30412	1.37626	0.99803	2.1848	74.88	-0.2556	-0.0424	0.2132	1216.2835	0.145141	-439.120221	-439.11064	-439.109696	-439.155127	33.636	
C	-0.7949797558	 1.3194393418	-0.1630699145	-0.39866
C	-0.1219106907	-0.0465405317	-0.2004270907	-0.085977
N	 0.7908229237	-0.3221786791	-1.332136033	-0.07577
C	 0.5305664232	-0.7919441052	-2.5784389733	 0.126773
O	 1.3605050267	-1.2993751793	-3.3037604491	-0.323458
C	 1.9882831889	-0.6179563006	-0.5172528179	-0.071023
C	 3.2371274304	 0.2071071821	-0.7969623621	-0.402851
C	 1.1231404649	-0.236885969	 0.7023286419	 0.366281
O	 1.3309850616	-0.084522221	 1.8665372425	-0.2823
H	-0.0658918951	 2.1197179537	-0.3159282538	 0.132135
H	-1.5632810485	 1.3994678079	-0.9376511943	 0.132334
H	-1.272849044	 1.4639663017	 0.8104377651	 0.144103
H	-0.8597681476	-0.8464709564	-0.0456864671	 0.118388
H	-0.5272967431	-0.641007033	-2.8745261719	 0.077247
H	 2.229734418	-1.6899460119	-0.5329858304	 0.125614
H	 3.0147973235	 1.277710975	-0.781111999	 0.122704
H	 3.9954212308	-0.0028914131	-0.037119516	 0.137873
H	 3.637474323	-0.0538193718	-1.7792278764	 0.156586
56.4917	95.6785	148.8047	178.7241	200.5768	205.0827	227.0313	264.4839	365.7332	419.4825	482.5401	556.373	614.3594	712.6877	796.7439	805.2739	928.6232	979.726	1008.8305	1034.4212	1081.214	1093.5122	1111.1306	1145.2817	1151.4114	1249.5771	1265.8673	1322.5331	1365.1399	1379.0905	1398.1783	1404.2069	1433.5727	1481.9079	1486.6845	1494.6222	1499.9035	1786.8103	1923.7965	2929.8179	3010.3241	3019.3079	3043.6165	3047.4262	3118.1194	3122.7448	3126.2275	3135.8608
CC1N(C=O)C(C)C1=O	C[C@H]1N(C=O)[C@@H](C)C1=O	
InChI=1S/C6H9NO2/c1-4-6(9)5(2)7(4)3-8/h3-5H,1-2H3	InChI=1S/C6H9NO2/c1-4-6(9)5(2)7(4)3-8/h3-5H,1-2H3/t4-,5+
