18
gdb 6487	4.00593	1.33322	1.18481	3.2992	68.36	-0.2415	-0.0236	0.2179	1076.8845	0.151211	-384.950976	-384.942267	-384.941322	-384.984562	32.145	
C	 2.3380439278	 0.1827618474	-2.5965403855	-0.474002
C	 1.8839281177	-1.0795095851	-1.893371781	 0.398357
O	 2.6434495434	-2.0091432528	-1.7079184318	-0.310792
C	 0.4353214821	-1.114483377	-1.41724077	-0.383809
C	-0.0534650337	-2.5126796376	-1.0915373049	 0.456052
O	 0.6796649361	-3.1489180701	-0.0867586512	-0.479655
C	-1.5191449994	-2.8119731202	-1.0885359501	-0.319324
C	-0.6379678044	-3.3687743675	-2.1922615515	-0.315271
H	 1.8439524321	 0.2549839295	-3.5728040444	 0.146754
H	 2.0449184828	 1.0714386283	-2.0273398338	 0.140966
H	 3.4190260055	 0.1659553677	-2.739423144	 0.146321
H	 0.3847805265	-0.4828617994	-0.5170952323	 0.136123
H	-0.2047761069	-0.6298155018	-2.1634316958	 0.112984
H	 1.5882236062	-3.1829276115	-0.4220453349	 0.290746
H	-1.8612182543	-3.503453031	-0.3272754197	 0.126172
H	-2.2180040706	-2.0183937386	-1.3313837629	 0.106061
H	-0.7373483925	-2.9561157441	-3.1912064605	 0.101757
H	-0.4042940282	-4.4262205963	-2.1559800859	 0.120561
54.638	93.3178	126.1992	190.3557	307.3773	321.5441	334.5746	424.3079	460.9567	484.6776	596.7705	599.4162	748.3064	775.3112	806.8848	856.4616	902.9029	935.4076	940.1029	980.1874	993.43	1047.7677	1063.6014	1078.9945	1176.5296	1188.8355	1202.6056	1285.0361	1320.1138	1349.7529	1384.4692	1419.0238	1444.2197	1454.8968	1461.3121	1474.896	1508.9372	1791.0276	3006.0459	3036.3728	3065.9159	3097.6344	3129.8561	3135.4794	3153.814	3217.7257	3231.4808	3714.4654
CC(=O)CC1(O)CC1	CC(=O)CC1(O)CC1	
InChI=1S/C6H10O2/c1-5(7)4-6(8)2-3-6/h8H,2-4H2,1H3	InChI=1S/C6H10O2/c1-5(7)4-6(8)2-3-6/h8H,2-4H2,1H3
