21
gdb 13635	3.47517	1.22113	1.20355	0.8512	75.71	-0.2457	0.0733	0.319	1163.2774	0.187246	-366.226129	-366.216464	-366.215519	-366.261079	34.641	
C	-1.2913565891	 1.917527303	-0.3933945886	-0.230638
O	-1.1431420186	 0.8743623596	 0.5399440329	-0.248161
C	-1.2680534515	-0.4347224273	-0.0084937287	 0.140898
C	-0.0742007518	-0.8314715982	-0.8794066625	-0.419923
C	-1.5764913851	-1.3314859675	 1.1816694238	-0.036675
N	-1.2812688955	-2.7680472173	 1.1002573301	-0.350254
C	-0.6317965945	-1.9606984747	 2.1482236669	 0.02529
C	 0.8755656241	-1.8607493298	 2.1529383514	-0.401437
H	-1.2899889738	 2.8553412839	 0.1685176697	 0.124077
H	-0.4723894695	 1.9513273448	-1.1266430111	 0.106159
H	-2.2421061835	 1.8382275384	-0.9453257752	 0.099429
H	-2.1696757862	-0.4592531632	-0.6479288009	 0.060398
H	-0.0822863319	-1.9105560394	-1.0482249118	 0.142395
H	-0.1180039352	-0.3302671601	-1.850443736	 0.107566
H	 0.8658405798	-0.5526905306	-0.3976613424	 0.124275
H	-2.530992664	-1.0487329497	 1.6257667617	 0.081025
H	-2.0471762026	-3.3200474941	 1.4744843297	 0.229949
H	-1.0518625418	-2.0565042163	 3.1503090742	 0.079067
H	 1.2904616242	-1.9760863566	 1.1520965886	 0.130524
H	 1.1989697258	-0.8960755547	 2.5578762192	 0.123336
H	 1.3016570307	-2.6496323101	 2.7827771991	 0.112698
33.6773	88.1758	133.9487	181.7841	203.0849	225.2008	285.7388	296.7702	371.4877	394.1224	433.5581	484.0517	658.5555	734.916	798.2867	857.9885	895.6172	970.7526	997.8031	1018.1994	1053.1604	1082.9084	1091.8808	1123.5941	1147.7122	1174.6153	1182.1754	1210.4855	1224.0549	1256.2482	1300.8127	1367.4166	1385.6905	1400.8688	1402.2686	1432.2034	1473.1342	1475.4661	1483.5413	1491.4952	1497.4337	1506.7752	1510.8185	1518.7274	2927.0002	2971.0598	3021.9921	3038.3366	3052.559	3087.6519	3095.1351	3104.3324	3106.2237	3119.4481	3142.0503	3157.4355	3510.8841
COC(C)C1NC1C	CO[C@@H](C)[C@H]1N[C@H]1C	
InChI=1S/C6H13NO/c1-4-6(7-4)5(2)8-3/h4-7H,1-3H3	InChI=1S/C6H13NO/c1-4-6(7-4)5(2)8-3/h4-7H,1-3H3/t4-,5-,6-/m0/s1
