19
gdb 111723	2.76446	1.16839	0.95714	1.4315	84.19	-0.2295	0.0381	0.2676	1275.6702	0.158093	-385.82012	-385.811014	-385.81007	-385.854238	34.423	
O	-0.0147010629	 1.2294981796	-0.603095603	-0.418854
C	 0.0291807017	-0.0078381312	 0.0984822023	-0.113542
C	-1.3518825678	-0.6105156878	 0.0395297939	-0.044671
C	-1.9461486522	-1.2874683997	-1.1570440669	-0.101521
C	-0.9115311838	-2.1117685401	-1.9276065947	-0.235805
C	-0.6086299135	-2.9331761657	-0.6360471702	-0.297594
C	-1.6490309823	-2.0955554732	 0.1396867273	 0.162232
C	-2.5422655188	-2.6268789425	 1.1118318995	 0.174573
C	-3.2876676738	-3.0990624785	 1.9316776355	-0.409797
H	 0.8396789414	 1.659709884	-0.5015318544	 0.286416
H	 0.775375586	-0.6836897194	-0.3416819745	 0.088316
H	 0.310311025	 0.141839925	 1.1527208857	 0.09243
H	-2.0874265864	-0.0187575576	 0.5785500135	 0.102995
H	-2.917190098	-0.9930494367	-1.5358075655	 0.098657
H	-1.3602718623	-2.7279942338	-2.7086319254	 0.108474
H	-0.0846296074	-1.5455501766	-2.3663774949	 0.108587
H	-0.927477054	-3.9726563767	-0.7270873078	 0.117107
H	 0.4143565554	-2.9175896961	-0.2489508244	 0.099337
H	-3.9474314765	-3.5090115828	 2.6551273939	 0.182659
47.2621	125.9189	143.929	207.9948	239.849	273.7026	305.8754	395.5706	481.3711	500.0753	557.8016	568.8264	605.5005	641.8075	742.9066	789.7409	811.3071	882.7046	926.9005	950.8885	969.2864	1035.5057	1046.8482	1062.0034	1084.5836	1111.7295	1139.7679	1208.3426	1214.359	1232.3702	1239.059	1254.9586	1282.9035	1297.2124	1340.2088	1430.7631	1481.5711	1488.8301	1505.2708	1524.5866	2227.4177	2979.3452	3018.286	3055.015	3062.0775	3107.2245	3126.058	3149.8291	3190.9746	3504.0801	3824.4406
OCC1C2CCC12C#C	OC[C@H]1[C@H]2CC[C@@]12C#C	
InChI=1S/C8H10O/c1-2-8-4-3-6(8)7(8)5-9/h1,6-7,9H,3-5H2	InChI=1S/C8H10O/c1-2-8-4-3-6(8)7(8)5-9/h1,6-7,9H,3-5H2/t6-,7+,8-/m1/s1
