16
gdb 23398	2.91738	1.38783	1.3283	0.4879	68.17	-0.2485	0.0012	0.2497	1019.5992	0.124809	-474.941027	-474.933596	-474.932652	-474.972968	28.586	
O	-0.1096268604	 1.3610529791	-0.0274277088	-0.39425
N	 0.0526851447	-0.0366824725	-0.0350366602	-0.281912
C	-1.0616496114	-0.6226558676	-0.0679797906	 0.485785
C	-2.5436313152	-0.3207655319	 0.0259601032	-0.039038
C	-3.1836141318	-0.4846850777	-1.3509871714	-0.069667
O	-2.4723773571	-1.458441872	-2.1108504605	-0.271949
C	-1.9342825361	-2.5471953856	-1.3659970598	-0.070151
C	-1.4800248644	-2.0703082982	 0.0136899174	-0.035851
O	-2.6926117658	-1.6141819941	 0.7034765047	-0.308549
H	 0.8010237719	 1.6707845266	 0.0256961182	 0.311075
H	-2.9098243882	 0.5256672925	 0.6087625275	 0.109627
H	-4.2348120305	-0.7766784626	-1.2085587626	 0.108181
H	-3.1434304552	 0.4433936789	-1.9297591377	 0.123566
H	-2.6788136762	-3.3449231526	-1.2249734986	 0.107879
H	-1.0980444918	-2.9366534165	-1.9553952986	 0.120681
H	-0.8993463824	-2.7987435858	 0.5827094077	 0.104572
104.3081	174.482	219.9319	287.6769	329.6096	399.9413	426.3483	481.9099	560.9226	615.3905	733.6472	758.8679	852.1204	861.823	878.7545	917.6556	972.7563	1003.249	1007.6651	1032.4608	1093.4897	1135.2172	1156.3899	1192.0358	1231.3499	1260.5941	1276.0606	1309.9619	1312.4716	1364.4872	1403.8968	1421.8812	1483.55	1493.8229	1826.8666	2995.7676	3001.9966	3081.7599	3084.9838	3106.722	3114.3325	3817.8051
ON=C1C2COCC1O2	ON=C1[C@H]2COC[C@@H]1O2	
InChI=1S/C5H7NO3/c7-6-5-3-1-8-2-4(5)9-3/h3-4,7H,1-2H2	InChI=1S/C5H7NO3/c7-6-5-3-1-8-2-4(5)9-3/h3-4,7H,1-2H2/t3-,4+
