20
gdb 115979	1.90411	1.49247	0.87236	4.4027	87.72	-0.2578	-0.0384	0.2194	1343.4103	0.171906	-366.05708	-366.048045	-366.047101	-366.091196	33.421	
C	 0.8390030128	-0.3385431042	 1.2991199272	-0.386978
C	 0.0002724735	-0.0019013242	 0.0628982016	-0.193714
C	 0.6956927309	-0.3650761448	-1.2565255443	-0.084423
C	 0.9136659178	-1.8869148123	-1.4772243822	-0.224076
C	 0.7208963946	-2.136446649	-2.9935070651	-0.263194
C	-0.0719699216	-0.9393046499	-3.4409212624	-0.162498
C	-0.0865166161	 0.023002977	-2.5091919081	 0.208782
C	-0.7026377276	 1.29592642	-2.6557273792	 0.212824
N	-1.1929348484	 2.3429276943	-2.7370009261	-0.35088
H	 1.0481618997	-1.4113308126	 1.3667214809	 0.118195
H	 1.8005423247	 0.1865978052	 1.2779974166	 0.117312
H	 0.3197285711	-0.0447041675	 2.2159875823	 0.119056
H	-0.9639028042	-0.5248374059	 0.1110573256	 0.099394
H	-0.2313432331	 1.069686107	 0.059457993	 0.119672
H	 1.6618754599	 0.1615348043	-1.2829892911	 0.090634
H	 1.8855009847	-2.2282081662	-1.1147338968	 0.108897
H	 0.146822406	-2.4368097217	-0.9200462773	 0.110816
H	 1.6791648463	-2.1711011132	-3.5314450045	 0.122578
H	 0.216320679	-3.0839376671	-3.2109874129	 0.117724
H	-0.5347446399	-0.8576292993	-4.4174941173	 0.11988
86.8094	98.6245	128.0827	174.4856	217.4926	236.3811	328.5031	382.9891	443.0884	502.1786	572.6557	619.6052	664.5459	767.6248	814.2431	839.9563	889.8955	930.0746	937.884	962.8367	1003.496	1022.6797	1066.8583	1111.2122	1135.4101	1166.7935	1201.6899	1235.5852	1272.233	1281.9823	1309.728	1323.4621	1342.586	1359.014	1383.2739	1412.5534	1477.178	1487.9759	1496.9083	1501.6005	1507.8737	1675.3331	2333.3275	2986.1762	3010.3094	3023.5367	3033.3637	3044.2777	3062.0579	3066.4327	3100.1771	3107.3846	3109.6846	3208.0155
CCC1CCC=C1C#N	CC[C@H]1CCC=C1C#N	
InChI=1S/C8H11N/c1-2-7-4-3-5-8(7)6-9/h5,7H,2-4H2,1H3	InChI=1S/C8H11N/c1-2-7-4-3-5-8(7)6-9/h5,7H,2-4H2,1H3/t7-/m0/s1
