17
gdb 38407	4.17333	1.32877	1.30128	3.3337	71.57	-0.2371	0.0689	0.306	1014.4661	0.135568	-421.733955	-421.726998	-421.726054	-421.765288	28.05	
C	 0.0238141933	 1.473243703	 0.1195627283	-0.307069
C	 1.2964578743	 0.7020919071	-0.0056060322	 0.102073
O	 1.6682772017	 0.1330789296	 1.2534455469	-0.324091
C	 0.4800755908	-0.6894890907	 1.2464704373	 0.456243
C	 0.6413763905	-2.2490920626	 1.269055889	-0.343674
C	-0.3025474177	-2.2576362497	 2.4776365644	 0.03265
O	 0.3420914599	-1.4942558806	 3.4972017739	-0.237599
C	-0.3961136473	-0.7838110741	 2.4957722769	-0.055092
C	-0.0197517265	-0.0375449302	-0.0369146836	-0.21421
H	-0.2212603246	 1.9460175734	 1.0664420397	 0.120001
H	-0.2870876235	 2.0211294285	-0.76490633	 0.117037
H	 2.0723487232	 0.8559469016	-0.7454593562	 0.107635
H	 0.2440146628	-2.7241830471	 0.3686362402	 0.108507
H	 1.6495383009	-2.6110898098	 1.4776219784	 0.124665
H	-1.0276240069	-3.0015787933	 2.783332165	 0.108048
H	-1.1817018496	-0.1166376822	 2.8315884792	 0.10183
H	-0.5354812011	-0.539880563	-0.8438358973	 0.103046
123.5922	147.4188	231.286	407.0434	408.7327	453.4983	493.4572	575.4801	762.1301	791.3972	808.9438	828.2085	856.4897	874.6658	903.1194	947.6477	956.9979	969.2524	974.8042	1012.3415	1033.4131	1044.0174	1050.9063	1084.0878	1096.5042	1109.487	1135.5595	1175.859	1206.4969	1220.2908	1250.133	1277.8204	1322.7361	1351.927	1376.8331	1462.0379	1472.2655	3070.4098	3116.9041	3134.9496	3182.4752	3187.701	3202.0984	3203.3656	3212.516
C1C2OC3(CC4OC34)C12	C1[C@H]2O[C@]3(C[C@H]4O[C@@H]34)[C@@H]12	
InChI=1S/C7H8O2/c1-3-4(1)9-7(3)2-5-6(7)8-5/h3-6H,1-2H2	InChI=1S/C7H8O2/c1-3-4(1)9-7(3)2-5-6(7)8-5/h3-6H,1-2H2/t3-,4+,5+,6+,7+/m0/s1
