20
gdb 58414	2.40299	1.00426	0.84532	1.1803	77.61	-0.214	-0.0357	0.1783	1427.732	0.166495	-440.279341	-440.268573	-440.267629	-440.316274	36.864	
C	 0.6088171333	-0.3190515131	 1.330485956	-0.331391
N	 0.1769232751	-0.1986896239	-0.0569526378	-0.047896
C	 1.2089738456	-0.6385861763	-0.9928996632	-0.339025
C	-1.1709656994	-0.6837474239	-0.2959902264	-0.090075
C	-1.8028293013	-0.0762463152	-1.5708828857	-0.317672
C	-2.0065081292	 1.4220043385	-1.4449124688	 0.160838
O	-2.9453837915	 2.0140167338	-1.9112599943	-0.240837
C	-1.3692936709	-2.2015554027	-0.293185632	 0.166294
O	-0.5048341637	-3.0124281071	-0.0849445576	-0.245006
H	 1.5407492819	 0.2399694674	 1.4643297546	 0.121174
H	-0.1433569641	 0.124715594	 1.9914626589	 0.115352
H	 0.7844157599	-1.3577398143	 1.6500028201	 0.124102
H	 1.4796020297	-1.69719033	-0.8822660461	 0.133144
H	 0.8899486951	-0.473053661	-2.0256764976	 0.114209
H	 2.105214175	-0.0305832564	-0.8310105372	 0.121409
H	-1.7897728339	-0.3370613694	 0.5497303487	 0.107777
H	-1.1480324245	-0.2584524018	-2.4323407288	 0.13967
H	-2.7680931616	-0.535952406	-1.8027924873	 0.12962
H	-1.2059788977	 1.9438433401	-0.8789326355	 0.097775
H	-2.4212904777	-2.5203357028	-0.49206931	 0.080538
43.2139	80.1006	84.575	98.2809	180.7238	202.9114	212.817	232.8384	289.2602	342.5923	363.0339	397.6969	448.9297	545.7221	723.3843	743.537	782.7774	896.4207	964.1877	975.8315	1064.9081	1072.117	1092.2371	1115.5683	1135.1259	1185.6665	1195.0782	1252.5196	1271.987	1320.0224	1328.9607	1378.2841	1404.9135	1419.3606	1437.4805	1452.8264	1475.575	1481.7354	1491.8376	1513.0473	1527.6901	1829.7553	1832.8294	2836.8566	2915.4508	2964.1655	2987.6547	3011.9146	3040.4794	3060.9524	3075.6034	3095.8423	3098.6485	3106.7394
CN(C)C(CC=O)C=O	CN(C)[C@@H](CC=O)C=O	
InChI=1S/C6H11NO2/c1-7(2)6(5-9)3-4-8/h4-6H,3H2,1-2H3	InChI=1S/C6H11NO2/c1-7(2)6(5-9)3-4-8/h4-6H,3H2,1-2H3/t6-/m0/s1
