20
gdb 75475	2.79579	1.2047	0.92822	3.8372	85.24	-0.2403	0.0168	0.2571	1290.6855	0.171628	-366.053779	-366.044693	-366.043749	-366.088044	33.542	
C	-0.546694867	 1.4744476342	-0.0624732711	-0.502836
C	-0.1558426884	 0.0288846122	-0.0189371939	 0.326246
C	 0.1778950392	-0.7406991032	-1.0582122979	-0.15575
C	 0.4948569796	-2.1622984619	-0.6696760974	-0.251699
C	-0.0232660733	-2.2349590274	 0.7878853957	-0.234035
C	-0.0882788365	-0.764928934	 1.2816749095	-0.088217
C	 1.1564522314	-0.4156601303	 2.1483145416	-0.34654
C	 1.1272311907	 0.9210049213	 2.7372347106	 0.269502
N	 1.0931668794	 1.9743336229	 3.2126333361	-0.318333
H	 0.1332861351	 2.1035242721	 0.5214116781	 0.15443
H	-0.5605253083	 1.846870678	-1.0903595828	 0.120717
H	-1.5454901984	 1.62300463	 0.3673587098	 0.127503
H	 0.2336322347	-0.3891302114	-2.0834634934	 0.088942
H	 0.0072455192	-2.8994302803	-1.3172952202	 0.10717
H	 1.5731659188	-2.3654372841	-0.7389642569	 0.105453
H	-1.033919873	-2.6531008185	 0.7924135235	 0.110475
H	 0.5905068144	-2.8719982221	 1.4318466796	 0.094822
H	-0.9733977877	-0.5927239748	 1.9051186362	 0.089437
H	 1.2361088606	-1.1368032242	 2.9699177397	 0.150414
H	 2.0676649796	-0.5134234383	 1.5470329435	 0.152302
52.3974	102.6717	149.314	175.5206	235.6857	259.9039	304.2629	358.585	401.8171	486.5903	588.0684	607.0571	685.1556	795.3457	818.0096	850.3857	913.8818	929.3802	942.7087	987.457	996.0745	1038.0965	1049.6954	1066.9398	1084.6867	1164.2504	1182.0569	1220.751	1246.2996	1271.7245	1293.2287	1323.3187	1329.7421	1361.4102	1371.3704	1420.2135	1463.487	1479.7109	1485.2793	1489.7341	1502.3826	1719.619	2355.8882	3004.706	3025.6289	3032.7303	3041.1221	3050.6618	3059.7794	3082.3858	3082.5679	3096.5925	3115.2307	3184.2057
CC1=CCCC1CC#N	CC1=CCC[C@H]1CC#N	
InChI=1S/C8H11N/c1-7-3-2-4-8(7)5-6-9/h3,8H,2,4-5H2,1H3	InChI=1S/C8H11N/c1-7-3-2-4-8(7)5-6-9/h3,8H,2,4-5H2,1H3/t8-/m0/s1
