23
gdb 73264	2.38106	1.64816	1.27205	1.273	84.61	-0.2398	0.0819	0.3217	1116.7398	0.208241	-388.292607	-388.284387	-388.283443	-388.324777	33.625	
C	 0.0181512187	 1.540900446	-0.0345855446	-0.452757
C	-0.0194255908	 0.0123134035	-0.002280305	 0.327673
C	-1.3591382331	-0.5258408245	 0.5859717945	-0.26033
C	-0.6789104411	-0.5983873965	 1.9788996138	-0.235462
C	 0.703216596	-0.5793495323	 1.2638813437	-0.027605
C	 1.2783812436	-1.9931284479	 1.0396450064	-0.223227
C	 1.7908261234	-2.1864374125	-0.3858824231	-0.078455
O	 0.7603584843	-1.918716069	-1.3223494268	-0.244903
C	 0.4397665123	-0.5400422589	-1.3516098609	-0.149895
H	 1.0357957952	 1.9085781461	-0.2095946834	 0.111777
H	-0.6207233342	 1.930547256	-0.8365041511	 0.112572
H	-0.3349516172	 1.9742007757	 0.9062024457	 0.115376
H	-2.2411976585	 0.1119329577	 0.4794537135	 0.088787
H	-1.5926162569	-1.5193947423	 0.1937791939	 0.109804
H	-0.8565952127	 0.302153954	 2.5718933858	 0.09907
H	-0.894378848	-1.4691623628	 2.6036456812	 0.092944
H	 1.4653213195	 0.0759222356	 1.6978467827	 0.05639
H	 2.0756174812	-2.2004264058	 1.7626540121	 0.093293
H	 0.4980790346	-2.7442970318	 1.2083058696	 0.102802
H	 2.660411649	-1.5357473186	-0.5850561058	 0.080313
H	 2.1020836702	-3.2218549301	-0.554264004	 0.102649
H	-0.3514425158	-0.4230931286	-2.1012706878	 0.102411
H	 1.3184026505	 0.0313378268	-1.7023191103	 0.076771
142.8776	150.4452	244.5865	272.6109	313.244	343.6974	378.4662	401.7784	453.4091	484.0166	566.3038	674.348	731.0294	783.7073	848.8512	881.4702	889.2716	929.9254	941.6335	943.8999	975.0496	1009.4881	1012.2233	1047.426	1074.3434	1120.5496	1162.8684	1170.9461	1190.7886	1210.6147	1237.2657	1249.4555	1265.459	1274.6268	1285.5201	1303.7416	1331.1865	1344.137	1378.1707	1392.6829	1408.4921	1425.7124	1477.9182	1482.9714	1487.3491	1496.2255	1499.255	1503.7436	1504.4467	2940.1565	2955.4804	3020.8418	3030.3618	3040.5401	3051.6581	3057.388	3061.6319	3073.9619	3079.9565	3083.2421	3097.7432	3100.4479	3115.502
CC12CCC1CCOC2	C[C@]12CC[C@H]1CCOC2	
InChI=1S/C8H14O/c1-8-4-2-7(8)3-5-9-6-8/h7H,2-6H2,1H3	InChI=1S/C8H14O/c1-8-4-2-7(8)3-5-9-6-8/h7H,2-6H2,1H3/t7-,8+/m0/s1
