24
gdb 13277	6.37542	0.74291	0.69941	0.0798	86.4	-0.2818	0.0892	0.371	1717.8541	0.223724	-314.273144	-314.263639	-314.262695	-314.308025	34.874	
C	 0.0304274883	 1.5820602627	 0.086985413	-0.379556
C	-0.0600871288	 0.0573797729	-0.0192515515	-0.161976
C	 0.7189071538	-0.5132032105	-1.2093159822	-0.156231
C	 0.6311758053	-2.039693391	-1.3243885142	-0.211169
C	 1.4134501907	-2.6085121036	-2.5004158426	 0.064624
C	 2.9707448548	-2.5711753286	-2.4740578459	-0.214873
C	 2.9785007168	-3.9798924498	-3.1260067944	-0.210277
C	 1.5025766212	-4.1515016023	-2.6765217926	-0.236077
H	 1.0695160135	 1.9098459105	 0.204022001	 0.11242
H	-0.3673439438	 2.065866197	-0.8122271758	 0.112221
H	-0.5354733902	 1.958891527	 0.9449043161	 0.10944
H	 0.3127520897	-0.3974901553	 0.9082273639	 0.092747
H	-1.1134294159	-0.2429301039	-0.0997697384	 0.092663
H	 0.3467093571	-0.0576050516	-2.1379570987	 0.08888
H	 1.7730904653	-0.2137303951	-1.1288687986	 0.094705
H	 0.9992037066	-2.4972190309	-0.3945971543	 0.085231
H	-0.4234988656	-2.3377765592	-1.4122376363	 0.088902
H	 1.0551653006	-2.1547273995	-3.4333928203	 0.064273
H	 3.4767527079	-1.7588730129	-3.0018930106	 0.091802
H	 3.3472948645	-2.6026573311	-1.4454905045	 0.094091
H	 3.0660107584	-3.9214449818	-4.2148846685	 0.099292
H	 3.7093266767	-4.7052520791	-2.7604907844	 0.093055
H	 1.4334472503	-4.6627080776	-1.7101786554	 0.09478
H	 0.8050313627	-4.6286717364	-3.369920405	 0.091031
63.8577	79.1907	100.6222	139.2743	170.9824	243.7372	270.9237	308.974	411.0462	459.7185	636.648	736.3922	763.0902	785.9788	795.3379	892.8223	898.4718	914.8326	934.1905	957.7985	974.9897	1011.142	1020.0243	1057.2267	1070.3203	1117.7474	1139.6942	1192.0424	1202.9039	1231.9441	1254.6937	1258.5218	1263.641	1267.9128	1286.9714	1300.6457	1322.5327	1334.2543	1356.8224	1391.3478	1401.3825	1413.42	1478.0043	1481.3057	1485.68	1487.3357	1499.2792	1499.5299	1510.6189	1513.3471	2995.9276	3003.2628	3014.3847	3016.0328	3024.2789	3028.331	3036.6257	3040.4149	3045.6989	3055.8243	3057.507	3091.9589	3094.5332	3096.3314	3099.3406	3113.6466
CCCCC1CCC1	CCCCC1CCC1	
InChI=1S/C8H16/c1-2-3-5-8-6-4-7-8/h8H,2-7H2,1H3	InChI=1S/C8H16/c1-2-3-5-8-6-4-7-8/h8H,2-7H2,1H3
