16
gdb 8822	2.83879	1.63893	1.10202	0.9774	66.79	-0.2655	0.0126	0.278	1064.3945	0.129517	-379.97498	-379.965721	-379.964776	-380.010229	31.272	
C	-0.1024092517	 1.4866368841	 0.8701912023	-0.339195
N	 0.1811120546	 0.0879697835	 1.1365521083	-0.332916
C	 0.8768377636	-0.686370261	 0.272352717	 0.451698
O	 1.3271319342	-0.3053286302	-0.7916467722	-0.378263
C	 1.0866519255	-2.171028056	 0.6839210659	-0.271451
C	 2.571467493	-2.5583610193	 0.5272374721	-0.387287
C	 0.5780497173	-2.4861166853	 2.0173506909	 0.282561
N	 0.1657863926	-2.6913349695	 3.0786071301	-0.334554
H	 0.3230379887	 1.730050326	-0.1035336157	 0.173974
H	-1.1815571452	 1.6704746992	 0.8487180442	 0.134902
H	 0.3490961182	 2.131008233	 1.631766415	 0.13522
H	-0.13818279	-0.3171913072	 2.0027719356	 0.271992
H	 0.4986075573	-2.750076758	-0.0389567396	 0.15867
H	 2.8966786818	-2.258889834	-0.4696144033	 0.160377
H	 3.187113225	-2.043871209	 1.2694402999	 0.139412
H	 2.703873875	-3.6351637764	 0.6509772994	 0.13486
32.2227	49.5626	139.9914	141.3265	220.9725	234.6768	276.2276	311.8546	405.6243	500.0397	512.2262	570.401	631.9575	756.2206	824.349	894.3265	1004.9761	1073.3645	1102.6425	1124.8303	1154.8884	1177.7452	1263.787	1277.0802	1317.1356	1401.9923	1440.0136	1493.5029	1495.4683	1498.4007	1500.5927	1576.8051	1787.4219	2346.1449	3036.4767	3044.6632	3059.9785	3092.075	3135.4345	3159.0204	3159.4034	3625.4935
CNC(=O)C(C)C#N	CNC(=O)[C@@H](C)C#N	
InChI=1S/C5H8N2O/c1-4(3-6)5(8)7-2/h4H,1-2H3,(H,7,8)	InChI=1S/C5H8N2O/c1-4(3-6)5(8)7-2/h4H,1-2H3,(H,7,8)/t4-/m0/s1
