23
gdb 88195	3.21794	1.16564	1.00828	1.3804	86.	-0.241	0.0836	0.3247	1293.6222	0.207332	-388.293408	-388.284645	-388.2837	-388.326453	34.658	
C	-0.1138870497	 1.5198034546	-0.1286013094	-0.413502
C	 0.0262674206	 0.0194799319	 0.0162611169	-0.059953
C	 1.356392954	-0.6732055836	-0.1814321198	-0.329264
C	 0.7160093544	-0.6392369492	 1.1876057602	 0.364233
C	 1.3711396392	 0.1584101083	 2.3052836539	-0.289232
C	 2.329236959	-0.7511501621	 3.0933670676	-0.203099
C	 1.612844706	-2.0349767583	 3.5196662568	-0.061649
O	 1.0604021216	-2.7219272092	 2.4095826424	-0.243838
C	 0.1113162586	-1.9273288232	 1.7162458384	-0.144755
H	 0.7790641234	 2.0498843593	 0.2144973798	 0.115789
H	-0.2709075769	 1.7924146184	-1.1780586812	 0.11774
H	-0.9672310074	 1.9009360849	 0.4437928656	 0.115935
H	-0.8348722793	-0.5300836189	-0.3610816078	 0.077645
H	 1.3857016303	-1.6138833451	-0.7218454149	 0.109954
H	 2.2265408587	-0.0433126226	-0.3435556216	 0.103658
H	 1.906350128	 1.0290810106	 1.9154499188	 0.093401
H	 0.5961249381	 0.5412934373	 2.9853860221	 0.092389
H	 3.1852479824	-1.0183642001	 2.4626622886	 0.106192
H	 2.7190100879	-0.2339885347	 3.9777853659	 0.089899
H	 2.3028206882	-2.734990206	 4.0000617417	 0.102814
H	 0.8165979109	-1.7934222497	 4.2471728386	 0.079106
H	-0.7354432056	-1.6905418071	 2.3866652654	 0.079016
H	-0.2705519624	-2.5478044154	 0.8995588917	 0.097521
101.2851	150.4459	193.1961	202.3821	259.4724	308.1988	358.8377	399.9492	421.1331	471.0638	492.2371	583.8841	707.7203	802.0826	858.5967	876.2582	877.7263	906.7919	928.8191	951.8367	973.4164	1009.419	1038.3918	1046.6343	1055.93	1072.936	1119.5928	1134.5607	1154.4906	1186.1423	1206.828	1227.7093	1258.8547	1300.5786	1321.337	1336.9409	1363.7923	1374.1039	1395.7034	1409.4596	1420.5531	1433.9867	1473.7711	1482.0449	1483.9443	1493.9457	1494.8305	1502.8458	1507.4002	2935.2269	2944.2887	3002.1615	3029.462	3031.1833	3072.4316	3074.3954	3077.5747	3083.3425	3086.4364	3101.1773	3117.7673	3119.7632	3201.1222
CC1CC11CCCOC1	C[C@H]1C[C@]21CCCOC2	
InChI=1S/C8H14O/c1-7-5-8(7)3-2-4-9-6-8/h7H,2-6H2,1H3	InChI=1S/C8H14O/c1-7-5-8(7)3-2-4-9-6-8/h7H,2-6H2,1H3/t7-,8+/m0/s1
