19
gdb 73497	2.87585	1.81638	1.45153	1.7833	73.72	-0.2329	0.0905	0.3234	962.5157	0.161221	-423.019311	-423.012034	-423.01109	-423.0507	29.225	
C	-0.0088020004	 1.4814811848	 0.0652020813	-0.499021
C	 0.0436761523	-0.0243929042	-0.022625716	 0.278029
C	 1.0445324822	-0.677990768	-0.9729396917	-0.141859
O	 0.3942083668	-1.8028212745	-1.566626226	-0.268233
C	-0.7204071447	-2.170083809	-0.758668897	 0.062581
C	-0.2698819491	-3.032438987	 0.4275201029	-0.091553
O	 0.2868775026	-2.104008272	 1.3680977223	-0.263588
C	-0.3573304096	-0.8671234821	 1.1749562349	 0.047866
C	-1.2019986448	-0.8873763407	-0.0643103978	-0.179082
H	 0.9527013137	 1.8917711882	 0.3942868516	 0.125956
H	-0.2495493793	 1.9292767793	-0.9057726412	 0.123459
H	-0.7682829781	 1.8108862716	 0.7814154839	 0.119106
H	 1.3348843735	 0.0100932521	-1.7752660498	 0.100688
H	 1.9504454514	-0.9990895353	-0.4413023345	 0.107117
H	-1.458666182	-2.6607364467	-1.396596993	 0.085838
H	-1.1242638427	-3.5637956163	 0.8746866066	 0.090447
H	 0.5044397952	-3.7520986546	 0.1516954168	 0.118181
H	-0.6612998183	-0.3809469001	 2.0968686082	 0.09348
H	-2.2140986886	-0.5132086354	-0.1497542116	 0.090588
160.7443	200.7572	204.4049	265.7005	300.0547	401.2736	496.4367	554.8482	631.4558	730.4308	772.5815	806.2493	846.3545	854.6684	893.7537	928.1606	955.4166	968.6387	995.6114	1010.6726	1022.6091	1051.4093	1085.2273	1112.9617	1123.5948	1128.257	1207.8537	1226.4043	1241.7924	1261.9457	1280.9898	1298.4991	1337.4847	1355.8858	1381.3584	1418.2862	1431.0841	1491.1928	1498.56	1499.9168	1517.6661	2987.396	3011.0277	3024.8401	3056.9059	3085.9218	3096.5128	3098.4255	3107.5664	3155.9277	3192.1198
CC12COC3COC1C23	C[C@@]12CO[C@H]3CO[C@@H]1[C@@H]23	
InChI=1S/C7H10O2/c1-7-3-9-4-2-8-6(7)5(4)7/h4-6H,2-3H2,1H3	InChI=1S/C7H10O2/c1-7-3-9-4-2-8-6(7)5(4)7/h4-6H,2-3H2,1H3/t4-,5-,6+,7-/m0/s1
