19
gdb 33824	4.18398	1.08362	0.99689	0.793	89.	-0.2283	0.0402	0.2685	1244.6427	0.158349	-348.679548	-348.671286	-348.670342	-348.712062	33.123	
C	 0.0598334777	-1.196312995	-0.0493777402	-0.40808
C	 0.0416557308	 0.0072167012	-0.0115814935	 0.164599
C	 0.0026369311	 1.4265593281	 0.0584591234	 0.204232
C	 0.2654350184	 2.3175269304	-1.1383745473	-0.320985
C	 1.1714991875	 2.4476997771	 0.0479384231	-0.185698
C	 0.4815643464	 3.2346288086	 1.1420471163	 0.398423
C	 1.143127116	 3.8440063113	 2.3382537597	-0.33763
C	 0.4518156151	 4.7257381342	 1.3182082761	-0.323984
C	-0.6960844426	 2.2385303574	 1.1727410497	-0.375856
H	 0.0789861793	-2.2568478372	-0.0874765031	 0.182119
H	 0.684359156	 1.8055909278	-1.9978639124	 0.124549
H	-0.4382116106	 3.1113795328	-1.3780429823	 0.111409
H	 2.2324313825	 2.2337420619	-0.0059797576	 0.099166
H	 0.6721626246	 3.712899533	 3.3074788833	 0.113205
H	 2.2281819482	 3.8581523985	 2.370073605	 0.113792
H	 1.069565902	 5.3341755694	 0.6654512907	 0.113119
H	-0.4891482554	 5.1870538294	 1.6007399176	 0.112478
H	-1.689044775	 2.625112149	 0.9199009226	 0.098299
H	-0.753963612	 1.6840452018	 2.112071969	 0.116844
85.2099	142.4808	210.0725	258.2359	294.4508	380.3481	439.6507	479.5276	512.7417	545.0366	567.145	633.6475	643.7509	772.1931	777.8069	820.5726	860.1743	871.5657	921.3506	949.1857	963.8116	996.7525	1003.9006	1026.1383	1051.2411	1076.2969	1086.5491	1093.5418	1147.9232	1186.626	1198.5411	1223.3278	1255.4411	1267.9852	1365.0637	1401.1382	1464.1014	1479.1879	1492.6278	1507.1967	2230.2132	3043.3511	3108.4065	3110.8072	3121.051	3125.9968	3183.8754	3199.4256	3211.7791	3214.7594	3505.1135
C#CC12CC1C1(CC1)C2	C#C[C@]12C[C@H]1C1(CC1)C2	
InChI=1S/C9H10/c1-2-8-5-7(8)9(6-8)3-4-9/h1,7H,3-6H2	InChI=1S/C9H10/c1-2-8-5-7(8)9(6-8)3-4-9/h1,7H,3-6H2/t7-,8-/m1/s1
