21
gdb 110413	4.45101	1.03555	0.95478	1.1675	82.19	-0.2389	0.0802	0.3191	1309.7518	0.182356	-387.039013	-387.030506	-387.029561	-387.071821	33.753	
C	 0.0270473008	 1.5416631822	 0.0035267701	-0.385264
C	-0.0652463277	 0.0174878845	 0.1335542705	-0.188476
C	 0.7895945977	-0.5447673839	 1.2678330782	 0.023454
C	 0.8642066135	-2.0713410852	 1.3001488478	-0.152162
C	 2.1321817669	-2.0936098992	 0.4627873232	-0.127513
C	 2.3212838749	-0.6048237886	 0.9673828293	-0.068574
C	 2.9530134133	-1.166675832	 2.274654993	-0.307437
C	 2.2260472425	-2.4599113261	 1.9143050897	 0.383126
O	 2.4673700414	-3.7265819716	 2.4057450773	-0.464207
H	 1.0536164202	 1.8664485884	-0.1968030046	 0.115704
H	-0.6008977643	 1.9085986465	-0.8142528552	 0.111329
H	-0.3017186617	 2.0378204658	 0.9235659241	 0.113065
H	-1.1120534851	-0.26884275	 0.3012111304	 0.089807
H	 0.2325995335	-0.457813755	-0.8100107262	 0.096126
H	 0.5250894953	-0.0453303791	 2.2113872543	 0.051734
H	 0.0557698389	-2.7933437701	 1.2800684648	 0.078809
H	 2.4032821269	-2.6259288819	-0.4365211635	 0.093227
H	 2.8166398536	 0.1925685016	 0.417138852	 0.070902
H	 4.0357193363	-1.2925388112	 2.1842479784	 0.101134
H	 2.7121711171	-0.6536426141	 3.2141286333	 0.081
H	 1.9546007158	-3.8420068009	 3.2134111229	 0.284216
96.8883	143.414	174.8001	246.4597	284.5262	324.9291	351.1914	404.192	459.9187	477.8892	624.5321	743.18	752.7678	783.5788	827.029	850.1201	873.6301	909.9595	922.8972	936.5775	962.0735	1005.493	1017.8613	1031.5463	1066.3413	1087.6486	1113.0658	1122.5451	1136.2295	1168.5477	1186.8223	1224.873	1248.6924	1262.3464	1289.5738	1292.6198	1307.2012	1352.2414	1396.3115	1411.349	1437.7853	1485.4347	1499.3838	1504.4599	1506.1437	2992.1648	3015.0607	3023.7856	3030.935	3048.729	3094.9312	3096.6902	3102.371	3134.1216	3179.9955	3230.2033	3791.144
CCC1C2C3C1CC23O	CC[C@H]1[C@H]2[C@H]3[C@@H]1C[C@@]23O	
InChI=1S/C8H12O/c1-2-4-5-3-8(9)6(4)7(5)8/h4-7,9H,2-3H2,1H3	InChI=1S/C8H12O/c1-2-4-5-3-8(9)6(4)7(5)8/h4-7,9H,2-3H2,1H3/t4-,5-,6+,7-,8-/m1/s1
