19
gdb 116280	2.19527	1.5456	1.0745	4.3703	72.09	-0.236	-0.0118	0.2242	1170.1344	0.158055	-460.157624	-460.148525	-460.147581	-460.192607	32.323	
C	 0.0288820271	 1.3524721789	-0.2031878445	-0.241062
O	-0.0661045863	-0.0055232757	 0.1651069337	-0.245037
C	-1.3765700186	-0.5429680664	 0.0982740861	 0.085414
C	-1.786427735	-0.9608991611	-1.3297399434	-0.238321
C	-1.3614913137	-2.4304119551	-1.3701439977	-0.084385
O	-1.6889336424	-2.9166005216	-0.0719465345	-0.240653
C	-1.3760982269	-1.9074056198	 0.8608955611	-0.021538
C	-0.0326101333	-2.1513001868	 1.5544127357	 0.173419
O	 0.7401305175	-3.0130880999	 1.2372729753	-0.244444
H	 1.0701144953	 1.6503079693	-0.0618093438	 0.137471
H	-0.2454253493	 1.5211628016	-1.2544643202	 0.111675
H	-0.6142792776	 1.9857875263	 0.4271578512	 0.109619
H	-2.0861785359	 0.1686438718	 0.5411137819	 0.07259
H	-2.8712088976	-0.8802953942	-1.448383445	 0.110407
H	-1.3065269282	-0.3404159129	-2.0900241698	 0.110527
H	-1.9076340188	-3.0339309754	-2.0985562698	 0.111924
H	-0.2841452209	-2.5281861924	-1.5609356736	 0.117821
H	-2.1478444507	-1.91735359	 1.6432155481	 0.100445
H	 0.1567652953	-1.4753532566	 2.4173817992	 0.074131
34.4215	97.0769	107.6034	174.7481	209.0968	235.4427	297.636	344.7181	418.1268	464.5704	635.7011	712.6702	747.9022	818.327	837.404	910.1119	944.8599	959.6264	1000.0894	1015.5834	1045.3833	1109.876	1149.4491	1153.3558	1183.4022	1201.2703	1227.7419	1236.085	1268.3698	1298.8934	1327.3319	1350.4562	1376.499	1396.2909	1419.3831	1472.4822	1478.9361	1489.9673	1509.6222	1519.504	1846.1028	2884.0236	2980.6593	3004.9832	3017.9376	3022.9875	3032.0134	3062.361	3105.7892	3118.715	3122.449
COC1CCOC1C=O	CO[C@H]1CCO[C@H]1C=O	
InChI=1S/C6H10O3/c1-8-5-2-3-9-6(5)4-7/h4-6H,2-3H2,1H3	InChI=1S/C6H10O3/c1-8-5-2-3-9-6(5)4-7/h4-6H,2-3H2,1H3/t5-,6-/m0/s1
