22
gdb 104229	2.13774	1.3237	1.05075	1.8972	85.1	-0.2464	0.0358	0.2822	1305.8155	0.192464	-404.355523	-404.34506	-404.344115	-404.391193	37.41	
C	 0.0230540928	 1.5886694311	 0.1205223825	-0.393518
C	-0.0337825379	 0.0665336071	-0.0477168887	-0.231495
C	-1.454081091	-0.5243436778	-0.0250924753	 0.145958
C	-2.3560124562	 0.0183864205	-1.134483018	-0.451896
C	-1.4937301717	-2.0659610132	 0.1585830628	-0.125279
O	-2.1056443382	-1.9144574127	 1.4741506778	-0.274366
C	-2.1021548783	-0.5331348416	 1.353539557	 0.454395
N	-2.5076857001	 0.3513825137	 2.1402607929	-0.335483
C	-3.0922834687	-0.0416298264	 3.4157882692	-0.341604
H	 1.0611923045	 1.9251569061	 0.2001713688	 0.110524
H	-0.4257773636	 2.1081905449	-0.7314449296	 0.115552
H	-0.5115930296	 1.8960619712	 1.0234346622	 0.151013
H	 0.4447571246	-0.2267632333	-0.9919924384	 0.094694
H	 0.5494365045	-0.40539941	 0.7527468039	 0.101234
H	-1.8955841023	-0.1329341014	-2.1173050991	 0.114624
H	-3.3286869006	-0.4829630781	-1.1322027327	 0.120798
H	-2.5361216541	 1.0876059079	-1.0005089976	 0.141698
H	-2.1539809441	-2.6151779729	-0.51837852	 0.112652
H	-0.5248359995	-2.5673417202	 0.2343757758	 0.113025
H	-4.0966430914	 0.3883803056	 3.4965346722	 0.125424
H	-3.1608011892	-1.1258035677	 3.5622539382	 0.126278
H	-2.4967639398	 0.3847871975	 4.2308246762	 0.125771
71.2325	96.693	99.3871	130.1671	176.5752	209.7959	238.7292	261.9135	302.1613	312.8566	384.5744	405.6031	556.0338	674.0848	714.5972	761.4624	797.7888	885.6315	912.7018	968.1712	979.2348	1016.7853	1035.3375	1061.8683	1076.1727	1103.659	1131.8943	1156.9535	1168.4873	1199.3534	1238.5036	1252.628	1315.6454	1363.9785	1373.1471	1411.2558	1414.4777	1439.1958	1480.5432	1491.8835	1494.5304	1496.9602	1497.525	1506.4986	1512.7375	1520.025	1838.4643	3012.4194	3017.123	3034.6295	3042.643	3049.5152	3051.6067	3081.2492	3087.2965	3101.0722	3106.7773	3109.1469	3123.7522	3126.6921
CCC1(C)COC1=NC	CC[C@@]1(C)COC1=NC	
InChI=1S/C7H13NO/c1-4-7(2)5-9-6(7)8-3/h4-5H2,1-3H3	InChI=1S/C7H13NO/c1-4-7(2)5-9-6(7)8-3/h4-5H2,1-3H3/t7-/m0/s1
