19
gdb 87380	2.12009	1.59731	1.05597	3.6104	77.14	-0.2375	-0.0359	0.2016	1186.2728	0.156604	-423.020193	-423.010995	-423.010051	-423.054235	34.11	
C	-0.0213870465	 1.4517685366	-0.3441762797	-0.417948
C	 0.0458179822	-0.022876593	-0.0483132972	-0.011301
O	 1.3314179164	-0.6421344221	-0.1092566367	-0.280537
C	 0.6842669086	-0.6078711186	 1.1516116252	 0.305595
C	 1.2498054951	-0.021547381	 2.4708473501	-0.087661
C	 0.8520148469	 1.3790781462	 2.9208632108	-0.411717
C	 0.5977095134	-1.2176174359	 3.2437829694	-0.37739
C	 0.2214651514	-1.853817768	 1.8922825498	 0.344129
O	-0.2248887976	-2.9097393986	 1.5494806507	-0.300431
H	 0.8290285844	 1.9803538406	 0.0891534119	 0.132322
H	-0.0081486154	 1.61151765	-1.4274585888	 0.134691
H	-0.947464055	 1.8851481682	 0.0470736213	 0.12742
H	-0.7441758029	-0.6274449319	-0.4990210811	 0.110738
H	 2.3400341713	-0.120768385	 2.4633758325	 0.099171
H	-0.2336447315	 1.5184356662	 2.877992338	 0.117069
H	 1.1681287257	 1.5481189108	 3.9555248655	 0.123186
H	 1.317142332	 2.1541787804	 2.3053784407	 0.125705
H	 1.2581602015	-1.8204845011	 3.8712641858	 0.136005
H	-0.2835510401	-0.9383023138	 3.8312861816	 0.130954
58.5357	124.5644	159.4805	207.5079	235.7181	274.7026	285.038	302.856	398.4442	467.8088	516.6937	566.9963	618.7167	671.8807	774.2874	834.9525	859.3425	913.6347	927.1283	1010.9558	1031.0804	1045.0088	1070.8742	1112.8162	1122.0897	1146.9616	1176.1088	1187.5163	1222.2578	1258.3947	1338.9118	1364.9865	1405.2813	1413.9911	1438.4113	1460.7785	1482.1325	1495.8684	1501.0845	1507.7203	1890.3739	3033.983	3042.9809	3055.6917	3058.2223	3091.328	3099.3914	3104.1324	3109.7405	3117.9676	3145.7723
CC1OC11C(C)CC1=O	C[C@H]1O[C@]21[C@@H](C)CC2=O	
InChI=1S/C7H10O2/c1-4-3-6(8)7(4)5(2)9-7/h4-5H,3H2,1-2H3	InChI=1S/C7H10O2/c1-4-3-6(8)7(4)5(2)9-7/h4-5H,3H2,1-2H3/t4-,5+,7-/m0/s1
