19
gdb 35907	2.99066	1.39655	1.06755	4.7086	78.95	-0.2423	0.0295	0.2718	1139.2966	0.16207	-382.066853	-382.059019	-382.058075	-382.099268	30.496	
N	 0.0050497051	-1.1726141516	-0.0015455349	-0.324436
C	 0.0073900921	-0.0173543797	-0.0036273912	 0.291274
C	-0.0172374079	 1.4518213249	 0.0248911993	-0.115049
C	-0.9266975279	 1.9653079534	 1.1670366549	-0.215615
C	-0.7999475048	 3.4873621599	 1.2582679687	-0.210386
C	 0.6357186039	 3.8826010743	 1.6343387658	-0.230262
C	 1.6880375762	 3.159678915	 0.7911011892	-0.002627
C	 2.1848851746	 1.8145372346	 1.2016141852	-0.243706
N	 1.3629166567	 1.9550589155	 0.0035169507	-0.093401
H	-0.4692296228	 1.783870276	-0.9199160421	 0.131256
H	-1.9551039552	 1.6586412527	 0.9537231776	 0.120357
H	-0.6475747311	 1.4984425247	 2.1186712333	 0.117363
H	-1.0705511402	 3.9300598132	 0.290572321	 0.105643
H	-1.502808739	 3.8861119434	 1.9959023188	 0.104879
H	 0.767162669	 4.9623113426	 1.5192348786	 0.109313
H	 0.7992775585	 3.6635073397	 2.6961647355	 0.111745
H	 2.3807822338	 3.8109831309	 0.2634424805	 0.100769
H	 3.2122988927	 1.5121350553	 1.0194954306	 0.124479
H	 1.7406738164	 1.3804674952	 2.0954844385	 0.118402
83.4674	146.0276	193.1622	270.6412	344.8891	375.6479	434.4127	443.8887	542.4368	577.2707	626.0183	729.6274	784.5761	837.7624	885.4018	909.9545	926.6081	954.4624	986.3918	1036.5879	1068.5567	1082.2609	1117.2135	1123.3312	1135.5742	1167.9645	1188.9941	1220.3604	1283.8336	1317.8181	1328.1507	1352.8749	1365.5124	1370.5097	1380.4551	1403.1083	1487.926	1490.0871	1499.0966	1516.7368	2362.0679	3013.4035	3022.8665	3034.6603	3044.7524	3080.3386	3085.5225	3091.8406	3099.8851	3130.3705	3185.1437
N#CC1CCCC2CN12	N#C[C@H]1CCC[C@H]2CN12	
InChI=1S/C7H10N2/c8-4-6-2-1-3-7-5-9(6)7/h6-7H,1-3,5H2	InChI=1S/C7H10N2/c8-4-6-2-1-3-7-5-9(6)7/h6-7H,1-3,5H2/t6-,7+,9?/m1/s1
