19
gdb 75587	2.47794	1.57312	1.00778	5.5621	81.56	-0.1988	-0.0018	0.197	1180.5414	0.161772	-419.252889	-419.244051	-419.243106	-419.286457	33.129	
C	-0.3325302344	 1.5149870048	 0.0012958819	-0.449529
C	-0.103112958	 0.0183595258	 0.0175939614	 0.133272
C	-0.0442926874	-0.6348111549	-1.1692264891	-0.056503
N	 0.1464330313	-1.9511328431	-1.4911268861	-0.310618
C	 0.5509025147	-2.9893914394	-0.5695312321	-0.153886
C	-0.2760253567	-2.9482383386	 0.7194496631	-0.161997
N	 0.1270435771	-1.8817521855	 1.6063747925	-0.338004
C	 0.0766249299	-0.5193797726	 1.3843694086	 0.323105
O	 0.1932501399	 0.2368304785	 2.3427475576	-0.386228
H	 0.5034408187	 2.044411315	 0.4682883479	 0.134769
H	-0.4540270593	 1.8852090424	-1.0209162634	 0.093963
H	-1.2239839626	 1.7888740942	 0.5756071884	 0.125131
H	-0.1960958232	-0.0311443403	-2.0609901271	 0.10187
H	 0.3063595232	-2.1380450964	-2.465737889	 0.247529
H	 0.3967343708	-3.9506845483	-1.0706177872	 0.10787
H	 1.6149653104	-2.9138916291	-0.2998995375	 0.115297
H	-1.3416481174	-2.8947124827	 0.4535973915	 0.118618
H	-0.1215355881	-3.8881103743	 1.2562802414	 0.114955
H	 0.2012846811	-2.0922957353	 2.5899672774	 0.240387
72.6453	98.8689	164.6939	263.5378	272.6912	315.1596	327.061	379.7744	406.7511	463.7591	522.2681	549.4607	628.0962	663.7984	765.47	784.7759	857.3894	929.5139	961.9259	1015.1323	1060.545	1072.6769	1084.4901	1123.6749	1186.2093	1257.1231	1274.2206	1307.4001	1337.2644	1391.1628	1402.8586	1416.2847	1438.966	1459.2806	1468.4763	1491.28	1500.2379	1502.2823	1542.8072	1699.7003	1728.2698	2988.7674	3004.7653	3033.5469	3071.09	3090.0228	3091.8664	3108.9018	3153.6874	3622.0883	3656.9613
CC1=CNCCNC1=O	CC1=CNCCNC1=O	
InChI=1S/C6H10N2O/c1-5-4-7-2-3-8-6(5)9/h4,7H,2-3H2,1H3,(H,8,9)	InChI=1S/C6H10N2O/c1-5-4-7-2-3-8-6(5)9/h4,7H,2-3H2,1H3,(H,8,9)
