18
gdb 41766	2.60405	2.14925	1.6128	0.5921	74.64	-0.2207	0.0114	0.2321	886.883	0.151117	-401.92193	-401.915332	-401.914388	-401.952928	26.98	
C	 0.1435434271	 1.6527983053	-0.0007082933	-0.106468
O	 1.3713749255	 1.9568849329	-0.6584151253	-0.265522
C	 2.2560283427	 0.8240753791	-0.5129246312	 0.031561
C	 3.1303451045	 1.0173678557	 0.7024143744	-0.078066
C	 2.737318601	 0.6063410562	 1.9045341867	-0.043773
C	 1.4603361159	-0.1533489742	 2.1345305236	-0.217384
N	 0.8042957744	-0.6826867234	 0.9374175865	-0.102634
C	 0.0151414829	 0.1338438431	 0.0150464122	-0.057129
C	 1.346246746	-0.3981416588	-0.3858425667	-0.070183
H	 0.1245854906	 2.0846570652	 1.0119222171	 0.096584
H	-0.6704480689	 2.1076933135	-0.5744288255	 0.110987
H	 2.8543579989	 0.7786503775	-1.4272020317	 0.083468
H	 4.0551541289	 1.5710226395	 0.5745252439	 0.095077
H	 3.3457637025	 0.7955433174	 2.7859168102	 0.093939
H	 1.6713182098	-1.0071831852	 2.7937654098	 0.118555
H	 0.7463435042	 0.4709124326	 2.6894720092	 0.120089
H	-0.9263617345	-0.31061077	-0.2949286385	 0.09645
H	 1.5001659088	-1.2442952865	-1.0491161512	 0.094449
85.9517	227.2618	280.6294	444.964	473.4344	514.7565	551.4249	658.3789	712.7779	728.0179	784.9415	794.2123	862.3248	907.46	918.1528	957.8983	968.2532	986.0573	999.897	1025.2952	1052.0912	1059.0415	1074.868	1108.3189	1135.2505	1191.0367	1233.7436	1251.1918	1306.0737	1319.5021	1327.0452	1347.382	1363.1971	1368.6713	1402.3732	1416.297	1480.4692	1518.3329	1723.6904	2982.0627	3002.7969	3024.2007	3067.1375	3069.9329	3141.9539	3150.2557	3151.6831	3181.8025
C1OC2C=CCN3C1C23	C1O[C@H]2C=CCN3[C@@H]1[C@@H]23	
InChI=1S/C7H9NO/c1-2-6-7-5(4-9-6)8(7)3-1/h1-2,5-7H,3-4H2	InChI=1S/C7H9NO/c1-2-6-7-5(4-9-6)8(7)3-1/h1-2,5-7H,3-4H2/t5-,6-,7-,8?/m0/s1
