21
gdb 39237	2.79904	1.55685	1.15724	1.8119	81.04	-0.2502	0.082	0.3323	1108.3765	0.185496	-387.07239	-387.06486	-387.063916	-387.104129	30.984	
C	-0.0450678679	 1.4812621734	-0.1969665852	-0.324374
C	 1.3085094591	 0.8768055022	 0.0853828627	 0.021711
C	 1.9738708082	 0.9674757508	 1.4448085928	-0.241389
C	 2.7596793327	-0.3095383593	 1.7763379249	-0.224623
C	 1.9470030877	-1.5693590906	 2.0148154679	 0.082784
O	 0.9717796713	-1.5635534384	 3.0614896703	-0.261412
C	 0.5164277978	-1.790043243	 1.7183227429	 0.047414
C	-0.4328317411	-0.7475641153	 1.1328858873	-0.27116
C	 0.1051748721	-0.018862353	-0.0856986401	 0.003131
H	-0.5512471752	 1.9945629407	 0.6153416144	 0.109757
H	-0.2231246757	 1.9171235282	-1.1740298805	 0.108667
H	 2.0100841357	 0.8847926048	-0.7459546791	 0.077461
H	 2.658582507	 1.8235327539	 1.4674667698	 0.094321
H	 1.2339675833	 1.1503818751	 2.2300023373	 0.110229
H	 3.4608964469	-0.5251008009	 0.9585383509	 0.097928
H	 3.3788594424	-0.1472341252	 2.6686402729	 0.105223
H	 2.5702136468	-2.4682853728	 2.0262204342	 0.080505
H	 0.2257849946	-2.8274240596	 1.5393023573	 0.08559
H	-1.3840327025	-1.2317516201	 0.8845227988	 0.099418
H	-0.6581966722	-0.0327931235	 1.929419327	 0.119699
H	 0.0517145491	-0.5806211872	-1.0142524364	 0.079121
104.7573	209.1234	256.9617	320.034	353.855	370.3173	427.1372	462.8631	551.7726	661.7451	756.9644	766.7795	781.8911	822.6576	854.0011	888.5273	916.34	925.6969	976.3166	983.5456	1020.4031	1052.8635	1066.5053	1076.5886	1119.6565	1132.128	1136.1048	1144.5001	1179.4162	1226.8439	1246.786	1257.2049	1272.4636	1309.3845	1328.1797	1355.2898	1386.776	1399.4682	1404.7977	1431.2514	1468.8048	1477.1155	1487.1424	1494.808	1505.2094	3011.5609	3035.4211	3040.9623	3047.8867	3060.3631	3076.8769	3083.091	3094.3785	3124.2073	3125.7581	3142.5717	3209.4171
C1C2CCC3OC3CC12	C1[C@H]2CC[C@H]3O[C@H]3C[C@@H]12	
InChI=1S/C8H12O/c1-2-7-8(9-7)4-6-3-5(1)6/h5-8H,1-4H2	InChI=1S/C8H12O/c1-2-7-8(9-7)4-6-3-5(1)6/h5-8H,1-4H2/t5-,6-,7-,8+/m1/s1
