19
gdb 74939	3.15969	1.69195	1.37162	1.558	79.82	-0.226	0.0098	0.2357	996.6464	0.161168	-385.871629	-385.864521	-385.863576	-385.902865	29.012	
C	-0.0138289142	 1.5017657384	 0.0766626871	-0.502728
C	-0.0560714165	 0.0101024315	-0.0087406736	 0.335505
C	-0.0654361845	-0.7585664573	-1.104049216	-0.179843
C	-0.0031364498	-2.2300233394	-0.7850946073	-0.079709
C	 1.4476253087	-2.7768586025	-0.4713188899	-0.246076
C	 1.1692635655	-2.6100934822	 1.0430504455	 0.122146
O	 1.398114576	-1.2724085448	 1.5397197254	-0.32124
C	 0.0171439232	-0.8691600357	 1.2216922256	 0.014296
C	-0.3141269384	-2.2962911174	 0.7441198799	-0.104108
H	 0.9061882979	 1.8358017634	 0.5728159521	 0.139338
H	-0.0547062804	 1.9668650385	-0.9120311167	 0.122405
H	-0.8491016311	 1.890998907	 0.6726457458	 0.123779
H	-0.0384742487	-0.3804243455	-2.1216376775	 0.089952
H	-0.5880135934	-2.8625780746	-1.4555361561	 0.069926
H	 1.5550990671	-3.8317321894	-0.7431134266	 0.097572
H	 2.2882127976	-2.2086413146	-0.8742191146	 0.105756
H	 1.5405116413	-3.370925587	 1.7338101884	 0.073354
H	-0.4685776659	-0.4650667781	 2.1159135874	 0.06711
H	-1.1810081646	-2.8341909802	 1.121697831	 0.072565
140.4682	186.0727	235.0327	313.6853	348.6905	420.3198	563.4595	580.5336	667.4411	713.571	786.7198	822.7846	850.9974	866.2446	899.5	912.4709	928.7374	952.091	962.3065	978.7181	1009.3271	1032.7935	1064.6339	1068.0821	1130.2742	1149.647	1177.2784	1201.4962	1237.3261	1246.9412	1266.3969	1287.3503	1293.9409	1326.2619	1332.8582	1350.2743	1411.8444	1461.3044	1479.2683	1489.2712	1705.1818	3017.7536	3050.5751	3052.0039	3065.397	3077.1194	3085.9184	3110.2434	3121.492	3136.49	3176.1587
CC1=CC2CC3OC1C23	CC1=C[C@H]2C[C@H]3O[C@@H]1[C@@H]23	
InChI=1S/C8H10O/c1-4-2-5-3-6-7(5)8(4)9-6/h2,5-8H,3H2,1H3	InChI=1S/C8H10O/c1-4-2-5-3-6-7(5)8(4)9-6/h2,5-8H,3H2,1H3/t5-,6+,7-,8-/m0/s1
