17
gdb 125759	2.90613	0.94287	0.71774	1.57	77.8	-0.2515	-0.0952	0.1563	1567.2332	0.130323	-455.126199	-455.114865	-455.113921	-455.164169	37.695	
C	 0.0050440596	 1.6460804322	-0.1453486731	-0.487133
C	-0.1525490102	 0.216189304	 0.2365829707	 0.267463
N	-1.1520022521	-0.5046302074	-0.1342228348	-0.136541
O	-1.0155905829	-1.8127852249	 0.3869850374	-0.278161
C	 0.1420721218	-1.8921415188	 1.1223366488	 0.358515
C	 0.5488662256	-2.999209128	 1.7418650568	-0.404286
N	-2.0548269281	-4.8592486407	 0.7693937793	-0.717502
H	-2.0740752188	-5.504657469	-0.015625748	 0.239067
H	-2.8889985126	-5.0569123847	 1.3155329628	 0.239073
H	-2.1855211881	-3.9296326374	 0.376757855	 0.259788
C	 0.7957909395	-0.5628549444	 1.0778684688	 0.182148
O	 1.8304766376	-0.1939530042	 1.5879671226	-0.314333
H	 0.9436365971	 1.7891031925	-0.6906040807	 0.154056
H	-0.8290049134	 1.9762088906	-0.7664296557	 0.15102
H	 0.0607433486	 2.2715953728	 0.7515019828	 0.154056
H	-0.0273560995	-3.9190547334	 1.6968221656	 0.184361
H	 1.479053246	-2.9539961693	 2.2962718515	 0.148408
33.8126	64.8511	99.2589	112.8677	116.9845	124.8297	182.0907	241.0905	279.5936	301.2096	308.5803	336.0998	522.4643	549.9447	565.0061	728.5565	749.5706	759.7432	822.7563	895.3698	945.8923	992.8853	1013.4446	1044.4124	1059.9767	1111.5462	1262.7736	1350.7663	1415.8284	1426.5202	1472.036	1472.97	1649.1203	1675.2908	1689.4528	1705.5611	1807.1385	3045.9348	3102.9576	3137.5696	3147.7788	3252.9687	3462.9632	3580.3772	3584.2676
CC1=NOC(C[NH3+])=C1[O-]	CC1=NOC(=C)C1=O.N	
InChI=1S/C5H8N2O2/c1-3-5(8)4(2-6)9-7-3/h8H,2,6H2,1H3	InChI=1S/C5H5NO2.H3N/c1-3-5(7)4(2)8-6-3;/h2H2,1H3;1H3
