13
gdb 127192	2.42488	2.04665	1.11764	2.471	64.26	-0.2864	-0.1053	0.1811	983.8133	0.088567	-486.048845	-486.040992	-486.040048	-486.081906	27.811	
C	 0.068925972	 1.4572726502	 0.0427125308	-0.340142
N	 0.0110265769	-0.0075380875	 0.0071622404	-0.217713
C	-0.0782616742	-0.6491409578	-1.2129873613	 0.526171
O	-0.1149144665	-0.1016636227	-2.2769455088	-0.349453
O	-0.1269320746	-2.0183037634	-1.156749851	-0.265103
N	-0.0902970193	-2.7441744846	 0.0999962403	 0.071225
N	-0.0097922819	-2.1159307997	 1.1432350615	-0.144058
C	 0.0520194107	-0.6915939681	 1.209511435	 0.480917
N	 0.1385999525	-0.084935366	 2.3198138946	-0.512013
H	 0.9969876675	 1.7740560976	 0.5233402815	 0.159673
H	 0.0215584956	 1.815008982	-0.9823934662	 0.177201
H	-0.7690591847	 1.8407005481	 0.6286408216	 0.159752
H	 0.152960996	-0.7640242281	 3.0790672417	 0.253543
60.1064	118.9873	137.1108	213.1936	336.8489	376.8289	428.7953	485.1063	527.1688	559.5235	636.8562	749.5082	755.3117	795.2623	884.9221	891.963	973.8344	1069.1783	1113.8752	1160.2877	1212.9483	1350.3355	1402.9237	1456.9149	1487.5937	1505.9361	1668.2609	1729.3429	1864.4418	3068.908	3134.776	3199.7018	3519.6598
CN1C(=O)ON=NC1=N	Cn1c(=O)onnc1[NH]	
InChI=1S/C3H4N4O2/c1-7-2(4)5-6-9-3(7)8/h4H,1H3	InChI=1S/C3H7N4O2/c1-7-2(4)5-6-9-3(7)8/h2,4-6H,1H3
