18
gdb 22629	4.06189	1.10072	0.98814	1.309	84.55	-0.2177	-0.0319	0.1859	1233.9497	0.147594	-401.914694	-401.906469	-401.905525	-401.947085	32.27	
C	 0.0033980461	 1.5247998057	 0.0433893916	-0.484775
C	 0.0584494686	 0.0155129223	 0.0139243049	 0.307218
C	-0.817239796	-0.8165677418	 0.932529641	-0.317662
C	 0.6944308497	-0.8353942348	 1.1006338879	-0.172655
C	 1.4377493612	-1.9220047646	 0.3939643906	 0.395396
C	 1.1674119573	-1.7842656616	-1.044155859	-0.168185
C	 0.4142207967	-0.6932638368	-1.2576572599	-0.145679
N	 2.174472497	-2.7584755846	 1.0238160073	-0.252796
O	 2.7656499338	-3.6833123568	 0.1453648779	-0.393234
H	 0.9535418538	 1.96459853	-0.2784585858	 0.124907
H	-0.7828559894	 1.9036272702	-0.6201270724	 0.120246
H	-0.2114651611	 1.8904271953	 1.0519526381	 0.120036
H	-1.3748082636	-0.2887643592	 1.7002537898	 0.114018
H	-1.3111307929	-1.6943733865	 0.5306234289	 0.119867
H	 1.1156083042	-0.4050145484	 2.0003283769	 0.101354
H	 1.5173520149	-2.4896579616	-1.7833066119	 0.121253
H	 0.0630068172	-0.3515985311	-2.2256491185	 0.104684
H	 3.2822964926	-4.2290516157	 0.7468963224	 0.306007
105.1828	200.6223	212.2724	253.6997	276.331	321.1537	371.0347	410.5054	438.4029	512.84	607.6233	701.5898	706.5004	768.5611	817.2764	838.0959	855.4918	924.4658	940.7498	963.6111	977.55	996.824	1036.1389	1063.9682	1074.7524	1106.892	1127.5597	1224.4591	1246.3119	1296.9859	1351.0517	1376.6799	1415.4287	1424.0247	1479.4316	1488.7288	1501.2154	1628.1638	1721.577	3026.7356	3087.2023	3105.8399	3124.9383	3188.8763	3195.4057	3217.9086	3251.0552	3824.4497
CC12CC1C(C=C2)=NO	C[C@]12C[C@H]1C(=NO)C=C2	
InChI=1S/C7H9NO/c1-7-3-2-6(8-9)5(7)4-7/h2-3,5,9H,4H2,1H3	InChI=1S/C7H9NO/c1-7-3-2-6(8-9)5(7)4-7/h2-3,5,9H,4H2,1H3/t5-,7-/m0/s1
