15
gdb 44252	3.13265	1.54018	1.18677	2.0905	66.64	-0.2506	-0.0462	0.2044	1004.4715	0.113941	-453.951236	-453.943964	-453.94302	-453.983831	26.859	
N	-0.1366716786	 1.3164448659	-0.1356935283	-0.549806
C	-0.0439715948	 0.0869927109	 0.1309345328	 0.420678
O	 1.0774823573	-0.5481285206	 0.5989021574	-0.244658
C	 0.9355188479	-1.9727762437	 0.5422811599	-0.122232
C	-0.5129150416	-2.1945403466	 0.0725678881	-0.13009
N	-1.0925963832	-0.8332879113	-0.0260630396	-0.127102
C	-1.5844832001	-1.0341947129	-1.4233966494	-0.296064
C	-0.8522001729	-2.3954047366	-1.4279478205	 0.37414
O	-0.5999134808	-3.2265980436	-2.2426547111	-0.266038
H	 0.7564267995	 1.7822491795	 0.0112578374	 0.230594
H	 1.6750349529	-2.3870588091	-0.1506819573	 0.138611
H	 1.1145751238	-2.3820699624	 1.539639262	 0.133593
H	-1.0730105638	-2.870338941	 0.7261780635	 0.12556
H	-2.673402432	-1.1158953127	-1.4863623349	 0.149515
H	-1.2323115438	-0.2767486458	-2.1296702	 0.163301
53.7181	111.8957	171.2782	265.7246	400.0271	453.5216	550.8802	615.2344	673.0396	701.8138	744.8497	782.2391	830.4943	847.0311	914.2555	983.3303	998.7123	1047.1984	1072.2026	1074.5571	1100.6701	1109.8897	1187.3399	1205.0062	1238.2732	1262.2904	1292.6527	1322.292	1406.0909	1469.202	1525.2569	1776.0746	1916.5737	3050.3443	3057.1543	3063.0154	3101.2015	3115.0999	3524.1001
N=C1OCC2N1CC2=O	[NH][C]1OC[C@H]2N1CC2=O	
InChI=1S/C5H6N2O2/c6-5-7-1-4(8)3(7)2-9-5/h3,6H,1-2H2	InChI=1S/C5H6N2O2/c6-5-7-1-4(8)3(7)2-9-5/h3,6H,1-2H2/t3-/m1/s1
