20
gdb 94881	2.60015	1.79933	1.45041	1.5962	77.28	-0.2226	0.0765	0.299	992.496	0.172919	-403.100133	-403.092479	-403.091534	-403.131768	31.084	
C	 0.2613103769	 1.4112124425	-0.3341535035	-0.400619
C	-0.1556930806	 0.0381589722	 0.187491204	 0.031897
O	-0.1293328975	-0.9665188156	-0.8585513386	-0.283731
C	 1.146770676	-1.6317073621	-0.8690061195	-0.176368
C	 1.596239212	-1.5837966094	 0.5669551814	 0.219071
C	 2.875325431	-1.0981293486	 1.2734979722	-0.270043
C	 2.0141056254	 0.0061379278	 1.9880870732	-0.2799
C	 0.7800488007	-0.5285819561	 1.2322687483	 0.231608
N	 0.6148547766	-1.9454483274	 1.6062171878	-0.406881
H	 1.2956940972	 1.4069388469	-0.6924223871	 0.116855
H	-0.3868366813	 1.7028077951	-1.1643814945	 0.127698
H	 0.1764721669	 2.167135683	 0.4533769147	 0.120862
H	-1.2032762673	 0.075275068	 0.5106932875	 0.086313
H	 0.9688110175	-2.6291676344	-1.2852166729	 0.112041
H	 1.8753391404	-1.1163807328	-1.513961968	 0.097296
H	 3.3645812058	-1.8352186683	 1.9134060875	 0.111708
H	 3.606518567	-0.6743489324	 0.5811443308	 0.103805
H	 1.9449096432	-0.0535166705	 3.0761349101	 0.111801
H	 2.3012355232	 1.0180412242	 1.6972564105	 0.106639
H	-0.2179602631	-2.2919846223	 1.1310536361	 0.239947
137.8948	195.437	240.3293	254.6474	315.4841	381.0746	440.4031	481.1072	521.6462	649.1145	676.0843	728.1802	765.1822	793.0562	833.0341	866.2528	931.9706	939.1995	975.8068	1002.7547	1016.263	1065.6026	1073.4509	1087.0505	1109.6727	1130.1641	1150.9556	1206.7802	1230.5937	1238.9408	1246.44	1296.2432	1333.7388	1352.9022	1363.6955	1386.9086	1395.1486	1404.6512	1465.8691	1484.2521	1489.05	1497.2107	1520.1878	2984.7922	3029.2516	3038.8885	3061.9113	3066.3386	3075.3233	3108.5726	3118.5175	3123.3313	3137.095	3484.15
CC1OCC23CCC12N3	C[C@H]1OC[C@@]23CC[C@@]12N3	
InChI=1S/C7H11NO/c1-5-7-3-2-6(7,8-7)4-9-5/h5,8H,2-4H2,1H3	InChI=1S/C7H11NO/c1-5-7-3-2-6(7,8-7)4-9-5/h5,8H,2-4H2,1H3/t5-,6+,7-/m1/s1
