19
gdb 71220	2.82411	1.84262	1.67444	1.6009	78.7	-0.2308	0.004	0.2349	920.2802	0.160801	-385.854624	-385.847711	-385.846766	-385.885299	29.418	
C	-0.0274104434	 1.5376964674	 0.0139940323	-0.502951
C	 0.0143637219	 0.022046176	-0.0091821416	 0.229362
C	 1.0415104609	-0.6986017948	-0.9563072979	-0.265316
C	 1.2287637029	-1.745968719	 0.1427763757	-0.089687
C	-0.0930738164	-2.4724415156	 0.6401559199	 0.036176
O	-0.0250676448	-1.7096900964	 1.9059650754	-0.294954
C	 0.7573092245	-0.7514701922	 1.2141259642	 0.098664
C	-1.3306531061	-1.9738402541	-0.0507096358	-0.093297
C	-1.3054373618	-0.6570947047	-0.2744890076	-0.078667
H	 0.9667470495	 1.9599721765	 0.1948591974	 0.111912
H	-0.3889866618	 1.9393050819	-0.940051156	 0.117012
H	-0.6950573252	 1.9016353417	 0.8030288493	 0.123685
H	 0.6796132697	-1.0027388793	-1.9415865982	 0.096463
H	 1.9598280001	-0.1104247087	-1.0642854278	 0.097092
H	 2.1366285434	-2.3444774489	 0.2212494433	 0.073617
H	-0.0479142313	-3.5471387581	 0.8192284976	 0.075816
H	 1.3742924361	-0.1276846221	 1.8649969896	 0.076083
H	-2.1856099721	-2.6157271319	-0.2267202431	 0.096411
H	-2.147131766	-0.0873451777	-0.6574036867	 0.09258
203.9496	239.0681	274.0903	375.2745	387.0048	427.3537	511.4813	571.5653	658.9163	700.0568	702.9571	743.7463	775.6414	817.8081	851.3605	888.2764	918.9932	948.8398	958.8274	986.9821	1003.194	1007.5356	1061.5718	1068.5768	1109.4042	1141.21	1170.124	1206.0214	1220.8924	1227.6691	1244.0162	1266.5877	1294.1757	1324.4111	1342.9467	1392.6064	1411.9542	1479.115	1492.8642	1495.4506	1666.2949	3021.7751	3039.8578	3085.3994	3087.2736	3094.1995	3102.4604	3102.6928	3113.8043	3164.1525	3203.2461
CC12CC3C(OC13)C=C2	C[C@@]12C[C@@H]3[C@@H](O[C@H]13)C=C2	
InChI=1S/C8H10O/c1-8-3-2-6-5(4-8)7(8)9-6/h2-3,5-7H,4H2,1H3	InChI=1S/C8H10O/c1-8-3-2-6-5(4-8)7(8)9-6/h2-3,5-7H,4H2,1H3/t5-,6+,7+,8-/m1/s1
