18
gdb 47584	2.32392	2.02298	1.22722	2.3192	72.2	-0.2584	0.0204	0.2788	1014.8981	0.150149	-439.085666	-439.078301	-439.077357	-439.11788	28.681	
N	 0.1666827155	 0.8287157642	 1.0106856214	-0.517243
C	 0.1051389782	-0.137302977	 0.1973536282	 0.394825
O	 1.2222483948	-0.6572041208	-0.3969463944	-0.247765
C	 1.0445378221	-1.8584823102	-1.1537257548	 0.0047
O	 0.2699277001	-2.7872698333	-0.4715038445	-0.237629
C	-1.0678557519	-2.3213886094	-0.3573437069	 0.124622
C	-1.7245442728	-2.5141477174	 1.0255804822	-0.246627
C	-2.1927685497	-1.0289490923	 0.9778718667	-0.230628
C	-1.2048578403	-0.7802100948	-0.1938497133	-0.152637
H	 1.1362997662	 1.1272607094	 1.1337063465	 0.221064
H	 0.6069273838	-1.6066444589	-2.1332300423	 0.097583
H	 2.0434170857	-2.2764557699	-1.285758686	 0.131318
H	-1.669465238	-2.7149999665	-1.1865763878	 0.079081
H	-2.4889503693	-3.2883374511	 1.1097025463	 0.104806
H	-0.957780536	-2.6821171697	 1.7853197561	 0.125129
H	-3.233496663	-0.9229438625	 0.6647242884	 0.105357
H	-2.0190556348	-0.4196454337	 1.8637720033	 0.138719
H	-1.6046660505	-0.2478069361	-1.0621851692	 0.105324
81.1365	97.6353	259.3855	290.5499	401.6116	459.219	465.3152	542.8874	580.9349	667.9946	753.8842	771.3159	784.7168	894.9942	913.9706	938.0491	958.2249	969.7305	1024.2006	1039.6593	1083.7623	1092.2781	1122.4773	1149.45	1186.6204	1205.1874	1241.1302	1262.4919	1267.9888	1284.1138	1292.6813	1302.2153	1348.0506	1387.3811	1450.8625	1476.9495	1493.4593	1524.2678	1754.5904	2973.7125	3018.6952	3060.9176	3075.407	3082.9319	3125.1034	3130.8136	3151.8933	3466.9457
N=C1OCOC2CCC12	[NH][C]1OCO[C@H]2CC[C@@H]12	
InChI=1S/C6H9NO2/c7-6-4-1-2-5(4)8-3-9-6/h4-5,7H,1-3H2	InChI=1S/C6H9NO2/c7-6-4-1-2-5(4)8-3-9-6/h4-5,7H,1-3H2/t4-,5+/m1/s1
