17
gdb 7384	4.02707	1.17227	0.99189	4.6286	60.5	-0.246	0.0236	0.2696	1152.4262	0.142687	-438.165719	-438.157151	-438.156207	-438.199233	31.076	
N	-0.4128048684	 0.6724426375	-0.0748017034	-0.551198
H	-1.208485703	 0.5589984696	-0.6975181164	 0.253839
H	 0.4950023733	-0.3104958565	 1.2324042438	 0.30417
H	 0.3357675671	 1.1066944374	-0.6048509357	 0.243621
C	-0.7931374749	 1.514427175	 1.0711500344	-0.112992
C	-2.2700283399	 1.3181604959	 1.4561672547	-0.202469
C	-3.2698982834	 1.7701277838	 0.389859884	-0.092213
O	-3.2507025681	 0.9602289267	-0.7892494789	-0.407247
C	 0.0731595366	 1.1411689675	 2.2929582472	 0.42046
O	 0.7295865812	-0.0147892183	 2.1436634895	-0.365652
O	 0.1199200096	 1.810734419	 3.2909724973	-0.351218
H	-0.6300105352	 2.5856114986	 0.8902487224	 0.100089
H	-2.4468570329	 0.2600834659	 1.6952146631	 0.102682
H	-2.4461146071	 1.8839059253	 2.3765872709	 0.138305
H	-4.2812620008	 1.7981107472	 0.8178130154	 0.106893
H	-3.0320646576	 2.7845046218	 0.0515623007	 0.121566
H	-3.6572020264	 0.1145840938	-0.5723556687	 0.291365
71.3427	79.3592	178.4862	197.4787	278.4199	309.876	354.4886	378.5518	432.0297	482.0882	544.4792	653.7144	730.3736	841.6003	852.3241	901.1938	926.3002	945.2785	988.143	1041.6001	1080.8593	1129.9885	1139.352	1224.4862	1251.9207	1285.4248	1331.4453	1354.4347	1392.3241	1393.6839	1411.6138	1441.3023	1471.2991	1502.1069	1667.6318	1867.6497	3008.4312	3012.8689	3022.7437	3077.4503	3092.9733	3413.0318	3486.9218	3570.8156	3814.32
[NH3+]C(CCO)C([O-])=O	N[C@@H](CCO)C(=O)O	
InChI=1S/C4H9NO3/c5-3(1-2-6)4(7)8/h3,6H,1-2,5H2,(H,7,8)	InChI=1S/C4H9NO3/c5-3(1-2-6)4(7)8/h3,6H,1-2,5H2,(H,7,8)/t3-/m0/s1
