20
gdb 6528	2.731	1.66756	1.42455	1.9339	71.4	-0.2354	0.0535	0.289	1002.7642	0.174727	-386.127471	-386.118083	-386.117139	-386.160731	35.563	
C	 0.1093335203	 1.4578538285	 0.3015783155	-0.447483
C	 0.0428612534	-0.0443524325	 0.0986394382	 0.263884
C	-1.3314405588	-0.5439086146	-0.3113508318	-0.46348
C	 1.2624796486	-0.727792392	-0.505622779	-0.386143
C	 0.9725547545	-0.9099256938	 0.9524728507	 0.364733
O	 1.8587120266	-0.254603802	 1.8225183432	-0.464144
C	 0.5492262737	-2.2432789569	 1.5218392914	-0.1451
O	-0.0157110926	-2.0675332239	 2.8237318119	-0.425834
H	 1.0881582902	 1.7638119675	 0.6732162057	 0.136206
H	-0.0911949588	 1.9856893778	-0.6380497745	 0.110108
H	-0.6422622297	 1.7876470995	 1.0296140528	 0.103488
H	-1.6547077497	-0.0482615031	-1.234745554	 0.121104
H	-1.3520846027	-1.6201557425	-0.5018889327	 0.114634
H	-2.0868845525	-0.3203412656	 0.4530227175	 0.105204
H	 1.1062198319	-1.5691011929	-1.1745761144	 0.105127
H	 2.1224198622	-0.1123546038	-0.7485333182	 0.121161
H	 1.4850533711	-0.3776382673	 2.7057010599	 0.283839
H	-0.1338150307	-2.7812854062	 0.8542317963	 0.094054
H	 1.435490874	-2.8679925353	 1.6735888986	 0.121351
H	-0.860648301	-1.6180925111	 2.7126337028	 0.28729
96.4961	131.4306	176.4809	204.3092	252.2668	261.9426	339.8149	349.0632	361.421	417.0328	430.8928	484.9216	516.7749	546.9342	671.0776	764.1167	902.3908	913.4209	918.9606	969.1273	984.703	1000.2384	1039.3832	1044.195	1068.2607	1145.5151	1152.4477	1219.9678	1241.6744	1310.1257	1322.1719	1360.5699	1404.7642	1409.521	1418.6505	1440.1665	1480.634	1490.0794	1490.4127	1496.4016	1507.909	1517.9442	3015.0702	3023.6418	3033.9545	3068.375	3075.2444	3085.264	3107.2917	3121.1264	3138.7352	3210.5582	3756.3279	3806.0477
CC1(C)CC1(O)CO	CC1(C)C[C@]1(O)CO	
InChI=1S/C6H12O2/c1-5(2)3-6(5,8)4-7/h7-8H,3-4H2,1-2H3	InChI=1S/C6H12O2/c1-5(2)3-6(5,8)4-7/h7-8H,3-4H2,1-2H3/t6-/m0/s1
