16
gdb 24398	3.61719	1.60726	1.14038	2.0973	76.62	-0.2055	-0.0172	0.1883	1020.0242	0.127945	-400.800094	-400.793495	-400.79255	-400.831062	26.156	
C	 0.0014218264	 1.4895065374	 0.1101537393	-0.264379
C	 1.3875957612	 2.1669956406	-0.070639296	-0.342916
C	 2.1509946961	 1.3809758994	-1.0739582059	 0.282615
C	 1.9689819102	 0.0645793465	-1.3500492147	 0.209729
C	 0.9191742823	-0.6976686649	-0.695717559	-0.154293
C	 0.0156222134	-0.027629344	 0.0334780364	-0.083075
N	 2.9387783219	-0.3511841278	-2.2591254378	-0.325441
C	 3.636488024	 0.7158573199	-2.4718396922	 0.039222
O	 3.2291025989	 1.8195710516	-1.7823275173	-0.190463
H	-0.4391074369	 1.8178818548	 1.0562857575	 0.111327
H	-0.67403723	 1.8565293602	-0.6782849496	 0.12254
H	 1.26083617	 3.2116786127	-0.370171578	 0.123728
H	 1.9362627486	 2.179316887	 0.8835709857	 0.122837
H	 0.8979018263	-1.7762969093	-0.8023314509	 0.104085
H	-0.7890702224	-0.5560298325	 0.5347706512	 0.096935
H	 4.48512364	 0.8459118083	-3.1243240886	 0.14755
134.0023	208.9324	246.9808	386.5765	425.3101	496.9606	586.1877	640.6252	678.2522	703.8305	755.2896	806.2634	818.3868	860.7153	903.6908	952.9341	982.3248	1015.2025	1036.9079	1097.7281	1140.0799	1159.9398	1193.8689	1235.5817	1265.1381	1286.5193	1331.869	1353.9863	1400.1611	1445.122	1468.8367	1488.0304	1539.3162	1640.7106	1683.7852	2983.7469	2993.8762	3076.2103	3078.6078	3175.7277	3203.2815	3279.7299
C1CC2=C(C=C1)N=CO2	C1Cc2c(C=C1)nco2	
InChI=1S/C7H7NO/c1-2-4-7-6(3-1)8-5-9-7/h1,3,5H,2,4H2	InChI=1S/C7H7NO/c1-2-4-7-6(3-1)8-5-9-7/h1,3,5H,2,4H2
