25
gdb 59862	3.05655	0.78305	0.76941	2.3078	89.57	-0.2377	-0.0078	0.2298	1721.5986	0.225277	-389.532345	-389.520582	-389.519638	-389.570178	42.235	
C	 0.3274421794	 1.6677372156	-0.085430387	-0.388773
C	 0.0616697999	 0.1567320401	-0.0397419379	 0.052587
C	 0.6599114325	-0.5471476054	-1.264338345	-0.39632
C	 0.5918160756	-0.4660243743	 1.2583023637	-0.301717
C	-0.1732743446	-0.0855293373	 2.519680059	 0.384931
O	-1.2498593924	 0.4685058737	 2.4798521262	-0.323664
C	 0.4938690015	-0.4359140227	 3.8541701133	-0.057453
C	 1.3139933236	 0.7872151891	 4.3156738355	-0.387015
C	-0.5453003903	-0.840627025	 4.9043895573	-0.385759
H	 1.404581132	 1.8772193298	-0.0733591681	 0.10226
H	-0.0826969763	 2.1077859535	-1.0002163678	 0.110482
H	-0.1322946336	 2.1750522603	 0.7661148634	 0.131211
H	-1.0246168345	 0.0083030336	-0.0449546427	 0.094225
H	 1.7509288671	-0.4367328909	-1.2908556461	 0.108808
H	 0.4344358601	-1.6191765671	-1.2632125363	 0.107455
H	 0.2635607815	-0.1227402508	-2.1925963969	 0.11242
H	 0.5479591994	-1.5651366471	 1.2026761595	 0.1187
H	 1.6571359521	-0.236045449	 1.4032751529	 0.1104
H	 1.1905141916	-1.2661220038	 3.6809885487	 0.075408
H	 0.6527326903	 1.640666243	 4.4951798466	 0.134688
H	 1.8422871115	 0.5609351301	 5.2467750622	 0.119677
H	 2.0591680936	 1.08619601	 3.5713770545	 0.116958
H	-1.0777104757	-1.7499808646	 4.6090018697	 0.114173
H	-0.0658223923	-1.0256442446	 5.8705325694	 0.107486
H	-1.2865742223	-0.0469415661	 5.0256439659	 0.138833
31.8285	46.0482	92.3709	138.9747	199.7725	226.7888	231.1646	234.143	254.0558	267.6965	298.8972	345.9837	372.7711	416.3042	455.3725	581.2954	650.588	798.9443	835.3528	887.059	887.8999	929.3993	933.3788	965.6008	970.9634	972.8834	1041.5576	1075.1997	1120.6897	1142.8295	1159.2487	1193.416	1201.2	1249.1592	1306.123	1328.1163	1360.1204	1368.7095	1390.4494	1394.4492	1398.7732	1415.3295	1418.1618	1443.6182	1485.7668	1488.1343	1489.1682	1494.355	1501.6422	1505.5075	1510.4176	1512.9198	1799.5622	2995.6203	3020.8132	3024.734	3025.1563	3027.0731	3034.5499	3041.9031	3045.3932	3085.1132	3092.3579	3097.9396	3104.0776	3107.3088	3112.4085	3122.4155	3128.2183
CC(C)CC(=O)C(C)C	CC(C)CC(=O)C(C)C	
InChI=1S/C8H16O/c1-6(2)5-8(9)7(3)4/h6-7H,5H2,1-4H3	InChI=1S/C8H16O/c1-6(2)5-8(9)7(3)4/h6-7H,5H2,1-4H3
