21
gdb 53788	2.45176	1.26889	1.03426	0.1853	79.3	-0.2356	-0.0819	0.1537	1279.6237	0.177519	-424.270835	-424.259741	-424.258797	-424.307333	39.735	
C	-0.0677626041	 1.5357697392	 0.0122816457	-0.464996
C	 0.0803182306	 0.0322663474	 0.002226618	 0.311424
O	 1.1526386134	-0.5267735188	-0.0113574818	-0.279536
C	-1.2632022276	-0.7609984208	 0.0105270204	 0.264887
O	-2.2822795251	-0.1073543193	 0.0234767003	-0.29382
C	-1.2545547266	-2.2939587878	 0.0021737196	 0.152769
C	-2.7078870402	-2.7924950016	 0.0135847588	-0.395494
C	-0.5408449889	-2.7967934218	-1.275124341	-0.427642
C	-0.5161790334	-2.810612673	 1.2597570416	-0.42766
H	 0.9203857243	 1.9960380968	 0.0052981636	 0.138385
H	-0.6500866813	 1.8636648966	-0.8541848539	 0.15566
H	-0.633011219	 1.853642122	 0.8936729407	 0.155631
H	-3.2587901559	-2.4353754659	-0.8603986584	 0.120686
H	-2.7210643503	-3.8869125665	 0.0077559671	 0.106618
H	-3.2416520094	-2.44498334	 0.9019637717	 0.120664
H	 0.5042797654	-2.4871482342	-1.3009811856	 0.147358
H	-0.5800424002	-3.8908500608	-1.3009562115	 0.118223
H	-1.0397140681	-2.4277112267	-2.1778245678	 0.11564
H	-0.9973322454	-2.4514622913	 2.175981462	 0.115622
H	-0.554980949	-3.9048885813	 1.2744159798	 0.118219
H	 0.5292886309	-2.501171252	 1.2686469506	 0.147363
30.2979	77.2033	113.9678	182.6065	193.5123	219.258	243.7407	269.1449	285.5672	318.272	355.4626	357.8898	403.0708	438.0322	529.2855	594.0514	638.6408	733.3439	814.8475	906.2582	939.395	943.822	964.0961	1005.0676	1030.8348	1053.6139	1066.9657	1217.9677	1222.5842	1244.2217	1298.4891	1382.1585	1387.2086	1395.1965	1423.6601	1450.8565	1459.1961	1475.0097	1483.1607	1492.0589	1500.235	1501.3983	1524.7155	1783.304	1802.6394	3034.5133	3035.5168	3043.7769	3052.2903	3095.5516	3097.0911	3114.4537	3114.8642	3121.5828	3147.4898	3150.1347	3162.4417
CC(=O)C(=O)C(C)(C)C	CC(=O)C(=O)C(C)(C)C	
InChI=1S/C7H12O2/c1-5(8)6(9)7(2,3)4/h1-4H3	InChI=1S/C7H12O2/c1-5(8)6(9)7(2,3)4/h1-4H3
