21
gdb 105710	2.22737	1.40672	1.13469	0.7646	89.94	-0.2428	0.0162	0.259	1214.8402	0.181693	-349.938546	-349.929164	-349.92822	-349.97244	35.99	
C	-0.2356186754	 1.4302262735	 0.0061628461	-0.39555
C	 0.0138448972	-0.0700152073	-0.1585505768	-0.203958
C	 0.9442911822	-0.4552821599	-1.348446177	 0.084505
C	 0.996106455	-2.0129175089	-1.524569485	-0.259008
C	-0.0343130443	-2.348799029	-2.6299246009	-0.264046
C	-0.1942527318	-1.033761591	-3.3531229834	-0.078137
C	 0.3426656418	-0.0187133334	-2.6822744141	-0.084832
C	 2.2784995301	 0.1083111798	-1.1358206794	 0.310606
C	 3.3744620742	 0.569800864	-0.9532641619	-0.483818
H	 0.7058040686	 1.9716970172	 0.1390655065	 0.130446
H	-0.7479390517	 1.8504037676	-0.8651029417	 0.115685
H	-0.8627411999	 1.622228618	 0.8821182806	 0.111671
H	 0.460935483	-0.4712053402	 0.7586181559	 0.102006
H	-0.9396903792	-0.5917027107	-0.3045306428	 0.096238
H	 1.9970375143	-2.2972877589	-1.8570611851	 0.115374
H	 0.8031086641	-2.5291944798	-0.5806868562	 0.10082
H	 0.3131495714	-3.1548501274	-3.2856596597	 0.106171
H	-0.9946198106	-2.6854190726	-2.2152870648	 0.108213
H	-0.7180818608	-0.9444273942	-4.2987798225	 0.095283
H	 0.3437982846	 1.0191196547	-2.9921236773	 0.102018
H	 4.3443440672	 0.9741958786	-0.8007161005	 0.190312
88.0013	111.425	151.6669	163.1751	218.6555	250.0764	296.41	380.4243	463.1257	507.8973	532.277	592.2566	619.9185	623.6351	690.1066	764.1875	782.1768	793.7767	853.5155	925.3842	938.1259	972.362	981.2616	1005.0324	1019.2221	1051.0883	1087.2897	1121.9271	1158.9954	1179.5402	1216.5016	1243.6402	1303.8748	1314.3113	1326.034	1355.4538	1380.5173	1407.4973	1477.8396	1484.6329	1497.7344	1499.0544	1507.1774	1687.5072	2226.5752	3012.9724	3025.4976	3038.9836	3055.1446	3065.1089	3068.8913	3105.4314	3113.4038	3114.2366	3185.3962	3216.7642	3500.8461
CCC1(CCC=C1)C#C	CC[C@]1(CCC=C1)C#C	
InChI=1S/C9H12/c1-3-9(4-2)7-5-6-8-9/h1,5,7H,4,6,8H2,2H3	InChI=1S/C9H12/c1-3-9(4-2)7-5-6-8-9/h1,5,7H,4,6,8H2,2H3/t9-/m1/s1
