17
gdb 90911	3.5285	1.54942	1.44	3.2511	72.84	-0.2286	-0.0096	0.219	944.2601	0.135271	-421.676535	-421.669449	-421.668505	-421.707503	29.478	
O	 0.1264057807	 1.3828184522	-0.1847318941	-0.418841
C	 0.0647084938	-0.003763315	 0.0084194316	 0.01285
C	 0.2235094248	-0.4492804478	 1.5561826611	-0.333461
C	-1.3219394978	-0.1970009658	 1.6559473028	 0.005078
C	-2.7478469514	-0.8718903629	 1.5347433245	-0.066314
O	-2.8419934473	-0.1615471511	 0.2097646358	-0.360061
C	-1.3868898826	-0.5324489282	 0.1985037904	 0.367101
C	-1.4973622627	-2.0710711892	 0.1648474986	-0.147156
C	-2.4319450933	-2.2984085206	 1.0872238863	-0.058234
H	 1.0467669776	 1.6547287504	-0.1111283045	 0.291057
H	 0.6846947288	-0.5457097569	-0.7205681979	 0.072683
H	 0.5325885475	-1.4925825658	 1.6409360241	 0.119189
H	 0.8661112689	 0.193076436	 2.1639158597	 0.100726
H	-1.4761639663	 0.8755085608	 1.7823591454	 0.112859
H	-3.5902037187	-0.6573300599	 2.1922133361	 0.083464
H	-0.9442914407	-2.7426145051	-0.4762420318	 0.105063
H	-2.8924229012	-3.2112390712	 1.4343939019	 0.113998
171.4244	222.192	255.5615	346.7382	379.8066	443.3397	516.7215	554.1776	602.7844	663.8797	704.4426	719.6207	762.5924	797.993	836.604	874.419	902.4572	903.862	936.2692	987.7643	1022.7464	1044.4627	1062.8543	1094.2853	1122.3188	1162.0868	1184.556	1192.9871	1204.9409	1246.9974	1250.4595	1293.2251	1311.1203	1380.9435	1420.5901	1455.4786	1620.5983	2992.0453	3063.1628	3102.8507	3126.9591	3137.8976	3225.7661	3256.2515	3818.7706
OC1CC2C3OC12C=C3	O[C@H]1C[C@@H]2[C@H]3O[C@@]12C=C3	
InChI=1S/C7H8O2/c8-6-3-4-5-1-2-7(4,6)9-5/h1-2,4-6,8H,3H2	InChI=1S/C7H8O2/c8-6-3-4-5-1-2-7(4,6)9-5/h1-2,4-6,8H,3H2/t4-,5+,6+,7-/m1/s1
