17
gdb 98340	3.59149	0.86284	0.75578	3.9	70.17	-0.2548	-0.0118	0.243	1481.3505	0.134681	-455.183092	-455.172994	-455.17205	-455.219446	34.334	
C	-0.024107096	 1.340577837	 0.0308752026	-0.246058
O	-0.0275478667	-0.0916001486	-0.088826037	-0.231691
C	 0.6008543441	-0.5816976782	-1.1679218765	 0.461243
O	 1.1460165098	 0.0906192951	-2.0056992933	-0.360095
C	 0.5928304597	-2.1069886991	-1.1645862545	-0.083197
N	 0.6584575979	-2.5688288059	-2.5329665643	-0.515156
C	 1.7706836145	-2.5607563776	-0.2335142691	-0.353624
C	 1.8846726044	-4.0140695404	-0.2027664543	 0.254365
N	 1.9467171256	-5.1683054777	-0.2156468877	-0.303726
H	 0.9997264905	 1.7189861518	 0.0793421395	 0.14495
H	-0.5290768885	 1.7945147688	-0.8247590567	 0.150869
H	-0.5599602632	 1.560575036	 0.9535663335	 0.141471
H	-0.3385043651	-2.4491241721	-0.7030409056	 0.125219
H	 1.3801764219	-2.0603981393	-3.0342551418	 0.245449
H	 0.8602294646	-3.5621346866	-2.5750592252	 0.24857
H	 2.7110871961	-2.1386676224	-0.6061428752	 0.159894
H	 1.6151395105	-2.1866067107	 0.7840822954	 0.161516
37.5836	71.4525	100.9493	113.667	164.1887	211.6601	257.8675	301.9499	352.1424	359.5221	400.1508	457.2033	556.9985	711.4339	746.3686	843.5663	855.5367	900.5517	969.6065	1003.6826	1015.4511	1137.5375	1176.1459	1179.2491	1205.7194	1227.9823	1280.9427	1294.5179	1356.2209	1425.1763	1464.7335	1475.233	1481.5296	1496.1857	1634.2057	1827.0378	2358.6021	3044.1304	3056.8912	3067.6482	3094.7367	3134.4452	3167.4731	3504.6933	3595.585
COC(=O)C(N)CC#N	COC(=O)[C@@H](N)CC#N	
InChI=1S/C5H8N2O2/c1-9-5(8)4(7)2-3-6/h4H,2,7H2,1H3	InChI=1S/C5H8N2O2/c1-9-5(8)4(7)2-3-6/h4H,2,7H2,1H3/t4-/m0/s1
