14
gdb 130190	3.3915	1.60335	1.10237	1.3867	64.12	-0.1923	0.0396	0.2319	1011.9782	0.103482	-469.975792	-469.968362	-469.967418	-470.007532	27.849	
N	-0.0667013301	 1.4063894002	 0.1603192162	-0.59668
C	 0.0542939345	 0.0238340246	 0.0502213857	 0.237591
N	-1.0312657073	-0.7621111787	-0.0056705466	-0.318395
N	-0.5608283949	-2.0620032633	-0.0712411325	-0.35042
C	 0.7771677185	-2.0562595954	-0.0077538428	 0.419075
C	 1.2126203693	-0.7754890719	 0.0616306469	 0.157442
O	 2.6025165332	-0.7548867394	-0.0362814935	-0.293212
C	 2.9344387188	-2.1192308585	 0.219004684	-0.001236
O	 1.7845203004	-2.9612029421	-0.1108167335	-0.289754
H	 0.6279993485	 1.9113974291	-0.373622527	 0.251205
H	-0.9990117669	 1.712824664	-0.0877030214	 0.252766
H	-1.211042873	-2.8210798667	 0.021960211	 0.278569
H	 3.7756266011	-2.4189172615	-0.4073552538	 0.138036
H	 3.148325608	-2.2595461003	 1.2892786372	 0.115012
145.59	206.3776	217.9436	256.5719	280.4055	307.0458	422.0132	530.1747	625.7169	636.8743	653.0407	685.1789	758.2451	770.387	842.5729	883.7651	1025.6634	1046.6127	1123.5597	1138.2293	1156.7733	1232.6374	1233.0001	1352.093	1417.7295	1446.8608	1518.2485	1592.6369	1599.5301	1645.9216	1675.7261	2989.0376	3129.2894	3541.8905	3638.4954	3697.5833
NC1=NNC2=C1OCO2	Nc1n[nH]c2c1OCO2	
InChI=1S/C4H5N3O2/c5-3-2-4(7-6-3)9-1-8-2/h1H2,(H3,5,6,7)	InChI=1S/C4H5N3O2/c5-3-2-4(7-6-3)9-1-8-2/h1H2,(H3,5,6,7)
