15
gdb 9580	4.29932	1.30005	1.21189	3.1893	67.89	-0.2716	-0.0445	0.2271	1002.2942	0.117304	-362.681524	-362.673395	-362.672451	-362.71412	28.974	
C	-0.110861914	 1.5643275095	 0.0348360453	-0.467484
C	-0.0383854915	 0.0553846315	 0.0586776589	 0.214849
C	 1.2600272652	-0.6620574443	-0.2423652435	-0.318425
C	 0.7390570397	-0.6834487873	 1.1702568965	-0.214067
C	 1.3870580094	 0.0812875043	 2.1969271492	 0.297502
N	 1.9080068374	 0.698634921	 3.0249882772	-0.329652
C	-1.2744202694	-0.6671183213	-0.3635937501	 0.129237
O	-2.2840685586	-0.1253430193	-0.7302701742	-0.248983
H	 0.8121121956	 2.0131136351	 0.4079664812	 0.139331
H	-0.28393628	 1.9128484262	-0.9868531692	 0.140443
H	-0.9418906973	 1.9183708649	 0.6501262137	 0.14837
H	 1.2258424196	-1.5973553715	-0.7908618511	 0.139582
H	 2.1205834399	-0.0384756538	-0.4525089743	 0.154022
H	 0.3085321432	-1.6166953184	 1.5206886084	 0.142582
H	-1.194167649	-1.7795410466	-0.3210180581	 0.072692
88.4333	135.9408	162.5231	202.5545	253.7523	316.322	347.4822	389.7057	492.0717	552.154	624.0373	761.4583	769.7502	852.8172	914.9848	966.9685	992.491	1046.6415	1083.7025	1096.4039	1111.7224	1137.0955	1254.8437	1337.1642	1387.9661	1421.0372	1441.0916	1478.353	1485.292	1497.1653	1829.2506	2356.1453	2850.1033	3055.335	3125.3487	3137.5322	3141.4246	3157.3501	3236.2182
CC1(CC1C#N)C=O	C[C@]1(C[C@H]1C#N)C=O	
InChI=1S/C6H7NO/c1-6(4-8)2-5(6)3-7/h4-5H,2H2,1H3	InChI=1S/C6H7NO/c1-6(4-8)2-5(6)3-7/h4-5H,2H2,1H3/t5-,6-/m0/s1
