23
gdb 80881	2.41009	1.69685	1.41659	0.1211	88.59	-0.2459	0.0926	0.3386	1077.9154	0.207432	-351.123617	-351.115469	-351.114525	-351.155417	34.209	
C	-0.0978520519	 1.5997596122	-0.0172836235	-0.443686
C	-0.0168945531	 0.075449785	 0.0027647753	 0.007586
C	 1.0672794235	-0.591183537	-0.8952837447	-0.051974
C	 2.0786259911	-0.2768643501	 0.2599548928	-0.263436
C	 0.8168494591	-0.5922628298	 1.1495453323	 0.342857
C	 0.7021332553	-0.1601291533	 2.5943089996	-0.508978
C	 0.6886821173	-2.1069167452	 0.8448359544	-0.067005
C	-0.3981934217	-2.6435426497	-0.0563975966	-0.327955
C	 0.8746131883	-2.104279448	-0.6626571962	-0.0344
H	 0.8677965353	 2.0993292346	 0.0927437144	 0.117155
H	-0.5355982297	 1.939389302	-0.9626842774	 0.113792
H	-0.7477738452	 1.9594354862	 0.7882752982	 0.114942
H	-1.0358842129	-0.2974210326	-0.1199950765	 0.055937
H	 1.2353637061	-0.2558588259	-1.9200796974	 0.052526
H	 2.9364620522	-0.9479965994	 0.3639814566	 0.08261
H	 2.4152315013	 0.7604459536	 0.3055660102	 0.088985
H	 0.849649059	 0.9190740789	 2.706108744	 0.112668
H	-0.2838953211	-0.40845449	 3.0038631939	 0.115785
H	 1.4520539171	-0.6629846616	 3.2162948071	 0.112729
H	 1.2228421201	-2.793197697	 1.4942019715	 0.07854
H	-0.4823611874	-3.7265803584	-0.0688437689	 0.104126
H	-1.3544322206	-2.1487319306	-0.1742794253	 0.114575
H	 1.553698798	-2.7876060837	-1.1608357936	 0.082622
187.5052	206.8757	220.5965	234.52	287.8707	338.1207	376.5419	434.1674	527.1367	551.4815	601.6445	647.1801	768.6139	795.3105	803.4013	817.7877	847.0481	887.7218	915.7551	922.7449	986.2303	1009.9015	1015.5724	1030.636	1045.0785	1060.2699	1080.3059	1103.6372	1109.7581	1120.6768	1130.435	1191.0632	1195.4364	1206.2714	1229.6878	1243.165	1263.68	1275.8232	1327.2185	1371.3375	1407.3086	1411.9583	1416.49	1489.4113	1492.1102	1497.5861	1501.7658	1505.3391	1520.7745	3022.351	3032.3501	3055.8369	3071.5052	3083.1974	3087.1533	3094.2731	3097.6155	3110.3	3125.6386	3131.3426	3153.82	3167.5734	3208.1591
CC1C2CC1(C)C1CC21	C[C@H]1[C@H]2C[C@]1(C)[C@H]1C[C@@H]21	
InChI=1S/C9H14/c1-5-7-4-9(5,2)8-3-6(7)8/h5-8H,3-4H2,1-2H3	InChI=1S/C9H14/c1-5-7-4-9(5,2)8-3-6(7)8/h5-8H,3-4H2,1-2H3/t5-,6-,7+,8-,9-/m0/s1
