19
gdb 6847	3.33686	1.8722	1.65234	2.39	71.47	-0.2432	0.0333	0.2765	888.1734	0.166018	-365.092258	-365.084349	-365.083404	-365.123972	30.575	
C	-0.1345209788	 1.5896029509	 0.002908908	-0.412845
C	-0.013980815	 0.0618330997	-0.038282209	 0.364233
C	-1.3876473073	-0.5969321767	 0.0537880125	-0.418651
C	 0.7708909702	-0.4332473726	-1.2618485586	-0.243409
C	 2.2408704209	-0.0121115112	-1.1708255711	-0.168881
N	 2.8267958958	-0.2559430976	 0.1426013764	-0.267599
C	 2.0389586393	-0.4115081301	 1.1196298816	 0.125033
O	 0.6868650717	-0.3589953299	 1.1668554981	-0.261185
H	 0.8473077752	 2.0693756993	-0.0011375243	 0.131057
H	-0.697831802	 1.9505780085	-0.8634759552	 0.116831
H	-0.6592758539	 1.9004840019	 0.9103940584	 0.125405
H	-2.0032459876	-0.3156516789	-0.8060389838	 0.11649
H	-1.290999072	-1.6859235327	 0.07061365	 0.122828
H	-1.9024328534	-0.2829546985	 0.9663052849	 0.124125
H	 0.7092111587	-1.5272179966	-1.292135381	 0.107296
H	 0.305681074	-0.0564553563	-2.1789944346	 0.099677
H	 2.8357287418	-0.5553826504	-1.9134798425	 0.109974
H	 2.3609388527	 1.0517740656	-1.4157220425	 0.110865
H	 2.4285381596	-0.6330976843	 2.1124863827	 0.118755
103.5901	196.9726	225.2845	247.8071	298.4777	334.354	394.2601	424.883	492.1426	514.1879	562.8902	716.5912	790.2303	854.6103	880.1164	926.6999	939.4936	966.4033	993.1655	1006.4976	1038.4596	1063.9589	1149.5841	1185.1596	1209.6675	1251.4132	1273.3651	1286.8765	1366.5143	1376.5782	1398.4056	1411.1428	1418.3443	1469.8521	1480.549	1487.7552	1493.8801	1494.9919	1513.2678	1730.8435	3016.7923	3033.713	3040.0803	3046.1377	3056.5476	3082.3252	3113.3316	3120.044	3120.4404	3125.811	3148.7987
CC1(C)CCN=CO1	CC1(C)CCN=CO1	
InChI=1S/C6H11NO/c1-6(2)3-4-7-5-8-6/h5H,3-4H2,1-2H3	InChI=1S/C6H11NO/c1-6(2)3-4-7-5-8-6/h5H,3-4H2,1-2H3
