17
gdb 23032	3.98503	1.0419	0.83888	0.9948	76.97	-0.2379	-0.0357	0.2022	1339.0388	0.135493	-455.124535	-455.115535	-455.11459	-455.159315	31.595	
C	-0.0361827923	 1.5052557386	 0.0125482363	-0.484453
C	 0.1113825839	 0.0109004173	-0.0013816688	 0.263731
N	 0.2364030434	-0.7268432848	 1.0418961528	-0.163257
O	 0.2182317118	 0.0374132631	 2.202424085	-0.37935
C	 0.1174156015	-0.6956137904	-1.2921999997	 0.396184
N	 0.003512542	-0.1122241237	-2.4215178621	-0.321566
C	 0.0573836265	-1.1651296075	-3.4421138757	-0.188831
C	 0.228154119	-2.4803619123	-2.6389655691	-0.113231
O	 0.2530341676	-2.0455645586	-1.2621686249	-0.249644
H	 0.8261736456	 1.9624937283	 0.5079445563	 0.144204
H	-0.1240062694	 1.8850507957	-1.0036251531	 0.15738
H	-0.9189481777	 1.7893109714	 0.594077191	 0.144203
H	 0.3186335249	-0.630271453	 2.8901851193	 0.313601
H	-0.8601836827	-1.151749529	-4.0403581374	 0.12005
H	 0.8910675829	-0.9776525402	-4.1275582434	 0.120048
H	-0.6032036258	-3.180179438	-2.7617451734	 0.120469
H	 1.1649144487	-3.0040091268	-2.8493516431	 0.120462
58.8292	77.4763	93.8469	153.6542	176.9316	296.5232	321.9494	417.1661	437.9756	464.3089	553.7158	721.1778	735.778	763.1501	828.0399	908.5809	955.0401	982.6262	1014.0868	1020.2084	1056.2219	1062.5904	1118.8425	1142.5032	1214.4413	1245.5074	1298.2992	1355.2293	1385.6256	1397.5819	1427.4752	1483.7363	1487.718	1500.2623	1527.6446	1691.857	1701.1482	3037.985	3049.4148	3055.4174	3064.497	3102.1507	3102.6724	3173.8389	3810.6793
CC(=NO)C1=NCCO1	CC(=NO)C1=NCCO1	
InChI=1S/C5H8N2O2/c1-4(7-8)5-6-2-3-9-5/h8H,2-3H2,1H3	InChI=1S/C5H8N2O2/c1-4(7-8)5-6-2-3-9-5/h8H,2-3H2,1H3
