19
gdb 79848	2.97764	1.70538	1.26926	1.7473	74.64	-0.2333	0.0746	0.3079	1008.9565	0.159959	-422.978424	-422.970806	-422.969862	-423.009906	30.968	
C	 0.0709509619	 1.5509641488	-0.209235689	-0.512711
C	 0.0511373039	 0.045313981	-0.0589436833	 0.313148
C	 0.3323254053	-0.7590089914	-1.3304580123	-0.133959
O	 0.240900437	-2.1082157042	-0.8591345724	-0.280819
C	-0.0562397508	-1.9168208487	 0.5045316284	 0.141637
C	 0.782977781	-0.7455542162	 1.1006891325	-0.163363
C	-0.3894894288	-0.4817173157	 2.0567211459	 0.122139
O	-0.4364908341	 0.7972716717	 2.6457113342	-0.432647
C	-1.0811059772	-0.7592512286	 0.697446052	-0.196868
H	 1.0482193556	 1.8845698098	-0.5783866166	 0.113715
H	-0.6782605155	 1.8704793708	-0.9438904773	 0.110429
H	-0.1301645494	 2.0516889443	 0.7357913441	 0.147861
H	-0.4108660955	-0.5804231147	-2.1189551806	 0.097993
H	 1.332009258	-0.5669978803	-1.7422287473	 0.099185
H	-0.159146098	-2.8698210007	 1.0214735426	 0.085581
H	 1.8494059774	-0.7446182308	 1.3299745202	 0.072924
H	-0.548318876	-1.2585248501	 2.8187631885	 0.064844
H	-1.2789271727	 0.8832191029	 3.1026387579	 0.284468
H	-2.147330922	-0.7767425479	 0.4632584124	 0.066443
195.7855	211.7557	249.2949	279.9526	298.267	333.1544	359.1203	484.5027	496.2301	634.5272	712.6309	725.382	730.2642	795.6113	882.4768	930.9414	936.6372	946.7772	994.3258	1000.1718	1039.4473	1048.9998	1083.6335	1106.2433	1135.631	1139.8286	1167.4817	1185.9908	1203.2058	1222.3799	1235.9493	1250.3358	1289.1983	1321.4398	1332.99	1390.1027	1407.157	1457.6523	1492.3046	1508.0669	1520.2356	2992.1493	3006.9288	3026.7935	3044.4402	3076.6272	3094.6835	3107.9541	3138.9329	3168.785	3820.6373
CC12COC3C1C(O)C23	C[C@@]12CO[C@H]3[C@@H]1[C@@H](O)[C@@H]23	
InChI=1S/C7H10O2/c1-7-2-9-6-3(7)5(8)4(6)7/h3-6,8H,2H2,1H3	InChI=1S/C7H10O2/c1-7-2-9-6-3(7)5(8)4(6)7/h3-6,8H,2H2,1H3/t3-,4+,5+,6-,7+
