18
gdb 128485	3.2688	1.27027	0.93084	3.3332	76.85	-0.2105	0.007	0.2176	1260.6993	0.146985	-435.26663	-435.257085	-435.256141	-435.301421	32.938	
C	-0.0907501069	 1.4247655465	-0.0209134476	-0.239223
O	-0.0065485757	 0.0016573307	-0.0020381229	-0.275526
C	-1.1843896233	-0.6482524567	 0.005297857	 0.335492
C	-1.341333003	-2.0216787608	 0.0274882608	 0.197373
C	-0.3538850319	-3.1353074316	 0.0489414743	-0.512609
N	-2.6965599917	-2.1625660648	 0.0252920951	 0.013894
C	-3.475921504	-3.3808561526	 0.042764431	-0.331605
N	-3.3203578	-0.9733720459	 0.004163244	-0.176431
N	-2.3929459838	-0.0444344383	-0.0084394378	-0.292657
H	 0.9394474598	 1.7838234014	-0.0232478687	 0.125349
H	-0.6152974786	 1.7769565016	-0.9150242659	 0.135808
H	-0.6193778469	 1.8002416601	 0.8612712246	 0.135656
H	-0.4555262764	-3.7640306994	 0.9416279964	 0.134813
H	-0.4452070236	-3.7890937187	-0.8267224279	 0.13491
H	 0.6538933954	-2.7146914293	 0.0487952231	 0.15699
H	-3.2653294859	-3.9648308831	 0.9438183804	 0.143871
H	-4.5259246859	-3.0891611315	 0.034409725	 0.170012
H	-3.2592861877	-3.9942467074	-0.837056361	 0.143882
71.3749	113.6996	122.3174	147.5456	184.4234	191.0378	244.0151	256.7544	354.506	381.0903	545.6801	605.131	672.2879	735.7243	743.7705	785.2641	976.8594	1041.3673	1057.4668	1064.1142	1150.6173	1175.3479	1181.2362	1211.4717	1229.2656	1294.1308	1298.9216	1399.8597	1422.7665	1447.3398	1465.3453	1478.8052	1479.5304	1489.9976	1496.1588	1500.4979	1503.6994	1539.9687	1648.029	3022.7332	3032.9134	3044.0205	3069.8747	3099.6883	3105.7133	3130.2173	3142.5674	3163.7563
COC1=C(C)N(C)N=N1	COc1c(C)n(C)nn1	
InChI=1S/C5H9N3O/c1-4-5(9-3)6-7-8(4)2/h1-3H3	InChI=1S/C5H9N3O/c1-4-5(9-3)6-7-8(4)2/h1-3H3
