20
gdb 119501	4.06395	0.97923	0.90857	1.5205	79.81	-0.2215	0.0658	0.2873	1364.7202	0.170167	-403.041838	-403.033226	-403.032282	-403.075606	32.531	
C	-0.0970441306	 1.3943564238	 0.0975659699	-0.220358
O	-0.1760220193	-0.0105326956	 0.1196867818	-0.23513
C	 0.729612606	-0.5949103203	 1.0375501098	-0.186028
C	 0.6261296423	-2.0802128376	 0.9452266513	 0.348741
C	-0.3700559151	-2.9143047839	 1.7048185916	-0.351389
C	 1.1033350247	-3.1503017404	 1.900525831	-0.066942
N	 1.8657228183	-3.8981146829	 0.8214266092	-0.14413
C	 0.947719238	-4.3174722178	-0.2571509257	-0.250035
C	 1.3267539027	-2.8937738913	-0.1657091608	-0.079496
H	 0.9076817721	 1.7448966611	-0.1887634824	 0.102577
H	-0.8188715615	 1.7514715629	-0.6409246329	 0.127413
H	-0.344343962	 1.8344630476	 1.0772116873	 0.10182
H	 1.7595962386	-0.2674637237	 0.8092702811	 0.088116
H	 0.5066992811	-0.2643203542	 2.0667949477	 0.084457
H	-0.8222718746	-2.3897960828	 2.5418786375	 0.117823
H	-1.0464866887	-3.6140561021	 1.228444552	 0.116765
H	 1.5875460124	-3.0669118461	 2.8655771067	 0.104173
H	 1.4626383605	-4.9082803937	-1.0097205615	 0.123256
H	-0.0536133965	-4.6675920746	-0.0362570515	 0.120792
H	 1.9888910516	-2.4175363185	-0.8825737623	 0.097573
65.5911	96.5859	114.5325	226.0827	275.3718	316.3611	345.5076	408.2219	468.7461	538.1708	681.8817	698.2756	753.4079	808.4891	860.2619	902.6987	939.1038	967.4298	975.8666	1005.0342	1014.8962	1042.9516	1047.9214	1070.173	1102.5762	1113.1451	1137.4527	1148.9933	1179.379	1210.3557	1222.6488	1228.5104	1258.1426	1285.7119	1340.8354	1391.473	1432.9519	1479.4149	1485.1121	1487.608	1501.7303	1519.2996	1524.9343	2940.1718	2966.7626	2970.6042	3008.4342	3113.9062	3123.7444	3135.3677	3154.9802	3187.0158	3204.3384	3215.3426
COCC12CC1N1CC21	COC[C@]12C[C@H]1N1C[C@@H]21	
InChI=1S/C7H11NO/c1-9-4-7-2-5(7)8-3-6(7)8/h5-6H,2-4H2,1H3	InChI=1S/C7H11NO/c1-9-4-7-2-5(7)8-3-6(7)8/h5-6H,2-4H2,1H3/t5-,6+,7-,8?/m1/s1
