19
gdb 96517	2.36398	1.64143	1.06722	4.4877	72.34	-0.2507	0.0044	0.2551	1144.2315	0.159769	-460.196183	-460.18776	-460.186816	-460.229157	31.999	
C	-0.5554929976	 1.1890625361	 0.0965529069	-0.394492
C	 0.3915546562	 0.0019500747	 0.1690979664	-0.020408
O	 1.0715971473	-0.0967208249	-1.0768625034	-0.251741
C	 1.4493471626	-1.4032552642	-1.4640383229	-0.076184
C	 2.5881080212	-1.9782932722	-0.6238442256	-0.214168
C	 2.2598290861	-2.0685750185	 0.8633510554	-0.081083
O	 2.3032583459	-0.806819358	 1.5441510388	-0.227691
C	 1.404945645	 0.1821762745	 1.3191857925	 0.423836
O	 1.4456062799	 1.1660072039	 2.0057785991	-0.314608
H	 0.0070796272	 2.1055664102	-0.0911480121	 0.145008
H	-1.2712914324	 1.0336845965	-0.7142163427	 0.114981
H	-1.0941426511	 1.3090990952	 1.0386702489	 0.130952
H	-0.1859342359	-0.9203654923	 0.3485294267	 0.084182
H	 0.5760473016	-2.0765655162	-1.4167290847	 0.090212
H	 1.7524809219	-1.3267689803	-2.5125161551	 0.116321
H	 2.8185461624	-2.9872597665	-0.9885035421	 0.107367
H	 3.4907004872	-1.369891009	-0.7479235457	 0.127838
H	 1.2878482264	-2.5525117048	 1.0264936126	 0.110619
H	 3.014164666	-2.6655470143	 1.3804368871	 0.129058
82.9885	141.3999	212.5806	261.9786	282.7795	297.2719	357.5266	362.6548	405.6017	518.7414	566.5492	579.5563	697.212	805.5216	830.773	867.0665	912.7585	968.8074	1000.8387	1038.9348	1096.0229	1101.3646	1120.2794	1145.4137	1165.3434	1216.8015	1243.2375	1286.5977	1318.3882	1363.3204	1366.8658	1391.324	1409.4255	1412.0042	1425.3559	1462.376	1479.3961	1486.7185	1495.0067	1508.9407	1839.6497	2958.7718	2963.9562	3024.1864	3034.4771	3060.1427	3082.079	3088.9355	3106.5365	3138.9757	3146.9516
CC1OCCCOC1=O	C[C@H]1OCCCOC1=O	
InChI=1S/C6H10O3/c1-5-6(7)9-4-2-3-8-5/h5H,2-4H2,1H3	InChI=1S/C6H10O3/c1-5-6(7)9-4-2-3-8-5/h5H,2-4H2,1H3/t5-/m1/s1
