21
gdb 112854	2.86013	1.15117	0.92858	1.3706	77.76	-0.252	0.0751	0.3271	1301.6653	0.183397	-424.216272	-424.207338	-424.206394	-424.249846	34.494	
O	-0.0610708594	 1.4314586646	-0.0566894327	-0.424422
C	 0.0280088958	 0.0134622578	 0.0024592992	-0.087291
C	-1.3875317319	-0.5475766479	-0.0005982506	 0.023079
C	-2.1974398028	-0.2055719779	-1.2706885655	-0.276426
C	-3.248944046	-1.3320875806	-1.4089431635	 0.122447
O	-3.6184044882	-1.6122139017	-2.7534299154	-0.43983
C	-2.6057438059	-2.5487014333	-0.7712429579	-0.038501
C	-1.1866213741	-2.8643615947	-1.1690752941	-0.28641
C	-1.4568499646	-2.0707835582	 0.0876273927	-0.060264
H	 0.8311671363	 1.7883831862	-0.0849739609	 0.285986
H	 0.5841107774	-0.3877809947	-0.8600177272	 0.084677
H	 0.5545571977	-0.3135576809	 0.9139616087	 0.081588
H	-1.9039600696	-0.1308158557	 0.8742417784	 0.07938
H	-2.6434238265	 0.7902935911	-1.223859043	 0.102779
H	-1.5534588565	-0.2258311769	-2.1568807042	 0.105948
H	-4.145825968	-1.0735196301	-0.8225329892	 0.061821
H	-4.0558509357	-0.8314388742	-3.1075590082	 0.279223
H	-3.2501227285	-3.3612134569	-0.4559996597	 0.082437
H	-0.8618286157	-3.8907837801	-1.0398211413	 0.108296
H	-0.7611335583	-2.3771119111	-2.03924443	 0.117059
H	-1.2448802453	-2.539536485	 1.0428827145	 0.078423
92.9659	120.9019	151.6357	207.3281	265.3385	279.6413	322.8591	391.4849	425.3546	466.9408	540.3829	590.1173	633.0222	785.2512	827.792	848.7002	895.5376	942.9519	957.6485	986.3813	997.507	1041.5894	1057.0039	1066.641	1086.8532	1091.587	1097.7295	1115.0524	1161.5389	1195.7046	1202.3657	1242.1629	1247.378	1251.0446	1284.0257	1324.3224	1343.8841	1354.5788	1370.3275	1403.4776	1431.5303	1457.205	1485.8272	1508.4398	1521.2444	2960.7258	2961.459	2988.8564	3022.4076	3051.7448	3106.7643	3138.0024	3158.8438	3175.543	3219.1431	3815.3168	3831.6958
OCC1CC(O)C2CC12	OC[C@H]1C[C@@H](O)[C@H]2C[C@@H]12	
InChI=1S/C7H12O2/c8-3-4-1-7(9)6-2-5(4)6/h4-9H,1-3H2	InChI=1S/C7H12O2/c8-3-4-1-7(9)6-2-5(4)6/h4-9H,1-3H2/t4-,5+,6+,7-/m1/s1
