23
gdb 58634	2.56849	1.30293	1.00745	1.7133	84.59	-0.2551	0.0814	0.3365	1292.6848	0.20422	-388.26178	-388.25193	-388.250986	-388.296592	37.52	
C	 0.0729685647	 1.4920133521	 0.2006777092	-0.412317
C	-0.0502318416	-0.0087271911	-0.0894137831	-0.046268
C	-1.5223250238	-0.4521916726	-0.0985632292	-0.387172
C	 0.6638276915	-0.4513810264	-1.3719026274	 0.427174
C	 0.7362292159	 0.4394086799	-2.5399981472	-0.248981
O	 1.8701976519	 0.2742782066	-1.6871965728	-0.282179
C	 0.7485139874	-1.9454912571	-1.5387687731	-0.048246
C	-0.100333788	-2.6832553699	-2.5533471716	-0.260329
C	 1.3889219966	-2.5833463744	-2.7410722622	-0.282797
H	 1.1076978797	 1.8267630458	 0.1043340732	 0.136577
H	-0.5470896228	 2.0871657833	-0.4789808205	 0.109789
H	-0.2702139534	 1.7048153541	 1.2177595979	 0.109003
H	 0.4550347609	-0.5423746491	 0.7293456374	 0.078812
H	-2.0695319054	 0.0342801082	-0.9143752718	 0.111979
H	-1.6238570247	-1.5329252595	-0.2261096842	 0.121575
H	-2.011297618	-0.1751666817	 0.8408387318	 0.112167
H	 0.8391524401	 0.0252941981	-3.5421621952	 0.106472
H	 0.2635240365	 1.4191265584	-2.5068438292	 0.110055
H	 0.9065874712	-2.465706768	-0.5972835088	 0.082747
H	-0.5294480382	-3.6383102793	-2.2703583801	 0.112042
H	-0.7329727602	-2.0860996218	-3.2014145965	 0.113094
H	 1.7736357196	-1.9369080182	-3.521428068	 0.123055
H	 1.99054115	-3.4694422975	-2.5729700183	 0.113749
55.7227	65.0045	186.3064	211.3934	219.4311	255.6117	276.3301	308.2432	334.2225	393.5229	453.3151	516.2913	545.3145	656.7863	782.3467	814.2213	836.5837	861.1646	908.3304	924.7017	937.2598	945.4974	959.9882	972.3558	1059.6511	1075.876	1103.0491	1112.7337	1129.2286	1135.7661	1137.5278	1160.7858	1175.5052	1197.2535	1219.2129	1240.7247	1338.4976	1361.5214	1395.4901	1410.5023	1415.4791	1426.6563	1471.7599	1489.3513	1493.4691	1502.3643	1508.9419	1516.0684	1538.538	2993.2511	3031.9855	3037.849	3087.5048	3094.2029	3099.7024	3118.1365	3130.9504	3133.1819	3133.5953	3142.2417	3166.4647	3210.8445	3226.4377
CC(C)C1(CO1)C1CC1	CC(C)[C@]1(CO1)C1CC1	
InChI=1S/C8H14O/c1-6(2)8(5-9-8)7-3-4-7/h6-7H,3-5H2,1-2H3	InChI=1S/C8H14O/c1-6(2)8(5-9-8)7-3-4-7/h6-7H,3-5H2,1-2H3/t8-/m1/s1
