16
gdb 124279	2.66678	1.57318	0.99672	3.8182	75.25	-0.2025	-0.0336	0.1689	1133.8727	0.125541	-434.112926	-434.104454	-434.10351	-434.146264	31.436	
C	-0.0559237715	 1.4733967306	-0.0109554157	-0.475003
C	 0.0138242899	-0.0391286697	-0.022805325	 0.323661
O	 1.0846342384	-0.6336249577	-0.0185481534	-0.351026
C	-1.2455931536	-0.7846150342	-0.0295211487	 0.199798
N	-2.4457124842	-0.1774462382	 0.0172880833	-0.29295
N	-3.3181304201	-1.1732192597	 0.0372789392	-0.175767
C	-2.7484094692	-2.4170844311	-0.0009846034	-0.118348
C	-1.3815784674	-2.2068554567	-0.047965911	 0.158918
N	-0.350054164	-3.1192263263	-0.1647213079	-0.615166
H	 0.956101218	 1.8787368806	 0.0139016671	 0.131101
H	-0.5850821478	 1.8348212806	-0.8982416484	 0.145766
H	-0.6262490455	 1.8225786287	 0.8549925771	 0.145886
H	-4.3010674695	-0.9596624143	 0.0755230477	 0.279091
H	-3.342328924	-3.3161128075	 0.0030610872	 0.130364
H	-0.494495656	-4.0077221622	 0.2903621768	 0.242808
H	 0.5501026164	-2.6974632529	 0.0287676151	 0.270867
65.4861	108.56	182.1646	196.8449	312.3847	325.6474	371.4147	433.5627	511.2295	527.8201	585.7125	634.7185	647.8335	684.3426	708.8388	734.4158	773.7819	945.4332	953.6145	1045.9866	1076.9751	1093.7276	1135.3554	1233.0619	1315.7382	1358.9809	1384.0255	1394.0623	1458.8923	1468.2697	1479.3992	1524.2147	1602.4266	1646.7321	1742.0832	3049.3622	3113.3421	3156.5133	3270.0772	3533.784	3655.7261	3663.6429
CC(=O)C1=NNC=C1N	CC(=O)c1n[nH]cc1N	
InChI=1S/C5H7N3O/c1-3(9)5-4(6)2-7-8-5/h2H,6H2,1H3,(H,7,8)	InChI=1S/C5H7N3O/c1-3(9)5-4(6)2-7-8-5/h2H,6H2,1H3,(H,7,8)
