21
gdb 82532	2.26704	1.62566	1.33541	1.6493	82.87	-0.2212	0.0814	0.3025	1103.4338	0.180752	-387.038687	-387.029671	-387.028727	-387.071769	35.069	
C	 0.0160458375	 1.5723114097	 0.0177339781	-0.421568
C	 0.0847325151	 0.0628950001	 0.0819668165	-0.082397
C	 1.3498529433	-0.7218949738	-0.1120629125	 0.033142
O	 2.4863349339	-0.0136584233	 0.4053754906	-0.319633
C	 1.9232023698	-0.0903905642	 1.7258429032	 0.428414
C	 2.77670429	-0.4538081628	 2.8949942142	-0.349322
C	 2.1907533986	 0.9478850505	 2.7625960142	-0.336308
C	 0.6554618284	-0.7589029041	 1.2365728752	 0.158375
C	-0.0943702753	-1.8373557854	 1.9619763748	-0.502095
H	 0.9708102025	 2.0174311192	 0.3039437213	 0.139786
H	-0.2140985481	 1.901894527	-1.0012769102	 0.113832
H	-0.7621877578	 1.9664754793	 0.6799837179	 0.111197
H	-0.7734825883	-0.4484082099	-0.3538042866	 0.082083
H	 1.5364632955	-1.4768015907	-0.8678701524	 0.099154
H	 2.369437333	-1.1158061162	 3.652316631	 0.114339
H	 3.8386100945	-0.5717351336	 2.7090477933	 0.125348
H	 2.8737286223	 1.7467553984	 2.4940578492	 0.12439
H	 1.386931706	 1.2424510874	 3.4293005259	 0.115402
H	-0.6893618775	-1.4286271635	 2.7881669873	 0.120627
H	-0.7870961088	-2.351414203	 1.2883568436	 0.121534
H	 0.5867217455	-2.5874641211	 2.3785296152	 0.123702
124.2155	175.9677	178.1693	200.1911	202.7528	225.7649	291.5638	363.5281	399.0192	524.6362	572.5225	593.2164	659.9523	757.9324	759.0602	832.4656	873.0947	893.0638	905.0322	938.8282	977.5191	980.0582	1004.9782	1042.6277	1047.8792	1067.7134	1082.8043	1113.167	1116.1099	1149.752	1174.7599	1187.5171	1263.4278	1265.5802	1332.8556	1388.9933	1411.6336	1415.6472	1447.2426	1466.5305	1487.2196	1493.0303	1499.5452	1503.2425	1507.4621	3021.1184	3035.3132	3079.0407	3090.7961	3100.1334	3113.4167	3128.2529	3130.7152	3135.2344	3172.5051	3210.9857	3225.2429
CC1C2OC3(CC3)C12C	C[C@H]1[C@H]2OC3(CC3)[C@@]12C	
InChI=1S/C8H12O/c1-5-6-7(5,2)8(9-6)3-4-8/h5-6H,3-4H2,1-2H3	InChI=1S/C8H12O/c1-5-6-7(5,2)8(9-6)3-4-8/h5-6H,3-4H2,1-2H3/t5-,6+,7-/m0/s1
