16
gdb 52040	2.64396	0.8019	0.64294	1.1822	68.46	-0.2563	-0.0664	0.1899	1632.6167	0.119679	-475.023821	-475.013932	-475.012988	-475.060709	32.632	
O	-0.5267401201	 0.1970343935	 0.4236763323	-0.228822
C	-0.1756397574	 1.1339355672	-0.24196186	 0.14823
C	 1.1253766542	 1.8938986997	-0.0271969294	-0.229308
N	 1.6137704648	 2.4453393306	-1.2795969426	-0.325874
C	 2.6526491303	 3.4360791976	-1.1800286147	-0.142775
C	 3.6677267371	 3.2905877357	-2.3161211586	 0.151175
O	 3.6604030341	 2.3620901509	-3.0796499671	-0.23849
C	 2.1080788717	 4.8722722437	-1.2155591286	 0.140371
O	 2.7869693564	 5.840400914	-1.0032548938	-0.235245
H	-0.793240674	 1.5381412896	-1.0750403534	 0.090521
H	 0.8810249451	 2.7239875778	 0.6526127523	 0.136977
H	 1.8328804736	 1.2417716421	 0.5091802182	 0.122654
H	 1.9163930185	 1.7206697468	-1.9243402086	 0.247272
H	 3.2661448994	 3.3701087319	-0.2615977651	 0.126621
H	 4.4095175825	 4.1097932729	-2.3691338455	 0.128904
H	 1.0313223435	 4.9248406659	-1.4850233353	 0.107789
46.281	59.1455	86.9715	99.4203	138.9081	157.5885	237.2121	316.7311	342.3572	421.0121	513.9865	567.6759	705.9983	731.9557	803.2627	843.2589	884.9322	1027.4057	1041.8257	1081.45	1093.8116	1149.5362	1194.0991	1209.6931	1263.5063	1297.805	1345.5017	1376.0859	1397.5766	1406.7781	1474.2998	1502.5347	1807.3023	1842.11	1844.3802	2890.6802	2911.5984	2934.9114	2966.6083	2981.4243	3026.2941	3509.0731
O=CCNC(C=O)C=O	O=CCNC(C=O)C=O	
InChI=1S/C5H7NO3/c7-2-1-6-5(3-8)4-9/h2-6H,1H2	InChI=1S/C5H7NO3/c7-2-1-6-5(3-8)4-9/h2-6H,1H2
