21
gdb 112538	2.90281	1.09759	0.99695	3.4026	79.16	-0.2419	-0.0272	0.2147	1312.086	0.18052	-424.241754	-424.231764	-424.230819	-424.276599	36.872	
C	-0.8114305361	 1.4778028772	 0.4892044112	-0.443846
C	-0.1157882731	 0.1631377142	 0.1450881074	 0.208089
C	-1.0000976968	-1.0488511808	 0.4726290741	-0.436396
C	 0.5671556222	 0.0515836771	-1.2685204105	-0.314477
C	 1.9073230266	-0.408829777	-0.6121249422	-0.119934
C	 3.2251623523	 0.3050489379	-0.9217045406	-0.078095
O	 4.2213981758	-0.0562603257	 0.0115602234	-0.422416
C	 1.2993617828	 0.0003121131	 0.7304342711	 0.378117
O	 1.7991370659	 0.2779396586	 1.7903416037	-0.336454
H	-0.1817397411	 2.3399402086	 0.2484153117	 0.118323
H	-1.7495449313	 1.5765068424	-0.0678643573	 0.118557
H	-1.04348671	 1.5222921443	 1.5578448764	 0.133598
H	-1.9234543198	-1.0095144105	-0.1154092226	 0.123032
H	-0.4973491711	-1.9944054268	 0.2452029362	 0.120396
H	-1.2698842817	-1.0567939725	 1.5332248537	 0.132366
H	 0.1066730823	-0.6537137298	-1.9621661574	 0.10753
H	 0.6599575174	 1.024329318	-1.7593456795	 0.109373
H	 2.0592593307	-1.4919209378	-0.67055615	 0.110739
H	 3.5967564369	 0.0246390789	-1.9131648666	 0.110677
H	 3.0535932794	 1.3948964856	-0.9341844892	 0.083879
H	 3.8588902586	 0.129895595	 0.888345247	 0.29694
54.2217	123.284	163.5669	177.6198	187.3806	233.0107	268.3071	276.7155	329.7383	352.1071	415.07	518.6188	533.3081	615.557	719.0606	725.8168	795.4266	891.7677	932.1546	946.1431	964.5141	985.3126	1008.2596	1031.2774	1078.3343	1098.1476	1138.6614	1172.1582	1195.2825	1219.9334	1245.1342	1255.912	1295.491	1319.2408	1382.7933	1397.0878	1417.8257	1448.0429	1480.6016	1482.4559	1487.9792	1501.2611	1505.2547	1513.5017	1850.5742	2958.7484	3029.0904	3032.2754	3056.0919	3065.0588	3068.9656	3098.6262	3100.9241	3106.5772	3110.1563	3125.255	3753.4466
CC1(C)CC(CO)C1=O	CC1(C)C[C@@H](CO)C1=O	
InChI=1S/C7H12O2/c1-7(2)3-5(4-8)6(7)9/h5,8H,3-4H2,1-2H3	InChI=1S/C7H12O2/c1-7(2)3-5(4-8)6(7)9/h5,8H,3-4H2,1-2H3/t5-/m0/s1
