15
gdb 45020	2.55185	1.79788	1.15561	2.2482	68.33	-0.2659	-0.0078	0.2581	1010.6782	0.115074	-453.987491	-453.980393	-453.979449	-454.0193	27.432	
N	-0.0995468972	 1.2622034365	 0.3107408834	-0.525387
C	-0.0242044296	 0.0228479859	 0.034635331	 0.396007
N	 1.160851355	-0.7008448418	-0.1388400423	-0.43367
C	 1.3409030367	-1.9449470264	-0.7343653342	 0.46904
O	 2.4312139849	-2.3980967415	-0.9509918827	-0.368287
O	 0.2236046558	-2.6270871155	-1.0671343616	-0.238674
C	-1.0626791394	-2.1742935386	-0.7058021089	 0.111233
C	-1.4266901447	-2.038734992	 0.7343409056	-0.328077
C	-1.2445496348	-0.794967242	-0.1369106539	-0.104249
H	 0.8227191806	 1.6972264096	 0.3735981925	 0.211658
H	 2.036860256	-0.2227744037	 0.0180148712	 0.265372
H	-1.7848892383	-2.5604956575	-1.413758917	 0.131127
H	-2.4357049632	-2.2903513204	 1.0383004685	 0.138971
H	-0.6575032548	-2.2480717682	 1.469355105	 0.144863
H	-2.123328977	-0.2226510043	-0.4025917265	 0.130074
102.4363	126.6364	224.4276	372.2001	394.0218	503.4249	518.6323	534.8555	620.3955	669.2786	736.4222	755.3464	784.6268	824.7024	862.3341	871.8565	942.8001	1009.049	1031.9345	1054.0975	1070.332	1125.3086	1142.9943	1177.354	1238.2559	1257.9429	1352.842	1408.5638	1421.2765	1435.2828	1480.2173	1740.6037	1858.5267	3145.3317	3196.8964	3209.3202	3239.0741	3457.1515	3614.7368
N=C1NC(=O)OC2CC12	[NH][C]1NC(=O)O[C@H]2C[C@@H]12	
InChI=1S/C5H6N2O2/c6-4-2-1-3(2)9-5(8)7-4/h2-3H,1H2,(H2,6,7,8)	InChI=1S/C5H6N2O2/c6-4-2-1-3(2)9-5(8)7-4/h2-3H,1H2,(H2,6,7,8)/t2-,3+/m1/s1
