17
gdb 103914	3.48955	0.85774	0.76975	2.9982	66.65	-0.2589	-0.0008	0.2581	1455.1209	0.13266	-496.088653	-496.078933	-496.077989	-496.124157	34.232	
O	-0.0773874782	 1.302969361	-0.481942518	-0.434556
C	 0.0148868493	 0.0302548717	 0.1574971954	-0.147813
C	-1.3810571369	-0.5416903343	 0.1234921203	 0.401729
O	-2.3283250257	 0.2888265473	 0.7228187521	-0.479406
C	-1.81617451	-1.3962921475	-1.0561684758	-0.375564
C	-1.6143456671	-1.9970867484	 0.3187822466	 0.041951
O	-0.4765935856	-2.7992939941	 0.5746243204	-0.195548
C	-0.5499153259	-4.0878783692	 0.1708972297	 0.17747
O	 0.3421127978	-4.861780406	 0.3410192419	-0.271093
H	 0.6924082548	 1.8233037211	-0.2361457701	 0.296886
H	 0.7244996763	-0.63224381	-0.352290668	 0.109031
H	 0.332617611	 0.1374455673	 1.2039372869	 0.109152
H	-2.1676556358	 1.1662129694	 0.3503439536	 0.292828
H	-2.8370721697	-1.2930239556	-1.4045624154	 0.129742
H	-1.0759267405	-1.6213277444	-1.8162269706	 0.13027
H	-2.4916319333	-2.2729998242	 0.8966859395	 0.127813
H	-1.5113601605	-4.3280092938	-0.3200142184	 0.087108
42.6406	99.4434	113.0302	130.7784	211.4111	245.549	279.2977	307.3735	359.9881	406.6152	449.75	469.7201	624.978	642.7944	733.0979	886.3785	921.1486	927.4903	1018.869	1023.3253	1048.3108	1050.8095	1060.6578	1087.5861	1147.2639	1170.9066	1219.3331	1236.1327	1282.4822	1299.141	1366.5699	1418.5203	1426.2262	1455.1167	1507.5847	1512.0271	1870.3891	2970.107	3007.3267	3057.5054	3140.0082	3155.6654	3237.65	3767.111	3843.0555
OCC1(O)CC1OC=O	OC[C@@]1(O)C[C@H]1OC=O	
InChI=1S/C5H8O4/c6-2-5(8)1-4(5)9-3-7/h3-4,6,8H,1-2H2	InChI=1S/C5H8O4/c6-2-5(8)1-4(5)9-3-7/h3-4,6,8H,1-2H2/t4-,5+/m1/s1
