17
gdb 36567	2.64926	0.86555	0.68246	0.3147	86.49	-0.2593	0.0254	0.2847	1599.0412	0.131412	-347.447781	-347.43762	-347.436676	-347.483313	36.913	
C	 0.0021089596	-1.2436750436	-0.0658857909	-0.427438
C	-0.0194421509	-0.0431582651	-0.0127941215	 0.284073
C	-0.0119778629	 1.4124679023	 0.0501460931	-0.366962
C	 1.4144756335	 1.9913079168	 0.0137239903	-0.178549
C	 1.4263115815	 3.545982693	 0.0524129929	-0.351751
C	 0.8081426359	 4.0669280479	 1.2772405833	 0.348365
C	 0.2890996362	 4.4723829351	 2.2817596572	-0.46653
C	 2.791046245	 4.0553656174	-0.1135215327	 0.309556
C	 3.9170019516	 4.4443035225	-0.2643842269	-0.422206
H	 0.008034	-2.3043473013	-0.1114553637	 0.194919
H	-0.594050529	 1.818070332	-0.7885940534	 0.128987
H	-0.5166558002	 1.7482250269	 0.9636950444	 0.148857
H	 1.9935043197	 1.6103467851	 0.8590251425	 0.132483
H	 1.9226649697	 1.6715264351	-0.9000406108	 0.125578
H	 0.8284946812	 3.9001853206	-0.8012576781	 0.137234
H	-0.1619969882	 4.8434496068	 3.1688385829	 0.203823
H	 4.9096751573	 4.7992318484	-0.3925549986	 0.199563
60.237	93.434	101.0702	129.0094	191.4767	208.1556	308.1866	341.7689	348.483	446.0992	492.3945	563.2663	590.0205	617.3419	634.7984	638.7387	640.3199	649.8753	652.188	764.8975	850.7109	953.1482	1002.6227	1035.8742	1052.4708	1080.5909	1179.2537	1260.5437	1299.9594	1321.5407	1336.1125	1378.6176	1474.171	1492.0386	2238.4327	2240.5886	2245.4697	2990.4757	3017.2627	3060.4426	3068.3436	3118.3974	3502.7164	3504.8036	3507.0541
C#CCCC(C#C)C#C	C#CCCC(C#C)C#C	
InChI=1S/C9H8/c1-4-7-8-9(5-2)6-3/h1-3,9H,7-8H2	InChI=1S/C9H8/c1-4-7-8-9(5-2)6-3/h1-3,9H,7-8H2
