20
gdb 94212	3.09896	1.04799	0.96311	4.8457	78.98	-0.2702	0.0328	0.3029	1292.4173	0.169657	-403.158075	-403.148423	-403.147478	-403.192537	35.809	
C	-0.0186122932	 1.5908682701	 0.1335024476	-0.443818
C	-0.0176299418	 0.0640619215	 0.0363927935	 0.296169
C	-1.4396163018	-0.4798773085	-0.202127343	-0.412383
C	-2.0202156206	-0.0344224677	-1.4681231493	 0.270016
N	-2.4586438958	 0.322372048	-2.4763814369	-0.317719
C	 1.1069315789	-0.4762471344	-0.9024131955	-0.257181
C	 2.0131454252	-0.6808177592	 0.3430999184	-0.276787
C	 0.7355966854	-0.6125363201	 1.2197750239	 0.104377
O	 0.7369789607	 0.1347708276	 2.4110830648	-0.429985
H	 0.990850775	 1.9801157997	 0.2862297391	 0.122934
H	-0.4175142501	 2.0290828134	-0.7866820145	 0.135623
H	-0.6292441541	 1.9290491668	 0.9755679109	 0.129056
H	-1.4287461366	-1.5760118419	-0.2011138188	 0.14132
H	-2.100980283	-0.1665129431	 0.615033296	 0.154589
H	 0.8328944762	-1.4224019812	-1.3772980187	 0.105062
H	 1.4630377667	 0.2080578362	-1.6745242943	 0.115348
H	 2.6132148518	-1.592037455	 0.3935188455	 0.098342
H	 2.6582841266	 0.181237034	 0.5296406982	 0.115033
H	 0.3370534408	-1.6248438848	 1.3910840288	 0.06221
H	 1.2478042597	-0.3426024316	 3.0723936942	 0.287793
60.4574	119.0748	133.1369	219.5283	226.652	249.7497	260.8824	339.4145	355.0023	396.694	422.2945	480.2281	561.2759	642.2533	735.1022	800.5951	878.9013	904.6692	928.7773	938.4324	962.1184	967.7415	992.2466	1105.3695	1115.9888	1153.4972	1171.0012	1195.8091	1210.8611	1245.9593	1249.747	1281.6815	1310.9068	1333.5954	1336.8094	1410.5513	1430.1598	1460.5454	1478.7921	1495.1296	1496.0304	1500.7636	2358.0047	2971.7553	3033.4993	3044.081	3062.9724	3067.9824	3073.4007	3113.4132	3115.1189	3122.5161	3129.1451	3820.6023
CC1(CC#N)CCC1O	C[C@@]1(CC#N)CC[C@H]1O	
InChI=1S/C7H11NO/c1-7(4-5-8)3-2-6(7)9/h6,9H,2-4H2,1H3	InChI=1S/C7H11NO/c1-7(4-5-8)3-2-6(7)9/h6,9H,2-4H2,1H3/t6-,7+/m1/s1
