22
gdb 91355	2.21503	1.51968	1.41099	2.1926	82.59	-0.2064	0.0723	0.2787	1119.3085	0.192544	-404.309042	-404.299622	-404.298677	-404.342584	35.928	
C	 0.3137666653	 1.5225168361	-0.1326839837	-0.409302
C	 0.0316320255	 0.0527501553	 0.0721213857	 0.140906
O	 0.7663908254	-0.8078243446	-0.8488075077	-0.324529
C	 1.2213830728	-1.6599623429	 0.2141504841	 0.066715
C	 2.6202896194	-1.3088877077	 0.7494880935	-0.197858
N	 2.024995523	-0.234677474	 1.5711167191	-0.092673
C	 2.508968759	-0.0443248572	 2.9174442804	-0.331127
C	 0.638727356	-0.7048841978	 1.2891728451	 0.263076
C	-0.2555551522	-1.0817441398	 2.4460937405	-0.510445
H	 1.3637224563	 1.7349828565	 0.0787553944	 0.132344
H	 0.0873740428	 1.8075964639	-1.1648788576	 0.122244
H	-0.314056118	 2.1283754003	 0.5306933653	 0.106759
H	-1.0455793328	-0.1543492563	-0.022620773	 0.06194
H	 0.9557035717	-2.7094481861	 0.0672691924	 0.076357
H	 3.0446522473	-2.1300386766	 1.3514982618	 0.082573
H	 3.3610866872	-0.9772666385	 0.0139699308	 0.106285
H	 3.5381815665	 0.3299322723	 2.8788976798	 0.123393
H	 1.9070051985	 0.7090133011	 3.4352201046	 0.120637
H	 2.5145327554	-0.9632168283	 3.5340030474	 0.088532
H	-0.5180084589	-0.2025772083	 3.0463193441	 0.12559
H	-1.1877748896	-1.5198964289	 2.0767581912	 0.124682
H	 0.2190259993	-1.8099740886	 3.1109043619	 0.123901
103.9078	148.168	189.7134	209.6579	222.3528	229.5544	266.9508	326.5872	343.2623	402.7064	425.997	530.7003	638.6783	654.3423	739.6808	840.1497	858.8662	878.5049	889.9917	968.148	1007.569	1015.1001	1062.429	1096.6769	1127.8764	1139.9247	1153.2926	1168.5834	1177.1352	1186.736	1213.5126	1263.9552	1267.4447	1315.5505	1331.0556	1356.5161	1382.3899	1403.1216	1411.3402	1453.2285	1479.3394	1479.9523	1488.5592	1492.8803	1496.9295	1501.4526	1513.2586	2922.9739	2961.4131	2979.4931	3030.1432	3036.3393	3052.2385	3062.9728	3079.7791	3092.6164	3098.5385	3101.741	3108.9473	3136.2158
CC1OC2CN(C)C12C	C[C@H]1O[C@H]2CN(C)[C@@]12C	
InChI=1S/C7H13NO/c1-5-7(2)6(9-5)4-8(7)3/h5-6H,4H2,1-3H3	InChI=1S/C7H13NO/c1-5-7(2)6(9-5)4-8(7)3/h5-6H,4H2,1-3H3/t5-,6+,7+/m1/s1
