17
gdb 77433	2.42939	1.54698	1.20309	1.7807	70.82	-0.2395	-0.0134	0.226	1067.5396	0.13289	-458.948837	-458.939486	-458.938541	-458.982816	34.148	
C	 0.1365592992	 1.5588932339	 0.1133197417	-0.491214
C	 0.0243104237	 0.0701611129	 0.0103983609	 0.200699
C	 0.5768238055	-0.7960843087	-1.1291566046	-0.417069
C	 1.186024734	-1.7291439314	-0.0506607587	 0.336855
O	 2.13334913	-2.4730862889	-0.0562229354	-0.341029
C	 0.4766037409	-1.0692620754	 1.0632725035	 0.213725
O	 0.8441994041	-1.0475454841	 2.3832456647	-0.464455
C	-0.9755435566	-0.7478916802	 0.7651037364	 0.035998
O	-1.6306418832	-0.1177524528	 1.8212007357	-0.439145
H	 1.1705120653	 1.8952441328	-0.0176879514	 0.122084
H	-0.4704347723	 2.0440636875	-0.6606765879	 0.132687
H	-0.2273705575	 1.9005385035	 1.0846321165	 0.142414
H	-0.1623224043	-1.2410858019	-1.8034191042	 0.119277
H	 1.364561333	-0.3175823287	-1.7172498126	 0.133065
H	 1.806049398	-1.0971911708	 2.4350710501	 0.310983
H	-1.6079956977	-1.4670093265	 0.2397802916	 0.098787
H	-1.1896206018	-0.3745154812	 2.6408977438	 0.306339
68.9441	138.3772	158.3399	170.6659	235.7807	254.8945	287.0693	326.1797	337.2829	453.0613	500.6666	542.692	602.9508	645.5645	683.8951	705.5192	809.2852	902.0757	970.3099	1001.6425	1047.1199	1066.8883	1105.0476	1116.89	1167.0674	1203.6832	1236.1862	1301.1447	1344.4168	1371.1609	1389.7266	1414.8226	1432.6264	1472.3183	1484.3712	1494.4345	1844.8019	3028.4425	3046.7676	3069.7358	3084.364	3109.0411	3130.4837	3776.4701	3798.9742
CC12CC(=O)C1(O)C2O	C[C@@]12CC(=O)[C@]1(O)[C@H]2O	
InChI=1S/C6H8O3/c1-5-2-3(7)6(5,9)4(5)8/h4,8-9H,2H2,1H3	InChI=1S/C6H8O3/c1-5-2-3(7)6(5,9)4(5)8/h4,8-9H,2H2,1H3/t4-,5-,6-/m0/s1
