13
gdb 20331	5.72733	1.29969	1.25123	5.7189	63.67	-0.2529	0.0038	0.2568	955.7094	0.096243	-357.611583	-357.604529	-357.603585	-357.644633	24.877	
C	-0.0361326107	-1.2337575645	-0.0051131934	-0.431221
C	-0.0187302075	-0.033607471	 0.0017928403	 0.319215
C	 0.0003511408	 1.4267778462	 0.010243853	-0.340706
N	 1.3459657998	 1.9913861534	 0.0002342447	 0.004897
C	 2.1466539154	 2.2792534871	 1.070927683	 0.026422
N	 3.3069535301	 2.7328831407	 0.676612656	-0.219608
N	 3.2921060476	 2.7436767773	-0.7064371039	-0.219629
C	 2.1235354084	 2.2960594625	-1.082775804	 0.026396
H	-0.0479074465	-2.2962149641	-0.0112947527	 0.216916
H	-0.5373059289	 1.8182037308	-0.8597651384	 0.163146
H	-0.5200910008	 1.8078324982	 0.8952057168	 0.163155
H	 1.8302982153	 2.1428301764	 2.0937231447	 0.145518
H	 1.7852470769	 2.1755852769	-2.100544436	 0.1455
16.292	92.4685	248.1652	311.2305	317.466	464.8241	640.4039	643.829	683.7054	694.9145	753.852	816.7239	846.691	953.3574	955.9989	966.035	1019.2723	1083.8369	1202.9605	1205.5812	1238.3117	1373.9913	1385.5242	1398.3416	1467.7228	1502.7011	1549.7552	2248.2832	3049.0794	3085.0399	3261.3533	3265.5841	3502.4945
C#CCN1C=NN=C1	C#CCn1cnnc1	
InChI=1S/C5H5N3/c1-2-3-8-4-6-7-5-8/h1,4-5H,3H2	InChI=1S/C5H5N3/c1-2-3-8-4-6-7-5-8/h1,4-5H,3H2
