18
gdb 80266	2.75828	1.52281	1.35963	4.0818	80.45	-0.2359	-0.0358	0.2001	1031.4035	0.1492	-401.952569	-401.944695	-401.94375	-401.985058	30.445	
C	-0.65158901	 1.2938282276	-0.0488865602	-0.415294
C	-0.1189070543	-0.1185133357	-0.0104022909	-0.051552
C	 1.2976556632	-0.4648058232	-0.3574827596	 0.093006
O	 2.2295782311	 0.5301137499	-0.6947643988	-0.237752
C	 2.7307946635	 1.4030356974	 0.2252983715	 0.375671
N	 3.5207117479	 2.2913227091	-0.2310723285	-0.501613
C	 2.3386861017	 1.2290750729	 1.6312606064	-0.165407
C	 1.4809421176	 0.2851260078	 2.0348417305	-0.070085
C	 0.8506912814	-0.6331633565	 1.0746809236	-0.158783
H	-0.9009541564	 1.574982571	-1.0771212132	 0.131893
H	-1.5602336982	 1.3807759383	 0.5554858276	 0.11972
H	 0.0690871302	 2.0225238085	 0.3256938702	 0.137921
H	-0.8386436934	-0.8728834883	-0.3185493837	 0.09782
H	 1.4882236374	-1.3460367718	-0.9600651235	 0.112632
H	 3.8446497576	 2.8849322421	 0.5305689109	 0.218769
H	 2.8087608002	 1.9050248607	 2.3371859536	 0.103584
H	 1.2463606972	 0.1704205418	 3.0894529902	 0.108958
H	 0.6669639233	-1.6397095715	 1.4367236239	 0.100512
77.1394	149.2126	165.729	220.6845	318.5444	417.2575	474.9254	497.7638	549.9916	613.0421	696.0507	742.9645	762.7182	788.7065	819.7254	860.6784	881.5575	925.7329	966.5048	991.4157	1001.7024	1073.6932	1082.5591	1102.0715	1122.1302	1142.5501	1189.3993	1201.0996	1266.6169	1332.1589	1366.5067	1405.4933	1424.4116	1427.2571	1447.4664	1493.7498	1502.7821	1666.4621	1715.4077	3043.4612	3101.349	3130.0597	3144.0461	3152.1897	3165.3778	3171.6148	3194.4851	3504.7278
CC1C2OC(=N)C=CC12	C[C@H]1[C@H]2OC(=C[CH][C@@H]12)[NH]	
InChI=1S/C7H9NO/c1-4-5-2-3-6(8)9-7(4)5/h2-5,7-8H,1H3	InChI=1S/C7H9NO/c1-4-5-2-3-6(8)9-7(4)5/h2-5,7-8H,1H3/t4-,5+,7-/m1/s1
