16
gdb 65828	2.612	1.31668	1.23667	4.7203	68.97	-0.2844	-0.0074	0.277	1087.639	0.123969	-437.951306	-437.943039	-437.942095	-437.984298	30.603	
C	-0.0516700919	 1.5345235758	 0.0338996698	-0.430076
C	 0.0592943651	 0.0138833443	-0.0304857103	 0.207252
C	 0.8346775178	-0.527103968	-1.2611681621	-0.262829
C	 1.4869509858	-1.793374004	-0.7075280698	-0.365483
C	 1.6383859849	-1.4949962459	 0.7787099677	 0.431465
O	 2.3288460891	-2.0281293336	 1.5903275617	-0.313228
O	 0.817090309	-0.441541481	 1.1074745115	-0.238252
C	-1.2857478292	-0.6017352568	 0.0358660597	 0.275753
N	-2.3365685175	-1.0809616259	 0.0603250213	-0.325374
H	 0.9518619321	 1.9667752615	 0.0322794905	 0.139624
H	-0.6057990734	 1.9086798097	-0.8311650906	 0.143759
H	-0.5700412202	 1.8442453202	 0.9435393243	 0.156961
H	 0.1796381966	-0.6936158716	-2.116804651	 0.140238
H	 1.5912359101	 0.2109171889	-1.5426811077	 0.127454
H	 0.8378932741	-2.669818586	-0.8123967666	 0.162215
H	 2.4547795176	-2.0409772376	-1.1436910085	 0.15052
85.1283	124.7563	197.2198	206.3773	242.7468	304.8254	404.0842	487.8068	490.7404	532.5356	587.3206	627.9264	677.3995	742.277	807.1976	889.2386	919.9039	961.43	1012.7571	1029.7764	1113.3741	1118.7973	1135.2631	1212.6499	1241.3788	1266.5321	1311.6254	1337.8289	1412.8193	1465.3232	1480.0748	1490.1538	1496.8715	1903.3477	2357.8498	3054.3119	3063.1723	3070.3824	3132.6586	3135.3125	3140.955	3143.9958
CC1(CCC(=O)O1)C#N	C[C@]1(CCC(=O)O1)C#N	
InChI=1S/C6H7NO2/c1-6(4-7)3-2-5(8)9-6/h2-3H2,1H3	InChI=1S/C6H7NO2/c1-6(4-7)3-2-5(8)9-6/h2-3H2,1H3/t6-/m0/s1
