23
gdb 76754	2.11194	1.66348	1.27325	1.4426	84.45	-0.2472	0.0585	0.3057	1143.5097	0.205154	-388.271188	-388.261682	-388.260738	-388.304954	37.023	
C	 0.6221320484	 1.6916593507	 0.0404941135	-0.416146
C	 0.0659863439	 0.2721483366	 0.0251060147	-0.028094
C	 0.7328145298	-0.7447022732	-0.9687991558	 0.063547
O	 1.6602876228	-0.2921182483	-1.925569593	-0.426432
C	 1.2012010034	-1.627825091	 0.2206670573	 0.3567
C	 1.01070832	-3.1245926621	 0.1046590325	-0.504998
C	 2.5189368398	-1.1450843698	 0.9049704632	-0.294861
C	 1.693755026	-0.4076651241	 1.9982792886	-0.219014
C	 0.3953816777	-0.6929766501	 1.2107132513	-0.085792
H	 1.7073302447	 1.7236537264	 0.1876595559	 0.103177
H	 0.4082334268	 2.1941711286	-0.9079707514	 0.125092
H	 0.1713853237	 2.2821941017	 0.8450810262	 0.117021
H	-1.0136469632	 0.3304975343	-0.144416359	 0.071555
H	-0.0285599045	-1.2738945736	-1.5509992345	 0.081509
H	 2.3638225179	 0.181191401	-1.4703772274	 0.280207
H	 1.6953672712	-3.5460416835	-0.6418951079	 0.122214
H	 1.2056511367	-3.6324815581	 1.0563141471	 0.110114
H	-0.0109127281	-3.3745509371	-0.2038340617	 0.111801
H	 3.1508482114	-1.9572455819	 1.2731784309	 0.103172
H	 3.1566320286	-0.501991028	 0.2882256317	 0.076545
H	 1.7141531967	-0.9397304617	 2.9531373792	 0.0997
H	 1.9432094537	 0.6384507674	 2.1943467618	 0.095944
H	-0.4676384572	-1.0448414841	 1.7787771768	 0.057039
60.3736	195.3929	203.4118	216.2285	230.1981	249.7807	261.7896	283.3757	318.9392	444.1236	486.1789	538.4315	623.7274	651.9264	720.6873	783.4444	811.0775	859.1029	866.7738	944.4769	948.0622	972.67	974.7478	1021.4957	1050.551	1102.6352	1121.0804	1134.7101	1155.5564	1168.301	1185.8953	1218.7166	1234.1996	1251.9162	1260.8664	1278.2239	1300.3077	1317.8894	1340.5938	1361.7103	1407.6125	1408.8987	1439.6336	1478.249	1488.8959	1491.0807	1493.7716	1500.7737	1508.5068	3014.5432	3029.9874	3035.0828	3039.6065	3055.3973	3056.9362	3079.1029	3083.5887	3085.5508	3087.499	3091.876	3103.1516	3106.8197	3816.0416
CC1C(O)C2(C)CCC12	C[C@H]1[C@@H](O)[C@@]2(C)CC[C@@H]12	
InChI=1S/C8H14O/c1-5-6-3-4-8(6,2)7(5)9/h5-7,9H,3-4H2,1-2H3	InChI=1S/C8H14O/c1-5-6-3-4-8(6,2)7(5)9/h5-7,9H,3-4H2,1-2H3/t5-,6+,7-,8+/m1/s1
