18
gdb 127157	4.32325	0.89937	0.88667	3.9347	74.21	-0.2325	-0.0417	0.1909	1374.521	0.147208	-435.210845	-435.20214	-435.201196	-435.245065	31.297	
C	 0.4989829701	 0.3320162842	-0.4664414751	-0.324218
N	 0.0454370563	-0.2525678875	 0.7899825453	-0.06415
C	 0.1349236244	 0.7040329348	 1.8837224161	-0.315129
C	-1.292705069	-0.8234414668	 0.6802159267	-0.263023
C	-1.2884676327	-2.0676021959	-0.154990331	 0.331003
N	-2.1674247776	-2.3055381144	-1.0914373682	-0.150446
O	-1.8553803053	-3.5368193788	-1.5984206678	-0.14972
N	-0.7609957846	-4.0683673074	-0.9743506593	-0.061347
C	-0.4016403715	-3.1825250303	-0.0895389238	-0.094411
H	 1.536950585	 0.6612098162	-0.3625213196	 0.123746
H	 0.4571509627	-0.4118391982	-1.2664919184	 0.132312
H	-0.1089890155	 1.2018663314	-0.7781327803	 0.100521
H	-0.5148092017	 1.5885712325	 1.7447898407	 0.099037
H	-0.1437655701	 0.2219162852	 2.825889406	 0.120422
H	 1.1663360571	 1.0573002223	 1.974746754	 0.124215
H	-1.6281089053	-1.086693392	 1.6906777153	 0.124644
H	-2.0389227073	-0.1204157845	 0.2689065904	 0.112221
H	 0.4519508248	-3.3369287309	 0.5507665289	 0.154324
52.1153	82.7415	118.6018	247.2814	252.31	301.7755	338.4572	357.7883	376.264	473.894	650.3931	684.36	763.9688	857.7328	888.1689	904.8319	932.5604	989.4096	1025.072	1051.4149	1068.1536	1070.6436	1124.0659	1175.3526	1194.4416	1205.8277	1297.7109	1305.2399	1389.6632	1426.8368	1446.6319	1468.6478	1475.6817	1482.8789	1487.2089	1499.9115	1502.8857	1513.973	1615.7978	2932.454	2939.3424	2952.5892	3047.9271	3064.0544	3073.1587	3108.7373	3117.8665	3279.988
CN(C)CC1=NON=C1	CN(C)Cc1nonc1	
InChI=1S/C5H9N3O/c1-8(2)4-5-3-6-9-7-5/h3H,4H2,1-2H3	InChI=1S/C5H9N3O/c1-8(2)4-5-3-6-9-7-5/h3H,4H2,1-2H3
