17
gdb 41835	2.4603	2.25896	1.96657	2.0842	70.37	-0.2327	0.0045	0.2372	820.1495	0.139887	-421.817752	-421.811717	-421.810773	-421.847721	25.97	
C	 0.020483461	 1.5212903899	 0.1277054867	-0.087008
O	 1.3305630971	 2.0754871298	-0.0192746139	-0.252822
C	 2.0952469716	 1.4116126994	-0.996906044	 0.118469
O	 2.4298515872	 0.1036366543	-0.5354760894	-0.244999
C	 1.291260256	-0.6745532525	-0.3488132529	 0.106025
C	 0.0029417554	 0.0056058685	-0.0172298839	-0.132026
C	 0.2089598807	-0.5981464049	-1.4245860541	-0.147218
C	 0.516647294	 0.3298419321	-2.5270795486	-0.051279
C	 1.4082245267	 1.3089984307	-2.3394783891	-0.113289
H	-0.3086701992	 1.8074879441	 1.1302545761	 0.115104
H	-0.6618455156	 1.9838881291	-0.6000286269	 0.101483
H	 3.0414700763	 1.951553296	-1.0535058892	 0.097976
H	 1.5454213217	-1.6315381069	 0.0907209984	 0.109192
H	-0.6920255659	-0.521947663	 0.6274549637	 0.095694
H	-0.3502481616	-1.4969328191	-1.6563937132	 0.088509
H	 0.023196504	 0.1876340588	-3.4835895845	 0.09846
H	 1.6743375507	 2.0169278938	-3.1153046149	 0.097729
236.422	308.4307	363.9558	468.9261	483.9589	546.5802	582.9509	673.9506	707.1773	759.0338	782.2909	800.1028	833.8486	895.7792	922.6335	945.4243	956.6374	981.2114	1002.5618	1014.568	1037.3996	1083.9298	1103.4193	1124.2117	1163.9921	1182.8086	1214.0502	1278.9039	1328.3864	1345.8961	1364.234	1374.1193	1404.2415	1417.6323	1438.8557	1500.2991	1682.9983	2997.0134	3084.7931	3110.8022	3160.1897	3166.7542	3179.1161	3188.9306	3203.7352
C1OC2OC3C1C3C=C2	C1O[C@H]2O[C@H]3[C@@H]1[C@H]3C=C2	
InChI=1S/C7H8O2/c1-2-6-8-3-5-4(1)7(5)9-6/h1-2,4-7H,3H2	InChI=1S/C7H8O2/c1-2-6-8-3-5-4(1)7(5)9-6/h1-2,4-7H,3H2/t4-,5+,6+,7-/m1/s1
