13
gdb 130420	5.20504	0.92741	0.83774	5.7528	66.83	-0.274	-0.0718	0.2022	1307.3279	0.090469	-448.922028	-448.914046	-448.913102	-448.955938	27.498	
N	 0.4320277685	 1.3361464883	-0.2596974984	-0.506466
C	 0.018875189	-0.0501956083	-0.025088452	-0.283093
C	 0.7312707327	-0.5814132736	 1.1777132403	 0.444948
N	 0.3215176511	-0.5971123978	 2.4108480364	-0.335839
C	 1.4015145764	-1.1505514843	 3.0569643394	 0.256863
N	 2.4139901937	-1.464309814	 2.2813000128	-0.145373
O	 1.9677109076	-1.0848531643	 1.0282633208	-0.168036
C	 1.4405547531	-1.3808855674	 4.4645457466	 0.274993
N	 1.4596987793	-1.5617287101	 5.6053347167	-0.310108
H	 0.0872712906	 1.6446081509	-1.1626305279	 0.244907
H	 0.0147524258	 1.9429590513	 0.4394665399	 0.246901
H	-1.0568345714	-0.2002739611	 0.1438843964	 0.133216
H	 0.3141395738	-0.6504452296	-0.8906062709	 0.147088
29.9672	112.8062	154.7229	201.1231	235.8284	340.1587	394.324	510.1245	557.6383	574.599	701.2773	747.349	792.5391	857.2603	958.8438	975.9718	1021.2417	1049.2605	1078.0552	1168.7452	1285.1021	1332.2189	1365.3606	1426.6688	1491.0302	1508.0199	1609.0615	1663.3262	2376.1177	3007.3991	3094.9819	3503.3219	3586.6691
NCC1=NC(=NO1)C#N	NCc1nc(no1)C#N	
InChI=1S/C4H4N4O/c5-1-3-7-4(2-6)9-8-3/h2,6H2	InChI=1S/C4H4N4O/c5-1-3-7-4(2-6)9-8-3/h2,6H2
