21
gdb 119895	4.05606	0.80308	0.71849	0.9263	81.8	-0.2363	0.0228	0.2591	1601.9684	0.182983	-424.226952	-424.217603	-424.216658	-424.261913	34.272	
O	-0.1220467623	 1.4860042942	-0.1327314996	-0.418411
C	 0.0276067915	 0.0785507576	-0.0294908114	-0.062977
C	-1.3761039469	-0.5285575047	 0.0577470211	-0.280836
C	-1.3697714491	-2.0355087848	 0.0971156424	 0.270176
C	-1.5049289684	-2.7409995627	 1.2212731544	-0.159088
C	-1.5249265828	-4.2466578635	 1.2331902345	-0.250398
C	-1.7670538883	-4.7751334575	-0.1817149366	-0.078581
O	-0.9221936791	-4.1251374516	-1.1161778495	-0.244376
C	-1.2075599635	-2.7465677862	-1.2290113189	-0.154743
H	 0.7543722408	 1.8795930322	-0.1722930231	 0.286271
H	 0.5657185002	-0.3282418364	-0.9002744326	 0.087336
H	 0.600021628	-0.2027368238	 0.8679072495	 0.091792
H	-1.8660268391	-0.1268423234	 0.950374225	 0.111163
H	-1.9485504902	-0.1694983804	-0.8078057542	 0.108201
H	-1.6147101581	-2.2248253271	 2.1729784924	 0.079281
H	-0.5765169985	-4.6392048209	 1.6257406011	 0.113238
H	-2.310900447	-4.6152313837	 1.9049319559	 0.101378
H	-1.5437765369	-5.8429580872	-0.2578150479	 0.104683
H	-2.8246369579	-4.6277067545	-0.4579256782	 0.087801
H	-2.1203091734	-2.587209133	-1.8352897886	 0.094796
H	-0.3775590989	-2.3142567227	-1.8003412557	 0.113295
56.9421	78.9319	93.4384	189.9055	255.8548	264.0891	318.6431	329.9021	344.905	466.2032	526.9569	537.742	680.4787	791.5983	823.216	867.5293	899.8702	931.8991	966.2215	1006.9595	1033.7181	1042.0056	1075.1462	1080.3578	1100.9653	1143.001	1176.9575	1217.1829	1229.3552	1241.3551	1262.0114	1304.3371	1314.7437	1334.927	1352.7127	1364.8188	1399.818	1421.4248	1453.7977	1471.5522	1484.1852	1488.7372	1500.8892	1525.4933	1740.132	2919.131	2966.528	2969.3032	2998.5086	3010.1117	3025.9729	3045.3886	3050.8995	3082.7608	3087.1128	3143.1038	3830.6502
OCCC1=CCCOC1	OCCC1=CCCOC1	
InChI=1S/C7H12O2/c8-4-3-7-2-1-5-9-6-7/h2,8H,1,3-6H2	InChI=1S/C7H12O2/c8-4-3-7-2-1-5-9-6-7/h2,8H,1,3-6H2
