17
gdb 34315	3.35546	1.45092	1.29874	3.5173	71.7	-0.2416	0.0204	0.262	997.5478	0.139336	-418.014032	-418.006958	-418.006014	-418.045403	28.143	
N	 0.0576074464	-1.0981383114	 0.0596276643	-0.336039
C	 0.0276840341	 0.056104851	 0.0212186335	 0.20747
C	-0.0339811346	 1.5105814165	 0.0119122768	 0.147242
C	-0.8526094617	 2.1260278973	 1.1778092565	-0.101795
O	-1.0828660504	 3.4692247748	 0.7301508753	-0.276045
C	-0.4862740361	 3.5759666059	-0.5724408388	 0.074194
C	 1.0386987553	 3.5685644648	-0.3980105465	-0.173908
N	 1.3028885977	 2.1382406582	-0.0607226141	-0.332512
C	-0.7393852159	 2.1921327373	-1.1845177927	-0.245031
H	-1.807110013	 1.6119246695	 1.3483275269	 0.118176
H	-0.2788294099	 2.1252182274	 2.1120576546	 0.109286
H	-0.9070367033	 4.4446567762	-1.0770127615	 0.092468
H	 1.5683582801	 3.8530874512	-1.3153069962	 0.111131
H	 1.3336744655	 4.2532934907	 0.4025096593	 0.11528
H	 1.7947370431	 2.0408342919	 0.8203644221	 0.230598
H	-0.2215250752	 2.0075099622	-2.125831718	 0.132483
H	-1.797593072	 1.9417570665	-1.2622373415	 0.127003
150.0513	157.6175	209.3647	362.8904	419.5944	462.6742	508.6232	547.0312	556.0834	584.8918	775.6531	791.2425	831.9963	864.348	921.0861	925.1817	958.498	971.0147	1004.3761	1030.4709	1069.0592	1094.5627	1138.8672	1169.1741	1183.2926	1214.9961	1231.1364	1266.8376	1286.1393	1318.1607	1352.7606	1379.5271	1419.0047	1483.3591	1511.9396	1524.2103	2365.0084	3015.7883	3026.4071	3061.2562	3083.3501	3096.1545	3135.7733	3161.8882	3540.0503
N#CC12COC(CN1)C2	N#C[C@@]12CO[C@@H](CN1)C2	
InChI=1S/C6H8N2O/c7-3-6-1-5(2-8-6)9-4-6/h5,8H,1-2,4H2	InChI=1S/C6H8N2O/c7-3-6-1-5(2-8-6)9-4-6/h5,8H,1-2,4H2/t5-,6+/m1/s1
