21
gdb 108486	2.13683	1.60022	1.21917	2.6752	78.03	-0.2422	0.0587	0.3009	1127.8759	0.182514	-424.193294	-424.184274	-424.183329	-424.226991	34.663	
O	-0.1721557922	 1.4636052744	-0.1461365231	-0.432291
C	 0.0237378737	 0.053029351	-0.0209413076	-0.216603
C	-1.3520235116	-0.5513393874	 0.0516918564	 0.368491
C	-2.1351085706	-0.3923274351	 1.3893695045	-0.282848
C	-2.2420575188	-1.9415423921	 1.5170583437	-0.216926
C	-1.6999103258	-2.0893887425	 0.0780065289	-0.099814
C	-2.7710857853	-1.8317145495	-1.0271527478	-0.26146
C	-2.2349669842	-0.3926018738	-1.2110710664	 0.106126
O	-3.2167549703	 0.6148893541	-1.2291243229	-0.433745
H	 0.6878118586	 1.8874539341	-0.2225906421	 0.289914
H	 0.5684916984	-0.3451356494	-0.892779233	 0.082958
H	 0.6134788372	-0.1868964745	 0.8782626302	 0.08455
H	-1.5738701989	 0.1033847393	 2.1845443628	 0.098238
H	-3.0868921168	 0.127409894	 1.2620638567	 0.113993
H	-1.5518149802	-2.3424347062	 2.2650592764	 0.094589
H	-3.2345580502	-2.3616921226	 1.7058964692	 0.094807
H	-0.9698899573	-2.8735013377	-0.129621381	 0.058128
H	-2.7163871475	-2.4686552079	-1.9120804948	 0.098863
H	-3.7960460786	-1.8510628091	-0.6463557437	 0.108352
H	-1.5892448744	-0.327326109	-2.1011140695	 0.056749
H	-2.7495851852	 1.4551684402	-1.151473297	 0.287928
83.2498	91.7427	143.3043	230.1861	258.7266	315.494	326.648	377.6139	413.5169	426.4799	529.284	592.8823	682.3492	748.9467	778.8531	849.3851	894.9557	929.777	949.392	967.7309	981.8454	1011.4851	1033.2456	1047.3199	1072.2233	1133.244	1148.2968	1178.0014	1182.7891	1217.3689	1230.0797	1248.085	1252.3655	1260.2141	1277.4458	1285.1489	1300.7838	1305.6619	1373.1349	1420.6638	1452.2259	1477.7992	1479.0072	1497.1974	1518.3781	2958.4026	2967.8419	2991.4042	3045.6633	3062.3364	3068.7666	3086.4565	3094.4274	3118.635	3124.0378	3795.3872	3826.3249
OCC12CCC1CC2O	OC[C@]12CC[C@H]1C[C@H]2O	
InChI=1S/C7H12O2/c8-4-7-2-1-5(7)3-6(7)9/h5-6,8-9H,1-4H2	InChI=1S/C7H12O2/c8-4-7-2-1-5(7)3-6(7)9/h5-6,8-9H,1-4H2/t5-,6+,7+/m0/s1
