23
gdb 91333	2.66823	1.42368	1.12769	1.3472	84.65	-0.2493	0.0783	0.3276	1188.9392	0.207571	-388.300691	-388.292214	-388.29127	-388.333026	34.963	
C	 0.1326329579	 1.5880418915	 0.0154628814	-0.410484
C	 0.0361730697	 0.0608433845	 0.0032418398	 0.050556
C	 0.6313591076	-0.5583812316	-1.2866024871	-0.208785
C	 1.0350258331	-2.0262142029	-1.069728326	-0.023539
C	 0.1315587532	-2.7115454099	 0.0007990658	-0.268934
C	 1.0544076452	-2.0433161785	 1.0472801225	 0.426645
O	 1.2103517964	-2.7659090624	 2.2449671918	-0.488555
C	 2.1813222377	-2.0932561353	-0.0232715466	-0.272245
C	 0.6457350594	-0.5784930016	 1.2780047502	-0.280874
H	 1.1793677499	 1.9142847508	 0.0089099939	 0.111585
H	-0.3566161848	 2.0234943473	-0.8625916202	 0.110934
H	-0.3430082655	 2.0108067809	 0.9071817149	 0.110116
H	-1.0292843081	-0.1977400414	 0.0105481933	 0.080866
H	-0.1035475888	-0.4709640544	-2.0957759462	 0.091096
H	 1.5150632093	 0.0082569722	-1.6101076254	 0.090727
H	 1.1863292211	-2.5522544776	-2.0141092078	 0.062929
H	-0.9392716023	-2.4934626122	 0.0231278038	 0.089856
H	 0.2818282671	-3.7937789224	 0.0109878839	 0.103019
H	 1.7458415829	-2.2384733328	 2.8479381103	 0.27141
H	 2.6738322444	-3.0690135281	-0.0151135545	 0.096601
H	 2.931665477	-1.2953521628	-0.0281846836	 0.077602
H	 1.5294432903	-0.0118932186	 1.6073231393	 0.082491
H	-0.0840290429	-0.5353466349	 2.0952174265	 0.096984
117.5887	223.375	239.8322	260.5794	281.9775	350.8346	398.6482	413.8041	427.6157	446.1059	448.5807	551.5468	656.1547	788.8896	841.8998	864.18	869.4049	879.3106	914.2318	946.2987	963.233	982.1189	1001.1018	1015.3478	1049.863	1069.3037	1094.1994	1128.1785	1156.3987	1182.2268	1195.2803	1217.2403	1233.5455	1246.3286	1261.8727	1298.5815	1317.5399	1338.486	1347.5268	1365.7302	1384.523	1399.1415	1412.9724	1478.6181	1490.6594	1493.006	1498.1573	1500.6924	1516.8944	2995.0072	3012.0743	3017.9143	3023.9501	3039.5075	3052.5467	3057.7863	3061.331	3086.1146	3091.1923	3094.462	3106.418	3116.83	3798.1832
CC1CC2CC(O)(C2)C1	C[C@H]1C[C@@H]2C[C@@](O)(C2)C1	
InChI=1S/C8H14O/c1-6-2-7-4-8(9,3-6)5-7/h6-7,9H,2-5H2,1H3	InChI=1S/C8H14O/c1-6-2-7-4-8(9,3-6)5-7/h6-7,9H,2-5H2,1H3/t6-,7-,8-/m0/s1
