19
gdb 30654	3.94683	0.92745	0.92224	1.4966	78.38	-0.2223	0.013	0.2353	1377.079	0.158999	-423.057427	-423.048366	-423.047422	-423.091863	33.354	
C	 0.0629322639	 1.5243559535	-0.2001713876	-0.385716
C	 0.019103411	 0.0018285534	-0.0598312559	-0.184138
C	-1.4149358131	-0.5408640181	 0.0828639206	 0.001319
O	-2.2375019148	-0.1380367768	-1.0144027827	-0.430445
C	-1.444523103	-2.024047097	 0.2669947914	 0.386098
C	-1.8546625462	-2.8531435712	 1.2630149757	-0.291052
C	-1.6201457777	-4.1924843456	 0.8053322734	-0.168621
C	-1.0905873309	-4.0763029081	-0.4380947122	-0.021788
O	-0.971004238	-2.7643743173	-0.7825156265	-0.198431
H	 1.0883298874	 1.8769222627	-0.3457605177	 0.109122
H	-0.5400869894	 1.8487555737	-1.0517373409	 0.130661
H	-0.3351612983	 2.0148429292	 0.6953731657	 0.112278
H	 0.4837408376	-0.4756659328	-0.9320627572	 0.100548
H	 0.5993592234	-0.3214598822	 0.8130231081	 0.100245
H	-1.8804429209	-0.0922872684	 0.9678727754	 0.097311
H	-1.9605144074	-0.6556040042	-1.779010619	 0.285631
H	-2.2770797549	-2.5496154517	 2.2081786699	 0.110786
H	-1.8248068143	-5.1109556071	 1.3325735219	 0.113269
H	-0.7605054843	-4.7860665918	-1.1784329825	 0.132924
51.1774	94.872	113.7398	188.8647	230.2501	283.3424	310.302	357.5228	409.9655	512.5063	613.5484	711.7841	744.6356	747.1805	793.096	811.9557	852.0619	889.7936	902.9356	950.0192	980.1052	1032.4402	1057.4881	1097.251	1102.4549	1118.928	1184.6795	1223.0295	1239.3142	1259.7571	1301.3502	1331.0718	1376.4926	1405.1328	1414.341	1420.365	1482.1623	1496.112	1509.2819	1540.887	1639.4625	3024.8153	3036.9598	3049.7265	3067.7282	3101.7968	3126.4292	3251.5108	3262.6979	3286.5573	3802.8053
CCC(O)C1=CC=CO1	CC[C@@H](O)c1ccco1	
InChI=1S/C7H10O2/c1-2-6(8)7-4-3-5-9-7/h3-6,8H,2H2,1H3	InChI=1S/C7H10O2/c1-2-6(8)7-4-3-5-9-7/h3-6,8H,2H2,1H3/t6-/m1/s1
