22
gdb 117955	2.9104	0.73542	0.67151	2.4394	80.51	-0.2417	0.0352	0.2769	1774.206	0.192177	-441.51732	-441.505775	-441.504831	-441.555745	39.64	
C	 0.5519788569	 1.4226741491	 0.0656444266	-0.333573
N	 0.5499051421	-0.0242766929	-0.0274964099	-0.31882
C	 0.0795648714	-0.6907770306	-1.1214379804	 0.424335
O	-0.3831786787	-0.1231116905	-2.0972386179	-0.39249
C	 0.1873659047	-2.2177640357	-1.0577136392	-0.108079
C	-1.1967427173	-2.8264948137	-1.3322604748	-0.389594
C	 1.2594073995	-2.6611602189	-2.0764959285	-0.188564
C	 1.5685545983	-4.1598909238	-2.0708628247	-0.072684
O	 2.6746264723	-4.4815258403	-2.9008174489	-0.417742
H	 1.5696383535	 1.8162514849	 0.1676608467	 0.125107
H	 0.1125665246	 1.8045110161	-0.856558814	 0.172318
H	-0.0442484973	 1.7688448611	 0.9172771378	 0.12451
H	 0.9172101852	-0.559726475	 0.7408269028	 0.244666
H	 0.5180822645	-2.5199030474	-0.0542028153	 0.061358
H	-1.1684321497	-3.9187371073	-1.3083949489	 0.114449
H	-1.9235953968	-2.4954581543	-0.5837318218	 0.116047
H	-1.5554346839	-2.5008584247	-2.3120410326	 0.142555
H	 0.9321649892	-2.3493268974	-3.076623424	 0.111589
H	 2.1976147897	-2.1306252381	-1.8736662613	 0.104958
H	 1.8558388979	-4.4813565631	-1.0627056484	 0.105813
H	 0.6809704754	-4.7442927276	-2.3551429069	 0.092099
H	 2.4426787286	-4.2395634402	-3.8032271563	 0.281743
23.9537	71.7638	86.779	100.5593	107.2867	173.6004	214.4591	252.3306	268.5011	302.744	314.9718	345.6396	386.0573	480.3607	530.06	692.527	771.6693	784.0856	861.8853	903.2419	963.3039	1019.2589	1055.7361	1066.5956	1076.4296	1114.3025	1140.5445	1154.6602	1171.3745	1203.5977	1229.6389	1296.1888	1308.9809	1348.0249	1379.1464	1400.7444	1404.9654	1422.0097	1438.0199	1485.9532	1491.4912	1495.4043	1501.0481	1505.861	1515.5603	1557.1561	1772.039	2992.9506	3004.1975	3025.6231	3027.0253	3044.902	3051.5866	3076.7975	3078.5674	3110.6852	3131.0154	3154.2203	3653.2739	3814.4345
CNC(=O)C(C)CCO	CNC(=O)[C@@H](C)CCO	
InChI=1S/C6H13NO2/c1-5(3-4-8)6(9)7-2/h5,8H,3-4H2,1-2H3,(H,7,9)	InChI=1S/C6H13NO2/c1-5(3-4-8)6(9)7-2/h5,8H,3-4H2,1-2H3,(H,7,9)/t5-/m0/s1
