20
gdb 77861	2.07057	1.51807	1.47919	1.473	84.82	-0.2257	0.03	0.2557	1083.9052	0.169484	-365.930922	-365.921746	-365.920802	-365.964155	35.284	
C	-0.3679712237	 1.5590538335	 0.3060445225	-0.422818
C	-0.0450435857	 0.0782000917	 0.1386074506	-0.026911
C	 0.5419477892	-0.4430838404	-1.1743552686	-0.055737
C	 1.9368829097	-0.0207080974	-1.4571540283	-0.186286
C	 2.5397558406	 1.2613607978	-1.2076953456	 0.330821
C	 3.1112406148	 2.3182527344	-1.1304809087	-0.437153
N	 1.7113358779	-1.1309659554	-0.4899125622	-0.174953
C	 1.187052872	-0.5982746135	 0.8315541633	 0.055249
C	 2.1426037164	 0.154951008	 1.7401050757	-0.415142
H	 0.4869411771	 2.1986786643	 0.0828959119	 0.137994
H	-1.1868154486	 1.84794124	-0.3622664873	 0.115336
H	-0.6923979743	 1.7666358267	 1.3316179708	 0.112618
H	-0.941939763	-0.5013607061	 0.3778261346	 0.083309
H	-0.0337293309	-0.9456244188	-1.9473159377	 0.09564
H	 2.3236252433	-0.459285077	-2.3765894539	 0.123006
H	 3.6024885688	 3.2548258025	-1.032457959	 0.198937
H	 0.8464859614	-1.4909265781	 1.3646034564	 0.089122
H	 2.4750420446	 1.1038385241	 1.3208957083	 0.138651
H	 1.6568040473	 0.3537340706	 2.7018628402	 0.11248
H	 3.0274664129	-0.460610117	 1.9342284669	 0.125838
123.3938	148.6025	192.256	194.7713	208.6511	212.4071	281.5703	364.7261	415.0405	503.7742	556.1338	604.7384	623.2033	655.446	720.0917	734.6795	753.4299	779.2576	869.6233	926.2764	945.0644	1024.4351	1040.9325	1053.2763	1077.7714	1100.4837	1106.8534	1179.6021	1194.1994	1246.0337	1263.9603	1300.5095	1354.6053	1376.1673	1384.8708	1407.8187	1415.646	1418.6839	1485.1137	1497.51	1498.2763	1509.6693	2222.5747	3034.5123	3038.4447	3044.1111	3062.6738	3091.5069	3097.5906	3111.1646	3141.5768	3143.3872	3158.1962	3499.7601
CC1C2C(C#C)N2C1C	C[C@H]1[C@H]2[C@@H](C#C)N2[C@H]1C	
InChI=1S/C8H11N/c1-4-7-8-5(2)6(3)9(7)8/h1,5-8H,2-3H3	InChI=1S/C8H11N/c1-4-7-8-5(2)6(3)9(7)8/h1,5-8H,2-3H3/t5-,6+,7-,8+,9?/m1/s1
