16
gdb 31672	4.43377	0.92841	0.81114	4.5668	75.01	-0.2534	-0.0515	0.2019	1397.9783	0.123999	-437.937081	-437.928661	-437.927717	-437.971166	29.694	
C	-0.2639905792	 1.512361865	-0.0698896661	-0.383283
C	 0.1039211928	 0.0211966706	 0.0191519862	-0.29105
C	 0.8722215826	-0.4626255298	-1.160397628	 0.39166
N	 2.0825783537	-0.9055184295	-1.2208595686	-0.325508
C	 2.289325265	-1.2052533493	-2.5671239588	 0.136144
C	 3.531968458	-1.7443080129	-3.1262204613	 0.076443
O	 4.5307129456	-1.9967875394	-2.4977378557	-0.257284
C	 1.1508242689	-0.9117349013	-3.2553820658	-0.078043
O	 0.2349300378	-0.4370811655	-2.3800237535	-0.172345
H	 0.6343953738	 2.1336810608	-0.1250651801	 0.135525
H	-0.8736899401	 1.7140312176	-0.9547925798	 0.133725
H	-0.8340902684	 1.8136497228	 0.8129222825	 0.125998
H	 0.7213756421	-0.1749877403	 0.8984813709	 0.146019
H	-0.8094853718	-0.5776378046	 0.1179545066	 0.129063
H	 3.4797992362	-1.9098876453	-4.2265211029	 0.068357
H	 0.8527645128	-0.9788373889	-4.2885261757	 0.16458
41.6058	124.1427	144.7765	160.4364	224.2198	271.353	364.1898	423.0545	494.1294	640.3666	661.6007	747.3489	784.7814	802.2769	807.2354	927.6793	971.3405	1006.6102	1028.543	1079.202	1103.0128	1149.6254	1206.3007	1272.8666	1316.5733	1348.7618	1359.4306	1410.7121	1431.7538	1473.0738	1498.6604	1506.5967	1590.2636	1639.5615	1810.361	2868.8757	3042.0129	3047.9966	3109.2402	3123.0622	3130.8296	3284.8978
CCC1=NC(C=O)=CO1	CCc1nc(C=O)co1	
InChI=1S/C6H7NO2/c1-2-6-7-5(3-8)4-9-6/h3-4H,2H2,1H3	InChI=1S/C6H7NO2/c1-2-6-7-5(3-8)4-9-6/h3-4H,2H2,1H3
