16
gdb 26999	3.223	1.27137	0.95366	1.1932	77.05	-0.1894	0.0245	0.2139	1188.83	0.124035	-400.736279	-400.727751	-400.726807	-400.769731	32.102	
N	-0.1245476964	 1.3146558314	-0.5073711284	-0.616425
C	-0.0279178244	-0.0447159136	-0.1860412322	 0.144208
C	-1.0379029394	-0.9534890018	-0.0317082129	 0.307077
C	-2.5284480704	-0.8955082852	-0.166741314	-0.472568
C	-2.980503549	-0.021180728	-1.2487821778	 0.301122
C	-3.351413831	 0.7111683691	-2.127408746	-0.45154
O	-0.5207334393	-2.1600318387	 0.3783314835	-0.18794
C	 0.8199716711	-2.0072548986	 0.4726752596	-0.017858
C	 1.1856195097	-0.7427281727	 0.1432731909	-0.232492
H	 0.6687337713	 1.6418049367	-1.0435240311	 0.240699
H	-0.9825370975	 1.5351058571	-0.9993388824	 0.249382
H	-2.8924506752	-1.9143547427	-0.3486120445	 0.154352
H	-3.0053389154	-0.5713737916	 0.7713480211	 0.146152
H	-3.6954588561	 1.3382823495	-2.9124029356	 0.201298
H	 1.3731469365	-2.8794042222	 0.7802202696	 0.130923
H	 2.1867529455	-0.3395947288	 0.1344866501	 0.103608
45.5585	120.0066	212.3257	257.5634	275.9518	316.887	332.1244	416.2606	453.8942	604.4092	618.214	642.6338	655.3967	690.2785	738.0202	746.7579	786.4194	810.0055	904.7868	933.332	960.5155	1053.9845	1081.6876	1137.9406	1203.7812	1251.829	1262.4012	1320.9915	1342.3581	1462.5908	1474.8841	1545.6209	1654.4422	1690.6961	2235.2831	2981.8492	3048.1056	3248.2418	3281.3079	3503.7752	3524.6213	3617.4834
NC1=C(CC#C)OC=C1	Nc1c(CC#C)occ1	
InChI=1S/C7H7NO/c1-2-3-7-6(8)4-5-9-7/h1,4-5H,3,8H2	InChI=1S/C7H7NO/c1-2-3-7-6(8)4-5-9-7/h1,4-5H,3,8H2
