15
gdb 42782	2.56	1.97931	1.61132	2.2714	65.	-0.2556	-0.0269	0.2287	868.7819	0.112766	-457.67423	-457.667564	-457.66662	-457.705172	26.432	
O	-0.0118127965	 0.0011109663	-0.1175841943	-0.317558
C	-0.0415274593	 1.180573348	 0.0326544966	 0.431697
C	-1.0432571688	 2.3362049774	 0.0395921111	-0.057253
C	-0.7813079238	 2.8679327286	 1.4991354047	-0.32251
C	 0.7549105793	 3.0293102078	 1.3331117882	 0.129786
O	 1.8995623383	 2.2396811014	 1.824580109	-0.305057
C	 2.4068498412	 2.1586122072	 0.4450059239	-0.205629
C	 0.9498927267	 2.3555998267	 0.0172336655	 0.270804
O	-0.0422532139	 2.9927201584	-0.865556964	-0.376787
H	-2.0468775132	 2.3165023871	-0.3767304823	 0.118059
H	-1.2666794355	 3.8204960367	 1.7160191146	 0.126007
H	-1.1052942075	 2.1258818202	 2.2340090547	 0.143766
H	 1.0428705567	 4.0862756076	 1.3328692849	 0.096205
H	 3.0900672873	 2.9848739153	 0.2211968056	 0.125867
H	 2.8600490489	 1.1886976114	 0.2297008618	 0.142602
147.6	185.2452	269.841	363.4868	412.1727	477.9867	551.141	631.6838	677.0693	705.0159	785.716	809.4256	839.3337	866.079	902.7595	904.1523	995.6203	1001.6703	1038.4278	1074.4966	1111.6438	1129.756	1165.8692	1195.5013	1220.9349	1240.0855	1283.1365	1311.5787	1314.1125	1390.0991	1472.867	1499.4972	1928.8265	3040.6735	3047.1737	3075.701	3125.1216	3133.572	3173.3292
O=C1C2CC3OCC13O2	O=C1[C@H]2C[C@H]3OC[C@@]13O2	
InChI=1S/C6H6O3/c7-5-3-1-4-6(5,9-3)2-8-4/h3-4H,1-2H2	InChI=1S/C6H6O3/c7-5-3-1-4-6(5,9-3)2-8-4/h3-4H,1-2H2/t3-,4-,6+/m1/s1
