23
gdb 114389	3.78303	0.90811	0.87907	1.2335	86.28	-0.2399	0.0768	0.3167	1470.6515	0.204331	-388.265177	-388.255446	-388.254502	-388.299171	37.761	
C	-0.0053941533	 1.5240328226	-0.1053487621	-0.385161
C	-0.029827799	 0.0049517311	 0.0862070848	-0.19148
C	-1.4398858811	-0.581711975	 0.0658781813	 0.019503
C	-2.110502955	-0.6182636031	-1.3532418373	-0.267272
C	-2.1419970489	-2.1484139611	-1.2914112179	-0.12206
C	-1.4830538844	-2.1160673515	 0.1027760631	-0.097861
C	-2.8678542235	-2.6634696586	-0.0712107759	 0.400511
C	-4.1291604434	-2.0646861094	 0.5089297677	-0.462636
O	-2.8337779274	-4.0714796266	 0.0284728878	-0.475137
H	 1.0186544907	 1.9097881354	-0.0952965114	 0.11191
H	-0.4592795633	 1.8143108735	-1.0591968381	 0.117144
H	-0.5604756683	 2.0314421856	 0.6916236759	 0.113646
H	 0.5729146397	-0.4802634259	-0.6933956122	 0.095231
H	 0.4464892189	-0.2520430062	 1.0417288545	 0.094026
H	-2.0388154648	-0.0901956063	 0.8431801817	 0.061951
H	-3.0722521043	-0.1083861815	-1.4732023496	 0.090471
H	-1.4299230549	-0.2467660326	-2.124339128	 0.101926
H	-1.9379546866	-2.8219798429	-2.116116683	 0.078487
H	-0.7032379838	-2.7564332374	 0.4995779323	 0.086971
H	-4.1374593987	-0.9737301861	 0.4618639716	 0.122767
H	-5.0094954876	-2.4231794813	-0.0396394633	 0.103462
H	-4.2407760052	-2.3656157808	 1.5554958212	 0.125181
H	-3.5195098857	-4.4208011918	-0.551628333	 0.278419
96.771	127.0295	163.6329	212.6729	238.8599	266.3097	274.6847	310.7922	317.2763	413.1594	449.3977	470.3178	500.7143	667.6582	728.4915	794.0464	834.3992	849.2046	875.8419	935.9771	943.981	964.6131	983.6623	1009.4422	1022.1933	1034.2313	1077.2265	1095.3893	1103.9285	1129.5339	1162.4941	1201.8555	1236.0229	1250.5269	1268.7236	1274.8488	1287.8973	1322.105	1345.1074	1388.1843	1411.6781	1415.5591	1438.4471	1481.7435	1489.685	1496.6304	1500.2546	1503.0466	1507.9565	3010.564	3015.4529	3025.5226	3030.2427	3041.0426	3045.5611	3088.3847	3090.8301	3096.4725	3102.6411	3129.6159	3168.4444	3179.7083	3792.098
CCC1CC2C1C2(C)O	CC[C@H]1C[C@H]2[C@@H]1[C@]2(C)O	
InChI=1S/C8H14O/c1-3-5-4-6-7(5)8(6,2)9/h5-7,9H,3-4H2,1-2H3	InChI=1S/C8H14O/c1-3-5-4-6-7(5)8(6,2)9/h5-7,9H,3-4H2,1-2H3/t5-,6-,7+,8+/m0/s1
