19
gdb 92435	2.5823	1.605	1.47289	2.2356	75.21	-0.2049	-0.0117	0.1931	1004.266	0.161812	-419.197575	-419.189785	-419.188841	-419.229748	30.331	
C	-0.3115177011	 1.4252813368	 0.0088300223	-0.328939
N	 0.0975401267	 0.0374013888	 0.0058761479	-0.068636
C	 0.7428715125	-0.437400766	-1.2464703596	-0.155873
C	 1.8091617561	-1.4125535039	-0.7253158379	-0.133968
N	 2.9343985299	-0.5865549333	-0.2122740331	-0.306525
C	 2.3908307657	 0.1210094985	 1.0049959607	-0.196387
C	 0.9467564382	-0.421599606	 1.1132307608	-0.116444
C	 1.1804604041	-1.8580503138	 0.6005439618	 0.448112
O	 1.0158777979	-2.9300646813	 1.1074396838	-0.332002
H	 0.5203595543	 2.140856355	-0.1258379359	 0.10042
H	-1.0254806177	 1.5929312734	-0.8044456058	 0.125765
H	-0.8170418213	 1.6623581734	 0.9504835381	 0.121771
H	 0.0101080769	-0.9217023292	-1.9026921882	 0.109441
H	 1.2310038336	 0.376796605	-1.8023556811	 0.100794
H	 2.1410547781	-2.1839669156	-1.4165214943	 0.089696
H	 3.6919414082	-1.2017421567	 0.0669745803	 0.229938
H	 2.9757540416	-0.1135863171	 1.9006955222	 0.110837
H	 2.4238771835	 1.205282106	 0.8571313845	 0.112913
H	 0.4622848229	-0.3224731241	 2.0829863734	 0.089088
103.405	152.7614	206.7951	232.5404	305.0133	364.6374	426.4949	499.9957	516.898	640.0433	688.0995	768.5173	779.9519	825.8047	858.6658	888.7248	920.9217	970.7826	994.9054	1041.2897	1059.4869	1089.9173	1116.8267	1148.6078	1154.7555	1171.3353	1204.3087	1213.2661	1244.8246	1260.1767	1292.0224	1322.9474	1353.3202	1370.4895	1430.0433	1456.8005	1483.9402	1500.4865	1509.1078	1519.0221	1892.1406	2935.3055	2989.1649	3037.1505	3045.6793	3057.3	3074.9396	3100.5275	3138.0096	3150.0405	3519.0635
CN1CC2NCC1C2=O	CN1C[C@H]2NC[C@@H]1C2=O	
InChI=1S/C6H10N2O/c1-8-3-4-6(9)5(8)2-7-4/h4-5,7H,2-3H2,1H3	InChI=1S/C6H10N2O/c1-8-3-4-6(9)5(8)2-7-4/h4-5,7H,2-3H2,1H3/t4-,5-/m1/s1
