15
gdb 42533	5.80482	1.06434	1.00456	2.7767	76.41	-0.2473	-0.0063	0.241	1144.322	0.111943	-383.395517	-383.388375	-383.387431	-383.427183	27.908	
O	-0.1146705131	-0.104436278	 0.0040504007	-0.327683
C	-0.0699363274	 1.0869855712	 0.0094356651	 0.449658
C	-1.0092062737	 2.2905876612	 0.0304705803	-0.218931
C	 0.0140293137	 3.0535073554	 0.9563978963	-0.030439
C	 0.0298764744	 4.2946030638	 0.0242476294	-0.220813
C	 1.2034146649	 5.1440882296	 0.0099739878	 0.297961
C	 2.1792102663	 5.8471279147	-0.0017176139	-0.429806
C	-0.0156990412	 3.0630963137	-0.919566973	-0.030442
C	 0.9518356174	 2.2207536731	-0.0009624673	-0.204967
H	-2.0931664526	 2.3817650767	 0.0481131828	 0.097959
H	 0.0330912031	 3.0197991972	 2.0449722245	 0.101899
H	-0.888615803	 4.8913690269	 0.041855197	 0.105169
H	 3.0401007528	 6.4689932654	-0.0114006533	 0.19947
H	-0.0311426059	 3.0405191893	-2.0084864004	 0.1019
H	 2.0380448141	 2.2353582799	-0.0181015558	 0.109063
113.1078	125.4005	191.7027	312.9923	460.4984	500.441	525.5342	632.0024	643.7865	672.0804	704.3062	796.7844	798.2351	817.6908	834.9413	901.1578	924.7534	962.0752	993.369	1005.5787	1041.6159	1103.5802	1116.5656	1120.8123	1134.8394	1152.431	1192.5167	1201.6819	1235.7953	1280.5565	1370.9162	1918.6828	2233.4299	3048.0563	3124.8878	3125.042	3149.2266	3168.269	3501.7403
O=C1C2C3C(C#C)C2C13	O=C1[C@H]2[C@@H]3[C@@H](C#C)[C@H]2[C@H]13	
InChI=1S/C8H6O/c1-2-3-4-6-5(3)7(4)8(6)9/h1,3-7H	InChI=1S/C8H6O/c1-2-3-4-6-5(3)7(4)8(6)9/h1,3-7H/t3-,4-,5+,6-,7+
