18
gdb 102923	3.12277	0.76393	0.64602	5.6567	73.31	-0.2607	-0.0377	0.223	1662.8054	0.145162	-439.104333	-439.094057	-439.093112	-439.140796	34.929	
O	 0.0937903609	 1.4001869012	-0.1454314793	-0.419371
C	 0.0976143715	-0.0053356957	 0.0395189342	-0.10582
C	-1.3655398932	-0.4821358912	 0.0185666758	-0.090123
C	-1.4674635281	-2.0109708999	-0.0177465665	-0.202451
C	-2.8907486149	-2.5154008498	-0.3360573191	-0.352415
C	-2.9384814235	-3.9692644549	-0.4700030732	 0.258575
N	-2.9558134242	-5.1198598069	-0.5761802869	-0.306611
C	-2.1144789629	 0.1431967645	 1.1859985861	 0.154434
O	-2.8098367204	-0.4694860616	 1.9592496944	-0.249255
H	 0.9874054279	 1.730387937	-0.0141880721	 0.296711
H	 0.6496684973	-0.5158090084	-0.7639055781	 0.104571
H	 0.5691575973	-0.2874826928	 0.9940629725	 0.10533
H	-1.8022400033	-0.0479127943	-0.8947925312	 0.11344
H	-0.7752292844	-2.3999556069	-0.7717245601	 0.119021
H	-1.1571566041	-2.4235828193	 0.9474740613	 0.134483
H	-3.5749799198	-2.2080860165	 0.4589732296	 0.18177
H	-3.2526037053	-2.071986115	-1.2715460987	 0.145267
H	-1.9620641307	 1.2360031104	 1.2902451413	 0.112443
57.0584	79.757	98.895	114.599	123.6772	214.5807	230.0669	256.4188	309.4652	380.9272	401.1337	449.573	556.685	643.8454	777.265	831.1198	914.3261	938.7451	976.1442	1015.0473	1053.8002	1087.3844	1108.2278	1149.6106	1196.4568	1223.1718	1253.0971	1290.5446	1311.3798	1319.5863	1371.2755	1386.8317	1419.9437	1452.5652	1474.4382	1487.7534	1526.7128	1817.2113	2362.6591	2942.8588	2974.3544	2994.4953	3012.056	3042.3347	3052.1841	3091.3829	3113.9477	3833.2831
OCC(CCC#N)C=O	OC[C@@H](CCC#N)C=O	
InChI=1S/C6H9NO2/c7-3-1-2-6(4-8)5-9/h4,6,9H,1-2,5H2	InChI=1S/C6H9NO2/c7-3-1-2-6(4-8)5-9/h4,6,9H,1-2,5H2/t6-/m0/s1
