16
gdb 128905	6.72651	0.70209	0.66747	4.3186	75.39	-0.2523	0.0086	0.2608	1589.1474	0.126784	-396.968143	-396.959953	-396.959009	-397.002406	29.115	
N	-0.0067301711	-1.2156525448	 0.0258645169	-0.30368
C	-0.024640131	-0.0603863938	 0.0513179298	 0.253533
C	-0.0164148891	 1.4006152745	 0.0771134212	-0.324495
C	 1.4115232037	 1.9894012382	-0.0660955424	-0.33308
C	 1.4087555645	 3.4877145991	-0.0376560688	 0.208026
C	 1.4643299703	 4.3585014542	-1.1098812942	-0.12908
N	 1.4087302897	 5.610141808	-0.5956538953	-0.173063
N	 1.3218688201	 5.6288188271	 0.7465899054	-0.21726
C	 1.3196447387	 4.3443479845	 1.0874045667	-0.081098
H	-0.6552326443	 1.7722859761	-0.7312271997	 0.154085
H	-0.469185751	 1.7400231265	 1.0148980225	 0.157648
H	 2.0340202499	 1.5928173972	 0.7424910674	 0.132912
H	 1.8483449406	 1.626989913	-1.0014181352	 0.126633
H	 1.5461626061	 4.1813699955	-2.1711410417	 0.137727
H	 1.4407767171	 6.4835350628	-1.0937179658	 0.278758
H	 1.2627535158	 4.0694711619	 2.1313764634	 0.112435
47.9553	62.2342	97.9349	190.3073	310.1882	366.4094	404.881	505.1502	529.095	660.6271	698.2564	737.497	764.0101	798.7684	887.2324	950.8101	953.6613	1003.8869	1012.7201	1018.9036	1071.163	1165.5647	1180.6185	1245.2285	1281.6214	1304.635	1327.7793	1371.3992	1395.7553	1419.9852	1467.66	1493.4583	1495.7943	1611.4417	2361.1627	3046.8067	3056.9016	3081.4077	3103.5378	3237.2671	3257.3469	3674.5323
N#CCCC1=CNN=C1	N#CCCc1c[nH]nc1	
InChI=1S/C6H7N3/c7-3-1-2-6-4-8-9-5-6/h4-5H,1-2H2,(H,8,9)	InChI=1S/C6H7N3/c7-3-1-2-6-4-8-9-5-6/h4-5H,1-2H2,(H,8,9)
