19
gdb 88881	3.44022	1.2118	1.03155	2.7744	71.62	-0.2307	0.0783	0.309	1190.9627	0.15988	-460.139362	-460.130981	-460.130037	-460.173213	31.321	
O	-0.4110927336	 0.6613873469	 1.6127730681	-0.434569
C	-0.0353807285	 0.1329777619	 0.3821283429	 0.145287
C	-0.5749656249	-1.1691909537	-0.1461622043	-0.331212
C	-0.9382744307	 0.136505816	-0.8329522206	-0.11531
C	-2.3432285241	 0.6655926345	-0.7588478699	 0.215164
O	-3.1805221249	 0.0094809589	-1.6807729759	-0.245326
C	-4.4938456731	 0.1871657065	-1.1775301732	-0.109983
C	-4.2974190626	 0.0684089188	 0.3429071246	-0.094064
O	-2.9309155866	 0.4399372961	 0.5302541221	-0.286663
H	-1.3736285597	 0.5961339715	 1.6775928979	 0.29551
H	 1.0127582869	 0.3478497025	 0.1982864206	 0.103538
H	 0.0861105953	-1.8593895385	-0.6586961191	 0.109808
H	-1.3605498875	-1.6383280258	 0.4363898671	 0.118124
H	-0.4743439955	 0.3509334227	-1.7912549973	 0.098016
H	-2.3610097306	 1.7538197917	-0.9523300886	 0.073601
H	-4.8904669846	 1.1771107371	-1.449217417	 0.103667
H	-5.1380606962	-0.5852239998	-1.601416167	 0.124572
H	-4.9488653928	 0.740854371	 0.9104463463	 0.114337
H	-4.4437038765	-0.9577697782	 0.6984368934	 0.115504
55.8965	67.2799	166.1047	201.3806	256.5579	292.6483	420.9169	480.018	532.744	634.7279	677.6034	734.2345	772.9797	798.4007	880.9335	890.7119	931.9859	952.4644	980.6976	1027.6544	1038.5004	1059.5848	1068.471	1100.4857	1128.4154	1143.1666	1157.504	1174.5601	1226.2087	1235.0598	1248.8348	1336.635	1352.8527	1375.3721	1381.6846	1404.3718	1428.3968	1456.2348	1494.1866	1511.3293	1527.7673	2934.2091	2993.2622	3034.3145	3080.425	3117.5271	3133.1197	3150.2298	3161.8896	3223.0916	3745.3734
OC1CC1C1OCCO1	O[C@H]1C[C@H]1C1OCCO1	
InChI=1S/C6H10O3/c7-5-3-4(5)6-8-1-2-9-6/h4-7H,1-3H2	InChI=1S/C6H10O3/c7-5-3-4(5)6-8-1-2-9-6/h4-7H,1-3H2/t4-,5+/m1/s1
