18
gdb 43192	2.5623	1.70432	1.22815	2.1984	77.05	-0.2417	-0.0313	0.2104	1043.7317	0.148628	-401.911988	-401.904249	-401.903304	-401.944509	29.661	
O	-0.0366810916	 0.2162428079	-0.8973556332	-0.325806
C	-0.0876195302	 1.278027331	-0.3388911191	 0.347823
C	-1.2104643234	 2.2121339358	 0.1262614782	-0.16167
C	-1.5081630445	 2.1281879385	 1.6608304534	-0.23329
C	-0.510620771	 3.2938255263	 1.9310754898	-0.221898
C	-0.1100604429	 3.311051481	 0.4338311368	-0.135978
C	 0.9693486322	 2.2892292375	 0.04679309	 0.251839
C	 2.3175213252	 1.9848172242	 0.5986963639	-0.292993
N	 2.1768782471	 2.550763175	-0.7421647858	-0.360927
H	-2.0581163596	 2.3463616015	-0.5455514264	 0.093849
H	-2.5455128395	 2.3620508934	 1.9063278888	 0.116487
H	-1.2601227283	 1.1692304307	 2.1223357046	 0.114352
H	-1.0133260429	 4.2112774474	 2.2453363485	 0.107722
H	 0.3002533473	 3.0895277486	 2.6354663944	 0.102437
H	-0.0584605706	 4.2633889216	-0.0919503647	 0.089584
H	 2.7448977189	 2.6592939538	 1.3360432111	 0.129279
H	 2.5890823281	 0.9377141772	 0.7079205781	 0.130677
H	 2.2686008356	 1.8154982386	-1.4431090382	 0.248514
70.099	167.5925	183.9332	225.224	233.8588	369.9717	459.3707	596.9544	628.9775	724.7173	777.5967	780.9081	820.6789	835.3891	869.6154	919.2399	945.5903	958.3645	983.0292	997.1128	1009.7381	1064.6954	1092.734	1102.0156	1114.8454	1148.1927	1186.6525	1219.4146	1244.9161	1265.9997	1271.1288	1275.1029	1283.3906	1298.8951	1400.2294	1478.7189	1494.9823	1500.8227	1867.6118	3059.7127	3069.7269	3103.1694	3104.5854	3116.2099	3123.4044	3131.1212	3195.4459	3468.3606
O=C1C2CCC2C11CN1	O=C1[C@H]2CC[C@H]2[C@]21CN2	
InChI=1S/C7H9NO/c9-6-4-1-2-5(4)7(6)3-8-7/h4-5,8H,1-3H2	InChI=1S/C7H9NO/c9-6-4-1-2-5(4)7(6)3-8-7/h4-5,8H,1-3H2/t4-,5+,7-/m0/s1
