18
gdb 55924	4.12593	0.92545	0.85594	2.0741	74.05	-0.2427	0.0316	0.2743	1381.1226	0.146627	-439.080312	-439.071378	-439.070434	-439.116192	31.915	
C	 0.0541955478	 1.50932319	-0.091869892	-0.48489
C	 0.1346266256	-0.0036201717	 0.0390415648	 0.409418
O	 0.4229645376	-0.5491202387	 1.0892156201	-0.376032
N	-0.1483728485	-0.7003920991	-1.1037662518	-0.316539
C	-0.125225532	-2.1344030597	-1.1753287433	 0.022171
C	-1.448349716	-2.8922104666	-1.5967182961	-0.278905
C	-0.6918541036	-3.4146005798	-2.820042986	 0.034106
O	-0.2323435344	-2.2640901114	-3.5473576307	-0.258524
C	 0.545082703	-2.7200835484	-2.4293649475	 0.003111
H	 0.9897704344	 1.9424308568	 0.2701444143	 0.152814
H	-0.1303040079	 1.8538208181	-1.1126319901	 0.112905
H	-0.746990284	 1.8761061682	 0.5560249918	 0.152475
H	-0.3730037527	-0.2093199524	-1.9544203519	 0.25138
H	 0.2818516171	-2.5047666312	-0.2348920677	 0.127258
H	-1.7231525161	-3.6681436685	-0.8787721792	 0.118713
H	-2.3160203441	-2.2663026696	-1.8172334466	 0.109954
H	-0.8303751838	-4.3297591221	-3.381975145	 0.112258
H	 1.5892644376	-2.9466687439	-2.6117744531	 0.108327
21.7757	47.9859	97.7063	111.278	231.5731	347.8531	363.9684	445.631	519.8996	584.5952	610.2962	646.3825	740.6864	832.8088	848.7799	883.5031	904.9276	919.0314	972.2637	997.2664	1011.7268	1028.7952	1051.6068	1066.7767	1123.0864	1194.4586	1205.082	1232.6981	1242.0833	1257.3753	1285.3658	1350.3927	1384.68	1396.5198	1470.5698	1471.5282	1485.8298	1530.195	1778.142	3049.5536	3069.1588	3124.3678	3125.699	3132.9441	3137.5347	3183.7772	3204.6236	3639.2324
CC(=O)NC1CC2OC12	CC(=O)N[C@H]1C[C@H]2O[C@@H]12	
InChI=1S/C6H9NO2/c1-3(8)7-4-2-5-6(4)9-5/h4-6H,2H2,1H3,(H,7,8)	InChI=1S/C6H9NO2/c1-3(8)7-4-2-5-6(4)9-5/h4-6H,2H2,1H3,(H,7,8)/t4-,5+,6-/m0/s1
