23
gdb 59520	3.54743	0.99062	0.87142	1.6216	86.22	-0.2387	0.0739	0.3126	1437.3859	0.204352	-388.268879	-388.259009	-388.258065	-388.30329	37.816	
C	 0.0486237634	 1.5332834678	-0.0024710425	-0.402227
C	 0.0564865186	 0.0076495216	 0.1094936138	 0.122274
O	 0.6645402948	-0.4194022624	 1.328430577	-0.432211
C	-1.3396110728	-0.5935220401	-0.0348501271	 0.020851
C	-2.0836115607	-0.5249576927	-1.4139751619	-0.326777
C	-2.2699844277	-2.0525304062	-1.3745520373	 0.372991
C	-3.5181945241	-2.7659495312	-1.8069005619	-0.497409
C	-0.9163789666	-2.7029934774	-1.3253196133	-0.325581
C	-1.4855030051	-2.1203996889	-0.0572404637	-0.107265
H	 1.05925892	 1.9291300618	 0.1295023209	 0.121711
H	-0.329472674	 1.8612424383	-0.9761811477	 0.118545
H	-0.5947050195	 1.9748628499	 0.7696090047	 0.101815
H	 0.7077184779	-0.4023007683	-0.6716449952	 0.083863
H	 0.1287184702	-0.078831462	 2.0537132473	 0.272198
H	-1.9794813714	-0.1631602608	 0.7470843261	 0.05652
H	-3.022910345	 0.0307516341	-1.3561412981	 0.098538
H	-1.5074006358	-0.1402332525	-2.2636643787	 0.090254
H	-3.6336475604	-2.7428704591	-2.8978974615	 0.117454
H	-3.4991949896	-3.8174125276	-1.501214132	 0.11636
H	-4.4141680838	-2.3074728604	-1.3715847276	 0.112176
H	-0.92325177	-3.788208486	-1.3657337677	 0.106287
H	-0.0571932548	-2.2541019241	-1.8190528093	 0.10161
H	-1.6659972234	-2.7419809238	 0.8119934954	 0.078023
74.2626	115.8226	133.4091	212.7766	230.2169	263.8558	277.1803	306.9661	350.92	382.3334	414.9943	465.6268	538.0982	624.1819	713.8248	799.9847	822.2171	889.5507	910.5353	948.2266	961.2997	976.7513	984.7834	999.3148	1036.1935	1056.6397	1067.2444	1089.9022	1097.6173	1118.8773	1148.4957	1188.3516	1233.414	1246.5788	1262.7112	1276.662	1300.7312	1328.8321	1387.2907	1399.9547	1402.0555	1417.7706	1426.3269	1483.6729	1486.9203	1490.1079	1494.318	1498.6802	1510.503	3008.628	3015.7304	3021.7706	3031.9636	3044.6918	3071.4361	3091.474	3092.4109	3096.1033	3103.6065	3117.1562	3174.0367	3191.1382	3792.9485
CC(O)C1CC2(C)CC12	C[C@@H](O)[C@H]1C[C@@]2(C)C[C@@H]12	
InChI=1S/C8H14O/c1-5(9)6-3-8(2)4-7(6)8/h5-7,9H,3-4H2,1-2H3	InChI=1S/C8H14O/c1-5(9)6-3-8(2)4-7(6)8/h5-7,9H,3-4H2,1-2H3/t5-,6-,7+,8+/m1/s1
