20
gdb 70303	3.45217	1.27515	1.16451	0.6623	78.26	-0.2413	0.0799	0.3212	1126.6461	0.172264	-403.119196	-403.111244	-403.1103	-403.151172	32.53	
O	 0.0046478756	 1.3073086963	-0.6250135004	-0.473827
C	-0.011175086	 0.0502289811	-0.0180822869	 0.40765
C	-0.0617837156	-1.1910188253	-0.8729418209	-0.359023
C	-1.2764754731	-0.7682477316	-0.060199004	-0.075263
C	-1.4745822007	-1.4151973806	 1.3012468276	-0.298196
C	-0.0953195382	-1.3146451552	 1.9610719606	 0.325759
C	 0.1818164111	-1.84537529	 3.3122896644	-0.307877
N	 0.7425230861	-2.5205330317	 2.1237677261	-0.34515
C	 0.5958876963	-0.0868234009	 1.3731414421	-0.336186
H	 0.883924108	 1.4474217083	-0.9928294977	 0.281311
H	-0.1329295216	-1.0244936203	-1.9422319572	 0.109379
H	 0.507624989	-2.0671114923	-0.5791832234	 0.123793
H	-2.1369357002	-0.396813777	-0.6041584989	 0.091488
H	-2.2172768027	-0.8457702899	 1.8744814909	 0.108161
H	-1.8274009819	-2.4528929538	 1.2536912513	 0.092039
H	 0.915592524	-1.3600725289	 3.9508281225	 0.115297
H	-0.6316033757	-2.3271975416	 3.8501814319	 0.107704
H	 0.1916408449	-3.3518936755	 1.9198765821	 0.223824
H	 1.6833615538	-0.209451736	 1.3787974479	 0.103893
H	 0.3451818269	 0.8155800748	 1.9443805819	 0.105224
109.5288	196.7497	259.7564	289.9887	349.6337	382.3356	396.1922	410.3167	446.5038	514.2585	586.4768	700.6081	769.3582	831.9447	843.4389	882.6077	903.2826	921.2046	934.8967	948.0869	968.3528	1008.5535	1042.176	1053.2312	1058.1678	1090.1471	1104.2785	1135.5542	1166.99	1210.9161	1226.5575	1260.2979	1265.5772	1291.3018	1310.7174	1323.0178	1346.205	1401.4349	1414.8386	1476.961	1483.8925	1499.1849	1515.1913	3017.6632	3032.8686	3054.2728	3085.7628	3099.0647	3129.0181	3181.4334	3183.0316	3220.9147	3483.0348	3797.5346
OC12CC1CC1(CN1)C2	O[C@]12C[C@H]1C[C@]1(CN1)C2	
InChI=1S/C7H11NO/c9-7-2-5(7)1-6(3-7)4-8-6/h5,8-9H,1-4H2	InChI=1S/C7H11NO/c9-7-2-5(7)1-6(3-7)4-8-6/h5,8-9H,1-4H2/t5-,6-,7+/m1/s1
