17
gdb 99096	3.99584	0.75683	0.67251	1.1079	65.95	-0.2724	-0.0442	0.2282	1603.7989	0.132032	-496.117606	-496.107744	-496.1068	-496.153732	34.264	
O	 0.0891917982	 1.2035151721	 0.8158416048	-0.416911
C	-0.092034386	 0.2208487446	-0.1562915241	-0.12204
C	-1.3771584789	-0.5617246718	 0.0678036951	 0.344234
O	-2.1270724855	-0.2225358597	 0.9628244358	-0.324548
C	-1.6653624416	-1.7324110852	-0.8432675952	-0.34379
C	-3.144791919	-2.1750648417	-0.8778898515	 0.061466
O	-3.354997537	-3.0224714329	-1.972110533	-0.438085
C	-3.5613263919	-2.8729195842	 0.4092987335	 0.124361
O	-3.9851336834	-4.0043351915	 0.3858311683	-0.261279
H	-0.7192036897	 1.1863637608	 1.3521501379	 0.296231
H	-0.1429939546	 0.6540448719	-1.1710339134	 0.121239
H	 0.7530080918	-0.4865035897	-0.170270741	 0.121752
H	-1.3626450665	-1.4899852941	-1.8678827292	 0.148876
H	-1.025308753	-2.5722783734	-0.5392738284	 0.148544
H	-3.7681054916	-1.2680440785	-0.9582815316	 0.110304
H	-3.7243686847	-3.8394967974	-1.5979883019	 0.29681
H	-3.4586365766	-2.2933282396	 1.342309314	 0.132836
33.8795	75.111	113.8383	120.6024	158.5593	261.867	327.1053	329.2664	351.5323	386.8263	444.5234	479.123	505.9904	691.1916	740.4102	805.3959	838.4906	891.7489	961.4312	1014.1418	1073.3368	1096.8101	1141.4266	1170.158	1185.6171	1255.4954	1284.3988	1309.5614	1331.6199	1362.9598	1386.2201	1444.2115	1449.6119	1450.2273	1489.6739	1782.7576	1806.6889	2959.8045	2967.211	2992.049	3007.9013	3030.4051	3079.7039	3671.9696	3694.3724
OCC(=O)CC(O)C=O	OCC(=O)C[C@@H](O)C=O	
InChI=1S/C5H8O4/c6-2-4(8)1-5(9)3-7/h2,4,7-8H,1,3H2	InChI=1S/C5H8O4/c6-2-4(8)1-5(9)3-7/h2,4,7-8H,1,3H2/t4-/m1/s1
