21
gdb 41838	2.77322	1.95685	1.6977	1.5255	79.72	-0.2356	0.0783	0.3139	919.4808	0.18813	-387.126456	-387.120037	-387.119093	-387.156998	27.911	
C	-0.0409761588	 1.5618138697	-0.139218893	-0.224532
C	 1.4223031284	 2.0300966618	 0.0992675298	-0.224799
C	 2.23497087	 0.7386018051	 0.2845924796	 0.129036
O	 2.2653424098	 0.3435642069	 1.6786044703	-0.2975
C	 1.4405062456	-0.8255791921	 1.7904184301	 0.107795
C	-0.0216276367	-0.4055827489	 1.5673569148	-0.230431
C	-0.0105791746	 0.0340896418	 0.0622686056	-2.*^-6
C	 1.4214659113	-0.3957241099	-0.3810742094	-0.058564
C	 1.7622961554	-1.600293645	 0.5053281378	-0.235918
H	-0.7584033382	 2.0490392295	 0.5274450403	 0.097374
H	-0.3520783954	 1.7975212494	-1.1625522101	 0.093143
H	 1.7999267348	 2.600655774	-0.7552917073	 0.093092
H	 1.532600028	 2.6600012135	 0.9852201642	 0.110525
H	 3.2696651433	 0.8314104449	-0.0630118773	 0.064687
H	 1.660205359	-1.3049969584	 2.7450682524	 0.068817
H	-0.7026154851	-1.2459541552	 1.73879187	 0.091624
H	-0.3107328373	 0.4056264797	 2.2408264817	 0.099725
H	-0.8016127117	-0.4676116382	-0.5000538418	 0.060456
H	 1.5696444271	-0.4926278412	-1.4574257784	 0.061759
H	 2.8092266649	-1.9095462295	 0.4488144057	 0.099937
H	 1.1134589099	-2.4649702077	 0.3400226348	 0.093777
117.8747	319.8719	333.9928	428.7177	448.2551	567.0065	573.592	711.1383	764.7649	792.9295	798.2195	835.8478	850.4315	880.2127	899.7772	913.4694	950.3682	971.3245	978.0843	983.0677	997.386	1010.297	1031.8125	1064.6779	1112.4727	1125.1007	1158.7676	1180.0363	1195.1168	1232.4248	1247.9904	1270.4379	1282.3257	1283.3926	1293.6916	1319.5337	1329.3496	1338.7023	1345.1494	1367.2927	1371.716	1477.7707	1478.3402	1496.4778	1505.0402	3037.3073	3041.6225	3044.8299	3059.4378	3060.2636	3074.7083	3081.003	3099.4977	3107.5106	3109.425	3113.7116	3116.0968
C1CC2OC3CC1C2C3	C1C[C@H]2O[C@H]3C[C@@H]1[C@@H]2C3	
InChI=1S/C8H12O/c1-2-8-7-4-6(9-8)3-5(1)7/h5-8H,1-4H2	InChI=1S/C8H12O/c1-2-8-7-4-6(9-8)3-5(1)7/h5-8H,1-4H2/t5-,6+,7+,8-/m1/s1
