20
gdb 111463	2.70444	1.44889	1.05623	3.4895	78.75	-0.2364	0.026	0.2624	1181.3329	0.172454	-403.18705	-403.178608	-403.177663	-403.220177	32.648	
C	 0.00374611	 1.6343238943	-0.1952897001	-0.390544
C	 0.0483429272	 0.1140310903	-0.0129689474	-0.170684
C	-1.3427617419	-0.5373286423	 0.089984516	-0.120958
C	-1.372440671	-2.0570145978	-0.0048076333	-0.060005
C	-0.7552502498	-2.890164416	 1.1031119349	-0.304293
C	-2.2316635501	-2.5712193748	 1.1216316181	-0.011149
N	-2.6274921233	-1.4120920414	 1.8673070663	-0.302143
C	-2.0556338805	-0.2396012697	 1.428781843	 0.384854
O	-2.0981291239	 0.818654862	 2.0194073959	-0.373376
H	 1.0154922711	 2.0483942935	-0.2491883163	 0.104561
H	-0.5142016281	 1.9015096132	-1.1238214023	 0.105395
H	-0.5256573336	 2.1054815373	 0.6346746593	 0.156842
H	 0.5743365277	-0.346446936	-0.8584064528	 0.093752
H	 0.6309578109	-0.1363579725	 0.8816962997	 0.09967
H	-1.9751544805	-0.1232331934	-0.7076434137	 0.100815
H	-1.443020796	-2.508721867	-0.9867808961	 0.09588
H	-0.4576881014	-3.9002758028	 0.842307883	 0.117431
H	-0.1282177851	-2.40990138	 1.8472030663	 0.121165
H	-2.9810121765	-3.3424024272	 0.9856029989	 0.103628
H	-2.9610378253	-1.4628823097	 2.8182573206	 0.249159
81.119	114.1214	175.5663	208.0788	263.2188	326.5949	414.554	465.0825	476.5113	527.4083	639.3766	708.2113	717.9456	752.399	789.855	828.0002	854.0833	927.9931	941.5439	985.1583	1023.4978	1052.6475	1058.4184	1075.3851	1091.7879	1122.2145	1140.0083	1149.9245	1204.4135	1252.0216	1265.8466	1294.1163	1329.5674	1372.5235	1374.5618	1384.6853	1409.0931	1416.203	1478.7365	1487.9427	1495.8908	1516.8228	1814.5139	3012.8439	3025.2078	3033.4896	3060.0752	3095.976	3128.3636	3142.3474	3171.5896	3181.8076	3218.7195	3620.7033
CCC1C2CC2NC1=O	CC[C@H]1[C@H]2C[C@H]2NC1=O	
InChI=1S/C7H11NO/c1-2-4-5-3-6(5)8-7(4)9/h4-6H,2-3H2,1H3,(H,8,9)	InChI=1S/C7H11NO/c1-2-4-5-3-6(5)8-7(4)9/h4-6H,2-3H2,1H3,(H,8,9)/t4-,5+,6+/m0/s1
