19
gdb 76089	2.03993	1.58503	1.20779	4.4813	79.66	-0.2452	0.02	0.2653	1126.0002	0.159899	-382.044373	-382.035386	-382.034442	-382.078252	33.078	
C	 0.1392505803	 1.6447117392	 0.0191003646	-0.414905
C	 0.0520456883	 0.1352571	 0.0483795598	-0.03563
C	 1.2954672016	-0.7359279034	-0.1489193015	-0.210557
C	 2.5769782332	-0.133709158	-0.3817780056	 0.287622
N	 3.6119288318	 0.340115278	-0.5973634303	-0.348282
C	 0.5781527267	-0.6783658922	 1.1997667883	-0.057386
C	 1.118580714	-0.0833718931	 2.4690996614	-0.01541
C	 2.3658047408	-0.5844202006	 3.104742717	-0.240792
N	 2.2927564772	 0.7885396081	 2.5844453169	-0.322058
H	 1.0322606698	 2.0187436329	 0.523067977	 0.151421
H	 0.1525986503	 2.0124289458	-1.0116144921	 0.131201
H	-0.7305208882	 2.0802760732	 0.5211684957	 0.128311
H	-0.830262564	-0.2676745625	-0.4416726498	 0.104009
H	 1.1638104059	-1.6552204252	-0.7105206978	 0.136771
H	 0.0180068727	-1.5897494604	 1.3994717693	 0.108904
H	 0.3132187582	 0.2199419752	 3.1381502677	 0.100253
H	 2.4318379092	-0.6709032869	 4.1857491691	 0.119995
H	 2.9550049624	-1.3120226743	 2.5518938348	 0.119098
H	 2.8077890199	 0.8530133443	 1.7111768053	 0.257435
79.7763	124.5635	138.4844	163.2373	178.8583	243.1429	314.9598	364.8991	455.4081	523.6295	605.9923	688.1494	711.4373	768.8859	796.7223	845.4574	886.99	957.5634	965.0209	971.901	1002.0727	1048.8905	1093.8729	1103.376	1129.5757	1149.3118	1151.6904	1174.8043	1197.1475	1246.1735	1271.9934	1313.4606	1363.8829	1381.7985	1418.7759	1429.4854	1435.7585	1488.2857	1503.3594	1511.3891	2338.6645	3045.7564	3101.2079	3105.4227	3106.6539	3123.6977	3133.2443	3149.3102	3163.8955	3192.3448	3527.1904
CC1C(C#N)C1C1CN1	C[C@H]1[C@@H](C#N)[C@H]1[C@H]1CN1	
InChI=1S/C7H10N2/c1-4-5(2-8)7(4)6-3-9-6/h4-7,9H,3H2,1H3	InChI=1S/C7H10N2/c1-4-5(2-8)7(4)6-3-9-6/h4-7,9H,3H2,1H3/t4-,5+,6+,7-/m0/s1
