16
gdb 12639	3.37283	1.91497	1.27688	2.96	67.82	-0.2447	-0.0495	0.1951	936.2174	0.130154	-383.781981	-383.774133	-383.773188	-383.81426	28.714	
C	-0.1082486356	 1.5130424656	 0.0510636349	-0.495591
C	-0.0336508303	 0.0230548981	-0.0244173605	 0.211131
C	-0.075291474	-0.7853996939	-1.097735355	-0.150048
C	 0.1085150962	-2.2496268861	-0.7761858	-0.29138
C	 0.0092393641	-2.2859103407	 0.7582544673	 0.060118
O	 0.9437102783	-3.1288564538	 1.3822229262	-0.439507
C	 0.201594835	-0.8202075499	 1.1683647593	 0.288688
O	 0.5465805818	-0.4757119672	 2.2791912456	-0.350326
H	 0.7664161978	 1.909270744	 0.5776743675	 0.149192
H	-0.1597957102	 1.9683571821	-0.9409597387	 0.124476
H	-0.9854875518	 1.8321905016	 0.625171014	 0.140977
H	-0.2038146878	-0.437960001	-2.1186089051	 0.111011
H	-0.6273163684	-2.8843494174	-1.2801757678	 0.116837
H	 1.1007587704	-2.6007785112	-1.084339172	 0.139252
H	-1.0226553962	-2.5614428099	 1.0413697309	 0.093374
H	 1.1567445607	-2.6998434203	 2.2238551036	 0.291797
81.1544	117.8868	224.5086	246.308	254.6482	328.2846	402.1614	463.266	529.6164	557.2758	667.2751	722.8243	818.0065	851.4272	934.9896	951.8917	1018.8805	1036.8515	1059.3005	1070.1539	1137.0071	1181.6699	1222.6237	1252.427	1306.3539	1340.5231	1372.8381	1411.3337	1417.5374	1474.609	1478.2574	1486.658	1686.2138	1802.373	2941.116	3036.2263	3041.3997	3080.0695	3090.9602	3122.9007	3180.538	3730.837
CC1=CCC(O)C1=O	CC1=CC[C@@H](O)C1=O	
InChI=1S/C6H8O2/c1-4-2-3-5(7)6(4)8/h2,5,7H,3H2,1H3	InChI=1S/C6H8O2/c1-4-2-3-5(7)6(4)8/h2,5,7H,3H2,1H3/t5-/m1/s1
