15
gdb 126099	3.15398	1.61666	1.12944	2.7911	66.84	-0.2747	-0.0534	0.2213	1023.7008	0.113216	-453.895757	-453.888504	-453.887559	-453.927891	26.922	
C	 0.0856252603	 1.5857496122	-0.070907286	-0.390467
C	-0.0023596749	 0.0726545879	 0.0690675514	 0.02285
O	 0.6362011587	-0.5527907265	-1.0718730985	-0.294216
C	 1.462566712	-1.6748066585	-0.720804225	-0.18312
C	 1.6059309705	-1.5437310331	 0.7607091291	 0.29766
N	 2.2530074534	-2.060864009	 1.757632051	-0.193347
O	 1.7939346048	-1.3576414771	 2.8589068734	-0.154629
N	 0.8545770191	-0.4034531696	 2.5074818922	-0.206481
C	 0.7459086165	-0.5233916866	 1.2213947301	 0.301477
H	 1.1291007016	 1.9103307978	-0.0783761682	 0.132245
H	-0.3866582503	 1.8981334366	-1.0054035157	 0.136809
H	-0.4298666235	 2.0700424613	 0.7634609065	 0.137107
H	-1.0574351663	-0.238177318	 0.1013369551	 0.112874
H	 0.9773451884	-2.6200539131	-1.0018675251	 0.13522
H	 2.4089194995	-1.5982367143	-1.2656141303	 0.146019
73.7358	161.653	216.1694	240.5589	308.4411	456.4311	489.9415	608.3751	618.0262	660.8959	746.8495	784.8052	827.2487	851.7693	895.7563	1000.7197	1034.4331	1050.0968	1070.1761	1091.7953	1122.4236	1197.6388	1206.7407	1310.3232	1353.4969	1368.2047	1407.2357	1423.6465	1482.6971	1493.6953	1508.4332	1570.9608	1673.0028	2991.7418	3009.2747	3050.3967	3074.3476	3128.8676	3135.1881
CC1OCC2=NON=C12	C[C@H]1OCc2nonc12	
InChI=1S/C5H6N2O2/c1-3-5-4(2-8-3)6-9-7-5/h3H,2H2,1H3	InChI=1S/C5H6N2O2/c1-3-5-4(2-8-3)6-9-7-5/h3H,2H2,1H3/t3-/m1/s1
