22
gdb 22404	6.0998	0.60391	0.57587	1.0973	87.84	-0.2391	0.0104	0.2495	1967.0884	0.192307	-404.306912	-404.296735	-404.295791	-404.343	37.193	
C	-0.1614640228	 1.5877065067	 0.2421125476	-0.379965
C	-0.0787442291	 0.0622067151	 0.1418145963	-0.164585
C	-1.4413785462	-0.6012451767	-0.0904966752	-0.187073
C	-1.3738884035	-2.1201645398	-0.1773238643	 0.033876
C	-1.0608157626	-2.9120912981	 1.1419966655	-0.328998
C	-2.2733286311	-3.7672017544	 0.8432243601	 0.421967
C	-2.72816624	-2.8943888646	-0.3074256926	-0.348304
N	-2.6446450952	-4.8615850099	 1.3597086685	-0.233903
O	-3.8144636078	-5.3398641087	 0.7335615376	-0.396217
H	 0.8255968265	 2.0318187115	 0.404109939	 0.112229
H	-0.5763031339	 2.0230330632	-0.6738828042	 0.114195
H	-0.8053783519	 1.8955631392	 1.0735252652	 0.114374
H	 0.6007277911	-0.216294208	-0.6746381307	 0.095222
H	 0.3701066945	-0.3405801682	 1.0592526158	 0.099941
H	-2.1294459259	-0.3170858861	 0.7190851703	 0.090422
H	-1.8844064988	-0.2078949146	-1.0162033772	 0.095
H	-0.6835017367	-2.4170562382	-0.9735365943	 0.076254
H	-0.1015481434	-3.4319510147	 1.2029073255	 0.119925
H	-1.1795152293	-2.3010386673	 2.0446845098	 0.116413
H	-3.6056633742	-2.2848776507	-0.0622308126	 0.120132
H	-2.9273044057	-3.4142343077	-1.2481031685	 0.124379
H	-3.9692879639	-6.1662027282	 1.2031879984	 0.304716
31.3062	82.7297	98.6209	151.0379	202.2372	244.6341	252.2285	308.1714	351.9794	388.24	428.897	466.5882	534.3534	699.371	745.0547	782.9369	792.3453	859.2685	897.6234	926.4471	954.7869	969.6246	1006.5481	1033.9936	1048.0716	1086.9775	1130.8368	1133.8246	1185.5754	1214.556	1216.3685	1253.1252	1261.4784	1277.8307	1311.2394	1332.5882	1369.8952	1397.2545	1402.9448	1413.6653	1450.2347	1467.7282	1483.6591	1494.2662	1499.7666	1510.4525	1784.6484	2998.4545	3016.6861	3025.6943	3029.6211	3037.0547	3043.4336	3047.8295	3058.7634	3095.7794	3100.5417	3101.7718	3102.3158	3819.1033
CCCC1CC(C1)=NO	CCC[C@H]1CC(=NO)C1	
InChI=1S/C7H13NO/c1-2-3-6-4-7(5-6)8-9/h6,9H,2-5H2,1H3	InChI=1S/C7H13NO/c1-2-3-6-4-7(5-6)8-9/h6,9H,2-5H2,1H3/t6-
