16
gdb 25808	4.19206	1.09368	0.8721	1.7616	75.91	-0.2249	-0.0199	0.205	1282.5846	0.125951	-434.161071	-434.152431	-434.151486	-434.194596	31.259	
C	-0.0075989489	 1.4816559255	 0.0936890105	-0.507115
C	-0.0044794953	-0.0036514824	-0.031471727	 0.303871
C	-0.0429075518	-0.8388732962	-1.1305086032	-0.171745
N	-0.0192628158	-2.1545021539	-0.7513495747	-0.32596
C	 0.0327624874	-2.1298649446	 0.5668343837	 0.269524
N	 0.0428635655	-0.8546708306	 1.0429913528	-0.32434
C	 0.0772005541	-3.2704615216	 1.5047974849	 0.335947
N	 0.0610436186	-4.4811850846	 0.8960410442	-0.534156
O	 0.1230029871	-3.0919484562	 2.7141048012	-0.398363
H	 0.8991472519	 1.8535585768	 0.5851494245	 0.138272
H	-0.0588544224	 1.9364200612	-0.8980599288	 0.144754
H	-0.8666901803	 1.842387866	 0.6713894852	 0.138029
H	-0.0860157673	-0.5481591614	-2.1698298632	 0.110232
H	 0.0800118998	-0.636087799	 2.0267451157	 0.27881
H	 0.021283006	-4.5331414095	-0.1087213126	 0.278651
H	 0.0874327113	-5.3149005194	 1.4566905068	 0.263588
87.2725	126.438	147.021	156.3792	226.3879	290.1239	314.3472	390.0555	532.9614	586.6971	626.0495	634.7326	677.7832	690.4392	706.719	804.6774	844.6066	993.8212	1005.7694	1045.4328	1064.5983	1092.6049	1159.0049	1192.3272	1285.1584	1350.5004	1407.5086	1418.8652	1476.269	1481.2578	1501.51	1513.2133	1601.641	1613.9895	1774.0412	3027.0926	3076.1214	3126.7437	3243.1969	3600.3837	3646.8482	3745.6493
CC1=CN=C(N1)C(N)=O	Cc1cnc([nH]1)C(=O)N	
InChI=1S/C5H7N3O/c1-3-2-7-5(8-3)4(6)9/h2H,1H3,(H2,6,9)(H,7,8)	InChI=1S/C5H7N3O/c1-3-2-7-5(8-3)4(6)9/h2H,1H3,(H2,6,9)(H,7,8)
