17
gdb 21004	3.65214	1.75069	1.20355	2.3548	73.26	-0.1871	0.0346	0.2218	1004.295	0.142765	-360.06595	-360.057247	-360.056302	-360.099296	30.8	
C	-0.0493682703	 1.3913483651	 0.0791283725	-0.319528
N	 0.0458118242	-0.0464809788	-0.0131434355	 0.057758
C	 0.1000622845	-0.805026609	-1.1461426185	-0.112892
C	 0.0630101821	-2.1244733546	-0.7400166605	 0.094283
N	 0.0337412225	-3.2914149709	-1.5260728885	-0.610288
C	-0.0212574863	-2.0633900798	 0.6744081915	 0.327991
C	-0.0820405652	-3.2072517065	 1.6347802868	-0.505045
N	-0.033098496	-0.7970974966	 1.0968193257	-0.330938
H	 0.6003075818	 1.8574425245	-0.6668784221	 0.131547
H	-1.0766223536	 1.742076393	-0.0775050686	 0.134501
H	 0.2765303645	 1.6864708909	 1.0768822854	 0.155038
H	 0.1618308188	-0.357687207	-2.1258022951	 0.112935
H	 0.4278621288	-3.150955791	-2.4475561884	 0.239152
H	 0.519529359	-4.0613013902	-1.0822277457	 0.241737
H	 0.8160635106	-3.8369606515	 1.5822649079	 0.11448
H	-0.1664307906	-2.8294136219	 2.6558630211	 0.1401
H	-0.9424570548	-3.8563758658	 1.4335478118	 0.129168
74.0313	104.1481	149.0409	173.5518	235.9575	247.0753	289.9322	339.3576	497.233	613.5638	625.2579	640.6986	685.3042	726.3254	782.379	818.8046	1007.6897	1021.01	1063.6443	1082.5068	1106.9316	1147.174	1213.0255	1248.1575	1364.1078	1398.9649	1411.5599	1447.5446	1468.4415	1481.8065	1489.1859	1495.9375	1512.2638	1537.1029	1629.3259	1658.5843	3015.173	3026.8515	3063.3961	3095.0785	3129.1978	3152.9489	3253.4052	3527.2894	3615.7486
CN1C=C(N)C(C)=N1	Cn1cc(N)c(C)n1	
InChI=1S/C5H9N3/c1-4-5(6)3-8(2)7-4/h3H,6H2,1-2H3	InChI=1S/C5H9N3/c1-4-5(6)3-8(2)7-4/h3H,6H2,1-2H3
