24
gdb 122339	3.19299	0.70261	0.65308	2.2948	86.83	-0.2118	0.0772	0.289	1835.3079	0.215027	-405.514366	-405.503057	-405.502112	-405.55178	40.177	
C	 0.0337554092	 1.3017676304	 0.6626839653	-0.412743
C	 0.3202098537	-0.1630868592	 0.4049010782	-0.002469
C	 0.4554238435	-0.7513924493	-0.9657008601	-0.000493
C	 0.3029856013	 0.0561491839	-2.2378838686	-0.41788
N	 1.6146866305	-0.6619048454	-0.0686986819	-0.106366
C	 2.7116624968	 0.2579190031	-0.3461146473	-0.142922
C	 3.8153120145	-0.463597473	-1.1225720202	-0.163548
C	 5.031874076	 0.4171703825	-1.3715676617	-0.073502
O	 5.9733104399	-0.3387034205	-2.1192892493	-0.420607
H	 0.4920803092	 1.6235125771	 1.6046814172	 0.122261
H	 0.3977258483	 1.9635136058	-0.1251484634	 0.11804
H	-1.0464474869	 1.4586035402	 0.7551829059	 0.120171
H	-0.1117831272	-0.8080075793	 1.1715881966	 0.082713
H	 0.1141964238	-1.779884045	-1.0890800098	 0.084141
H	 0.5769183932	 1.1067293706	-2.1272084197	 0.119365
H	 0.9169285438	-0.3655934346	-3.0415219375	 0.126155
H	-0.7398528528	 0.022070571	-2.5715414832	 0.121458
H	 2.4152426705	 1.1657605434	-0.8948819856	 0.078358
H	 3.1037945201	 0.5961806894	 0.6219637372	 0.098284
H	 4.1207873381	-1.3582717534	-0.5706895033	 0.116194
H	 3.4279175213	-0.8060784743	-2.0892596142	 0.106412
H	 4.7313095943	 1.3275127175	-1.9172403008	 0.080198
H	 5.4591498936	 0.74451462	-0.4089748637	 0.082809
H	 6.7477042754	 0.2110140892	-2.2695868403	 0.283971
42.2052	73.4509	96.6399	117.7001	150.6494	155.119	214.5118	244.3194	266.1622	292.1148	333.3636	409.9876	467.6784	520.4573	560.9565	733.8084	762.8118	774.6228	836.7592	885.2722	957.8921	1015.8805	1022.3347	1037.8956	1055.0082	1066.3777	1085.8701	1121.4328	1157.2431	1169.9345	1184.8962	1195.5739	1227.8495	1241.0609	1305.1203	1310.527	1316.1638	1349.9383	1381.2056	1396.3794	1413.3657	1420.1596	1440.7511	1464.5278	1482.7966	1488.3562	1496.1683	1500.5555	1510.2122	1514.7307	1530.3859	2952.3487	2971.5272	2977.5444	3030.022	3034.5464	3038.1395	3045.985	3079.2867	3088.9345	3090.7368	3091.3624	3094.2302	3125.941	3136.7622	3829.5486
CC1C(C)N1CCCO	C[C@H]1[C@@H](C)N1CCCO	
InChI=1S/C7H15NO/c1-6-7(2)8(6)4-3-5-9/h6-7,9H,3-5H2,1-2H3	InChI=1S/C7H15NO/c1-6-7(2)8(6)4-3-5-9/h6-7,9H,3-5H2,1-2H3/t6-,7+,8?
