19
gdb 80246	2.38336	1.624	1.26458	4.4985	75.17	-0.2582	0.0156	0.2738	1081.4099	0.159866	-423.050528	-423.04241	-423.041466	-423.082882	31.518	
C	-0.1889312315	 1.5751204354	 1.035394393	-0.438788
C	-0.098496337	 0.1062173875	 0.6565900518	 0.01477
C	 0.9375384849	-0.3845109731	-0.38756459	 0.067452
O	 2.2002062033	 0.0959530876	 0.1696693963	-0.247698
C	 2.0751104205	-0.2583513874	 1.497072435	 0.449491
O	 2.9062694196	-0.0498531283	 2.3277520631	-0.355861
C	 0.7068542015	-0.9207571411	 1.5399129814	-0.216214
C	 0.8510220865	-1.8036521807	 0.2352730199	 0.024747
C	-0.2942053	-2.7326209407	-0.1408133229	-0.44332
H	 0.7950038628	 2.0167159286	 1.2120400109	 0.147841
H	-0.6752060154	 2.1460262128	 0.2372822232	 0.121384
H	-0.786401241	 1.7023656287	 1.9440252769	 0.125223
H	-1.0905522449	-0.2888526623	 0.433791152	 0.087533
H	 0.9069940966	-0.1637771446	-1.4532414846	 0.09042
H	 0.3713688154	-1.2982294292	 2.5028352338	 0.091695
H	 1.7991419354	-2.3458414951	 0.1666776526	 0.096634
H	-1.2796069378	-2.2659753102	-0.0711405133	 0.125607
H	-0.1675946405	-3.092203945	-1.1677560867	 0.127896
H	-0.2965912884	-3.6092278328	 0.5149311676	 0.13119
145.9616	177.8114	188.479	220.5004	236.4665	290.0747	349.1068	467.8172	516.0645	580.9411	670.0025	722.7911	742.6715	823.8015	842.0039	846.594	895.7324	925.9252	998.0585	1028.7882	1046.2185	1061.4148	1074.57	1108.0474	1114.4205	1134.2994	1174.9887	1191.3718	1242.7548	1255.8155	1272.3445	1321.4604	1387.0493	1400.3499	1415.9834	1423.4073	1492.1568	1494.9186	1499.0904	1502.2379	1909.5984	3039.0782	3039.2663	3061.6517	3097.0296	3099.5307	3100.8332	3121.3597	3127.882	3139.0924	3155.2278
CC1C2OC(=O)C1C2C	C[C@H]1[C@H]2OC(=O)[C@@H]1[C@H]2C	
InChI=1S/C7H10O2/c1-3-5-4(2)6(3)9-7(5)8/h3-6H,1-2H3	InChI=1S/C7H10O2/c1-3-5-4(2)6(3)9-7(5)8/h3-6H,1-2H3/t3-,4-,5-,6+/m1/s1
