20
gdb 22160	5.05751	0.51012	0.46873	0.8714	93.83	-0.2233	-0.0202	0.2031	2350.5598	0.16748	-403.096092	-403.084905	-403.083961	-403.134638	38.351	
C	-0.0372954807	 1.5749768177	 0.0243490107	-0.382301
C	 0.0102463062	 0.0462675585	 0.0016667995	-0.153705
C	-1.3975483824	-0.5834572296	 0.038187616	-0.347964
C	-1.378209727	-2.0399086101	 0.0174194698	 0.12779
C	-1.3176262239	-3.2456671835	-0.0012120102	 0.021829
C	-1.340411288	-4.6684450836	-0.0201436687	 0.197397
C	-2.6688367633	-5.3865345445	 0.0127307096	-0.474933
N	-0.2022001229	-5.2715334902	-0.0651412875	-0.161512
O	-0.3770830931	-6.6586866188	-0.0786569799	-0.395766
H	 0.9703681619	 2.0000726873	-0.0021498657	 0.116693
H	-0.5876448766	 1.9693546847	-0.8372227209	 0.11613
H	-0.5308544748	 1.9449009799	 0.9300421348	 0.11613
H	 0.5299784375	-0.3031233151	-0.8971353024	 0.113599
H	 0.586282757	-0.327371106	 0.8552573304	 0.113599
H	-1.9281243284	-0.2382716021	 0.9365657136	 0.128913
H	-1.9843815383	-0.2140492718	-0.8144038753	 0.128913
H	-2.7740060454	-6.0232060163	-0.8713376469	 0.148204
H	-2.7175742612	-6.0472458697	 0.8839818401	 0.148203
H	-3.4941574742	-4.6759521093	 0.0490088935	 0.128913
H	 0.5316648777	-6.9759289072	-0.1123159806	 0.309867
23.9981	59.1839	61.2949	71.6778	144.6045	164.1799	242.3259	276.806	307.442	317.3766	399.5002	422.6044	478.8287	524.5706	573.3398	586.648	742.7764	757.4271	870.8167	885.0659	947.6235	1034.4218	1042.431	1044.9306	1063.7587	1109.0923	1120.0317	1257.7298	1287.9113	1311.2192	1322.2548	1381.3509	1396.2721	1406.5071	1414.0219	1469.6596	1476.3037	1482.4477	1491.7632	1499.6878	1508.7254	1667.0102	2345.8394	3005.75	3030.4949	3031.6404	3044.7758	3047.5891	3075.5659	3101.6821	3105.322	3107.3596	3154.7887	3818.637
CCCC#CC(C)=NO	CCCC#CC(=NO)C	
InChI=1S/C7H11NO/c1-3-4-5-6-7(2)8-9/h9H,3-4H2,1-2H3	InChI=1S/C7H11NO/c1-3-4-5-6-7(2)8-9/h9H,3-4H2,1-2H3
