18
gdb 39268	2.54287	2.23963	1.57312	1.1629	70.09	-0.2151	0.0797	0.2948	885.8137	0.151181	-439.047256	-439.040685	-439.03974	-439.07781	27.667	
C	-0.0249658947	 1.4438407286	-0.0870759646	-0.425219
C	 1.3422863153	 0.7896274765	-0.0093630588	-0.031109
N	 2.186750286	 0.4364363825	-1.1258902584	-0.297202
C	 2.2920543376	-1.0376525886	-1.1778690509	-0.20171
C	 0.9191183681	-1.7344354511	-0.8989643995	 0.187151
O	 0.7580403677	-2.1324071137	 0.4746014868	-0.289626
C	-0.0266652593	-1.1045262327	 1.1180952867	-0.157712
C	 0.0683719615	-0.0314495657	 0.0694807801	 0.37326
O	-0.0909736513	-0.7752659318	-1.1307420988	-0.269227
H	-0.3163580594	 2.0510107184	 0.7630590141	 0.129043
H	-0.406104391	 1.7932168689	-1.041560943	 0.131686
H	 1.880326611	 0.9524413978	 0.9226537748	 0.096319
H	 1.7741684136	 0.7659008126	-1.9902900325	 0.227084
H	 2.6632368155	-1.3261184301	-2.1660287495	 0.10322
H	 3.0187039513	-1.3789450169	-0.4327999707	 0.118057
H	 0.7491860838	-2.6087850801	-1.53232187	 0.090179
H	-1.0462883225	-1.4695560443	 1.2903917344	 0.10551
H	 0.4365520068	-0.8315662205	 2.0703168495	 0.110294
186.1672	241.8743	343.7543	370.1409	403.7976	482.1266	556.3482	588.6268	675.1522	730.8191	785.1219	795.8885	848.5537	849.2011	869.8091	906.8214	931.0966	988.8996	992.434	1026.3343	1061.6488	1078.9691	1085.9658	1107.3439	1137.449	1181.1302	1190.2209	1216.3726	1268.9288	1315.7599	1330.9852	1339.4028	1357.1826	1378.5844	1412.4353	1470.3312	1482.9819	1487.7847	1518.663	3028.2304	3044.59	3081.7765	3091.4431	3097.8488	3121.0337	3132.2478	3220.3537	3547.9549
C1C2NCC3OCC12O3	C1[C@@H]2NC[C@H]3OC[C@@]12O3	
InChI=1S/C6H9NO2/c1-4-6(1)3-8-5(9-6)2-7-4/h4-5,7H,1-3H2	InChI=1S/C6H9NO2/c1-4-6(1)3-8-5(9-6)2-7-4/h4-5,7H,1-3H2/t4-,5-,6-/m0/s1
