12
gdb 133488	3.64744	0.69361	0.65206	2.5592	57.73	-0.2833	-0.0809	0.2023	1618.8011	0.070963	-566.969388	-566.960231	-566.959286	-567.00762	30.183	
C	 0.0278808612	 1.5031100404	-0.0253940891	-0.482345
C	-0.0516698043	-0.0022835446	 0.0666213857	 0.246473
O	-0.1296826634	-0.6154719954	 1.1056311078	-0.253579
C	-0.0287658561	-0.7104836781	-1.2132115105	 0.120472
C	-0.0101427634	-1.3006051576	-2.2612828644	-0.178394
C	 0.0106105625	-2.0189795551	-3.538623093	 0.270132
F	 0.117690819	-3.3377827302	-3.3555962398	-0.060182
F	-1.1122668546	-1.788716304	-4.228261936	-0.064972
F	 1.0448672202	-1.6238971847	-4.2897801887	-0.065479
H	 0.9484560814	 1.7989808762	-0.5402989276	 0.157145
H	-0.8080977525	 1.8869328761	-0.6203231344	 0.157087
H	 0.0036375601	 1.9313592269	 0.9773332599	 0.153641
2.8193	73.2578	87.5139	128.4486	181.614	253.2157	308.5081	439.9071	461.3006	500.6376	594.2701	600.2741	626.3099	629.4843	724.6143	891.6542	984.0141	1044.653	1191.1057	1196.6275	1205.6429	1269.0583	1385.1313	1458.4065	1466.0685	1783.2014	2361.7435	3039.7652	3103.6556	3156.4677
CC(=O)C#CC(F)(F)F	CC(=O)C#CC(F)(F)F	
InChI=1S/C5H3F3O/c1-4(9)2-3-5(6,7)8/h1H3	InChI=1S/C5H3F3O/c1-4(9)2-3-5(6,7)8/h1H3
