18
gdb 53969	2.94835	1.05929	1.01016	4.6665	73.3	-0.253	0.009	0.2621	1249.2246	0.145505	-439.091343	-439.081548	-439.080604	-439.125986	36.277	
C	-0.0244776792	 1.6434136248	 0.0273284052	-0.426934
C	 0.02392017	 0.1127144898	 0.0783849775	 0.092538
N	 0.7263920042	-0.4201025606	 1.2628829316	-0.564067
H	 1.4344949552	 0.2370115045	 1.5768085511	 0.24394
H	 0.07573535	-0.5408625029	 2.0342333403	 0.248738
H	 1.5591190172	-1.5396437861	 0.0345006928	 0.307087
C	-1.408995552	-0.4978330002	 0.0329115232	-0.365209
C	-2.2082198525	-0.1675472869	 1.2054069738	 0.289906
C	-2.8300642516	 0.097944565	 2.200196983	-0.437889
C	 0.7353024931	-0.4309713539	-1.1915133445	 0.429812
O	 1.580010529	-1.4364573014	-0.9456193937	-0.373369
O	 0.5085914381	-0.0094135255	-2.2950816424	-0.354883
H	 0.9836849016	 2.06152085	 0.1207879146	 0.117994
H	-0.4332954478	 1.9770430937	-0.9283499263	 0.151702
H	-0.6409903674	 2.0323791821	 0.8422166469	 0.127845
H	-1.8947918925	-0.1454213397	-0.8820311995	 0.163313
H	-1.3269508188	-1.5886037806	-0.052729155	 0.145133
H	-3.4066032163	 0.332611478	 3.0609963212	 0.204344
60.3334	90.3481	131.0585	211.1853	246.4212	282.9617	314.3103	328.7531	361.7229	381.4926	390.8115	480.4747	546.1237	629.2518	659.7184	665.8656	748.9789	769.8424	848.9669	891.7927	912.43	946.243	977.3059	982.6986	1079.946	1132.2723	1170.623	1244.5481	1271.2767	1317.4475	1341.335	1404.3638	1434.2768	1467.9864	1489.4309	1500.3162	1660.3177	1861.1663	2232.4218	3035.0831	3041.0703	3090.0156	3110.6304	3141.6846	3423.0908	3491.9211	3502.4649	3566.6236
CC([NH3+])(CC#C)C([O-])=O	C[C@@](N)(CC#C)C(=O)O	
InChI=1S/C6H9NO2/c1-3-4-6(2,7)5(8)9/h1H,4,7H2,2H3,(H,8,9)	InChI=1S/C6H9NO2/c1-3-4-6(2,7)5(8)9/h1H,4,7H2,2H3,(H,8,9)/t6-/m1/s1
