17
gdb 49245	3.02066	1.44295	1.07912	2.7351	76.15	-0.2516	-0.0608	0.1908	1097.2232	0.136887	-421.833574	-421.826082	-421.825137	-421.865947	28.16	
O	-0.0335440398	 0.0382595779	 0.2611052298	-0.271608
C	 0.0282841122	 1.2469485757	 0.19760366	 0.066837
C	 1.27361978	 1.9929349658	 0.0028577308	 0.242362
C	 1.3578036506	 3.3323875609	-0.0561569575	-0.147019
C	 2.7634163116	 3.8226986103	-0.2832942483	-0.279907
C	 3.6001879589	 2.5341720925	-0.2005001834	 0.111495
O	 4.0609063138	 2.2568801593	 1.1404837694	-0.292741
C	 3.3358171034	 1.0068912917	 1.1889933087	-0.076266
C	 2.6187024731	 1.3313556778	-0.1409715915	-0.181006
H	-0.885266666	 1.8767254087	 0.2832930286	 0.069919
H	 0.5070820918	 4.000732889	 0.0382908822	 0.112802
H	 2.8559655105	 4.3274676367	-1.2545892792	 0.118147
H	 3.0915344593	 4.5388400658	 0.4794087739	 0.13579
H	 4.4229062173	 2.4946131842	-0.9223158639	 0.076989
H	 4.0107228155	 0.1435139649	 1.1361226667	 0.104437
H	 2.7094869004	 0.9243638396	 2.0834122878	 0.112232
H	 2.6485859274	 0.5580031894	-0.9091520643	 0.097538
88.7349	139.5714	166.3212	261.9206	284.9958	378.1185	475.5052	535.5984	674.5842	746.676	795.7135	804.7674	840.1655	886.9432	908.161	966.617	991.5917	1004.6783	1029.7049	1040.9988	1059.7684	1077.5264	1159.2736	1171.7734	1182.5455	1220.3604	1263.0615	1280.2501	1317.2544	1336.7313	1358.4698	1382.5443	1420.9419	1451.5891	1524.1815	1671.2728	1782.6489	2881.9877	3018.0351	3020.0135	3050.3308	3065.2618	3075.4519	3109.8743	3183.9865
O=CC1=CCC2OCC12	O=CC1=CC[C@H]2OC[C@@H]12	
InChI=1S/C7H8O2/c8-3-5-1-2-7-6(5)4-9-7/h1,3,6-7H,2,4H2	InChI=1S/C7H8O2/c8-3-5-1-2-7-6(5)4-9-7/h1,3,6-7H,2,4H2/t6-,7+/m0/s1
