19
gdb 77739	2.30729	1.99411	1.35848	1.709	82.02	-0.2071	-0.0297	0.1773	1002.2429	0.158611	-385.789266	-385.781404	-385.780459	-385.820928	32.028	
C	 0.2198207379	 1.5420301739	-0.2868887176	-0.422556
C	 0.0221958361	 0.0582167261	-0.0403832961	-0.060861
C	 0.8687812403	-0.9886819949	-0.7782843768	 0.035005
C	 2.1245217711	-0.660293785	-1.1438092616	-0.107346
C	 3.1077675142	-1.1099512735	-0.0639340475	-0.262881
C	 2.1017258573	-1.3811154018	 1.0701458359	-0.108514
C	 0.8708442508	-1.9341480486	 0.4390809522	-0.166907
C	 0.661978304	-0.6828081785	 1.2109918262	 0.34238
O	 0.0835068717	-0.6246479039	 2.4694952169	-0.453048
H	 1.279836153	 1.8135973859	-0.2627394718	 0.112931
H	-0.1828582648	 1.8397592773	-1.2610105583	 0.124092
H	-0.305993787	 2.127226755	 0.4757587517	 0.1139
H	-1.0477191775	-0.1831304675	 0.010801405	 0.086077
H	 2.3538447154	 0.2003095371	-1.7650158943	 0.095204
H	 3.7166580356	-2.0035180154	-0.2681271992	 0.105343
H	 3.809207437	-0.2890898001	 0.1335170392	 0.103168
H	 2.4371596398	-1.7727347775	 2.0286002044	 0.081272
H	 0.4088423492	-2.9087867495	 0.5280271826	 0.095332
H	 0.4205834559	 0.1576327107	 2.9194562694	 0.287411
167.0869	200.9142	228.8905	253.6638	324.9636	356.6571	378.4319	440.5337	537.8614	560.714	617.7173	683.5797	725.0608	802.5127	837.5417	862.7876	889.1139	905.9361	930.522	955.0296	970.5904	1013.2616	1036.8508	1061.8582	1085.0859	1128.8963	1136.7686	1177.5031	1182.3499	1216.9438	1244.0963	1264.382	1289.1971	1314.4077	1376.6253	1406.4029	1421.1903	1480.1131	1488.7993	1496.5908	1596.7443	2987.9986	3019.2994	3029.6927	3038.2131	3093.6857	3104.7463	3135.6674	3169.5972	3196.7966	3798.3611
CC1C2=CCC3C2C13O	C[C@H]1[C]2[CH]C[C@@H]3[C@H]2[C@]13O	
InChI=1S/C8H10O/c1-4-5-2-3-6-7(5)8(4,6)9/h2,4,6-7,9H,3H2,1H3	InChI=1S/C8H10O/c1-4-5-2-3-6-7(5)8(4,6)9/h2,4,6-7,9H,3H2,1H3/t4-,6+,7-,8-/m0/s1
