20
gdb 73791	2.05307	1.77653	0.99142	5.3251	85.79	-0.2076	-0.0155	0.192	1204.3272	0.172062	-403.210399	-403.201372	-403.200427	-403.243781	34.696	
C	 0.0055104498	 1.5488654466	 0.0224433012	-0.528589
C	-0.0038884236	 0.0413243879	-0.0224483762	 0.109935
C	-1.169263804	-0.6670571849	-0.0012460142	 0.284073
N	-2.3886788821	-0.0568990785	 0.140439131	-0.562924
C	-1.2210086134	-2.174877805	-0.0557173268	-0.292057
C	 0.0410591198	-2.766423066	-0.6855629292	-0.224618
C	 1.2847761615	-2.171986917	-0.0257307094	-0.300459
C	 1.2904382246	-0.6437053907	-0.0486071097	 0.325753
O	 2.3525404592	-0.0377603854	-0.0612655225	-0.365466
H	 1.0353018941	 1.8959930573	-0.0739000023	 0.158403
H	-0.5827716846	 1.9927357909	-0.7926384724	 0.106269
H	-0.3961742615	 1.9399661815	 0.9668476028	 0.116137
H	-2.4393175228	 0.943682741	 0.0387632804	 0.26
H	-3.2118989249	-0.5591695271	-0.1482508713	 0.253148
H	-1.3495965869	-2.559885852	 0.9662495496	 0.125648
H	-2.114404291	-2.4887619435	-0.6114319429	 0.096792
H	 0.0315711642	-3.8574103063	-0.5930403983	 0.098272
H	 0.0504071146	-2.5360290948	-1.7576663603	 0.108136
H	 1.3327543616	-2.485534661	 1.02727447	 0.114571
H	 2.2092043654	-2.5137193033	-0.4978905998	 0.116975
99.8452	117.1035	158.4607	217.654	297.3127	311.53	353.573	383.8816	437.8849	448.2933	464.8248	537.1611	565.705	618.4107	646.8651	706.9128	864.2659	870.8546	895.7496	926.1189	1027.7718	1056.4937	1072.4584	1074.3647	1105.4454	1154.6132	1190.3071	1228.871	1272.7052	1302.9047	1341.3707	1357.4904	1382.1068	1388.0841	1419.148	1461.7374	1474.6636	1491.9791	1496.0421	1503.5589	1640.0687	1670.7433	1735.8034	3001.2368	3004.9689	3012.1308	3029.0911	3043.5632	3044.1348	3077.3673	3100.0823	3138.5144	3595.6213	3708.5758
CC1=C(N)CCCC1=O	CC1=C(N)CCCC1=O	
InChI=1S/C7H11NO/c1-5-6(8)3-2-4-7(5)9/h2-4,8H2,1H3	InChI=1S/C7H11NO/c1-5-6(8)3-2-4-7(5)9/h2-4,8H2,1H3
