15
gdb 43685	3.36511	1.19223	0.90279	4.0788	74.45	-0.2407	-0.0498	0.1909	1197.3211	0.114442	-416.852147	-416.844416	-416.843471	-416.884654	28.881	
O	-0.0274797547	-0.0893455677	 0.0843372404	-0.339447
C	-0.0077756303	 1.125311883	 0.0400574327	 0.350325
C	-1.320299171	 1.9278618574	-0.0025136305	-0.310758
C	-1.1548138525	 3.3146815995	 0.6446089284	-0.125416
N	-0.0132965034	 4.0012139092	 0.0431916653	-0.297877
C	 1.1414279473	 3.2817297273	-0.1008008321	 0.025513
C	 1.2024341556	 1.9288530509	-0.0642817707	-0.218599
C	-2.3621068739	 4.1356962152	 0.5039677478	 0.272149
N	-3.3135052835	 4.7830515276	 0.40569214	-0.304419
H	-1.6075531361	 2.0500444279	-1.0538188708	 0.148879
H	-2.1064500927	 1.3619249275	 0.4991762983	 0.148057
H	-0.9757993545	 3.1681846926	 1.7237231568	 0.137798
H	 0.0767839812	 4.9824506079	 0.2558796729	 0.266059
H	 2.0289259704	 3.8844849369	-0.2679212339	 0.135857
H	 2.1493559179	 1.4185026848	-0.1804409945	 0.111878
103.6999	135.8771	143.8925	282.391	364.4847	432.2408	434.7761	450.4754	534.0553	558.0187	571.9653	644.9428	744.3755	804.2753	840.4866	941.6805	974.0559	999.1639	1045.5072	1076.6232	1100.3031	1187.5152	1242.3933	1265.9643	1275.6014	1342.1489	1365.3654	1423.9128	1455.9698	1512.4457	1660.3126	1772.5183	2366.9951	2958.9775	3050.2716	3133.3243	3183.3047	3225.6136	3628.2189
O=C1CC(NC=C1)C#N	O=C1C[C@@H](NC=C1)C#N	
InChI=1S/C6H6N2O/c7-4-5-3-6(9)1-2-8-5/h1-2,5,8H,3H2	InChI=1S/C6H6N2O/c7-4-5-3-6(9)1-2-8-5/h1-2,5,8H,3H2/t5-/m1/s1
