19
gdb 89499	3.03401	1.40773	1.16937	2.2138	77.32	-0.2273	0.0123	0.2396	1115.5359	0.160175	-419.184769	-419.176528	-419.175584	-419.217146	32.52	
C	-0.1195000615	 1.4947263758	 0.0894396256	-0.385066
C	 0.078964138	-0.0143412597	 0.046706362	 0.056733
C	 0.8024584786	-0.5176685711	-1.2611509749	-0.287209
C	 1.47024197	-1.7965705183	-0.7534964286	 0.357394
O	 0.6653437829	-2.9108537907	-1.0716189959	-0.485391
C	 3.0100704267	-2.1200586562	-0.6336715299	-0.262984
N	 2.8277142072	-2.0944491046	 0.8662750512	-0.375672
C	 1.6247212051	-1.4090452875	 0.6948547675	 0.300757
N	 0.9634075645	-0.4471471846	 1.1860650456	-0.325908
H	 0.8459973003	 2.0101769341	 0.047082368	 0.112027
H	-0.7280911487	 1.8298042588	-0.75740262	 0.108221
H	-0.6195485308	 1.7927109569	 1.0148956638	 0.12431
H	-0.8979163036	-0.507470442	 0.1382189934	 0.088277
H	 0.1222542644	-0.7045686159	-2.095074355	 0.112891
H	 1.5433502445	 0.2284303645	-1.5671300811	 0.100079
H	 0.8723866073	-3.6201823189	-0.4523532697	 0.287496
H	 3.321880582	-3.092179697	-1.0229782156	 0.114047
H	 3.6692654591	-1.3268398775	-1.0012054166	 0.116441
H	 3.5444228339	-1.7306088361	 1.4840263399	 0.24356
102.1531	188.9832	235.3388	242.7563	290.8213	332.8934	357.513	380.9819	480.2458	532.7625	591.7537	615.1345	723.5338	771.4628	805.7382	844.0671	884.3581	898.2081	914.2078	952.2329	984.1596	1040.0782	1094.4778	1109.5172	1119.242	1135.9372	1162.1281	1202.9793	1261.1202	1269.957	1299.9959	1323.6418	1339.2505	1361.2906	1385.3659	1407.6975	1469.9049	1485.6265	1497.9301	1498.9052	1769.9942	3015.8645	3032.9769	3042.7046	3054.5161	3101.6665	3112.3885	3116.4333	3120.0607	3551.1106	3796.5484
CC1CC2(O)CNC2=N1	C[C@H]1C[C@@]2(O)CN[C]2[N]1	
InChI=1S/C6H10N2O/c1-4-2-6(9)3-7-5(6)8-4/h4,9H,2-3H2,1H3,(H,7,8)	InChI=1S/C6H10N2O/c1-4-2-6(9)3-7-5(6)8-4/h4,9H,2-3H2,1H3,(H,7,8)/t4-,6+/m0/s1
