20
gdb 107722	3.94801	1.1547	1.08581	2.554	78.74	-0.2382	0.0783	0.3165	1197.1989	0.170997	-403.084181	-403.07575	-403.074806	-403.117129	32.889	
C	-0.027368077	 1.5534699255	 0.1522740217	-0.510704
C	 0.0465131724	 0.0545824438	 0.043094812	 0.294289
C	-1.1935758962	-0.8585864894	 0.0975733748	-0.185171
N	-0.3457792502	-1.9777381077	 0.6224044893	-0.197333
C	 0.6689976263	-0.9813163481	 1.0738480273	-0.164745
C	 0.9806192835	-1.8307788838	-0.0986552214	 0.333709
C	 1.7706969156	-3.0985151374	-0.2028418916	-0.174295
O	 1.1591208662	-4.0220317561	-1.0892998121	-0.419389
C	 0.8873450646	-0.6499756138	-1.0625921542	-0.328943
H	 0.9704049965	 2.0000910831	 0.21976093	 0.12092
H	-0.5229045451	 1.9812545685	-0.7273454019	 0.123893
H	-0.5946065624	 1.862078008	 1.0372324613	 0.120227
H	-1.9082537783	-0.5738255502	 0.8754585221	 0.105093
H	-1.7267989218	-1.0688887259	-0.8378925248	 0.094706
H	 1.0626563312	-0.9236953956	 2.0812023837	 0.095658
H	 2.7684136967	-2.8962430456	-0.6068371515	 0.107773
H	 1.8968655619	-3.5283668447	 0.802838272	 0.093496
H	 0.2603846976	-4.1422268298	-0.7600703902	 0.290388
H	 0.4178831828	-0.7957968807	-2.0414957189	 0.09913
H	 1.8678191754	-0.1808797503	-1.1876007875	 0.101297
69.3471	130.6428	211.1489	247.8292	260.872	323.4915	391.4255	445.4173	455.931	482.5321	613.1973	664.0058	713.7315	769.854	824.3555	870.9068	903.775	926.6208	970.6421	981.3945	984.2772	1005.6419	1046.3184	1067.5149	1109.1198	1120.342	1141.5562	1167.656	1178.822	1212.1145	1225.8454	1265.5229	1299.2222	1357.0543	1366.5381	1402.3566	1416.5432	1443.9051	1488.4716	1494.0874	1494.8461	1495.0533	1516.4831	2986.679	3022.6493	3025.4284	3040.792	3072.8773	3088.3431	3090.1349	3094.7674	3098.2414	3190.736	3791.9893
CC12CN3C1C3(CO)C2	C[C@]12CN3[C@H]1[C@]3(CO)C2	
InChI=1S/C7H11NO/c1-6-2-7(4-9)5(6)8(7)3-6/h5,9H,2-4H2,1H3	InChI=1S/C7H11NO/c1-6-2-7(4-9)5(6)8(7)3-6/h5,9H,2-4H2,1H3/t5-,6+,7-,8?/m1/s1
