14
gdb 21118	5.16761	1.5756	1.21668	0.4121	71.17	-0.2323	-0.0584	0.1738	941.0939	0.10739	-378.688103	-378.681027	-378.680083	-378.719829	25.565	
C	 0.0303128429	 1.4346778907	 0.1014571625	-0.331452
N	 0.0197589531	-0.0181629481	 0.0440043238	-0.298387
C	 0.4943012654	-0.6134961505	-0.9888060386	 0.282076
C	 0.508981125	-2.0576882729	-1.0984082813	-0.210864
C	 1.0166353526	-2.6276459072	-2.1992396878	 0.099834
O	 1.5337530646	-1.9483990743	-3.2518519192	-0.238917
N	 1.5570129441	-0.5588748369	-3.2250264498	-0.061954
C	 1.0780061608	 0.0242005103	-2.1838132337	-0.024367
H	 1.0460894915	 1.8541815567	 0.0545521446	 0.119636
H	-0.5564716226	 1.8959578835	-0.706561408	 0.119619
H	-0.4113645842	 1.7527618963	 1.0489001255	 0.128277
H	 0.1109949988	-2.6605063022	-0.2926668031	 0.128188
H	 1.0752572125	-3.6942514147	-2.3810010579	 0.148552
H	 1.1375733954	 1.1060576392	-2.250203867	 0.139758
75.6197	114.8421	237.0189	240.4085	413.9838	455.6925	455.7214	548.8807	653.2808	732.7452	783.8965	840.0598	859.8219	949.5378	967.5312	1001.9752	1019.9049	1053.1037	1092.6818	1162.6089	1234.4145	1294.7376	1341.9685	1428.2649	1432.6887	1490.3359	1509.5503	1624.941	1664.6079	1712.9838	2981.5988	3032.5483	3102.4358	3189.0479	3209.126	3230.3438
CN=C1C=CON=C1	CN=c1cconc1	
InChI=1S/C5H6N2O/c1-6-5-2-3-8-7-4-5/h2-4H,1H3	InChI=1S/C5H6N2O/c1-6-5-2-3-8-7-4-5/h2-4H,1H3
