23
gdb 118982	2.94562	0.9969	0.93491	1.3019	87.93	-0.2291	0.0196	0.2487	1434.0739	0.204349	-388.306902	-388.296932	-388.295988	-388.342021	37.195	
C	 0.2631352613	 1.5326717581	-0.0813529194	-0.382806
C	 0.046576611	 0.0174769117	-0.0269935864	-0.172371
C	 0.6147671544	-0.6092906604	 1.2517164336	-0.181279
C	 0.556633477	-2.1525011277	 1.3052265506	 0.329228
C	-0.8816673128	-2.6883187102	 1.2413234106	-0.415157
O	 1.2926230829	-2.689370342	 0.1833916501	-0.306317
C	 2.4091004753	-3.4541187796	 0.622490947	-0.127712
C	 2.3466484505	-3.4136458365	 2.1231721098	-0.102485
C	 1.3055477757	-2.6860097304	 2.5054730597	-0.116989
H	 1.3295143503	 1.7823274573	-0.0454179172	 0.112794
H	-0.1478583684	 1.9610859756	-1.0010138954	 0.109725
H	-0.2205485269	 2.0349374283	 0.7643455721	 0.109569
H	-1.026329932	-0.1947545287	-0.1052194005	 0.093135
H	 0.5223301888	-0.460618573	-0.8899264835	 0.115284
H	 1.6665867688	-0.3162295333	 1.3584096195	 0.092545
H	 0.0901494814	-0.2079365826	 2.1298994031	 0.084236
H	-1.3493368832	-2.4280277576	 0.288691004	 0.127075
H	-0.8805679332	-3.7775595743	 1.3341967933	 0.115884
H	-1.4912874305	-2.2719335283	 2.0505208658	 0.107459
H	 2.3405413278	-4.4798586269	 0.2261930244	 0.1029
H	 3.3442495853	-3.0223086468	 0.2304445725	 0.101849
H	 3.0627807786	-3.9162230003	 2.7612503138	 0.103827
H	 0.9983328878	-2.4719749722	 3.5217269025	 0.099606
65.9168	88.5182	101.7128	155.9306	220.7309	248.9871	264.6439	311.4172	337.7294	380.0801	418.1641	528.4067	672.9242	739.9718	746.5002	780.3688	817.9804	854.7837	899.0281	909.7686	944.0647	958.4426	963.5818	1008.9402	1045.5871	1049.1173	1080.7291	1100.4674	1117.1512	1180.7918	1193.6783	1208.3604	1211.9879	1276.0917	1315.6427	1333.7059	1356.865	1378.9105	1391.803	1401.7285	1413.1579	1470.7185	1487.5227	1493.8822	1495.2671	1500.2374	1511.0452	1522.9069	1693.1937	2968.7915	2983.5765	3010.5915	3026.8604	3032.5787	3040.0829	3050.9681	3073.8168	3098.4862	3099.4924	3111.4052	3125.9965	3201.0633	3226.1459
CCCC1(C)OCC=C1	CCC[C@@]1(C)OCC=C1	
InChI=1S/C8H14O/c1-3-5-8(2)6-4-7-9-8/h4,6H,3,5,7H2,1-2H3	InChI=1S/C8H14O/c1-3-5-8(2)6-4-7-9-8/h4,6H,3,5,7H2,1-2H3/t8-/m1/s1
