21
gdb 118881	2.86318	1.15116	0.99858	2.5962	78.78	-0.2467	0.0835	0.3302	1303.8937	0.179849	-424.181352	-424.171905	-424.170961	-424.21581	35.404	
C	-0.0107059871	 1.5346438208	-0.1994802022	-0.381008
C	-0.0031448059	 0.023345415	-0.0352547552	-0.052278
O	 0.8049926681	-0.5225572865	-1.0637524088	-0.294562
C	 0.7607984173	-1.917828894	-1.2177470507	 0.415052
C	 1.3220677544	-2.6743676119	-0.0136818961	-0.458449
C	-0.5891843834	-2.5522595801	-1.7639576308	-0.3277
C	 0.2039789954	-3.016768675	-2.989919742	 0.035827
O	 0.7001974821	-1.8359753847	-3.6260408277	-0.242407
C	 1.4386371509	-2.3625934068	-2.5260760765	-0.021843
H	 1.0069421385	 1.9302518777	-0.1352217243	 0.126653
H	-0.4231879079	 1.8114405845	-1.1735293904	 0.1301
H	-0.6153186748	 2.0014619006	 0.5840925788	 0.11104
H	 0.3867666967	-0.2482126947	 0.9578515187	 0.088326
H	-1.0280074756	-0.3746774596	-0.1019235848	 0.088788
H	 0.6789287167	-2.5693088554	 0.8648693284	 0.122854
H	 1.408586314	-3.7424308039	-0.2356513904	 0.119472
H	 2.3166383398	-2.2919880049	 0.238022782	 0.124498
H	-0.9727510185	-3.3563809431	-1.1317650855	 0.102456
H	-1.3860734046	-1.8438350923	-1.9987451446	 0.113176
H	 0.069612368	-3.8992293741	-3.603930199	 0.10316
H	 2.4848505661	-2.5991183516	-2.687972119	 0.096848
59.2869	95.7247	137.148	204.2091	237.8026	251.9894	281.3003	334.0438	379.1654	419.1795	465.6639	569.9586	666.588	799.387	820.4388	830.162	862.0383	887.4841	897.6119	912.4154	961.6608	983.1081	996.7563	1041.4432	1089.0242	1124.0047	1137.3804	1155.9184	1180.8894	1188.2821	1219.1097	1238.7478	1259.5492	1298.1552	1300.2146	1384.7486	1399.199	1402.0866	1426.5946	1463.7646	1482.9437	1487.4138	1495.9777	1500.3237	1528.203	2973.4173	3001.8426	3036.8838	3044.6653	3068.9778	3109.436	3111.2232	3118.3147	3124.0054	3130.2523	3173.8332	3194.4689
CCOC1(C)CC2OC12	CCO[C@@]1(C)C[C@H]2O[C@@H]12	
InChI=1S/C7H12O2/c1-3-8-7(2)4-5-6(7)9-5/h5-6H,3-4H2,1-2H3	InChI=1S/C7H12O2/c1-3-8-7(2)4-5-6(7)9-5/h5-6H,3-4H2,1-2H3/t5-,6-,7+/m1/s1
