16
gdb 29879	3.28414	1.40519	0.99024	5.8924	78.27	-0.1981	-0.0103	0.1878	1140.6275	0.126241	-434.103911	-434.095805	-434.09486	-434.136682	30.272	
C	-0.0298326564	 1.4651977293	 0.0550773609	-0.338322
N	-0.0063086838	 0.0086811845	 0.0399900669	-0.133233
C	-0.0369837543	-0.7096275471	-1.1361684646	 0.095218
N	-0.0198025431	-1.9823511623	-1.2532732469	-0.336967
C	 0.0361823711	-2.7856241111	-0.0846908216	 0.336842
N	 0.0562068828	-4.0664437793	-0.1303939573	-0.553089
C	 0.0701554301	-2.0728026722	 1.1845844715	-0.31807
C	 0.0485503451	-0.7260147217	 1.2120784978	 0.477512
O	 0.0751383278	 0.0618464787	 2.3106349887	-0.426477
H	 0.8685175408	 1.8685621532	 0.5298432563	 0.152586
H	-0.0729174066	 1.8146966267	-0.9775726318	 0.142172
H	-0.9044047756	 1.8392813943	 0.5938984611	 0.152584
H	-0.0797823166	-0.0855307757	-2.0279059853	 0.124551
H	 0.0254959774	-4.3535054535	-1.1103863587	 0.207637
H	 0.113011537	-2.6470762824	 2.102095029	 0.101055
H	 0.1133699644	-0.5036395413	 3.0901110239	 0.316001
86.1443	126.7713	185.04	215.9293	327.0995	366.1186	400.556	451.7389	452.2603	553.502	584.5506	666.4625	721.6031	766.9198	802.1476	835.3809	888.128	911.5335	960.1116	1066.9814	1123.6911	1153.139	1182.198	1244.1639	1251.2647	1333.3025	1359.3713	1430.1387	1464.3302	1477.4971	1501.6773	1527.7562	1632.2633	1686.1832	1739.5776	3049.6722	3113.7412	3138.0071	3146.1484	3203.2569	3463.6706	3823.4322
CN1C=NC(=N)C=C1O	CN1C=NC(=C[C@@H]1O)[NH]	
InChI=1S/C5H7N3O/c1-8-3-7-4(6)2-5(8)9/h2-3,6,9H,1H3	InChI=1S/C5H8N3O/c1-8-3-7-4(6)2-5(8)9/h2-3,5-6,9H,1H3/t5-/m0/s1
