21
gdb 103646	3.32263	1.05016	0.99685	2.19	79.98	-0.248	0.0135	0.2615	1286.4828	0.181584	-424.231004	-424.221304	-424.22036	-424.265574	36.659	
C	 0.2818363576	 1.328854096	-0.0122279287	-0.42481
C	-0.0721748399	-0.1716260825	-0.0049781828	 0.261964
C	-1.5982006363	-0.3397738905	 0.032940799	-0.111901
O	-2.0974025623	 0.2987213729	 1.199624528	-0.426531
C	 0.5266540464	-0.9358676126	-1.2223272968	-0.313733
C	 1.7323539524	-1.7606901766	-0.6929778709	 0.102424
O	 3.0100476175	-1.23349455	-1.0576972318	-0.43743
C	 1.5214286562	-1.7483929677	 0.8018403046	-0.137833
C	 0.5819052821	-0.8785990956	 1.1684799417	-0.078889
H	 1.3653967732	 1.4733895473	-0.0672256485	 0.099188
H	-0.1690061891	 1.8269704113	-0.8782056947	 0.110342
H	-0.0873947199	 1.8217881196	 0.8901146718	 0.133797
H	-2.0341565842	 0.1017089643	-0.8785414833	 0.084924
H	-1.842497417	-1.4135115452	 0.0349251514	 0.085574
H	-3.0524636106	 0.1920298023	 1.2192497737	 0.289305
H	-0.2229545607	-1.6158666215	-1.6424548109	 0.095126
H	 0.8476615871	-0.2699888638	-2.0273080505	 0.105034
H	 1.7362914646	-2.7711554223	-1.1147667289	 0.08446
H	 3.1503623683	-0.4377234822	-0.5328558458	 0.274521
H	 2.1325532586	-2.3440351165	 1.4713914799	 0.096242
H	 0.2850398859	-0.6562714467	 2.1873934936	 0.108227
41.3781	119.6002	170.968	233.6564	236.3314	241.8144	306.3518	330.1123	344.8304	363.9219	406.1848	470.2366	579.2239	649.4466	753.8568	796.2814	820.0399	837.8978	917.4102	924.6397	958.2595	976.081	995.3538	1032.6091	1046.0616	1076.6934	1111.7056	1138.7078	1178.7782	1196.9491	1231.8049	1258.7727	1266.7881	1293.8571	1308.86	1331.9223	1375.1322	1399.9314	1429.5301	1450.7241	1478.2656	1486.4687	1501.0108	1517.0156	1680.1646	2959.6648	2997.3908	3030.6163	3039.0796	3058.2149	3095.4957	3101.5232	3126.1357	3184.3486	3210.2209	3801.5676	3836.2706
CC1(CO)CC(O)C=C1	C[C@@]1(CO)C[C@@H](O)C=C1	
InChI=1S/C7H12O2/c1-7(5-8)3-2-6(9)4-7/h2-3,6,8-9H,4-5H2,1H3	InChI=1S/C7H12O2/c1-7(5-8)3-2-6(9)4-7/h2-3,6,8-9H,4-5H2,1H3/t6-,7-/m0/s1
