15
gdb 18009	5.36188	1.51117	1.35463	2.4807	64.42	-0.2518	0.0057	0.2575	926.3052	0.11877	-399.755953	-399.748763	-399.747819	-399.787862	25.682	
C	-0.1696794025	 1.3858737474	-0.1946936181	-0.341623
N	-0.1180633673	-0.0682589286	-0.2475731333	-0.328989
C	-1.1223755358	-0.7336184885	 0.0721598758	 0.474615
O	-2.3815766753	-0.3255727627	 0.540260005	-0.285121
C	-2.8186415769	-1.7018307738	 0.6977627071	 0.05904
C	-3.4363919301	-2.2780867304	-0.5801741292	-0.095076
O	-2.1303504289	-2.6683504762	-1.0783425507	-0.283865
C	-1.4779122749	-2.2077184315	 0.1253707826	-0.051035
H	 0.6601839354	 1.7474709814	 0.4214116955	 0.131446
H	-0.0146802359	 1.7823671318	-1.2040900502	 0.134676
H	-1.1093319958	 1.7872154543	 0.2016461706	 0.128502
H	-3.2459841159	-1.8927955189	 1.6796747599	 0.108789
H	-4.0753044563	-3.1552763906	-0.4239696209	 0.114966
H	-3.9411332573	-1.5511577935	-1.2242742975	 0.124648
H	-0.7747818826	-2.9255847303	 0.5465431534	 0.109028
86.9077	107.6028	183.3851	208.4581	328.064	403.178	483.8306	683.3549	716.5302	802.1849	834.9579	874.4303	945.1372	980.4359	1007.6285	1023.8626	1054.5831	1069.5962	1100.5484	1131.1987	1160.1744	1171.851	1213.0211	1228.6084	1287.3304	1319.1496	1351.3027	1438.1212	1492.6366	1496.7697	1502.4474	1851.3575	3020.5824	3030.842	3088.264	3091.6073	3093.4415	3125.3057	3145.3081
CN=C1OC2COC12	CN=C1O[C@H]2CO[C@@H]12	
InChI=1S/C5H7NO2/c1-6-5-4-3(8-5)2-7-4/h3-4H,2H2,1H3	InChI=1S/C5H7NO2/c1-6-5-4-3(8-5)2-7-4/h3-4H,2H2,1H3/t3-,4+/m0/s1
