29
gdb 118220	3.26153	0.59875	0.58016	0.0981	100.47	-0.2907	0.0797	0.3704	2180.5016	0.272782	-354.781176	-354.768717	-354.767773	-354.8198	45.289	
C	-0.0639812183	 1.6703855218	-0.110404166	-0.377866
C	 0.0211428344	 0.1590661247	 0.1249589323	-0.177549
C	-1.3515081665	-0.5239357731	 0.0888565843	-0.156894
C	-1.332202585	-2.0601308676	 0.2200742674	 0.014377
C	-0.8304879176	-2.5105209654	 1.6000841863	-0.390508
C	-2.7341255864	-2.6209709148	-0.0940808007	-0.166585
C	-2.8959019817	-4.1533044175	-0.1242753967	 0.028056
C	-4.3681130661	-4.5202133664	-0.3609860939	-0.385813
C	-2.0009078332	-4.8176147421	-1.1801537327	-0.380288
H	 0.9260081546	 2.1366092246	-0.0824298936	 0.108954
H	-0.5110371653	 1.8952510768	-1.0852642406	 0.112173
H	-0.6815312367	 2.1555899841	 0.6538632146	 0.112681
H	 0.6689438789	-0.2936343384	-0.6378832426	 0.092079
H	 0.5117320266	-0.0250829938	 1.0880555582	 0.09745
H	-1.9880246406	-0.1032637989	 0.8814034781	 0.086579
H	-1.8421919909	-0.2614674598	-0.8586639529	 0.085646
H	-0.6314694823	-2.4404404492	-0.5368290161	 0.069461
H	-0.7623505353	-3.599925843	 1.6706463803	 0.113891
H	 0.1632828533	-2.1100805582	 1.8190476151	 0.112359
H	-1.5093846648	-2.1682580976	 2.3911374459	 0.108446
H	-3.4415164537	-2.2114632112	 0.6417154432	 0.08379
H	-3.0551662563	-2.2267659258	-1.0692200798	 0.083373
H	-2.6132778637	-4.5527316751	 0.8588909866	 0.073016
H	-4.5149289854	-5.6054092518	-0.3456605842	 0.106259
H	-5.0172449739	-4.0824862643	 0.4049206084	 0.107651
H	-4.711501815	-4.1531029453	-1.3358825409	 0.109489
H	-0.9373236275	-4.652349092	-0.9841610565	 0.113717
H	-2.1662933021	-5.8998714103	-1.2081009117	 0.107204
H	-2.2199258393	-4.4235964605	-2.1803369013	 0.108852
34.6296	65.9578	73.4681	114.856	119.6421	210.0061	226.5501	236.5805	248.2457	256.5498	286.4369	324.2564	356.9469	404.3895	416.8901	464.0369	531.602	742.7173	810.1618	827.8842	857.5032	883.183	900.6574	928.4885	947.1477	965.5797	980.2141	1002.8795	1042.8111	1060.1792	1082.1793	1101.1057	1167.1165	1183.0051	1191.9047	1199.0155	1251.0216	1281.0015	1291.7645	1323.236	1329.1613	1353.2375	1363.999	1382.6169	1388.8648	1394.8212	1400.4284	1410.6874	1415.2208	1422.036	1472.6017	1482.5076	1488.9131	1492.6348	1494.411	1499.3679	1500.1258	1503.7101	1506.1562	1510.614	1513.4243	2990.8677	2994.3932	3000.7747	3010.652	3017.4557	3020.9992	3025.7298	3026.9626	3028.093	3029.1212	3037.5937	3059.1203	3084.879	3091.5039	3094.9634	3095.737	3097.0373	3099.9288	3103.1318	3111.0313
CCCC(C)CC(C)C	CCC[C@@H](C)CC(C)C	
InChI=1S/C9H20/c1-5-6-9(4)7-8(2)3/h8-9H,5-7H2,1-4H3	InChI=1S/C9H20/c1-5-6-9(4)7-8(2)3/h8-9H,5-7H2,1-4H3/t9-/m1/s1
