17
gdb 14618	6.64531	0.69944	0.68583	3.4309	72.4	-0.2539	0.0274	0.2813	1602.263	0.140606	-363.8574	-363.84812	-363.847175	-363.893052	31.922	
O	 0.2971007968	 0.6649903965	-1.4718045833	-0.320178
C	 0.1531334086	 1.4236744978	-0.5370439356	 0.154121
N	 1.0874995191	 1.6820810549	 0.4182401325	-0.2794
C	 2.4174063814	 1.0962994963	 0.4052453635	-0.162536
C	 3.5130038685	 2.1148508062	 0.0712385805	-0.179807
C	 4.9125044209	 1.4684158579	 0.0695132345	-0.350453
C	 5.9755438363	 2.4224447269	-0.2194229237	 0.288074
C	 6.8333926859	 3.2296273846	-0.4581497928	-0.429588
H	-0.7813288836	 1.9919832896	-0.3580860171	 0.07469
H	 0.8603812345	 2.3578308006	 1.1305372666	 0.24689
H	 2.6199569949	 0.6301288243	 1.3783346119	 0.108095
H	 2.3899683674	 0.302165803	-0.3451126337	 0.152302
H	 3.3112297555	 2.5567928397	-0.9096103082	 0.1287
H	 3.4979500456	 2.9354243918	 0.7984816439	 0.104541
H	 5.1005886405	 0.9970035237	 1.0436334935	 0.12984
H	 4.9375993354	 0.6564891366	-0.6690705655	 0.139124
H	 7.6000285924	 3.9325245496	-0.670990197	 0.195584
23.1152	83.3923	93.9722	110.4324	205.5975	264.5072	323.871	346.3962	406.2134	520.729	545.0306	618.9283	638.5279	729.9515	770.0403	871.8873	939.3682	1003.8887	1027.8987	1041.641	1058.4881	1115.2453	1197.6635	1223.1954	1276.0853	1308.1525	1331.1919	1368.8228	1405.2673	1431.429	1473.9162	1481.7549	1501.8249	1535.5137	1807.5243	2240.571	2935.1747	3013.4492	3021.0837	3037.0507	3045.8346	3089.0417	3115.1775	3507.7957	3632.2714
O=CNCCCC#C	O=CNCCCC#C	
InChI=1S/C6H9NO/c1-2-3-4-5-7-6-8/h1,6H,3-5H2,(H,7,8)	InChI=1S/C6H9NO/c1-2-3-4-5-7-6-8/h1,6H,3-5H2,(H,7,8)
