21
gdb 117993	3.39311	0.72336	0.68769	2.699	79.57	-0.2666	0.0275	0.2941	1688.3404	0.181473	-420.41038	-420.39941	-420.398465	-420.446937	38.831	
C	-0.0925788933	 1.6348276122	 0.0195514799	-0.421935
C	 0.0281714152	 0.1038123567	-0.0198331376	 0.033955
C	 0.6989883601	-0.4190392399	-1.3003442039	-0.176184
C	-0.0556670573	-0.0808122978	-2.5814968719	-0.090536
O	 0.5910142023	-0.7665901902	-3.6432786256	-0.41899
C	 0.7831029387	-0.4423226072	 1.2228892552	-0.146895
N	 2.1452044625	 0.0898761449	 1.3126914828	-0.496312
C	-0.0064706723	-0.2067578613	 2.453644775	 0.261879
N	-0.5928009265	 0.0022841392	 3.4285708059	-0.330439
H	 0.8812736956	 2.1135481898	-0.1304277768	 0.124282
H	-0.7579204409	 1.9955668871	-0.7687280234	 0.126506
H	-0.5044333873	 1.97589599	 0.9748363605	 0.13615
H	-0.9843673818	-0.3176366441	 0.0368485574	 0.091983
H	 1.7212128304	-0.0349222993	-1.3678618066	 0.126481
H	 0.7789221109	-1.5120635292	-1.2501087988	 0.103052
H	-1.1095574345	-0.3944575482	-2.4886362189	 0.083395
H	-0.0533006219	 1.0056219123	-2.7566628103	 0.089012
H	 0.1564060133	-0.5253134777	-4.4663710741	 0.286424
H	 0.8677765983	-1.5288048739	 1.1049634083	 0.12851
H	 2.1203235731	 1.0676369213	 1.585826705	 0.243916
H	 2.6615128553	-0.3967403449	 2.0387101279	 0.245745
59.172	72.8401	109.6287	114.9673	182.8099	227.7724	250.2499	266.9386	279.8824	293.4436	321.8935	363.6961	416.5056	518.0204	594.969	654.8479	794.9444	816.6004	860.1927	910.2643	960.3837	982.5964	1024.4352	1043.8339	1076.8185	1089.7187	1150.2175	1182.8486	1207.4111	1244.4503	1246.7212	1296.9291	1311.281	1330.3663	1373.2454	1378.7681	1397.6157	1413.7254	1464.6545	1491.9705	1506.7911	1508.5631	1530.3928	1665.5042	2340.6472	2955.5716	2996.5313	3019.4903	3035.9774	3037.6286	3048.9022	3096.4135	3105.27	3116.6645	3504.0525	3580.9665	3830.2911
CC(CCO)C(N)C#N	C[C@@H](CCO)[C@@H](N)C#N	
InChI=1S/C6H12N2O/c1-5(2-3-9)6(8)4-7/h5-6,9H,2-3,8H2,1H3	InChI=1S/C6H12N2O/c1-5(2-3-9)6(8)4-7/h5-6,9H,2-3,8H2,1H3/t5-,6-/m0/s1
