18
gdb 23478	2.82593	1.31453	1.04672	2.1257	76.08	-0.2358	0.0081	0.244	1167.3385	0.146739	-439.008257	-438.999731	-438.998787	-439.041856	32.375	
O	-0.0441868909	 1.3200231363	 0.2683769121	-0.394475
N	 0.0559417773	-0.0802279159	 0.3764960593	-0.238824
C	-1.0149981549	-0.6368955228	-0.0054443837	 0.455444
C	-2.382774269	-0.1637379225	-0.4648169435	-0.334808
C	-2.8102119236	-1.6567149152	-0.5564423506	-0.022707
C	-2.4808877101	-2.3209663146	-1.919963939	-0.276996
C	-1.1361768761	-2.8591318919	-1.3348664261	 0.136308
O	 0.0675179479	-2.5091987677	-1.9691670999	-0.417833
C	-1.3894555902	-2.1004665828	-0.0059648894	-0.168458
H	 0.8183054671	 1.6076393521	 0.58585705	 0.305652
H	-2.9001091642	 0.4090359727	 0.3125640943	 0.124777
H	-2.4168776107	 0.4145752826	-1.3930233962	 0.121089
H	-3.7418597139	-1.9422191923	-0.0711873917	 0.072601
H	-3.1774002903	-3.0996984247	-2.2399774006	 0.098225
H	-2.3462986855	-1.6100437799	-2.740257551	 0.103016
H	-1.1935621367	-3.942900295	-1.1593267256	 0.069537
H	 0.1575085109	-3.0434492613	-2.7648145213	 0.284419
H	-1.2129987771	-2.6510916274	 0.9186389329	 0.083032
51.1621	91.4089	205.8956	252.1526	272.4125	337.4501	383.493	400.5118	440.8892	479.8333	613.9115	628.4173	718.7299	784.3553	830.33	837.5288	919.5409	923.7188	962.3602	981.9597	1021.8924	1062.0077	1064.7427	1114.1799	1135.3296	1164.241	1188.8707	1194.7687	1225.6948	1236.3281	1265.7756	1295.3154	1299.9247	1330.9087	1402.8454	1423.6683	1454.9398	1477.9458	1777.2455	2990.0585	3044.9804	3055.3252	3091.495	3104.4451	3108.9304	3127.9746	3815.9473	3819.0304
ON=C1CC2CC(O)C12	ON=C1C[C@H]2C[C@@H](O)[C@@H]12	
InChI=1S/C6H9NO2/c8-5-2-3-1-4(7-9)6(3)5/h3,5-6,8-9H,1-2H2	InChI=1S/C6H9NO2/c8-5-2-3-1-4(7-9)6(3)5/h3,5-6,8-9H,1-2H2/t3-,5+,6+/m0/s1
