19
gdb 95870	2.37625	1.34006	1.09378	2.6581	74.81	-0.2305	0.0307	0.2612	1168.5298	0.161734	-419.225769	-419.217266	-419.216322	-419.258801	32.567	
O	-0.0908601479	 1.4726531478	 0.0710949361	-0.429822
C	 0.0339731771	 0.0594571105	 0.0197299212	 0.110971
C	 0.7643787519	-0.4956223787	 1.2577059735	-0.195346
N	 0.7568813276	-1.9545216181	 1.3531324347	-0.279111
C	-0.5823948783	-2.5116169889	 1.2711011728	-0.171646
C	-1.3865644337	-2.0475736527	 0.0201657839	-0.169543
C	-1.3859819742	-0.5028392296	-0.0532751875	-0.211809
C	-0.8124390383	-2.6438544356	-1.1899766472	 0.270164
N	-0.3293563843	-3.1231572355	-2.1251153448	-0.333662
H	 0.7924717332	 1.8540486361	 0.0417280905	 0.285593
H	 0.5829335819	-0.2494557332	-0.8851644872	 0.084058
H	 1.804293809	-0.1485139881	 1.2719829788	 0.095404
H	 0.2752981699	-0.0828391193	 2.1506792411	 0.112196
H	 1.3457013497	-2.3605897775	 0.6323471616	 0.232729
H	-0.5198513262	-3.6028518375	 1.2955728543	 0.122645
H	-1.1470412895	-2.1921921588	 2.1563898336	 0.114166
H	-2.4198957637	-2.4055636743	 0.103145382	 0.124559
H	-1.9549820228	-0.118679392	 0.8016336904	 0.114323
H	-1.8827309716	-0.1510354244	-0.9613095579	 0.124131
102.4626	111.4761	201.3906	257.6882	279.8822	333.2428	346.4942	403.9914	414.1101	464.9386	529.1199	609.6649	708.9169	766.1862	782.9475	879.1848	885.6442	932.8973	950.3192	991.0379	1049.5362	1083.8067	1101.6535	1122.3241	1158.6276	1185.8899	1213.4147	1248.4285	1297.0015	1324.1324	1332.6832	1343.0242	1361.9735	1386.087	1394.9013	1442.7639	1474.8411	1480.1937	1495.3413	1497.1295	2348.4824	2968.7823	3016.2024	3027.9667	3038.6304	3049.2131	3065.4356	3096.5727	3100.3616	3517.7121	3818.196
OC1CNCC(C1)C#N	O[C@H]1CNC[C@@H](C1)C#N	
InChI=1S/C6H10N2O/c7-2-5-1-6(9)4-8-3-5/h5-6,8-9H,1,3-4H2	InChI=1S/C6H10N2O/c7-2-5-1-6(9)4-8-3-5/h5-6,8-9H,1,3-4H2/t5-,6+/m0/s1
