23
gdb 113263	4.36048	0.71856	0.68604	2.8743	87.52	-0.2419	-0.0192	0.2226	1731.5477	0.202717	-388.297892	-388.287119	-388.286175	-388.334413	38.776	
C	-0.2068785037	 1.5759100151	-0.4760783214	-0.369657
C	-0.0054379128	 0.1757140456	 0.1165372721	-0.210059
C	-1.3089009928	-0.5886251872	 0.2382972172	-0.025438
C	-1.8753021268	-1.3757484028	-0.9216707365	-0.330466
C	-1.405001398	-2.0987137226	 0.3266519594	 0.312815
C	-0.1540334777	-2.9579308525	 0.251840989	-0.462512
C	-2.4750793591	-2.6654730127	 1.2545314177	-0.341942
C	-3.0265964532	-3.9893357854	 0.7649222132	 0.165103
O	-3.1270245723	-4.9869934233	 1.4319159094	-0.243514
H	 0.7425837092	 2.1149660641	-0.5505523108	 0.111612
H	-0.6436172273	 1.5189299882	-1.4785940312	 0.118822
H	-0.8823268624	 2.1747511296	 0.1448205617	 0.114476
H	 0.7031949311	-0.3798114785	-0.5073123172	 0.096515
H	 0.4623315845	 0.262603048	 1.1061653692	 0.099022
H	-2.0500881634	-0.0614671974	 0.8372943146	 0.077447
H	-2.9389006681	-1.3143918622	-1.1287130946	 0.106763
H	-1.2600330646	-1.4683249954	-1.8117210467	 0.109855
H	 0.5741780321	-2.5646949583	-0.4607041201	 0.119256
H	 0.3361226087	-3.0279016493	 1.2299831676	 0.121843
H	-0.3987354446	-3.9790711935	-0.0626283808	 0.12512
H	-2.0974366922	-2.8054761643	 2.2731853908	 0.116734
H	-3.3219329699	-1.9662250737	 1.3036851222	 0.113996
H	-3.3510821664	-3.9795448615	-0.3020620848	 0.07421
54.3672	61.7116	88.2244	143.0828	155.2262	209.5388	237.1483	273.6361	295.5596	347.9371	362.7962	432.1993	483.8267	567.3328	699.0652	772.2264	799.1426	822.5535	888.7618	931.087	943.1605	965.9048	977.988	1029.3514	1048.3876	1060.4056	1079.5021	1111.066	1126.2648	1141.5605	1197.5285	1209.48	1258.747	1297.1357	1311.4243	1341.5575	1358.2765	1410.8533	1423.624	1424.7923	1429.0848	1454.5582	1480.6309	1492.4868	1495.4333	1499.5534	1504.1762	1508.7167	1832.5812	2858.4174	3012.6647	3019.6144	3028.9583	3032.3556	3060.4578	3080.2494	3082.8559	3099.7768	3106.0976	3113.9386	3120.559	3123.3477	3203.5434
CCC1CC1(C)CC=O	CC[C@H]1C[C@]1(C)CC=O	
InChI=1S/C8H14O/c1-3-7-6-8(7,2)4-5-9/h5,7H,3-4,6H2,1-2H3	InChI=1S/C8H14O/c1-3-7-6-8(7,2)4-5-9/h5,7H,3-4,6H2,1-2H3/t7-,8-/m0/s1
