23
gdb 121288	2.62555	1.09625	0.86704	1.0209	89.1	-0.2226	0.0356	0.2582	1446.8415	0.205413	-388.302152	-388.292161	-388.291217	-388.337467	36.436	
C	 0.3378918551	 1.5214075038	-0.1933914591	-0.228704
O	 0.2049278867	 0.1311127807	-0.0240169546	-0.229523
C	 0.6604619658	-0.6053207467	-1.1403004564	-0.056028
C	 0.4703934207	-2.1062790381	-0.8882551552	-0.103328
C	 0.9026199631	-2.9465061363	-2.1217095616	-0.235318
C	 2.2959684708	-3.5296991206	-1.7706249161	-0.247564
C	 2.3436091423	-3.3989444044	-0.2694414235	-0.16346
C	 1.3581601132	-2.6466889635	 0.2261387104	 0.338644
C	 1.1102824156	-2.3268720697	 1.6677439857	-0.490358
H	 1.3890632993	 1.8185816947	-0.3363137322	 0.103939
H	-0.2392601997	 1.8835512038	-1.0593463224	 0.102997
H	-0.0448703162	 2.0014410651	 0.7106963877	 0.12576
H	 0.0936489351	-0.3092575481	-2.0404202339	 0.08168
H	 1.7244792103	-0.3858417034	-1.3372932076	 0.084803
H	-0.5920747659	-2.2524808671	-0.6548252556	 0.074478
H	 0.1904250989	-3.7631895039	-2.2700570585	 0.103619
H	 0.9101810911	-2.3602088617	-3.0460668987	 0.091052
H	 2.4069941089	-4.5660048952	-2.1109579598	 0.098724
H	 3.111622209	-2.9671614933	-2.2473144603	 0.100222
H	 3.1199334381	-3.8620760052	 0.3318775597	 0.078883
H	 1.8570844405	-2.7953375304	 2.3152597338	 0.110047
H	 1.1168417472	-1.245897143	 1.834508781	 0.141062
H	 0.1187206602	-2.6794573674	 1.9808637372	 0.118373
56.7857	94.296	119.7729	164.2917	186.7305	235.3114	240.0607	270.1582	311.4847	377.9067	412.3836	592.2313	605.6552	697.08	811.6988	818.8662	848.5605	915.5885	944.2841	969.8025	1005.6858	1035.5504	1040.1536	1054.4591	1076.058	1105.1931	1155.3329	1169.4335	1182.6757	1194.8622	1228.6917	1246.743	1259.6112	1279.6855	1300.8924	1326.3371	1339.5085	1373.8207	1411.3469	1414.7622	1473.8944	1481.1151	1485.3832	1485.6597	1493.6507	1501.4954	1504.2761	1526.202	1722.0827	2940.1144	2969.1353	2971.1714	3001.9393	3011.6306	3020.6682	3024.3756	3042.3548	3054.5371	3082.8716	3091.9142	3111.9737	3118.2015	3177.5306
COCC1CCC=C1C	COC[C@H]1CCC=C1C	
InChI=1S/C8H14O/c1-7-4-3-5-8(7)6-9-2/h4,8H,3,5-6H2,1-2H3	InChI=1S/C8H14O/c1-7-4-3-5-8(7)6-9-2/h4,8H,3,5-6H2,1-2H3/t8-/m1/s1
