13
gdb 44411	3.88793	1.539	1.49969	3.3455	62.86	-0.2677	-0.0568	0.2109	870.9609	0.088158	-456.424395	-456.418055	-456.417111	-456.454997	25.363	
O	-0.1253705089	 0.0468893185	-0.376410183	-0.291379
C	-0.0600842195	 1.1692891071	-0.026478284	 0.386424
O	-1.1319080121	 2.0519112174	 0.287569205	-0.274499
C	-0.1649978769	 2.895719436	 1.0525192512	 0.100475
C	 0.7791204175	 4.1758030383	 0.9337500655	-0.076992
O	 1.8756898276	 3.1553789055	 1.0923884074	-0.346531
C	 0.9254283252	 2.36507247	 0.2100798245	 0.154402
C	 0.917777828	 3.2435387628	-1.0570332715	-0.115146
C	 0.822594539	 4.4723585879	-0.5523141566	-0.045976
H	-0.1916892763	 2.5522203494	 2.0856644498	 0.131664
H	 0.815634624	 4.9565612627	 1.6913497216	 0.107498
H	 0.9819443943	 2.8803394042	-2.0712194604	 0.135987
H	 0.7856270879	 5.4421018703	-1.0246631594	 0.134072
136.3573	252.0068	275.8755	420.3871	540.9636	546.6301	568.498	674.6632	693.0483	708.4017	734.2464	787.1535	822.3048	855.2237	887.0691	914.6635	932.0027	960.0275	1020.6754	1035.4167	1084.559	1122.9124	1164.8644	1244.0481	1259.4036	1309.3662	1379.7932	1620.5196	1956.8042	3124.5973	3150.8326	3243.3917	3270.3499
O=C1OC2C3OC12C=C3	O=C1O[C@@H]2[C@H]3O[C@@]12C=C3	
InChI=1S/C6H4O3/c7-5-6-2-1-3(9-6)4(6)8-5/h1-4H	InChI=1S/C6H4O3/c7-5-6-2-1-3(9-6)4(6)8-5/h1-4H/t3-,4+,6+/m0/s1
