14
gdb 30892	2.56295	1.40945	0.95369	1.7558	61.29	-0.1963	0.0319	0.2282	1167.4835	0.09987	-510.975804	-510.967233	-510.966289	-511.009505	30.43	
C	-0.3329480188	 1.2271522883	 0.0185785761	-0.251104
O	 0.6984311985	 0.2324864077	 0.1222737515	-0.25855
C	 0.8688191657	-0.5250365326	-0.9585488261	 0.272987
C	 0.5769861192	-1.7996470692	-1.3017681848	 0.215737
O	-0.1019329029	-2.7189886292	-0.5870286612	-0.431397
N	 1.0908165534	-2.0909424488	-2.5617702729	-0.461874
C	 1.6568890314	-0.9795583645	-2.9133296855	 0.485246
O	 2.2980141831	-0.7097814368	-4.0484940988	-0.396504
O	 1.5921367065	 0.0221269186	-2.0419229092	-0.201787
H	-0.0797364153	 1.9700822315	-0.7452634648	 0.133294
H	-1.2933448003	 0.7602927133	-0.2254450745	 0.128751
H	-0.3914819346	 1.7109327699	 0.9947886952	 0.137495
H	-0.0973834759	-3.5308730546	-1.1068924127	 0.305812
H	 2.26959753	-1.5136129536	-4.5830005722	 0.321894
61.5434	135.845	139.0714	238.829	262.364	295.9545	317.6811	352.8616	424.4956	482.5286	592.9425	639.6199	659.9079	689.1517	747.0485	829.0339	1010.7411	1044.4511	1084.1426	1160.1105	1169.9977	1210.172	1220.0493	1354.3179	1398.5754	1481.2277	1486.6894	1499.7851	1509.4325	1653.1138	1790.9485	3025.6475	3099.2126	3143.3194	3808.4259	3818.5596
COC1=C(O)N=C(O)O1	COc1c(O)nc(O)o1	
InChI=1S/C4H5NO4/c1-8-3-2(6)5-4(7)9-3/h6H,1H3,(H,5,7)	InChI=1S/C4H5NO4/c1-8-3-2(6)5-4(7)9-3/h6H,1H3,(H,5,7)
