15
gdb 25267	3.13377	1.75563	1.14102	3.5742	72.18	-0.237	-0.0399	0.1971	996.2867	0.11622	-416.886593	-416.87985	-416.878906	-416.918308	25.474	
O	 0.0145718514	-0.0452631672	 0.0026626967	-0.327146
C	-0.033054663	 1.1531274777	 0.0103800005	 0.421913
C	-1.2627216694	 2.0692196606	 0.0321495917	-0.343151
C	-0.7405458624	 3.5337105538	 0.0320229844	-0.364789
C	 0.7517689616	 3.3632970458	 0.0094953215	 0.310105
C	 1.9445351852	 4.0208469154	-0.0045098958	-0.212881
N	 2.9950268875	 3.1075606711	-0.0246769141	-0.265204
C	 2.4502836999	 1.9192968323	-0.0230147505	 0.006516
N	 1.0779558757	 2.0159729223	-0.0019371679	-0.083564
H	-1.8833006212	 1.8361197495	-0.8371873949	 0.153073
H	-1.8584686598	 1.8274273553	 0.9163509264	 0.153001
H	-1.1007097934	 4.0901221957	-0.8384837875	 0.137438
H	-1.0752802409	 4.0812632244	 0.9181550642	 0.137426
H	 2.1344061407	 5.0827391892	-0.0018527212	 0.119695
H	 2.9618719081	 0.9701738242	-0.0354450234	 0.157569
71.3334	141.6462	239.7429	305.8668	533.5274	548.5235	627.2723	645.8793	658.8548	670.0614	737.2233	818.866	826.3263	854.4912	946.4405	982.3769	1027.983	1047.8605	1109.9172	1154.0536	1163.7199	1237.2447	1238.0008	1251.2258	1277.9081	1314.0323	1393.9425	1399.3168	1458.2196	1494.7589	1500.5675	1610.8564	1863.3167	3054.5322	3075.7344	3083.61	3117.0354	3258.5928	3273.754
O=C1CCC2=CN=CN12	O=C1CCc2cncn12	
InChI=1S/C6H6N2O/c9-6-2-1-5-3-7-4-8(5)6/h3-4H,1-2H2	InChI=1S/C6H6N2O/c9-6-2-1-5-3-7-4-8(5)6/h3-4H,1-2H2
