25
gdb 84877	2.01166	1.65531	1.24928	0.1181	93.33	-0.2359	0.0328	0.2687	1193.4838	0.229655	-352.385249	-352.375767	-352.374823	-352.41831	38.496	
C	-0.1730577782	 1.5348776658	-0.0692134854	-0.409274
C	 0.0325726779	 0.0063181607	-0.0074552571	-0.020591
C	 0.7347123254	-0.451067639	-1.2667364098	-0.061281
C	 1.9880041714	-0.8998690807	-1.3191211144	-0.048284
C	 2.8645318355	-1.0421675792	-0.1055897484	-0.271502
C	 2.2826741903	-0.3068807578	 1.109824288	-0.214965
C	 0.7591971721	-0.5142164308	 1.2725660515	 0.272111
C	 0.283562223	 0.2218074539	 2.5359775996	-0.431401
C	 0.440340579	-2.0139568453	 1.4454605581	-0.418735
H	 0.7783239699	 2.070975759	 0.0086214248	 0.117288
H	-0.6239079673	 1.8145417342	-1.0272132988	 0.109471
H	-0.8356916999	 1.8912300047	 0.7239286162	 0.113191
H	-0.9730294217	-0.4409252049	-0.008432708	 0.067759
H	 0.1583714619	-0.3671751786	-2.1866329938	 0.078292
H	 2.4125081269	-1.2005639765	-2.2745805155	 0.079407
H	 3.0012165571	-2.1098538792	 0.121506098	 0.107414
H	 3.8716912593	-0.6650676261	-0.3245790339	 0.098966
H	 2.7957955235	-0.6276652915	 2.0244438967	 0.085537
H	 2.4832499691	 0.7667091556	 1.0058500282	 0.094563
H	 0.5722178167	 1.2768732789	 2.5314118359	 0.110871
H	-0.8063041218	 0.1708977506	 2.6419180874	 0.105674
H	 0.722941589	-0.2362572786	 3.4291763893	 0.105555
H	 1.021419543	-2.4452283906	 2.2684669853	 0.103424
H	-0.6204087005	-2.1562658295	 1.6800534016	 0.105578
H	 0.6572358686	-2.585704195	 0.5394805643	 0.120932
117.6165	190.6202	235.9531	244.1869	260.3502	269.7103	315.6024	325.6613	356.07	386.8863	441.7867	477.711	511.4346	540.1849	675.4583	722.5659	771.1357	821.5534	870.0358	920.3466	931.8533	950.552	958.0963	1001.8245	1009.1179	1017.3844	1046.2601	1061.622	1082.9056	1110.9571	1150.4486	1177.8922	1204.3251	1249.0763	1267.5227	1290.2873	1327.5482	1354.3047	1364.0725	1380.1711	1396.7848	1402.3763	1415.0749	1428.3475	1473.113	1481.797	1487.187	1493.8573	1502.1768	1505.2652	1506.2366	1517.4424	1723.822	2983.7379	2999.192	3019.8171	3022.9328	3029.7952	3035.694	3038.2176	3060.4531	3084.3364	3090.4511	3097.1495	3103.3962	3115.4401	3116.0735	3129.5313	3156.0455
CC1C=CCCC1(C)C	C[C@H]1C=CCCC1(C)C	
InChI=1S/C9H16/c1-8-6-4-5-7-9(8,2)3/h4,6,8H,5,7H2,1-3H3	InChI=1S/C9H16/c1-8-6-4-5-7-9(8,2)3/h4,6,8H,5,7H2,1-3H3/t8-/m0/s1
