20
gdb 47932	2.1625	1.6269	1.12287	3.9082	75.09	-0.2219	0.0106	0.2325	1139.9473	0.173618	-440.306307	-440.297944	-440.296999	-440.339472	32.093	
O	-0.0933498462	 0.0493442692	 0.7120240434	-0.326267
C	-0.0550749632	 1.150271114	 0.2277203596	 0.385507
C	-1.3390283584	 1.9758532161	 0.0274154085	-0.283032
N	-1.9695525211	 1.824196541	-1.2799846372	-0.275198
C	-1.3710862342	 2.4805698376	-2.4410326012	-0.163706
C	 0.0102404588	 1.9767674285	-2.9289346809	-0.202847
C	 1.2393465353	 2.7177974473	-2.3764604361	-0.202353
C	 1.2800525881	 2.886657414	-0.8593765274	-0.073513
O	 1.1451516102	 1.6354117485	-0.1771749913	-0.219449
H	-2.0278464876	 1.5903009445	 0.7830752099	 0.135194
H	-1.1975793955	 3.0413581175	 0.2279810822	 0.11959
H	-2.1157372399	 0.8381886938	-1.4699104793	 0.228376
H	-2.0916964245	 2.3595144174	-3.2573979009	 0.110528
H	-1.3306518409	 3.5588628395	-2.2358784456	 0.102754
H	 0.0911956012	 0.9069343541	-2.7013676357	 0.114847
H	 0.0470240896	 2.0513768565	-4.0220146089	 0.100996
H	 2.1444789334	 2.1910905045	-2.6994064562	 0.11499
H	 1.2918782255	 3.7248527711	-2.8115219334	 0.103219
H	 2.2534335686	 3.2780728079	-0.5507877359	 0.121892
H	 0.5241183109	 3.599513157	-0.5208252236	 0.108474
65.8638	130.4586	191.4844	228.3094	272.	342.7296	386.8999	457.3789	479.1222	502.604	573.0651	689.1153	720.0646	763.6471	799.8413	834.2071	896.7289	926.9938	959.9731	1018.677	1028.3606	1068.4282	1104.2814	1137.0855	1157.8208	1175.6305	1225.9689	1269.7821	1286.0342	1319.1988	1347.0105	1362.8912	1377.5272	1387.0548	1400.1292	1417.5856	1468.6548	1472.9617	1479.8388	1484.7492	1513.2773	1520.7403	1825.0176	3018.4355	3022.0527	3029.3075	3054.9224	3061.3419	3066.9236	3068.4124	3074.6521	3103.9809	3114.2296	3526.0812
O=C1CNCCCCO1	O=C1CNCCCCO1	
InChI=1S/C6H11NO2/c8-6-5-7-3-1-2-4-9-6/h7H,1-5H2	InChI=1S/C6H11NO2/c8-6-5-7-3-1-2-4-9-6/h7H,1-5H2
