12
gdb 23784	4.04112	1.84592	1.2679	6.2667	59.98	-0.2357	-0.0393	0.1964	854.228	0.084892	-418.829038	-418.822704	-418.82176	-418.859363	24.332	
N	-0.0127044643	 1.3995381409	-0.1309856649	-0.592788
C	-0.0338303419	 0.0313384636	-0.0486359976	 0.362739
C	-1.2068287583	-0.713068136	-0.0259981106	-0.352527
C	-1.0516714174	-2.0929976413	 0.0072749876	 0.384697
F	-2.1473578731	-2.8424430114	 0.0296070357	-0.066498
N	 0.0858166021	-2.7543976172	 0.0230631531	-0.267258
N	 1.2148517085	-2.0376174577	 0.0043684522	-0.194578
C	 1.166128024	-0.7195507042	-0.0306070045	-0.02659
H	 0.8425484672	 1.8685511712	 0.1202372142	 0.26525
H	-0.8508413535	 1.9003780022	 0.1169836116	 0.263356
H	-2.1935774661	-0.2655617938	-0.0351095701	 0.11532
H	 2.1288027928	-0.2141283562	-0.0461060968	 0.108877
206.7166	233.6769	322.1532	394.6192	418.9121	473.2921	480.9442	536.8455	573.7693	668.218	761.2034	775.2277	872.4861	909.0507	1004.7376	1021.2848	1080.3105	1170.9661	1215.5326	1277.5596	1388.7841	1446.192	1492.162	1590.2143	1632.2077	1663.069	3157.4491	3200.2714	3593.3223	3701.9817
NC1=CC(F)=NN=C1	Nc1cc(F)nnc1	
InChI=1S/C4H4FN3/c5-4-1-3(6)2-7-8-4/h1-2H,(H2,6,8)	InChI=1S/C4H4FN3/c5-4-1-3(6)2-7-8-4/h1-2H,(H2,6,8)
