16
gdb 131488	3.90402	1.21892	1.05565	3.3321	71.13	-0.2316	-0.0031	0.2285	1123.994	0.126839	-434.074465	-434.067059	-434.066115	-434.106718	28.419	
O	 0.1080303204	 1.4310006701	 0.1785143783	-0.426434
C	 0.0162669625	 0.0526365475	 0.0785612848	 0.142459
C	-0.4710679841	-0.8049024372	 1.2025300258	-0.33365
C	-1.3346414386	-0.6557801398	-0.0522593285	-0.182429
C	-2.5632528478	 0.1446133695	-0.0105281726	 0.400582
N	-2.6692733255	 1.2691724886	 0.6968279576	-0.325639
N	-3.9277270599	 1.6834831332	 0.4048636005	-0.175458
C	-4.5145767412	 0.8127771359	-0.4353182408	 0.020258
N	-3.68679997	-0.1711291854	-0.7250760819	-0.314793
H	-0.739296835	 1.7666672441	 0.5140969035	 0.298223
H	 0.8162243491	-0.3353957974	-0.5441352317	 0.10881
H	-0.0073395318	-1.7694001257	 1.380105845	 0.115428
H	-0.8315256631	-0.2955457236	 2.0901331751	 0.128217
H	-1.4021811312	-1.5020317218	-0.724811503	 0.106306
H	-4.2913661568	 2.5253402904	 0.8197482743	 0.28592
H	-5.5244886371	 0.9316724117	-0.7982961764	 0.152202
68.7682	151.2288	189.1779	323.1772	380.0214	457.79	462.4309	515.4976	540.5536	673.0056	698.7258	766.6859	794.3863	833.5089	861.3682	929.8455	994.4686	999.5874	1024.9771	1051.6678	1066.1364	1112.8341	1121.588	1147.2782	1184.557	1231.4135	1249.388	1315.4041	1367.4783	1387.7685	1459.6989	1474.9363	1488.0341	1515.6626	1548.6217	3129.4318	3162.658	3189.5508	3224.0342	3259.4826	3654.5412	3668.4884
OC1CC1C1=NNC=N1	O[C@H]1C[C@H]1c1n[nH]cn1	
InChI=1S/C5H7N3O/c9-4-1-3(4)5-6-2-7-8-5/h2-4,9H,1H2,(H,6,7,8)	InChI=1S/C5H7N3O/c9-4-1-3(4)5-6-2-7-8-5/h2-4,9H,1H2,(H,6,7,8)/t3-,4+/m1/s1
