15
gdb 29926	2.03874	1.95275	1.00371	3.9122	77.17	-0.2175	-0.0167	0.2008	1109.8938	0.113544	-416.859536	-416.851019	-416.850075	-416.893605	30.423	
C	-0.0605756945	 1.4393990885	 0.0542757935	-0.343758
N	-0.0177318506	-0.008120365	 0.0027162774	-0.068269
C	-0.044012505	-0.7800409789	-1.1130003396	-0.077166
C	 0.0171225817	-2.1169021229	-0.762190342	-0.252483
C	 0.0842187758	-2.1593353526	 0.6441982764	 0.274501
O	 0.1557238476	-3.2916969369	 1.3741472526	-0.430063
C	 0.0624739994	-0.844438612	 1.1132667335	 0.078057
C	 0.1094490787	-0.39426257	 2.4402215382	 0.175002
N	 0.1501629103	-0.0649787317	 3.5544364295	-0.380071
H	 0.8436881514	 1.8404311444	 0.5222151241	 0.156505
H	-0.1311384562	 1.8227341092	-0.9646226708	 0.145478
H	-0.9295066507	 1.7833851075	 0.6233976723	 0.156918
H	-0.1047779785	-0.3230168385	-2.0884823564	 0.134412
H	 0.013729852	-2.9628029659	-1.4295324176	 0.119672
H	 0.1920288786	-3.0658919752	 2.3115998491	 0.311266
33.326	121.075	133.9028	176.6151	282.633	323.6388	380.7856	422.0248	520.1471	542.1994	593.5613	606.3348	686.591	693.7195	757.8545	773.5812	818.854	1029.3075	1082.3591	1106.1514	1152.652	1162.4519	1272.5137	1298.9719	1399.198	1426.9761	1456.8085	1478.6455	1492.4199	1528.6623	1564.0125	1593.5643	2308.8043	3042.8116	3103.9152	3146.0563	3255.0498	3277.5712	3794.4861
CN1C=CC(O)=C1C#N	Cn1ccc(O)c1C#N	
InChI=1S/C6H6N2O/c1-8-3-2-6(9)5(8)4-7/h2-3,9H,1H3	InChI=1S/C6H6N2O/c1-8-3-2-6(9)5(8)4-7/h2-3,9H,1H3
