16
gdb 128749	6.75535	0.72966	0.66675	1.63	79.75	-0.2091	-0.0017	0.2074	1621.5264	0.125109	-434.074089	-434.065442	-434.064498	-434.108926	29.928	
C	-0.3354555524	 1.3208118325	-0.0159915192	-0.249925
O	 0.4959546838	 0.1745184305	 0.1226899801	-0.191291
C	 0.6825746386	-0.5491717147	-0.9951070015	 0.109704
N	 1.3306082918	-1.6327377633	-0.9425124985	-0.326652
C	 1.5799227258	-2.3461569405	-2.1125999119	 0.236142
C	 1.8815414412	-3.6975600131	-2.1522331251	-0.115482
N	 2.0693677529	-4.0086635017	-3.4563632411	-0.175356
N	 1.935731874	-2.9542780158	-4.2826009721	-0.22162
C	 1.6363343273	-1.9416631931	-3.4762821547	-0.074131
H	 0.0372798876	 1.9952579932	-0.796524872	 0.128385
H	-1.3701684539	 1.0389745604	-0.2450578598	 0.130689
H	-0.3092503409	 1.837000404	 0.9441454394	 0.148267
H	 0.2367109288	-0.1166219057	-1.9016776758	 0.086816
H	 1.9604527344	-4.4241490357	-1.360318702	 0.137315
H	 2.3069051689	-4.9041315598	-3.8467733629	 0.275519
H	 1.5014001624	-0.9539729972	-3.8924127331	 0.10162
37.3416	75.0169	110.6653	153.538	180.2251	316.9084	400.8773	407.9326	505.3457	513.8322	668.0502	700.6328	782.0308	797.1609	871.6891	942.5669	978.6721	1011.7787	1055.2448	1069.9573	1163.0958	1170.7318	1176.9259	1239.8813	1271.6252	1329.5111	1378.6663	1392.3693	1426.7246	1483.6813	1493.7369	1497.1807	1500.7758	1608.9059	1750.4934	3009.5836	3023.7175	3078.3888	3146.4166	3240.9697	3273.0788	3680.4073
COC=NC1=CNN=C1	COC=Nc1c[nH]nc1	
InChI=1S/C5H7N3O/c1-9-4-6-5-2-7-8-3-5/h2-4H,1H3,(H,7,8)	InChI=1S/C5H7N3O/c1-9-4-6-5-2-7-8-3-5/h2-4H,1H3,(H,7,8)
