20
gdb 8217	5.05653	1.0665	0.96845	2.4479	75.55	-0.241	-0.0078	0.2332	1267.6588	0.175663	-349.021331	-349.012376	-349.011432	-349.056096	32.009	
C	 0.0314463129	 1.4621420367	 0.2556632847	-0.472593
C	 0.1431529681	-0.0532106269	 0.2386937667	 0.386152
O	 1.1944117537	-0.6166318057	 0.4436496911	-0.293362
C	-1.141100115	-0.8225025677	-0.0535240024	-0.340255
C	-1.0016901633	-2.3285152023	 0.088637609	 0.080819
C	-0.871715034	-2.9510305977	 1.5069998595	-0.213199
C	-1.7727567135	-4.1225892758	 1.0316847576	-0.209759
C	-2.2508485429	-3.2251360337	-0.1424473385	-0.24644
H	 1.020632467	 1.9067402655	 0.3711709942	 0.141491
H	-0.4386457413	 1.8291160834	-0.6632473519	 0.134015
H	-0.6086549772	 1.7796013899	 1.0871369095	 0.139297
H	-1.9359182974	-0.4366686123	 0.6013188456	 0.109261
H	-1.4587018734	-0.553973376	-1.0729151082	 0.118657
H	-0.169250774	-2.6709287152	-0.5330806491	 0.085621
H	 0.1334154726	-3.1794040609	 1.8650449101	 0.109233
H	-1.3780635879	-2.3360082239	 2.2596409606	 0.088645
H	-1.1800406865	-4.9704344057	 0.6764154008	 0.10298
H	-2.5299575754	-4.4972118122	 1.7243493316	 0.093557
H	-3.1757483579	-2.6947680863	 0.1099608896	 0.092375
H	-2.3748182445	-3.6844297633	-1.1267497406	 0.093505
35.6922	75.6662	109.3629	122.0841	176.8237	316.7189	323.5512	415.6299	478.8079	565.6744	655.0544	762.1988	788.8898	821.2013	827.7422	899.9745	932.8126	940.9565	954.1467	978.892	993.7379	1069.4649	1123.1559	1150.7297	1177.0994	1201.5584	1218.9551	1252.6518	1256.7628	1265.5904	1276.8886	1294.3749	1341.9586	1382.6224	1397.4567	1444.5665	1464.861	1477.4243	1481.2193	1487.62	1512.8257	1808.6558	2999.1158	3027.5838	3036.3593	3040.2804	3043.799	3058.0707	3067.8137	3094.3972	3096.6407	3108.0528	3121.6631	3151.1803
CC(=O)CC1CCC1	CC(=O)CC1CCC1	
InChI=1S/C7H12O/c1-6(8)5-7-3-2-4-7/h7H,2-5H2,1H3	InChI=1S/C7H12O/c1-6(8)5-7-3-2-4-7/h7H,2-5H2,1H3
