15
gdb 46930	3.47176	1.42334	1.10623	3.866	61.2	-0.2863	0.0269	0.3132	1033.6249	0.113341	-494.899835	-494.892527	-494.891583	-494.932208	27.102	
O	-0.0100878057	 0.211877424	-0.7038040947	-0.336541
C	-0.0137325888	 1.1774244032	-0.0026798573	 0.472946
O	-1.2030336195	 1.6974782644	 0.3922474574	-0.263236
C	-1.4266943256	 2.8205684438	 1.2582944322	-0.107204
C	-0.7769517656	 4.0817547659	 0.7361905809	 0.030279
O	-0.0410053294	 4.8569002788	 1.684565896	-0.24132
C	 0.689796793	 4.1017737115	 0.7162745682	 0.030288
C	 1.387655865	 2.8589689665	 1.2200366058	-0.107209
O	 1.1712293365	 1.7298895388	 0.3599540874	-0.263238
H	-2.5142349609	 2.9113931737	 1.2846763996	 0.137302
H	-1.0822267569	 2.6116982317	 2.2741863677	 0.134727
H	-1.3287454257	 4.6597393882	-0.0017499776	 0.120588
H	 1.2053690602	 4.6943368374	-0.036157648	 0.120587
H	 2.4726297771	 2.9794268207	 1.216850581	 0.137303
H	 1.0767806464	 2.6411378414	 2.2448425616	 0.134728
76.2226	100.6163	255.8806	269.7092	360.9068	388.5572	467.965	524.3088	648.2897	680.1744	758.5679	774.0298	839.5405	843.5186	958.9977	981.134	1037.3506	1046.6755	1085.373	1122.6788	1144.995	1163.5348	1184.0011	1255.428	1263.1762	1279.4748	1373.0484	1399.9877	1413.705	1477.2662	1502.3144	1526.5933	1867.9302	3065.1134	3080.0452	3117.7531	3124.4623	3139.9086	3151.5431
O=C1OCC2OC2CO1	O=C1OC[C@H]2O[C@H]2CO1	
InChI=1S/C5H6O4/c6-5-7-1-3-4(9-3)2-8-5/h3-4H,1-2H2	InChI=1S/C5H6O4/c6-5-7-1-3-4(9-3)2-8-5/h3-4H,1-2H2/t3-,4+
