16
gdb 9618	4.87904	1.22413	1.13837	1.5971	66.24	-0.2586	0.0229	0.2815	1045.5772	0.130555	-379.913014	-379.904643	-379.903698	-379.945768	30.673	
N	 0.1830277271	 1.3947149688	-0.0800702816	-0.568523
C	 0.0688579961	-0.0375329865	-0.0075808484	 0.284736
C	 1.1699026713	-0.7098678701	-0.8085158679	-0.084987
O	 2.4404733333	-0.3241425882	-0.3370876217	-0.415562
C	-0.3868028505	-0.6540715768	 1.268800127	-0.311305
C	-1.2996039286	-0.7486924665	 0.0449118779	-0.24147
C	-2.4812182447	 0.0574793734	-0.0119877445	 0.277994
N	-3.4109144996	 0.7449312161	-0.0727230749	-0.3369
H	-0.1745919236	 1.7486043853	-0.9633114769	 0.248463
H	-0.3288130747	 1.860542708	 0.6601662802	 0.249952
H	 1.1004411979	-1.7988022927	-0.7177289786	 0.105548
H	 1.0391739911	-0.4588006651	-1.8757453888	 0.089156
H	 2.3842202021	 0.6322927963	-0.2057226272	 0.291562
H	 0.0840561143	-1.5731686568	 1.5981045436	 0.141231
H	-0.7107590477	-0.0012144597	 2.0722325613	 0.137752
H	-1.3847858338	-1.7161799956	-0.4392158194	 0.132354
87.0197	118.8775	154.6745	241.0495	252.2241	325.953	362.9093	415.4685	436.5019	499.8319	557.8256	652.9081	739.4826	818.8702	849.7841	892.9997	931.1268	973.2142	999.6202	1041.292	1085.7938	1089.5455	1117.4932	1160.1587	1207.2926	1305.1188	1348.6875	1370.939	1415.0618	1450.4791	1485.9256	1509.1495	1657.0517	2346.3113	2953.8382	3072.768	3140.2042	3165.0161	3229.703	3500.6486	3591.1947	3752.9705
NC1(CO)CC1C#N	N[C@@]1(CO)C[C@H]1C#N	
InChI=1S/C5H8N2O/c6-2-4-1-5(4,7)3-8/h4,8H,1,3,7H2	InChI=1S/C5H8N2O/c6-2-4-1-5(4,7)3-8/h4,8H,1,3,7H2/t4-,5+/m0/s1
