16
gdb 128383	1.97347	1.70922	0.95855	3.7276	67.95	-0.2312	-0.0289	0.2023	1187.7014	0.124442	-471.156269	-471.147582	-471.146637	-471.189994	31.072	
C	 0.0284182184	 1.3048245354	-0.2015568201	-0.32531
N	 0.0032171975	-0.1340101836	 0.0063268757	-0.383852
C	-1.1918294085	-0.7940545842	 0.000118729	 0.342445
N	-2.3725325929	-0.2237567864	 0.0214805184	-0.194648
O	-3.2778660839	-1.2771802506	 0.0560589893	-0.170001
N	-2.6416397671	-2.4788635273	 0.0309964354	-0.144543
C	-1.3665794948	-2.2208677267	 0.0086396582	 0.240475
C	-0.2902560822	-3.2589014612	-0.0163645429	-0.195664
O	 0.702183418	-2.9501328537	-0.9955322747	-0.411451
H	 1.0583676782	 1.6556077655	-0.1121812276	 0.128314
H	-0.3700199791	 1.602060543	-1.1816407268	 0.128312
H	-0.5760099142	 1.7942951735	 0.5664487201	 0.155327
H	 0.7509187967	-0.6723149092	-0.408445983	 0.258214
H	 0.2453059134	-3.2701898428	 0.938808363	 0.140652
H	-0.7312435394	-4.2511571214	-0.1670745028	 0.135399
H	 0.2914609397	-3.0267501203	-1.8639153712	 0.296332
93.6073	127.9233	141.95	157.6022	204.7716	266.145	335.7723	407.7986	442.0082	509.3416	593.7028	611.7804	685.8026	763.1755	794.6233	905.4841	946.9291	974.902	1033.7896	1057.8229	1092.1793	1151.4361	1186.946	1198.1379	1270.0291	1363.8681	1407.7814	1417.7351	1456.5875	1482.4755	1492.3285	1507.8492	1521.5827	1595.7262	1657.2997	3009.0101	3038.5199	3085.2919	3092.9553	3136.7588	3596.9975	3807.1442
CNC1=NON=C1CO	CNc1nonc1CO	
InChI=1S/C4H7N3O2/c1-5-4-3(2-8)6-9-7-4/h8H,2H2,1H3,(H,5,7)	InChI=1S/C4H7N3O2/c1-5-4-3(2-8)6-9-7-4/h8H,2H2,1H3,(H,5,7)
