17
gdb 69614	3.27445	1.28248	1.20517	5.3531	78.21	-0.2434	0.0037	0.2471	1095.2673	0.135525	-380.803296	-380.795382	-380.794438	-380.835472	30.896	
C	 0.1044841629	 1.4637530684	 0.0624510665	-0.481245
C	-0.091962219	-0.0181271727	-0.045459282	 0.331406
C	-0.9851481788	-0.8164383274	 0.8213165642	-0.300187
N	 0.4803953395	-0.9724602178	 0.9758413318	-0.203201
C	 1.0403417044	-1.7945623233	-0.1745086779	 0.221256
C	 0.0910641151	-2.251001462	-1.2614744969	-0.348717
C	 0.5109332691	-0.8162744365	-1.2220807806	-0.167672
C	 2.3414219499	-2.3537838599	-0.0155907342	 0.235556
N	 3.3999437355	-2.8086835208	 0.0969572182	-0.34879
H	 1.13717516	 1.7389876355	-0.1771661167	 0.134379
H	-0.5588032692	 1.9942223554	-0.6305931058	 0.127563
H	-0.111761564	 1.8074654692	 1.0773204359	 0.136169
H	-1.4119167719	-0.3002752846	 1.6765568254	 0.133949
H	-1.600609917	-1.6287880916	 0.4546529928	 0.126351
H	 0.5889565215	-2.8344945598	-2.0291944802	 0.148502
H	-0.9173930953	-2.5845741431	-1.0486997932	 0.132232
H	 1.0688988274	-0.346334959	-2.0206638073	 0.122451
106.3865	160.5771	196.368	259.5814	303.0636	381.6623	468.5156	488.265	501.9606	546.8979	594.1083	619.6806	738.9527	785.7026	817.4582	878.6851	919.3242	947.9844	977.7786	992.0914	1011.4318	1039.566	1070.4724	1101.2921	1113.0171	1127.1788	1174.6923	1207.3531	1311.0135	1349.3137	1383.0575	1421.4866	1473.1085	1482.2122	1493.3396	1524.7972	2345.8968	3030.8838	3093.6037	3120.2823	3131.578	3145.3434	3210.6542	3216.1621	3225.8706
CC12CN1C1(CC21)C#N	C[C@]12CN1[C@]1(C[C@@H]21)C#N	
InChI=1S/C7H8N2/c1-6-4-9(6)7(3-8)2-5(6)7/h5H,2,4H2,1H3	InChI=1S/C7H8N2/c1-6-4-9(6)7(3-8)2-5(6)7/h5H,2,4H2,1H3/t5-,6+,7+,9?/m0/s1
