18
gdb 8212	2.75715	2.41757	1.58942	2.5495	67.52	-0.2486	0.0812	0.3298	865.7479	0.152621	-384.939056	-384.931046	-384.930102	-384.970927	30.059	
C	-0.1466515208	 1.5128068084	 0.0204767026	-0.491468
C	 0.1441776356	 0.0391880881	-0.0009639521	 0.320473
C	 0.4660890059	-0.6603193204	-1.3099790216	-0.131168
O	 0.9556369253	-1.9481613361	-0.9625350268	-0.254665
C	 1.4758872452	-1.9156403953	 0.359280351	-0.131167
C	 0.7855125498	-0.7580735497	 1.059195696	 0.320472
C	 1.2856278455	-0.2677070637	 2.3881112235	-0.491468
O	-0.6388241437	-0.8083728086	 0.8591647804	-0.327572
H	 0.6710461906	 2.0783062203	-0.4385483538	 0.124669
H	-1.0617913837	 1.7309353045	-0.5408657843	 0.133653
H	-0.2896131648	 1.870143699	 1.0425076179	 0.132753
H	-0.4121381925	-0.7962563242	-1.9507551262	 0.11409
H	 1.2175527253	-0.0757085692	-1.8671914573	 0.088117
H	 1.2677865574	-2.8846432689	 0.8262746367	 0.11409
H	 2.5670230887	-1.7532947154	 0.3635639075	 0.088117
H	 2.3474028621	-0.0056570639	 2.3325510853	 0.124669
H	 0.7250019882	 0.6089085479	 2.7196511093	 0.132753
H	 1.171601616	-1.0455061629	 3.151126892	 0.133653
156.9395	157.3521	198.2054	201.352	234.2249	318.5435	335.8605	462.0762	464.0309	563.4937	641.3431	702.1476	769.5746	889.0509	905.2703	949.5266	963.1765	997.1728	1001.7654	1094.8802	1106.8121	1147.6155	1151.0573	1223.6529	1236.5197	1249.7315	1252.8895	1367.7849	1375.6107	1411.6346	1418.9628	1466.6651	1475.7261	1487.2155	1498.0473	1499.3839	1509.6819	1519.8998	2961.7495	2969.1718	3037.0478	3039.0467	3062.2311	3065.5318	3097.8373	3098.5975	3126.2641	3130.473
CC12COCC1(C)O2	C[C@@]12COC[C@]1(C)O2	
InChI=1S/C6H10O2/c1-5-3-7-4-6(5,2)8-5/h3-4H2,1-2H3	InChI=1S/C6H10O2/c1-5-3-7-4-6(5,2)8-5/h3-4H2,1-2H3/t5-,6+
