20
gdb 70150	2.7377	1.53311	1.18808	2.2599	80.81	-0.227	0.0227	0.2497	1103.429	0.172553	-403.145073	-403.136935	-403.135991	-403.177469	32.107	
C	 0.4019079216	 1.539685427	 0.0313147894	-0.45523
C	-0.0205395433	 0.0816776009	 0.0237707385	 0.30043
C	-1.1030197316	-0.3237999389	 0.9986246495	-0.344794
C	 0.3375491812	-0.7376364154	 1.2531110983	 0.010887
N	 0.7537586643	-2.0935308215	 1.3113392942	-0.260896
C	 0.8446588734	-2.9510264559	 0.3933770296	 0.117187
O	 0.5435479026	-2.9425961889	-0.9319441084	-0.223718
C	-0.3888422416	-1.9996386741	-1.4703440645	-0.100895
C	 0.0353734035	-0.5453011716	-1.3602437586	-0.270691
H	 1.4182770036	 1.6596670405	-0.3618802338	 0.117522
H	-0.2694293535	 2.148242683	-0.5869205476	 0.113565
H	 0.3845031016	 1.9536053753	 1.0439942387	 0.116841
H	-1.5347713064	 0.4409505818	 1.6363655617	 0.110432
H	-1.7954038527	-1.1125181692	 0.728057937	 0.114331
H	 0.8223061072	-0.168121175	 2.0423848307	 0.094474
H	 1.2661962543	-3.9281295721	 0.6314594615	 0.117204
H	-0.4685841671	-2.2792568385	-2.5238130245	 0.118943
H	-1.3711663952	-2.1658547558	-1.0106348218	 0.110526
H	-0.6128969718	 0.0334859178	-2.0344101176	 0.102202
H	 1.0539198799	-0.4531278892	-1.760332922	 0.111679
88.1918	184.5765	228.48	263.0514	303.2364	321.7537	371.0045	425.5523	461.7531	546.3809	567.765	671.8696	746.0642	825.9908	837.855	865.0131	911.5612	929.6841	962.4787	984.7903	1023.0701	1040.1356	1056.7639	1070.8693	1108.67	1130.0289	1144.9032	1191.3825	1244.3741	1257.7155	1314.4349	1349.4358	1388.2713	1415.8579	1418.1013	1423.7993	1443.1688	1471.6946	1483.7725	1491.3264	1502.4583	1512.3705	1770.8052	3003.3348	3019.7347	3029.819	3047.9008	3079.0621	3098.9703	3101.0583	3125.816	3132.4839	3133.7308	3219.7621
CC12CC1N=COCC2	C[C@]12C[C@H]1N=COCC2	
InChI=1S/C7H11NO/c1-7-2-3-9-5-8-6(7)4-7/h5-6H,2-4H2,1H3	InChI=1S/C7H11NO/c1-7-2-3-9-5-8-6(7)4-7/h5-6H,2-4H2,1H3/t6-,7+/m1/s1
