19
gdb 115177	2.48788	1.41612	1.08284	2.4317	71.75	-0.2435	-0.0213	0.2222	1174.8132	0.157799	-460.185953	-460.17669	-460.175745	-460.220275	33.354	
C	 0.5917775593	 1.2520686651	 0.2148527486	-0.244589
O	 0.578104986	-0.1602463578	 0.0892867015	-0.24087
C	 0.3907583981	-0.6086783562	-1.2217550019	 0.191578
O	 1.4885610905	-0.2704370189	-2.0648024909	-0.262244
C	 2.5311528341	-1.211944137	-1.8457223144	-0.188747
C	 1.8483873763	-2.4665511878	-1.2977420935	 0.369932
O	 2.3861312253	-3.4966952862	-0.9914016552	-0.309266
C	 0.3553926432	-2.1407143261	-1.2075754778	-0.135078
C	-0.3689440632	-2.838680855	-0.0632349691	-0.407172
H	 1.4053901617	 1.6978341986	-0.3681775929	 0.129185
H	-0.3613176821	 1.6878937486	-0.1195349703	 0.110735
H	 0.7342185602	 1.4763926529	 1.2736653949	 0.13118
H	-0.4877319362	-0.1299460566	-1.6742298567	 0.077198
H	 3.0412952552	-1.4139019054	-2.7926180845	 0.137117
H	 3.2733859343	-0.8501465695	-1.1215175514	 0.132622
H	-0.070121559	-2.4498472263	-2.1734271806	 0.114987
H	-0.0249705847	-2.4561232943	 0.8990921545	 0.142611
H	-1.4501695055	-2.6874626015	-0.1272039145	 0.114413
H	-0.1630042235	-3.9114914768	-0.1035129959	 0.136411
68.8229	114.7443	149.2108	176.5974	197.571	208.2344	240.3759	325.0726	442.0443	465.411	544.5884	572.9339	662.1158	718.356	760.9572	927.382	938.7077	946.1101	957.4555	1045.2644	1062.8275	1100.1698	1116.4685	1153.6395	1181.5061	1184.0385	1215.4174	1217.8717	1276.5667	1310.3837	1333.4468	1377.047	1389.9362	1409.4129	1475.4869	1481.4225	1485.0806	1491.7582	1502.8093	1513.443	1861.3739	2997.0899	3011.3849	3020.5547	3027.6387	3053.1476	3070.9223	3085.5021	3121.523	3131.1491	3144.6788
COC1OCC(=O)C1C	CO[C@H]1OCC(=O)[C@H]1C	
InChI=1S/C6H10O3/c1-4-5(7)3-9-6(4)8-2/h4,6H,3H2,1-2H3	InChI=1S/C6H10O3/c1-4-5(7)3-9-6(4)8-2/h4,6H,3H2,1-2H3/t4-,6+/m1/s1
