13
gdb 25314	2.39617	1.57222	0.94933	1.0949	78.67	-0.2419	-0.0707	0.1712	1130.0139	0.089942	-415.632241	-415.624669	-415.623725	-415.664576	27.761	
O	 0.0639807718	-0.1124754122	-0.0014088877	-0.306511
C	-0.0066163725	 1.1025087908	 0.009881825	 0.053536
C	 1.1629949098	 1.9559792988	 0.0033328145	 0.139354
C	 1.3484842165	 3.3370754038	 0.0131100539	 0.105844
N	 2.6917885938	 3.6335112183	-0.0003917674	-0.319741
C	 3.3033402628	 2.4648453494	-0.0177764335	 0.018844
N	 2.4336493207	 1.4291925035	-0.016354463	-0.280925
C	 0.3401312543	 4.3280381855	 0.0337519802	 0.252834
C	-0.5288745003	 5.1607741918	 0.0510825084	-0.40468
H	-0.9745674639	 1.6386045397	 0.0261293516	 0.099839
H	 4.3741072027	 2.3245493406	-0.0317661735	 0.15078
H	 2.6207263147	 0.4379122802	-0.0271577245	 0.290187
H	-1.2897179604	 5.9017411298	 0.0655881661	 0.200639
117.7435	148.6175	168.3957	212.8943	297.9315	433.2211	468.3683	578.1773	598.1766	615.6742	615.7218	668.9909	683.8649	758.7513	813.1987	860.4057	959.0909	1031.2999	1091.574	1133.7075	1276.3008	1288.1979	1379.3297	1408.389	1444.9319	1514.1947	1568.5383	1754.9492	2236.18	2955.6184	3255.2721	3500.299	3642.1481
O=CC1=C(N=CN1)C#C	O=Cc1c(nc[nH]1)C#C	
InChI=1S/C6H4N2O/c1-2-5-6(3-9)8-4-7-5/h1,3-4H,(H,7,8)	InChI=1S/C6H4N2O/c1-2-5-6(3-9)8-4-7-5/h1,3-4H,(H,7,8)
