25
gdb 122132	2.08673	0.70619	0.55897	2.1323	86.37	-0.2587	0.0784	0.3371	2044.4238	0.226584	-426.621818	-426.609776	-426.608831	-426.660369	42.167	
C	 0.8020543114	 1.8009196131	 0.3832677811	-0.387403
C	 0.3774825812	 0.3326959746	 0.2615581587	-0.187475
C	 0.8400612521	-0.5759419731	 1.4173852735	 0.04641
C	 0.0552218841	-0.2787508071	 2.6976590324	-0.090607
O	 0.6515851449	-0.998701627	 3.7696738308	-0.422945
C	 0.7328827425	-2.072928345	 1.0647725238	-0.200523
C	 1.8011685141	-2.571113119	 0.0862393191	-0.17648
C	 1.6725201648	-4.0588700932	-0.2127942102	-0.073836
O	 2.6996767784	-4.4153237893	-1.1274697794	-0.422892
H	 1.8924149359	 1.8899230608	 0.4419535127	 0.117747
H	 0.4689553595	 2.3764931685	-0.4862194038	 0.111481
H	 0.3839043381	 2.2832487861	 1.2721775289	 0.115841
H	-0.7165411935	 0.2691246008	 0.1739840417	 0.090077
H	 0.7733230473	-0.0644759823	-0.6794141177	 0.101185
H	 1.8942521131	-0.353644394	 1.6374786508	 0.077327
H	 0.0629553854	 0.8008988007	 2.9072494487	 0.083952
H	-0.997291516	-0.5784059669	 2.555959565	 0.079984
H	 0.1248268954	-0.8521297712	 4.5602442188	 0.285598
H	 0.8059109568	-2.6449378981	 1.995879818	 0.112936
H	-0.2683306683	-2.2710122238	 0.6537086472	 0.081624
H	 1.7532643098	-2.0307332861	-0.8663593242	 0.104685
H	 2.8006408261	-2.3868545868	 0.4992041549	 0.105743
H	 1.75538924	-4.6343978674	 0.7238183729	 0.084151
H	 0.6751384182	-4.2685151273	-0.6344161069	 0.0801
H	 2.6285380587	-5.357346987	-1.3061361468	 0.283319
50.4283	62.862	72.9144	115.3091	131.119	145.7846	207.4139	235.6096	252.9731	260.4177	268.8051	303.7011	374.0936	468.1201	478.8841	525.0478	753.0496	766.2857	831.7245	887.7427	927.7352	966.66	1014.9306	1036.8905	1040.2718	1052.7765	1074.8144	1077.7459	1131.2417	1135.2169	1177.9432	1217.2815	1229.4756	1248.9767	1266.6216	1289.5094	1308.8358	1318.0559	1319.504	1349.0002	1357.239	1388.6011	1402.9724	1414.5828	1454.3788	1462.4366	1486.1015	1491.3357	1501.4305	1502.4089	1506.8341	1519.4562	1529.2067	2955.9407	2956.0342	2981.9466	2996.0057	3001.2353	3007.4413	3019.9949	3032.4304	3034.9561	3060.3627	3065.1832	3084.3754	3099.7419	3105.7026	3829.5437	3835.1302
CCC(CO)CCCO	CC[C@@H](CO)CCCO	
InChI=1S/C7H16O2/c1-2-7(6-9)4-3-5-8/h7-9H,2-6H2,1H3	InChI=1S/C7H16O2/c1-2-7(6-9)4-3-5-8/h7-9H,2-6H2,1H3/t7-/m1/s1
