15
gdb 44586	3.14494	1.67912	1.49168	5.359	63.2	-0.2723	0.009	0.2813	897.5992	0.114446	-457.776464	-457.770032	-457.769088	-457.807445	25.284	
O	-0.4988503338	 0.3869964623	 0.6189751994	-0.320926
C	-0.1855613233	 1.4145437965	 0.1152597192	 0.456808
O	-0.9454933055	 2.2218347491	-0.7029689573	-0.246768
C	 0.1058940777	 3.2399262611	-0.752988581	 0.083718
C	-0.1492085525	 4.4094760199	 0.1811396028	 0.012831
O	-0.6703423939	 3.9783527102	 1.4401852142	-0.23163
C	 0.7223547215	 4.2809893378	 1.3685838293	 0.049844
C	 1.5923958512	 3.0382533885	 1.2680018264	-0.273382
C	 1.0635078642	 2.304939982	 0.0227054114	-0.228097
H	 0.3291812604	 3.5230882884	-1.7816427087	 0.099522
H	-0.5269921489	 5.357863482	-0.1895006675	 0.109601
H	 1.0454580477	 5.1382629258	 1.954538773	 0.106858
H	 2.6411134176	 3.3236047466	 1.1347879994	 0.116206
H	 1.5266037373	 2.4243626315	 2.1714664346	 0.143551
H	 1.8442556505	 1.8225804083	-0.5670423051	 0.121863
106.8567	209.1769	267.0202	372.9274	456.4506	555.6221	646.5321	665.9427	704.9581	789.4498	838.5236	851.7494	864.1904	897.4845	938.3652	955.2741	977.0898	1030.7116	1062.6712	1069.8109	1103.9813	1113.9128	1171.91	1222.0168	1254.0939	1266.72	1277.0899	1323.9885	1339.1443	1357.4495	1427.5611	1478.7841	1944.5167	3053.8603	3098.4141	3110.8922	3122.0726	3144.6928	3164.1044
O=C1OC2C3OC3CC12	O=C1O[C@H]2[C@H]3O[C@H]3C[C@@H]12	
InChI=1S/C6H6O3/c7-6-2-1-3-5(8-3)4(2)9-6/h2-5H,1H2	InChI=1S/C6H6O3/c7-6-2-1-3-5(8-3)4(2)9-6/h2-5H,1H2/t2-,3+,4-,5+/m1/s1
