25
gdb 104445	2.81021	1.18282	1.07035	1.1868	88.48	-0.2399	0.0779	0.3178	1314.4691	0.229754	-389.51671	-389.507096	-389.506151	-389.550395	38.056	
C	 0.0802352724	 1.5474483342	 0.0775536895	-0.397593
C	-0.0578783787	 0.0221714543	 0.0529707582	-0.189495
C	-1.4974112575	-0.5078009443	-0.0858475568	 0.37638
C	-2.1681196857	 0.0365516851	-1.3600961588	-0.432793
C	-1.4749206183	-2.0533388603	-0.0783828781	-0.212938
C	-2.8585359266	-2.6711729015	 0.1707402528	-0.220511
C	-3.4870093905	-2.0554427223	 1.4265099461	-0.191392
C	-3.4760095513	-0.5308932348	 1.3155034042	-0.069671
O	-2.1702521542	-0.0261664772	 1.0911719375	-0.292842
H	 1.1120081408	 1.8337043946	 0.3040298973	 0.106312
H	-0.1801804782	 2.0006725479	-0.8838461594	 0.110634
H	-0.5697798964	 1.9772735849	 0.8437071035	 0.133444
H	 0.5438846774	-0.398656858	-0.7623464273	 0.087206
H	 0.3449189077	-0.3879240087	 0.9862236857	 0.097293
H	-1.5430900595	-0.1705814582	-2.2346853367	 0.112178
H	-3.145179261	-0.4173139483	-1.5426108763	 0.112455
H	-2.3104089442	 1.1171629764	-1.2859401703	 0.124178
H	-1.0527000015	-2.4163235637	-1.0225829898	 0.089265
H	-0.7953809293	-2.3780358513	 0.7195831063	 0.093883
H	-3.515673059	-2.4973416015	-0.690933931	 0.096719
H	-2.7684465377	-3.7580109016	 0.2732713231	 0.093351
H	-4.5137894105	-2.4103486047	 1.5721102269	 0.089482
H	-2.9090338353	-2.3498595239	 2.3115476794	 0.099739
H	-4.1662512994	-0.2090028253	 0.5186583087	 0.083409
H	-3.8145315336	-0.0632266818	 2.2454911556	 0.101307
100.3245	137.2201	187.1255	197.6584	230.876	287.6678	324.6997	337.2284	355.165	413.2424	453.9159	464.4671	506.4764	588.2536	710.5629	774.2285	825.9146	852.9374	869.3668	895.7942	913.6074	959.3531	974.9031	1006.8101	1018.2237	1056.6822	1072.9787	1095.614	1114.9763	1166.4045	1196.6934	1211.536	1230.3936	1246.6988	1285.6388	1309.3515	1332.344	1363.9462	1375.4201	1377.0176	1380.1589	1404.8092	1405.2352	1412.863	1467.7457	1476.1421	1480.2508	1487.778	1492.8484	1500.9013	1509.0635	1512.4527	1518.4576	2973.2502	3020.4383	3024.8041	3025.124	3027.9263	3042.526	3048.0017	3061.2471	3064.6762	3069.1675	3072.4453	3077.8372	3104.022	3113.5131	3126.0176	3128.7868
CCC1(C)CCCCO1	CC[C@@]1(C)CCCCO1	
InChI=1S/C8H16O/c1-3-8(2)6-4-5-7-9-8/h3-7H2,1-2H3	InChI=1S/C8H16O/c1-3-8(2)6-4-5-7-9-8/h3-7H2,1-2H3/t8-/m0/s1
