17
gdb 37795	2.59806	2.24778	1.69824	0.7878	72.21	-0.2233	0.0186	0.2418	854.1202	0.139017	-421.818232	-421.811957	-421.811013	-421.848595	26.239	
C	 0.2602571942	 1.3302770624	 0.6460694965	-0.262256
C	 1.1056318163	 2.319632541	-0.1067638778	-0.083227
C	 1.4668002737	 2.2786230186	-1.3921439796	-0.025192
C	 1.1305845647	 1.2540637035	-2.4043561284	-0.172607
C	-0.2177926815	 0.5242276727	-2.4400052834	 0.042429
O	-1.0141633177	 0.5975353964	-1.2920165036	-0.258914
C	-0.2242091788	 0.152423137	-0.1920626634	 0.160979
O	 0.8746339097	-0.5838238769	-0.7236055709	-0.258914
C	 1.0005199381	-0.2377766253	-2.07336791	 0.042429
H	 0.8191022011	 0.9292416002	 1.5035747565	 0.113756
H	-0.6220727761	 1.8306396262	 1.0698433758	 0.113757
H	 1.4548804126	 3.1627572206	 0.4850717794	 0.088623
H	 2.0865000394	 3.0902215591	-1.7645290173	 0.089592
H	 1.5419748876	 1.4358217797	-3.3936291392	 0.090529
H	-0.7915834904	 0.4179836516	-3.3522162011	 0.112049
H	-0.8329350847	-0.5288926673	 0.4146836481	 0.094916
H	 1.4820378318	-1.0040728197	-2.6679965615	 0.112049
162.5609	266.542	323.2612	399.3033	467.5444	555.7855	636.9166	696.9529	741.3888	759.8604	782.0406	806.1671	828.8235	892.6012	903.9834	934.5396	962.73	988.089	1002.1075	1034.921	1043.5078	1083.6521	1090.5744	1125.4883	1125.4917	1209.5185	1217.531	1240.9947	1291.8025	1346.4737	1366.5794	1378.7666	1404.1329	1415.5505	1439.1036	1462.1672	1723.3047	3004.6549	3033.5291	3038.4586	3138.2834	3146.5477	3167.5182	3185.7083	3195.8009
C1C=CC2C3OC1OC23	C1C=C[C@@H]2[C@@H]3O[C@H]1O[C@H]23	
InChI=1S/C7H8O2/c1-2-4-6-7(4)9-5(3-1)8-6/h1-2,4-7H,3H2	InChI=1S/C7H8O2/c1-2-4-6-7(4)9-5(3-1)8-6/h1-2,4-7H,3H2/t4-,5+,6+,7-
