19
gdb 105205	2.04253	1.59714	1.10435	3.3907	72.68	-0.2385	0.0137	0.2522	1158.8961	0.158606	-456.346276	-456.336691	-456.335746	-456.38066	35.625	
C	-0.3106555939	 1.5587008225	 0.2414094753	-0.323246
N	-0.2069185007	 0.1088964308	 0.3523857861	-0.128005
C	 0.9774649275	-0.5518955195	-0.16349232	-0.278633
C	 0.7273074275	-0.4932073213	 1.3159619526	 0.178268
C	 1.6790813331	 0.3087039569	 2.1922586053	-0.137535
O	 1.0989146825	 0.6702377478	 3.4280304015	-0.43087
C	 0.1754959916	-1.7124419507	 2.0319701999	 0.387252
N	-0.9018876825	-2.284806589	 1.4395189686	-0.536049
O	 0.6955146331	-2.1323587207	 3.0575035701	-0.396888
H	 0.6583662325	 2.0749403111	 0.1947685911	 0.112636
H	-0.8629941299	 1.7966043602	-0.672722711	 0.127669
H	-0.8677853649	 1.9460772196	 1.0986206043	 0.144812
H	 0.820266043	-1.47604945	-0.7130850761	 0.124946
H	 1.788064639	 0.0736882939	-0.539115674	 0.116645
H	 2.5904370008	-0.2889173574	 2.3339749916	 0.108834
H	 1.9707706431	 1.2355802263	 1.6916253123	 0.101157
H	 0.9630863762	-0.1665418892	 3.8933867738	 0.298633
H	-1.4020115664	-1.7294812867	 0.7603350342	 0.269589
H	-1.3796279714	-3.0150389445	 1.9418011645	 0.260784
71.6185	92.2852	153.5386	175.9955	205.5199	272.1376	302.636	364.9108	413.3316	445.2161	477.9265	501.3055	548.3946	573.3347	654.8792	715.3771	724.0529	823.1046	869.9695	927.103	1012.7432	1054.4481	1085.5923	1101.1746	1119.043	1129.3098	1151.2273	1201.4546	1221.7659	1255.9808	1354.4443	1390.0942	1402.4868	1440.6616	1450.3638	1481.3548	1487.5925	1504.9705	1513.3339	1588.9547	1768.0838	3001.9648	3009.8476	3079.0909	3082.3477	3096.1775	3119.4745	3176.5384	3564.7456	3709.1343	3753.0209
CN1CC1(CO)C(N)=O	CN1C[C@]1(CO)C(=O)N	
InChI=1S/C5H10N2O2/c1-7-2-5(7,3-8)4(6)9/h8H,2-3H2,1H3,(H2,6,9)	InChI=1S/C5H10N2O2/c1-7-2-5(7,3-8)4(6)9/h8H,2-3H2,1H3,(H2,6,9)/t5-,7?/m0/s1
