15
gdb 52340	3.79317	0.64301	0.57803	1.8584	70.38	-0.2692	-0.0495	0.2198	1809.3677	0.109293	-453.946451	-453.936745	-453.935801	-453.984299	31.648	
O	-0.072915559	 0.1601306168	-0.2320271332	-0.217459
C	 0.2264571226	 1.2981015987	-0.467932865	 0.135314
C	 1.5747059288	 1.8963996912	-0.0785726731	-0.178064
O	 1.5810965928	 3.297581763	-0.3063643115	-0.198126
C	 2.3661726732	 3.7704326875	-1.2917788681	 0.140386
N	 2.354071695	 5.0014352008	-1.5570231216	-0.236443
C	 3.2088528002	 5.5236716768	-2.604375418	-0.240691
C	 4.0564561914	 4.5473845791	-3.3139155348	 0.232442
N	 4.6977803038	 3.7396218706	-3.8357939897	-0.310553
H	-0.4517285267	 2.0093745937	-0.9890266503	 0.106689
H	 1.7535109762	 1.7163458605	 0.9862074507	 0.160429
H	 2.3661772236	 1.3867375933	-0.6441267651	 0.15123
H	 2.9808003643	 3.0122531894	-1.7944991565	 0.119284
H	 2.5850564334	 6.0374025455	-3.3459869193	 0.167545
H	 3.8608932805	 6.2945575033	-2.1757974744	 0.168018
11.4093	56.1681	65.5039	111.3654	171.2602	231.8742	260.2432	318.5159	374.8834	411.4961	437.8318	585.4178	695.1436	717.4698	903.5636	962.8129	1022.1442	1024.4832	1030.5934	1073.6743	1117.5114	1224.7281	1268.1086	1316.328	1344.0743	1352.9408	1400.5965	1419.2739	1462.5205	1470.3884	1773.8481	1846.5162	2351.0867	2901.162	3026.7781	3035.7104	3041.5006	3062.2146	3092.9459
O=CCOC=NCC#N	O=CCOC=NCC#N	
InChI=1S/C5H6N2O2/c6-1-2-7-5-9-4-3-8/h3,5H,2,4H2	InChI=1S/C5H6N2O2/c6-1-2-7-5-9-4-3-8/h3,5H,2,4H2
