13
gdb 9584	4.6924	1.29613	1.20604	1.7829	60.58	-0.2813	-0.066	0.2153	974.174	0.092602	-398.59676	-398.588733	-398.587789	-398.629475	27.66	
C	-0.0239860667	 1.6122998415	-0.044204439	-0.47386
C	-0.0233054772	 0.1100982046	 0.0123304227	 0.275748
O	 1.2161967395	-0.5794909377	-0.2168004676	-0.25112
C	 0.6683409629	-0.6612475708	 1.0893901595	-0.155527
C	 1.3657078645	 0.0338343924	 2.1486397763	 0.315253
N	 1.9077131413	 0.5754362821	 3.0136741975	-0.316347
C	-1.1951171547	-0.6083888618	-0.6084903178	 0.130612
O	-2.2038026058	-0.0578993608	-0.9580832334	-0.232955
H	 0.8237360823	 2.0283604934	 0.5019502551	 0.15541
H	 0.0261496438	 1.9419222449	-1.0855438188	 0.150686
H	-0.9544351631	 1.9959986963	 0.3814738989	 0.156573
H	 0.2895494624	-1.6423180865	 1.3736507018	 0.147211
H	-1.0336096292	-1.7026332977	-0.7247634952	 0.098316
83.36	126.9642	144.3628	193.7227	249.0173	322.5024	373.3103	390.4776	494.9352	584.298	612.8808	757.0742	800.0539	909.8881	958.0081	1020.3083	1057.9389	1089.9415	1111.0854	1264.3425	1321.6869	1392.3314	1416.974	1435.2199	1475.8206	1490.757	1837.4053	2362.937	2901.0034	3060.125	3125.2346	3130.6587	3153.1265
CC1(OC1C#N)C=O	C[C@]1(O[C@H]1C#N)C=O	
InChI=1S/C5H5NO2/c1-5(3-7)4(2-6)8-5/h3-4H,1H3	InChI=1S/C5H5NO2/c1-5(3-7)4(2-6)8-5/h3-4H,1H3/t4-,5-/m0/s1
