15
gdb 80116	2.84549	1.51939	1.28739	3.3306	73.21	-0.2317	0.0006	0.2324	997.9898	0.112348	-416.754992	-416.747133	-416.746189	-416.786993	30.554	
O	 0.0595395325	 1.3690395872	 0.0126580379	-0.424881
C	 0.0314197076	-0.00999885	 0.1055728267	 0.086165
C	-0.424903866	-0.7337468185	 1.3594932631	-0.111519
N	-1.1833752611	-0.0165214987	 2.3301174483	-0.205185
C	-2.2410114605	 0.4217618524	 1.7584908532	 0.032296
N	-2.3912476168	 0.1256750072	 0.4041066295	-0.371744
C	-1.2884663272	-0.7458098612	 0.0302725139	 0.080061
C	-1.5466237327	-1.8478761295	-0.8315736858	 0.198029
C	-1.7614552528	-2.78181582	-1.5600841561	-0.397059
H	-0.8481519423	 1.6667936504	-0.1374130109	 0.296424
H	 0.8537220099	-0.4880427453	-0.4185961618	 0.118127
H	 0.1399370679	-1.5931996798	 1.7024775724	 0.111354
H	-2.9890465118	 1.0325456921	 2.2526070649	 0.135981
H	-3.3069978437	-0.0904235668	 0.0360673881	 0.25726
H	-1.9454257232	-3.6082428395	-2.2011112033	 0.194691
130.8716	153.6549	203.6054	255.6009	322.3323	414.4457	461.3001	483.9796	522.7858	559.8178	568.8274	611.7481	684.9095	691.3697	750.9662	792.2179	895.3804	909.7721	928.6125	1025.2741	1046.9553	1090.4705	1104.778	1139.5106	1220.4728	1229.9766	1316.9339	1330.3674	1350.0162	1404.2979	1448.1869	1654.3623	2230.7103	3157.4008	3179.1729	3202.8275	3500.6711	3599.2524	3741.2721
OC1C2N=CNC12C#C	O[C@H]1[C@H]2N=CN[C@@]12C#C	
InChI=1S/C6H6N2O/c1-2-6-4(5(6)9)7-3-8-6/h1,3-5,9H,(H,7,8)	InChI=1S/C6H6N2O/c1-2-6-4(5(6)9)7-3-8-6/h1,3-5,9H,(H,7,8)/t4-,5+,6-/m1/s1
