16
gdb 31105	2.56837	1.23199	0.87426	3.6836	69.1	-0.1964	0.0301	0.2265	1280.484	0.123479	-475.037	-475.027724	-475.02678	-475.071446	33.357	
N	 0.0613766525	 1.3887984608	 0.0328355558	-0.595297
C	-0.1053346165	 0.0087079699	 0.0642262233	 0.285636
C	-1.1705912266	-0.7831080508	 0.3220256601	-0.276312
C	-0.7493806986	-2.1605269542	 0.2096137502	 0.103513
C	-1.5789513364	-3.3911564842	 0.3808001615	-0.180543
O	-2.6930257137	-3.4424436101	-0.5102654978	-0.416024
C	 0.5680774973	-2.0840129037	-0.1228852888	 0.327901
O	 1.4688540867	-3.0558532483	-0.3535223409	-0.42762
O	 1.0035077932	-0.8114677678	-0.2173193495	-0.224093
H	 0.3500671759	 1.7321993431	-0.8777939512	 0.243709
H	 0.7273863579	 1.7229048503	 0.7223224323	 0.244321
H	-2.1621925319	-0.4337786626	 0.5636000587	 0.119264
H	-0.939213721	-4.2799746503	 0.2772225904	 0.099314
H	-2.0235664648	-3.4282963466	 1.3818213926	 0.112447
H	-2.3481568161	-3.3015338787	-1.3982415123	 0.276536
H	 2.3125001022	-2.6396540568	-0.5646959043	 0.307248
55.5862	115.4471	148.9578	204.4271	214.3883	247.228	297.7978	323.0534	353.5294	425.0855	548.2133	602.4571	642.4245	651.6096	707.0047	756.8779	824.2909	847.8446	935.6845	970.3033	1032.2885	1112.8421	1176.4402	1180.7889	1194.0965	1211.9969	1278.7163	1335.9217	1374.4429	1423.1402	1447.6666	1507.1082	1647.4089	1689.7688	1719.5597	2997.9293	3056.6425	3263.4359	3492.0515	3556.5653	3809.685	3820.2044
NC1=CC(CO)=C(O)O1	Nc1cc(CO)c(O)o1	
InChI=1S/C5H7NO3/c6-4-1-3(2-7)5(8)9-4/h1,7-8H,2,6H2	InChI=1S/C5H7NO3/c6-4-1-3(2-7)5(8)9-4/h1,7-8H,2,6H2
