14
gdb 124118	3.65729	0.97902	0.77661	5.1416	81.46	-0.2156	-0.0486	0.167	1404.7837	0.100037	-432.824645	-432.815908	-432.814964	-432.85974	30.383	
C	-0.1062813801	 1.4794765819	 0.0023808033	-0.511079
C	-0.0307319485	 0.029371486	-0.0327379624	 0.234844
C	 0.0204270487	-1.1770159545	-0.0686202459	-0.100421
C	 0.1139485605	-2.5711330948	-0.1048820025	 0.260247
C	 1.1821788692	-3.4324924697	-0.0402786953	 0.13502
N	 2.5372420878	-3.1885008006	 0.0186812709	-0.611787
N	 0.6781945581	-4.7044040771	-0.1155464063	-0.169219
N	-0.5870367653	-4.668618641	-0.2209396344	-0.031585
O	-1.0003882788	-3.3421579457	-0.2205986859	-0.214859
H	 0.5947676307	 1.9309582822	-0.7082823771	 0.158804
H	-1.1135542941	 1.8195323868	-0.2608596719	 0.16487
H	 0.1276143459	 1.8693719282	 0.999426982	 0.157024
H	 2.7845203379	-2.3070408637	 0.4449498814	 0.261763
H	 3.0651690979	-3.9625926178	 0.3966319142	 0.266379
21.3795	81.9126	108.7686	234.8658	263.3353	289.6709	336.4454	382.4129	481.0403	489.3112	558.5354	618.8801	676.5674	732.9799	770.6445	835.223	980.6899	1029.9972	1049.7765	1050.2159	1084.6478	1189.2737	1309.9621	1409.7315	1420.378	1465.9244	1470.4649	1473.9555	1626.1583	1678.6585	2348.3863	3027.3555	3087.5084	3095.7442	3563.6409	3666.6032
CC#CC1=C(N)N=NO1	CC#Cc1c(N)nno1	
InChI=1S/C5H5N3O/c1-2-3-4-5(6)7-8-9-4/h6H2,1H3	InChI=1S/C5H5N3O/c1-2-3-4-5(6)7-8-9-4/h6H2,1H3
