19
gdb 6709	6.23027	0.71848	0.67039	5.1811	72.87	-0.2768	0.0379	0.3147	1638.047	0.163847	-365.087026	-365.07738	-365.076436	-365.122145	33.866	
C	 0.0069992688	 1.5690366829	 0.0693823031	-0.406115
C	 0.0050316014	 0.04126049	 0.0309029784	 0.132111
O	 0.7388837167	-0.5060778174	 1.1241295823	-0.425319
C	-1.4157551455	-0.5385153781	-0.0352861298	-0.198207
C	-1.4290683691	-2.0658684551	-0.1346692483	-0.175044
C	-2.8611677111	-2.634762569	-0.1152476492	-0.344063
C	-2.8924969271	-4.0922350057	-0.2191322297	 0.257303
N	-2.9016428237	-5.2447212209	-0.3034864351	-0.304952
H	 1.0317085002	 1.9447294078	 0.1312619899	 0.128877
H	-0.4652453362	 1.9909638971	-0.8234710107	 0.119082
H	-0.5464233829	 1.9366828124	 0.9431239732	 0.107569
H	 0.5583641124	-0.2930453335	-0.8561909486	 0.093231
H	 0.3683093598	-0.1430637185	 1.9366564147	 0.277382
H	-1.9687686985	-0.218125479	 0.8608912789	 0.086849
H	-1.9414844932	-0.0995896	-0.8935847212	 0.099006
H	-0.9302098	-2.3842757158	-1.0571017102	 0.11902
H	-0.852281176	-2.4873292578	 0.6929305638	 0.135338
H	-3.3731740625	-2.3434480583	 0.8097602336	 0.148831
H	-3.4499880036	-2.2177254311	-0.9411433851	 0.1491
53.8187	80.8922	95.9154	146.3182	211.6607	239.8377	289.8261	306.8285	376.5311	399.8431	469.9153	478.8903	567.6885	743.563	825.7952	854.5519	930.0821	955.4263	989.0583	1019.4255	1053.5729	1085.8998	1114.6062	1153.2061	1177.6718	1257.3109	1280.9347	1313.7712	1330.5108	1344.8317	1376.4323	1396.867	1406.6728	1422.0116	1468.4366	1476.2803	1492.3212	1495.6093	1505.919	2362.4286	2994.5058	3022.2502	3031.4106	3034.2025	3044.205	3052.9125	3069.9738	3094.5275	3109.6493	3120.8501	3794.7466
CC(O)CCCC#N	C[C@@H](O)CCCC#N	
InChI=1S/C6H11NO/c1-6(8)4-2-3-5-7/h6,8H,2-4H2,1H3	InChI=1S/C6H11NO/c1-6(8)4-2-3-5-7/h6,8H,2-4H2,1H3/t6-/m1/s1
