20
gdb 72905	2.80022	1.77739	1.43192	1.6346	76.8	-0.2261	0.0768	0.3029	986.3143	0.172775	-403.11491	-403.107423	-403.106479	-403.146352	30.598	
C	-0.0905138139	 1.513067831	 0.1239666297	-0.454489
C	 0.023259756	 0.0019585842	 0.0326959421	 0.411707
C	-1.3137545075	-0.7316759492	-0.1736497721	-0.221982
N	-1.3016793107	-1.9942767068	 0.5884923857	-0.104636
C	-0.2525688951	-2.9295166848	 0.1651216912	-0.253195
C	-0.0215489696	-2.0471706196	 1.3413854564	-0.039577
C	 0.7818820654	-0.7706344498	 1.1511779935	-0.109277
C	 1.9320404196	-0.820442853	 0.128732885	-0.106255
O	 1.0558809472	-0.3810481693	-0.9323260984	-0.326904
H	 0.8887228092	 1.9676623125	 0.2999076745	 0.120813
H	-0.4866997798	 1.9201042453	-0.8123612698	 0.129573
H	-0.7625441787	 1.8067393371	 0.9368784467	 0.119258
H	-2.1366620127	-0.1196734223	 0.21168535	 0.103243
H	-1.4980028712	-0.9159889399	-1.236909637	 0.11868
H	-0.4913272137	-3.9784772931	 0.3205523832	 0.110688
H	 0.2818874371	-2.7118436065	-0.7552200162	 0.134244
H	-0.0776725572	-2.4681139642	 2.3410872369	 0.08946
H	 0.9747820104	-0.2555827317	 2.0934308449	 0.073693
H	 2.7324094932	-0.0925752827	 0.3151807289	 0.099555
H	 2.3749151217	-1.8008026173	-0.0740391852	 0.105399
142.8937	224.4759	249.7168	258.8758	339.8922	379.0111	397.3559	474.7044	614.8215	645.6354	710.1083	749.1905	812.8025	851.6518	858.1998	893.9558	939.6102	955.9522	969.9549	1003.0866	1017.243	1053.2308	1091.9618	1107.0853	1130.5569	1133.0495	1158.4962	1170.0617	1177.8535	1230.6943	1243.1765	1249.1074	1281.911	1333.0761	1335.3625	1354.1761	1393.713	1406.8078	1479.1156	1483.8077	1491.14	1507.2456	1521.7052	3012.8921	3033.3485	3041.6628	3073.2029	3088.529	3098.0941	3105.6273	3106.8752	3112.7791	3147.2904	3196.6602
CC12CN3CC3C1CO2	C[C@]12CN3C[C@H]3[C@H]1CO2	
InChI=1S/C7H11NO/c1-7-4-8-2-6(8)5(7)3-9-7/h5-6H,2-4H2,1H3	InChI=1S/C7H11NO/c1-7-4-8-2-6(8)5(7)3-9-7/h5-6H,2-4H2,1H3/t5-,6+,7+,8?/m1/s1
