17
gdb 63719	3.64271	1.14927	1.03578	4.0445	75.02	-0.2547	0.0095	0.2643	1173.7409	0.134953	-417.97713	-417.968562	-417.967617	-418.009948	32.815	
C	-0.0653564617	 1.5718593111	 0.0837993883	-0.458715
C	 0.0256047693	 0.0578587511	 0.006980575	 0.424261
O	-1.2401599881	-0.5516019055	-0.1564019224	-0.478709
C	 1.1090985347	-0.5633997372	-0.9658373784	-0.337287
C	 1.7157608562	-1.2885379933	 0.2434259549	 0.246158
N	 2.1101657945	-0.220578997	 1.2071087801	-0.362361
C	 0.7139838788	-0.6736934798	 1.1739702218	-0.136303
C	 2.314271028	-2.5802439237	 0.2837271013	 0.164819
N	 2.8044719679	-3.6290021617	 0.3041144743	-0.344916
H	 0.910398994	 2.0031561144	 0.3178102547	 0.146783
H	-0.4001939883	 1.9854459636	-0.8754917856	 0.111358
H	-0.7836755963	 1.8691785883	 0.8538722575	 0.126799
H	-1.6664922768	-0.1554839701	-0.9241519406	 0.282279
H	 0.6341904049	-1.2445337125	-1.6726190508	 0.127812
H	 1.7904609008	 0.1209455563	-1.4749972496	 0.113999
H	 2.5654638663	-0.6693113364	 2.002028069	 0.251833
H	 0.2220698958	-1.1079343877	 2.0354538904	 0.12219
97.9209	144.9737	230.9868	241.8889	271.1051	280.1346	355.8478	406.8523	425.6927	503.295	542.6265	561.2419	578.711	674.1287	781.7827	850.1786	876.5377	922.6036	956.1916	961.938	995.3895	1056.1851	1084.6088	1107.5127	1123.6131	1182.8316	1230.4471	1245.1239	1257.3776	1320.4695	1385.3509	1402.4112	1406.145	1461.3817	1487.9558	1497.7961	2345.4141	3029.4743	3078.1607	3097.8061	3134.4306	3150.4256	3204.4185	3480.4032	3807.6359
CC1(O)CC2(NC12)C#N	C[C@@]1(O)C[C@]2(N[C@@H]12)C#N	
InChI=1S/C6H8N2O/c1-5(9)2-6(3-7)4(5)8-6/h4,8-9H,2H2,1H3	InChI=1S/C6H8N2O/c1-5(9)2-6(3-7)4(5)8-6/h4,8-9H,2H2,1H3/t4-,5+,6-/m0/s1
