21
gdb 61233	2.9618	0.89777	0.76737	1.4827	84.8	-0.257	0.052	0.3091	1539.0748	0.179037	-387.045736	-387.03528	-387.034335	-387.081701	38.039	
C	-1.3392193329	 2.639971066	 1.1729614039	-0.396797
C	-0.8417227938	 1.3984168908	 0.4224835118	-0.015117
C	 0.3360645548	 0.7041480677	 1.1533186517	-0.363743
C	 1.5169203711	 1.5480075903	 1.2853788979	 0.298742
C	 2.484683903	 2.255548798	 1.3752098141	-0.437746
C	-1.9714970663	 0.4043843469	 0.2478960173	 0.0653
O	-3.0102470468	 0.7425579755	-0.6748655996	-0.272501
C	-2.2128215848	-0.4164564684	-0.9528827475	 0.070869
C	-1.3728833428	-0.398953118	-2.2045902271	-0.423344
H	-0.5343626043	 3.3690884716	 1.2958866825	 0.129986
H	-2.159284645	 3.1099556917	 0.623673202	 0.133095
H	-1.7094347785	 2.3731332286	 2.1702388148	 0.1108
H	-0.4886727663	 1.7105048025	-0.5649297943	 0.09014
H	 0.003065366	 0.3844951257	 2.1505540167	 0.12873
H	 0.6061991477	-0.2130439455	 0.6144317251	 0.130687
H	 3.3440286375	 2.8728371871	 1.4630959018	 0.194882
H	-2.3480961966	 0.0052955626	 1.1954705625	 0.082284
H	-2.7507342745	-1.3540655779	-0.7932756846	 0.087212
H	-0.8515258027	 0.5509810435	-2.3346956262	 0.132662
H	-0.6324064645	-1.2060389805	-2.1791866979	 0.122094
H	-2.0073409103	-0.5573620582	-3.0829400851	 0.131763
49.5481	65.6775	119.0181	154.5202	185.5951	223.761	246.1667	306.2198	347.557	379.0707	390.6646	421.7222	537.828	574.0279	618.0578	638.4719	779.6843	820.7597	860.4304	896.6549	932.5487	981.2463	994.2973	1004.9733	1074.7111	1111.8173	1120.1139	1146.2965	1178.7434	1196.562	1234.6596	1279.2292	1304.9336	1343.8793	1352.5511	1403.0841	1408.5897	1421.4814	1468.4873	1471.7199	1490.3367	1499.3009	1500.945	1513.7802	2237.5613	3011.3727	3032.5887	3039.0938	3043.5037	3049.4071	3069.2409	3079.8748	3098.8758	3105.1567	3127.4503	3137.8937	3506.373
CC(CC#C)C1OC1C	C[C@@H](CC#C)[C@H]1O[C@H]1C	
InChI=1S/C8H12O/c1-4-5-6(2)8-7(3)9-8/h1,6-8H,5H2,2-3H3	InChI=1S/C8H12O/c1-4-5-6(2)8-7(3)9-8/h1,6-8H,5H2,2-3H3/t6-,7-,8+/m0/s1
