20
gdb 61627	3.01513	0.87303	0.78581	1.9344	80.62	-0.2317	0.0243	0.256	1510.525	0.170745	-399.299624	-399.289735	-399.288791	-399.335017	35.864	
C	-0.3470165392	 1.3581649077	 0.1274349789	-0.320114
N	 0.0556025573	-0.0395691913	 0.1187832172	-0.076461
C	 1.4270090262	-0.3424457559	-0.2700398739	-0.266876
C	 0.9765457625	-0.5638984427	 1.1341865085	 0.020144
C	 1.5422022758	 0.2709723976	 2.264746157	-0.221688
C	 0.619146013	 0.2798756473	 3.5046777518	-0.128773
N	 0.5095129233	-1.0661780141	 4.0704777664	-0.492075
C	 1.0902935223	 1.2830038585	 4.4855019516	 0.254268
N	 1.4711506731	 2.0348367703	 5.277455932	-0.321095
H	 0.4494353686	 2.0726989705	 0.3897136169	 0.102398
H	-0.7053085942	 1.6197758107	-0.8732810388	 0.130127
H	-1.1794070859	 1.497267114	 0.8257417741	 0.121337
H	 1.5650051659	-1.1775486895	-0.9521590459	 0.116892
H	 2.1008292662	 0.4980035478	-0.4419185014	 0.104209
H	 0.7250993152	-1.5766622657	 1.4391915969	 0.112337
H	 2.5151971302	-0.1388190856	 2.5649370603	 0.116185
H	 1.7283913074	 1.3004918893	 1.9496877915	 0.121997
H	-0.3847520976	 0.5848194759	 3.1869872183	 0.138978
H	 1.398080926	-1.3398888414	 4.4812955846	 0.241645
H	-0.173334146	-1.0789149234	 4.8216676439	 0.246564
52.0005	70.8353	120.7782	187.146	219.1967	251.2712	260.2291	313.9992	332.5705	394.7044	416.0867	520.2543	563.0841	588.4321	744.1976	786.7999	836.4503	890.3959	940.7699	944.0836	989.8727	1037.4842	1083.6756	1112.1217	1119.1817	1132.7889	1139.7804	1169.1429	1201.4321	1208.6549	1281.734	1299.1873	1338.6715	1352.4044	1393.0469	1425.178	1450.0725	1473.9005	1490.1782	1508.7896	1515.5686	1663.7106	2343.4538	2974.8021	3032.1908	3053.5631	3063.2204	3078.4168	3097.7765	3103.6098	3141.7126	3169.0411	3494.9348	3576.0176
CN1CC1CC(N)C#N	CN1C[C@H]1C[C@@H](N)C#N	
InChI=1S/C6H11N3/c1-9-4-6(9)2-5(8)3-7/h5-6H,2,4,8H2,1H3	InChI=1S/C6H11N3/c1-9-4-6(9)2-5(8)3-7/h5-6H,2,4,8H2,1H3/t5-,6-,9?/m1/s1
