16
gdb 6320	4.41436	1.1153	1.02307	2.4012	62.76	-0.2637	-0.0345	0.2291	1165.536	0.1263	-420.927853	-420.918429	-420.917485	-420.963676	31.181	
C	 0.0730139659	 1.442703187	-0.0768600692	-0.405602
C	-0.001626119	-0.066878983	 0.0942413929	 0.032113
O	-1.3639256094	-0.5354546771	 0.0959331956	-0.259497
C	-1.9620422388	-0.6725074436	 1.3072208579	 0.436788
C	-3.384396206	-1.1444337299	 1.1409406251	-0.480601
O	-1.4133905063	-0.4410454799	 2.3529784431	-0.343481
C	 0.7013957269	-0.8406629243	-1.0104142867	 0.151349
O	 1.6503444127	-0.4268259918	-1.6213174141	-0.240629
H	 1.1161014933	 1.7367360203	-0.2134450291	 0.147851
H	-0.4908078314	 1.7566432342	-0.9594938811	 0.13167
H	-0.3302195178	 1.9445880033	 0.8051001144	 0.136949
H	 0.4567687536	-0.3615086406	 1.0479407494	 0.141659
H	-3.9579128163	-0.4008593958	 0.5799085484	 0.155287
H	-3.4082765209	-2.0739273771	 0.5657926725	 0.152738
H	-3.8336108162	-1.2964564189	 2.1213154567	 0.152712
H	 0.2688338397	-1.848664323	-1.1951459657	 0.090693
35.0353	56.7857	82.2063	102.8547	191.2174	223.2245	245.	355.2251	391.6745	448.1931	586.0934	609.2226	667.3715	832.8948	880.7944	921.4263	975.9785	1026.0362	1065.1128	1103.9024	1129.6358	1160.1194	1252.5111	1323.0227	1353.6648	1392.5248	1397.7867	1414.7614	1468.2739	1475.2334	1485.4925	1496.6341	1829.1401	1840.8329	2897.4655	3032.5916	3056.1618	3058.7965	3123.9221	3133.941	3144.3238	3172.1979
CC(OC(C)=O)C=O	C[C@@H](OC(=O)C)C=O	
InChI=1S/C5H8O3/c1-4(3-6)8-5(2)7/h3-4H,1-2H3	InChI=1S/C5H8O3/c1-4(3-6)8-5(2)7/h3-4H,1-2H3/t4-/m1/s1
