18
gdb 80082	2.28239	1.78233	1.37133	3.1312	77.75	-0.2107	-0.001	0.2096	1011.4121	0.1499	-401.992718	-401.984866	-401.983922	-402.024952	30.671	
C	-0.1985311428	 1.5516618504	-0.0855342943	-0.415443
C	 0.0074750005	 0.0577812584	 0.0074963694	-0.020281
C	 1.3396491546	-0.6248476031	-0.2375558778	-0.124104
C	 2.5789872473	 0.1640569923	-0.3966447947	-0.105533
C	 3.0620082885	 0.9003175644	 0.6091448162	-0.011738
N	 2.4555836423	 0.9383784828	 1.8660623521	-0.335463
C	 1.384001973	 0.1515384396	 2.255027683	 0.413613
O	 1.0453597533	 0.0863578595	 3.4213382402	-0.374283
C	 0.7167425639	-0.6216750913	 1.1658722596	-0.180988
H	 0.6928139718	 2.1118358715	 0.2019984571	 0.134462
H	-0.4533287146	 1.8365906241	-1.1119875681	 0.118195
H	-1.0214291401	 1.8680571476	 0.5639582887	 0.126854
H	-0.8428794246	-0.5206555658	-0.3439216293	 0.097888
H	 1.2988450026	-1.5599488257	-0.7881396041	 0.095201
H	 3.0996155769	 0.1498014219	-1.34606295	 0.09788
H	 3.9521542724	 1.5110995366	 0.5190007668	 0.117677
H	 2.9143046597	 1.4173287547	 2.6264147678	 0.253703
H	 0.2623872554	-1.528553298	 1.5470427175	 0.112361
110.873	141.8454	170.2224	222.578	373.0759	411.8697	435.8629	523.5167	539.4614	589.8673	622.3783	723.9308	727.2264	757.0334	803.9457	836.0995	912.9275	932.7346	944.3097	969.8997	1023.7339	1066.9249	1085.5014	1090.1234	1134.3985	1143.436	1212.2754	1236.3453	1296.7652	1362.3764	1379.9982	1415.6032	1424.0833	1433.899	1465.6899	1491.5709	1501.1782	1716.4862	1788.3938	3039.2604	3095.8428	3129.2716	3143.2489	3150.6938	3184.0592	3196.2574	3215.8844	3625.6094
CC1C2C=CNC(=O)C12	C[C@H]1[C@H]2C=CNC(=O)[C@@H]12	
InChI=1S/C7H9NO/c1-4-5-2-3-8-7(9)6(4)5/h2-6H,1H3,(H,8,9)	InChI=1S/C7H9NO/c1-4-5-2-3-8-7(9)6(4)5/h2-6H,1H3,(H,8,9)/t4-,5+,6-/m0/s1
