16
gdb 6519	3.08784	1.80955	1.41536	1.9582	68.4	-0.2376	0.0373	0.2749	920.4401	0.12607	-383.682917	-383.673914	-383.67297	-383.715538	33.893	
C	-0.0470591011	 1.5545654191	 0.0681703654	-0.443498
C	-0.0055126548	 0.0447029623	 0.0182714959	 0.357194
O	-1.1740807904	-0.5547874168	-0.4659953642	-0.454685
C	 1.2956862593	-0.6800200608	-0.2449986722	-0.408947
C	 0.6514649651	-0.7200897747	 1.1459616803	 0.158261
O	 1.2231685827	 0.0857456611	 2.1433586162	-0.454344
C	 0.0840065583	-1.9566478059	 1.6142295733	 0.344902
C	-0.3319521402	-2.9933322838	 2.0593893013	-0.483989
H	 0.8400499177	 1.9610011997	 0.5552987482	 0.137722
H	-0.1059905505	 1.9629114923	-0.9479448985	 0.105494
H	-0.9311773332	 1.8849502484	 0.6211126994	 0.133188
H	-1.2094716401	-0.4004577255	-1.4166536659	 0.283033
H	 1.2538358043	-1.5887620386	-0.8341221367	 0.123873
H	 2.2038042314	-0.092608586	-0.3280370276	 0.118013
H	 1.9203096324	-0.4290345189	 2.5652051236	 0.288313
H	-0.7274202309	-3.9006979019	 2.4435673116	 0.195471
124.3718	143.4728	198.9841	238.6067	252.2741	272.0445	295.3043	365.1541	405.3314	423.0071	467.252	556.9358	590.2026	598.8833	674.5434	679.5721	747.2255	891.6336	911.7509	920.9384	986.8368	1032.917	1080.0725	1117.2489	1212.5909	1271.2572	1290.6697	1336.53	1397.6035	1413.3418	1467.8369	1485.0916	1505.1705	2234.5791	3032.8217	3101.1158	3133.0893	3147.8662	3235.1303	3503.0699	3796.089	3799.9951
CC1(O)CC1(O)C#C	C[C@@]1(O)C[C@]1(O)C#C	
InChI=1S/C6H8O2/c1-3-6(8)4-5(6,2)7/h1,7-8H,4H2,2H3	InChI=1S/C6H8O2/c1-3-6(8)4-5(6,2)7/h1,7-8H,4H2,2H3/t5-,6-/m1/s1
