17
gdb 34934	2.74629	1.62766	1.28904	3.1454	76.55	-0.2532	0.0117	0.265	1010.1729	0.136488	-380.819257	-380.811628	-380.810684	-380.851301	29.689	
N	-0.1381936373	-1.1754868508	 0.0687751639	-0.350064
C	-0.0370968965	-0.0231211039	 0.0672215539	 0.318208
C	 0.0539444182	 1.4150371391	 0.058414632	-0.168085
C	 0.569296306	 2.1869947898	 1.2199625747	-0.028718
C	 1.6392074928	 1.4195809331	 1.9944555383	-0.352227
C	 2.3743237467	 1.3348551667	 0.6503939822	 0.388179
C	 3.8244641013	 1.5558650013	 0.3766982214	-0.349063
C	 3.164685675	 0.240282812	 0.0128016334	-0.305274
N	 1.3492646773	 2.1438804262	-0.074405586	-0.172364
H	-0.7264606827	 1.8937091414	-0.5258590922	 0.14198
H	 0.061074323	 3.0868678636	 1.5499012067	 0.113084
H	 2.1572447241	 2.0410766232	 2.7274442776	 0.122949
H	 1.320554306	 0.4865395522	 2.4664311929	 0.131469
H	 4.0728151728	 2.2361815124	-0.4305737622	 0.130651
H	 4.5044587294	 1.5801080265	 1.2218609447	 0.118164
H	 3.3860869531	-0.6386513874	 0.6082333797	 0.129299
H	 2.9824160109	 0.0381910146	-1.036852991	 0.131809
102.323	135.0815	218.263	270.9715	304.7534	387.2324	438.6692	530.2161	589.3501	633.7916	753.9626	760.9311	784.9398	841.0461	854.3924	893.3095	931.2865	945.5469	981.3276	1004.6027	1046.5618	1058.2627	1059.4008	1080.7864	1114.7015	1169.2284	1186.1189	1197.6848	1241.0772	1259.0885	1333.0387	1379.1735	1392.3052	1454.1228	1487.6366	1501.3492	2351.0045	3065.3497	3121.2347	3132.139	3138.9763	3159.8584	3173.3581	3216.3774	3230.333
N#CC1C2CC3(CC3)N12	N#C[C@H]1[C@H]2CC3(CC3)N12	
InChI=1S/C7H8N2/c8-4-6-5-3-7(1-2-7)9(5)6/h5-6H,1-3H2	InChI=1S/C7H8N2/c8-4-6-5-3-7(1-2-7)9(5)6/h5-6H,1-3H2/t5-,6+,9?/m1/s1
