19
gdb 89100	3.3099	0.80496	0.73606	4.7054	76.96	-0.2315	0.0089	0.2404	1558.1668	0.15952	-419.181664	-419.172346	-419.171402	-419.216708	33.856	
O	-1.3472050411	 0.9076555771	 1.4850525815	-0.431353
C	-0.4846710608	 0.1983886579	 0.6553431602	 0.158162
C	-0.596888487	-1.2980528029	 0.4849256429	-0.345805
C	-0.9453260951	-0.3627031932	-0.6669146238	-0.081796
C	-2.3655314831	-0.148309108	-1.1569335556	-0.16563
N	-3.3693943694	-0.3745377171	-0.1055178747	-0.317147
C	-4.7150998259	 0.0042094387	-0.534567194	-0.261735
C	-5.7070376459	-0.32440175	 0.4917779942	 0.252748
N	-6.4909979956	-0.604835109	 1.2918803678	-0.287979
H	-2.2476484096	 0.6026985644	 1.283784154	 0.285498
H	 0.5131667036	 0.6237370684	 0.7006159353	 0.103071
H	 0.3011098762	-1.901118045	 0.4020919006	 0.114743
H	-1.4019376587	-1.783511526	 1.0278045357	 0.109864
H	-0.2265296492	-0.3317749741	-1.4815112161	 0.092764
H	-2.4739834346	 0.8945547792	-1.4842370904	 0.12205
H	-2.5591421603	-0.7772903534	-2.0431800495	 0.099674
H	-3.3710710456	-1.3564568897	 0.1534713653	 0.244341
H	-4.7384191461	 1.0859864206	-0.7109369532	 0.167345
H	-5.0262035018	-0.4766049879	-1.4784072304	 0.141185
53.6263	87.8661	106.6098	141.2497	220.7754	264.015	316.5035	383.5611	393.5138	463.4594	551.8384	592.8206	647.8525	744.8802	799.179	845.8331	847.8036	933.564	967.4547	988.2843	1003.9009	1020.8134	1061.5598	1097.8623	1118.3092	1144.369	1153.0886	1153.8075	1226.8618	1242.8231	1307.3069	1345.986	1360.1443	1389.0751	1417.7448	1463.4638	1488.7633	1490.8524	1500.4355	1513.3348	2370.9346	2949.6712	2958.602	3030.7302	3060.642	3127.477	3138.9237	3159.9619	3211.7954	3519.4129	3641.8503
OC1CC1CNCC#N	O[C@H]1C[C@H]1CNCC#N	
InChI=1S/C6H10N2O/c7-1-2-8-4-5-3-6(5)9/h5-6,8-9H,2-4H2	InChI=1S/C6H10N2O/c7-1-2-8-4-5-3-6(5)9/h5-6,8-9H,2-4H2/t5-,6-/m0/s1
