17
gdb 113604	3.00372	0.85932	0.71457	1.7101	94.08	-0.2235	-0.0118	0.2117	1567.3523	0.133133	-384.609307	-384.599799	-384.598855	-384.64414	34.464	
C	 0.2740074417	 0.8966295544	 0.443398688	-0.242467
O	-0.1537195796	-0.0229598723	-0.5491897541	-0.228529
C	-1.3733921204	-0.6005294469	-0.2660062252	 0.144465
C	-1.6497139107	-1.9183425781	-0.8895957096	-0.322485
C	-1.4386445629	-1.8513346662	 0.6282999223	-0.295727
C	-0.254334759	-2.3914090963	 1.2076305528	 0.443513
C	 0.7394423298	-2.8525751081	 1.727282458	-0.2682
C	 1.8578173031	-3.3701827624	 2.3005169487	 0.300993
C	 2.8512182926	-3.8299964409	 2.8123317802	-0.572825
H	 1.2289625316	 1.3040340516	 0.1060303591	 0.133502
H	-0.4460302087	 1.720205757	 0.5598073903	 0.106957
H	 0.4119837317	 0.402800754	 1.4130428456	 0.128996
H	-2.1993804823	 0.1026248705	-0.1419710621	 0.093351
H	-2.6485196023	-2.1365260531	-1.2489398093	 0.12524
H	-0.8398537667	-2.3543847683	-1.4619216456	 0.145914
H	-2.3343107762	-1.9443246396	 1.2368735008	 0.119659
H	 3.7244239483	-4.2357218454	 3.25899842	 0.187646
60.9515	90.5617	130.407	172.027	215.0681	232.2654	277.512	375.8366	430.8266	491.866	520.2254	539.666	569.75	598.862	616.2897	715.2035	755.767	828.167	925.0765	950.7021	1060.2403	1064.1723	1089.1814	1118.7771	1157.7173	1182.9812	1203.3513	1229.4413	1267.2465	1381.5151	1399.3128	1467.0708	1487.9533	1493.1547	1505.1532	2178.8084	2349.2316	2993.2172	3061.8692	3082.5674	3131.2035	3139.6046	3147.5369	3243.7473	3506.4806
COC1CC1C#CC#C	CO[C@H]1C[C@H]1C#CC#C	
InChI=1S/C8H8O/c1-3-4-5-7-6-8(7)9-2/h1,7-8H,6H2,2H3	InChI=1S/C8H8O/c1-3-4-5-7-6-8(7)9-2/h1,7-8H,6H2,2H3/t7-,8+/m1/s1
