23
gdb 81688	2.44232	1.41087	1.32642	1.625	84.07	-0.2473	0.0589	0.3062	1142.9451	0.208311	-388.293726	-388.28522	-388.284276	-388.326297	34.433	
C	-0.7151172913	 1.2205361642	 0.0233321067	-0.411109
C	 0.1093234533	-0.0696715998	-0.0318497886	 0.033603
C	 0.8874602192	-0.2050384632	-1.3727615968	-0.222038
C	 2.2116876117	-0.9696239889	-1.2233229828	-0.069504
C	 3.1113382252	-0.2332535352	-0.1923454896	-0.22369
C	 2.3249672229	-0.9886812296	 0.9146663766	-0.069507
C	 1.024656389	-0.2280967259	 1.2167242884	-0.222105
C	 2.1209364467	-2.1032408457	-0.1565275014	 0.164301
O	 1.0616744225	-3.0241997073	-0.1086426752	-0.443903
H	-0.0606951612	 2.0994481206	-0.0035012171	 0.115852
H	-1.4031294132	 1.2903031232	-0.8262304489	 0.112502
H	-1.3094597869	 1.2745424638	 0.9419325091	 0.112495
H	-0.6212018122	-0.8908470123	-0.0004965865	 0.066239
H	 0.2440027439	-0.6942795674	-2.113250398	 0.096802
H	 1.110548729	 0.7910237665	-1.7765523912	 0.097116
H	 2.6377995261	-1.2190919925	-2.1984088664	 0.059347
H	 4.1566993689	-0.5463407147	-0.2505172587	 0.095838
H	 3.0620446473	 0.8593649056	-0.1799904224	 0.088016
H	 2.851468531	-1.2550170057	 1.834700234	 0.05935
H	 1.2901208984	 0.7608460685	 1.612291251	 0.097134
H	 0.4625819299	-0.7309638396	 2.0122921679	 0.096779
H	 3.024793681	-2.7174254606	-0.2099040875	 0.086143
H	 0.2306207788	-2.5440862238	-0.0592301025	 0.280341
101.2372	193.3377	212.081	244.4634	264.6249	317.4887	386.9336	388.0499	427.381	500.8262	556.7134	597.1332	752.5288	777.8393	820.5331	857.2192	861.8396	912.1516	912.8306	942.3402	967.4382	1009.1373	1028.3669	1079.4032	1087.6818	1100.076	1103.1142	1119.9899	1156.8069	1192.2735	1223.4615	1233.9537	1240.6014	1259.6893	1262.2343	1316.571	1328.7315	1340.4573	1344.6023	1362.2696	1366.6405	1391.6605	1413.9221	1449.4917	1491.5601	1491.7102	1497.4946	1498.1862	1509.7975	2969.7767	3016.735	3018.0514	3024.9797	3051.5214	3054.8315	3058.7343	3063.8662	3071.1434	3079.7817	3093.1616	3095.574	3108.7855	3836.0151
CC1CC2CC(C1)C2O	C[C@H]1C[C@H]2C[C@@H](C1)[C@H]2O	
InChI=1S/C8H14O/c1-5-2-6-4-7(3-5)8(6)9/h5-9H,2-4H2,1H3	InChI=1S/C8H14O/c1-5-2-6-4-7(3-5)8(6)9/h5-9H,2-4H2,1H3/t5-,6-,7+,8-
