19
gdb 41487	3.21706	1.6116	1.32262	1.6839	74.	-0.2442	0.0658	0.3099	997.2385	0.161334	-422.995379	-422.988268	-422.987324	-423.026897	28.501	
C	 0.0246257818	 1.5421750754	-0.1277279584	-0.163925
O	 1.3482675833	 1.5518465366	 0.4604725232	-0.296537
C	 1.4709440572	 0.1140022853	 0.3518065407	 0.068424
C	 1.1565738115	-0.6264067263	 1.66763379	-0.274042
C	-0.3545578036	-0.651015115	 1.2711147911	 0.083209
O	-0.9077011915	-1.9214009927	 0.9790175105	-0.26293
C	-0.6247031103	-2.2504493203	-0.3801088017	-0.087558
C	-0.5985494214	-0.9134653127	-1.1433742857	-0.350676
C	-0.0176886873	 0.0156651063	-0.1009869373	 0.283396
H	-0.7128731169	 2.0753467188	 0.485832983	 0.102315
H	 0.034624435	 1.9800433577	-1.1354268351	 0.099585
H	 2.3402140851	-0.1836757819	-0.2429345846	 0.071801
H	 1.580334139	-1.6334070696	 1.7213460415	 0.108677
H	 1.4126832373	-0.073416947	 2.5738133505	 0.112061
H	-1.0388035304	-0.1314788621	 1.9477383628	 0.079476
H	 0.3496645418	-2.7576819416	-0.4651875033	 0.094212
H	-1.3974583763	-2.9434178419	-0.7226041732	 0.11271
H	-0.012199159	-0.9659125532	-2.0651050812	 0.108344
H	-1.6170448753	-0.6009162158	-1.4027691527	 0.111459
101.0789	186.6023	233.8658	330.4553	359.4192	426.4807	461.0522	649.3149	652.3628	702.0722	793.6892	859.1719	863.6985	887.8667	899.2297	960.575	972.9918	980.5085	1000.3078	1013.2469	1045.4254	1098.9512	1127.3973	1140.9582	1155.3367	1170.7907	1191.1118	1229.7636	1237.333	1253.6925	1268.5467	1270.9151	1312.9275	1325.1324	1353.4245	1370.8435	1397.8237	1451.3233	1480.0927	1520.42	1522.581	2976.0465	2998.072	3038.383	3044.6197	3053.0083	3063.6623	3068.7515	3092.0343	3098.3467	3125.7353
C1OC2CC3OCCC123	C1O[C@H]2C[C@@H]3OCC[C@]123	
InChI=1S/C7H10O2/c1-2-8-5-3-6-7(1,5)4-9-6/h5-6H,1-4H2	InChI=1S/C7H10O2/c1-2-8-5-3-6-7(1,5)4-9-6/h5-6H,1-4H2/t5-,6-,7+/m0/s1
