15
gdb 75671	2.99206	1.33225	1.12084	4.0766	75.86	-0.252	-0.0125	0.2396	1091.8707	0.110958	-416.719506	-416.711169	-416.710224	-416.75234	31.422	
O	 0.0945544455	 1.49019806	 0.1134612042	-0.417642
C	-0.0162953692	 0.0973926582	 0.0451295765	-0.065458
C	 0.1592956053	-0.6337656751	 1.377593238	 0.36464
N	 0.9959341561	-0.6955123097	 2.3089279531	-0.500908
N	-1.069732519	-1.3969186716	 1.2715281173	-0.167112
C	-2.1322711676	-0.3600658358	 1.2568667467	-0.269651
C	-1.4048938244	-0.5759633621	-0.0127169851	 0.112979
C	-1.9745986606	-1.1532198277	-1.1808411868	 0.18597
C	-2.4351437675	-1.5963664038	-2.2001786134	-0.376597
H	 0.0812961144	 1.8484996561	-0.7802690334	 0.297723
H	 0.637823739	-0.3388068523	-0.7220739556	 0.110356
H	 1.7694213282	-0.0503268051	 2.1354127211	 0.237061
H	-3.1279767809	-0.7832593005	 1.3298683017	 0.146008
H	-1.9730013813	 0.5596653004	 1.8136203937	 0.145001
H	-2.847908928	-2.003874691	-3.0900482681	 0.19763
88.3204	136.6864	183.9853	228.4817	274.1254	289.1851	401.2089	483.1492	509.0056	535.2212	612.7516	644.3974	661.9823	681.8844	707.7139	754.3307	850.6968	909.4364	940.4092	979.8729	992.2905	1114.3508	1136.6019	1149.4716	1181.2735	1219.2069	1259.034	1291.0352	1368.4597	1428.3537	1498.2969	1815.9768	2235.5207	3020.6893	3120.9593	3220.7799	3466.039	3500.122	3813.592
OC1C(=N)N2CC12C#C	O[C@H]1[C]([NH])N2C[C@@]12C#C	
InChI=1S/C6H6N2O/c1-2-6-3-8(6)5(7)4(6)9/h1,4,7,9H,3H2	InChI=1S/C6H6N2O/c1-2-6-3-8(6)5(7)4(6)9/h1,4,7,9H,3H2/t4-,6-,8?/m0/s1
