17
gdb 125758	4.62722	0.82469	0.70916	2.5187	70.79	-0.2757	-0.0143	0.2614	1548.4039	0.135144	-455.156653	-455.147482	-455.146538	-455.191985	31.712	
C	-0.2873856022	 1.4080321788	 0.102671335	-0.4888
C	-0.0368036868	-0.0560313627	-0.0080852102	 0.351197
N	 0.7095204185	-0.5698507164	-0.9494062984	-0.170333
O	 0.6728393549	-1.9473845719	-0.6798002399	-0.206415
C	-0.098816501	-2.1041988776	 0.4027818013	 0.432285
C	-0.3125873049	-3.4856597978	 0.9158347394	-0.317619
C	-1.2111857278	-3.5218293603	 2.1475024876	-0.072476
O	-1.3249039553	-4.8844365586	 2.5211700362	-0.419726
N	-0.5673546144	-0.9843548326	 0.8667227287	-0.359846
H	 0.0613312257	 1.7798652897	 1.0707868857	 0.148216
H	 0.230192751	 1.9416520779	-0.6956037835	 0.150678
H	-1.3599258308	 1.6145967444	 0.0390711244	 0.148204
H	-0.7494546995	-4.1037860523	 0.1229998829	 0.148441
H	 0.6568390406	-3.9384669063	 1.1540612406	 0.148462
H	-0.7673999381	-2.9115560839	 2.9468691845	 0.10838
H	-2.1876597693	-3.0785654901	 1.9057959846	 0.108284
H	-1.8880525507	-4.9367412105	 3.2986347512	 0.291069
33.6949	84.3098	120.5571	139.2316	197.6554	255.0061	310.7075	339.1922	353.1113	441.858	659.8411	661.617	710.8834	797.9817	807.8316	927.2856	994.5436	1027.0209	1048.3879	1067.2396	1071.7659	1081.68	1096.1296	1211.5347	1216.4303	1271.8474	1304.9818	1350.5204	1388.7771	1423.6273	1470.5282	1473.805	1474.939	1475.9323	1526.0901	1571.6963	1626.4331	2997.712	3027.754	3047.1577	3051.7647	3082.9466	3111.7475	3151.7566	3835.7365
CC1=NOC(CCO)=N1	Cc1noc(CCO)n1	
InChI=1S/C5H8N2O2/c1-4-6-5(2-3-8)9-7-4/h8H,2-3H2,1H3	InChI=1S/C5H8N2O2/c1-4-6-5(2-3-8)9-7-4/h8H,2-3H2,1H3
