19
gdb 37770	2.46901	2.44022	1.8143	0.5464	81.51	-0.2122	0.025	0.2371	853.9463	0.164409	-348.760377	-348.754425	-348.753481	-348.790157	26.735	
C	-0.0269925939	 1.5410719999	-0.1046394259	-0.245918
C	 1.4296667673	 1.9962531165	 0.0217767091	-0.070149
C	 2.1439250967	 1.7558324676	 1.3483628682	-0.084521
C	 1.4174639298	 1.3254702394	 2.5567534763	-0.077572
C	 0.6314130348	 0.2431235566	 2.5595298376	-0.077575
C	 0.4439519334	-0.5848871265	 1.3543567172	-0.084527
C	-0.0088693157	 0.0154952104	 0.0268478234	-0.070135
C	 1.4196093952	-0.4395458985	 0.1827576492	-0.072796
C	 2.3046933825	 0.7791499595	 0.179635029	-0.072794
H	-0.6680332725	 2.0085768779	 0.6528015476	 0.10629
H	-0.4211525313	 1.8248241329	-1.0859092629	 0.098217
H	 1.756682491	 2.850415593	-0.5617271258	 0.08085
H	 2.9866988331	 2.4178037595	 1.5233588899	 0.079042
H	 1.550965247	 1.9119012619	 3.4606004653	 0.08394
H	 0.117255196	-0.0622241165	 3.4656586295	 0.08394
H	 0.0756233279	-1.5905180901	 1.5336303434	 0.079042
H	-0.721354048	-0.5616824772	-0.5530127762	 0.080849
H	 1.7927732978	-1.3439013696	-0.2817324642	 0.081908
H	 3.2789984789	 0.7025114134	-0.2869690308	 0.081908
243.5454	324.0255	397.0264	503.026	551.6591	620.0698	648.5764	712.3762	717.7586	763.7106	769.7754	805.0317	807.6485	876.1627	877.8216	932.8028	940.8256	956.3575	972.8338	1012.2177	1019.6001	1034.7135	1040.8218	1062.1364	1068.3606	1104.7931	1108.4923	1168.1164	1176.887	1207.0066	1214.9781	1291.8182	1304.8305	1336.4155	1339.7821	1369.3379	1401.7728	1416.3492	1447.1143	1486.5893	1697.3689	3032.3936	3072.4846	3143.9591	3145.7883	3158.7354	3161.7637	3164.1656	3180.0507	3183.7555	3193.3712
C1C2C3C=CC4C1C4C23	C1[C@H]2[C@H]3C=C[C@H]4[C@@H]1[C@H]4[C@@H]23	
InChI=1S/C9H10/c1-2-5-7-3-6-4(1)8(6)9(5)7/h1-2,4-9H,3H2	InChI=1S/C9H10/c1-2-5-7-3-6-4(1)8(6)9(5)7/h1-2,4-9H,3H2/t4-,5+,6+,7-,8-,9+
