24
gdb 22200	2.38023	0.77619	0.62136	0.4633	89.4	-0.2386	0.0198	0.2584	1917.6406	0.21484	-405.527188	-405.515744	-405.5148	-405.564563	40.944	
C	-0.0495143029	 1.6258985982	-0.0860675759	-0.38835
C	 0.0264802908	 0.1012101754	 0.0285431778	-0.156976
C	 0.6216521321	-0.5470490763	-1.2232688945	-0.257931
C	 0.7350016204	-2.0516106248	-1.2082381711	 0.339471
C	 1.4052913216	-2.7260715624	-2.3808190355	-0.264296
C	 2.8793035843	-3.0795023056	-2.0946525004	-0.157297
C	 3.5640064305	-3.7433549207	-3.2913203481	-0.380525
N	 0.2688841873	-2.6673622268	-0.189929621	-0.171924
O	 0.4403597545	-4.0629978195	-0.2909734158	-0.407782
H	 0.9435273018	 2.0666729525	-0.2310103676	 0.110821
H	-0.6722570427	 1.9326591848	-0.9342830885	 0.111214
H	-0.4794917161	 2.0692780608	 0.8173472317	 0.112041
H	 0.6262228206	-0.1819444432	 0.9001905396	 0.107229
H	-0.9707462039	-0.3135332979	 0.2085795357	 0.110255
H	 0.0302469545	-0.2632126236	-2.1074258921	 0.109965
H	 1.6244804077	-0.1355510636	-1.4166648222	 0.108452
H	 0.8606621926	-3.6439947789	-2.6234094243	 0.124068
H	 1.3517311428	-2.0658598622	-3.2543577835	 0.091253
H	 3.4246089322	-2.1687124653	-1.8164816364	 0.094307
H	 2.9130731501	-3.7432777529	-1.2253370814	 0.121567
H	 3.0575000167	-4.6741667534	-3.5692691555	 0.117696
H	 3.5554621308	-3.0874510317	-4.1693147029	 0.111577
H	 4.6075169761	-3.9858234368	-3.0670623756	 0.112072
H	 0.0274213183	-4.372110066	 0.5216730574	 0.303092
54.3372	77.1413	88.3503	103.1651	152.3046	187.6442	242.2586	244.372	283.7641	300.5323	310.2922	360.8685	406.9307	455.6501	590.6802	667.6756	742.919	749.29	834.0699	871.1265	887.5938	905.9737	923.0964	990.4616	1042.324	1051.8266	1076.0351	1093.8604	1131.1633	1133.1133	1211.9372	1256.4434	1264.6679	1305.674	1320.531	1326.2861	1330.2333	1377.6799	1395.6449	1412.2003	1412.3442	1414.9577	1468.109	1481.703	1487.7742	1493.3395	1499.0301	1500.4931	1508.26	1508.999	1730.9546	2990.6239	3010.5642	3026.5832	3027.4119	3028.1227	3035.9891	3049.5753	3073.8115	3074.1314	3087.5893	3099.2078	3101.6269	3101.7866	3104.8326	3825.7303
CCCC(CCC)=NO	CCCC(=NO)CCC	
InChI=1S/C7H15NO/c1-3-5-7(8-9)6-4-2/h9H,3-6H2,1-2H3	InChI=1S/C7H15NO/c1-3-5-7(8-9)6-4-2/h9H,3-6H2,1-2H3
