20
gdb 117495	2.13454	0.96702	0.70064	3.1088	87.16	-0.2383	-0.0355	0.2028	1667.0658	0.169195	-399.350842	-399.339954	-399.33901	-399.388137	37.503	
C	 0.0792469416	 1.5310620439	 0.0022788176	-0.409332
C	-0.0355532058	 0.0116533242	-0.0436092599	-0.102654
N	 0.6114836957	-0.5129337939	-1.2376478985	-0.349006
C	 0.6987784472	-1.8650129342	-1.4506421166	 0.319694
N	 0.3637791075	-2.7216532481	-0.5684512857	-0.300831
C	 0.5560008361	-4.1426798233	-0.7877029483	-0.155831
C	 1.5145948801	-4.7245480575	 0.255971453	-0.360411
C	 1.2386680735	-2.1994495203	-2.7676486125	 0.224917
N	 1.6525795194	-2.472775884	-3.8122232309	-0.335782
H	 1.1265598	 1.8477587058	 0.0072486596	 0.13216
H	-0.4151959627	 1.9951408368	-0.8588985024	 0.120734
H	-0.4001650126	 1.9176030144	 0.9052769933	 0.131407
H	 0.4472526472	-0.4441892195	 0.8259885643	 0.134512
H	-1.0888687404	-0.3018762722	-0.0071164557	 0.114452
H	 0.6253705007	 0.0759661313	-2.0554535888	 0.255398
H	-0.4230167446	-4.6271432724	-0.6795029225	 0.110532
H	 0.920985213	-4.3760031824	-1.7993578598	 0.111022
H	 2.5146223674	-4.2931596261	 0.1482816533	 0.119594
H	 1.158581881	-4.5079414826	 1.2670539337	 0.125321
H	 1.5946550055	-5.8096141998	 0.1380432068	 0.114105
44.1604	48.3877	105.6591	111.7789	142.5869	177.5553	241.5435	260.4636	327.3875	348.6866	352.4901	393.0382	441.6687	518.1004	645.5128	719.4523	784.1679	807.3069	819.6566	924.9537	956.0981	1055.9295	1081.4274	1119.5284	1159.2697	1171.9814	1185.3476	1274.3837	1289.9539	1311.1418	1380.7657	1383.2483	1404.0748	1416.0112	1488.1397	1491.2621	1493.2573	1498.7829	1511.7931	1520.9139	1526.0771	1710.4698	2342.6584	2989.6883	3005.3006	3036.2151	3036.7705	3040.0268	3076.8186	3106.696	3112.2609	3119.903	3124.3997	3632.7025
CCNC(=NCC)C#N	CCNC(=NCC)C#N	
InChI=1S/C6H11N3/c1-3-8-6(5-7)9-4-2/h3-4H2,1-2H3,(H,8,9)	InChI=1S/C6H11N3/c1-3-8-6(5-7)9-4-2/h3-4H2,1-2H3,(H,8,9)
