19
gdb 58214	2.78882	1.02958	0.87469	1.809	73.64	-0.2567	0.0193	0.2761	1363.0061	0.155089	-460.113967	-460.103216	-460.102272	-460.149646	39.308	
C	 0.5222932305	 0.4533956699	-0.7527144272	-0.423227
C	 0.0478590478	-0.0268240393	 0.6227563379	 0.141466
O	 0.0654607299	 1.0315973094	 1.5686688854	-0.44297
C	-1.3683998278	-0.6377289264	 0.6235169799	 0.067746
O	-2.3432730507	 0.3748752433	 0.3866703696	-0.438173
C	-1.543218226	-1.824661422	-0.3519585626	-0.099141
O	-0.4931005926	-2.7752698568	-0.1996435227	-0.416806
C	-2.8633593571	-2.4406842844	-0.2140406207	 0.294966
C	-3.924534293	-2.9825149979	-0.0562883266	-0.41621
H	 1.4726556823	 0.9796604454	-0.6368580297	 0.131961
H	 0.6741808973	-0.3815991006	-1.4436314066	 0.130084
H	-0.1866923796	 1.1593503933	-1.2029674696	 0.094891
H	 0.7461005457	-0.783454358	 0.9915311786	 0.095381
H	-0.7569923421	 1.5199826847	 1.4298910041	 0.282082
H	-1.5742313822	-0.9868170049	 1.6415567424	 0.100665
H	-2.3149079954	 0.6147635681	-0.5467507929	 0.28879
H	-1.4322024281	-1.4447985597	-1.3767507814	 0.113138
H	-0.6985923138	-3.3150603517	 0.5719344488	 0.291927
H	-4.868997915	-3.4522934624	 0.0689534232	 0.20343
56.8532	81.0099	119.8954	194.6418	228.0489	244.837	257.3537	279.2547	295.4352	310.5705	383.8898	426.9724	463.8912	494.7056	520.2332	589.2233	634.67	673.7529	676.4631	824.1091	922.4107	936.9761	1007.2706	1057.994	1069.9751	1097.2928	1113.8515	1149.6405	1204.4508	1271.6711	1284.3068	1294.8781	1365.4243	1376.0742	1404.1636	1411.282	1425.2838	1429.5818	1491.3773	1502.3151	2234.8947	3017.8648	3026.7148	3057.9712	3076.1014	3099.9474	3125.3045	3501.8893	3759.7672	3796.2696	3807.525
CC(O)C(O)C(O)C#C	C[C@@H](O)[C@@H](O)[C@@H](O)C#C	
InChI=1S/C6H10O3/c1-3-5(8)6(9)4(2)7/h1,4-9H,2H3	InChI=1S/C6H10O3/c1-3-5(8)6(9)4(2)7/h1,4-9H,2H3/t4-,5+,6-/m1/s1
