18
gdb 17546	4.42721	1.7554	1.63613	1.1679	70.49	-0.2306	0.0751	0.3057	851.7461	0.156604	-343.93722	-343.930606	-343.929662	-343.967758	26.763	
C	-0.6132167967	 1.2058707042	-0.0073449415	-0.289872
N	 0.860702075	 1.1372788298	 0.0466947688	-0.374157
C	 0.0869530231	-0.1041314266	 0.0034509658	 0.334202
C	 0.1112898269	-1.0355840594	 1.2139945364	-0.285724
C	-0.4879867582	-2.3222245957	 0.6729256743	-0.011429
C	-1.7412163191	-2.2206711507	-0.118426424	-0.247367
N	-0.4471291517	-2.3282210448	-0.8108019373	-0.098877
C	 0.1006182179	-1.0258765227	-1.222003088	-0.242915
H	-1.0831144865	 1.5818189273	 0.8983606073	 0.116925
H	-1.0883753778	 1.5291412872	-0.9310373091	 0.109529
H	 1.2512443735	 1.337542996	-0.8719885847	 0.230531
H	 1.1460345708	-1.2043114983	 1.5334087984	 0.114861
H	-0.4355181184	-0.6286188134	 2.0695525674	 0.109304
H	-0.2344815074	-3.2590586688	 1.1603410833	 0.090864
H	-2.3827907266	-3.0897087532	-0.2306028688	 0.11466
H	-2.2639985549	-1.2669572901	-0.1333944367	 0.114816
H	-0.4604877806	-0.6194615354	-2.070484311	 0.105735
H	 1.1341505508	-1.1943058654	-1.5523545305	 0.108914
109.0071	261.1554	317.0249	365.3216	392.522	399.6631	531.4174	648.6888	757.6262	773.8088	820.2563	866.276	902.7477	915.2343	943.0282	946.3109	978.624	989.152	1028.727	1064.6253	1092.3838	1110.2075	1116.3927	1138.2187	1171.0096	1187.871	1227.2229	1264.5569	1273.1236	1294.9186	1305.8911	1330.605	1383.9791	1413.6982	1487.0697	1493.5132	1504.6948	1512.5926	3016.97	3043.6431	3069.2767	3088.669	3095.0312	3105.578	3149.6825	3180.0537	3191.6899	3481.5807
C1NC11CC2CN2C1	C1N[C@]21C[C@H]1CN1C2	
InChI=1S/C6H10N2/c1-5-2-8(5)4-6(1)3-7-6/h5,7H,1-4H2	InChI=1S/C6H10N2/c1-5-2-8(5)4-6(1)3-7-6/h5,7H,1-4H2/t5-,6-,8?/m0/s1
