19
gdb 121338	3.38802	0.92566	0.76302	1.4874	71.52	-0.2446	-0.0302	0.2145	1463.0234	0.158574	-460.174907	-460.165681	-460.164737	-460.209712	33.107	
O	 0.1765783869	 1.4406575674	 0.3880891726	-0.418011
C	 0.1143380122	 0.0357958237	 0.1978838373	-0.075871
C	-1.3242002506	-0.4564921285	 0.0022937008	-0.220421
C	-1.4325913326	-1.9790587759	-0.1250809261	-0.118131
C	-2.8441012978	-2.5735558927	-0.0178977854	-0.112973
O	-2.7803773501	-3.8382898176	-0.6782669666	-0.24766
C	-1.9471384898	-3.68575062	-1.809350467	-0.176337
C	-0.9851322021	-2.5412041615	-1.4786052314	 0.359794
O	-0.0867680891	-2.1473631371	-2.1765813894	-0.305118
H	-0.0013796149	 1.8594712827	-0.4596643882	 0.28325
H	 0.7382680155	-0.2921031459	-0.6425999185	 0.123535
H	 0.5308599177	-0.4066879418	 1.1106728953	 0.106737
H	-1.9247049497	-0.1141189823	 0.8535855402	 0.110371
H	-1.7503016466	 0.0147769433	-0.8936474426	 0.094635
H	-0.7994203978	-2.4647669123	 0.6327989663	 0.113975
H	-3.1728069934	-2.7523004065	 1.0077326242	 0.122522
H	-3.5778322037	-1.9124831588	-0.5089907522	 0.096864
H	-1.4161989352	-4.6214698323	-2.0083870556	 0.140953
H	-2.516408279	-3.4160290737	-2.7151362038	 0.121886
67.5921	87.0318	105.4495	157.5396	220.5772	261.0656	289.0759	328.514	384.2122	478.3992	576.8036	630.4534	662.8965	733.0398	790.9914	930.281	955.1334	971.6433	998.4392	1048.8129	1073.2036	1092.1007	1097.4457	1114.8952	1148.0667	1183.6781	1211.0932	1240.9849	1273.6415	1294.5187	1319.913	1328.7319	1347.7271	1393.2029	1405.1415	1419.1512	1475.6541	1485.1462	1517.26	1517.952	1849.0356	2966.147	2972.4979	3002.7718	3017.0573	3029.6076	3054.2474	3081.318	3085.5574	3108.7929	3821.6231
OCCC1COCC1=O	OCC[C@H]1COCC1=O	
InChI=1S/C6H10O3/c7-2-1-5-3-9-4-6(5)8/h5,7H,1-4H2	InChI=1S/C6H10O3/c7-2-1-5-3-9-4-6(5)8/h5,7H,1-4H2/t5-/m0/s1
