13
gdb 27850	2.1357	1.86192	0.99493	5.8384	66.03	-0.2329	-0.0295	0.2034	1079.6645	0.090001	-489.970369	-489.962743	-489.961799	-490.002475	28.817	
N	 0.0572508227	 1.3380446886	-0.083008092	-0.562174
C	-0.0632099671	-0.0073954201	-0.033473589	 0.512546
C	-1.2489221266	-0.7016742041	-0.0163615746	-0.377509
C	-1.1166707797	-2.1007002642	-0.0043813333	 0.466398
O	-2.2424578649	-2.8208034393	 0.0112117598	-0.397784
N	 0.0168924725	-2.7688779229	-0.005861899	-0.456814
C	 1.1887298266	-2.102524899	-0.0192192896	 0.440114
O	 2.3040117866	-2.5240757863	-0.021005775	-0.337123
O	 1.1057435851	-0.6296879428	-0.030541323	-0.26416
H	 0.9690632658	 1.7338789011	 0.0752695601	 0.280863
H	-0.7469846364	 1.9152252196	 0.0908817334	 0.276956
H	-2.2120073147	-0.2153519116	-0.0190507907	 0.110673
H	-1.96357967	-3.7494049191	 0.0178044627	 0.308016
124.4423	172.5032	212.5139	274.8684	314.1364	379.4272	456.727	499.6112	530.5608	601.0908	602.8956	634.2159	707.2923	727.2389	774.0361	775.9978	792.648	978.3186	1049.4116	1069.6433	1162.9765	1228.7603	1308.9529	1452.2439	1502.4868	1601.6853	1641.5162	1681.2547	1905.7652	3248.6985	3613.8628	3739.2852	3740.6627
NC1=CC(O)=NC(=O)O1	Nc1cc(O)nc(=O)o1	
InChI=1S/C4H4N2O3/c5-2-1-3(7)6-4(8)9-2/h1H,5H2,(H,6,7,8)	InChI=1S/C4H4N2O3/c5-2-1-3(7)6-4(8)9-2/h1H,5H2,(H,6,7,8)
