16
gdb 34167	3.76992	1.58701	1.38517	4.4357	76.17	-0.2637	0.0204	0.2841	930.3222	0.126522	-363.554934	-363.54863	-363.547686	-363.585489	26.1	
N	 0.035194823	-1.1088536427	-0.0221352372	-0.347263
C	-0.0047586395	 0.0475425677	-0.0039125395	 0.147007
C	-0.0660115949	 1.4840779806	 0.0169122097	 0.234836
C	-1.0671931347	 2.2729045593	 0.9063682663	-0.287387
C	-0.8265953111	 3.4191502505	-0.1031784291	-0.072893
C	 0.6906276937	 3.7217083183	-0.1038204707	-0.076336
C	 0.9671233912	 2.9335877688	-1.3655067663	-0.09435
C	 1.2553751159	 2.3032390027	-0.0241814202	-0.115425
C	-0.4794187671	 2.3772758381	-1.2329745656	-0.097676
H	-2.0764504219	 1.8595364713	 0.8248624831	 0.119622
H	-0.8025732651	 2.425818375	 1.955735564	 0.111075
H	-1.5293066629	 4.2385746094	-0.2382189673	 0.080808
H	 1.2155014593	 4.5768151659	 0.2999479311	 0.097943
H	 1.611939943	 3.1285130463	-2.2106034389	 0.100333
H	 2.2013923761	 2.0548305828	 0.4357087539	 0.105939
H	-1.156579225	 2.039520496	-2.0117770233	 0.093767
151.7436	162.4419	395.4517	473.2869	511.2487	543.509	573.7822	733.5655	746.6212	788.9119	795.073	831.3409	851.9204	868.0782	907.1682	909.8632	951.6801	998.0604	1006.1286	1014.0509	1036.8774	1043.2657	1067.8837	1106.9819	1139.7108	1178.6843	1182.651	1214.435	1222.7035	1235.7508	1275.3784	1301.7115	1354.8114	1486.7898	2346.1648	3058.508	3120.5933	3140.7953	3166.9507	3205.4348	3211.5407	3225.0993
N#CC12CC3C4C(C14)C23	N#C[C@@]12C[C@H]3[C@@H]4[C@@H]([C@H]14)[C@@H]23	
InChI=1S/C8H7N/c9-2-8-1-3-4-5(6(3)8)7(4)8/h3-7H,1H2	InChI=1S/C8H7N/c9-2-8-1-3-4-5(6(3)8)7(4)8/h3-7H,1H2/t3-,4+,5+,6-,7+,8+/m0/s1
