20
gdb 68363	2.72104	1.59564	1.20813	3.9914	79.11	-0.2347	0.0334	0.2681	1082.2189	0.172691	-403.192246	-403.184274	-403.18333	-403.224402	32.257	
C	-0.0918747129	 1.5189972486	-0.0195962012	-0.502103
C	 0.0610364296	 0.0131108984	 0.0003315581	 0.34246
C	 1.1332555675	-0.6909944025	-0.8862550886	-0.24876
C	 1.1292008821	-1.8090639331	 0.1966419849	-0.042344
C	 0.7233436463	-0.7048227413	 1.2158138386	-0.248783
C	-0.0584369506	-2.7505603356	-0.0411579679	-0.321173
C	-1.3721199325	-1.9944414818	-0.2921369562	 0.390617
O	-2.4321708618	-2.5509375943	-0.5024176111	-0.383633
N	-1.229070513	-0.6350628381	-0.255544822	-0.327222
H	 0.8695476607	 2.0026771278	 0.1710756977	 0.125488
H	-0.4581262324	 1.8640787838	-0.9932700514	 0.125615
H	-0.7979719437	 1.8526374537	 0.7494139574	 0.125605
H	 0.8442067966	-0.9502956902	-1.9082736844	 0.099525
H	 2.0751054425	-0.1359741656	-0.8930162973	 0.098968
H	 2.0554841256	-2.3595145575	 0.3736461433	 0.06933
H	 1.5922790354	-0.1522655772	 1.5829739296	 0.098971
H	 0.0721382728	-0.9763450867	 2.0509887236	 0.099523
H	 0.112805178	-3.4004546896	-0.9064404904	 0.128232
H	-0.2230844536	-3.4119805538	 0.8166344353	 0.128225
H	-2.0577805168	-0.0815772951	-0.413168408	 0.241459
80.4352	222.8147	236.6931	273.5584	363.3142	384.6487	417.3508	454.8784	477.5976	491.2934	606.9467	610.5766	647.7853	812.0566	825.3309	866.3568	877.9882	911.9479	912.9795	985.3629	1018.9612	1019.3494	1025.6057	1081.8924	1101.1209	1130.846	1191.0563	1215.0731	1223.6967	1255.6034	1281.7083	1282.3094	1313.362	1330.9038	1376.7495	1413.2352	1438.6816	1462.5	1472.1489	1490.7194	1496.0076	1506.1023	1800.116	3028.6443	3046.4428	3051.1307	3057.4553	3084.7831	3084.868	3092.4896	3113.5527	3114.6861	3120.1719	3620.6699
CC12CC(C1)CC(=O)N2	C[C@@]12C[C@@H](C1)CC(=O)N2	
InChI=1S/C7H11NO/c1-7-3-5(4-7)2-6(9)8-7/h5H,2-4H2,1H3,(H,8,9)	InChI=1S/C7H11NO/c1-7-3-5(4-7)2-6(9)8-7/h5H,2-4H2,1H3,(H,8,9)/t5-,7+
