20
gdb 22595	2.70204	1.23345	1.03979	1.4856	84.46	-0.2318	0.0384	0.2702	1249.1519	0.169341	-403.057612	-403.048313	-403.047369	-403.091224	35.351	
C	-0.1668221858	 1.5364800632	-0.0246685689	-0.446023
C	 0.0376147655	 0.0277916547	-0.0033343071	 0.012096
C	 1.2400141378	-0.6485681273	-0.7670753479	-0.158828
C	 2.1750084	-0.1432998454	 0.3850211942	-0.279368
C	 0.8939146685	-0.6713964353	 1.135033188	 0.226291
C	 0.6240738242	-0.7085765596	 2.6120127361	-0.517449
C	 0.9797091133	-1.8256865961	 0.1536992318	 0.47039
N	 0.8729571607	-3.0790921643	 0.2132001453	-0.334919
O	 1.0597405595	-3.6683238675	-1.0684070181	-0.406075
H	 0.7503820042	 2.1115991949	 0.1200141456	 0.121098
H	-0.600007416	 1.8424403302	-0.9829805816	 0.123706
H	-0.8713624791	 1.832791322	 0.7603567216	 0.122321
H	-0.9193957966	-0.4740015677	-0.1799137918	 0.08135
H	 1.4361670318	-0.6567968504	-1.8359969857	 0.092916
H	 3.0962990693	-0.7062529223	 0.5474643306	 0.108841
H	 2.356826097	 0.9308920415	 0.4301850698	 0.099668
H	 0.6017578686	 0.3019267335	 3.0331643861	 0.120492
H	-0.3391209542	-1.1856664421	 2.8198536409	 0.130739
H	 1.3986735383	-1.2774707458	 3.136055414	 0.131496
H	 0.9548984831	-4.6039974862	-0.867150513	 0.301259
115.5102	150.9028	166.8889	178.0046	190.0728	264.2692	305.6839	341.6245	369.9991	404.4967	492.8192	589.5815	643.2721	701.7654	728.9439	760.3009	803.417	857.5732	902.3995	934.9149	1001.0065	1013.161	1023.1871	1067.4084	1076.6402	1101.7769	1116.5752	1151.8666	1188.5249	1199.4058	1221.6252	1225.0838	1340.3147	1399.4541	1407.1143	1412.8525	1425.047	1486.6495	1489.4607	1494.0112	1496.1311	1528.1443	1825.6786	3034.0057	3035.9418	3051.3922	3074.889	3093.0484	3102.6564	3105.1572	3119.7972	3141.9194	3157.3391	3822.4231
CC1C2CC1(C)C2=NO	C[C@H]1[C@H]2C[C@]1(C)C2=NO	
InChI=1S/C7H11NO/c1-4-5-3-7(4,2)6(5)8-9/h4-5,9H,3H2,1-2H3	InChI=1S/C7H11NO/c1-4-5-3-7(4,2)6(5)8-9/h4-5,9H,3H2,1-2H3/t4-,5+,7-/m0/s1
