19
gdb 63486	3.30954	1.06259	0.93767	1.5875	78.18	-0.2447	0.0482	0.2929	1301.0992	0.154775	-422.976591	-422.966419	-422.965475	-423.011145	38.504	
C	-0.0011959336	 1.5094410493	-0.1266382038	-0.44145
C	 0.0277456855	 0.0067210965	 0.027461196	 0.32665
O	-1.1206058709	-0.6476854695	-0.455590912	-0.46263
C	 1.3438461673	-0.7535508998	-0.0714320832	-0.406287
C	 0.6125132575	-0.6213960412	 1.25508698	 0.376853
O	 1.12740165	 0.2726145158	 2.198640694	-0.473682
C	-0.0528908953	-1.8476957299	 1.8729686724	-0.400112
C	 0.8975364877	-2.5934933932	 2.6934124462	 0.273325
C	 1.7199673859	-3.1510021283	 3.3716129663	-0.436855
H	 0.8575276782	 1.9705589601	 0.3631645996	 0.13835
H	 0.0121332523	 1.7861221223	-1.1879368833	 0.10328
H	-0.9140116466	 1.9154642264	 0.3200548223	 0.127417
H	-1.1155067413	-0.5764803864	-1.416582806	 0.28298
H	 1.3282709989	-1.7184231746	-0.5670568597	 0.111289
H	 2.2549700372	-0.1774565275	-0.1915224284	 0.112635
H	 1.7830824051	-0.2131020866	 2.7155077368	 0.287164
H	-0.8943711416	-1.517018158	 2.4943466715	 0.139434
H	-0.4709206787	-2.4797725088	 1.0856676891	 0.144774
H	 2.4245379624	-3.6757096867	 3.9681263723	 0.196867
61.989	108.1258	180.1018	207.897	212.9303	271.4116	292.9277	340.2723	364.1574	390.4708	408.9665	422.6182	444.0965	486.626	587.5928	619.6189	653.9711	706.6722	790.0302	898.4667	909.2638	914.918	957.866	971.282	984.243	1028.3563	1087.0835	1118.7597	1200.3487	1228.8303	1283.6668	1296.8473	1313.0214	1346.018	1409.1006	1420.8372	1462.769	1484.3344	1486.7046	1521.7547	2231.3116	3029.9609	3037.9232	3095.5799	3103.0166	3129.0264	3145.1252	3225.0716	3505.293	3765.2055	3795.738
CC1(O)CC1(O)CC#C	C[C@@]1(O)C[C@]1(O)CC#C	
InChI=1S/C7H10O2/c1-3-4-7(9)5-6(7,2)8/h1,8-9H,4-5H2,2H3	InChI=1S/C7H10O2/c1-3-4-7(9)5-6(7,2)8/h1,8-9H,4-5H2,2H3/t6-,7-/m1/s1
