17
gdb 77044	3.21322	1.03162	0.84123	4.0041	74.46	-0.2706	0.0071	0.2777	1349.0165	0.133798	-421.823353	-421.814196	-421.813252	-421.857878	32.934	
C	-0.225363066	 1.5556164498	 0.1707586353	-0.412438
C	-0.0662495728	 0.0476069194	 0.0171263222	-0.219976
C	 0.5472867538	-0.5805397952	-1.2620833596	 0.129935
C	 1.0995893214	 0.3417750221	-2.3464576493	-0.377087
C	 1.7788746597	-0.3882138659	-3.4094719896	 0.290835
C	 2.3263907569	-1.0056281252	-4.2820943376	-0.413163
O	 1.6197890123	-1.17441744	-0.4542125716	-0.250804
C	 1.1407300476	-0.6042863581	 0.6992915535	 0.455386
O	 1.6057919883	-0.6682161138	 1.791015526	-0.322236
H	 0.68749656	 2.0965334994	-0.0924887543	 0.132217
H	-1.0408707858	 1.9316690047	-0.4544164614	 0.12814
H	-0.4607166101	 1.7939467142	 1.2115539837	 0.14502
H	-0.9897890931	-0.460644256	 0.3107336398	 0.119628
H	-0.0511870944	-1.3780003919	-1.7086650569	 0.109707
H	 0.263934563	 0.9177359559	-2.7657717349	 0.139601
H	 1.7856385138	 1.0660530408	-1.8927505404	 0.143171
H	 2.8207259154	-1.5463942201	-5.050756125	 0.202064
60.6923	94.2895	115.9443	183.0222	208.5253	234.2491	331.4825	351.2803	439.3214	500.7241	544.2602	628.2023	652.064	684.6589	748.1811	811.1687	854.2752	892.0031	956.0229	984.6875	1037.3785	1070.4927	1112.0527	1152.215	1159.6407	1222.5002	1233.5441	1283.9687	1339.1334	1357.7065	1399.8332	1414.253	1454.8726	1495.6577	1499.083	1937.271	2245.713	3024.2886	3045.0948	3063.5979	3069.9675	3092.6165	3115.7703	3122.3431	3506.5224
CC1C(CC#C)OC1=O	C[C@H]1[C@@H](CC#C)OC1=O	
InChI=1S/C7H8O2/c1-3-4-6-5(2)7(8)9-6/h1,5-6H,4H2,2H3	InChI=1S/C7H8O2/c1-3-4-6-5(2)7(8)9-6/h1,5-6H,4H2,2H3/t5-,6+/m0/s1
