20
gdb 54383	3.93563	1.07149	0.97925	3.5395	80.69	-0.2356	0.0294	0.265	1274.8572	0.170488	-403.144725	-403.135399	-403.134455	-403.180043	34.69	
C	-0.0655985253	 1.4553027482	-0.0527684765	-0.507582
C	 0.0191445857	-0.0443127552	 0.0382053502	 0.315731
C	 0.4958696206	-1.0382630603	-1.0672702791	-0.274874
C	 0.1152896857	-1.9271437133	 0.1542214704	 0.275498
C	 0.8691863824	-0.889422638	 1.0384454221	-0.274879
C	-1.1542054552	-1.0385123739	 0.3165068296	-0.332375
C	 0.2876472931	-3.4203192313	 0.2291741279	 0.25859
N	-0.8543959661	-4.1234940878	 0.4817746146	-0.535698
O	 1.3711451005	-3.9520357003	 0.0743313504	-0.369939
H	 0.9179450778	 1.8917600795	-0.2579986351	 0.121752
H	-0.7439207419	 1.7641917734	-0.855774908	 0.118747
H	-0.4355140552	 1.8871498626	 0.8837269574	 0.118745
H	-0.1401772388	-1.1329407612	-1.9525397618	 0.088674
H	 1.5555139169	-1.0151410494	-1.331210742	 0.105678
H	 1.9543008949	-0.8561468208	 0.9181586928	 0.105677
H	 0.5768661617	-0.8470815564	 2.0919993511	 0.088674
H	-1.6022376044	-0.9940519216	 1.3146276258	 0.088479
H	-1.9176279461	-1.1198144847	-0.4642138277	 0.088487
H	-1.7424749969	-3.6722137434	 0.6075322727	 0.261726
H	-0.7989398993	-5.1269901361	 0.5429224852	 0.25889
16.4452	102.8717	138.918	154.8203	206.3426	301.5992	322.4279	361.6472	462.2961	528.6778	563.9863	590.777	618.7092	650.6149	733.7966	792.3509	806.5927	922.5778	962.0976	967.2857	968.6531	992.4574	1065.1063	1072.0854	1080.848	1088.7475	1132.2148	1144.326	1160.5843	1162.7241	1206.6212	1207.2324	1251.5911	1325.3377	1393.9028	1413.415	1489.4284	1489.8518	1496.9882	1498.2315	1559.2514	1610.4978	1788.6915	3025.4731	3030.629	3046.8248	3053.5672	3092.7624	3094.8779	3095.481	3119.3102	3123.5616	3603.9857	3745.2994
CC12CC(C1)(C2)C(N)=O	C[C@@]12C[C@@](C1)(C2)C(=O)N	
InChI=1S/C7H11NO/c1-6-2-7(3-6,4-6)5(8)9/h2-4H2,1H3,(H2,8,9)	InChI=1S/C7H11NO/c1-6-2-7(3-6,4-6)5(8)9/h2-4H2,1H3,(H2,8,9)/t6-,7-
