20
gdb 82980	2.59163	1.87141	1.54417	1.5998	76.45	-0.2115	0.0615	0.273	953.7096	0.174514	-403.118355	-403.111184	-403.110239	-403.149709	29.526	
O	 0.0530356684	 1.4171511247	 0.23237734	-0.419877
C	 0.0332861741	 0.02464608	 0.0195021824	 0.100598
C	-1.3708597722	-0.5920720241	-0.0184438342	 0.004433
C	-2.450711532	 0.2148524989	-0.7724772543	-0.274992
C	-2.0647211443	-0.5967956197	-2.0436945939	 0.033647
C	-1.3406111856	 0.1370413876	-3.16721937	-0.21327
C	 0.0518995291	 0.4626833142	-2.5780123367	-0.242134
C	 0.2410752497	-0.5453632126	-1.4261704934	-0.039901
N	-1.0193964958	-1.3739064637	-1.278413089	-0.147224
H	 0.9676785175	 1.7017470226	 0.3242414333	 0.287651
H	 0.6748598236	-0.4917851761	 0.7447145769	 0.073731
H	-1.6947517056	-1.1528456575	 0.8615116261	 0.068559
H	-3.4677125859	 0.0383827956	-0.4171601989	 0.101361
H	-2.2755991166	 1.2922365591	-0.8144842667	 0.118772
H	-2.864500126	-1.2439288872	-2.4144872728	 0.069619
H	-1.2433880414	-0.5286235382	-4.0318626027	 0.10374
H	-1.8820319635	 1.0281501799	-3.4990439605	 0.101391
H	 0.8410085751	 0.3774835336	-3.3287978069	 0.096464
H	 0.0840464797	 1.4814385596	-2.1813422005	 0.112189
H	 1.1336242219	-1.1644052067	-1.5475443281	 0.065244
109.8195	221.2094	252.4629	277.178	335.1006	476.3374	555.2595	619.4504	626.8658	683.4552	735.4409	795.614	819.1228	845.2876	874.4841	892.803	935.7539	966.4958	988.1067	1014.6209	1031.8877	1043.9076	1074.4842	1095.2393	1113.4916	1160.6284	1179.1517	1198.8251	1216.1586	1231.7044	1241.653	1263.1294	1282.329	1299.5944	1312.7165	1327.3147	1336.9504	1363.3967	1372.4801	1430.5333	1483.2562	1483.8368	1508.8016	3014.1523	3040.1977	3057.6939	3060.8098	3066.4797	3068.2521	3077.6461	3086.6805	3107.8299	3124.8747	3821.6231
OC1C2CC3CCC1N23	O[C@H]1[C@H]2C[C@H]3CC[C@@H]1N23	
InChI=1S/C7H11NO/c9-7-5-2-1-4-3-6(7)8(4)5/h4-7,9H,1-3H2	InChI=1S/C7H11NO/c9-7-5-2-1-4-3-6(7)8(4)5/h4-7,9H,1-3H2/t4-,5+,6-,7-/m1/s1
