16
gdb 25634	3.57593	0.98276	0.77615	3.8441	85.9	-0.1861	0.0251	0.2112	1437.5817	0.125332	-396.946818	-396.937737	-396.936793	-396.982009	32.181	
C	-0.0083938109	 1.4536457967	 0.0528713499	-0.511001
C	 0.0092790511	-0.0009677807	 0.052896968	 0.246576
C	-0.0007123803	-1.2088831657	 0.0543963184	-0.165208
C	 0.0307986151	-2.6217198472	 0.0523520054	 0.125512
C	 1.1600584986	-3.4035828824	-0.111478949	 0.19841
N	 2.4904434312	-3.0802807429	-0.3835998996	-0.618966
N	 0.7208499127	-4.7018496748	-0.0477077728	-0.27605
C	-0.6399499564	-4.6604543122	 0.1480967571	-0.022538
N	-1.0866581024	-3.4368529363	 0.2079671024	-0.313651
H	 0.6242874099	 1.8677656791	 0.8468055156	 0.14234
H	 0.3445184258	 1.8641280155	-0.9005726403	 0.143587
H	-1.0251931938	 1.8284033359	 0.215017143	 0.153693
H	 2.5816074861	-2.0746449809	-0.4778551781	 0.258119
H	 3.1335994097	-3.3942470142	 0.3369719396	 0.247499
H	 1.288052409	-5.5180539908	-0.2053860838	 0.265944
H	-1.2290616354	-5.559403309	 0.2500353643	 0.125734
24.3094	81.8821	109.0097	222.5423	249.5641	264.9182	299.8216	379.3418	477.0773	490.0958	492.8714	572.5176	654.6723	716.1877	739.3439	782.8194	830.2765	942.3446	1004.3541	1050.7178	1053.8744	1082.2651	1106.8648	1178.4913	1286.7863	1333.214	1393.4276	1413.4973	1475.0755	1479.5307	1486.4474	1542.5274	1612.0421	1659.2063	2350.3886	3019.6574	3073.8485	3085.1461	3251.901	3495.3874	3588.1782	3661.9603
CC#CC1=C(N)NC=N1	CC#Cc1c(N)[nH]cn1	
InChI=1S/C6H7N3/c1-2-3-5-6(7)9-4-8-5/h4H,7H2,1H3,(H,8,9)	InChI=1S/C6H7N3/c1-2-3-5-6(7)9-4-8-5/h4H,7H2,1H3,(H,8,9)
