18
gdb 11813	3.57033	1.67546	1.3346	2.7552	73.81	-0.2321	-0.0165	0.2156	978.6508	0.152951	-347.808255	-347.800161	-347.799217	-347.840974	30.006	
C	-0.6959594385	 1.3092059689	 0.1612749579	-0.402136
C	 0.044950094	-0.0056747852	-0.0568362599	-0.089161
C	 0.9819532604	-0.1475338522	-1.3082625013	-0.357084
C	 2.1575444565	-0.4779609482	-0.3723729904	 0.24646
C	 3.2112287766	-1.560746969	-0.4825726248	-0.307775
C	 3.6243527541	-0.1243449009	-0.471460418	-0.309148
C	 1.2873702525	-0.2534380256	 0.8292853073	 0.339821
O	 1.4855762827	-0.2364556158	 2.0134383359	-0.32341
H	-0.0180645303	 2.1641302777	 0.0657727314	 0.119399
H	-1.5016668746	 1.4344117604	-0.5690509196	 0.119018
H	-1.1338079835	 1.3399260245	 1.1634415345	 0.13556
H	-0.6490886235	-0.85012769	 0.0296144894	 0.101545
H	 0.7012799416	-0.9370593514	-2.008921787	 0.106036
H	 1.1049422591	 0.7886164259	-1.8602980481	 0.10688
H	 3.3913183838	-2.1574735362	 0.4054504458	 0.134438
H	 3.256875777	-2.1048676071	-1.4202334127	 0.122159
H	 3.9593936473	 0.324346563	-1.4007592176	 0.121947
H	 4.087131235	 0.2727898211	 0.4259887373	 0.135451
49.8487	175.3438	199.4884	212.9367	214.7866	270.4762	356.1528	481.2194	553.4074	700.6066	716.7313	779.4943	811.4727	824.6385	885.2552	911.5703	934.2587	954.1913	1023.8033	1054.0669	1072.4726	1083.7959	1099.7695	1129.1915	1170.5547	1198.8161	1209.8994	1247.2272	1256.7814	1325.793	1366.6146	1407.0134	1457.7628	1488.9029	1489.9061	1495.9568	1496.7584	1872.6288	3033.6012	3041.552	3058.7075	3101.2407	3110.4935	3113.1737	3128.9608	3130.9799	3212.1926	3227.1473
CC1CC2(CC2)C1=O	C[C@H]1CC2(CC2)C1=O	
InChI=1S/C7H10O/c1-5-4-7(2-3-7)6(5)8/h5H,2-4H2,1H3	InChI=1S/C7H10O/c1-5-4-7(2-3-7)6(5)8/h5H,2-4H2,1H3/t5-/m0/s1
