19
gdb 114724	2.85067	1.37751	1.09971	4.1287	74.85	-0.2473	-0.026	0.2213	1138.4798	0.16062	-423.044234	-423.036137	-423.035193	-423.07724	31.307	
O	 0.3140336666	 1.1433819305	 0.3826583469	-0.426694
C	 0.0730046032	-0.2375651104	 0.2617508516	-0.062283
C	-1.4057573667	-0.5382984629	-0.0521750114	-0.122537
C	-1.7704190342	-2.0156560002	-0.3370106232	-0.274935
C	-2.8238027035	-2.4209791613	 0.7009297102	-0.037778
C	-2.3789942173	-2.3995388957	 2.1245041467	-0.28265
C	-3.1612118136	-1.2141441952	 1.558277071	-0.137847
C	-2.3054940872	-0.0824703406	 1.1050173787	 0.405152
O	-2.2998729897	 1.0411292572	 1.5649949671	-0.358185
H	-0.399978899	 1.5056970459	 0.9283470857	 0.297041
H	 0.7022715203	-0.607207861	-0.5560268419	 0.106911
H	 0.3741087131	-0.7880145009	 1.171403196	 0.082468
H	-1.6719565156	 0.093619975	-0.9074272996	 0.118962
H	-2.1777928295	-2.119535733	-1.3459290389	 0.113855
H	-0.8925908237	-2.6700730036	-0.2813933469	 0.110656
H	-3.6006619133	-3.1170052601	 0.4074365176	 0.098054
H	-2.9166168155	-3.0049208399	 2.8454189417	 0.129621
H	-1.3239889671	-2.274451242	 2.34839823	 0.128395
H	-4.1398593571	-1.0001815618	 1.9682201184	 0.111793
52.8582	152.7317	196.239	207.3761	324.2139	354.5426	402.884	467.5385	538.1293	590.0969	649.3938	693.7688	774.8696	803.4853	830.526	882.6402	920.8631	952.9493	962.5934	1024.9345	1053.2164	1068.5683	1083.5143	1097.463	1104.8213	1122.4634	1185.1721	1199.4667	1207.0199	1226.6242	1279.5239	1295.1104	1330.4589	1341.5185	1376.3592	1378.2985	1463.9693	1487.9946	1502.1245	1516.6551	1794.4234	2938.8425	3039.5556	3043.1273	3055.9225	3091.0846	3129.7635	3180.2076	3199.9572	3218.5924	3709.7196
OCC1CC2CC2C1=O	OC[C@H]1C[C@H]2C[C@H]2C1=O	
InChI=1S/C7H10O2/c8-3-5-1-4-2-6(4)7(5)9/h4-6,8H,1-3H2	InChI=1S/C7H10O2/c8-3-5-1-4-2-6(4)7(5)9/h4-6,8H,1-3H2/t4-,5+,6+/m0/s1
