16
gdb 43987	3.16206	1.5983	1.37796	2.2164	69.07	-0.2449	-0.0267	0.2181	948.4484	0.125902	-437.844086	-437.837128	-437.836184	-437.875496	27.247	
O	-0.0527361981	 0.0126008945	 0.1037620075	-0.302154
C	-0.0357957757	 1.1977468025	-0.0642515062	 0.357545
C	-1.1683109461	 2.2637916987	-0.1912407773	-0.424531
C	-0.0704747984	 3.2993549548	 0.12498782	 0.199182
C	 0.207578063	 4.1528705766	 1.338530346	-0.128176
O	 1.5645159815	 3.877788894	 1.7006571694	-0.257333
C	 1.951861139	 2.5575867506	 1.2834576926	-0.137829
C	 1.0363395797	 2.2457757563	 0.1293829284	 0.059772
N	 0.9541821022	 3.310320756	-0.8861968849	-0.35048
H	-1.6922665986	 2.3942678281	-1.1415390585	 0.127146
H	-1.9039267327	 2.105759806	 0.603086765	 0.142341
H	 0.1410184261	 5.2302649828	 1.1634646987	 0.125958
H	-0.494393267	 3.8799718476	 2.1422369172	 0.100515
H	 3.0135091456	 2.6064829988	 1.0296989281	 0.127517
H	 1.8064544143	 1.8175972422	 2.0837165402	 0.112715
H	 0.6178447852	 2.9629856306	-1.7810198364	 0.247813
99.1129	197.2198	240.5408	319.7574	401.8	463.0595	541.5529	585.6031	599.9468	677.7242	704.2348	801.5739	848.6011	889.9675	906.2489	931.1418	1003.5575	1025.7746	1056.3281	1078.9781	1089.0003	1114.4368	1134.6357	1201.383	1202.9557	1218.2579	1260.0211	1297.7183	1379.7348	1389.3367	1406.446	1460.7305	1503.2754	1511.766	1870.5241	2984.9262	3007.1409	3060.0789	3087.6049	3098.4409	3113.9977	3499.5564
O=C1CC23COCC12N3	O=C1C[C@@]23COC[C@@]12N3	
InChI=1S/C6H7NO2/c8-4-1-5-2-9-3-6(4,5)7-5/h7H,1-3H2	InChI=1S/C6H7NO2/c8-4-1-5-2-9-3-6(4,5)7-5/h7H,1-3H2/t5-,6-/m1/s1
