21
gdb 98433	3.06409	1.05734	0.95812	3.1584	78.93	-0.2589	-0.0235	0.2355	1330.4186	0.181105	-424.234709	-424.225083	-424.224139	-424.269624	35.86	
C	-0.0513775974	 1.5600773302	-0.0257738014	-0.475367
C	-0.03871349	 0.0293089684	-0.0004167952	 0.243567
C	 1.1023710846	-0.5761989036	-0.9086645777	-0.253696
C	 1.9632268493	-0.7911377201	 0.3634512973	-0.210784
C	 0.6991402987	-0.5674090668	 1.2342885263	-0.261176
C	-1.3886246968	-0.5858843851	-0.3083214217	 0.293724
O	-1.7916870965	-1.5927953815	 0.2412612621	-0.336412
C	-2.2594891878	 0.0264695712	-1.4038929486	-0.140156
O	-3.3692425127	-0.7761559087	-1.6725746091	-0.42251
H	 0.9497910504	 1.9469435046	 0.1882807291	 0.124066
H	-0.3504582712	 1.9533446605	-1.0024329779	 0.126306
H	-0.7311610767	 1.9667289792	 0.7308971105	 0.126385
H	 0.8032801671	-1.5195153444	-1.3725975344	 0.11698
H	 1.4940987739	 0.0884433666	-1.6829740967	 0.104031
H	 2.4614274731	-1.7580038845	 0.4569565533	 0.106767
H	 2.7126137742	-0.0066283277	 0.4949475592	 0.105824
H	 0.7957407677	 0.0950347585	 2.0980552908	 0.098092
H	 0.2313060811	-1.500813096	 1.550264286	 0.129352
H	-2.5639983173	 1.0347341073	-1.0765102336	 0.116827
H	-1.6447802986	 0.1705840323	-2.3074378253	 0.115775
H	-3.3181971248	-1.4925636103	-1.0182777729	 0.292403
39.0228	103.4077	123.5291	200.4124	217.1844	275.0044	311.9108	328.6283	358.7101	409.8781	458.7795	527.7321	575.0873	693.8477	770.6388	791.2152	846.3671	884.7646	897.457	937.1093	950.6876	993.0328	1002.5728	1028.9266	1072.5669	1146.0958	1156.249	1196.8629	1216.6896	1242.5406	1257.3562	1264.2812	1276.4069	1281.7812	1300.7802	1332.7641	1413.6996	1453.8668	1473.4623	1484.2376	1490.1097	1497.9467	1503.9379	1507.0072	1775.5774	2971.7295	2989.5415	3031.9532	3057.2568	3065.616	3072.1482	3100.1114	3104.2905	3105.4736	3120.7216	3138.0784	3668.9699
CC1(CCC1)C(=O)CO	CC1(CCC1)C(=O)CO	
InChI=1S/C7H12O2/c1-7(3-2-4-7)6(9)5-8/h8H,2-5H2,1H3	InChI=1S/C7H12O2/c1-7(3-2-4-7)6(9)5-8/h8H,2-5H2,1H3
