16
gdb 90589	3.40934	1.37348	1.06224	0.5545	72.66	-0.2363	-0.0126	0.2237	1098.9266	0.126033	-434.050462	-434.042776	-434.041832	-434.082866	28.883	
O	 0.3240635591	 1.3346636945	 0.1244212538	-0.409413
C	 0.0591695596	-0.0272764459	 0.0457815776	 0.028132
C	-1.4452635979	-0.5499047998	 0.0237183629	-0.217662
N	-1.0584793428	-1.3782142892	-1.1433065723	-0.07607
C	 0.1554432897	-0.727983633	-1.3108648128	 0.311181
N	 0.7076344957	-0.7170365621	-2.4565876186	-0.351146
C	-0.2379957391	-1.5224976166	-3.2729330375	-0.272536
C	-1.5183004149	-1.7402765728	-2.4114980954	 0.309521
N	-2.6944341238	-2.120392006	-2.6861768724	-0.521392
H	 0.0800798824	 1.7453129162	-0.7128159121	 0.296938
H	 0.6379506113	-0.5183495131	 0.8319460056	 0.132679
H	-1.7921414184	-1.1191814709	 0.8871932567	 0.133478
H	-2.1583634046	 0.2415053357	-0.2264166513	 0.13138
H	-0.468696137	-1.0067503269	-4.2104444458	 0.135772
H	 0.2097918785	-2.4897046646	-3.5319987946	 0.14489
H	-2.7870584478	-2.3114104257	-3.6836034739	 0.224247
92.4895	140.3002	171.1393	251.072	308.722	375.5081	421.6844	529.8142	571.6139	635.0835	667.6579	752.7902	772.7152	842.1741	869.522	931.4816	971.0551	998.8538	1008.6848	1035.8617	1129.0585	1151.7907	1182.4802	1183.8431	1210.6765	1235.3983	1275.7519	1310.2319	1344.6638	1364.7019	1434.4007	1457.758	1505.6415	1733.1786	1756.5585	3040.2596	3060.1995	3084.8985	3091.1945	3132.0258	3484.7491	3804.2471
OC1CN2C1=NCC2=N	O[C@H]1CN2[C]1[N]C[C]2[NH]	
InChI=1S/C5H7N3O/c6-4-1-7-5-3(9)2-8(4)5/h3,6,9H,1-2H2	InChI=1S/C5H7N3O/c6-4-1-7-5-3(9)2-8(4)5/h3,6,9H,1-2H2/t3-/m0/s1
