18
gdb 110137	1.99123	1.18403	0.8023	2.3861	70.92	-0.2655	-0.0149	0.2505	1401.668	0.145764	-476.199569	-476.189653	-476.188709	-476.235449	34.394	
O	 0.1054474824	 1.3565671568	 0.5512271994	-0.416529
C	 0.069210393	 0.1495566912	-0.1856358265	-0.071116
C	-1.2318599171	-0.5755105382	 0.0698060354	-0.052748
C	-1.4814940144	-2.058849072	-0.0482682151	-0.056808
C	-0.4480811588	-3.0833330851	-0.4610617739	-0.08503
O	-0.6796810684	-4.3275768824	 0.1758400419	-0.413344
N	-1.3018864796	-1.4217855574	 1.2484334344	-0.095869
C	-2.2355915994	-1.271504488	 2.2580010347	 0.135617
O	-2.5115334116	-0.212070289	 2.7661400046	-0.287034
H	-0.1660404537	 1.154774952	 1.455158737	 0.294998
H	 0.1461484141	 0.4289554288	-1.2419799418	 0.117043
H	 0.9219534111	-0.5010345508	 0.0558782521	 0.094195
H	-2.1046984068	 0.0579006556	-0.0871325777	 0.120167
H	-2.5032914323	-2.3422189449	-0.3017971053	 0.112627
H	-0.5288962773	-3.2710633088	-1.5366907662	 0.122909
H	 0.5636764985	-2.7080447273	-0.2589580206	 0.10176
H	-0.5373406484	-4.1958409314	 1.1196664332	 0.288762
H	-2.6477265613	-2.2389441689	 2.6038205643	 0.090399
61.7337	71.6345	105.5683	130.1507	141.938	251.6078	254.1106	317.4308	357.8865	385.8526	429.4021	448.2565	587.246	655.4816	806.502	835.1942	907.3772	1014.5712	1031.6498	1040.1418	1072.8253	1076.8264	1097.2609	1144.1437	1154.2476	1191.8928	1229.2554	1235.28	1321.8417	1347.0711	1374.7405	1395.7431	1407.8773	1420.4023	1438.4514	1484.9633	1492.5908	1504.7138	1795.763	2953.7901	2999.3814	3023.027	3072.6533	3083.5841	3114.2406	3126.1179	3784.8791	3805.5579
OCC1C(CO)N1C=O	OC[C@H]1[C@@H](CO)N1C=O	
InChI=1S/C5H9NO3/c7-1-4-5(2-8)6(4)3-9/h3-5,7-8H,1-2H2	InChI=1S/C5H9NO3/c7-1-4-5(2-8)6(4)3-9/h3-5,7-8H,1-2H2/t4-,5+,6?
