19
gdb 110422	4.79499	1.0984	1.02215	0.6527	75.68	-0.2224	0.0822	0.3047	1230.6957	0.157682	-422.947086	-422.938647	-422.937703	-422.980037	31.996	
C	-0.169079788	 1.3213782407	-0.1723266903	-0.238469
O	 0.2824546463	 0.0027705162	 0.051426537	-0.2511
C	 0.8027296828	-0.6088955539	-1.1024873804	 0.152925
C	 1.2182734994	-2.039689376	-0.7988667014	-0.208834
C	-0.1730968978	-2.5712455444	-1.1635655715	-0.1833
C	-0.2771812025	-1.262691443	-2.0242331386	 0.010996
O	 0.5184972249	-1.8542019743	-3.0851909841	-0.328093
C	 0.9564819155	-2.8127094022	-2.1042981416	 0.470354
C	 1.6759530368	-4.0352050985	-2.5592705992	-0.505304
H	 0.6388407932	 1.9673498822	-0.5488914466	 0.108648
H	-1.0029424954	 1.3635833349	-0.8887563843	 0.10568
H	-0.5140151565	 1.7105064573	 0.7884640647	 0.128455
H	 1.5196832054	 0.0526731077	-1.6125861054	 0.065263
H	 1.8956865515	-2.3876338262	-0.0295761173	 0.093029
H	-0.8774008784	-3.2073364909	-0.6467393628	 0.099682
H	-1.1689341973	-0.7424677215	-2.3675820552	 0.084916
H	 2.6308864273	-3.7730805786	-3.0269217716	 0.134003
H	 1.8814247076	-4.6916563989	-1.7085568767	 0.128103
H	 1.0756363052	-4.5889915007	-3.287677785	 0.133046
96.0773	143.8175	164.9672	196.6871	232.009	300.8184	310.3031	419.9131	508.9566	552.6719	643.3444	775.9117	803.3197	810.6772	859.0585	892.3881	916.6057	928.768	969.6596	982.8982	1000.0471	1056.2557	1078.0801	1104.6718	1136.8664	1146.7005	1148.9352	1182.8972	1186.4711	1220.7754	1255.7383	1278.7226	1286.6525	1377.4858	1400.3203	1461.2588	1473.5142	1481.1744	1489.0338	1501.1284	1509.222	2978.0864	2990.1114	3026.7787	3036.7563	3103.451	3116.1128	3116.9641	3144.5783	3200.1801	3216.695
COC1C2C3C1OC23C	CO[C@H]1[C@H]2[C@H]3[C@@H]1O[C@@]23C	
InChI=1S/C7H10O2/c1-7-3-4(7)6(9-7)5(3)8-2/h3-6H,1-2H3	InChI=1S/C7H10O2/c1-7-3-4(7)6(9-7)5(3)8-2/h3-6H,1-2H3/t3-,4+,5+,6+,7+/m1/s1
