20
gdb 98591	2.94873	1.03875	0.98721	4.5531	78.54	-0.2315	0.0179	0.2494	1335.4246	0.169984	-440.309478	-440.299485	-440.29854	-440.344834	36.055	
C	-0.247861188	 1.4797606181	-0.0746975207	-0.335912
N	-0.1845583061	 0.0413293422	-0.2474340209	-0.327236
C	 0.8796515213	-0.5920901475	-0.8098354026	 0.481077
O	 1.8644632632	 0.0327028818	-1.2183894784	-0.429162
C	 0.7850311159	-2.0727676175	-0.8702094134	-0.250896
C	 1.1792234854	-2.8435472356	-2.1503101167	-0.062192
C	 1.5393181307	-2.1493311594	-3.4440046005	-0.415838
C	 2.1003797248	-2.8629626866	-0.9715649755	 0.126051
O	 3.3160483618	-2.2072665887	-0.9723152365	-0.426242
H	-0.4057092583	 1.7436875713	 0.9764884144	 0.128705
H	 0.7047998552	 1.8911334994	-0.4084015911	 0.174863
H	-1.0545162551	 1.9195242537	-0.672054031	 0.128731
H	-0.9707961827	-0.5158132172	 0.0420326481	 0.249181
H	-0.0140459642	-2.5114596029	-0.2800291045	 0.078744
H	 0.5839144002	-3.7446382432	-2.2793635078	 0.089186
H	 2.1124350997	-1.2386243801	-3.2694865386	 0.148686
H	 2.1412816856	-2.8182445242	-4.0680487809	 0.120985
H	 0.6404481547	-1.8809624827	-4.0090237664	 0.111354
H	 2.1450321127	-3.7758747543	-0.3834250419	 0.10062
H	 3.1239702331	-1.2605954066	-1.1202235852	 0.309295
59.0069	78.8383	136.1785	149.442	164.6366	209.4643	225.7527	323.0051	387.0636	400.9842	476.4667	513.9458	585.9972	641.46	712.0963	743.4505	796.3625	812.9201	883.5946	943.3875	978.2466	1022.4998	1068.0679	1097.9951	1118.113	1141.8799	1153.9028	1171.4729	1174.0138	1234.3773	1256.299	1361.9929	1388.1341	1406.9772	1420.3809	1440.3507	1483.5317	1494.1658	1500.2168	1501.0453	1510.5554	1571.2095	1708.7936	3029.9888	3039.6233	3082.7267	3094.9091	3125.1037	3137.5808	3148.6599	3154.8466	3160.3187	3539.6307	3652.7579
CNC(=O)C1C(C)C1O	CNC(=O)[C@H]1[C@@H](C)[C@H]1O	
InChI=1S/C6H11NO2/c1-3-4(5(3)8)6(9)7-2/h3-5,8H,1-2H3,(H,7,9)	InChI=1S/C6H11NO2/c1-3-4(5(3)8)6(9)7-2/h3-5,8H,1-2H3,(H,7,9)/t3-,4+,5-/m1/s1
