21
gdb 100660	2.25391	1.13058	0.99559	2.4783	74.92	-0.2466	-0.03	0.2166	1315.7868	0.177987	-461.365339	-461.354222	-461.353278	-461.401352	40.121	
C	-0.0872325149	 1.5066029397	 0.0051651974	-0.438762
C	 0.0292057443	-0.0269411498	 0.0268147173	 0.018078
C	 0.6029721146	-0.5406527735	-1.2969279816	-0.100706
O	-0.2050311239	-0.0338059804	-2.3509296013	-0.423069
C	 0.8433079794	-0.5257574972	 1.2440121397	 0.242273
C	 1.072692839	-2.0455275148	 1.2639013002	-0.423371
O	 2.1486510682	 0.0491584695	 1.3120722019	-0.467815
C	 0.1140727005	-0.2113637072	 2.5591573215	 0.128392
O	-1.0750638138	-0.0950921735	 2.6952691366	-0.254879
H	 0.8902592493	 1.9850647628	-0.1413757035	 0.100885
H	-0.7134269839	 1.8158865273	-0.8323673678	 0.148366
H	-0.5327542605	 1.8890489664	 0.9270479404	 0.127092
H	-0.9808802143	-0.4355827955	 0.1433259611	 0.104744
H	 1.6475643866	-0.205627811	-1.3944979082	 0.093113
H	 0.6034536032	-1.6392682426	-1.3100465221	 0.087929
H	 0.1689276306	-0.332842278	-3.1844310727	 0.287556
H	 1.7854192221	-2.3252379528	 0.4849356749	 0.136995
H	 1.5001081011	-2.3504485368	 2.2244157395	 0.125986
H	 0.133547371	-2.5832729963	 1.1120737681	 0.134293
H	 2.0589709337	 1.0078318581	 1.2824989144	 0.286233
H	 0.8214337977	-0.1231811445	 3.4171885942	 0.086667
67.9422	86.0679	100.1646	170.2522	224.6993	241.5918	250.0154	259.6492	281.5219	317.571	329.2784	353.7291	362.0182	434.4623	473.2402	539.3722	628.6136	749.3642	886.9171	907.4362	931.5885	963.9723	977.1036	1031.6974	1056.3544	1075.3519	1122.8298	1168.3142	1177.3351	1230.6278	1259.0294	1278.9455	1319.3734	1352.9038	1370.2438	1391.5236	1400.5881	1403.0224	1459.6827	1478.9877	1494.0594	1503.4248	1516.1495	1529.155	1833.1566	2864.4226	2980.2249	3018.7757	3022.12	3045.164	3059.6108	3104.6054	3114.8234	3138.4516	3145.6171	3808.816	3835.513
CC(CO)C(C)(O)C=O	C[C@@H](CO)[C@@](C)(O)C=O	
InChI=1S/C6H12O3/c1-5(3-7)6(2,9)4-8/h4-5,7,9H,3H2,1-2H3	InChI=1S/C6H12O3/c1-5(3-7)6(2,9)4-8/h4-5,7,9H,3H2,1-2H3/t5-,6-/m0/s1
