17
gdb 53453	4.61076	0.45339	0.41599	0.4077	104.86	-0.228	-0.0029	0.2251	2593.8216	0.132279	-347.490654	-347.479466	-347.478522	-347.535399	36.268	
C	 0.1264981315	 1.528655234	 0.0329613091	-0.496195
C	 0.0695539383	 0.075151902	-0.021904919	 0.069232
C	 0.0179994713	-1.125493084	-0.0669367508	 0.084579
C	-0.0408439438	-2.5882773817	-0.1220016405	-0.53314
C	-1.4008324142	-3.1229998776	-0.0675093699	 0.316095
C	-2.5224459746	-3.5736698427	-0.022954495	-0.211791
C	-3.783863557	-4.0804157064	 0.0271681492	-0.200426
C	-4.9057568066	-4.5320459488	 0.0717186873	 0.25305
C	-6.2519645344	-5.0729850998	 0.1251796523	-0.518155
H	 0.7026509046	 1.8726170364	 0.8989066613	 0.148332
H	 0.5970062999	 1.9433480932	-0.8652451623	 0.148336
H	-0.877677006	 1.9595742569	 0.1103793795	 0.152208
H	 0.4496646986	-2.943032074	-1.0401278574	 0.160567
H	 0.5469627159	-3.0126399763	 0.704924073	 0.160567
H	-6.2524933385	-6.1536441294	-0.0573352476	 0.155413
H	-6.7102085069	-4.9011417488	 1.1057857361	 0.155612
H	-6.896577368	-4.6081121829	-0.6294550853	 0.155718
0.1659	14.31	40.5369	93.4355	112.8765	195.9403	214.8997	241.6992	305.6399	367.3678	381.421	386.5198	450.7639	548.6389	556.3446	642.2597	764.6573	927.0363	954.8473	1048.459	1048.6613	1052.8326	1054.6564	1161.5177	1227.3464	1277.9114	1343.2579	1412.9198	1415.0101	1449.7169	1472.2612	1472.5793	1478.0668	1478.5835	2282.9068	2381.9067	2391.8682	2996.4111	3018.4732	3022.7985	3027.9539	3084.5593	3084.6224	3088.876	3090.0505
CC#CCC#CC#CC	CC#CCC#CC#CC	
InChI=1S/C9H8/c1-3-5-7-9-8-6-4-2/h7H2,1-2H3	InChI=1S/C9H8/c1-3-5-7-9-8-6-4-2/h7H2,1-2H3
