18
gdb 64948	4.16003	0.62755	0.58456	3.9826	83.78	-0.2448	-0.027	0.2178	1892.0716	0.144808	-401.902528	-401.892551	-401.891607	-401.93997	34.585	
C	 0.0794790124	 1.4535839624	 0.2584303829	-0.460997
C	 0.0041426544	-0.0224164197	-0.0937936348	 0.095762
C	 0.6311103116	-0.4906731349	-1.3682408538	-0.259892
N	 1.254944859	-0.8244015596	-0.0823274416	-0.327296
C	-1.1612920508	-0.7101395797	 0.4112083471	 0.107303
C	-2.1607297865	-1.2386591672	 0.8271780103	 0.060489
C	-3.3179525957	-1.9473132226	 1.3520600819	-0.422079
C	-2.9284770903	-3.2239011844	 2.1042845493	 0.173576
O	-3.5844659006	-4.2290836396	 2.0862215134	-0.231925
H	 0.9659262421	 1.912553693	-0.1914615859	 0.113091
H	-0.8038479342	 1.9867470358	-0.1059632858	 0.135616
H	 0.1299470468	 1.5905663236	 1.3432675568	 0.133363
H	 0.199763299	-1.3342608179	-1.8978055126	 0.128706
H	 1.0914618244	 0.2634997231	-2.0020912245	 0.114701
H	 2.0399864338	-0.2007442691	 0.0939835686	 0.231715
H	-3.8566584818	-1.312770601	 2.0730405363	 0.154526
H	-4.0369917601	-2.2183313272	 0.5718111303	 0.153954
H	-1.9870918534	-3.1410709549	 2.6885733021	 0.099387
14.4986	47.8279	86.5792	114.8769	191.1702	229.0235	293.5458	324.9533	357.9381	441.3096	459.2117	540.123	574.4053	626.5436	737.3124	815.0681	853.6004	931.6313	975.0997	997.3709	1029.6385	1042.9725	1055.6112	1090.2045	1125.9134	1153.8691	1210.8363	1265.0756	1284.3144	1317.7147	1377.4447	1414.1661	1414.6187	1441.3212	1481.053	1500.6227	1507.5139	1840.2666	2365.9338	2908.1381	2999.8702	3033.349	3076.187	3105.9789	3108.7059	3109.2248	3201.2862	3489.2784
CC1(CN1)C#CCC=O	C[C@]1(CN1)C#CCC=O	
InChI=1S/C7H9NO/c1-7(6-8-7)4-2-3-5-9/h5,8H,3,6H2,1H3	InChI=1S/C7H9NO/c1-7(6-8-7)4-2-3-5-9/h5,8H,3,6H2,1H3/t7-/m1/s1
