20
gdb 88087	3.26961	1.29374	1.20566	2.5258	78.94	-0.2255	0.0882	0.3137	1130.4053	0.17154	-403.110353	-403.10227	-403.101326	-403.142779	31.754	
C	-0.1972878224	 1.435155544	-0.0473690739	-0.315141
N	 0.0141326374	-0.000271759	 0.0737276331	-0.132194
C	 1.3558642773	-0.5125186666	-0.1872205949	-0.312227
C	 0.7928942578	-0.506408373	 1.196537721	 0.371064
C	 1.3750444691	 0.3632219988	 2.320935033	-0.312206
C	 1.8827543821	-0.6504129083	 3.3779393844	-0.249815
C	 1.0083547853	-1.8743344744	 3.1678324063	 0.044885
O	-0.3878573444	-1.5645001357	 3.0707659319	-0.266986
C	 0.3551104199	-1.7816461762	 1.8577692211	-0.023037
H	 0.6735825762	 2.0474196176	 0.2352983392	 0.09966
H	-0.4510163298	 1.6661822413	-1.0867447618	 0.123659
H	-1.0435479823	 1.7301496817	 0.5807695575	 0.129397
H	 1.4122678431	-1.4280119214	-0.7725034012	 0.110376
H	 2.149766342	 0.2055547138	-0.3936303041	 0.102656
H	 2.1649962651	 1.0351008228	 1.9810439523	 0.10298
H	 0.5784146764	 0.9751267784	 2.7534030136	 0.123676
H	 2.9273755108	-0.9266957672	 3.1908092644	 0.105418
H	 1.822711713	-0.2578305375	 4.3975089786	 0.110177
H	 1.2466317688	-2.8217482355	 3.6448238103	 0.092592
H	 0.0501020545	-2.6371498835	 1.2619936689	 0.095065
102.0038	156.934	199.9512	219.3016	295.7252	367.5626	379.7572	427.3737	504.4085	549.7083	671.2566	746.8836	815.7806	833.0374	851.0383	876.2842	914.3203	924.3315	936.2307	991.7203	1031.5464	1044.251	1077.2263	1093.9431	1114.5907	1144.1322	1152.6667	1187.1809	1211.5229	1217.7427	1256.4717	1270.7854	1305.9963	1323.0069	1336.4409	1403.4374	1441.2649	1450.2966	1478.1125	1489.2019	1493.1935	1497.6904	1510.4381	2976.9708	3039.6379	3063.9771	3069.7037	3076.9996	3087.1075	3104.5714	3115.7346	3143.8611	3160.6039	3163.5368
CN1CC11CCC2OC12	CN1C[C@]21CC[C@H]1O[C@@H]21	
InChI=1S/C7H11NO/c1-8-4-7(8)3-2-5-6(7)9-5/h5-6H,2-4H2,1H3	InChI=1S/C7H11NO/c1-8-4-7(8)3-2-5-6(7)9-5/h5-6H,2-4H2,1H3/t5-,6-,7-,8?/m1/s1
