14
gdb 46806	2.71537	1.67909	1.18845	6.8724	68.58	-0.252	-0.0217	0.2303	998.7008	0.102018	-432.86345	-432.85586	-432.854916	-432.895607	28.173	
N	-0.0974779617	 1.263415802	 0.3126181501	-0.532622
C	 0.0089402433	 0.0343674353	 0.0105420942	 0.332799
N	 1.1077727258	-0.7544636853	-0.2615217953	-0.355008
C	 0.8202303806	-2.1286466959	-0.6478227678	-0.193212
C	-0.6892886242	-2.2132005837	-0.5076086545	-0.03442
O	-1.1454253633	-1.9664315796	 0.8152042202	-0.269342
C	-1.1875483333	-0.8746830539	-0.1265191146	 0.264403
C	-2.485684781	-0.3568888601	-0.4695171463	 0.251258
N	-3.5306393452	 0.0394472404	-0.7597710199	-0.330295
H	 0.8098280377	 1.7311004987	 0.3437942754	 0.214009
H	 2.0314024621	-0.4664881051	 0.0145905689	 0.254238
H	 1.1194177221	-2.3370470564	-1.6833443315	 0.126977
H	 1.314472489	-2.8556814957	 0.0079419759	 0.135349
H	-1.270932992	-2.9126066807	-1.0990367747	 0.135866
109.932	146.9278	168.3874	267.7011	328.9283	381.1376	412.207	507.3977	568.2608	585.9361	664.1793	706.0996	769.7955	851.3426	855.3666	927.8609	960.3704	1012.3457	1031.3915	1097.4073	1143.552	1174.8528	1225.2373	1278.7007	1323.9988	1375.7545	1435.1118	1447.3135	1512.3026	1757.2723	2374.5932	3017.3153	3056.604	3181.5068	3466.188	3657.2873
N=C1NCC2OC12C#N	[NH][C]1NC[C@H]2O[C@@]12C#N	
InChI=1S/C5H5N3O/c6-2-5-3(9-5)1-8-4(5)7/h3H,1H2,(H2,7,8)	InChI=1S/C5H5N3O/c6-2-5-3(9-5)1-8-4(5)7/h3H,1H2,(H2,7,8)/t3-,5-/m1/s1
