16
gdb 30604	4.4661	1.07861	0.87356	3.3049	76.64	-0.2223	-0.0212	0.2012	1280.9115	0.125618	-437.961591	-437.953316	-437.952372	-437.995032	29.778	
C	 0.0940656188	 1.2835994689	 0.0084634629	-0.241222
O	-0.0366750499	-0.1406048232	 0.0021972355	-0.268665
C	-1.3204357015	-0.6008835475	 0.009044594	 0.380702
O	-2.2856569293	 0.1258783339	 0.019683894	-0.382893
C	-1.3512153453	-2.0560857524	 0.0020118778	 0.196967
C	-2.4362227112	-2.9171205359	 0.005584421	-0.199879
C	-1.9302595382	-4.2349374575	-0.0047570846	-0.146408
C	-0.5486287049	-4.1456847202	-0.01431901	-0.077803
N	-0.2105971046	-2.8285610501	-0.010009818	-0.297704
H	 1.1656422016	 1.485410724	 0.0010152016	 0.127525
H	-0.3825991923	 1.7201212244	-0.8730709912	 0.141637
H	-0.3684889498	 1.7110047126	 0.9019156693	 0.141596
H	-3.4680683774	-2.604037222	 0.0146451827	 0.120845
H	-2.5020342438	-5.1497469466	-0.005241533	 0.10422
H	 0.2071297539	-4.9151471448	-0.0236709078	 0.127232
H	 0.7175451439	-2.4416487638	-0.0147699542	 0.273849
88.6605	104.6249	134.3937	150.2643	220.2948	314.8458	405.7439	495.3562	546.7406	624.7188	650.7908	749.7701	771.6587	795.0164	833.9007	890.5509	896.2682	937.8787	1019.9465	1055.8176	1102.3992	1142.2276	1176.2384	1180.0934	1210.5907	1278.1992	1324.9512	1438.7751	1460.3144	1473.6453	1480.5222	1483.5946	1500.8794	1597.4662	1802.886	3049.8514	3123.6313	3153.5643	3249.6228	3265.1345	3274.3627	3683.8946
COC(=O)C1=CC=CN1	COC(=O)c1ccc[nH]1	
InChI=1S/C6H7NO2/c1-9-6(8)5-3-2-4-7-5/h2-4,7H,1H3	InChI=1S/C6H7NO2/c1-9-6(8)5-3-2-4-7-5/h2-4,7H,1H3
