21
gdb 97282	2.66824	0.95082	0.83257	3.5957	85.93	-0.242	-0.0199	0.2221	1519.0731	0.180265	-420.440388	-420.429699	-420.428755	-420.476385	37.744	
C	 0.047910765	 1.4527027576	-0.0523365565	-0.314044
N	 0.0269046752	 0.0121339041	 0.0784862612	-0.234623
C	 0.5055675206	-0.6707384682	-0.8710766181	 0.126171
N	 0.5543919644	-2.0687642201	-0.887139382	-0.108252
C	 0.0575520202	-2.7926860681	 0.1838947019	 0.164526
O	 0.0607566543	-4.0028414788	 0.2500040838	-0.3348
C	 1.1426195568	-2.7525346327	-2.0628267427	 0.028346
C	 2.4019092243	-3.5433797228	-1.687596932	-0.389617
C	 0.1052624027	-3.6103437723	-2.7977096235	-0.389616
H	 0.6108186848	 1.890902501	 0.7798968078	 0.1311
H	 0.4939348129	 1.8051260873	-0.996908141	 0.097906
H	-0.9735920792	 1.844485574	 0.014571369	 0.131104
H	 0.9324829625	-0.2270876407	-1.7814001537	 0.091862
H	-0.3406433346	-2.1333309679	 0.9679222066	 0.133268
H	 1.4432369714	-1.9401762334	-2.7336638477	 0.088867
H	 3.1307391579	-2.9004197383	-1.1849363081	 0.11454
H	 2.1534301222	-4.3745900005	-1.0265609241	 0.158957
H	 2.8676072768	-3.9423400018	-2.5939751075	 0.115404
H	-0.7706842555	-3.0141939834	-3.0708094037	 0.114532
H	 0.5451374667	-4.0101101622	-3.7165487281	 0.115397
H	-0.2190761594	-4.4437423928	-2.1733010016	 0.158972
49.0291	88.1413	143.9513	172.2564	195.8328	233.4002	233.9737	241.4441	251.1301	316.8081	323.7134	392.5779	472.4666	484.093	494.6778	763.1311	817.1087	915.8652	932.2835	952.3998	984.4423	1041.6906	1057.07	1121.1586	1140.6778	1149.5869	1155.7966	1196.4576	1253.5604	1313.8567	1348.0668	1393.7437	1394.6448	1414.29	1430.4487	1447.2267	1460.9852	1478.1612	1480.2909	1496.8736	1502.2713	1503.8964	1521.7927	1752.9135	1788.0951	2967.8084	3012.1759	3041.0909	3044.2049	3048.6071	3049.4107	3058.7294	3076.8735	3109.1155	3112.6118	3150.2573	3154.2151
CN=CN(C=O)C(C)C	CN=CN(C=O)C(C)C	
InChI=1S/C6H12N2O/c1-6(2)8(5-9)4-7-3/h4-6H,1-3H3	InChI=1S/C6H12N2O/c1-6(2)8(5-9)4-7-3/h4-6H,1-3H3
