21
gdb 103582	3.1813	1.04452	1.01176	3.7141	85.42	-0.2345	-0.0434	0.1911	1310.6543	0.181765	-387.137018	-387.127704	-387.12676	-387.171429	35.342	
C	 0.1151789025	 1.5689926366	 0.0090977298	-0.400613
C	-0.022376454	 0.0429286144	-0.0055239178	-0.207272
C	-1.4690100847	-0.5223935596	-0.0138752156	 0.255189
C	-2.2444778042	-0.0405105075	-1.2566944331	-0.436321
C	-1.4432875633	-2.0715033412	 0.0806471951	-0.391905
C	-2.1441205009	-2.4400752524	 1.3978473558	 0.378034
O	-2.3039105887	-3.5576308775	 1.8303180506	-0.330363
C	-2.5794591592	-1.166970505	 2.0168644169	-0.20097
C	-2.2164366911	-0.133166003	 1.2508312967	-0.065335
H	 1.1720583103	 1.8517003646	 0.0313072741	 0.120187
H	-0.3259984996	 2.0309117506	-0.8790291593	 0.121471
H	-0.3579716444	 2.0156973983	 0.8895152807	 0.117384
H	 0.4942910935	-0.3553368717	-0.8883518503	 0.101169
H	 0.4979725154	-0.3714214434	 0.8667962471	 0.10193
H	-1.7054207654	-0.3041985525	-2.1731206097	 0.119111
H	-3.2344866783	-0.5049593899	-1.2994653058	 0.121178
H	-2.3881343464	 1.0441126536	-1.2511555841	 0.117991
H	-1.9702516702	-2.5514176525	-0.7497813751	 0.126446
H	-0.4281130018	-2.4799568578	 0.0862978409	 0.125921
H	-3.1151749898	-1.1296713008	 2.9570709291	 0.114194
H	-2.4279442295	 0.9076382766	 1.4762786139	 0.112576
37.1082	101.4581	179.9372	233.2702	244.7717	266.771	331.9254	347.9369	366.9461	420.7912	506.762	587.8535	600.9672	684.1853	783.0525	798.3311	832.3304	835.7577	879.7466	935.3985	950.4223	1009.1465	1013.0507	1021.9463	1069.6601	1100.1711	1114.7902	1166.2496	1198.6232	1233.8503	1245.6973	1268.9976	1325.6481	1366.1787	1370.4919	1406.6202	1415.3766	1453.0388	1481.2094	1493.5158	1497.9457	1504.6513	1511.1485	1649.9665	1814.8159	3017.5625	3031.5552	3040.2828	3054.6446	3058.3403	3097.9905	3102.0282	3104.5551	3105.5081	3113.4677	3178.8279	3222.4506
CCC1(C)CC(=O)C=C1	CC[C@@]1(C)CC(=O)C=C1	
InChI=1S/C8H12O/c1-3-8(2)5-4-7(9)6-8/h4-5H,3,6H2,1-2H3	InChI=1S/C8H12O/c1-3-8(2)5-4-7(9)6-8/h4-5H,3,6H2,1-2H3/t8-/m1/s1
