19
gdb 90969	3.53063	1.49144	1.4295	2.1136	75.63	-0.2369	0.0764	0.3133	998.7607	0.159606	-422.94574	-422.938414	-422.93747	-422.977232	29.968	
C	 0.3310494727	 1.5003863079	 0.1416669131	-0.389971
C	 0.0119512106	 0.0263216456	-0.0543742889	 0.148595
C	 0.7210702643	-0.6164227614	-1.3113841686	-0.408591
C	 1.7868953788	-1.4038737825	-0.6136138134	 0.402296
C	 2.7966761291	-2.5746680834	-0.5361853935	-0.322978
C	 2.7986803657	-1.7852924972	 0.8204127796	-0.003541
O	 2.8164531594	-0.5389422918	 0.0522216658	-0.338732
C	 1.2341142252	-1.7808149125	 0.7548715304	 0.119713
O	 0.4390624849	-0.7025201686	 1.1369889939	-0.290108
H	 1.4121199889	 1.6403026159	 0.2092756262	 0.146093
H	-0.0604932491	 2.092531965	-0.6924385094	 0.105795
H	-0.128859765	 1.8633849222	 1.0651149766	 0.122645
H	-1.0735480196	-0.1103760292	-0.1402894697	 0.078841
H	 0.0410629615	-1.2727473073	-1.8617950526	 0.11442
H	 1.1081693961	 0.1459241718	-1.9907404602	 0.124736
H	 2.4043328	-3.5949382135	-0.5567097339	 0.102865
H	 3.7084033374	-2.4510442599	-1.1188206134	 0.11928
H	 3.4861621399	-1.8781026405	 1.6613167369	 0.099552
H	 0.7366259892	-2.7487970906	 0.890005151	 0.06909
94.0637	236.0747	253.2816	322.0715	359.0043	415.169	433.8507	513.8468	608.6954	700.9192	747.4513	777.6948	787.8252	793.142	864.4274	879.4169	903.4207	937.9402	975.5147	996.7216	1026.5809	1044.5654	1082.4362	1107.8835	1128.2478	1140.0706	1154.9367	1190.0611	1198.3594	1210.6395	1246.8156	1269.3946	1309.1715	1360.0612	1368.8889	1390.1061	1403.5972	1475.0902	1485.3918	1487.225	1502.9533	3016.5127	3031.1599	3041.0044	3066.402	3068.3437	3110.4706	3118.5288	3122.3936	3139.1932	3162.1332
CC1CC23CC(O2)C3O1	C[C@H]1C[C@@]23C[C@@H](O2)[C@H]3O1	
InChI=1S/C7H10O2/c1-4-2-7-3-5(9-7)6(7)8-4/h4-6H,2-3H2,1H3	InChI=1S/C7H10O2/c1-4-2-7-3-5(9-7)6(7)8-4/h4-6H,2-3H2,1H3/t4-,5+,6+,7-/m0/s1
