22
gdb 117251	3.94207	0.79451	0.67817	3.7115	85.13	-0.2318	0.0365	0.2682	1722.3202	0.193452	-404.374798	-404.364432	-404.363488	-404.412482	35.744	
C	-0.0886953001	 1.5607041546	-0.0601986932	-0.388378
C	-0.1075322357	 0.0307736731	-0.0738276918	-0.150877
C	 0.7577973858	-0.560618807	-1.1873550268	-0.30606
C	 0.7660982676	-2.0875140343	-1.1772210951	 0.376375
O	 0.2312951106	-2.7604961271	-0.3101718276	-0.379696
N	 1.4198465019	-2.6667256211	-2.216616326	-0.066931
C	 2.2351461636	-2.1794273051	-3.3311686404	-0.171824
C	 2.5477095121	-3.6626724131	-3.6858159089	-0.242284
C	 1.6876568716	-4.0833448352	-2.456949017	-0.159789
H	 0.9258760235	 1.9473440618	 0.0909385521	 0.109859
H	-0.4602660356	 1.9751431113	-1.0045758473	 0.109404
H	-0.7166201477	 1.9559171897	 0.7442374034	 0.113895
H	 0.2366659171	-0.3644487295	 0.8869631184	 0.116291
H	-1.1337410536	-0.3338552657	-0.1899628366	 0.110534
H	 0.4176774369	-0.2094830809	-2.1712235278	 0.110782
H	 1.7949574858	-0.2071954969	-1.0940846756	 0.113737
H	 1.6752587487	-1.6199835535	-4.0900149114	 0.11368
H	 3.1016311304	-1.5796993366	-3.0268425042	 0.112959
H	 2.1530178658	-3.9878588448	-4.6486688836	 0.11826
H	 3.601761944	-3.9335313515	-3.6227466097	 0.118078
H	 2.2299868363	-4.5703731411	-1.6397184221	 0.12113
H	 0.7910235712	-4.6714519971	-2.6774361089	 0.120854
27.7091	38.6511	81.5682	108.5679	128.3213	158.0762	234.6223	250.7058	327.8265	381.9644	554.8093	575.4729	746.4891	757.5363	765.0926	848.2628	880.0832	885.0368	907.3946	935.32	961.2069	1039.3229	1052.0513	1111.9331	1131.7277	1138.7422	1142.9916	1198.33	1199.0665	1228.5468	1249.3153	1271.9401	1292.5767	1299.8246	1322.9712	1338.5399	1381.9814	1415.2459	1453.6127	1461.809	1487.1423	1493.4279	1501.4695	1508.5012	1512.9441	1535.4098	1755.6769	3007.1222	3016.0893	3026.0768	3036.9362	3041.3904	3053.0805	3053.5232	3075.8327	3080.6277	3093.7616	3101.0333	3102.3389	3147.8326
CCCC(=O)N1CCC1	CCCC(=O)N1CCC1	
InChI=1S/C7H13NO/c1-2-4-7(9)8-5-3-6-8/h2-6H2,1H3	InChI=1S/C7H13NO/c1-2-4-7(9)8-5-3-6-8/h2-6H2,1H3
