21
gdb 110408	4.47511	1.04624	0.96201	1.4482	82.86	-0.2393	0.0785	0.3178	1297.2229	0.182532	-387.03817	-387.029557	-387.028612	-387.071118	33.643	
C	-0.0132893088	 1.4494048399	 0.0300520145	-0.504713
C	-0.0257368981	-0.0496913818	-0.009768093	 0.336039
C	-1.2251760775	-0.9644114071	-0.2696480603	-0.291304
C	-0.3330153862	-2.1181565179	 0.2572855618	-0.052182
C	 0.5607063487	-1.0283252538	 0.9820017936	-0.128179
C	 1.2314105294	-0.8670271901	-0.3668682995	-0.120943
C	 0.7762917122	-2.2520110125	-0.8261339937	 0.016165
C	 1.7833972335	-3.3473391537	-0.5331150037	-0.100154
O	 1.1311920422	-4.5990548398	-0.7148813281	-0.426176
H	 0.9476334738	 1.8287583787	 0.3949224066	 0.115746
H	-0.1807026688	 1.8781498492	-0.9653584709	 0.11845
H	-0.7955161371	 1.8355863308	 0.6937708671	 0.116338
H	-2.0454475732	-0.7341814784	 0.4178234128	 0.090671
H	-1.6172380029	-1.0548320919	-1.2906593922	 0.083541
H	-0.7610668953	-3.0110064988	 0.7060306969	 0.077833
H	 0.9228567962	-0.901206751	 1.9922986371	 0.081872
H	 2.166096022	-0.363406438	-0.5863705057	 0.074827
H	 0.4194269134	-2.3566728823	-1.8588297805	 0.063979
H	 2.6477630673	-3.2502810375	-1.2106071735	 0.079498
H	 2.1590511524	-3.2372003013	 0.496913451	 0.083946
H	 1.7647449167	-5.2973668428	-0.5271874304	 0.284748
97.6065	143.4273	196.4336	217.642	249.7505	278.1512	304.7917	402.1261	446.4323	515.772	612.5343	754.1259	785.14	794.7057	821.2798	860.1876	898.1607	919.8373	939.7214	972.2271	1008.5342	1017.2784	1028.391	1055.8142	1066.2544	1080.6827	1116.4964	1139.9479	1156.9161	1175.6647	1194.5387	1214.8223	1236.3991	1248.4196	1268.8794	1292.0563	1305.9425	1371.0368	1407.5554	1427.2799	1459.6236	1486.7275	1498.1694	1503.4694	1518.2138	2960.6318	2988.761	3016.8975	3019.6975	3028.7169	3077.7315	3080.9574	3088.8673	3149.7801	3175.1115	3214.4031	3831.4681
CC12CC3C1C2C3CO	C[C@]12C[C@@H]3[C@H]1[C@H]2[C@H]3CO	
InChI=1S/C8H12O/c1-8-2-4-5(3-9)7(8)6(4)8/h4-7,9H,2-3H2,1H3	InChI=1S/C8H12O/c1-8-2-4-5(3-9)7(8)6(4)8/h4-7,9H,2-3H2,1H3/t4-,5-,6-,7+,8-/m0/s1
