21
gdb 86394	2.44536	1.52718	1.13839	1.1714	78.39	-0.2493	0.0711	0.3204	1161.7851	0.18146	-424.227777	-424.21864	-424.217696	-424.260905	35.629	
C	 0.0848964173	 1.5549566267	-0.0533653887	-0.39953
C	 0.0666458939	 0.0384736452	 0.0468619114	 0.128175
O	 0.7640927429	-0.5000019992	-1.0845208777	-0.284964
C	 1.2061083684	-1.8168234584	-0.7659810519	 0.083317
C	 2.3646534943	-2.1881750102	-1.6768022652	-0.416815
C	 1.5040036615	-1.7707414661	 0.7332096613	 0.37608
O	 1.5059749956	-2.9748282803	 1.4337431848	-0.474947
C	 2.2816065704	-0.5771190631	 1.2245245667	-0.362403
C	 0.7636214384	-0.5765641202	 1.2523893173	-0.116207
H	 1.1083127758	 1.9355512512	 0.0092910801	 0.120258
H	-0.3463722953	 1.8773040645	-1.0054065998	 0.124189
H	-0.5014920159	 1.9969150538	 0.7581374738	 0.113716
H	-0.9790251314	-0.3149360289	 0.0361837539	 0.068386
H	 0.3852509253	-2.5427466925	-0.9015395296	 0.071043
H	 3.2072822041	-1.5052147575	-1.5346071189	 0.120522
H	 2.6988016164	-3.2093145685	-1.463891223	 0.108664
H	 2.0583729098	-2.1447868123	-2.7255068991	 0.127775
H	 2.3773220106	-3.3740254889	 1.3385826506	 0.285496
H	 2.7726812386	-0.6908221148	 2.1846866008	 0.111487
H	 2.7987297721	 0.0549716841	 0.5097128201	 0.120217
H	 0.2533641171	-0.6103509247	 2.2073950631	 0.095543
130.5384	156.627	216.6943	224.2384	229.6072	245.5322	276.0657	338.1995	402.8378	427.9135	491.7961	556.9981	582.8937	650.8713	706.229	799.3744	872.0857	893.7071	929.8208	951.6906	955.2064	1004.9679	1029.2007	1068.0195	1071.6606	1111.3628	1123.7373	1130.7156	1132.2212	1175.4778	1231.4321	1279.994	1326.4633	1333.3776	1348.778	1378.1467	1394.7156	1405.0141	1409.5843	1418.2922	1482.0413	1486.1692	1487.6273	1495.2217	1498.2951	2949.0066	2953.2296	3038.7442	3042.297	3108.9732	3115.3855	3120.2777	3120.67	3129.8421	3188.564	3221.4949	3801.9491
CC1OC(C)C2(O)CC12	C[C@H]1O[C@@H](C)[C@@]2(O)C[C@@H]12	
InChI=1S/C7H12O2/c1-4-6-3-7(6,8)5(2)9-4/h4-6,8H,3H2,1-2H3	InChI=1S/C7H12O2/c1-4-6-3-7(6,8)5(2)9-4/h4-6,8H,3H2,1-2H3/t4-,5+,6+,7+/m1/s1
