21
gdb 72655	1.99765	1.82931	1.56827	1.3431	77.1	-0.2455	0.0676	0.3131	1023.2356	0.182446	-424.224947	-424.216135	-424.215191	-424.257933	34.365	
C	-0.194899055	 1.5077628532	 0.1403359501	-0.475467
C	-0.0041307817	 0.007361015	 0.0091329681	 0.292255
C	 1.129625295	-0.4521144863	-0.9620916568	-0.267157
C	 1.9617834989	-0.9782815312	 0.2394813067	-0.285607
C	 0.7517895562	-0.7293789143	 1.17712115	 0.337487
O	 0.9820168093	 0.0564370846	 2.3251022942	-0.478095
C	-0.1474750481	-1.9526869313	 1.4495583968	-0.139546
O	-0.9667802087	-2.1171683072	 0.3011495074	-0.253373
C	-1.2940014136	-0.8016047892	-0.138872673	-0.146522
H	 0.7560171847	 2.0104111084	 0.3386958354	 0.122333
H	-0.6116597606	 1.9265456329	-0.783134394	 0.110538
H	-0.8733224903	 1.7527373557	 0.9634075583	 0.122776
H	 0.8109270799	-1.2410103168	-1.6471194995	 0.108632
H	 1.5945187917	 0.3500590205	-1.5398867746	 0.097272
H	 2.3228730758	-2.0083224508	 0.1733220384	 0.095261
H	 2.7978172394	-0.3225438072	 0.4958630179	 0.101377
H	 1.6185360741	-0.4023908123	 2.883682212	 0.279096
H	 0.3955235854	-2.889766196	 1.6084298823	 0.097365
H	-0.7527997515	-1.7309901956	 2.3436013364	 0.090358
H	-2.0946593366	-0.3711518419	 0.4864190398	 0.085799
H	-1.6558440843	-0.8758657402	-1.168696286	 0.10522
80.6174	180.8055	199.7631	224.5685	238.4845	284.1531	323.2748	378.2243	399.6621	486.7696	551.1606	595.9362	632.6671	729.8656	757.3162	858.9654	902.3123	907.142	951.9104	957.715	969.6816	1012.6873	1018.1081	1055.5965	1092.2357	1168.8672	1178.2364	1203.2238	1223.707	1228.9147	1232.8674	1252.3623	1277.4539	1286.0502	1296.6987	1330.0058	1364.5338	1401.9893	1416.3087	1468.7704	1487.1289	1489.8843	1493.1937	1501.0267	1513.5589	2961.4592	2975.0276	3030.1845	3052.5117	3063.3554	3076.1172	3082.9556	3096.162	3102.8699	3110.9295	3122.9444	3805.5484
CC12CCC1(O)COC2	C[C@@]12CC[C@]1(O)COC2	
InChI=1S/C7H12O2/c1-6-2-3-7(6,8)5-9-4-6/h8H,2-5H2,1H3	InChI=1S/C7H12O2/c1-6-2-3-7(6,8)5-9-4-6/h8H,2-5H2,1H3/t6-,7-/m0/s1
