18
gdb 18056	3.49603	2.12724	1.57986	0.9167	66.72	-0.2399	0.0773	0.3171	840.8595	0.156869	-384.923051	-384.91644	-384.915496	-384.953872	25.868	
C	-0.0070720912	 1.5455013215	 0.0804331218	-0.087509
O	 1.4309774461	 1.5391256603	-0.0498638665	-0.297665
C	 1.3888101694	 0.1712531931	-0.5333610386	 0.15167
C	 2.4882049951	-0.7265450959	 0.005388666	-0.235459
C	 2.2110595371	-1.1559257277	 1.4467921673	-0.080537
O	 0.8966819858	-1.6784760407	 1.5661048791	-0.243138
C	-0.0707510442	-0.6568533943	 1.4181630403	-0.087645
C	-0.0478066047	 0.0053585346	 0.0257629071	-0.082489
H	-0.3368821752	 2.0297359821	 1.0067980897	 0.103894
H	-0.4891834466	 2.0367941393	-0.7763942498	 0.09526
H	 1.401207577	 0.1696266173	-1.633420469	 0.068102
H	 2.5420244981	-1.6210480153	-0.6264049665	 0.106378
H	 3.451157104	-0.2084246295	-0.0733438457	 0.110593
H	 2.8931397624	-1.9524151995	 1.7563852545	 0.105227
H	 2.3420505872	-0.3046205907	 2.1339278354	 0.098281
H	-1.0411968143	-1.1238180489	 1.6080503352	 0.107062
H	 0.0897152186	 0.1097377247	 2.1945803769	 0.091273
H	-0.7738875844	-0.4509173904	-0.6494123075	 0.076702
113.0277	156.926	319.2005	365.3069	388.0428	466.2804	505.3197	654.6336	775.4848	795.8468	846.1336	874.1122	896.3864	955.8176	973.7345	1001.4175	1017.2248	1058.0105	1093.7181	1114.4827	1131.6955	1149.7596	1180.7332	1232.1236	1244.4961	1257.1621	1297.972	1334.6645	1351.7373	1363.5677	1366.6566	1385.5731	1414.8355	1426.2549	1457.8377	1489.6697	1504.654	1524.7295	2963.8971	2982.1974	2983.6584	3002.3723	3035.7389	3059.5002	3077.5592	3079.1468	3090.7249	3097.7246
C1OC2CCOCC12	C1O[C@H]2CCOC[C@@H]12	
InChI=1S/C6H10O2/c1-2-7-3-5-4-8-6(1)5/h5-6H,1-4H2	InChI=1S/C6H10O2/c1-2-7-3-5-4-8-6(1)5/h5-6H,1-4H2/t5-,6-/m0/s1
