14
gdb 30416	4.05061	1.19693	0.92921	2.097	70.19	-0.2582	-0.0536	0.2046	1183.0301	0.102207	-470.070322	-470.06255	-470.061606	-470.103197	27.777	
C	 0.0700793918	 1.439629582	-0.1132875338	-0.332171
N	-0.0166356097	-0.0069072579	-0.1144106606	-0.320174
C	-1.130877776	-0.5749424391	 0.0687271427	 0.460123
N	-1.1621065123	-1.9844020276	 0.0585803529	-0.420937
C	-2.2569944184	-2.7740562684	 0.2358224158	 0.500442
O	-2.2867706799	-3.9674640185	 0.2277808526	-0.350768
O	-3.4344335021	-2.0524088047	 0.4438377977	-0.20952
C	-3.3831181885	-0.6967302286	 0.450055117	 0.137971
N	-2.3691649511	 0.0461060971	 0.2859496299	-0.304459
H	 0.7809125379	 1.7508580105	 0.6609016394	 0.130048
H	 0.4867533756	 1.7698356203	-1.0718576874	 0.130047
H	-0.8865957547	 1.9446583403	 0.0546623628	 0.135245
H	-0.2829026225	-2.4580182348	-0.096015563	 0.283591
H	-4.3723556599	-0.2822777408	 0.6226975739	 0.160563
79.5839	119.5432	153.0198	230.0302	255.2362	404.0138	413.5482	478.0566	578.7952	653.5711	662.7216	754.3223	766.4687	781.4716	878.2476	951.3184	982.3005	1056.3891	1116.7269	1134.7439	1164.0856	1265.6714	1333.2426	1414.6613	1426.8453	1437.837	1493.1813	1494.3795	1708.6637	1763.7621	1905.677	3020.4761	3076.2143	3099.7502	3190.4504	3618.678
CN=C1NC(=O)OC=N1	C[N]C1=N[CH]OC(=O)N1	
InChI=1S/C4H5N3O2/c1-5-3-6-2-9-4(8)7-3/h2H,1H3,(H,5,7,8)	InChI=1S/C4H5N3O2/c1-5-3-6-2-9-4(8)7-3/h2H,1H3,(H,5,7,8)
