15
gdb 75786	2.36803	1.34904	1.23618	2.1001	61.84	-0.2715	-0.0527	0.2187	1075.3286	0.108831	-494.924684	-494.915421	-494.914477	-494.959315	32.035	
C	 0.3367646937	 1.470023681	-0.3154110252	-0.446386
C	 0.0018627845	 0.0157087715	-0.0512656208	 0.295978
O	 0.8350358394	-0.897790891	-0.8709319887	-0.288806
C	 1.4289484034	-1.4366215087	 0.249066264	 0.421271
O	 2.3164550884	-2.2235432277	 0.2951280191	-0.318516
C	 0.5635548388	-0.625623106	 1.2337611714	-0.118309
O	 1.2327008142	 0.2645877396	 2.0813413312	-0.41767
C	-1.4557951379	-0.2964588583	-0.3540524857	 0.122151
O	-2.2837680882	-0.5208185232	 0.4876659585	-0.234384
H	 1.4017583923	 1.6445725509	-0.1523723446	 0.154653
H	 0.0837054985	 1.7390708242	-1.3452248973	 0.136254
H	-0.2267221597	 2.1120468144	 0.3675827196	 0.152276
H	-0.1832238025	-1.2364740053	 1.7552238648	 0.127768
H	 1.669855762	-0.2453860109	 2.7717189115	 0.307168
H	-1.6960891567	-0.2981344506	-1.4393604479	 0.106551
55.6062	91.7622	139.2673	179.8309	201.6216	248.0191	262.6569	295.3855	357.8945	428.6697	547.4668	558.2459	672.5783	745.5291	809.7108	867.1863	933.6859	938.411	992.0949	1060.413	1129.4931	1155.3434	1187.8059	1239.3213	1277.2903	1307.8865	1404.037	1408.4786	1436.0589	1482.4083	1485.633	1838.2429	1942.7388	2907.6631	3044.2102	3049.8502	3124.2112	3143.5141	3820.9492
CC1(OC(=O)C1O)C=O	C[C@]1(OC(=O)[C@H]1O)C=O	
InChI=1S/C5H6O4/c1-5(2-6)3(7)4(8)9-5/h2-3,7H,1H3	InChI=1S/C5H6O4/c1-5(2-6)3(7)4(8)9-5/h2-3,7H,1H3/t3-,5+/m1/s1
