13
gdb 133233	3.24723	1.44827	1.00785	2.6488	64.64	-0.2536	-0.0937	0.1599	1058.7205	0.088925	-494.05385	-494.046377	-494.045433	-494.086336	26.942	
C	-0.0318599141	 1.4479083908	-0.0240434463	-0.314755
N	-0.0019911729	-0.0113151973	-0.0137858441	-0.066107
N	-0.0285839032	-0.6245865287	-1.1991390189	-0.224865
C	-0.0014756657	-1.9121588633	-1.1692603239	 0.302489
F	-0.0266498433	-2.5579355318	-2.3259735245	-0.054622
C	 0.0535879134	-2.6509094346	 0.0486425695	-0.084198
N	 0.0795394354	-2.0604537865	 1.1997291967	-0.294868
C	 0.0526955915	-0.6637134835	 1.239557861	 0.47908
O	 0.0731894294	-0.0090254436	 2.257064203	-0.371797
H	 0.8613790244	 1.8383867006	 0.4694101047	 0.162041
H	-0.0737491691	 1.7698257806	-1.0628510904	 0.153859
H	-0.9045090468	 1.8025414259	 0.5296053595	 0.162092
H	 0.0742527409	-3.7397314287	 0.0120012937	 0.15165
77.0185	122.1019	197.1784	309.8096	349.3721	373.9467	419.7963	509.8986	541.6283	584.9038	627.766	692.7568	802.1409	842.7812	965.5667	979.0664	1058.3311	1100.5883	1148.3641	1234.1307	1318.4785	1368.5289	1438.5321	1460.3233	1468.6815	1501.3089	1557.1959	1672.6273	1799.3374	3061.2302	3127.2579	3141.0219	3181.677
CN1N=C(F)C=NC1=O	Cn1nc(F)cnc1=O	
InChI=1S/C4H4FN3O/c1-8-4(9)6-2-3(5)7-8/h2H,1H3	InChI=1S/C4H4FN3O/c1-8-4(9)6-2-3(5)7-8/h2H,1H3
