15
gdb 81259	2.89887	1.50067	1.22229	4.5024	66.34	-0.2287	-0.0867	0.142	1026.9782	0.111951	-457.751793	-457.744258	-457.743313	-457.783827	28.338	
C	-0.1030723548	 1.529024103	-0.0033238222	-0.42513
C	-0.0345142132	 0.0076824981	 0.0017170804	-0.018141
C	 1.1838036998	-0.6047704549	-0.7440163807	-0.056835
O	 2.0054447148	-0.3941256112	 0.4619459055	-0.296839
C	 0.744348684	-0.6181596458	 1.1921872506	-0.056836
C	 0.6373952163	-2.1259274049	 0.9455776089	 0.354761
O	 0.3714524838	-3.0395335101	 1.6687174393	-0.294845
C	 0.9853626975	-2.1153235775	-0.5875910663	 0.354759
O	 1.0603551342	-3.0185417184	-1.3666328527	-0.294844
H	 0.8738621945	 1.9638389173	 0.2213991296	 0.144836
H	-0.4287681585	 1.8946604325	-0.9820971899	 0.130732
H	-0.8204377326	 1.8827258079	 0.7437019247	 0.130732
H	-1.0084800982	-0.4417825182	-0.222451416	 0.101166
H	 1.604190003	-0.2113158702	-1.667564609	 0.113242
H	 0.7236951494	-0.2381389878	 2.2118096779	 0.113242
119.6532	157.9071	233.0217	253.8361	282.4652	294.369	484.9979	494.0152	556.056	650.2741	718.5348	785.0427	798.7585	849.8261	871.0493	913.2797	948.8669	998.8577	1061.0137	1075.8603	1079.0034	1167.2569	1192.5802	1207.0546	1232.2336	1244.193	1270.2603	1386.761	1408.3674	1493.3653	1502.0887	1880.9896	1899.1274	3042.2533	3049.7223	3109.267	3130.0033	3149.126	3149.3312
CC1C2OC1C(=O)C2=O	C[C@H]1[C@H]2O[C@@H]1C(=O)C2=O	
InChI=1S/C6H6O3/c1-2-5-3(7)4(8)6(2)9-5/h2,5-6H,1H3	InChI=1S/C6H6O3/c1-2-5-3(7)4(8)6(2)9-5/h2,5-6H,1H3/t2-,5+,6-
