20
gdb 40320	3.04699	1.22989	1.02905	2.8126	78.62	-0.2346	0.0697	0.3043	1220.2272	0.173089	-399.237739	-399.229226	-399.228282	-399.271619	32.293	
C	 0.2525782536	 1.4695595809	-0.0399644687	-0.25766
N	 1.1940524162	 0.3600903396	-0.2554965196	-0.306333
C	-0.196431844	 0.0631829546	 0.1267792573	-0.110241
C	-0.4113880231	-0.6291814851	 1.4432053048	 0.324263
C	-0.2208147928	 0.0908160959	 2.7253151132	-0.273356
N	-1.5816474411	-0.2430091339	 2.2583469294	-0.366741
C	-0.1686379509	-2.1131063848	 1.3664492984	-0.035504
C	-0.746726489	-3.0461985066	 2.3573625793	-0.251791
N	-1.2740266329	-3.0131861491	 0.9781531755	-0.334528
H	 0.4763229192	 2.0924330013	 0.8206604383	 0.121701
H	-0.1233371588	 2.0172860974	-0.9005825562	 0.115391
H	 1.327606257	 0.1992008779	-1.2502232055	 0.236058
H	-0.843653838	-0.321789323	-0.6616909648	 0.097322
H	 0.1091531938	-0.4700508986	 3.5945211724	 0.122021
H	 0.0900104315	 1.1304477738	 2.7127694118	 0.115787
H	-2.0116211732	 0.5869074936	 1.855787762	 0.23221
H	 0.7821032431	-2.3687657088	 0.9042126811	 0.098215
H	-0.2070843167	-3.9511892069	 2.621485092	 0.11213
H	-1.3659835438	-2.6222709246	 3.1418632836	 0.128545
H	-2.1373054003	-2.4708145237	 1.0011165459	 0.232512
44.8411	86.4653	171.0475	206.7498	268.071	297.1662	351.5617	456.9789	475.5012	611.7286	660.4694	814.4605	849.1447	870.3916	881.4157	897.8983	909.6845	931.2993	951.6527	971.0048	992.472	996.3836	1030.8754	1049.3546	1118.3074	1122.2612	1123.9363	1137.9808	1162.5972	1189.5011	1204.4607	1248.6917	1270.5832	1274.4034	1285.7339	1302.5724	1310.6044	1382.6689	1420.8162	1455.5534	1499.4407	1506.0306	1522.2406	3102.1442	3112.4099	3114.4218	3122.6351	3136.6262	3194.3573	3206.1555	3208.514	3468.7388	3491.0935	3505.0013
C1NC1C1(CN1)C1CN1	C1N[C@H]1[C@]1(CN1)[C@H]1CN1	
InChI=1S/C6H11N3/c1-4(7-1)6(3-9-6)5-2-8-5/h4-5,7-9H,1-3H2	InChI=1S/C6H11N3/c1-4(7-1)6(3-9-6)5-2-8-5/h4-5,7-9H,1-3H2/t4-,5-/m1/s1
