20
gdb 22591	3.58204	0.98063	0.83306	1.3651	78.96	-0.2411	0.0106	0.2517	1381.8525	0.17167	-440.266328	-440.257482	-440.256538	-440.299717	34.34	
O	-0.0383980663	 1.3711792445	 0.0035968123	-0.397612
N	 0.0577451458	-0.0318035393	-0.012717017	-0.197561
C	-1.0828321658	-0.6062434124	 0.0106472163	 0.389866
C	-2.4341323841	 0.0653380491	 0.0193393299	-0.314422
C	-3.3504389869	-0.5306621585	-1.0666689823	-0.195511
C	-3.4162353213	-2.0551189939	-0.987333057	 0.143334
O	-4.2656572099	-2.4889712722	-2.0404972233	-0.440807
C	-2.0121596527	-2.6638700489	-1.0887569243	-0.228715
C	-1.0848398986	-2.1141210158	 0.0113532763	-0.285547
H	 0.8868701891	 1.6323983335	-0.0438567021	 0.304927
H	-2.8907864992	-0.096394056	 1.006466584	 0.111777
H	-2.3241555964	 1.1415737152	-0.1110944418	 0.135256
H	-4.3598592403	-0.1170845804	-0.9796901467	 0.105648
H	-2.977140577	-0.2570157502	-2.0608293005	 0.112469
H	-3.849848323	-2.3365488461	-0.0102559318	 0.058343
H	-4.2887383348	-3.4511838565	-2.0277733641	 0.278863
H	-2.0689846726	-3.7575407212	-1.014957812	 0.084211
H	-1.6042365755	-2.4274901825	-2.079108607	 0.111978
H	-0.0625401691	-2.4809902785	-0.105221678	 0.11716
H	-1.4475788916	-2.4648963698	 0.9889766494	 0.106343
66.1278	168.9596	200.9293	269.1832	282.726	322.5384	335.3065	360.6129	393.34	447.849	475.3782	517.3883	577.5791	691.1252	769.2705	788.0805	839.8475	931.8696	954.6934	972.4483	985.5584	1018.3058	1075.417	1103.0286	1114.6151	1120.4702	1177.9379	1225.1268	1252.6728	1274.0094	1292.352	1324.3872	1339.5756	1353.0994	1356.9117	1393.8078	1415.1733	1439.598	1474.2743	1483.0675	1486.7856	1505.3845	1737.4767	2931.2942	3001.1579	3011.5481	3019.8036	3040.9724	3066.9835	3088.7581	3104.302	3135.7005	3814.7665	3825.0323
ON=C1CCC(O)CC1	ON=C1CC[C@@H](O)CC1	
InChI=1S/C6H11NO2/c8-6-3-1-5(7-9)2-4-6/h6,8-9H,1-4H2	InChI=1S/C6H11NO2/c8-6-3-1-5(7-9)2-4-6/h6,8-9H,1-4H2/t6-
