12
gdb 50812	2.64314	1.20171	0.86484	2.5838	58.97	-0.2751	-0.1302	0.1449	1224.9969	0.073666	-509.783256	-509.774289	-509.773345	-509.818703	29.066	
N	-0.4304050533	 0.2577544469	 1.8279385543	-0.480896
C	-0.0607032728	-0.2209875119	 0.7210457986	 0.345461
O	-0.8782540067	-0.3350858977	-0.359239967	-0.205422
C	-1.9890454326	 0.4899336583	-0.4509691155	 0.183623
O	-2.8115400625	 0.3013091536	-1.2840112397	-0.234414
C	 1.3248800378	-0.7928656426	 0.459955951	 0.230587
O	 2.0344018946	-1.1199840266	 1.3795462453	-0.262627
C	 1.8928734492	-0.8483636232	-0.9635105711	 0.091449
O	 1.5883538735	-0.0580778055	-1.8133582392	-0.199303
H	 0.3433187913	 0.2112294796	 2.4938307228	 0.261848
H	-1.9701996262	 1.291056887	 0.2985880203	 0.145098
H	 2.6875389277	-1.612412878	-1.08246154	 0.124595
46.3536	71.2939	102.453	110.674	169.6355	225.044	308.7624	381.8628	444.8217	531.8639	535.5403	630.0197	779.2408	849.593	911.8791	1003.4772	1033.7196	1048.9025	1085.5445	1193.1791	1350.08	1382.567	1404.2285	1717.4158	1802.2483	1827.346	1888.5721	2941.3948	3077.3421	3480.4688
N=C(OC=O)C(=O)C=O	[NH][C](OC=O)C(=O)C=O	
InChI=1S/C4H3NO4/c5-4(9-2-7)3(8)1-6/h1-2,5H	InChI=1S/C4H3NO4/c5-4(9-2-7)3(8)1-6/h1-2,5H
