13
gdb 5027	3.52541	2.35493	1.41348	6.7756	64.74	-0.203	-0.0151	0.1879	804.01	0.098728	-394.839066	-394.832548	-394.831604	-394.869483	25.296	
N	 0.0088369899	 1.3915627189	 0.1401460333	-0.578566
C	-0.07579781	 0.0247742618	 0.0482135248	 0.184151
C	-1.2152408265	-0.7120799041	 0.0241137534	-0.106779
N	-1.1111885073	-2.0944002611	-0.0107911484	-0.280869
C	 0.100646399	-2.6895821385	-0.0210034731	 0.09327
N	 1.2343504209	-2.0621897027	-0.0134477793	-0.3244
C	 1.2384536761	-0.6731463509	 0.0080754882	 0.366519
O	 2.2676603062	-0.0125487135	-0.0140106153	-0.389425
H	 0.9452251413	 1.7156264352	-0.0712766486	 0.269335
H	-0.7447692122	 1.9481277442	-0.2297327769	 0.246754
H	-2.2171391775	-0.3033088203	 0.0373499973	 0.119333
H	-1.9460613638	-2.6571652022	-0.0254233415	 0.270357
H	 0.0848644539	-3.7775186367	-0.0398971438	 0.130321
128.8587	293.7121	327.911	385.3194	428.006	479.9052	512.632	545.1796	582.8594	604.1934	614.6789	765.2068	809.3705	819.737	935.5641	941.2659	1061.4511	1093.5882	1168.31	1251.0589	1317.1679	1416.2461	1423.0704	1544.0022	1597.8814	1623.401	1698.5055	1742.0913	3152.4974	3212.0512	3536.917	3648.6417	3675.2906
NC1=CNC=NC1=O	Nc1c[nH]cnc1=O	
InChI=1S/C4H5N3O/c5-3-1-6-2-7-4(3)8/h1-2H,5H2,(H,6,7,8)	InChI=1S/C4H5N3O/c5-3-1-6-2-7-4(3)8/h1-2H,5H2,(H,6,7,8)
