20
gdb 97994	11.27989	0.40569	0.39599	3.5923	88.93	-0.2516	0.0208	0.2724	2713.4493	0.168723	-403.124504	-403.113444	-403.112499	-403.163465	36.653	
C	 0.0704536951	 1.560897487	 0.0696922158	-0.363617
C	-0.063523775	 0.0336179179	-0.0738451767	-0.31367
C	 0.6026464556	-0.4875262753	-1.2636184733	 0.100896
C	 1.1602828373	-0.8805244558	-2.256349613	 0.011181
C	 1.8301839428	-1.3993580495	-3.442765125	-0.349093
C	 2.0036058877	-2.9181654036	-3.3778586283	-0.064489
O	 2.6713304708	-3.3172911365	-4.5746829791	-0.179797
C	 2.795896493	-4.6426587178	-4.7757114668	 0.128959
N	 3.4151910896	-5.0733284605	-5.7875175519	-0.43757
H	 1.1216004081	 1.8538563346	 0.1372252208	 0.12893
H	-0.3668744444	 2.0715025876	-0.7924296526	 0.129295
H	-0.4429498438	 1.9053218535	 0.9722822507	 0.115089
H	 0.3492241325	-0.454908033	 0.8181984629	 0.128174
H	-1.1262881054	-0.2394198841	-0.1011754228	 0.128377
H	 1.2642150369	-1.1516914401	-4.3488071183	 0.142292
H	 2.8192742484	-0.9408192593	-3.5612186247	 0.144053
H	 2.598194918	-3.1952341075	-2.4984573035	 0.119546
H	 1.0252915848	-3.4089989436	-3.3012691751	 0.117725
H	 2.3147393982	-5.2520668704	-3.9974629227	 0.084656
H	 3.4070916197	-6.0911370736	-5.7910488562	 0.229062
29.0777	38.9747	56.9692	60.7971	128.2301	145.7851	192.7131	208.2655	272.4747	377.56	396.2467	452.6757	527.1404	635.3394	759.017	788.0363	794.9581	824.0994	964.0552	1006.117	1045.5372	1068.6002	1079.3641	1085.8309	1106.0699	1140.2596	1166.8191	1227.6025	1287.3899	1291.4265	1310.0881	1321.3502	1352.2609	1407.9618	1410.1897	1432.3602	1476.9122	1480.2361	1495.1597	1505.9528	1517.7493	1749.724	2370.3038	3009.4469	3019.9042	3023.4282	3034.419	3045.3127	3046.778	3053.9988	3077.9312	3118.7547	3125.0474	3518.338
CCC#CCCOC=N	CCC#CCCO[CH][NH]	
InChI=1S/C7H11NO/c1-2-3-4-5-6-9-7-8/h7-8H,2,5-6H2,1H3	InChI=1S/C7H11NO/c1-2-3-4-5-6-9-7-8/h7-8H,2,5-6H2,1H3
