20
gdb 111606	2.74952	1.51617	1.30251	0.7799	77.63	-0.2184	0.0652	0.2836	1075.346	0.172001	-403.102263	-403.094267	-403.093323	-403.135104	31.192	
C	 1.0666136044	 0.755928417	 0.8827441742	-0.373912
C	-0.0513006565	 0.3742639771	-0.0952855761	-0.214024
C	 0.4929399936	-0.3573875487	-1.30748061	 0.015551
C	 0.9432008883	-1.7810247368	-1.4029241887	-0.078604
C	 0.4967380726	-2.8456744765	-0.4362475084	 0.029878
O	-0.3914163557	-2.4313129918	 0.612717723	-0.249515
C	-0.9597972588	-3.0027560524	-0.5723512202	 0.036598
C	-1.4335233193	-1.9899089566	-1.609417415	-0.20415
N	-0.2435339481	-1.3024266607	-2.1662880886	-0.140732
H	 1.5157470902	-0.1390201691	 1.3236466034	 0.125999
H	 1.8615928964	 1.3213664188	 0.3834064168	 0.110673
H	 0.6792043734	 1.3753054798	 1.6973529525	 0.11187
H	-0.8009239185	-0.2154078189	 0.4274715315	 0.124774
H	-0.5433262484	 1.2856151864	-0.460581815	 0.092439
H	 1.0797255288	 0.3171465654	-1.9350350998	 0.089822
H	 1.8278477615	-2.0268013366	-1.9871507217	 0.086703
H	 1.1703282734	-3.6591288398	-0.1822703261	 0.101795
H	-1.4912451327	-3.9409669135	-0.4266147602	 0.1001
H	-1.9266851041	-2.5196290469	-2.4323727595	 0.113869
H	-2.1558543904	-1.2780673663	-1.195762572	 0.120865
52.0224	139.0338	206.712	253.4909	271.5307	347.5235	403.745	512.2261	600.2755	687.3027	717.9656	731.0293	767.3232	809.6876	855.6793	873.2716	877.9745	922.4032	965.5849	978.6124	1033.6603	1043.9707	1057.521	1082.1867	1105.1814	1116.6743	1151.9233	1178.4707	1222.9945	1257.8102	1289.6887	1304.4546	1323.2666	1330.954	1353.3144	1385.677	1407.1978	1422.7389	1449.9264	1484.789	1489.8019	1499.0866	1504.892	3021.0639	3032.7181	3039.2371	3071.8003	3078.8271	3095.5373	3111.9364	3122.9563	3135.4534	3158.9904	3161.4274
CCC1C2C3OC3CN12	CC[C@H]1[C@H]2[C@H]3O[C@H]3CN12	
InChI=1S/C7H11NO/c1-2-4-6-7-5(9-7)3-8(4)6/h4-7H,2-3H2,1H3	InChI=1S/C7H11NO/c1-2-4-6-7-5(9-7)3-8(4)6/h4-7H,2-3H2,1H3/t4-,5-,6-,7-,8?/m0/s1
