17
gdb 88418	2.45505	1.39944	1.0121	1.9365	71.93	-0.2556	-0.034	0.2215	1167.1596	0.136098	-455.147869	-455.139331	-455.138386	-455.181274	31.62	
O	-0.2616857003	 1.1442488173	-0.99661393	-0.42568
C	-0.2960836617	-0.1636579005	-0.5506974685	 0.126301
C	-0.1915249531	-0.3898485133	 0.9258319763	-0.331925
C	-1.5031335257	-0.6647445227	 0.2115592258	-0.044993
N	-2.631853937	 0.2054516879	 0.45354221	-0.068522
C	-3.3540618069	 0.7828414252	-0.5834894074	 0.112016
N	-2.9463527115	 0.7730357203	-1.7903041472	-0.492876
C	-3.1304126339	 0.3247867359	 1.7491057928	 0.170391
O	-4.1185469332	 0.9451599099	 2.0571054316	-0.311282
H	-1.00470268	 1.2179974626	-1.6211575319	 0.300636
H	 0.1665948781	-0.9024833838	-1.2057014774	 0.092943
H	 0.3714256706	-1.2338400773	 1.3063580668	 0.124231
H	-0.1465293125	 0.5104805865	 1.5280618331	 0.137245
H	-1.7829439705	-1.7028176383	 0.051950618	 0.112877
H	-4.2799511129	 1.2300670011	-0.2199196085	 0.152748
H	-3.6217175683	 1.2387975414	-2.3924772635	 0.24011
H	-2.5002425813	-0.2218700723	 2.4706404102	 0.10578
65.1584	153.2751	199.3042	208.6809	248.5476	269.4082	319.9066	360.7117	451.2388	553.6055	569.33	650.4906	741.0573	803.9755	828.0436	836.5021	863.6511	957.4333	1034.8421	1041.5803	1070.2375	1079.3023	1089.5244	1133.8265	1169.3783	1194.7259	1256.8229	1293.6442	1352.9649	1374.3541	1387.8252	1411.1623	1439.6413	1449.5718	1484.6382	1705.2143	1813.0077	2998.4728	3094.914	3133.5865	3135.7266	3144.7362	3237.6488	3512.7464	3619.616
OC1CC1N(C=N)C=O	O[C@H]1C[C@H]1N(C=N)C=O	
InChI=1S/C5H8N2O2/c6-2-7(3-8)4-1-5(4)9/h2-6,9H,1H2	InChI=1S/C5H8N2O2/c6-2-7(3-8)4-1-5(4)9/h2-6,9H,1H2/t4-,5+/m1/s1
