21
gdb 121672	7.04141	0.53728	0.50745	2.712	86.28	-0.2466	-0.0139	0.2327	2179.9074	0.178143	-387.084103	-387.07295	-387.072006	-387.122493	38.64	
C	-0.1184998137	 1.5263760303	-0.1679733059	-0.38081
C	-0.0693349275	 0.0047386281	-0.0058348884	-0.17097
C	 0.7551101934	-0.4381188204	 1.207146152	-0.158414
C	 0.8071709339	-1.9566793263	 1.3715664147	-0.303179
C	 1.5893334691	-2.4167960801	 2.5946482469	 0.372436
O	 2.0108627383	-1.6545765858	 3.4264203718	-0.273655
C	 1.8066962205	-3.9414822926	 2.6833515983	-0.479744
C	 2.393138481	-4.4006623677	 3.9298279758	 0.32557
C	 2.8747521507	-4.7866134809	 4.9595694733	-0.424756
H	 0.8866570122	 1.9427197392	-0.2965719078	 0.116526
H	-0.7135737342	 1.8162862391	-1.0394674739	 0.111603
H	-0.5619082446	 2.0031561868	 0.713030003	 0.117378
H	-1.0913760374	-0.3873452458	 0.0853089101	 0.093511
H	 0.346759059	-0.4475449829	-0.9162832691	 0.09277
H	 1.7776935119	-0.0508091121	 1.1244378913	 0.107915
H	 0.3459201814	 0.0047830161	 2.1219525489	 0.115114
H	-0.2079631217	-2.3731245899	 1.4563345261	 0.123671
H	 1.235762864	-2.4388492882	 0.4814145053	 0.116002
H	 0.8448820808	-4.4382795197	 2.4976188079	 0.14708
H	 2.4423587657	-4.2242632022	 1.8317176591	 0.153752
H	 3.301301127	-5.1191858448	 5.8731680706	 0.1982
25.7985	36.5461	75.4812	88.3312	125.8167	159.8297	245.49	271.5684	300.4704	320.91	391.4719	456.8054	465.134	624.0554	643.2438	694.103	716.7824	762.2281	845.7131	867.5375	915.7918	949.5647	960.285	1029.1789	1058.3515	1073.165	1105.9256	1137.9527	1212.641	1247.9168	1282.4721	1314.1301	1326.7569	1328.531	1371.1638	1399.7667	1414.4643	1436.6332	1453.38	1483.5228	1494.9616	1499.5645	1511.278	1826.2606	2249.7235	3001.9436	3009.1734	3013.0098	3030.2415	3030.4416	3035.4161	3041.0028	3043.3003	3081.035	3098.5262	3102.9363	3507.804
CCCCC(=O)CC#C	CCCCC(=O)CC#C	
InChI=1S/C8H12O/c1-3-5-7-8(9)6-4-2/h2H,3,5-7H2,1H3	InChI=1S/C8H12O/c1-3-5-7-8(9)6-4-2/h2H,3,5-7H2,1H3
