17
gdb 112535	2.32143	1.23855	1.10253	3.9674	68.15	-0.2566	0.001	0.2576	1171.652	0.136099	-455.117102	-455.108084	-455.107139	-455.151647	32.704	
O	 0.0661577033	 1.1270476856	-0.7132040044	-0.420093
C	 0.0589854853	-0.2050401846	-0.2460062971	-0.047088
C	-1.3435377097	-0.5840821043	 0.2241464177	-0.046699
N	-2.3223359601	-0.4145284759	-0.8972236404	-0.328309
C	-2.6148482032	-1.8728929477	-0.9400118421	-0.205564
C	-2.1150441498	-2.521573183	-2.1523316536	 0.311238
N	-1.6509629154	-3.0600805328	-3.0644486238	-0.323204
C	-1.6906540687	-2.1013012505	 0.3185665646	 0.111667
O	-0.6941487515	-3.0705052939	 0.278782108	-0.412703
H	-0.6152499606	 1.160935542	-1.3978382134	 0.28788
H	 0.3986175398	-0.9010984331	-1.03002663	 0.080128
H	 0.7705253901	-0.2675605724	 0.5827303065	 0.121067
H	-1.5955052283	-0.0024794372	 1.1165222199	 0.088903
H	-3.1406582887	 0.1274690063	-0.6479625818	 0.238943
H	-3.6636011577	-2.1480039531	-0.7943799601	 0.128169
H	-2.2975762595	-2.3252874862	 1.198253752	 0.112632
H	-0.2602120454	-3.0563308391	-0.5831021919	 0.303031
39.6324	106.5721	132.1855	170.6636	222.6524	295.567	338.8914	383.4529	469.3796	489.2419	522.6265	576.683	617.7301	726.0347	764.1991	842.6464	871.9223	931.8222	989.2649	1034.3232	1052.7801	1087.4934	1119.3451	1148.6635	1172.137	1206.0713	1262.0394	1271.503	1300.7674	1321.6608	1363.6019	1393.0826	1405.6259	1435.4709	1443.3837	1499.1784	2349.1872	2972.3157	3056.2512	3066.0066	3089.0745	3095.5875	3557.6625	3760.7863	3785.2416
OCC1NC(C#N)C1O	OC[C@H]1N[C@@H](C#N)[C@H]1O	
InChI=1S/C5H8N2O2/c6-1-3-5(9)4(2-8)7-3/h3-5,7-9H,2H2	InChI=1S/C5H8N2O2/c6-1-3-5(9)4(2-8)7-3/h3-5,7-9H,2H2/t3-,4+,5+/m0/s1
