16
gdb 31303	2.29319	1.54791	0.9296	1.957	85.01	-0.1843	0.0077	0.192	1214.762	0.123848	-400.742173	-400.733479	-400.732535	-400.775589	32.317	
C	-0.0281500076	 1.4254886522	 0.0330781299	-0.24809
O	-0.0044477942	 0.011032703	 0.0051752664	-0.262293
C	 0.605839606	-0.5529615217	-1.0616187843	 0.247399
C	 0.7044110394	-1.9349106581	-1.2179886779	 0.062103
N	 1.3839896347	-2.138400599	-2.4114455861	-0.316897
C	 1.7010453252	-0.9496623458	-2.9844272207	-0.07871
C	 1.2326791068	 0.0670895909	-2.1725750533	-0.285024
C	 0.2532650173	-2.9897895473	-0.4108728585	 0.286267
C	-0.1264182047	-3.9116665719	 0.2688134369	-0.462004
H	 0.9868123678	 1.8441289193	 0.0512673651	 0.120816
H	-0.5666012418	 1.835552204	-0.8316023396	 0.120806
H	-0.5502450685	 1.7067499438	 0.9488400445	 0.134633
H	 1.5989258455	-3.0487974918	-2.7783688027	 0.267857
H	 2.2328540834	-0.9043605295	-3.9210314736	 0.124899
H	 1.3339326214	 1.1225674898	-2.3636339216	 0.104258
H	-0.4673481808	-4.7108780479	 0.8786178254	 0.183979
77.0747	122.3665	156.8969	211.8804	251.2601	321.2388	408.9746	416.5775	443.3963	492.2725	542.5742	616.2695	639.7476	685.5065	693.3499	711.7596	734.0608	802.4476	911.6695	1042.4891	1107.8582	1129.0411	1178.9238	1200.6627	1215.9153	1259.6909	1321.7166	1441.3471	1462.1138	1487.8566	1491.1149	1506.554	1527.0619	1614.1983	2218.1405	3001.0203	3058.04	3135.8193	3258.929	3276.5081	3501.4077	3687.1321
COC1=C(NC=C1)C#C	COc1c([nH]cc1)C#C	
InChI=1S/C7H7NO/c1-3-6-7(9-2)4-5-8-6/h1,4-5,8H,2H3	InChI=1S/C7H7NO/c1-3-6-7(9-2)4-5-8-6/h1,4-5,8H,2H3
