16
gdb 53467	5.0018	0.69068	0.6114	1.3902	75.28	-0.2386	-0.065	0.1736	1766.2519	0.120975	-437.913037	-437.902611	-437.901667	-437.951047	34.986	
C	 0.1034006999	 1.4976132071	 0.0367096668	-0.499261
C	 0.0350092187	 0.0456923303	-0.0337386273	 0.142827
C	-0.0215984863	-1.1543280496	-0.0919440378	 0.03466
C	-0.0972194277	-2.6020997865	-0.1609396054	-0.491229
C	-1.4939507036	-3.1708077147	 0.0410689268	 0.297671
O	-2.4892094068	-2.5202327164	 0.2445762027	-0.289266
C	-1.5661807918	-4.7164774231	-0.0340239783	 0.338547
N	-2.8221980483	-5.1746149941	 0.1506329744	-0.524565
O	-0.5755669403	-5.3924650648	-0.2381818134	-0.350051
H	 0.771323443	 1.8265792931	 0.8403834355	 0.148233
H	 0.4763758916	 1.9249470174	-0.9005768117	 0.148235
H	-0.8848341242	 1.9295922786	 0.2285384495	 0.152878
H	 0.2701082982	-2.9906678136	-1.1208091696	 0.17017
H	 0.5549622349	-3.0865440562	 0.5788152957	 0.17017
H	-3.5621617858	-4.51046675	 0.3121164244	 0.280736
H	-3.0073391216	-6.1628081476	 0.1259145677	 0.270244
19.7757	34.8034	73.4183	73.9633	202.862	207.8096	277.4015	310.8188	358.0476	374.6975	412.05	428.7656	512.3115	608.0586	629.7143	719.3595	771.1056	821.9686	941.9342	1050.8515	1054.5575	1056.1417	1098.8314	1173.1446	1191.5831	1333.1201	1379.2828	1414.2895	1416.2674	1477.9941	1478.1431	1587.9074	1801.4096	1816.7612	2383.9731	3025.3745	3027.7168	3044.0275	3088.3165	3090.1377	3595.9431	3737.422	19.7498	34.8033	73.4184	73.9631	202.8617	207.8096	277.4014	310.8197	358.0475	374.6979	412.0502	428.7658	512.3115	608.0585	629.7144	719.3595	771.1055	821.9686	941.9342	1050.8516	1054.5578	1056.1418	1098.8311	1173.1447	1191.5831	1333.12	1379.2826	1414.2898	1416.2675	1477.9949	1478.1439	1587.9069	1801.4094	1816.761	2383.9733	3025.3745	3027.7168	3044.0275	3088.3165	3090.1376	3595.9432	3737.4221
CC#CCC(=O)C(N)=O	CC#CCC(=O)C(=O)N	
InChI=1S/C6H7NO2/c1-2-3-4-5(8)6(7)9/h4H2,1H3,(H2,7,9)	InChI=1S/C6H7NO2/c1-2-3-4-5(8)6(7)9/h4H2,1H3,(H2,7,9)
