15
gdb 68746	2.62148	1.77001	1.28333	1.6635	67.07	-0.2465	-0.0678	0.1786	963.3702	0.111055	-457.764054	-457.755912	-457.754968	-457.796496	30.871	
O	 0.0611621831	 1.3981961673	 0.200509132	-0.460596
C	 0.0056366792	 0.0227456935	 0.0439913698	 0.305454
C	-0.2799422698	-0.8409878362	 1.263895351	-0.37293
C	-1.2596404355	-0.784645244	 0.0947930964	 0.245013
O	-2.5141588393	-0.2240011275	 0.2494541297	-0.473143
C	-1.1156294705	-1.8529898301	-0.9664619854	 0.320176
O	-2.023052875	-2.5781163678	-1.3107060108	-0.348478
C	 0.2618915971	-1.7409594458	-1.5129308843	-0.196944
C	 0.863265447	-0.6633523456	-0.9843463758	-0.13892
H	-0.6051475029	 1.791720961	-0.3749862923	 0.298772
H	 0.3193579867	-1.7250582995	 1.4528274375	 0.123356
H	-0.6207868429	-0.2924135978	 2.1364842078	 0.140062
H	-3.1346769904	-0.8927753151	-0.0756830161	 0.300159
H	 0.6699637004	-2.4350798884	-2.2350098529	 0.127773
H	 1.8677536627	-0.3172921839	-1.2028783066	 0.130246
106.5899	126.2046	228.895	269.0257	275.4251	337.937	357.5656	421.5927	481.9274	511.2806	601.9569	697.6023	710.1076	738.9047	766.2262	858.9709	883.0796	910.3905	968.5234	988.9344	1042.4543	1053.1278	1077.3455	1143.7863	1199.409	1276.5941	1319.9512	1353.1727	1379.9172	1427.6084	1493.8786	1618.764	1807.482	3126.0099	3197.1361	3228.0691	3235.5579	3734.7964	3791.3157
OC12CC1(O)C(=O)C=C2	O[C@@]12C[C@]1(O)C(=O)C=C2	
InChI=1S/C6H6O3/c7-4-1-2-5(8)3-6(4,5)9/h1-2,8-9H,3H2	InChI=1S/C6H6O3/c7-4-1-2-5(8)3-6(4,5)9/h1-2,8-9H,3H2/t5-,6-/m0/s1
