18
gdb 74039	2.95933	1.56727	1.05132	4.2897	82.98	-0.2219	-0.0165	0.2054	1133.6877	0.149621	-401.984687	-401.976847	-401.975903	-402.017157	29.505	
C	 0.0795362668	 1.5196768255	 0.003187365	-0.496201
C	-0.0484882524	 0.0331759005	 0.0311781193	 0.047393
C	-1.1180431865	-0.7652487001	-0.0099386937	 0.230707
C	-2.6123184716	-0.8314974995	-0.0923534598	-0.396386
C	-2.8462682845	-2.3972410589	-0.0690431322	-0.156068
N	-1.5379333649	-3.0793635082	 0.0200625461	-0.33758
C	-0.6722559574	-2.1495728518	 0.0472600046	 0.410099
O	 0.672891084	-2.2298102155	 0.124595372	-0.258396
C	 1.1699336869	-0.8758336154	 0.1207471699	-0.168333
H	 0.6812424423	 1.8513507031	-0.85255844	 0.13603
H	-0.8985179731	 2.0017851073	-0.0626620488	 0.135175
H	 0.5834850793	 1.8930715183	 0.9037160496	 0.136021
H	-3.1037089632	-0.3341772333	 0.7498962237	 0.123117
H	-3.0049329933	-0.3749460134	-1.0064649419	 0.123121
H	-3.468166875	-2.6931186946	 0.7833042575	 0.110648
H	-3.3699638199	-2.7339866455	-0.9707724286	 0.110648
H	 1.85147479	-0.7555543321	-0.7324606382	 0.124999
H	 1.7523752224	-0.7141750965	 1.0381147054	 0.125006
108.673	136.5187	184.6909	236.0218	236.6839	291.5749	463.7792	517.1102	576.7892	661.5145	712.6107	713.576	789.4097	815.5101	903.8895	930.7045	966.8513	991.4674	1035.8441	1048.6161	1085.0831	1087.28	1142.7041	1183.3295	1195.4203	1213.2642	1234.0481	1273.9165	1317.3421	1356.0164	1406.0706	1418.6823	1472.6509	1479.34	1485.8856	1504.2188	1506.7514	1742.5331	1764.7268	3007.5467	3019.795	3034.4367	3037.8357	3051.014	3060.2732	3064.8623	3087.9885	3121.186
CC1=C2CCN=C2OC1	CC1=C2CCN=C2OC1	
InChI=1S/C7H9NO/c1-5-4-9-7-6(5)2-3-8-7/h2-4H2,1H3	InChI=1S/C7H9NO/c1-5-4-9-7-6(5)2-3-8-7/h2-4H2,1H3
