19
gdb 72474	2.68391	1.87134	1.52464	1.53	75.01	-0.2394	0.0111	0.2505	955.2608	0.160834	-423.047636	-423.040235	-423.039291	-423.078968	30.179	
C	-0.0660344015	 1.4983710848	-0.0138909802	-0.463731
C	 0.0012502957	-0.0112081015	-0.004023684	 0.414755
O	 0.5965154849	-0.4724070326	-1.2214293035	-0.287509
C	 0.0967589992	-1.7954553213	-1.4092015924	-0.10454
C	-1.0453668214	-1.9265789825	-0.3594217382	 0.040572
C	-0.5958118546	-2.6536411467	 0.915205825	-0.267548
C	 0.4684521701	-1.8319248469	 1.6035614242	-0.090639
C	 0.7568967062	-0.6027604436	 1.1809057923	-0.060983
O	-1.3071768438	-0.5600817713	-0.0396628773	-0.274499
H	 0.9428520346	 1.9148620469	-0.0707653786	 0.128474
H	-0.6399196028	 1.8313213991	-0.8807346158	 0.132708
H	-0.5462610531	 1.8593521047	 0.899001266	 0.130447
H	-0.2707643175	-1.8832502383	-2.4363831681	 0.109354
H	 0.8858449872	-2.5403878671	-1.249021924	 0.100701
H	-1.956894938	-2.359283651	-0.7768022145	 0.0839
H	-1.4521668116	-2.8123660015	 1.5849679947	 0.115142
H	-0.2116483993	-3.6509402231	 0.6646671569	 0.107775
H	 0.989003339	-2.272053883	 2.4498680834	 0.094432
H	 1.5399668466	-0.0039081951	 1.6350739742	 0.091189
157.0737	199.602	262.8931	276.0521	333.9048	375.9039	491.5438	504.2476	536.979	647.8842	718.4742	727.6264	794.6889	831.8208	855.2249	882.4148	910.9469	918.3374	958.1367	988.559	1024.3651	1044.0147	1065.409	1077.3836	1131.972	1161.8333	1200.0991	1212.1086	1218.688	1280.4348	1318.4745	1340.6131	1355.544	1379.3249	1407.4082	1416.0086	1467.2232	1481.1491	1484.7663	1519.0116	1708.7772	3013.5846	3025.5442	3046.609	3056.3115	3073.3939	3094.5944	3133.2563	3144.6808	3157.4544	3185.6114
CC12OCC(CC=C1)O2	C[C@@]12OC[C@@H](CC=C1)O2	
InChI=1S/C7H10O2/c1-7-4-2-3-6(9-7)5-8-7/h2,4,6H,3,5H2,1H3	InChI=1S/C7H10O2/c1-7-4-2-3-6(9-7)5-8-7/h2,4,6H,3,5H2,1H3/t6-,7+/m1/s1
