16
gdb 127603	4.99318	0.90146	0.76897	3.1786	81.26	-0.2051	-0.0078	0.1973	1434.7739	0.125813	-430.262284	-430.253445	-430.252501	-430.297249	30.692	
C	-0.0190676339	 1.3809893266	 0.0799319109	-0.309114
N	 0.0039110802	-0.0641856914	 0.0369094125	 0.163569
N	 0.0205081304	-0.7358885928	-1.1084904116	-0.229368
C	-0.0144370028	-2.0118711416	-0.7242048291	-0.135519
C	-0.0497017105	-2.0658263462	 0.6821745043	 0.367771
N	-0.0946040244	-3.2125292254	 1.4560092618	-0.352302
C	 0.1347722961	-3.1137483309	 2.712304161	 0.111562
N	 0.0073649046	-4.179147966	 3.5485965682	-0.498172
N	-0.0449594967	-0.8028555279	 1.142436506	-0.340116
H	 0.791390281	 1.7481572833	 0.714289931	 0.146759
H	 0.1114620014	 1.7393871663	-0.9401430734	 0.160551
H	-0.9730909347	 1.7369246693	 0.4798954841	 0.146653
H	-0.0060820529	-2.8192008281	-1.4378366688	 0.118612
H	 0.4082927948	-2.1774049637	 3.2083958328	 0.123408
H	-0.1113447326	-5.085893455	 3.1229012244	 0.263558
H	 0.45502306	-4.1521174367	 4.448220676	 0.262147
38.3943	58.9347	133.2444	136.3886	207.8781	333.6459	352.6986	398.8771	434.8058	504.2613	592.1147	667.3491	701.0438	747.4288	822.7585	870.6798	1009.1988	1019.0828	1036.4893	1077.0446	1122.2955	1148.7162	1199.2272	1303.1951	1337.6883	1357.9198	1370.3452	1421.1639	1447.6333	1459.8021	1477.3683	1511.1388	1552.7719	1627.1056	1727.7992	3051.3501	3086.1045	3116.2448	3173.4178	3277.3078	3591.077	3723.5151
CN1N=CC(N=CN)=N1	Cn1ncc(N=CN)n1	
InChI=1S/C4H7N5/c1-9-7-2-4(8-9)6-3-5/h2-3H,1H3,(H2,5,6,8)	InChI=1S/C4H7N5/c1-9-7-2-4(8-9)6-3-5/h2-3H,1H3,(H2,5,6,8)
