17
gdb 84644	2.78043	1.76266	1.19606	1.4211	74.69	-0.2349	-0.0141	0.2208	1025.0767	0.138092	-418.045662	-418.037896	-418.036952	-418.078176	29.244	
C	 0.0458160098	 1.4546923581	 0.0202882712	-0.33611
N	 0.1267112184	-0.0029358478	-0.0015247345	-0.131975
C	 0.1541406363	-0.683304	-1.2189633191	 0.090378
N	 0.099082045	-1.9397346241	-1.4020159692	-0.257388
C	 0.084141512	-2.7811269801	-0.255177812	 0.009335
C	 1.2747229209	-2.7932632938	 0.6549614403	-0.301434
C	-0.0072160536	-2.1448199332	 1.1419216824	-0.169177
C	-0.1139312166	-0.6687942562	 1.2043218614	 0.430036
O	-0.4109082112	-0.0493038996	 2.20676127	-0.37717
H	 0.3312878574	 1.8391820653	-0.960296878	 0.129382
H	-0.9662916709	 1.7906053904	 0.2647214892	 0.14915
H	 0.7231954828	 1.8518258527	 0.7781432465	 0.154399
H	 0.2114551896	-0.0222690345	-2.0823766717	 0.122108
H	-0.4302378194	-3.7232070687	-0.4112381299	 0.108154
H	 1.5462816439	-3.7313763481	 1.1243324305	 0.13136
H	 2.1104026468	-2.1512486726	 0.3991486628	 0.1321
H	-0.5536674615	-2.6425399878	 1.93371342	 0.116853
81.1306	117.755	168.7798	276.8228	327.3378	341.4475	438.3647	519.2704	556.3638	607.114	700.6035	751.1284	776.9476	825.5439	859.9735	938.4951	956.2369	981.4544	1001.8063	1052.4327	1072.8035	1120.7655	1153.5828	1157.2163	1188.0927	1200.2242	1282.2238	1332.0384	1369.9757	1393.6317	1425.5464	1471.186	1473.8419	1480.4579	1513.8386	1725.466	1780.5852	3051.5536	3121.13	3140.6666	3142.2313	3149.817	3166.3388	3190.3776	3232.7695
CN1C=NC2CC2C1=O	CN1C=N[C@H]2C[C@H]2C1=O	
InChI=1S/C6H8N2O/c1-8-3-7-5-2-4(5)6(8)9/h3-5H,2H2,1H3	InChI=1S/C6H8N2O/c1-8-3-7-5-2-4(5)6(8)9/h3-5H,2H2,1H3/t4-,5+/m1/s1
