17
gdb 45511	4.1171	1.25362	1.02246	2.5245	75.09	-0.2341	-0.0278	0.2063	1129.9097	0.136789	-421.856305	-421.848981	-421.848037	-421.888449	28.356	
O	 0.0276974291	 0.1019640023	 0.4069681102	-0.296312
C	-0.0066294892	 1.2551834034	 0.077159443	 0.390339
C	-1.2796336145	 2.1075946907	-0.1046435415	-0.345413
C	-0.7959025716	 3.3350628382	-0.8916456165	 0.068674
O	-1.4090600725	 4.5762527206	-0.5886599866	-0.280697
C	-0.383777352	 5.542252861	-0.3235663701	-0.113714
C	 0.876817183	 4.7362263338	-0.1067614969	-0.266509
C	 0.6418079933	 3.4756605463	-0.4451839622	 0.313558
C	 1.2420823	 2.1271667725	-0.2411605319	-0.444339
H	-2.0828568882	 1.5254695456	-0.5600067112	 0.130141
H	-1.6117476176	 2.4283459918	 0.8910205064	 0.143495
H	-0.8731988406	 3.1322112681	-1.9744610222	 0.083191
H	-0.2961510643	 6.2498471978	-1.1649259224	 0.105546
H	-0.6677271478	 6.1247644263	 0.5631055158	 0.114581
H	 1.7847798372	 5.1563044517	 0.3069735225	 0.108599
H	 1.9872246211	 2.0576751035	 0.554827392	 0.144376
H	 1.7012468446	 1.7151470763	-1.1508018584	 0.144484
71.5508	129.5614	241.0132	325.9927	340.0258	462.0074	496.7173	531.2896	613.9475	659.8156	744.9506	774.8924	810.431	817.4718	858.6704	932.4129	958.2827	995.147	1037.5278	1042.4938	1097.5567	1109.4928	1139.1663	1181.0265	1187.4249	1198.1739	1226.9043	1243.8563	1279.9287	1329.0248	1361.496	1385.7009	1438.3701	1446.9781	1519.8741	1752.1491	1858.8504	2941.0274	2965.2818	3020.831	3025.7647	3045.221	3106.3406	3121.9889	3216.614
O=C1CC2OCC=C2C1	O=C1C[C@H]2OCC=C2C1	
InChI=1S/C7H8O2/c8-6-3-5-1-2-9-7(5)4-6/h1,7H,2-4H2	InChI=1S/C7H8O2/c8-6-3-5-1-2-9-7(5)4-6/h1,7H,2-4H2/t7-/m1/s1
