19
gdb 124452	3.13074	1.25317	1.11556	1.1286	76.04	-0.2891	-0.0213	0.2679	1171.4025	0.158478	-419.224335	-419.215405	-419.214461	-419.257934	33.4	
C	-0.0005158662	 1.5282808708	-0.0221567916	-0.408379
C	-0.0189568092	-0.0159981947	-0.0039777685	 0.132988
C	 0.7692350432	-0.5267392172	 1.2220799701	-0.408396
C	-1.4675115456	-0.5280903209	 0.0462889685	-0.404645
C	 0.6758542187	-0.5089259036	-1.2483965723	 0.384401
N	 0.1044848901	-1.2650006776	-2.1488273593	-0.192492
O	 1.1130282171	-1.467913754	-3.1054362602	-0.160755
C	 2.176668663	-0.8014090678	-2.660184976	 0.102061
N	 1.9945331791	-0.189389801	-1.5370462062	-0.30997
H	 1.0225954086	 1.906995142	-0.0874169788	 0.135945
H	-0.5660212042	 1.9188267373	-0.8740626011	 0.119117
H	-0.4564570918	 1.9159231464	 0.8944214581	 0.114147
H	 0.3149574069	-0.1437719679	 2.1414463184	 0.114166
H	 0.7597107403	-1.6202690661	 1.2687310304	 0.119085
H	 1.8097264517	-0.1944444806	 1.1849672088	 0.135948
H	-2.0429903771	-0.1826472465	-0.8166530021	 0.126893
H	-1.5043549098	-1.6206872171	 0.0540642087	 0.126799
H	-1.954758995	-0.1605148388	 0.9547870257	 0.107806
H	 3.06930479	-0.8353330225	-3.2680167323	 0.165283
53.1213	154.961	200.8411	218.7658	273.4106	275.6	325.6155	333.4341	336.5385	438.9809	482.8437	593.014	631.4814	792.6402	831.6302	902.1668	906.3126	937.5516	946.1871	966.0652	984.8487	993.1422	1048.5489	1049.0779	1150.	1207.6515	1228.9454	1243.516	1310.503	1360.509	1394.0424	1399.9147	1429.9742	1475.3202	1485.523	1489.3576	1499.9199	1501.163	1502.8297	1534.2816	1597.9478	3035.373	3037.2626	3044.2895	3104.7842	3106.7078	3114.6187	3120.9198	3122.6378	3125.8272	3263.1319
CC(C)(C)C1=NOC=N1	CC(C)(C)c1nocn1	
InChI=1S/C6H10N2O/c1-6(2,3)5-7-4-9-8-5/h4H,1-3H3	InChI=1S/C6H10N2O/c1-6(2,3)5-7-4-9-8-5/h4H,1-3H3
