14
gdb 133786	3.19999	0.85416	0.77267	2.1764	51.5	-0.2804	-0.0526	0.2278	1409.4624	0.094592	-605.33148	-605.321994	-605.32105	-605.368185	31.788	
O	-0.1153013913	 1.4213896763	 0.3014830826	-0.420693
C	 0.0385468285	 0.0511464713	-0.0255755934	-0.084988
C	-1.3314243048	-0.5928748031	 0.1315751534	-0.297178
C	-1.3298328381	-2.0657050381	-0.1845827916	 0.223615
O	-0.3708102935	-2.7046373463	-0.5275735855	-0.275849
C	-2.7094317068	-2.7704585556	-0.0395538219	 0.240324
F	-3.1601924314	-2.6368929409	 1.2179391704	-0.079329
F	-3.6044001326	-2.1941809493	-0.8575765473	-0.079276
F	-2.6349802988	-4.0587146558	-0.3302996179	-0.044341
H	 0.740443843	 1.850136192	 0.2092141339	 0.292009
H	 0.3948296341	-0.0878379944	-1.0563732799	 0.107806
H	 0.7595174428	-0.4507447328	 0.6355526138	 0.10783
H	-1.7071548642	-0.4550412639	 1.1533440179	 0.155055
H	-2.066696487	-0.0973031795	-0.5149372845	 0.155014
19.6589	58.3427	92.5896	123.2322	231.0606	255.4455	273.067	315.5437	382.8466	438.6464	495.9733	574.9849	604.0175	715.8522	806.2952	821.8809	995.296	1047.0054	1069.5129	1097.9236	1178.0007	1208.0621	1222.8207	1261.4139	1299.5338	1300.7689	1372.4945	1447.23	1472.1846	1524.2336	1844.1368	2994.9286	3024.2451	3042.123	3075.6682	3834.0301
OCCC(=O)C(F)(F)F	OCCC(=O)C(F)(F)F	
InChI=1S/C4H5F3O2/c5-4(6,7)3(9)1-2-8/h8H,1-2H2	InChI=1S/C4H5F3O2/c5-4(6,7)3(9)1-2-8/h8H,1-2H2
