23
gdb 110972	2.29072	1.22563	1.08285	1.1886	86.53	-0.2509	0.0805	0.3314	1311.82	0.204907	-388.247778	-388.238049	-388.237104	-388.282107	37.328	
C	 0.0415473325	 1.4730923397	-0.2136058412	-0.376395
C	 0.2169116119	-0.0503585646	-0.2471907802	-0.234354
C	 0.7976321735	-0.5930884551	 1.0541147489	 0.029365
C	-0.0665619854	-0.7982455992	 2.3478938637	-0.085088
C	-0.7047380561	-2.0454515315	 1.6710176452	-0.30585
C	 0.8273896675	-2.1122339261	 1.373692675	 0.364698
O	 1.5190603967	-3.0260324424	 0.5960783432	-0.477211
C	 1.0483281607	-1.7555394967	 2.887898884	-0.009156
C	 2.3805510853	-1.2611930226	 3.4305873902	-0.445037
H	 0.9921342632	 1.9777506409	-0.0071209013	 0.112576
H	-0.3338500001	 1.8508141842	-1.169778683	 0.110051
H	-0.6669094826	 1.7745306267	 0.5656010671	 0.11442
H	-0.7407319674	-0.5184526152	-0.4945987802	 0.096251
H	 0.9019430009	-0.3194856744	-1.0613966289	 0.105709
H	 1.7494542636	-0.0882013498	 1.2398637642	 0.059893
H	-0.5911237384	-0.0337906628	 2.9176808235	 0.073784
H	-1.102361969	-2.8075608345	 2.3483086159	 0.08097
H	-1.377168572	-1.8786293286	 0.8305644947	 0.095468
H	 1.3629404065	-3.9083672538	 0.9497800796	 0.280688
H	 0.6437613629	-2.5222760069	 3.5608116436	 0.053486
H	 2.8308548852	-0.4609566505	 2.8394589466	 0.123047
H	 2.2604387615	-0.8876763224	 4.4535400378	 0.114912
H	 3.1015372791	-2.0856242345	 3.4672905517	 0.117775
73.5989	132.5033	139.4963	191.1212	202.2821	252.6221	267.4984	293.9618	378.3603	422.7519	477.9555	557.0649	600.9561	651.752	739.0245	752.1533	805.341	837.2496	877.3361	921.4184	953.0632	969.1394	1009.793	1029.9133	1049.7274	1072.2436	1089.4457	1106.84	1139.4817	1152.6281	1154.183	1175.0443	1208.5804	1219.0062	1228.7809	1290.3339	1299.6851	1349.4959	1356.1467	1404.0685	1412.4691	1426.8093	1452.2051	1486.0031	1494.359	1499.5092	1502.8593	1506.7908	1530.5876	3017.6782	3028.681	3030.1646	3034.847	3054.8356	3063.8955	3075.8741	3088.2334	3098.8955	3101.6064	3122.0732	3133.8739	3142.3535	3807.1015
CCC1C2CC1(O)C2C	CC[C@H]1[C@H]2C[C@]1(O)[C@H]2C	
InChI=1S/C8H14O/c1-3-7-6-4-8(7,9)5(6)2/h5-7,9H,3-4H2,1-2H3	InChI=1S/C8H14O/c1-3-7-6-4-8(7,9)5(6)2/h5-7,9H,3-4H2,1-2H3/t5-,6-,7-,8-/m0/s1
