15
gdb 124951	2.74629	1.4892	0.97491	2.408	69.41	-0.26	-0.0297	0.2303	1133.9741	0.112653	-453.985799	-453.97734	-453.976396	-454.019558	30.347	
C	 0.0391285693	 1.4963111924	 0.0023549165	-0.503994
C	-0.0701950287	 0.0173861767	 0.0744602952	 0.381556
C	-1.1369791339	-0.8474291913	 0.0773406919	-0.01833
C	-0.5134551491	-2.1268456563	 0.1729828133	-0.064421
N	 0.7888508073	-2.0493604206	 0.2181481626	-0.137722
O	 1.0699073875	-0.6798089521	 0.1508357286	-0.208984
C	-2.5676236946	-0.4770684279	 0.0070258927	 0.312239
N	-3.4394096506	-1.5276550857	-0.1311705878	-0.537361
O	-2.9603448467	 0.6746442783	 0.0951894132	-0.366216
H	 0.5968238698	 1.7968896874	-0.8908461284	 0.14955
H	-0.962345867	 1.9235032789	-0.0226038731	 0.186456
H	 0.580836447	 1.8801091805	 0.8729504733	 0.152273
H	-0.9710279732	-3.1053454525	 0.2289970323	 0.13144
H	-3.1279576134	-2.4180971415	-0.4802926233	 0.259343
H	-4.4005593135	-1.2787095662	-0.306021597	 0.264172
53.944	87.0173	184.325	195.3234	258.8115	315.9598	338.6013	420.4462	490.8924	536.6839	643.8795	659.6077	681.2583	697.2049	791.9891	899.7242	907.4705	957.5642	1016.0608	1069.6297	1084.3106	1143.5111	1195.1517	1272.7315	1344.6857	1396.3955	1422.5247	1471.6365	1489.1329	1525.1754	1619.3198	1642.5727	1771.628	3044.2966	3100.5411	3171.8716	3232.3598	3593.0693	3721.5802
CC1=C(C=NO1)C(N)=O	Cc1c(cno1)C(=O)N	
InChI=1S/C5H6N2O2/c1-3-4(5(6)8)2-7-9-3/h2H,1H3,(H2,6,8)	InChI=1S/C5H6N2O2/c1-3-4(5(6)8)2-7-9-3/h2H,1H3,(H2,6,8)
