14
gdb 50065	4.37929	0.99153	0.87701	5.4001	73.14	-0.2578	-0.0837	0.1742	1260.3277	0.098181	-436.647583	-436.63889	-436.637945	-436.681922	30.338	
O	-0.2395191172	 0.508284388	-0.2661472395	-0.282025
C	 0.0133754559	 1.6651173051	-0.0597085853	 0.161361
N	 1.1993086487	 2.1012860193	 0.5401657045	-0.063709
C	 2.5007285809	 1.6143060417	 0.2026979958	-0.223873
C	 2.1263698808	 3.0793653016	 0.0213125507	-0.147122
C	 1.9850007662	 3.5588452357	-1.3971354432	 0.24875
O	 1.2624571942	 3.013314135	-2.204508696	-0.299626
C	 2.7961837405	 4.7117020168	-1.7314795093	 0.244678
C	 3.4788419181	 5.6703422805	-1.9839295507	-0.382505
H	-0.6967945355	 2.4944373597	-0.216440925	 0.09818
H	 3.1543906922	 1.3447273707	 1.0269742968	 0.139702
H	 2.5856671211	 1.0142829492	-0.6997337981	 0.158097
H	 2.5083266733	 3.8084282465	 0.7307076861	 0.123343
H	 4.0745538106	 6.5168677303	-2.2280484768	 0.224749
37.484	95.0551	151.9943	194.6153	216.6156	268.684	295.1683	369.7701	478.3239	594.0686	632.3486	659.7225	712.9043	758.0887	803.0041	834.9882	969.516	1006.953	1030.6888	1053.0059	1096.651	1106.462	1134.1702	1163.5589	1349.8901	1415.2569	1417.1898	1499.8725	1756.8196	1814.3118	2214.5048	2994.8589	3114.146	3152.7433	3211.6632	3491.2378
O=CN1CC1C(=O)C#C	O=CN1C[C@H]1C(=O)C#C	
InChI=1S/C6H5NO2/c1-2-6(9)5-3-7(5)4-8/h1,4-5H,3H2	InChI=1S/C6H5NO2/c1-2-6(9)5-3-7(5)4-8/h1,4-5H,3H2/t5-,7?/m0/s1
