20
gdb 6211	3.63868	1.44249	1.37692	1.6805	76.21	-0.2456	0.0138	0.2595	1021.9471	0.176561	-349.021157	-349.012654	-349.01171	-349.053778	32.979	
C	 0.0869699145	 1.5301902465	-0.0312712738	-0.425311
C	-0.0022732904	-0.0044611955	-0.0002168363	 0.265283
C	-1.4851051678	-0.4313758459	 0.0468452617	-0.416155
C	 0.7405700479	-0.6680914635	-1.1983704465	-0.28549
C	 1.52865378	-1.8790857945	-0.6302391688	 0.109912
O	 2.8192518392	-2.0559807931	-1.2036832953	-0.434566
C	 1.5439879873	-1.602426871	 0.8555882032	-0.140857
C	 0.7425288253	-0.5929976468	 1.1858143815	-0.082503
H	 1.1290782602	 1.8657056653	-0.0246346022	 0.109366
H	-0.3915177952	 1.9315986194	-0.9317028944	 0.113465
H	-0.4148091386	 1.974160542	 0.8361629164	 0.109766
H	-2.033983049	-0.0219585715	-0.808626352	 0.111842
H	-1.5847132992	-1.5210672048	 0.0269643851	 0.115903
H	-1.9707803158	-0.0688380977	 0.95962195	 0.109957
H	 0.0637488503	-0.9489696578	-2.0098769995	 0.097978
H	 1.4693814799	 0.0339706417	-1.6198416618	 0.090253
H	 1.0184972264	-2.8265230893	-0.8450938653	 0.092316
H	 3.3454975041	-1.2853555506	-0.9620415773	 0.271256
H	 2.1398676915	-2.1988497512	 1.5382079042	 0.096607
H	 0.5738045192	-0.2275835318	 2.1950344313	 0.09098
55.6325	186.6054	236.2777	261.8954	303.1217	310.9163	346.3612	351.4642	416.055	443.8749	543.3886	602.5774	700.0487	796.3679	813.0541	867.9728	904.6217	929.521	952.1634	970.0632	985.0866	1023.6661	1048.5617	1070.9208	1119.0023	1136.7901	1212.7744	1241.5646	1247.4694	1275.3078	1297.0197	1325.6247	1372.58	1396.3102	1420.7049	1430.8234	1481.1699	1485.9464	1490.9467	1501.7519	1509.5013	1684.6049	3021.811	3025.5773	3027.7264	3040.8106	3087.6681	3092.4183	3094.7016	3098.8711	3103.4737	3165.7141	3199.1423	3793.4396
CC1(C)CC(O)C=C1	CC1(C)C[C@@H](O)C=C1	
InChI=1S/C7H12O/c1-7(2)4-3-6(8)5-7/h3-4,6,8H,5H2,1-2H3	InChI=1S/C7H12O/c1-7(2)4-3-6(8)5-7/h3-4,6,8H,5H2,1-2H3/t6-/m0/s1
