16
gdb 35436	3.41902	1.45568	1.41307	4.1624	67.71	-0.2772	0.0163	0.2935	959.1338	0.125891	-437.863642	-437.856654	-437.85571	-437.895014	27.496	
N	 0.5692209216	-0.7597797137	 0.9377538811	-0.338477
C	 0.2700965418	 0.2425726582	 0.4472508504	 0.304458
C	-0.1467200038	 1.5049977248	-0.2404291115	 0.043166
O	-1.0685776488	 2.213500601	 0.5498626199	-0.267196
C	-0.4569267723	 3.2302256582	 1.3633073364	 0.112466
C	 0.1823083776	 4.2825884864	 0.4191271706	-0.232475
C	 1.3477197558	 3.2622329239	 0.3282442537	 0.112465
C	 0.9844368605	 2.8237380565	 1.7725373841	-0.293643
O	 0.9815052252	 2.2498637355	-0.6259734475	-0.267196
H	-0.6674726476	 1.2103428852	-1.157479211	 0.144281
H	-1.2005115783	 3.5092761344	 2.108857836	 0.095762
H	-0.351206239	 4.5141138199	-0.5039033741	 0.114247
H	 0.4682757955	 5.19574697	 0.9459541748	 0.110709
H	 2.3588444725	 3.572406429	 0.0673760083	 0.095762
H	 1.3891162301	 3.5301033258	 2.4999403555	 0.119524
H	 1.1895636492	 1.804673485	 2.0986698932	 0.146148
120.8086	151.0259	283.5529	325.0921	415.8321	459.282	471.5295	535.6499	592.9022	711.987	800.892	835.2439	837.48	869.5914	911.246	911.6956	946.3487	995.1419	1020.9199	1022.9307	1071.3054	1138.0203	1158.2285	1168.3076	1187.2449	1236.2767	1267.7686	1281.1169	1326.0913	1356.1809	1381.5709	1382.0139	1462.7587	1498.2677	2352.426	3063.1206	3073.6743	3088.8225	3124.2389	3126.407	3143.0703	3153.7355
N#CC1OC2CC(C2)O1	N#C[C@H]1O[C@@H]2C[C@@H](C2)O1	
InChI=1S/C6H7NO2/c7-3-6-8-4-1-5(2-4)9-6/h4-6H,1-2H2	InChI=1S/C6H7NO2/c7-3-6-8-4-1-5(2-4)9-6/h4-6H,1-2H2/t4-,5+,6-
