14
gdb 74592	2.66678	2.17308	1.46701	2.4987	66.04	-0.2243	-0.0181	0.2062	862.23	0.102628	-432.854102	-432.847328	-432.846383	-432.885056	26.878	
N	 0.0703718509	 1.3247392314	-0.12803998	-0.564574
C	-0.0417955474	-0.0123976539	 0.0188231364	 0.385599
N	-1.1079234785	-0.7235902727	-0.0774021428	-0.304255
C	-0.6288918079	-2.08578472	 0.0155610859	-0.002582
C	 0.7221167258	-2.1099331994	 0.5962518927	-0.049841
C	 0.5928941127	-2.55352526	-0.8714669638	-0.24217
C	 1.4054826777	-1.3698360739	-1.2072443653	 0.431603
O	 2.0885330602	-0.9765562271	-2.0961573789	-0.305506
N	 1.2048809876	-0.7544916144	 0.1677383943	-0.257446
H	 0.8979769901	 1.7690128132	 0.2297882176	 0.274935
H	-0.7759121979	 1.865685084	-0.1878014099	 0.273175
H	-1.3567485297	-2.8651798914	 0.2044612681	 0.116589
H	 1.1642290842	-2.6257312205	 1.4375649009	 0.123275
H	 0.6215266022	-3.5361987254	-1.3218237252	 0.121197
142.6503	172.4558	297.2368	383.6958	412.1307	451.1017	519.4706	599.3039	666.1412	696.7487	766.189	771.7649	814.5375	824.4336	842.8128	869.2036	927.8003	977.6968	1007.3262	1023.3307	1048.7298	1067.783	1104.761	1175.5433	1227.7864	1281.1297	1343.0801	1398.3775	1602.8292	1724.3346	1922.2443	3200.2482	3209.2825	3220.6178	3614.0148	3741.8023
NC1=NC2C3C2C(=O)N13	N[C]1[N][C@@H]2[C@H]3[C@@H]2C(=O)N13	
InChI=1S/C5H5N3O/c6-5-7-2-1-3(2)8(5)4(1)9/h1-3H,(H2,6,7)	InChI=1S/C5H5N3O/c6-5-7-2-1-3(2)8(5)4(1)9/h1-3H,(H2,6,7)/t1-,2+,3-/m1/s1
