17
gdb 97091	2.43945	1.26074	1.09523	2.2403	78.26	-0.2286	0.0101	0.2387	1203.2605	0.13287	-417.948742	-417.938755	-417.937811	-417.983771	35.434	
C	 0.0975998908	 1.3761065954	-0.0804991028	-0.339688
N	 0.34691941	-0.0577146366	-0.0972342368	-0.329159
C	 0.610824936	-0.6216817146	 0.9969859932	 0.369937
N	 0.7157550994	-0.2585792861	 2.3332978976	-0.355369
C	 1.0937758187	-1.5999125922	 2.7999103894	-0.190111
C	 0.8706745371	-2.1081814905	 1.33505689	 0.118383
O	-0.2728358611	-2.9310027013	 1.2512167318	-0.447644
C	 2.0361949955	-2.6914880971	 0.6825545074	 0.309702
C	 2.9884488613	-3.1780753089	 0.1340236987	-0.483766
H	 1.034433613	 1.9365342936	-0.2045859711	 0.120962
H	-0.5494185113	 1.6411502632	-0.9215476354	 0.126766
H	-0.3859073453	 1.7263217764	 0.8445545671	 0.102246
H	 1.0023534589	 0.6266349751	 2.719364747	 0.250999
H	 2.1242280153	-1.6959574948	 3.1523084623	 0.121894
H	 0.3956103885	-2.0391793237	 3.516862478	 0.127412
H	-0.5611181805	-2.9168067412	 0.330437089	 0.295622
H	 3.8269621237	-3.6072667566	-0.3567581555	 0.201813
82.3086	84.9528	111.9511	149.2818	185.338	219.4022	257.6645	286.9293	343.7088	400.8973	413.2779	520.8303	614.8488	632.0938	668.6099	687.8207	721.828	776.9274	930.3681	951.3279	1014.0675	1040.9433	1113.7007	1142.9641	1151.3913	1175.1073	1192.675	1209.2991	1303.6263	1351.9954	1381.7234	1436.3578	1489.4944	1505.9635	1510.1387	1818.8865	2234.6138	2979.1592	3038.8645	3054.8573	3092.0554	3114.1053	3500.5019	3635.1243	3795.1116
CN=C1NCC1(O)C#C	CN=C1NC[C@]1(O)C#C	
InChI=1S/C6H8N2O/c1-3-6(9)4-8-5(6)7-2/h1,9H,4H2,2H3,(H,7,8)	InChI=1S/C6H8N2O/c1-3-6(9)4-8-5(6)7-2/h1,9H,4H2,2H3,(H,7,8)/t6-/m1/s1
