17
gdb 37468	2.79008	2.19736	1.83445	2.765	68.7	-0.2353	0.058	0.2932	818.4082	0.139249	-421.78585	-421.779944	-421.779	-421.81581	25.332	
C	-0.0255694335	 1.5531097593	-0.1685598266	-0.086374
O	 1.3024683622	 2.0122179877	 0.1158205262	-0.254708
C	 1.9874522055	 1.0085328869	 0.8535675098	 0.034164
C	 1.6516026763	 1.1180546035	 2.364322326	 0.022173
O	 0.3180947925	 1.5857561533	 2.6090264657	-0.24219
C	 0.5676780689	 0.1745233596	 2.6507712692	 0.027024
C	 0.2771053964	-0.6181502718	 1.3921555632	-0.079834
C	-0.0155503205	 0.0426358834	 0.0452627503	-0.084291
C	 1.3874267064	-0.3448328317	 0.3981116768	-0.101487
H	-0.7504791417	 2.0783834688	 0.4574113364	 0.120956
H	-0.2373756505	 1.7727438838	-1.2227754828	 0.095113
H	 3.0575737868	 1.1133681914	 0.6625450523	 0.081913
H	 2.4010718935	 1.4380334372	 3.083821336	 0.097446
H	 0.4135836966	-0.2970692219	 3.6181258091	 0.097709
H	-0.1173368705	-1.6200522343	 1.5201621778	 0.086603
H	-0.5911080097	-0.558700415	-0.6500585928	 0.09502
H	 1.9736979512	-1.0980602103	-0.1130584566	 0.090763
220.9938	276.4537	320.7236	523.1572	563.922	631.6908	694.3651	703.2518	736.8056	798.6317	806.8612	831.377	871.8583	901.764	920.3875	949.8077	977.3231	985.6343	1011.2853	1030.9079	1049.7793	1062.3681	1095.9933	1107.5785	1109.4011	1160.0426	1231.0169	1254.0179	1261.4665	1278.9993	1314.2362	1333.6952	1356.1566	1369.0011	1403.5301	1433.965	1515.3833	3023.0118	3092.9227	3093.7849	3137.6407	3149.5544	3166.5565	3175.0012	3190.8165
C1OC2C3OC3C3C1C23	C1O[C@H]2[C@H]3O[C@H]3[C@H]3[C@@H]1[C@@H]23	
InChI=1S/C7H8O2/c1-2-3-4(2)6-7(9-6)5(3)8-1/h2-7H,1H2	InChI=1S/C7H8O2/c1-2-3-4(2)6-7(9-6)5(3)8-1/h2-7H,1H2/t2-,3+,4-,5+,6-,7+/m0/s1
