20
gdb 61683	3.55717	0.85069	0.77121	3.6023	76.88	-0.2466	0.0247	0.2713	1506.4561	0.170516	-440.28112	-440.271484	-440.27054	-440.317203	33.316	
C	-0.2394712502	 1.3608862784	-0.0885831114	-0.350078
N	 0.0305235809	-0.0656290716	-0.0241805466	-0.030994
C	 0.0084811676	-0.7283978112	 1.2667981232	-0.201983
C	-1.389525223	-0.8748399416	 1.8700074855	-0.03331
C	-2.2935658771	-1.9355787679	 1.2052193795	-0.07844
O	-2.1525691974	-2.8231514996	 2.3345569786	-0.267914
C	-1.4576392604	-1.8153269656	 3.0943500073	-0.085258
C	 0.3657050589	-0.7389218862	-1.1653017853	 0.152075
O	 0.4230194489	-0.2593305138	-2.2773099107	-0.340003
H	 0.4301906664	 1.9088690925	 0.5852864636	 0.1242
H	-0.0688828859	 1.6828751217	-1.1158618158	 0.171932
H	-1.2741381048	 1.5904779222	 0.1896969043	 0.128252
H	 0.4491883584	-1.7243305732	 1.1425299425	 0.125274
H	 0.6522123962	-0.1784523214	 1.968665287	 0.109448
H	-1.8534675052	 0.1028089918	 2.016160016	 0.085408
H	-3.3361742649	-1.628612549	 1.0535607003	 0.104331
H	-1.9180147228	-2.3829858097	 0.2766796597	 0.107672
H	-0.4966870198	-2.1779439697	 3.4823341935	 0.102622
H	-2.0599441132	-1.4428779987	 3.9329789071	 0.102018
H	 0.5882874173	-1.8041711474	-0.9583405184	 0.074749
51.4392	62.3264	75.8686	110.1155	155.5369	237.0752	302.0094	342.6499	351.9611	410.897	437.5204	703.7589	796.2948	856.3752	876.0481	887.1572	912.0103	972.4134	1029.8123	1037.8974	1058.6078	1088.5569	1097.348	1140.7134	1157.1563	1161.1013	1167.9251	1244.544	1265.6147	1281.8892	1309.9186	1350.2046	1388.3336	1396.891	1431.7616	1439.0059	1441.4442	1484.5213	1498.5241	1513.4567	1520.1538	1538.5247	1796.3006	2937.676	2999.1909	3004.0268	3016.1389	3022.8025	3046.2384	3055.1036	3061.8101	3073.7617	3092.6969	3156.8403
CN(CC1COC1)C=O	CN(CC1COC1)C=O	
InChI=1S/C6H11NO2/c1-7(5-8)2-6-3-9-4-6/h5-6H,2-4H2,1H3	InChI=1S/C6H11NO2/c1-7(5-8)2-6-3-9-4-6/h5-6H,2-4H2,1H3
