18
gdb 84940	2.64109	1.66298	1.0829	1.4375	77.61	-0.2294	0.0004	0.2299	1106.9088	0.149858	-435.278056	-435.269745	-435.268801	-435.311365	30.818	
C	 1.0989009142	 0.982854402	-0.0823799084	-0.31943
N	 0.0262310106	-0.0164063498	 0.0137816138	-0.144777
C	-0.7943963709	-0.1613495614	-1.1176336614	 0.116572
N	-1.7475762592	-0.9347544944	-1.4305553303	-0.270986
C	-2.2445184077	-1.9964216005	-0.588191223	-0.148549
C	-1.2850751674	-2.4798371427	 0.482624185	-0.115303
O	-1.1026778193	-1.4795065125	 1.4912712182	-0.250923
C	-0.2028856263	-0.4866534628	 1.3122105695	 0.444945
N	 0.41536785	 0.046925809	 2.2871814204	-0.557547
H	 2.012266242	 0.5837968405	 0.3600638972	 0.151578
H	 1.2745169572	 1.2104558838	-1.1342352881	 0.125291
H	 0.8379597276	 1.8959438959	 0.4591546389	 0.14876
H	-0.4978940839	 0.5643204721	-1.87570386	 0.113356
H	-3.1765231059	-1.6717502926	-0.1056494459	 0.124818
H	-2.5139872119	-2.8418351929	-1.2354368613	 0.111362
H	-1.6944350561	-3.345253704	 1.010986586	 0.123086
H	-0.317687732	-2.7629332473	 0.0511985425	 0.121981
H	 0.1734488393	-0.4447947025	 3.145074957	 0.225767
67.7584	95.4939	155.1175	233.513	293.845	329.7062	391.7695	430.4909	488.7382	521.43	608.0616	683.1255	727.2069	814.3164	836.6432	882.2831	911.3377	955.8362	1015.2408	1057.0758	1087.8202	1111.3839	1151.3167	1155.5896	1175.6294	1260.1381	1309.0919	1321.0904	1333.9832	1392.3641	1424.1571	1447.7539	1471.8874	1475.1098	1493.3893	1506.0698	1521.1991	1712.4307	1756.0876	3013.2849	3032.5052	3048.3163	3057.3146	3101.0116	3116.2268	3130.584	3154.5985	3520.9031
CN1C=NCCOC1=N	CN1C=NCCO[C]1[NH]	
InChI=1S/C5H9N3O/c1-8-4-7-2-3-9-5(8)6/h4,6H,2-3H2,1H3	InChI=1S/C5H9N3O/c1-8-4-7-2-3-9-5(8)6/h4,6H,2-3H2,1H3
