20
gdb 109894	2.38807	1.51412	1.11959	2.7895	75.23	-0.2239	0.0627	0.2866	1147.7109	0.171058	-440.222395	-440.213718	-440.212774	-440.25591	32.701	
C	-0.2225054524	 1.6008404594	 0.1758921367	-0.335525
N	-0.1468194223	 0.1522903227	 0.1076675349	-0.114833
C	-1.3091664375	-0.6043455958	 0.6691729881	 0.011958
C	-2.1569259441	-1.2727802853	-0.4082232806	-0.08413
O	-2.4690427218	-0.349340738	-1.4404912489	-0.423633
C	-0.3346665311	-1.4631283503	 1.5124449996	 0.066985
O	 0.2608280698	-2.570449612	 0.8065295206	-0.292405
C	 1.4239397602	-1.7793828744	 0.4423163199	-0.079535
C	 0.7922493506	-0.5150395883	 1.0434594189	-0.034287
H	 0.6980723199	 2.0434734638	-0.2193173455	 0.119705
H	-1.0600911242	 1.9436130445	-0.4381133106	 0.133221
H	-0.3760398477	 1.9843237259	 1.2017017518	 0.0951
H	-1.9276317873	 0.0350235881	 1.3172763914	 0.066966
H	-1.6160393811	-2.1449471899	-0.7980402744	 0.10553
H	-3.1087471728	-1.6192712791	 0.0071384569	 0.105205
H	-1.6155767382	-0.0732926825	-1.7968043656	 0.284951
H	-0.6054089309	-1.7160375535	 2.5390980987	 0.084299
H	 2.3205873176	-2.1433208001	 0.9599075281	 0.101704
H	 1.5937704865	-1.7530689802	-0.6388040227	 0.10879
H	 1.3871354968	 0.1419184852	 1.6806342426	 0.079934
76.9945	106.5295	169.0478	224.0814	234.5464	284.3256	313.3214	406.13	461.761	497.2995	544.4138	709.6698	754.4718	828.3856	834.7417	887.2128	925.1458	976.5977	1006.7083	1026.1399	1052.2051	1072.1249	1075.8141	1103.2849	1151.753	1157.1346	1184.0667	1191.3679	1201.1013	1212.3145	1249.202	1284.9453	1300.7653	1318.7443	1355.0186	1361.5986	1391.7236	1425.0552	1451.8447	1494.8004	1504.2072	1505.0292	1509.1614	2934.4396	2986.5036	3017.1146	3021.6117	3060.9816	3082.0619	3083.2101	3087.7737	3099.3204	3111.6104	3780.2519
CN1C(CO)C2OCC12	CN1[C@@H](CO)[C@H]2OC[C@@H]12	
InChI=1S/C6H11NO2/c1-7-4(2-8)6-5(7)3-9-6/h4-6,8H,2-3H2,1H3	InChI=1S/C6H11NO2/c1-7-4(2-8)6-5(7)3-9-6/h4-6,8H,2-3H2,1H3/t4-,5+,6+/m0/s1
