15
gdb 15961	3.10801	1.92704	1.36017	3.6939	65.52	-0.2786	0.0193	0.2979	895.7131	0.118988	-362.644555	-362.637363	-362.636419	-362.676259	26.566	
N	-0.3997432473	-0.9016832538	-0.7892572179	-0.330522
C	-0.242475939	 0.1770418797	-0.402928494	 0.275221
C	-0.0060045249	 1.5198574301	 0.0937661531	-0.228663
C	 0.0521394585	 1.7510580347	 1.6432977005	-0.235056
C	 1.2924677524	 2.6703698514	 1.4418694856	-0.321357
C	 1.4331288106	 2.0857251969	 0.0359801703	 0.449134
C	 2.597082466	 1.5050048897	-0.6296427262	-0.260448
O	 1.9853514681	 2.7302379779	-1.0798350438	-0.261454
H	-0.6989081147	 2.2186511	-0.3848744544	 0.137206
H	-0.8368606216	 2.1989033516	 2.0864900192	 0.125529
H	 0.2958892419	 0.830140714	 2.1744788585	 0.134108
H	 1.0243532932	 3.7300411799	 1.4045905588	 0.127335
H	 2.1326087857	 2.5392546377	 2.1257985724	 0.121509
H	 3.5829817739	 1.6168858147	-0.1818144511	 0.124297
H	 2.4690787272	 0.6512874255	-1.2922439111	 0.143161
87.7589	128.309	199.7747	312.2701	349.9727	374.576	505.1472	551.8243	587.6074	712.9198	790.7403	857.543	885.062	905.9036	947.6523	953.2471	1062.395	1071.0364	1100.7047	1128.5817	1153.9742	1168.9917	1214.0757	1228.8241	1257.3081	1271.1671	1340.7636	1429.9192	1477.7912	1495.9983	1536.8699	2352.7375	3067.6462	3072.175	3091.7575	3092.5724	3124.7653	3153.7013	3185.5839
N#CC1CCC11CO1	N#C[C@H]1CC[C@]21CO2	
InChI=1S/C6H7NO/c7-3-5-1-2-6(5)4-8-6/h5H,1-2,4H2	InChI=1S/C6H7NO/c7-3-5-1-2-6(5)4-8-6/h5H,1-2,4H2/t5-,6-/m1/s1
