16
gdb 41643	3.66447	1.99601	1.63815	1.2212	72.28	-0.2273	-0.0284	0.1989	822.0988	0.126743	-400.636655	-400.630802	-400.629858	-400.666466	25.059	
C	-0.1022979345	 1.5684525495	 0.0157711219	-0.110759
O	 1.2428162128	 2.1408069369	 0.0072614242	-0.291796
C	 2.0758196647	 1.6413925102	-1.0201265982	 0.157471
C	 3.047062298	 0.4217048823	-0.8671273002	-0.092931
C	 2.2516649573	-0.8589365826	-1.0301585271	-0.11582
N	 2.6814749185	-0.0975631954	-2.2393263975	-0.166424
C	 1.3885135517	 0.7161759147	-2.0317250706	-0.135924
C	 0.8671959165	-0.2892762414	-1.013501362	 0.189558
C	 0.0386269959	 0.0656420548	-0.0302949077	-0.177216
H	-0.5559345583	 1.9213180899	 0.942729228	 0.122363
H	-0.6727154197	 1.9788175663	-0.8272713697	 0.114002
H	 2.6125041728	 2.4848221451	-1.4632088021	 0.097602
H	 4.0764032081	 0.4286359852	-0.5250644623	 0.100962
H	 2.6580062213	-1.8287388052	-0.7680178042	 0.10584
H	 0.8151914929	 1.0671960704	-2.8865158187	 0.097938
H	-0.1131937578	-0.5314061907	 0.8627726864	 0.105134
240.693	301.0204	367.3741	467.5398	510.5243	611.4775	652.7994	736.6775	769.3146	776.3408	806.2495	828.1436	871.9821	886.6342	922.9693	942.0942	972.2094	984.6903	1022.7969	1030.4633	1035.1111	1064.7949	1119.3512	1137.4538	1155.3632	1197.7051	1244.4805	1251.0719	1279.1286	1302.7843	1330.2728	1348.6607	1372.0493	1491.1835	1690.9669	3020.2895	3075.7497	3125.0249	3145.3016	3174.3031	3181.8965	3188.8451
C1OC2C3C4N3C2C4=C1	C1O[C@H]2[C@H]3[C@@H]4N3[C@H]2[C]4[CH]1	
InChI=1S/C7H7NO/c1-2-9-7-5-3(1)4-6(7)8(4)5/h1,4-7H,2H2	InChI=1S/C7H7NO/c1-2-9-7-5-3(1)4-6(7)8(4)5/h1,4-7H,2H2/t4-,5+,6-,7-,8?/m1/s1
