15
gdb 85515	2.8012	1.37077	1.10244	1.8155	61.15	-0.2721	-0.067	0.205	1075.1693	0.111767	-494.944538	-494.936575	-494.935631	-494.97778	29.143	
O	 0.3288161498	 1.0920883352	-0.6934370575	-0.437343
C	 0.0479409205	-0.0539912269	 0.0528240571	 0.126602
C	 0.2492091566	 0.014057704	 1.5766015797	-0.404421
C	-0.6506189406	-1.0971904748	 2.0956778954	 0.428802
O	-0.6363962458	-1.6675185529	 3.141500764	-0.311214
O	-1.5760409407	-1.4161481746	 1.1191185827	-0.230077
C	-1.4178398814	-0.5567666531	-0.0190927037	-0.050246
C	-2.4872902827	 0.5275292863	 0.0925427777	 0.15224
O	-2.3154604677	 1.7003527158	-0.1393175188	-0.248153
H	-0.392805119	 1.7217498301	-0.5468659638	 0.301303
H	 0.6884353304	-0.8479157277	-0.3473900915	 0.115124
H	 1.2758443186	-0.1290505379	 1.9127548951	 0.150433
H	-0.1077840987	 0.9730595436	 1.9713762828	 0.148607
H	-1.6213665327	-1.1453629923	-0.9211857746	 0.131681
H	-3.4688211168	 0.1446263053	 0.4408125254	 0.126663
52.8505	123.8831	140.7051	252.1797	321.4124	367.6309	440.0712	504.0464	524.5482	557.8031	601.5823	668.451	726.5696	781.3682	832.654	943.2634	965.7049	1050.2026	1072.8138	1113.635	1127.4756	1152.2836	1161.5845	1235.9999	1291.539	1315.5963	1354.9444	1370.2952	1412.2046	1462.0679	1474.3627	1811.9667	1904.624	2933.0613	3043.3591	3053.3468	3059.8097	3142.9605	3711.0822
OC1CC(=O)OC1C=O	O[C@H]1CC(=O)O[C@H]1C=O	
InChI=1S/C5H6O4/c6-2-4-3(7)1-5(8)9-4/h2-4,7H,1H2	InChI=1S/C5H6O4/c6-2-4-3(7)1-5(8)9-4/h2-4,7H,1H2/t3-,4-/m0/s1
