19
gdb 119665	3.84539	1.09637	0.99156	0.5392	76.75	-0.2233	0.0676	0.2909	1258.7222	0.159595	-419.071659	-419.063473	-419.062529	-419.105088	30.666	
C	-0.0130300188	 1.3275053054	-0.0365781406	-0.218825
O	 0.0097907738	-0.0794575143	-0.083788007	-0.244634
C	-1.2714469702	-0.6543668644	 0.0825010479	-0.229844
C	-1.1188418345	-2.1398550509	 0.056464998	 0.391128
N	-0.4104485582	-2.9365848554	 1.1122462547	-0.382999
C	-0.8590001287	-3.9658202368	 0.1184721814	-0.045424
C	-2.2164371267	-3.2299757807	-0.120554668	-0.068114
N	-2.1138777248	-3.1793935977	-1.6156123946	-0.354028
C	-0.6947237239	-3.0533436731	-1.1455488297	-0.074668
H	 1.0134610857	 1.6760708956	-0.1736600597	 0.126843
H	-0.6430436981	 1.7526700837	-0.8338491149	 0.105933
H	-0.3884857076	 1.6978304096	 0.9305089138	 0.105905
H	-1.7165542934	-0.3413602293	 1.0416268726	 0.097253
H	-1.9536096589	-0.3479954684	-0.7272671543	 0.109524
H	 0.5984527489	-2.7837206483	 1.0362653075	 0.215128
H	-0.6711630042	-5.0354823152	 0.2301970564	 0.080977
H	-3.1543406874	-3.3341556542	 0.4254447598	 0.08957
H	-2.2740968611	-4.1102097598	-2.0097945558	 0.209244
H	 0.1589101081	-2.939596066	-1.8159228474	 0.087033
67.293	96.4586	125.4157	221.838	269.8676	344.6775	360.5127	494.433	539.353	710.8746	754.81	783.9237	820.3691	843.8372	884.31	902.7133	939.3019	955.5019	986.2487	1041.7192	1066.3062	1093.5973	1100.7975	1133.011	1151.1317	1157.8751	1184.2533	1196.917	1210.3522	1225.5232	1251.4086	1265.3088	1279.6176	1295.273	1312.143	1366.0768	1439.8041	1478.2762	1485.1023	1496.1442	1518.7089	2960.6792	2973.4718	3000.1366	3015.6003	3095.2704	3108.2466	3114.401	3121.6889	3402.5165	3411.0227
COCC12NC3C1NC23	COC[C@@]12N[C@H]3[C@@H]1N[C@@H]23	
InChI=1S/C6H10N2O/c1-9-2-6-4-3(8-6)5(6)7-4/h3-5,7-8H,2H2,1H3	InChI=1S/C6H10N2O/c1-9-2-6-4-3(8-6)5(6)7-4/h3-5,7-8H,2H2,1H3/t3-,4-,5+,6+
