23
gdb 92975	2.57233	1.34669	0.97511	0.1268	90.8	-0.2343	0.0292	0.2634	1293.0801	0.206824	-351.157092	-351.148162	-351.147217	-351.190775	34.908	
C	-0.8381126088	 1.0622121244	 0.1289321528	-0.401986
C	 0.0909060764	-0.1413097096	-0.0189118306	 0.02123
C	 1.2346233869	 0.0521859776	-1.0499482787	-0.260732
C	 2.3277974209	-0.8432813892	-0.5194145575	-0.069632
C	 2.0851436511	-1.2362532765	 0.7296059866	-0.068784
C	 0.8047356743	-0.6418196002	 1.2832859413	-0.065453
C	 1.1093828318	 0.4266213953	 2.3243460471	 0.047202
C	 0.1200631218	 0.7567944871	 3.414021891	-0.27318
C	 1.3950038609	 0.024419846	 3.7506045258	-0.280059
H	-0.3000247515	 1.9468423399	 0.4838473632	 0.11425
H	-1.2945700046	 1.3154059587	-0.834313247	 0.10617
H	-1.6481475998	 0.8622031372	 0.8374922002	 0.111704
H	-0.5065515528	-0.9896069951	-0.3753572079	 0.074726
H	 0.9186278921	-0.2060250008	-2.0675776888	 0.098015
H	 1.5721951732	 1.0989801323	-1.093006395	 0.098638
H	 3.2109665686	-1.0976505249	-1.0958828483	 0.087301
H	 2.7431055017	-1.8507768551	 1.3348179148	 0.087754
H	 0.1872463196	-1.4051803527	 1.7769288816	 0.059987
H	 1.6995931129	 1.2590786651	 1.9491887642	 0.080159
H	 0.0190148828	 1.7901563777	 3.7272691706	 0.108671
H	-0.8077417392	 0.1942700522	 3.4421714244	 0.107917
H	 1.3203996815	-1.0287463568	 4.0034975188	 0.107782
H	 2.1678854702	 0.5553634675	 4.2952398414	 0.10832
78.9056	92.8689	162.7642	214.5109	237.3758	283.696	321.1044	379.2116	466.5218	512.9898	619.6092	727.6348	762.4997	777.1194	816.3686	831.5291	873.7649	910.5748	921.9581	936.086	966.2224	975.3584	991.2213	1021.6599	1050.8765	1056.8295	1076.2046	1112.9323	1131.1927	1133.7807	1142.2997	1171.8635	1198.2371	1203.9888	1226.0749	1270.9958	1300.7702	1306.0927	1338.2356	1368.4312	1372.1157	1410.7281	1413.5396	1469.1833	1489.3009	1495.0223	1496.0493	1504.0048	1684.9508	2992.0119	2997.7008	3021.7199	3031.0929	3050.6433	3094.4134	3103.2786	3125.6772	3129.8733	3135.2777	3175.4065	3201.3198	3203.1953	3218.5146
CC1CC=CC1C1CC1	C[C@H]1CC=C[C@H]1C1CC1	
InChI=1S/C9H14/c1-7-3-2-4-9(7)8-5-6-8/h2,4,7-9H,3,5-6H2,1H3	InChI=1S/C9H14/c1-7-3-2-4-9(7)8-5-6-8/h2,4,7-9H,3,5-6H2,1H3/t7-,9+/m0/s1
