21
gdb 84712	2.57385	1.69959	1.25584	1.6966	82.13	-0.2429	0.019	0.2619	1073.0409	0.185578	-387.112212	-387.104463	-387.103519	-387.144521	31.092	
C	 0.1992097129	 1.6417166283	-0.1566082445	-0.402865
C	 0.0927175478	 0.1130608846	-0.0616721256	-0.026278
C	 0.7258702624	-0.5959611426	-1.2372287991	-0.064249
C	 1.5209549319	-1.6010482614	-0.8825409017	-0.102512
C	 1.6017835525	-1.7690720793	 0.6138099271	 0.071939
O	 2.9329349508	-1.6348245311	 1.1215967369	-0.259657
C	 3.1394261609	-0.2578778864	 1.4002871771	-0.085118
C	 1.8061473407	 0.2252922267	 1.9829694072	-0.226971
C	 0.7541192779	-0.5780963517	 1.1807134843	-0.073144
H	 1.2389808957	 1.9736149525	-0.2377202392	 0.120521
H	-0.3292309465	 2.001429023	-1.046070015	 0.112134
H	-0.2492195338	 2.1315185047	 0.7138066161	 0.116041
H	-0.9807998661	-0.1252205041	-0.0465450835	 0.081865
H	 0.5161870361	-0.2941337802	-2.2595080883	 0.091612
H	 2.0713416103	-2.2477202819	-1.5567147252	 0.09699
H	 1.2552833967	-2.7566363269	 0.9383842233	 0.078428
H	 3.9815115124	-0.1809834175	 2.093420312	 0.104212
H	 3.3937039164	 0.2985337067	 0.483966174	 0.089151
H	 1.7499437889	-0.0540074747	 3.0392696734	 0.103347
H	 1.6800653303	 1.3075016899	 1.9197642289	 0.099759
H	-0.0276903885	-0.9354282885	 1.8530379216	 0.074794
63.5736	173.5167	242.9614	269.8308	305.5781	369.3144	447.305	518.4483	571.0479	657.9457	725.9961	745.5175	768.968	838.1114	866.695	890.5895	917.3211	956.1134	967.2347	980.6581	1000.9575	1035.1272	1055.4693	1071.7972	1090.2898	1126.1355	1143.2893	1154.9185	1204.5029	1234.2378	1253.9237	1289.4654	1298.7718	1327.2767	1338.6446	1348.4555	1356.1833	1378.7099	1393.3765	1410.9071	1484.9206	1497.6457	1508.7672	1518.1588	1691.6587	2977.1911	2988.416	3031.6188	3040.2403	3058.1699	3086.2881	3092.4926	3096.2988	3106.1535	3119.9327	3168.422	3203.8327
CC1C=CC2OCCC12	C[C@H]1C=C[C@H]2OCC[C@@H]12	
InChI=1S/C8H12O/c1-6-2-3-8-7(6)4-5-9-8/h2-3,6-8H,4-5H2,1H3	InChI=1S/C8H12O/c1-6-2-3-8-7(6)4-5-9-8/h2-3,6-8H,4-5H2,1H3/t6-,7-,8+/m0/s1
