18
gdb 12667	3.2896	1.82827	1.34429	1.8606	67.6	-0.2364	-0.0265	0.2099	944.7617	0.153762	-384.97428	-384.966197	-384.965253	-385.006874	30.352	
C	-0.1465222797	 1.5544556083	-0.0100350652	-0.406058
C	 0.0732156812	 0.0438052534	 0.0177506883	 0.016634
C	 0.8843120918	-0.5164205286	-1.1764195282	-0.222851
C	 1.2780668968	-1.9348450507	-0.7336490236	-0.325936
C	 1.4440301552	-1.8202102361	 0.7791383167	 0.383093
O	 2.035440762	-2.5765121151	 1.5081658013	-0.326123
C	 0.8236533663	-0.4832428191	 1.247496102	 0.028804
O	 1.9123880072	 0.3849488205	 1.5542713117	-0.43704
H	 0.8074300522	 2.084593168	 0.0400358349	 0.138419
H	-0.6600206191	 1.8513520433	-0.9303688951	 0.1097
H	-0.7577075177	 1.8840895165	 0.8363147397	 0.114666
H	-0.9047350562	-0.4588343704	 0.0186662757	 0.07528
H	 0.314016034	-0.4985149963	-2.1084989543	 0.100454
H	 1.7822177008	 0.0933629895	-1.3240861669	 0.11804
H	 0.4615810382	-2.6458778649	-0.9220768646	 0.130711
H	 2.1757154967	-2.347199916	-1.1998193513	 0.129804
H	 0.1764055408	-0.6264434613	 2.1235730934	 0.07748
H	 2.4807683395	-0.0893656908	 2.1730658556	 0.294922
49.0077	172.1286	224.0891	235.8732	260.5572	302.7901	406.6698	456.3318	500.3767	528.7124	598.6752	657.5937	797.3948	826.8116	857.0064	930.7489	953.3456	992.841	1002.2781	1057.7143	1090.3908	1150.8006	1167.5443	1173.7268	1232.5129	1242.3732	1298.5966	1307.9321	1315.8962	1356.9517	1365.8748	1409.1791	1420.7017	1449.9556	1494.3459	1499.4676	1503.802	1839.7821	2998.5467	3014.8452	3025.4697	3039.4518	3052.4569	3100.6565	3101.3374	3110.9606	3128.6579	3790.4731
CC1CCC(=O)C1O	C[C@H]1CCC(=O)[C@H]1O	
InChI=1S/C6H10O2/c1-4-2-3-5(7)6(4)8/h4,6,8H,2-3H2,1H3	InChI=1S/C6H10O2/c1-4-2-3-5(7)6(4)8/h4,6,8H,2-3H2,1H3/t4-,6-/m0/s1
