17
gdb 55541	4.48856	0.84972	0.75634	5.0669	72.82	-0.2525	-0.0318	0.2207	1493.4939	0.135105	-455.176959	-455.16758	-455.166635	-455.212572	32.47	
C	-0.0564795871	 1.520370831	 0.3688627063	-0.503819
C	 0.1888495358	 0.0679564577	-0.009633918	 0.414392
O	 1.2719621978	-0.3832655515	-0.2695916291	-0.287186
N	-0.9965656246	-0.6922258711	-0.0212873278	-0.401415
C	-1.1429745446	-2.0458241819	-0.322956636	 0.456588
O	-0.2349309083	-2.788469062	-0.6148109107	-0.335617
C	-2.5664315618	-2.5260061595	-0.255172327	-0.142765
C	-3.0201306935	-3.3859782198	-1.3928627574	-0.217575
N	-2.7556066414	-3.9704538835	-0.0841983499	-0.299195
H	 0.8968148796	 2.0469636657	 0.3601138462	 0.161249
H	-0.7412635815	 1.9989411892	-0.3396782141	 0.143893
H	-0.5023648635	 1.5944017769	 1.3666683327	 0.14478
H	-1.8450925061	-0.1978432397	 0.2105111221	 0.255322
H	-3.2890985049	-1.8986360908	 0.261325851	 0.091676
H	-4.0643551378	-3.3549737151	-1.6897628354	 0.126717
H	-2.3026795757	-3.5530878226	-2.1909217342	 0.139347
H	-1.8242383625	-4.3889183031	-0.1001498485	 0.25361
51.1942	58.4256	97.3309	126.5077	144.367	282.2302	291.4419	321.2157	389.9993	560.3724	570.1815	619.5219	716.6465	764.4774	830.8188	861.097	908.3924	934.1863	983.8936	1007.5741	1038.4772	1051.2319	1118.7212	1131.4163	1167.9023	1193.7455	1216.236	1292.8862	1324.7343	1384.8235	1404.523	1466.9983	1482.3284	1494.0074	1510.7586	1795.0003	1859.635	3040.3624	3102.8893	3115.1817	3134.3564	3167.7225	3210.1538	3462.5439	3617.6338
CC(=O)NC(=O)C1CN1	CC(=O)NC(=O)[C@H]1CN1	
InChI=1S/C5H8N2O2/c1-3(8)7-5(9)4-2-6-4/h4,6H,2H2,1H3,(H,7,8,9)	InChI=1S/C5H8N2O2/c1-3(8)7-5(9)4-2-6-4/h4,6H,2H2,1H3,(H,7,8,9)/t4-/m1/s1
