17
gdb 32011	2.8588	1.34063	0.96747	1.9002	82.1	-0.225	-0.0664	0.1586	1218.4548	0.1367	-418.035877	-418.027633	-418.026689	-418.069311	30.44	
C	 0.0992333977	 1.5619063601	-0.0032028561	-0.380155
C	-0.0133810688	 0.02727127	-0.0095101445	-0.276818
C	-1.4255184417	-0.4540698342	-0.1022950034	 0.386324
C	-1.9653292568	-1.1795226869	-1.1031827496	-0.161547
N	-3.293788283	-1.5730287408	-1.0944097732	-0.216375
C	-4.0064230411	-1.2130888454	-0.0861322193	-0.06809
C	-3.5126469064	-0.4200912826	 1.0440941409	 0.346405
N	-4.1378943684	-0.0146092782	 2.0712377408	-0.506195
O	-2.1765334665	-0.0766436185	 0.9632012236	-0.236837
H	 1.1448988675	 1.8645278024	 0.098297825	 0.122535
H	-0.291208117	 1.9864890078	-0.9329121866	 0.125727
H	-0.4647252119	 1.9874799587	 0.8302509225	 0.147004
H	 0.548635283	-0.3962093416	-0.8468981277	 0.119814
H	 0.4274830974	-0.3717264718	 0.9127980688	 0.130517
H	-1.3690951418	-1.4828443664	-1.9535839469	 0.11714
H	-5.0543611719	-1.5083147323	-0.0516647174	 0.122441
H	-5.1078960501	-0.3238812403	 2.0306895529	 0.228111
61.5347	115.4419	135.3201	198.9572	276.0187	336.4178	440.4424	460.5388	527.66	568.3272	661.4739	706.8777	743.3171	791.4005	813.7835	854.9663	903.5439	931.2398	966.1773	1021.9128	1058.748	1084.1809	1103.6752	1135.3501	1232.2114	1273.3631	1317.4503	1357.5854	1375.7387	1401.6374	1414.4188	1473.0394	1496.2009	1508.335	1589.9916	1669.5551	1714.2421	3033.092	3047.4694	3090.979	3119.1534	3133.0791	3138.4373	3216.6367	3504.6121
CCC1=CN=CC(=N)O1	CCC1=C[N]C=C([NH])O1	
InChI=1S/C6H8N2O/c1-2-5-3-8-4-6(7)9-5/h3-4,7H,2H2,1H3	InChI=1S/C6H8N2O/c1-2-5-3-8-4-6(7)9-5/h3-4,7H,2H2,1H3
