16
gdb 49000	3.07866	1.38943	1.12785	0.881	71.33	-0.2629	-0.0515	0.2114	1076.4355	0.123681	-437.877047	-437.869223	-437.868278	-437.90977	29.134	
N	-0.2859207463	 1.2017103263	 0.623604991	-0.541189
C	-0.1185666113	 0.060142449	 0.1402763654	 0.427778
O	 1.036523516	-0.5678833211	-0.3122185808	-0.300173
C	 0.2991943801	-1.7668766394	-0.6975939976	 0.343767
C	 0.2334559661	-2.8367820309	 0.4086918979	-0.288866
C	-1.0601221521	-2.1788130685	 0.9776183461	-0.23069
C	-1.0248173521	-1.1093595892	-0.1574387007	-0.21641
C	 0.5179126536	-2.1410450531	-2.1309924198	 0.085041
O	 0.3353713357	-3.2519966821	-2.5605275569	-0.248864
H	 0.591172831	 1.7213419764	 0.6845645424	 0.234355
H	 0.0705587643	-3.8290884384	-0.0154729574	 0.141099
H	 1.1088815512	-2.8543363419	 1.0593609548	 0.124162
H	-1.936294596	-2.8254144641	 0.9151258477	 0.124756
H	-0.9984615884	-1.7673000144	 1.9860635489	 0.129865
H	-1.9205462964	-0.9271820928	-0.7470440676	 0.117575
H	 0.8393636648	-1.296828856	-2.7783392634	 0.097794
92.0475	99.5547	184.5736	229.8009	269.1444	371.5576	415.227	489.3069	603.1374	706.8261	716.2377	747.7958	802.0634	851.5306	866.7821	909.8824	950.2606	967.5323	994.1767	1003.6242	1083.0778	1094.9872	1136.3371	1144.3394	1218.9916	1233.3766	1244.8605	1263.8481	1291.7489	1309.8714	1406.0243	1464.0216	1487.9639	1819.6086	1830.7589	2907.7882	3082.8779	3086.7391	3132.7008	3146.2684	3151.5926	3480.8955
N=C1OC2(CCC12)C=O	[NH][C]1O[C@]2(CC[C@@H]12)C=O	
InChI=1S/C6H7NO2/c7-5-4-1-2-6(4,3-8)9-5/h3-4,7H,1-2H2	InChI=1S/C6H7NO2/c7-5-4-1-2-6(4,3-8)9-5/h3-4,7H,1-2H2/t4-,6+/m0/s1
