16
gdb 44795	2.7946	1.54047	1.19461	2.7946	70.13	-0.2637	0.0129	0.2766	1039.9991	0.124	-437.825285	-437.817709	-437.816765	-437.857754	28.7	
N	-0.056142217	 1.2419752837	 0.266460595	-0.562164
C	-0.0576394652	-0.0054155439	 0.1577064633	 0.408863
O	 0.9999327988	-0.9085401457	 0.0667188075	-0.272607
C	 0.060970239	-1.9918444622	-0.1628046775	 0.047703
C	-0.7979041373	-2.1626904671	 1.0337621878	-0.351094
C	-1.1201118889	-1.0539409218	 0.0188688236	 0.204537
C	-2.415871053	-0.9269445801	-0.6877185184	-0.054126
C	-3.0507916942	 0.3825632178	-0.9033324576	-0.184067
O	-2.3909785501	-0.3028634093	-1.9722089587	-0.236021
H	 0.8935514145	 1.6154448709	 0.2989668464	 0.234889
H	 0.3035652935	-2.7078694962	-0.9349883915	 0.135832
H	-1.4966711739	-2.9943070549	 1.0036392048	 0.132108
H	-0.4125952131	-1.9151556829	 2.0177525482	 0.137032
H	-3.0556376288	-1.8085936499	-0.6304121283	 0.090389
H	-4.1353584948	 0.4400240797	-0.9842278431	 0.113993
H	-2.5415662293	 1.2736931618	-0.5446300416	 0.154731
74.5234	149.5274	163.8215	211.9682	366.01	430.5512	463.5255	490.3886	649.4409	682.2041	753.0734	844.5184	850.553	860.905	876.5084	914.3916	928.0637	959.84	1008.6336	1017.1378	1028.6857	1053.1592	1088.9467	1099.7593	1169.97	1172.3296	1181.7951	1257.6126	1274.6809	1304.4812	1381.8031	1449.9	1486.8662	1522.8972	1829.9121	3089.4838	3100.1371	3121.5143	3194.3729	3213.1501	3228.3141	3484.2384
N=C1OC2CC12C1CO1	[NH][C]1O[C@H]2C[C@@]12[C@H]1CO1	
InChI=1S/C6H7NO2/c7-5-6(4-2-8-4)1-3(6)9-5/h3-4,7H,1-2H2	InChI=1S/C6H7NO2/c7-5-6(4-2-8-4)1-3(6)9-5/h3-4,7H,1-2H2/t3-,4+,6+/m0/s1
