19
gdb 69303	2.43399	1.51893	1.26548	2.0591	76.35	-0.225	-0.0111	0.2138	1098.533	0.156608	-423.026157	-423.016683	-423.015738	-423.059888	35.426	
C	-0.1138461598	 1.5597191678	 0.0154955581	-0.496172
C	 0.048433069	 0.0671818043	-0.0122619214	 0.206926
C	-0.8118596904	-0.8852242081	 0.8139895794	-0.331234
C	 0.6582866805	-0.9449611169	 1.0178590128	-0.115145
C	 1.295812331	-1.7744555295	-0.1018680364	 0.268729
C	 2.8211143993	-1.7714590858	-0.1232745577	-0.452155
O	 0.7727004687	-3.0902852285	-0.1727153564	-0.471306
C	 0.7038493291	-0.7220891095	-1.0988443547	 0.312647
O	 0.9062265604	-0.5223916395	-2.26706867	-0.338392
H	 0.8047686962	 2.064641253	-0.2997537139	 0.130572
H	-0.9139444973	 1.875057712	-0.6626580383	 0.139033
H	-0.3714930438	 1.9105862177	 1.0197119682	 0.122067
H	-1.3831301815	-0.3806738265	 1.5872448104	 0.120468
H	-1.3208887055	-1.7225491274	 0.3502318071	 0.137438
H	 1.1453531342	-0.6933309341	 1.9515228958	 0.101676
H	 3.2038120178	-2.4220350628	 0.6687567385	 0.127076
H	 3.1850210681	-2.1395841548	-1.0881348224	 0.127013
H	 3.2239136636	-0.7641961348	 0.0209154723	 0.123199
H	 1.0266518804	-3.4572051664	-1.0271866613	 0.28756
89.1968	153.0415	161.475	203.8953	223.6115	244.9039	286.0641	302.0283	333.4049	358.7878	485.6675	548.9902	576.8545	669.1445	727.3962	796.7687	840.3328	852.0999	924.5618	950.4363	982.3063	984.7797	1008.3083	1073.7296	1092.3523	1104.4669	1110.4891	1178.2489	1197.2296	1260.2558	1292.0314	1371.3436	1380.2186	1401.4751	1417.5804	1482.4504	1487.4494	1488.539	1495.0632	1497.4032	1863.3681	3033.5384	3035.161	3098.123	3106.1182	3107.6016	3116.1883	3131.1072	3196.9139	3218.1034	3802.4781
CC12CC1C(C)(O)C2=O	C[C@]12C[C@H]1[C@@](C)(O)C2=O	
InChI=1S/C7H10O2/c1-6-3-4(6)7(2,9)5(6)8/h4,9H,3H2,1-2H3	InChI=1S/C7H10O2/c1-6-3-4(6)7(2,9)5(6)8/h4,9H,3H2,1-2H3/t4-,6+,7-/m1/s1
