16
gdb 28372	3.18427	1.39513	0.97717	4.9928	79.73	-0.2034	-0.0372	0.1662	1160.7734	0.125594	-434.137436	-434.129136	-434.128192	-434.170133	31.359	
C	-0.0514168846	 1.5113907465	-0.0077886835	-0.459935
C	-0.0115848763	 0.0128017281	-0.0297614572	 0.190728
N	-0.0376181101	-0.636383104	-1.1599818726	-0.28116
C	-0.0067605991	-1.9969008054	-1.1862773223	-0.134048
C	 0.0761185961	-2.7404982787	-0.0383397737	 0.399282
N	 0.1991015202	-4.1210386367	 0.0239747177	-0.582857
N	 0.1089347805	-2.0643675375	 1.1479272337	-0.392241
C	 0.0641583439	-0.6672143729	 1.268987626	 0.365922
O	 0.0981679878	-0.1364397181	 2.3667200302	-0.386789
H	 0.8397272319	 1.9175953054	 0.4837952064	 0.137545
H	-0.112934043	 1.8935973102	-1.0274871738	 0.128802
H	-0.9086004114	 1.8697775944	 0.5731501503	 0.136736
H	-0.0486415578	-2.4795317007	-2.1558037043	 0.098017
H	 0.0341880093	-4.5761715228	-0.86286718	 0.265434
H	-0.3316851877	-4.5657476688	 0.7623022805	 0.257207
H	 0.2268022202	-2.5625680891	 2.0207261227	 0.257356
116.3442	125.5281	180.4082	262.0759	282.6054	326.3909	350.3729	455.7444	483.171	533.6235	573.3479	622.0915	666.1979	705.4036	723.1608	774.1657	793.9966	814.8055	976.1263	1050.8431	1053.7353	1115.3844	1150.7382	1242.4806	1291.2377	1298.4476	1393.5635	1405.4158	1468.9002	1471.0363	1519.7806	1591.517	1635.8243	1667.7326	1770.8539	3035.8067	3085.2179	3147.0728	3188.3441	3544.2497	3589.2643	3646.4839
CC1=NC=C(N)NC1=O	Cc1ncc(N)[nH]c1=O	
InChI=1S/C5H7N3O/c1-3-5(9)8-4(6)2-7-3/h2H,1H3,(H3,6,8,9)	InChI=1S/C5H7N3O/c1-3-5(9)8-4(6)2-7-3/h2H,1H3,(H3,6,8,9)
