18
gdb 46147	4.10378	1.00915	0.86951	2.14	78.5	-0.2186	-0.0207	0.1979	1306.8057	0.147978	-401.931857	-401.923355	-401.922411	-401.96515	32.407	
O	 0.0104891111	-0.0922539305	-0.0325041632	-0.302231
C	-0.0185191238	 1.1159134315	-0.0322476511	 0.388661
C	-1.3133681865	 1.9174739881	-0.0162154802	-0.319326
C	-1.2958977665	 3.0700741989	-1.0376233664	-0.205512
C	 0.0081226505	 3.8947731917	-0.9152190643	-0.1536
N	 1.2205799632	 3.0675688133	-1.0192720574	-0.291156
C	 1.2485719523	 1.9732589703	-0.0428077587	-0.265009
C	 0.0467626404	 4.9629163379	-1.911677486	 0.291044
C	 0.0496771976	 5.8174705144	-2.7560660683	-0.403336
H	-2.1535763081	 1.2380130446	-0.1782665573	 0.123728
H	-1.4177170823	 2.3360456913	 0.995941262	 0.121466
H	-1.3540843946	 2.6692931929	-2.0566095618	 0.114138
H	-2.1680350592	 3.7180241817	-0.900393438	 0.114937
H	 0.0308757109	 4.3517282996	 0.0863731381	 0.110276
H	 1.2840902517	 2.6933190695	-1.9617061227	 0.227585
H	 1.374293386	 2.4103842627	 0.9594573614	 0.121547
H	 2.1114993175	 1.3310311867	-0.2327184263	 0.129056
H	 0.0646869999	 6.5839181954	-3.4911220699	 0.197731
63.7897	145.8336	155.3439	187.8055	297.0119	378.9013	416.7132	454.3854	457.6858	531.4388	540.5925	632.7775	661.9805	682.8155	741.1326	762.3652	846.9465	872.6129	934.2647	970.1076	1044.079	1053.1014	1110.7602	1124.0944	1144.8676	1203.5283	1240.6052	1275.134	1307.8189	1328.7975	1346.4449	1359.4886	1375.2546	1454.1052	1467.013	1481.524	1495.6971	1821.737	2242.7599	2986.1793	2999.0808	3010.4371	3036.7747	3081.9523	3104.5096	3111.084	3503.6878	3509.7729
O=C1CCC(NC1)C#C	O=C1CC[C@@H](NC1)C#C	
InChI=1S/C7H9NO/c1-2-6-3-4-7(9)5-8-6/h1,6,8H,3-5H2	InChI=1S/C7H9NO/c1-2-6-3-4-7(9)5-8-6/h1,6,8H,3-5H2/t6-/m0/s1
