18
gdb 80069	2.88934	1.91291	1.69345	2.1894	74.67	-0.2231	-0.0051	0.218	877.5016	0.150804	-401.89213	-401.885686	-401.884742	-401.922458	27.793	
O	 0.1245490081	 1.4228257415	-0.1861676414	-0.437395
C	-0.0032521596	 0.0485317487	-0.0103237571	 0.16857
C	 0.2186968969	-0.6311412348	 1.3928577313	-0.11002
C	-0.379070686	 0.300337989	 2.4084744119	-0.082124
C	-1.6835341347	 0.5479615952	 2.2355282515	-0.101913
C	-2.3472525098	-0.3190971677	 1.1954284887	-0.10138
C	-2.0280223752	-1.7812051384	 1.6507602358	-0.15235
N	-0.7397300494	-1.7416982569	 0.9065922774	-0.151149
C	-1.3569144129	-0.6581925123	 0.0121672697	-0.054284
H	-0.3626991293	 1.8450659072	 0.5331720916	 0.278448
H	 0.633825748	-0.4380093347	-0.7524339641	 0.110124
H	 1.2114329103	-1.0036184196	 1.6443406718	 0.075455
H	 0.2360813304	 0.766949348	 3.1699640453	 0.100109
H	-2.2678183249	 1.209745931	 2.8661163086	 0.100151
H	-3.3727013947	-0.0378720213	 0.9529002639	 0.068402
H	-1.9761733374	-1.9780684472	 2.7248191274	 0.10417
H	-2.6653772847	-2.5241696666	 1.1610275415	 0.110949
H	-1.8375687949	-0.9732760412	-0.9175975038	 0.074236
190.5038	262.7952	394.9038	406.7089	452.9969	508.9279	559.7265	616.3041	666.825	701.9634	750.953	778.0617	801.8597	833.8824	860.3255	912.3833	940.9148	965.5816	988.0299	1017.089	1022.2074	1057.8902	1091.8479	1110.8201	1152.6235	1159.6332	1172.2022	1200.799	1204.5241	1238.4769	1276.0554	1287.906	1302.1095	1323.6423	1343.295	1387.8827	1437.4827	1489.6065	1660.6192	3045.0361	3072.9868	3094.6487	3100.7974	3107.2831	3112.8493	3174.582	3198.0567	3758.7076
OC1C2C=CC3CN2C13	O[C@H]1[C@H]2C=C[C@@H]3CN2[C@H]13	
InChI=1S/C7H9NO/c9-7-5-2-1-4-3-8(5)6(4)7/h1-2,4-7,9H,3H2	InChI=1S/C7H9NO/c9-7-5-2-1-4-3-8(5)6(4)7/h1-2,4-7,9H,3H2/t4-,5-,6+,7+/m1/s1
