21
gdb 72739	2.46796	1.74496	1.50967	1.5585	81.7	-0.2284	0.0719	0.3003	1017.9204	0.182672	-387.053173	-387.045082	-387.044138	-387.085371	32.529	
C	-0.061302935	 1.5482158583	 0.004976401	-0.478289
C	 0.0480799088	 0.0496035455	 0.1007734937	 0.411575
C	 0.9058069556	-0.708240034	-0.9635200861	-0.273701
C	 1.8072590279	-1.2876466435	 0.176277903	-0.346484
C	 0.7982259366	-0.7671114056	 1.2009947741	 0.280035
C	 0.8619628067	-0.3349415254	 2.6701215176	-0.346265
C	-0.6319539201	-0.7758619173	 2.8344280112	-0.23663
C	-0.6020017221	-1.3982213936	 1.408477054	 0.072868
O	-1.2216518103	-0.5974065774	 0.3805881623	-0.346365
H	 0.9221839235	 2.002800123	-0.1526995055	 0.115921
H	-0.7012028822	 1.8240412272	-0.8412354855	 0.129503
H	-0.5022963234	 1.9718349673	 0.9124622524	 0.121234
H	 0.3147189337	-1.4550243232	-1.4969102348	 0.112724
H	 1.4194875448	-0.0746918022	-1.690810402	 0.098447
H	 1.9989425585	-2.364503904	 0.1693674083	 0.098208
H	 2.7698272075	-0.7698094283	 0.2402731505	 0.103244
H	 1.5441694675	-0.9525454436	 3.2625346665	 0.104704
H	 1.0993769088	 0.7155000401	 2.864014623	 0.097723
H	-0.8160981496	-1.4848525468	 3.6450381302	 0.100779
H	-1.3500721964	 0.0433156023	 2.909240303	 0.11195
H	-0.8370557408	-2.4625592989	 1.3138009331	 0.068819
105.0498	175.1055	201.5894	206.2664	331.4736	344.6981	396.3298	465.7579	504.5634	609.8739	677.2312	693.5302	747.3485	812.2942	845.5901	856.5377	876.5037	910.3141	928.9248	938.5816	947.5821	1001.6423	1034.4995	1098.142	1125.2145	1152.6797	1163.9706	1186.6892	1196.1739	1205.1377	1208.8816	1230.3982	1239.5737	1260.1385	1283.5348	1316.6591	1328.6569	1336.564	1406.9127	1464.2674	1467.6618	1480.2593	1483.9597	1489.4956	1493.7282	3029.8418	3043.3496	3045.4276	3059.1797	3065.6381	3070.2009	3088.2638	3089.6423	3097.1728	3109.3799	3127.1518	3128.3271
CC12CCC11CCC1O2	C[C@@]12CC[C@]31CC[C@H]3O2	
InChI=1S/C8H12O/c1-7-4-5-8(7)3-2-6(8)9-7/h6H,2-5H2,1H3	InChI=1S/C8H12O/c1-7-4-5-8(7)3-2-6(8)9-7/h6H,2-5H2,1H3/t6-,7-,8-/m1/s1
