17
gdb 55252	3.64538	1.10173	0.87726	1.65	69.91	-0.2423	-0.0321	0.2101	1262.2098	0.136802	-455.211405	-455.202826	-455.201881	-455.245464	31.392	
N	-0.0928407547	 1.3295536496	 0.1324786616	-0.567693
C	-0.0042554187	-0.0576242796	 0.0756766982	 0.442349
O	 1.0308005528	-0.6561869871	 0.3117078163	-0.403764
N	-1.1857214228	-0.6972290248	-0.2188465641	-0.117368
C	-1.2491808385	-2.1643994735	-0.2116014655	-0.175194
C	-2.6320148531	-2.4758165506	 0.3709292904	-0.32929
C	-3.4681136965	-1.2390270986	 0.0506152647	 0.38701
O	-4.6649616777	-1.1529011992	 0.0277461334	-0.293463
C	-2.4979871504	-0.08454843	-0.253707071	-0.295635
H	 0.8191053005	 1.7598265451	 0.1690891825	 0.26242
H	-0.7394019726	 1.7937502618	-0.4871577651	 0.253478
H	-1.1546076674	-2.562966318	-1.2305939527	 0.11423
H	-0.4155466491	-2.5467604564	 0.3762459487	 0.153741
H	-3.1031263476	-3.380049082	-0.0174283432	 0.138762
H	-2.5857956341	-2.5645629712	 1.4637118844	 0.147068
H	-2.6089802503	 0.7008821957	 0.5032556083	 0.152545
H	-2.7644546896	 0.3493373185	-1.2295566568	 0.130805
46.954	95.7552	132.9596	193.0055	223.4704	402.7218	410.4307	446.329	475.0117	544.7579	567.0228	628.5338	652.3059	749.985	773.7832	813.7141	840.8128	920.6709	989.8263	1077.8764	1084.1169	1117.9011	1147.0065	1198.7203	1211.878	1223.5483	1278.741	1282.2912	1324.9035	1377.9297	1445.4086	1450.1309	1487.1509	1526.4693	1624.0543	1785.7628	1862.9557	2988.8336	3014.3299	3043.9895	3054.9884	3127.1232	3140.7959	3575.7927	3688.1885
NC(=O)N1CCC(=O)C1	NC(=O)N1CCC(=O)C1	
InChI=1S/C5H8N2O2/c6-5(9)7-2-1-4(8)3-7/h1-3H2,(H2,6,9)	InChI=1S/C5H8N2O2/c6-5(9)7-2-1-4(8)3-7/h1-3H2,(H2,6,9)
