19
gdb 37846	2.62827	2.60866	2.02635	0.2903	76.97	-0.1972	0.0843	0.2815	798.5528	0.165085	-381.996231	-381.990801	-381.989856	-382.025565	25.019	
C	-0.0221843984	 1.4966957137	 0.033518493	-0.181594
C	 1.515232981	 1.4106025624	 0.014927846	-0.011332
C	 1.2692097736	 0.0856207622	 0.7917561738	 0.018139
C	 2.2189439706	-0.9610785273	 0.2753139926	-0.263745
C	 1.9648830192	-0.6200947791	-1.1681096684	 0.018138
C	 0.4322975565	-0.4619879537	-1.3819974331	-0.011331
C	 0.8592028252	 0.7320623724	-2.2557276965	-0.181594
N	 2.0378252599	 0.9092239688	-1.329479991	-0.155903
N	-0.0455968526	-0.0121370692	-0.0031666791	-0.155904
H	-0.3957226089	 1.8324219922	 1.0058497035	 0.103345
H	-0.5818955981	 2.0184826513	-0.7420571635	 0.104094
H	 2.1440323343	 2.2194426931	 0.3998855195	 0.065504
H	 1.0843416697	 0.1556549411	 1.8639781394	 0.076128
H	 3.2531233728	-0.7885997642	 0.5873028955	 0.113492
H	 1.9210116217	-1.9822768473	 0.5302740463	 0.113492
H	 2.5331185658	-1.1320538424	-1.945121228	 0.076128
H	-0.2014024495	-1.2651793839	-1.7707275709	 0.065504
H	 1.2246587472	 0.405653963	-3.234282632	 0.103344
H	 0.21525413	 1.5977965572	-2.4070236873	 0.104095
372.5573	380.43	499.5416	551.9755	567.9948	643.8304	730.9714	732.6088	767.7916	806.9833	807.878	816.3609	870.0844	911.9888	921.0385	932.535	957.5007	997.7928	1008.2479	1014.9557	1035.9259	1041.7372	1083.0059	1104.2744	1107.2477	1168.9932	1170.6945	1215.0574	1235.7941	1236.1968	1246.6678	1272.3672	1276.4901	1277.6605	1291.4123	1313.2542	1329.3511	1365.2179	1468.4423	1504.3179	1562.4063	3045.8574	3047.8572	3057.6667	3058.4451	3064.5309	3110.9738	3112.4487	3115.3108	3115.5701	3135.662
C1C2C3CC4C(CN24)N13	C1[C@H]2[C@@H]3C[C@H]4[C@H](CN24)N13	
InChI=1S/C7H10N2/c1-4-6-2-8(4)7-3-9(6)5(1)7/h4-7H,1-3H2	InChI=1S/C7H10N2/c1-4-6-2-8(4)7-3-9(6)5(1)7/h4-7H,1-3H2/t4-,5-,6-,7-/m0/s1
