20
gdb 92121	2.74332	1.56763	1.21549	1.818	78.78	-0.2358	0.0709	0.3067	1085.8318	0.171314	-403.08826	-403.080149	-403.079205	-403.120916	31.857	
C	 0.1862118167	 1.4698546843	-0.4198023175	-0.392101
C	 0.0142726492	 0.0451437654	 0.0608696885	 0.149394
O	 0.6950872181	-0.9324375541	-0.7801343998	-0.316552
C	 1.2990939244	-1.5688947523	 0.3581518026	 0.126639
C	 2.7480116322	-1.0769913366	 0.6075048264	-0.335525
C	 2.1688229422	-0.0256181869	 1.5759894904	 0.356422
C	 2.7632968037	 0.3769719704	 2.870447912	-0.311872
N	 2.5874032757	 1.3589621164	 1.7823707097	-0.359062
C	 0.7295274761	-0.4885607459	 1.3258094647	-0.180329
H	 1.2376075286	 1.7583501622	-0.4566781882	 0.127031
H	-0.2441092572	 1.5735268095	-1.4214138694	 0.118792
H	-0.3332421215	 2.1619841835	 0.2508592541	 0.119737
H	-1.0564081615	-0.2041644125	 0.1007894796	 0.072617
H	 1.0907243186	-2.639949085	 0.4122962964	 0.075871
H	 3.4132321831	-1.8062532137	 1.0800870748	 0.102695
H	 3.2185177521	-0.6884094218	-0.2999673742	 0.112035
H	 2.1288088375	 0.5411783611	 3.7380595813	 0.118115
H	 3.7653892784	 0.0228374347	 3.1015296328	 0.111112
H	 3.4757687104	 1.5258961207	 1.3149454104	 0.231214
H	 0.1103050632	-0.6910418094	 2.1993690054	 0.073768
69.7325	145.9794	216.7781	257.2518	298.8602	322.2779	391.1879	406.1811	506.6145	612.4774	670.3664	791.5734	821.3434	841.7652	854.6041	886.6199	913.6912	942.3799	960.8632	973.9688	983.1758	1018.79	1063.606	1085.5892	1097.101	1120.1144	1136.8067	1158.732	1177.5396	1213.4888	1255.1882	1258.363	1270.6959	1281.4568	1314.3325	1332.8208	1390.8527	1406.9272	1415.0388	1461.8441	1478.5259	1488.4081	1511.5294	2985.6074	3042.5402	3046.3915	3079.0182	3097.4924	3105.9829	3106.9943	3112.7053	3143.4757	3182.4027	3490.232
CC1OC2CC3(CN3)C12	C[C@H]1O[C@H]2C[C@]3(CN3)[C@@H]12	
InChI=1S/C7H11NO/c1-4-6-5(9-4)2-7(6)3-8-7/h4-6,8H,2-3H2,1H3	InChI=1S/C7H11NO/c1-4-6-5(9-4)2-7(6)3-8-7/h4-6,8H,2-3H2,1H3/t4-,5+,6+,7+/m1/s1
