16
gdb 42904	2.94627	1.57941	1.28998	4.641	68.6	-0.2366	-0.0267	0.2099	999.8717	0.124234	-437.835221	-437.827662	-437.826718	-437.867755	28.124	
O	-0.2384118254	 0.0198290639	-0.0253400147	-0.291245
C	-0.1421873318	 1.2021013468	 0.0507274513	 0.336686
N	-1.1806941991	 2.2226861297	-0.0426084336	-0.182029
C	-0.9991762265	 3.0701935931	 1.1744700483	-0.257111
C	-0.0652988241	 3.2788035083	 0.0624790416	-0.106513
C	 1.0351860612	 2.2198396832	 0.0850827625	 0.347272
C	 2.2275074354	 2.1483022027	 1.0565048337	-0.360227
C	 3.0716972457	 2.0086111468	-0.2253713937	-0.072984
O	 1.8943220269	 2.1672270651	-1.0562404479	-0.312304
H	-1.8144678831	 3.7730042352	 1.3096856469	 0.146322
H	-0.6563722088	 2.5980272169	 2.09264887	 0.13343
H	-0.0713922145	 4.1405595219	-0.592312521	 0.127547
H	 2.394692324	 3.0615144357	 1.6300058002	 0.122656
H	 2.2290892621	 1.2867076053	 1.7251149821	 0.132399
H	 3.8070573909	 2.7967515925	-0.417627261	 0.11331
H	 3.5388095971	 1.0297386429	-0.3739273646	 0.122792
74.391	115.3917	179.1571	225.5751	282.0081	419.643	474.741	582.1176	669.1304	729.8884	751.5018	790.8985	828.3108	866.3212	894.8299	963.9719	978.4708	1003.9436	1020.9735	1039.7871	1094.4638	1123.7804	1136.4767	1155.6993	1181.2026	1193.5667	1226.4568	1246.9092	1274.1292	1346.0143	1350.3717	1479.8396	1506.9342	1528.0089	1920.191	3039.0751	3083.171	3086.3732	3110.8651	3142.7686	3202.6316	3212.5171
O=C1N2CC2C11CCO1	O=C1N2C[C@H]2[C@]21CCO2	
InChI=1S/C6H7NO2/c8-5-6(1-2-9-6)4-3-7(4)5/h4H,1-3H2	InChI=1S/C6H7NO2/c8-5-6(1-2-9-6)4-3-7(4)5/h4H,1-3H2/t4-,6-,7?/m0/s1
