15
gdb 24342	3.83106	1.59424	1.13735	3.3181	74.52	-0.1971	0.0098	0.2069	994.9714	0.116666	-416.851716	-416.844978	-416.844033	-416.883149	26.165	
C	 0.0073745585	 1.50351887	 0.0900150675	-0.190619
O	 1.3345683496	 2.0282987641	-0.156175187	-0.238306
C	 2.2763759955	 1.2527769651	-0.7442705027	 0.109386
N	 2.2720105213	-0.0023400238	-0.9584758533	-0.361139
C	 1.1302791443	-0.6632762288	-0.4989693836	 0.244591
C	 0.8757896827	-2.0159499549	-0.4509011149	-0.183438
N	-0.3629619694	-2.1692111216	 0.1219872904	-0.242945
C	-0.9016623255	-0.9422992349	 0.43930374	-0.200578
C	 0.0090379344	 0.0108533636	 0.0614078737	 0.181138
H	-0.300097683	 1.915510343	 1.0571829485	 0.125579
H	-0.6530306503	 1.9351334648	-0.6762404583	 0.119743
H	 3.1333970581	 1.863253333	-1.0170630267	 0.121578
H	 1.4720420092	-2.8593905347	-0.756588363	 0.127793
H	-0.8130953826	-3.0515096195	 0.2873406761	 0.264712
H	-1.8780922727	-0.8657639955	 0.8906944234	 0.122502
67.6833	220.308	255.6319	415.1081	443.2855	486.7053	539.1597	617.6943	628.4018	674.4088	726.8211	744.9377	777.6514	868.4356	920.0976	939.4415	945.683	1037.3821	1074.6181	1102.0641	1135.3484	1223.0118	1242.5741	1263.1842	1331.149	1374.8638	1417.6644	1433.689	1466.2201	1517.171	1568.044	1630.0682	1680.6237	2988.7585	3053.3825	3174.6751	3256.1471	3274.6022	3693.5449
C1OC=NC2=CNC=C12	C1OC=Nc2c[nH]cc12	
InChI=1S/C6H6N2O/c1-5-3-9-4-8-6(5)2-7-1/h1-2,4,7H,3H2	InChI=1S/C6H6N2O/c1-5-3-9-4-8-6(5)2-7-1/h1-2,4,7H,3H2
