21
gdb 51729	3.21817	0.96259	0.82619	2.6978	84.05	-0.2464	-0.0194	0.227	1435.6681	0.181133	-387.075662	-387.066408	-387.065464	-387.110908	34.101	
O	-0.7298788887	 0.9773477905	 0.7483865348	-0.240064
C	-0.0111488931	 1.0664890618	-0.2134684548	 0.163966
C	 1.3395568578	 1.7443918728	-0.2311377519	-0.303595
C	 1.3721932359	 2.8988930049	-1.2354716588	-0.052841
C	 0.595648369	 4.2048923528	-0.8857853041	-0.227116
C	 1.8119155553	 5.0399463872	-1.3798277983	-0.299575
C	 2.6498140784	 3.7542129329	-1.3554987008	 0.362113
C	 3.9221831734	 3.5617991043	-0.5804537225	-0.31616
C	 3.9188098349	 3.448568479	-2.0890177278	-0.327686
H	-0.3217177801	 0.6444432595	-1.1993501107	 0.068751
H	 1.5754541954	 2.0881902274	 0.7800162284	 0.119993
H	 2.084249254	 0.9885731238	-0.5236747488	 0.113626
H	 1.07403719	 2.5286187048	-2.2249486609	 0.074821
H	-0.3585976385	 4.3648929749	-1.3919988441	 0.102111
H	 0.4376756089	 4.3020253985	 0.191844188	 0.112743
H	 1.6693744909	 5.4310598955	-2.3923273976	 0.102445
H	 2.1427386079	 5.858195349	-0.7347468705	 0.101631
H	 4.3807312478	 4.4373889628	-0.1314631141	 0.11221
H	 4.0489596496	 2.6509585387	-0.0035836754	 0.112127
H	 4.0369950582	 2.4601239671	-2.5236259398	 0.107992
H	 4.3793471732	 4.2440592618	-2.6666863204	 0.112508
43.9139	72.9577	81.1714	146.3452	230.3494	264.0805	332.4252	393.2377	440.0373	532.0537	538.4888	719.1176	756.9285	774.5127	843.2227	861.572	892.6728	908.3113	927.0642	945.3094	975.3219	990.7644	1046.2311	1057.1923	1074.8287	1092.253	1130.5238	1146.8462	1186.6489	1200.0616	1217.6223	1237.4762	1248.3766	1265.1614	1284.6826	1297.5879	1369.1455	1381.4831	1430.095	1460.4987	1465.4716	1480.6923	1497.3773	1504.2377	1833.9585	2844.9889	3002.6292	3018.122	3046.6594	3062.7567	3094.5252	3098.0708	3117.1069	3119.3565	3121.9548	3194.2134	3209.5764
O=CCC1CCC11CC1	O=CC[C@H]1CCC21CC2	
InChI=1S/C8H12O/c9-6-2-7-1-3-8(7)4-5-8/h6-7H,1-5H2	InChI=1S/C8H12O/c9-6-2-7-1-3-8(7)4-5-8/h6-7H,1-5H2/t7-/m1/s1
