18
gdb 74738	2.48046	1.81676	1.38692	2.926	77.7	-0.2428	-0.0062	0.2366	997.1327	0.149989	-401.971367	-401.964083	-401.963139	-402.002911	29.278	
C	 0.0226919365	 1.4809382865	 0.0592125101	-0.513373
C	-0.0539414743	-0.0049257454	-0.0210488112	 0.337102
C	-0.0733412506	-0.815752242	-1.0869563473	-0.195123
C	-0.0021443519	-2.2344383434	-0.5480772345	 0.058395
C	-0.8524635168	-2.1161036745	 0.7254933197	-0.233595
C	 0.0058191038	-0.9169298364	 1.2161342233	-0.194549
C	 1.3798765016	-1.5765767633	 1.1269510853	 0.441406
N	 2.36301482	-1.3861189994	 1.8959854404	-0.570324
O	 1.3445304639	-2.4121026214	 0.0431116632	-0.265752
H	 0.9436193692	 1.7941955606	 0.5655621838	 0.150581
H	 0.00334172	 1.9380228296	-0.9336121565	 0.128863
H	-0.8109064162	 1.8891083372	 0.6442148081	 0.131043
H	-0.0286555548	-0.5395710548	-2.1319926936	 0.103371
H	-0.1667256042	-3.0641629544	-1.2310069677	 0.08657
H	-1.8918175958	-1.8469123061	 0.5341720317	 0.111229
H	-0.79032279	-3.0011502268	 1.3649101162	 0.113739
H	-0.2042631478	-0.4619585235	 2.1808272244	 0.09057
H	 3.1629854073	-1.9476201726	 1.5962290645	 0.219846
128.5604	170.9073	196.3547	306.6723	425.5924	450.6355	472.9954	543.3863	591.8927	670.7175	706.3054	795.8811	829.4558	851.7215	882.2584	891.0682	909.1035	917.1992	960.5015	974.4137	1014.1219	1016.5319	1059.4335	1068.01	1124.6756	1159.6013	1217.8943	1252.2198	1256.8731	1263.4198	1290.8935	1331.4436	1358.0977	1412.6672	1476.92	1485.0179	1492.0233	1688.1227	1780.4675	3023.0069	3068.4679	3073.6413	3115.5418	3138.5482	3155.7768	3157.6914	3221.0015	3459.934
CC1=CC2CC1C(=N)O2	CC1=C[C@@H]2C[C@H]1[C]([NH])O2	
InChI=1S/C7H9NO/c1-4-2-5-3-6(4)7(8)9-5/h2,5-6,8H,3H2,1H3	InChI=1S/C7H9NO/c1-4-2-5-3-6(4)7(8)9-5/h2,5-6,8H,3H2,1H3/t5-,6-/m1/s1
