16
gdb 55226	3.04933	1.30908	1.0497	1.8552	66.04	-0.2553	-0.0377	0.2177	1133.9981	0.123418	-475.060225	-475.051725	-475.050781	-475.094667	30.099	
C	-1.0210201468	 0.1761667778	 0.3440746465	-0.480824
C	 0.4241264533	 0.1704822828	-0.0868285542	 0.349181
O	 1.324099788	 0.6513206688	 0.5600206097	-0.290564
C	 0.7520166614	-0.4560726496	-1.457907272	-0.018623
C	 2.020746057	-1.3162814075	-1.4427677016	-0.119754
O	 1.4944605389	-2.6444459875	-1.3431634659	-0.249689
C	 0.1807901123	-2.6413127706	-1.7024121756	 0.494376
N	-0.5778318234	-3.6314305497	-1.8435797653	-0.573966
O	-0.2557815168	-1.3662408228	-1.895613985	-0.231931
H	-1.65436619	 0.6024645456	-0.4411457771	 0.153057
H	-1.3715344636	-0.8511197532	 0.4900770809	 0.170285
H	-1.1241515887	 0.7432411259	 1.269377988	 0.14622
H	 0.8109108172	 0.3624168718	-2.1831322884	 0.133653
H	 2.6021490638	-1.2234179802	-2.3654410966	 0.125816
H	 2.6508442913	-1.1031831294	-0.5790513892	 0.156672
H	-0.060981604	-4.4946526022	-1.6947456442	 0.236092
43.7222	67.1269	131.6649	142.4106	240.7272	307.0709	421.8146	452.7107	512.9869	581.1642	716.9079	728.2061	742.7163	802.5231	810.0844	901.527	951.6498	969.1265	1008.8007	1013.0856	1089.4356	1094.7319	1128.6161	1206.3606	1221.9611	1248.4887	1317.2048	1347.7	1388.0411	1405.4454	1453.1168	1467.8778	1524.7931	1802.9703	1817.6609	3045.6371	3053.128	3066.4768	3105.9894	3141.0884	3160.9297	3540.3529
CC(=O)C1COC(=N)O1	CC(=O)[C@H]1CO[C]([NH])O1	
InChI=1S/C5H7NO3/c1-3(7)4-2-8-5(6)9-4/h4,6H,2H2,1H3	InChI=1S/C5H7NO3/c1-3(7)4-2-8-5(6)9-4/h4,6H,2H2,1H3/t4-/m1/s1
