15
gdb 31427	3.06487	1.44274	0.98706	1.0271	72.12	-0.2303	-0.0404	0.1899	1134.4284	0.115589	-450.177624	-450.169981	-450.169037	-450.210052	28.074	
C	 0.012825979	 1.378724571	 0.0070763574	-0.228691
O	-0.0456835997	-0.050958142	 0.003833006	-0.229402
C	-1.2518833282	-0.6074265631	 0.011209346	 0.453349
N	-2.3183149225	 0.1377816374	 0.0208559034	-0.40988
C	-3.5523967518	-0.4860397974	 0.0278778387	 0.412596
N	-4.7059218336	 0.053912556	 0.0376169462	-0.567451
N	-3.5016104331	-1.9008243639	 0.0235700501	-0.289408
C	-2.3326819944	-2.5609278844	 0.0133681696	 0.114625
N	-1.1711196995	-1.9847345307	 0.0066858611	-0.32444
H	 1.0752529377	 1.6227337252	-0.0006461011	 0.135526
H	-0.4838571498	 1.7884450093	-0.8758476136	 0.142324
H	-0.469833242	 1.7838078729	 0.8998750944	 0.142296
H	-4.5957820343	 1.0665225226	 0.0396656223	 0.22306
H	-4.3892058787	-2.382013875	 0.028579805	 0.279004
H	-2.391584209	-3.6470965877	 0.0107556343	 0.146491
108.5072	150.6702	173.0608	227.6701	233.9533	431.0501	432.5873	522.7941	571.2012	613.6263	664.6993	746.4636	791.9284	809.5085	849.4818	954.3798	982.0358	1000.4834	1065.761	1125.2744	1180.5382	1188.5069	1227.8165	1313.7946	1377.787	1413.2942	1459.0114	1479.848	1491.4324	1502.7106	1587.7522	1673.9305	1744.4367	3052.2567	3128.1674	3158.6801	3166.9136	3513.2799	3622.2785
COC1=NC(=N)NC=N1	CO[C@H]1N=C([NH])NC=N1	
InChI=1S/C4H6N4O/c1-9-4-7-2-6-3(5)8-4/h2H,1H3,(H2,5,6,7,8)	InChI=1S/C4H7N4O/c1-9-4-7-2-6-3(5)8-4/h2,4-5H,1H3,(H,6,7,8)/t4-/m1/s1
