17
gdb 27814	1.98728	1.89646	0.9822	3.1814	80.32	-0.226	-0.044	0.182	1186.7946	0.137098	-414.259177	-414.250507	-414.249563	-414.29301	31.4	
C	 0.0182137665	 1.4820294989	 0.0284106753	-0.491465
C	 0.019115926	-0.0157693964	-0.0478593741	 0.397655
N	 0.0042233184	-0.6203068697	-1.2019967389	-0.348703
C	 0.0068753783	-2.004947743	-1.1412750861	 0.333117
C	-0.0102185734	-2.6830446343	-2.4785064365	-0.45576
N	 0.0223498707	-2.7398918853	-0.0687854188	-0.324678
C	 0.038281022	-2.1076340117	 1.1669331426	 0.397026
N	 0.0543608903	-2.6552002125	 2.3170119009	-0.567815
N	 0.0358355031	-0.6972826772	 1.1159986226	-0.322801
H	 0.9088458346	 1.8431555167	 0.5538446817	 0.149931
H	 0.0038035144	 1.8911003839	-0.9806583605	 0.164425
H	-0.8585464225	 1.8408692512	 0.5781751212	 0.14992
H	 0.8599239618	-2.3678004993	-3.0639829464	 0.142546
H	-0.0082957996	-3.7660937959	-2.3607973182	 0.139136
H	-0.895296881	-2.3682780215	-3.0413776309	 0.142527
H	 0.0539007648	-3.6666376424	 2.1944126723	 0.224672
H	 0.0472686255	-0.2235950314	 2.0085590639	 0.270267
68.0223	113.1799	126.9329	180.1516	201.7368	283.1092	327.9335	514.8085	548.6592	557.6703	575.9171	612.0288	633.5002	714.2925	779.028	859.3729	920.3832	953.3408	987.7234	1040.2897	1056.7597	1068.9186	1076.0154	1127.5765	1261.298	1292.688	1365.5755	1401.8403	1413.3153	1456.0214	1465.7901	1473.1745	1482.2562	1505.5775	1594.6812	1659.1707	1738.937	3043.5356	3045.5111	3101.4065	3101.5028	3163.2316	3170.2079	3510.0541	3605.8177
CC1=NC(C)=NC(=N)N1	C[C@H]1N=C(C)N=C([NH])N1	
InChI=1S/C5H8N4/c1-3-7-4(2)9-5(6)8-3/h1-2H3,(H2,6,7,8,9)	InChI=1S/C5H9N4/c1-3-7-4(2)9-5(6)8-3/h3,6H,1-2H3,(H,7,8,9)/t3-/m0/s1
