22
gdb 13288	6.60216	0.7411	0.69765	1.3099	79.14	-0.2614	0.0811	0.3425	1646.3477	0.20029	-350.19321	-350.183908	-350.182964	-350.227954	33.615	
O	-0.0834771792	 1.4650496281	-0.1173224207	-0.422255
C	 0.0223573287	 0.0585503024	 0.0502992268	-0.073802
C	-1.3775598488	-0.5343391096	-0.0326340875	-0.162845
C	-1.3949766459	-2.0580390476	 0.1301920691	-0.217092
C	-2.7928249909	-2.6556538738	 0.0400836943	 0.067287
C	-3.5396848301	-2.6511971337	-1.3267994846	-0.21543
C	-4.0821002028	-4.0666558925	-0.991820191	-0.210217
C	-2.9582855893	-4.2017320388	 0.0706827116	-0.237482
H	 0.7997189632	 1.841208212	-0.0633717469	 0.283912
H	 0.6619583815	-0.3880107324	-0.7292451644	 0.081641
H	 0.4754555071	-0.1933923806	 1.0236409577	 0.081567
H	-1.9989756925	-0.0656201266	 0.7405842637	 0.102451
H	-1.8162468455	-0.2521114491	-0.9973959354	 0.108251
H	-0.7597545272	-2.5184728948	-0.6402989387	 0.086924
H	-0.9473045527	-2.3302624589	 1.0967709331	 0.09063
H	-3.4343055224	-2.2033211293	 0.8069148666	 0.066933
H	-4.2642448594	-1.8553342111	-1.515772562	 0.094652
H	-2.831339729	-2.6797898791	-2.1622932843	 0.094721
H	-5.0725954344	-4.0213796053	-0.529755464	 0.100214
H	-4.1113828179	-4.8037769485	-1.7977228777	 0.09362
H	-2.0741344725	-4.7008205941	-0.3406269227	 0.094569
H	-3.2062810797	-4.6710664068	 1.0263043371	 0.091752
64.2081	81.4478	102.488	140.0727	172.8512	261.7915	276.6091	314.1937	414.4573	488.5046	636.9083	755.052	770.1806	786.6976	857.8029	897.5404	933.4157	948.4897	973.6599	997.9509	1011.7765	1039.1255	1068.7623	1095.4648	1124.1603	1182.3227	1199.0169	1215.2736	1233.2629	1253.9698	1255.5772	1262.7925	1277.5996	1287.6895	1307.6197	1314.04	1323.1841	1369.397	1399.0225	1464.4295	1478.2928	1483.6173	1487.529	1500.5352	1511.7236	1528.6867	2955.2892	2979.7418	2997.5635	3017.9972	3029.6106	3034.6617	3041.0012	3046.1953	3056.4992	3074.7165	3093.0049	3097.7959	3114.5902	3829.2534
OCCCC1CCC1	OCCCC1CCC1	
InChI=1S/C7H14O/c8-6-2-5-7-3-1-4-7/h7-8H,1-6H2	InChI=1S/C7H14O/c8-6-2-5-7-3-1-4-7/h7-8H,1-6H2
