17
gdb 125059	3.0392	1.31852	0.99037	4.7699	76.3	-0.2248	-0.0045	0.2203	1187.4333	0.138043	-414.168876	-414.160641	-414.159697	-414.202707	29.692	
C	-0.2953102268	 1.5602276196	 0.2086301008	-0.511454
C	-0.0189911149	 0.1089824403	 0.0057869073	 0.228334
C	 0.2221230268	-0.6615508556	-1.1140575856	 0.268067
N	 0.4152169148	-1.9560533239	-0.7169625508	-0.281475
N	 0.3139679513	-2.0374370992	 0.5759040968	-0.114358
N	 0.0550140007	-0.7946450972	 1.0197640593	-0.223495
C	 0.2681271759	-0.2844369766	-2.5389055997	-0.106079
C	 1.2583493082	-0.9337408556	-3.4445232133	-0.23433
N	-0.1676122399	-1.2622335324	-3.5547556022	-0.32089
H	 0.5395155344	 2.0700957569	 0.7031503754	 0.145882
H	-0.4575710736	 2.0504543706	-0.7534721413	 0.15393
H	-1.1912083157	 1.7203499933	 0.8184179818	 0.141417
H	-0.0670841513	-0.6427272944	 2.0087297918	 0.278075
H	-0.0351995505	 0.7372151388	-2.7535677102	 0.08206
H	 1.670031887	-0.3755578843	-4.2811564506	 0.115444
H	 1.924398015	-1.6644140631	-2.9949517064	 0.130658
H	-0.3359100916	-2.1477942573	-3.079267973	 0.248214
49.401	80.8017	165.8125	176.4394	253.2335	275.4287	444.4201	477.2	566.4854	622.8235	699.7689	725.3095	761.8438	830.2789	888.7692	975.2965	985.7405	1006.6925	1034.0897	1062.8676	1094.6331	1107.6785	1135.8989	1161.2212	1183.5564	1259.6951	1275.6272	1310.5401	1338.2056	1370.875	1400.7448	1424.4046	1482.5328	1484.1891	1501.4489	1515.8446	1636.1757	3032.595	3084.6106	3109.0173	3128.9912	3135.5103	3202.6133	3484.4499	3650.0201
CC1=C(N=NN1)C1CN1	Cc1c(nn[nH]1)[C@H]1CN1	
InChI=1S/C5H8N4/c1-3-5(4-2-6-4)8-9-7-3/h4,6H,2H2,1H3,(H,7,8,9)	InChI=1S/C5H8N4/c1-3-5(4-2-6-4)8-9-7-3/h4,6H,2H2,1H3,(H,7,8,9)/t4-/m1/s1
