20
gdb 112653	3.13667	1.04839	0.83787	4.5407	76.32	-0.2345	0.039	0.2735	1390.7556	0.171509	-440.337512	-440.328137	-440.327193	-440.371938	34.602	
C	-0.09002724	 1.6022074954	-0.0010169288	-0.399435
C	 0.105245972	 0.0892967973	 0.0100709424	-0.099245
C	 0.842630599	-0.5187572279	-1.1971662763	-0.251421
C	 1.5537316239	-1.7659419804	-0.6270352886	 0.046477
C	 2.8836076011	-2.0843635042	-1.2917741785	-0.084752
O	 3.427605445	-3.2121049868	-0.6205524705	-0.427728
N	 1.7286636986	-1.4082592911	 0.7696930594	-0.313741
C	 0.9338023869	-0.3902741378	 1.2152915383	 0.416556
O	 0.8831370335	 0.0425154436	 2.3468453465	-0.391011
H	 0.8612475642	 2.1188377679	-0.1687143738	 0.116174
H	-0.7867037048	 1.9095913879	-0.7868212918	 0.10927
H	-0.4815712355	 1.9300988883	 0.9653105408	 0.142655
H	-0.8758562184	-0.3950514114	 0.118505221	 0.100969
H	 0.1856264556	-0.7660465111	-2.0338166954	 0.107927
H	 1.5939871479	 0.1927300109	-1.5623175683	 0.104298
H	 0.9136095923	-2.6565994067	-0.7219368719	 0.087359
H	 2.7167586812	-2.2897299742	-2.3610300827	 0.091655
H	 3.5460673461	-1.2093113449	-1.2084559281	 0.09367
H	 4.308889282	-3.3798731502	-0.9661950551	 0.293355
H	 2.2817939394	-1.9696958045	 1.3977312114	 0.25697
72.7534	105.383	118.2418	207.7897	222.6267	248.8706	260.5461	350.9476	406.2066	451.1445	532.9695	556.1476	578.0287	661.2113	705.3925	783.3576	895.1682	914.9016	931.2208	993.1521	1052.0447	1068.2063	1089.2362	1132.7563	1136.8823	1145.0254	1198.4421	1239.2899	1255.5494	1261.0621	1303.6845	1317.0115	1334.8104	1364.1283	1399.3182	1411.3337	1427.6071	1461.6959	1491.4308	1496.8908	1500.4586	1511.5227	1824.8403	2972.9058	2980.1395	3007.5215	3016.1033	3033.8787	3038.3296	3101.9843	3105.9986	3124.7522	3646.3162	3836.3788
CC1CC(CO)NC1=O	C[C@H]1C[C@@H](CO)NC1=O	
InChI=1S/C6H11NO2/c1-4-2-5(3-8)7-6(4)9/h4-5,8H,2-3H2,1H3,(H,7,9)	InChI=1S/C6H11NO2/c1-4-2-5(3-8)7-6(4)9/h4-5,8H,2-3H2,1H3,(H,7,9)/t4-,5-/m0/s1
