15
gdb 29984	3.38736	1.7313	1.15427	1.871	73.96	-0.1993	0.0017	0.201	996.3644	0.115481	-416.843539	-416.836392	-416.835448	-416.875607	26.626	
C	-0.0290117188	 1.4480565749	 0.0351313377	-0.345585
N	 0.0691458953	 0.0035809906	 0.0234741199	-0.129497
C	 0.1487148818	-0.8098777513	-1.096652538	-0.07121
C	 0.1370107899	-2.1532213091	-0.7466657905	-0.361051
C	 0.0371688921	-2.1325273595	 0.6608517217	 0.313619
C	-0.0073336903	-0.8342810357	 1.1018262637	 0.306846
N	-0.0950675632	-0.7704061614	 2.4723518678	-0.366294
C	-0.0989246824	-2.029795892	 2.8007189395	 0.040388
O	-0.0205097298	-2.9326248664	 1.769692883	-0.208864
H	 0.4443606951	 1.8499763995	-0.8631656261	 0.13956
H	-1.0717313225	 1.7838637267	 0.0671287952	 0.141908
H	 0.4898547241	 1.841511153	 0.9121420021	 0.157534
H	 0.2101981843	-0.3622653454	-2.076291258	 0.122501
H	 0.2039236684	-2.9865131828	-1.4259803745	 0.114033
H	-0.1580027539	-2.451092461	 3.7913456066	 0.146111
62.8122	147.0869	211.9528	252.8382	361.4759	531.7189	582.2907	620.2005	628.0424	689.5318	701.9901	761.1146	781.5864	793.8692	817.1198	939.609	1027.1506	1076.0483	1091.763	1121.1174	1152.7317	1236.2875	1264.9922	1305.9122	1362.0202	1450.8564	1456.5813	1482.9048	1496.2484	1511.305	1522.3226	1574.2641	1587.0136	3034.1641	3104.5379	3138.3809	3253.9824	3274.2407	3282.0482
CN1C=CC2=C1N=CO2	Cn1ccc2c1nco2	
InChI=1S/C6H6N2O/c1-8-3-2-5-6(8)7-4-9-5/h2-4H,1H3	InChI=1S/C6H6N2O/c1-8-3-2-5-6(8)7-4-9-5/h2-4H,1H3
