21
gdb 114962	3.97809	0.808	0.75782	2.4296	81.07	-0.2224	0.0375	0.2599	1556.7013	0.18207	-424.228684	-424.218885	-424.217941	-424.263903	35.68	
O	 0.2501144903	 1.025651364	-0.5537098132	-0.421368
C	-0.0420121514	-0.3274898333	-0.2351179072	-0.079499
C	-1.5079307127	-0.4210877009	 0.1840505354	 0.022744
C	-2.4544997305	-0.0419002111	-0.9893974326	-0.264023
C	-2.9502795035	-1.3739198479	-1.4928377241	-0.155007
C	-2.6433573976	-2.3748605611	-0.6680104925	 0.324544
C	-3.0036255074	-3.8162904566	-0.8192785036	-0.178366
O	-3.7420915218	-4.0106897499	-2.0121185628	-0.414095
C	-1.8770898711	-1.8869885166	 0.5433235741	-0.340543
H	 1.1393157702	 1.0645915771	-0.9168132514	 0.285397
H	 0.130566999	-0.9880502946	-1.1008325578	 0.088192
H	 0.5980663957	-0.6851496775	 0.5876951	 0.081352
H	-1.6466993627	 0.24808929	 1.0379608871	 0.075621
H	-3.2906017849	 0.5842939234	-0.6486493976	 0.099155
H	-1.9281118973	 0.5462801135	-1.7486847656	 0.113062
H	-3.5171694421	-1.4925497683	-2.4077991785	 0.101563
H	-2.0800561239	-4.4239184024	-0.8158988825	 0.089935
H	-3.5801766983	-4.1392152844	 0.0671006068	 0.091218
H	-3.9600536128	-4.94435337	-2.0789343215	 0.288133
H	-0.9866544372	-2.4966241043	 0.7533587177	 0.090641
H	-2.49765732	-1.9413993992	 1.4487381898	 0.101343
47.5763	95.3223	129.1345	184.4344	209.1128	232.6986	253.3109	268.7416	335.1487	406.8724	436.881	504.4056	657.9315	734.698	796.5123	845.5008	895.3719	907.514	934.2247	978.899	1015.0928	1028.0198	1065.7684	1076.3975	1086.2175	1101.1174	1162.4753	1178.2989	1192.1682	1216.7388	1242.4835	1253.8077	1279.8253	1285.1658	1292.536	1328.2699	1346.2194	1372.1261	1453.4327	1468.1078	1486.5817	1498.402	1508.6023	1519.6677	1729.8534	2930.8368	2940.3563	2958.4441	2988.9789	2999.9256	3010.8304	3022.3925	3065.6819	3071.159	3215.3238	3834.747	3839.1435
OCC1CC=C(CO)C1	OC[C@H]1CC=C(CO)C1	
InChI=1S/C7H12O2/c8-4-6-1-2-7(3-6)5-9/h1,7-9H,2-5H2	InChI=1S/C7H12O2/c8-4-6-1-2-7(3-6)5-9/h1,7-9H,2-5H2/t7-/m0/s1
