18
gdb 106929	4.19679	1.10709	0.98211	4.3952	72.05	-0.24	0.0104	0.2505	1228.0833	0.147905	-439.113613	-439.105139	-439.104195	-439.146916	31.652	
C	 0.2936384507	 1.4984867193	 0.1969084012	-0.385943
C	-0.1338500209	 0.0476839245	-0.0642153351	-0.285173
C	 0.4541402608	-0.514117262	-1.3320620643	 0.435641
C	 0.0796291685	 0.0688628853	-2.6974437339	-0.225509
N	 0.3325782841	-1.0339641237	-3.6093175827	-0.340607
C	 0.7254710759	-2.2135205385	-3.0305162876	 0.458639
O	 0.9221097265	-3.2672059288	-3.5927289178	-0.381089
C	 0.8483073891	-1.9141774336	-1.548315378	-0.202087
O	 1.8349006089	-0.893635821	-1.294444999	-0.290358
H	 1.3834642618	 1.5745534789	 0.2528509258	 0.138927
H	-0.0525770784	 2.1708970941	-0.5951327937	 0.120114
H	-0.1220058743	 1.8600603662	 1.1414423152	 0.12133
H	 0.1837837175	-0.587907586	 0.7686182125	 0.117074
H	-1.2274644493	-0.0194575161	-0.1199686764	 0.107413
H	-0.9755017515	 0.3731077469	-2.7125910564	 0.113681
H	 0.694438529	 0.9454898389	-2.9333126083	 0.126507
H	 0.3072944892	-0.9410724885	-4.6118504368	 0.2557
H	 0.7710421923	-2.7121878859	-0.8178445948	 0.11574
71.2375	115.1208	166.31	207.0873	251.7276	325.0276	388.3833	407.4629	482.4277	498.5249	607.0414	668.584	728.2754	776.8712	798.4887	857.158	909.6711	946.8042	962.8534	1019.8086	1048.7102	1070.0706	1084.4089	1121.8006	1207.5995	1227.3936	1240.4384	1275.7406	1331.175	1340.2671	1356.9196	1410.9543	1440.127	1461.5404	1474.0668	1500.3896	1507.7712	1512.9319	1837.3745	3012.6527	3034.0695	3040.1628	3055.5903	3079.1616	3109.9766	3120.4266	3183.8485	3648.2105
CCC12CNC(=O)C1O2	CC[C@]12CNC(=O)[C@H]1O2	
InChI=1S/C6H9NO2/c1-2-6-3-7-5(8)4(6)9-6/h4H,2-3H2,1H3,(H,7,8)	InChI=1S/C6H9NO2/c1-2-6-3-7-5(8)4(6)9-6/h4H,2-3H2,1H3,(H,7,8)/t4-,6+/m1/s1
