18
gdb 38563	3.6464	2.02022	1.7105	1.4662	78.38	-0.2037	0.0036	0.2073	836.0536	0.151452	-364.716192	-364.710492	-364.709548	-364.745702	25.816	
C	 0.0035725409	 1.569837073	 0.0743466094	-0.290007
N	 1.5254139995	 1.3854161685	-0.0338724574	-0.173431
C	 1.8244935476	 0.7502705706	 1.2879961818	-0.188313
C	 0.9537808925	-0.4937612998	 1.1430590347	-0.045875
C	 1.4884458534	-1.2722686716	-0.0981721876	-0.120015
C	 0.2244245884	-2.0669270134	-0.5215720691	-0.087086
C	-0.8058505848	-1.2140342193	-0.40479347	-0.235013
C	-0.0862351248	 0.045307821	 0.0415035209	 0.275116
C	 1.2042450624	 0.0829201363	-0.807140138	 0.028107
H	-0.3244038835	 2.1308578627	 0.9550007669	 0.101385
H	-0.3677543377	 2.0482484799	-0.8353409618	 0.114636
H	 2.8947074775	 0.5364133137	 1.3686082941	 0.103834
H	 1.5377628442	 1.4118584998	 2.1103406934	 0.101322
H	 0.6008206776	-1.0400813219	 2.0178764587	 0.066212
H	 2.4460194004	-1.7977144185	-0.1067347009	 0.058404
H	 0.2166643917	-3.1071674826	-0.8148539459	 0.103837
H	-1.8588583711	-1.3769072822	-0.5811537254	 0.108688
H	 1.193459276	 0.201480844	-1.8901023237	 0.0782
333.1811	368.8939	420.6602	489.7694	538.4941	628.1632	640.8332	690.3512	733.8652	774.6444	816.7822	844.4627	885.3898	886.0928	893.8929	918.8148	927.8485	948.6224	987.5623	989.9417	1022.7597	1036.2241	1079.452	1111.5678	1114.8473	1162.4225	1181.0208	1199.6353	1216.3976	1225.4881	1233.862	1241.3313	1276.8144	1287.1167	1325.9734	1334.6046	1494.787	1514.8578	1588.6707	3046.6424	3052.982	3084.7663	3097.1506	3112.7637	3117.7693	3127.4158	3224.0037	3250.0333
C1N2CC3C4C=CC13C24	C1N2C[C@@H]3[C@H]4C=C[C@@]13[C@@H]24	
InChI=1S/C8H9N/c1-2-8-4-9-3-6(8)5(1)7(8)9/h1-2,5-7H,3-4H2	InChI=1S/C8H9N/c1-2-8-4-9-3-6(8)5(1)7(8)9/h1-2,5-7H,3-4H2/t5-,6-,7+,8-/m1/s1
