19
gdb 69843	2.30035	2.04422	1.55049	1.0183	74.05	-0.238	0.0715	0.3095	947.6644	0.159073	-422.981946	-422.974169	-422.973225	-423.013453	32.005	
C	-0.0266550369	 1.4923240963	 0.0864873471	-0.519764
C	 0.0125660495	-0.0052185409	-0.0131188994	 0.355878
C	 0.8832206939	-0.8153488056	-1.0185757086	-0.266758
C	 0.7174567334	-1.8278264056	 0.1441612735	 0.055166
O	 0.7244487	-0.6947419984	 1.0660565511	-0.320971
C	-0.780030255	-2.194071102	 0.0582168349	-0.110288
C	-1.6786395021	-1.6243836574	 1.1419796979	-0.361788
C	-1.3283610171	-0.797941553	-0.0684011456	 0.353681
O	-2.2613710783	-0.450650752	-1.0412111535	-0.473528
H	 0.9806507483	 1.9165745057	 0.0818184866	 0.128711
H	-0.583333131	 1.905503137	-0.7606410173	 0.127231
H	-0.5262039679	 1.8002469344	 1.0115953882	 0.126854
H	 0.4601023876	-1.0605457246	-1.9957479559	 0.104972
H	 1.8996871057	-0.424170255	-1.0963903971	 0.100075
H	 1.447993447	-2.5992803153	 0.385907355	 0.080228
H	-1.1179214055	-3.0110554069	-0.5668032735	 0.097991
H	-2.6891428924	-2.0206272396	 1.1437811003	 0.108791
H	-1.2632779044	-1.3781144933	 2.1111239202	 0.12748
H	-2.8419458649	 0.2227262764	-0.6705518641	 0.286038
185.538	197.1591	231.0529	281.5183	312.6511	358.2541	422.0117	467.9886	522.5072	553.8624	617.8531	657.076	740.3921	795.1074	831.4132	864.6828	878.0539	912.1322	939.5463	957.915	972.7073	1014.0297	1032.6894	1059.7408	1078.1477	1086.6414	1129.2024	1171.6464	1205.9598	1229.8158	1238.9516	1255.8877	1292.9839	1316.6756	1334.6417	1383.5833	1410.7954	1467.8116	1483.8996	1485.3883	1492.1556	3036.844	3065.2245	3105.6755	3120.2043	3124.3072	3136.7237	3137.5672	3197.4137	3233.3136	3797.4879
CC12CC(O1)C1CC21O	C[C@@]12C[C@@H](O1)[C@H]1C[C@@]21O	
InChI=1S/C7H10O2/c1-6-3-5(9-6)4-2-7(4,6)8/h4-5,8H,2-3H2,1H3	InChI=1S/C7H10O2/c1-6-3-5(9-6)4-2-7(4,6)8/h4-5,8H,2-3H2,1H3/t4-,5-,6+,7+/m1/s1
