18
gdb 99474	2.59957	1.03462	0.76875	1.6488	72.99	-0.2682	-0.0389	0.2293	1463.3765	0.144627	-439.115345	-439.104917	-439.103973	-439.152513	35.71	
C	-0.2267378253	 1.5042426268	 0.022762275	-0.384643
C	-0.2437028552	 0.0194382013	 0.3765489652	-0.292278
C	 0.9785831725	-0.4277743847	 1.1505734367	 0.387638
O	 1.8328490265	 0.3298743497	 1.5387793737	-0.291071
C	 1.1504128717	-1.9497949415	 1.409848349	-0.272711
C	 2.0861723135	-2.2299301122	 2.6150092945	-0.062006
O	 2.3831598697	-3.5989984367	 2.7469291252	-0.417554
C	-0.1151233743	-2.6598125865	 1.5774308392	 0.259494
N	-1.0998871694	-3.23805485	 1.7609233738	-0.329428
H	 0.633344868	 1.7484566373	-0.6061661327	 0.13293
H	-1.137801519	 1.7782254902	-0.5151391793	 0.120498
H	-0.1570256942	 2.1179664959	 0.9238973809	 0.138584
H	-1.1247915337	-0.2390310047	 0.979711812	 0.155097
H	-0.3292482791	-0.6122178209	-0.5185838102	 0.133106
H	 1.638082932	-2.3586549613	 0.513064531	 0.162343
H	 3.0258266233	-1.7073737923	 2.4340866162	 0.145765
H	 1.6374435687	-1.8073457257	 3.5241430487	 0.115012
H	 1.5861600541	-4.0594316444	 3.0326815712	 0.299224
19.5458	70.241	97.9208	128.7388	156.6996	196.2107	235.2447	272.7604	333.5589	373.3668	398.7831	469.0707	514.6924	579.0624	686.1279	746.3497	828.4058	855.9378	976.7796	1010.9759	1045.7398	1071.8165	1091.2557	1107.5483	1139.8523	1190.3459	1227.1916	1284.5262	1317.3358	1373.6922	1391.1822	1406.9402	1416.4103	1443.1413	1494.1536	1498.3556	1501.1204	1814.8818	2347.6628	3014.3458	3023.4406	3028.0396	3050.2591	3055.273	3127.1235	3132.2982	3136.4058	3803.1132
CCC(=O)C(CO)C#N	CCC(=O)[C@@H](CO)C#N	
InChI=1S/C6H9NO2/c1-2-6(9)5(3-7)4-8/h5,8H,2,4H2,1H3	InChI=1S/C6H9NO2/c1-2-6(9)5(3-7)4-8/h5,8H,2,4H2,1H3/t5-/m1/s1
