19
gdb 30128	3.54158	1.07673	1.01761	0.8441	81.07	-0.2171	0.022	0.2391	1253.5824	0.160233	-385.907399	-385.899163	-385.898219	-385.941009	31.353	
C	-0.3666214044	 1.4302759463	 0.0068278031	-0.406597
C	-0.0400833071	-0.0448336503	 0.0320519162	 0.02242
C	 1.3431725218	-0.5337963922	-0.3122607621	-0.306601
C	 0.8482253167	-0.6513192432	 1.1112057135	-0.150031
C	 1.4272363105	 0.1580464106	 2.2077452627	 0.257379
C	 2.6320210008	 0.7927611858	 2.2470650599	-0.10486
O	 2.8161432287	 1.4243519436	 3.438411718	-0.145305
C	 1.7057195027	 1.1837967758	 4.1834508433	 0.007818
C	 0.824550067	 0.419970384	 3.4911509962	-0.291187
H	 0.4729062743	 2.0279986292	 0.3728317718	 0.122805
H	-0.5986828657	 1.7623073694	-1.0111622541	 0.113924
H	-1.2330659997	 1.6573748358	 0.6379854628	 0.115392
H	-0.8557386154	-0.6886334131	-0.2872679668	 0.081983
H	 1.4559515815	-1.4417630757	-0.8943240636	 0.109108
H	 2.0941152742	 0.2210787617	-0.5224709579	 0.110024
H	 0.5530957999	-1.6516180389	 1.4192397637	 0.089878
H	 3.4436016692	 0.8758491558	 1.5436925658	 0.132703
H	 1.6990091039	 1.6221448365	 5.1678594133	 0.133682
H	-0.1398068689	 0.0776611589	 3.8338993543	 0.107466
38.6482	108.5908	168.7731	213.9972	273.0779	343.4379	410.4924	504.2345	604.9113	621.3099	701.0074	736.8159	776.9393	790.2577	833.9357	848.4161	878.8862	892.6345	930.9297	979.8154	1019.9497	1058.8899	1076.1887	1088.8291	1102.3196	1121.7496	1147.7966	1196.8816	1199.1287	1214.674	1249.1342	1278.6477	1375.6385	1394.2279	1422.3626	1425.7721	1486.9343	1493.0476	1502.9369	1542.3213	1634.264	3030.0554	3087.919	3108.2078	3124.5979	3130.4846	3140.799	3213.3411	3249.6115	3276.8041	3283.5207
CC1CC1C1=COC=C1	C[C@H]1C[C@H]1c1cocc1	
InChI=1S/C8H10O/c1-6-4-8(6)7-2-3-9-5-7/h2-3,5-6,8H,4H2,1H3	InChI=1S/C8H10O/c1-6-4-8(6)7-2-3-9-5-7/h2-3,5-6,8H,4H2,1H3/t6-,8+/m0/s1
