23
gdb 109167	2.58403	1.22906	0.96166	1.6251	87.81	-0.2337	0.0239	0.2576	1336.1986	0.205552	-388.313665	-388.303861	-388.302917	-388.348068	37.436	
C	 0.1683992666	 1.4365961855	-0.1585078793	-0.373831
C	-0.1004127127	-0.0578301263	 0.098666247	-0.301683
C	 0.6470301259	-0.5962802937	 1.2841882152	 0.341065
C	 0.1151309505	-0.981582353	 2.4493939271	-0.200596
C	 1.1669204522	-1.3922097674	 3.4522777398	-0.281006
C	 2.4009260984	-1.638427973	 2.5535621141	 0.117721
O	 2.4912050508	-3.0060124887	 2.1736322289	-0.431498
C	 2.1708863129	-0.6984707482	 1.3331222895	-0.099584
C	 2.8615664794	-1.1576854971	 0.0459314481	-0.397888
H	 1.2301538201	 1.6278692964	-0.3438309154	 0.121928
H	-0.3908544865	 1.7874478871	-1.0312218454	 0.113716
H	-0.132603971	 2.0393854091	 0.7040338129	 0.119984
H	-1.1748698396	-0.2119595721	 0.2493901709	 0.099643
H	 0.171575647	-0.6238927872	-0.8022017524	 0.104605
H	-0.9457879737	-0.961475616	 2.6782515223	 0.082807
H	 1.3531187471	-0.5894953981	 4.18055883	 0.104144
H	 0.921993144	-2.2915094314	 4.027699823	 0.104345
H	 3.3468085449	-1.4262748167	 3.0591473188	 0.077536
H	 1.6410634933	-3.2497754461	 1.7888182739	 0.277859
H	 2.5735087226	 0.2925873977	 1.5961823264	 0.079543
H	 2.4997698882	-2.136928442	-0.278397015	 0.113501
H	 2.6952526068	-0.4452983871	-0.7682046006	 0.110042
H	 3.9416776928	-1.2444905115	 0.1985141605	 0.117648
81.9643	91.3908	163.984	196.4852	216.2707	265.1685	270.257	292.7975	374.0408	393.0072	438.8679	512.0911	551.5089	651.1401	751.9793	768.499	800.4492	833.2497	856.5953	898.3139	954.259	964.4979	995.3739	1018.1265	1048.4849	1065.422	1090.1133	1106.7679	1132.1576	1172.9731	1199.6323	1246.8298	1261.3344	1274.2867	1306.3173	1319.964	1340.7725	1355.0344	1368.1772	1409.0147	1412.6514	1434.5633	1479.1303	1480.2576	1492.4773	1497.932	1499.7082	1508.0611	1700.6556	2974.8094	3003.3635	3017.1656	3036.8224	3041.1342	3060.1275	3065.5997	3079.1885	3105.065	3107.8562	3109.8405	3115.7901	3178.4638	3788.6747
CCC1=CCC(O)C1C	CCC1=CC[C@@H](O)[C@H]1C	
InChI=1S/C8H14O/c1-3-7-4-5-8(9)6(7)2/h4,6,8-9H,3,5H2,1-2H3	InChI=1S/C8H14O/c1-3-7-4-5-8(9)6(7)2/h4,6,8-9H,3,5H2,1-2H3/t6-,8+/m0/s1
