19
gdb 78759	2.55271	1.55992	1.26594	0.906	74.76	-0.2492	0.0691	0.3182	1063.9622	0.157948	-422.975963	-422.967453	-422.966509	-423.008293	33.911	
C	-0.0064113469	 1.5471120137	 0.0489004758	-0.510595
C	 0.042820545	 0.0426712216	 0.0663980086	 0.272816
C	-1.2630672832	-0.8053769307	 0.1617557223	-0.36104
C	-0.3841310246	-1.8758952197	 0.8036296835	 0.405589
O	-0.7900377517	-2.9510792408	 1.5658741231	-0.465863
C	 0.9730580621	-1.8668377162	 0.0713087826	-0.218664
C	 0.6644917953	-0.8815173101	 1.1941297645	-0.185389
C	 0.9307752494	-0.7462387363	-0.9544401628	 0.136609
O	 0.489001432	-0.9623572182	-2.2728248738	-0.447995
H	 0.9998799577	 1.9764260267	 0.1064288825	 0.117968
H	-0.4671578077	 1.9019565609	-0.8802865398	 0.127415
H	-0.5903484047	 1.9436964148	 0.8862821552	 0.117025
H	-1.955941421	-0.3793283783	 0.8930648668	 0.106263
H	-1.8070598436	-1.0244201299	-0.7676648917	 0.069722
H	-0.9943861673	-3.6855766098	 0.9765182045	 0.284568
H	 1.6309606355	-2.725599047	 0.1258711217	 0.086999
H	 1.1815129787	-0.6853746775	 2.1209852975	 0.099658
H	 1.908202268	-0.2606820948	-1.0445693969	 0.086472
H	-0.2966874129	-1.5168833385	-2.2394305535	 0.278441
163.1541	189.8389	212.9136	255.2424	264.6047	286.6688	309.8731	387.8905	424.165	506.6467	565.2738	598.9664	644.0229	719.9894	764.1897	806.8405	842.3917	906.3443	912.6694	952.3807	973.6204	999.8707	1007.5813	1065.7671	1106.8094	1117.6615	1129.0913	1167.3918	1184.268	1202.2284	1249.971	1268.9785	1296.8949	1303.027	1354.04	1411.7397	1433.9145	1439.438	1489.3838	1492.9357	1510.6779	3004.1843	3024.9171	3061.7056	3090.5466	3091.4394	3095.1547	3192.13	3237.5804	3791.985	3822.3017
CC12CC3(O)C(C13)C2O	C[C@]12C[C@@]3(O)[C@H]([C@@H]13)[C@H]2O	
InChI=1S/C7H10O2/c1-6-2-7(9)3(4(6)7)5(6)8/h3-5,8-9H,2H2,1H3	InChI=1S/C7H10O2/c1-6-2-7(9)3(4(6)7)5(6)8/h3-5,8-9H,2H2,1H3/t3-,4+,5-,6+,7-/m1/s1
