20
gdb 71901	2.36001	1.87363	1.62135	1.0625	78.22	-0.208	0.0689	0.2769	976.3273	0.170548	-403.093299	-403.085197	-403.084253	-403.125251	32.273	
C	 0.125045763	 1.5648137492	 0.1491079341	-0.490173
C	-0.0478823917	 0.0813832393	-0.0202457	 0.387626
C	 0.2578382738	-0.6389821402	-1.3490985725	-0.217055
N	-0.833971152	-1.6519003398	-1.114914891	-0.198424
C	-0.3685299036	-2.6506763485	-0.0844639688	-0.192113
C	-0.5672644595	-1.6370945336	 1.0522316809	 0.049272
O	 0.5105827499	-0.6751085475	 1.0909409528	-0.345776
C	-1.3555081322	-0.7691977747	 0.0369633447	 0.276091
C	-2.7818148894	-0.3202095563	 0.0675299606	-0.526931
H	 1.1909205414	 1.8194245136	 0.1619286904	 0.132369
H	-0.3451507638	 2.1101232732	-0.6750999911	 0.11974
H	-0.3130477995	 1.9037686539	 1.0925582528	 0.125234
H	 0.0074244246	-0.0335323448	-2.2272676326	 0.102435
H	 1.2639869401	-1.0519877317	-1.4665984786	 0.104883
H	-1.0813700519	-3.4813430081	-0.0391178258	 0.10568
H	 0.6415234198	-3.043616164	-0.2321096741	 0.106975
H	-0.8781033859	-1.9538062463	 2.0513147005	 0.07563
H	-2.9778314672	 0.3022767169	 0.9473329034	 0.125653
H	-3.0263826944	 0.2619446049	-0.8273995206	 0.128811
H	-3.4597446517	-1.1799079855	 0.0990678149	 0.130073
178.0253	183.8834	202.4768	218.4493	249.8062	311.1932	410.4817	428.7913	456.1678	573.2402	626.4489	693.4944	773.98	829.3716	850.3199	850.5033	868.7632	909.7576	915.4184	972.5395	977.2363	1004.5544	1060.9735	1128.1238	1149.1026	1164.413	1177.6586	1187.7441	1209.5047	1218.234	1247.2288	1294.2364	1307.3185	1334.0356	1362.3655	1407.8998	1414.5236	1473.8069	1477.1555	1481.4538	1487.9355	1489.404	1491.51	3028.5987	3031.2782	3034.8273	3037.8836	3072.6636	3093.9913	3097.6325	3099.2608	3100.1713	3101.9421	3114.159
CC12CN3CC(O1)C23C	C[C@@]12CN3C[C@@H](O1)[C@@]23C	
InChI=1S/C7H11NO/c1-6-4-8-3-5(9-6)7(6,8)2/h5H,3-4H2,1-2H3	InChI=1S/C7H11NO/c1-6-4-8-3-5(9-6)7(6,8)2/h5H,3-4H2,1-2H3/t5-,6+,7+/m1/s1
