18
gdb 106015	3.17839	1.62171	1.44123	2.245	73.53	-0.2348	0.0663	0.3011	960.0004	0.149445	-401.860003	-401.853012	-401.852068	-401.891464	28.267	
O	 0.020680347	 1.4296646271	 0.0138026313	-0.418176
C	 0.0485255374	 0.012819483	 0.0455969895	-0.214981
C	-1.3384868048	-0.5404202399	-0.0216759103	 0.405992
C	-2.3746940018	-0.4271904752	-1.1942933744	-0.123449
C	-2.2425395091	-1.9494713197	-1.4544703089	-0.249772
C	-1.8323856657	-2.0268215701	 0.0388086415	-0.149085
C	-2.9888225263	-1.4032057744	 0.8455470274	-0.040987
C	-3.3759424488	-0.264382257	-0.0351922262	-0.037493
N	-2.3460521554	-0.0578437666	 1.0384082655	-0.231727
H	-0.5934632136	 1.7009343636	 0.707592379	 0.296893
H	 0.6420047656	-0.3166842393	-0.8148849305	 0.112448
H	 0.5464460006	-0.3606533555	 0.9561170447	 0.09383
H	-2.3325481899	 0.3257628236	-1.9776311518	 0.085055
H	-3.1301953767	-2.5010192588	-1.7775073654	 0.097882
H	-1.4010956599	-2.1756258265	-2.117151102	 0.104169
H	-1.265876628	-2.8520480686	 0.4658450008	 0.076307
H	-3.6221196331	-1.8476348328	 1.6034486793	 0.096802
H	-4.3331632876	 0.2417320072	-0.0110242296	 0.096289
93.1185	150.5048	253.09	347.1418	438.0704	456.5786	550.9331	644.3182	731.5287	754.8998	810.2437	820.0081	827.9547	849.5579	860.2684	936.9432	942.6855	964.1281	988.0246	1028.1939	1040.383	1051.5728	1067.537	1079.3448	1102.4291	1129.1636	1135.9119	1166.9115	1227.3932	1232.5842	1236.8336	1267.0832	1304.9821	1337.2376	1353.8548	1375.6669	1436.5274	1484.0683	1492.7118	2966.2977	3047.2098	3064.1699	3105.3357	3136.7272	3148.7095	3183.8906	3195.4701	3780.6198
OCC12C3CC1C1C3N21	OC[C@@]12[C@H]3C[C@@H]1[C@@H]1[C@H]3N21	
InChI=1S/C7H9NO/c9-2-7-3-1-4(7)6-5(3)8(6)7/h3-6,9H,1-2H2	InChI=1S/C7H9NO/c9-2-7-3-1-4(7)6-5(3)8(6)7/h3-6,9H,1-2H2/t3-,4+,5-,6+,7+,8?
