19
gdb 40853	4.82032	1.2378	1.15413	2.0265	78.39	-0.2287	0.0772	0.3059	1100.1411	0.159644	-385.778228	-385.77119	-385.770246	-385.809714	28.774	
C	-0.0741453902	 1.5950865462	-0.1591704162	-0.20645
C	 1.4730481385	 1.5752211134	-0.0077038338	-0.298108
C	 1.3568066803	 0.1398101333	 0.5622387769	 0.381204
C	-0.0833414943	 0.0485405353	-0.0002506946	-0.298108
C	 2.4315801993	-0.9563343051	 0.4688492133	-0.205224
C	 3.1703703351	-0.4345071244	 1.7433917096	 0.098842
O	 3.2005690411	-1.7308030336	 2.4116449399	-0.33648
C	 1.9018488653	-1.6788144721	 1.7494663142	 0.098842
C	 1.6618578862	-0.163942052	 2.0442978065	-0.182599
H	-0.5609417833	 2.0954634871	 0.6822063524	 0.103619
H	-0.48051048	 2.0048333369	-1.086291381	 0.097878
H	 1.9797872669	 1.5895004841	-0.9783048637	 0.10028
H	 1.9300461497	 2.3372580383	 0.6301342715	 0.096632
H	-0.8509159198	-0.3906198013	 0.6434515704	 0.096632
H	-0.1121146433	-0.4624702732	-0.9682872967	 0.10028
H	 2.8858251006	-1.4236882962	-0.405709442	 0.07646
H	 4.0340913658	 0.2228601533	 1.834139203	 0.097524
H	 1.2284201309	-2.5292551392	 1.8475747992	 0.097524
H	 1.2432886742	 0.2672160521	 2.954508041	 0.081252
98.7379	153.5442	234.8749	305.9841	431.6305	524.9819	561.1781	687.7576	748.9751	795.5691	798.8298	801.783	816.76	862.0229	875.9779	887.0874	907.9122	936.7695	960.6699	963.8663	1030.4788	1046.0707	1082.189	1088.7653	1110.4174	1134.5596	1157.0251	1165.4186	1177.7949	1178.3338	1202.7127	1205.5175	1253.9753	1255.5014	1275.8584	1285.6194	1331.8778	1356.0373	1472.6847	1482.4094	1505.1507	3040.8422	3044.9558	3061.8031	3088.1576	3092.3462	3107.505	3109.7537	3117.9648	3123.7417	3135.3129
C1CC2(C1)C1C3OC1C23	C1CC2(C1)[C@H]1[C@@H]3O[C@H]1[C@H]23	
InChI=1S/C8H10O/c1-2-8(3-1)4-6-5(8)7(4)9-6/h4-7H,1-3H2	InChI=1S/C8H10O/c1-2-8(3-1)4-6-5(8)7(4)9-6/h4-7H,1-3H2/t4-,5+,6-,7+
