14
gdb 133595	3.12736	1.33763	1.19741	2.07	54.35	-0.2366	0.0178	0.2545	1002.0625	0.099302	-564.386829	-564.379243	-564.378299	-564.419737	27.677	
F	-0.0120738578	 0.0233204052	 0.0599699817	-0.071097
C	-0.0093276969	 1.3620056983	 0.0696764074	 0.263335
F	 1.278386528	 1.7577481909	 0.0863538932	-0.088523
F	-0.5519670831	 1.7843203007	-1.079524906	-0.070546
C	-0.7644634729	 1.9335971296	 1.2660069429	-0.129919
C	-2.1870573404	 1.3141264484	 1.435522851	-0.186287
N	-2.0916440211	 0.3754333239	 2.5657966715	-0.23352
C	-0.9395817675	 0.5533604522	 3.0775180811	 0.067376
N	-0.1379325342	 1.5494809162	 2.5287546304	-0.305635
H	-0.7823411637	 3.0189450007	 1.133310951	 0.115033
H	-2.9217188949	 2.0927818022	 1.6660305143	 0.1229
H	-2.5267209198	 0.8007095854	 0.5319829633	 0.132593
H	-0.5757273213	 0.0111405099	 3.9451893205	 0.13221
H	 0.8675379956	 1.4593696264	 2.5590787075	 0.25208
60.782	103.8382	190.4675	254.1955	341.186	398.1543	497.1382	524.9996	529.4751	574.4326	673.8082	798.7465	805.5306	887.5023	939.1727	963.952	990.443	1027.1284	1062.768	1124.0931	1165.7729	1198.7973	1217.676	1261.5455	1295.2487	1321.8465	1344.2429	1390.0543	1431.358	1494.5099	1701.874	3048.6687	3074.6099	3095.0634	3191.601	3607.7818
FC(F)(F)C1CN=CN1	FC(F)(F)[C@H]1C[N][CH]N1	
InChI=1S/C4H5F3N2/c5-4(6,7)3-1-8-2-9-3/h2-3H,1H2,(H,8,9)	InChI=1S/C4H5F3N2/c5-4(6,7)3-1-8-2-9-3/h2-3H,1H2,(H,8,9)/t3-/m1/s1
