17
gdb 15226	2.32953	1.92144	1.34312	3.8377	68.6	-0.2736	0.0222	0.2958	974.1445	0.141713	-363.863541	-363.854866	-363.853921	-363.897008	31.02	
C	-0.055299781	 1.5668573899	 0.1699940603	-0.4184
C	 0.0090213342	 0.068975114	-0.0379230051	-0.034951
C	 0.5503935922	-0.5858604033	-1.2778805189	-0.046948
C	 1.1323434672	 0.1844317704	-2.4473705308	-0.088209
O	 2.1401324074	-0.5509208313	-3.1183057841	-0.420468
C	 1.3299279203	-0.6978382733	 0.0355365793	-0.197287
C	 2.573635345	 0.0069625903	 0.1545068184	 0.281143
N	 3.5836536483	 0.5708121051	 0.2150380888	-0.352574
H	 0.8429498763	 2.0773511541	-0.183463206	 0.145497
H	-0.9179140191	 1.9916312802	-0.3534022099	 0.128261
H	-0.1630788257	 1.7958781306	 1.2347725922	 0.132195
H	-0.8094484735	-0.4695106369	 0.4324924361	 0.105904
H	 0.0753483123	-1.5160718528	-1.5762762263	 0.109736
H	 0.3431143954	 0.361745731	-3.1857695772	 0.117022
H	 1.5026908331	 1.1658795891	-2.1261964333	 0.107982
H	 2.9228326531	-0.5495777483	-2.556174188	 0.296347
H	 1.3238559744	-1.6586165488	 0.5385347445	 0.134749
58.259	132.1766	140.7548	170.3975	219.8135	277.8021	356.6042	381.0413	409.539	507.443	613.4313	625.8812	745.5799	794.3289	859.9987	921.8208	971.7266	987.7485	1034.4743	1072.7641	1102.013	1121.6014	1147.9939	1166.9955	1229.106	1257.1006	1352.5228	1367.3408	1401.3005	1419.4699	1425.3645	1438.5774	1494.3526	1496.7752	1505.6677	2340.7789	3026.3554	3044.4124	3075.8714	3104.5215	3126.2507	3144.3506	3154.954	3173.4922	3806.0084
CC1C(CO)C1C#N	C[C@H]1[C@@H](CO)[C@H]1C#N	
InChI=1S/C6H9NO/c1-4-5(2-7)6(4)3-8/h4-6,8H,3H2,1H3	InChI=1S/C6H9NO/c1-4-5(2-7)6(4)3-8/h4-6,8H,3H2,1H3/t4-,5+,6-/m1/s1
