15
gdb 50946	3.235	0.90777	0.74276	3.2344	74.17	-0.2855	-0.0063	0.2792	1460.4213	0.109773	-416.771515	-416.761876	-416.760932	-416.80733	32.831	
N	-0.0409482619	 1.3590685444	-1.3088246114	-0.424429
C	-0.0108370799	 0.2510027207	-0.716359676	 0.129217
O	-1.1672006933	-0.2597955654	-0.2124368822	-0.185
C	-1.0751486832	-1.5019581917	 0.4725394364	-0.029029
C	-2.4168968783	-1.6888356278	 1.2092144208	-0.363755
C	-2.4281206227	-2.8776417107	 2.047162535	 0.281371
C	-2.4107079346	-3.8605633949	 2.7365535009	-0.42075
C	-0.8022591444	-2.6069792982	-0.466976794	 0.284491
N	-0.5715102986	-3.4541140399	-1.2172812512	-0.306182
H	 0.8910815926	 1.6157909779	-1.6271134739	 0.241432
H	 0.8645453561	-0.3873968772	-0.5436642969	 0.109587
H	-0.2623448677	-1.4767374934	 1.2099189248	 0.144944
H	-2.5758007138	-0.7853558648	 1.8076441448	 0.15987
H	-3.2187804181	-1.7242306079	 0.4641759675	 0.167145
H	-2.408728322	-4.7334365811	 3.3419363455	 0.211088
51.4644	74.9772	85.0894	105.511	174.3967	236.9657	257.2881	346.9619	383.0922	444.6664	524.0864	579.8296	642.5201	676.1758	708.0014	811.1265	824.2915	959.5481	1001.4227	1023.0584	1039.4255	1087.5645	1124.0347	1207.2047	1267.2148	1311.8745	1352.5495	1368.2249	1427.2471	1472.8234	1755.3369	2249.225	2362.1257	3030.0258	3046.8774	3050.6271	3092.347	3504.5581	3524.8022
N=COC(CC#C)C#N	[NH][CH]O[C@@H](CC#C)C#N	
InChI=1S/C6H6N2O/c1-2-3-6(4-7)9-5-8/h1,5-6,8H,3H2	InChI=1S/C6H6N2O/c1-2-3-6(4-7)9-5-8/h1,5-6,8H,3H2/t6-/m0/s1
