22
gdb 117631	2.45282	0.93636	0.88879	3.8892	78.59	-0.2392	0.0352	0.2744	1461.1393	0.191399	-441.518005	-441.50654	-441.505596	-441.555463	41.075	
C	 0.319847774	 1.5088753212	 0.2127877794	-0.453389
C	 0.1635818428	-0.022351564	 0.1958085842	 0.142477
C	 0.7880510841	-0.6220271832	 1.4735790206	-0.406177
C	-1.3267481228	-0.4322737952	 0.0480976193	-0.171409
C	-2.2582764604	-0.0311003073	 1.1882687553	-0.10214
O	-3.5689857374	-0.4205665375	 0.7987151844	-0.418929
C	 0.8820327887	-0.7000136734	-0.9979025848	 0.41017
N	 1.4086858233	 0.1104471573	-1.9596605365	-0.538813
O	 0.9649534099	-1.9124422472	-1.0743324816	-0.385307
H	 1.374865613	 1.8033694766	 0.2113129551	 0.117605
H	-0.1796406666	 1.9835488902	-0.6399953316	 0.113747
H	-0.1257197914	 1.932727488	 1.1169547057	 0.12361
H	 0.3021538255	-0.2309634389	 2.3720172964	 0.107008
H	 0.7003357005	-1.7098518666	 1.4625716765	 0.143331
H	 1.8523353013	-0.3711629067	 1.5378950476	 0.112551
H	-1.7299348375	 0.004342833	-0.8745310916	 0.101304
H	-1.3736799278	-1.5180641199	-0.072906412	 0.131603
H	-1.9615116497	-0.5324183262	 2.1213384928	 0.090854
H	-2.2127378877	 1.0543781439	 1.3697076591	 0.080718
H	-4.1668971479	-0.2288573425	 1.5269112535	 0.284714
H	 1.3200784639	 1.1092131047	-1.9494766327	 0.25757
H	 1.8333882022	-0.3331210964	-2.7576203193	 0.258902
25.0515	62.4363	107.5257	140.5527	156.4808	247.874	261.5522	267.7793	290.3073	309.0225	330.4558	345.4209	370.0461	416.7054	504.6276	581.794	603.7837	728.0488	780.538	799.8099	844.281	944.1823	983.2888	995.9277	1026.9081	1049.862	1072.4814	1092.2101	1180.9206	1202.4657	1232.6627	1254.7368	1273.9105	1329.0065	1340.3365	1357.8253	1393.869	1420.3197	1460.5613	1488.6184	1492.7438	1495.5636	1510.6361	1518.6365	1530.5903	1612.9569	1778.2817	2971.3096	3002.6967	3023.815	3033.3318	3040.2439	3089.7368	3099.3019	3101.2019	3105.8558	3139.2324	3611.2693	3753.2975	3829.6568
CC(C)(CCO)C(N)=O	CC(C)(CCO)C(=O)N	
InChI=1S/C6H13NO2/c1-6(2,3-4-8)5(7)9/h8H,3-4H2,1-2H3,(H2,7,9)	InChI=1S/C6H13NO2/c1-6(2,3-4-8)5(7)9/h8H,3-4H2,1-2H3,(H2,7,9)
