12
gdb 25358	6.93147	0.91335	0.80701	2.9465	75.95	-0.2546	-0.084	0.1706	1294.6579	0.076669	-435.489302	-435.481797	-435.480852	-435.521659	26.949	
O	 0.0097634136	-0.0295519007	-0.001133078	-0.249663
C	 0.0213467117	 1.176128771	 0.0085954798	 0.074156
C	 1.2446131276	 1.9934551546	 0.0019739155	 0.295121
N	 1.3020827106	 3.2922033754	 0.0119579592	-0.319893
C	 2.6589901968	 3.5853433141	-0.0004579449	 0.106075
C	 3.3480815797	 2.4002498435	-0.0175136587	-0.097259
O	 2.4614332326	 1.3857800265	-0.0161164486	-0.136134
C	 3.1787710973	 4.9000567197	 0.004567962	 0.223496
C	 3.633901875	 6.0131968532	 0.0086717965	-0.389393
H	-0.8945993435	 1.7977001679	 0.0235532588	 0.117525
H	 4.3940332995	 2.145604495	-0.0309218355	 0.174141
H	 4.0292881891	 6.9989947098	 0.012394294	 0.201829
89.6358	126.4721	194.3469	221.3077	288.4859	439.4299	465.4215	546.7534	601.063	642.7091	677.5872	679.1474	719.9242	779.2265	822.3264	966.9355	1009.8867	1026.3671	1161.0337	1228.6847	1274.6484	1359.3741	1390.9492	1560.2284	1575.3579	1804.1902	2246.8276	2957.5017	3295.8572	3502.1451
O=CC1=NC(=CO1)C#C	O=Cc1nc(co1)C#C	
InChI=1S/C6H3NO2/c1-2-5-4-9-6(3-8)7-5/h1,3-4H	InChI=1S/C6H3NO2/c1-2-5-4-9-6(3-8)7-5/h1,3-4H
