16
gdb 14521	3.94456	1.77253	1.49656	1.3809	60.19	-0.2535	0.0672	0.3206	857.7039	0.130192	-420.794597	-420.787547	-420.786603	-420.825748	27.813	
O	 0.809878792	-0.3525306166	 1.3356799161	-0.421712
C	 0.2037530797	 0.0003163699	 0.106709238	-0.132157
C	-1.2077181028	-0.5562099491	 0.0320190817	 0.457206
O	-1.8914194372	-0.0236710261	 1.1306535849	-0.502811
C	-2.0346555821	-0.6600000466	-1.2934250854	-0.031349
C	-1.1685107957	-1.845344904	-1.7655077297	-0.235887
C	-1.5094382596	-2.0613913923	-0.2785116162	-0.016286
O	-2.9115030031	-1.6400448858	-0.5856571504	-0.34325
H	 0.1668943126	-0.1255029833	 2.0183517126	 0.294475
H	 0.1479352416	 1.0937204437	-0.0184660112	 0.097445
H	 0.8425789612	-0.3938353187	-0.6854402221	 0.109969
H	-2.7721141137	-0.4264518129	 1.0948937385	 0.290984
H	-2.5313101119	 0.1206861629	-1.870465146	 0.099726
H	-1.6871106855	-2.526663783	-2.4390033379	 0.119514
H	-0.1325750959	-1.6709048988	-2.0571367686	 0.109516
H	-1.3819132596	-2.9424037792	 0.3501082656	 0.104615
95.8286	179.173	302.9815	329.4607	403.3721	445.3468	468.7998	528.2552	610.9674	657.6095	705.6212	751.2842	824.8676	873.0355	892.7802	911.3527	985.4902	1018.7996	1037.8385	1076.4406	1088.6285	1132.2943	1133.986	1165.2713	1171.3827	1206.784	1236.6187	1272.1144	1303.1917	1371.0244	1407.9904	1456.0969	1486.6627	1505.4477	2978.9382	3087.7893	3114.5311	3118.6511	3129.5708	3166.0434	3722.8751	3792.5316
OCC1(O)C2CC1O2	OC[C@@]1(O)[C@H]2C[C@@H]1O2	
InChI=1S/C5H8O3/c6-2-5(7)3-1-4(5)8-3/h3-4,6-7H,1-2H2	InChI=1S/C5H8O3/c6-2-5(7)3-1-4(5)8-3/h3-4,6-7H,1-2H2/t3-,4+,5-
