16
gdb 17160	4.18643	1.89823	1.55787	2.9555	70.28	-0.2438	-0.0269	0.2169	830.55	0.13081	-346.535583	-346.529083	-346.528139	-346.566342	25.129	
O	-0.0513013775	-0.0107989336	 0.0665213999	-0.251916
C	 0.0559377356	 1.1907755768	 0.0071249153	 0.020062
C	 1.3500860958	 1.9118665454	 0.0063545079	 0.285653
C	 2.776916515	 1.3466882557	 0.0765052314	-0.312304
C	 2.9740124771	 2.8735761907	 0.0020493784	-0.04189
C	 1.772471226	 3.0737845854	-0.9867043782	-0.076841
C	 1.1414295447	 4.1776826779	-0.1184372262	-0.268654
C	 1.7189741965	 3.1724448782	 0.8947910599	-0.076877
H	-0.8454825957	 1.8440313568	-0.0525620949	 0.068233
H	 3.0608137858	 0.8554489047	 1.0113475231	 0.104006
H	 3.111823022	 0.7612871346	-0.784297216	 0.10402
H	 3.8989856101	 3.4519689859	-0.0019769622	 0.078257
H	 1.8078026672	 2.9769865101	-2.0729968381	 0.08414
H	 1.6251898268	 5.1587999999	-0.1561321761	 0.0991
H	 0.0540868932	 4.2891304112	-0.1551965349	 0.100882
H	 1.6924457574	 3.1898522005	 1.9855000506	 0.084129
96.3747	171.5483	270.1798	359.3995	411.7593	501.5099	684.1427	684.2444	789.3164	848.3614	867.6981	871.8271	908.7309	938.6483	992.0073	1001.9853	1023.7807	1027.5936	1033.8701	1112.5831	1112.6125	1122.6765	1155.1531	1162.6965	1189.7447	1228.23	1238.3831	1240.2034	1301.1637	1325.6347	1429.0808	1511.9797	1514.0943	1808.362	2857.7447	3045.1844	3053.3272	3098.6829	3101.6072	3102.2513	3112.265	3112.5067
O=CC12CC3C1CC23	O=C[C@@]12C[C@H]3[C@@H]1C[C@@H]23	
InChI=1S/C7H8O/c8-3-7-2-4-5(7)1-6(4)7/h3-6H,1-2H2	InChI=1S/C7H8O/c8-3-7-2-4-5(7)1-6(4)7/h3-6H,1-2H2/t4-,5-,6+,7-
