16
gdb 46268	3.11628	1.51338	1.23526	0.9328	68.93	-0.2365	-0.0432	0.1933	1014.0122	0.123678	-437.824267	-437.816839	-437.815894	-437.856468	28.195	
O	-0.0612467926	 0.0229305715	-0.4050082716	-0.278195
C	-0.059995726	 1.1849509173	-0.1348626356	 0.277429
C	-1.0760817267	 2.2229813181	 0.355163935	-0.197446
O	-0.0256575341	 3.215698381	 0.3522364596	-0.32673
C	 0.9878906402	 2.3022656789	-0.115038184	 0.326472
C	 2.3230004039	 2.2904442666	 0.6695817887	-0.236695
N	 3.1089932154	 2.7544872728	-0.5289319086	-0.12387
C	 2.8883690529	 1.7240014391	-1.557909894	-0.240839
C	 1.8184075029	 2.7177062016	-1.3248623932	-0.111207
H	-1.8878199816	 2.4558540902	-0.3446670089	 0.137605
H	-1.4921607322	 2.0438927913	 1.3539431148	 0.137633
H	 2.3100683728	 3.0659892763	 1.437779176	 0.137847
H	 2.661082957	 1.3393149293	 1.0929452851	 0.118254
H	 3.5097700954	 1.8603225917	-2.4372465765	 0.131036
H	 2.7359748878	 0.6894867232	-1.2586200191	 0.135369
H	 1.536296745	 3.4949216311	-2.0266625676	 0.113337
104.6715	112.1924	154.5002	317.8216	339.8999	435.5669	451.8602	537.8374	598.7521	716.7332	748.5943	792.0726	828.6319	879.2209	904.2712	957.502	991.8522	1007.0948	1032.4364	1048.8057	1090.7924	1111.0842	1118.8453	1138.9111	1151.4536	1188.1242	1207.0323	1254.0139	1278.4453	1294.6277	1344.162	1472.4697	1483.4239	1504.0232	1917.7329	3024.704	3051.9033	3074.0179	3110.9971	3128.664	3177.1612	3205.6286
O=C1COC11CN2CC12	O=C1CO[C@]21CN1C[C@@H]21	
InChI=1S/C6H7NO2/c8-5-2-9-6(5)3-7-1-4(6)7/h4H,1-3H2	InChI=1S/C6H7NO2/c8-5-2-9-6(5)3-7-1-4(6)7/h4H,1-3H2/t4-,6+,7?/m0/s1
