20
gdb 97195	3.41175	1.111	0.86604	3.2502	90.2	-0.2271	-0.0209	0.2062	1379.0851	0.170891	-403.180108	-403.170863	-403.169918	-403.214543	33.8	
C	 0.1140187926	 1.4392369876	 0.0899926401	-0.322078
N	 0.0880592773	-0.0115213804	 0.0436829459	-0.312888
C	 0.4545361453	-0.6036536381	-1.0192875583	 0.401023
O	 0.9180674095	 0.0848985527	-2.1106350621	-0.269361
C	 0.8883255405	-0.6038214656	-3.3635862683	-0.088441
C	 1.5521713598	-1.9732210727	-3.2825712886	-0.308165
C	 0.9948735775	-2.7473640988	-2.1129505969	 0.284302
C	 1.0899489932	-4.2431557602	-2.1474198218	-0.479451
C	 0.4605248326	-2.0665975392	-1.0904599228	-0.213331
H	 1.0857445525	 1.7885882448	 0.4649767791	 0.12244
H	-0.0534847515	 1.9160718424	-0.8831037174	 0.115663
H	-0.6460708252	 1.7842296756	 0.7974809092	 0.11573
H	-0.1553270277	-0.7173803134	-3.687689939	 0.108731
H	 1.3972152111	 0.0552931565	-4.0709496158	 0.115737
H	 1.3798951915	-2.5116427617	-4.2228046102	 0.109555
H	 2.6417552505	-1.8695546344	-3.1805984204	 0.123916
H	 2.1337249168	-4.5655530126	-2.2575208125	 0.131131
H	 0.6866203683	-4.6956061886	-1.2382295	 0.130539
H	 0.5474926426	-4.6535162223	-3.0089718742	 0.128308
H	 0.0501161027	-2.5627408516	-0.2185215658	 0.106643
53.4393	101.0461	137.8632	190.664	205.324	262.9923	313.9739	323.2537	430.873	463.8776	472.8372	549.5236	691.5026	718.0033	799.7032	847.5129	897.0288	915.3901	1002.7835	1011.2854	1034.206	1053.1787	1091.4361	1106.614	1117.7102	1156.7032	1186.5804	1235.0251	1255.2068	1290.6143	1338.2088	1383.3706	1413.7422	1424.476	1435.2133	1466.0102	1478.4559	1484.885	1488.0178	1495.3673	1506.7955	1709.4745	1735.9734	3006.3467	3008.2939	3014.1895	3017.1777	3055.0558	3059.9957	3061.2752	3092.5217	3101.1244	3118.703	3201.5362
CN=C1OCCC(C)=C1	CN=C1OCCC(=C1)C	
InChI=1S/C7H11NO/c1-6-3-4-9-7(5-6)8-2/h5H,3-4H2,1-2H3	InChI=1S/C7H11NO/c1-6-3-4-9-7(5-6)8-2/h5H,3-4H2,1-2H3
