19
gdb 13488	3.06633	1.65224	1.36244	3.504	72.93	-0.2373	0.038	0.2753	1007.2652	0.164926	-365.095266	-365.086482	-365.085538	-365.12968	31.523	
C	 0.0149096001	 1.4647749629	-0.2717739822	-0.385169
C	-0.0055884927	-0.0352244236	 0.0610914759	 0.032542
C	 0.6929780429	-0.3383096197	 1.3924161394	-0.386596
N	-1.3681398859	-0.5537981732	 0.0704546396	-0.07248
C	-2.1849152786	-1.1382798245	-1.0005807545	-0.171628
C	-3.3817112667	-1.1227097716	-0.0103041201	-0.36717
C	-2.3987151644	-0.4502257684	 0.9762952002	 0.410065
O	-2.4610190283	 0.0105219453	 2.0887162697	-0.382046
H	 1.044327632	 1.8302811349	-0.3422286612	 0.116058
H	-0.4818956672	 1.664472968	-1.2263405148	 0.112066
H	-0.5000843548	 2.0324067722	 0.5091086458	 0.14081
H	 0.5140027171	-0.578351385	-0.738668049	 0.086907
H	 1.721499208	 0.0340844031	 1.3697133591	 0.110675
H	 0.1616090553	 0.1383643546	 2.219086966	 0.156942
H	 0.71872628	-1.4153448638	 1.5807614279	 0.116301
H	-2.3052675138	-0.4899032247	-1.8760909914	 0.109973
H	-1.845759675	-2.1272484629	-1.3271682171	 0.11011
H	-4.2277896635	-0.4964835095	-0.2980017494	 0.131051
H	-3.7415010245	-2.1026478641	 0.307896886	 0.131591
20.5473	91.6048	172.3055	184.4462	232.7093	264.7855	323.0516	402.4098	454.5131	478.4448	569.9056	686.9497	779.9597	821.9638	874.1557	931.3659	942.711	950.964	1011.6773	1044.4681	1097.2051	1136.6769	1151.8022	1162.4487	1186.3853	1197.7116	1237.8542	1268.2671	1345.9726	1366.9427	1398.0167	1415.5262	1433.6525	1462.3598	1483.3815	1491.535	1498.3946	1513.4642	1529.6446	1861.0926	3022.3597	3028.9465	3035.8835	3046.4414	3070.8808	3088.5545	3106.1821	3115.4317	3117.5058	3138.746	3145.9588
CC(C)N1CCC1=O	CC(C)N1CCC1=O	
InChI=1S/C6H11NO/c1-5(2)7-4-3-6(7)8/h5H,3-4H2,1-2H3	InChI=1S/C6H11NO/c1-5(2)7-4-3-6(7)8/h5H,3-4H2,1-2H3
