19
gdb 65934	2.20415	1.47382	1.3943	2.0661	81.22	-0.2511	0.0494	0.3005	1088.4991	0.156753	-385.825733	-385.816678	-385.815734	-385.859186	34.732	
C	-0.3946224957	 1.556199053	 0.1255601596	-0.458694
C	-0.02403439	 0.0726676511	 0.0457683105	 0.008485
C	 1.2607795235	-0.2949930814	-0.7916155994	-0.259111
C	 1.7480133286	-1.2238642236	 0.3561884724	-0.316082
C	 0.72585898	-0.5448795375	 1.2632429998	 0.444034
C	 0.9206696142	 0.0487355878	 2.587169609	-0.267269
O	 0.1139484886	-1.1237533075	 2.3889913306	-0.266353
C	-1.1711600261	-0.7386840974	-0.3390790083	 0.34019
C	-2.1183254269	-1.4041321489	-0.6643943073	-0.482455
H	 0.4740724136	 2.1535470408	 0.4190976643	 0.112155
H	-0.7497543474	 1.915171612	-0.8450598434	 0.128915
H	-1.1940554799	 1.7203992916	 0.8545272756	 0.13252
H	 1.0773527448	-0.7593489777	-1.7600901797	 0.116092
H	 1.9016176075	 0.5802089668	-0.9235776595	 0.10555
H	 1.4841803435	-2.2699545553	 0.1800798605	 0.128266
H	 2.7986786996	-1.1635982576	 0.6473218655	 0.106604
H	 1.8590858167	-0.1135658953	 3.1167346787	 0.115361
H	 0.372981238	 0.9448023543	 2.8742903554	 0.11743
H	-2.9557522625	-1.9956074151	-0.9406537845	 0.194362
71.4642	123.974	183.04	218.7357	241.3015	288.569	324.9147	369.7823	443.4093	483.9966	537.6406	611.8836	623.8778	633.1824	640.0421	742.9847	863.615	875.4976	894.163	910.8754	925.9027	961.2827	1005.1816	1112.5667	1122.1907	1129.4065	1145.1789	1169.4801	1187.4063	1212.6867	1244.5136	1270.867	1277.7135	1403.2333	1424.0504	1474.4478	1488.3878	1492.6281	1496.6061	1534.9626	2231.6158	3035.3206	3067.32	3072.9424	3080.7002	3110.5936	3111.6048	3119.65	3143.7911	3168.3588	3502.8555
CC1(CCC11CO1)C#C	C[C@]1(CC[C@]21CO2)C#C	
InChI=1S/C8H10O/c1-3-7(2)4-5-8(7)6-9-8/h1H,4-6H2,2H3	InChI=1S/C8H10O/c1-3-7(2)4-5-8(7)6-9-8/h1H,4-6H2,2H3/t7-,8-/m1/s1
