19
gdb 78455	2.89029	1.58282	1.28674	2.1949	74.25	-0.2379	0.0686	0.3065	1037.4689	0.160179	-422.960127	-422.952506	-422.951562	-422.991734	30.994	
C	-0.0761550655	 1.5722228621	-0.0007977241	-0.424964
C	-0.0320009726	 0.0498417567	-0.0101221261	 0.013059
C	 1.2064147591	-0.5601448311	-0.7197474549	 0.040435
O	 1.9969141139	-0.1970744236	 0.4717707765	-0.303849
C	 0.7543915392	-0.58427372	 1.1670916588	 0.044799
C	 0.7539257669	-2.1106873325	 0.9423492868	-0.084402
C	-0.1375802633	-2.7900049886	-0.0505228762	 0.069675
O	-1.4731073997	-2.4334246848	-0.2679230154	-0.410204
C	 1.105527742	-2.0900292411	-0.5607260984	-0.118794
H	 0.9012513667	 1.9967726298	 0.2370462904	 0.133517
H	-0.3922520912	 1.9544719621	-0.9779175553	 0.108045
H	-0.8005900934	 1.9310969528	 0.738666871	 0.111588
H	-1.0038297965	-0.3746954502	-0.241585222	 0.099243
H	 1.617213817	-0.1709025119	-1.6522551096	 0.071809
H	 0.6951045312	-0.222256439	 2.1939669601	 0.074917
H	 1.2956212967	-2.7170675057	 1.6595693735	 0.097692
H	-0.0014649759	-3.874440795	-0.036582064	 0.095411
H	-1.6968308604	-2.6800422456	-1.1720152031	 0.28835
H	 1.9061815556	-2.6926030346	-0.9759528483	 0.093672
175.0225	221.1041	223.2748	263.0036	282.2538	301.6968	433.7665	543.9365	570.0074	676.463	701.5766	737.4436	763.3301	802.9081	837.8834	860.6453	888.391	897.7287	961.3219	1012.6306	1033.61	1038.2208	1046.3162	1088.8178	1093.0002	1114.68	1136.3304	1188.7584	1231.7638	1240.1411	1261.4386	1267.583	1288.5317	1305.0698	1314.615	1367.2808	1403.55	1415.0669	1462.2387	1494.2156	1508.2045	3032.4314	3063.3185	3087.8067	3112.4063	3118.006	3129.0534	3165.7513	3169.2359	3175.9875	3802.4215
CC1C2OC1C1C(O)C21	C[C@H]1[C@H]2O[C@@H]1[C@H]1[C@@H](O)[C@@H]21	
InChI=1S/C7H10O2/c1-2-6-3-4(5(3)8)7(2)9-6/h2-8H,1H3	InChI=1S/C7H10O2/c1-2-6-3-4(5(3)8)7(2)9-6/h2-8H,1H3/t2-,3-,4+,5-,6+,7-
