16
gdb 35242	3.75779	1.11864	0.97066	2.641	69.28	-0.2697	-0.0102	0.2595	1187.9699	0.124532	-437.874275	-437.866378	-437.865433	-437.907433	28.909	
N	-0.0917363041	-1.1434839945	-0.066715703	-0.329717
C	-0.0391441391	 0.010789785	-0.0359274138	 0.314482
C	 0.031840176	 1.4560283594	-0.0347030635	-0.201299
O	 0.5468158987	 2.0778541211	 1.1470725304	-0.258177
C	 1.3381662287	 2.1467480841	-0.0363860193	 0.404755
C	 2.7013992235	 1.4614964989	-0.0470246701	-0.328014
C	 3.5335066944	 2.4191301172	-0.9164401405	-0.08703
O	 2.945137759	 3.7029577795	-0.724951788	-0.240975
C	 1.5445876144	 3.5058507978	-0.7096547539	-0.153813
H	-0.8350869073	 1.9461619922	-0.4760042223	 0.138848
H	 3.0791535696	 1.4305606098	 0.978615865	 0.141016
H	 2.6649258308	 0.4399018292	-0.4310271406	 0.136695
H	 4.5819527496	 2.4841101795	-0.6202895513	 0.124943
H	 3.4860163262	 2.1271291289	-1.9776899398	 0.100406
H	 1.136261469	 3.4909680327	-1.7340121609	 0.102672
H	 1.0725281107	 4.3159702292	-0.1487020785	 0.135208
56.0769	120.2931	144.1843	253.8766	303.0838	375.8972	392.4751	452.2865	574.6617	595.763	673.23	767.9257	803.0267	872.7102	940.0538	955.4632	974.2877	995.3435	1016.7489	1065.8578	1107.0772	1129.4337	1198.1268	1220.6306	1229.7188	1271.8052	1295.6581	1320.2451	1354.0529	1398.7876	1459.184	1479.7494	1497.8614	1518.9103	2360.1039	2966.8678	2981.8632	3071.6342	3103.8622	3113.927	3124.6334	3125.7998
N#CC1OC11CCOC1	N#C[C@H]1O[C@]21CCOC2	
InChI=1S/C6H7NO2/c7-3-5-6(9-5)1-2-8-4-6/h5H,1-2,4H2	InChI=1S/C6H7NO2/c7-3-5-6(9-5)1-2-8-4-6/h5H,1-2,4H2/t5-,6-/m1/s1
