22
gdb 122700	4.47449	0.55517	0.52271	2.553	85.52	-0.2543	0.0186	0.273	2184.8838	0.19111	-441.483486	-441.472324	-441.47138	-441.521763	38.95	
C	-0.2179254631	 1.5406313482	 0.0287227696	-0.368122
C	-0.1167781597	 0.0111539017	-0.001800536	 0.05951
C	 0.7119532	-0.5198929762	 1.1737290928	-0.367626
N	-1.4584351099	-0.5543740789	 0.0720941798	-0.211498
C	-1.8490713348	-1.2641424234	-0.8877803074	 0.121681
O	-3.0835389093	-1.8136488487	-0.8801821663	-0.224411
C	-3.4315440749	-2.6250571668	-2.0065991761	-0.089736
C	-4.9220522289	-2.8991602091	-1.8873612042	-0.059687
O	-5.6758320041	-1.7067760561	-1.9234232361	-0.417916
H	 0.7777954405	 1.9943873974	-0.0050766415	 0.1083
H	-0.7946068793	 1.9102843999	-0.8243450919	 0.111421
H	-0.7202652966	 1.8689233993	 0.943890263	 0.125651
H	 0.3848710802	-0.2845650966	-0.9417490612	 0.055146
H	 1.7213964053	-0.0965098303	 1.1575437045	 0.108103
H	 0.2367858537	-0.2535051699	 2.1228718178	 0.125921
H	 0.7940687704	-1.6100318632	 1.1316057554	 0.11082
H	-1.2561574214	-1.4961458977	-1.7862080364	 0.076626
H	-3.2214703785	-2.0845442106	-2.938332088	 0.115316
H	-2.8580079008	-3.5619283186	-1.9960337604	 0.107019
H	-5.2452994839	-3.5124525597	-2.7347196373	 0.114258
H	-5.1073555452	-3.4718963047	-0.9653527501	 0.102948
H	-5.3268821098	-1.1434900461	-1.2226835501	 0.296274
19.8355	43.2187	90.2119	121.133	166.7572	211.5009	237.3846	245.1617	261.4045	313.0259	364.8477	423.0859	461.1713	469.2484	561.8623	581.8201	835.7515	899.6768	906.9091	929.7643	954.9541	975.5839	986.7669	1071.5705	1090.0225	1132.3627	1135.5026	1172.8444	1185.766	1230.5183	1253.4881	1267.0447	1354.7806	1360.2542	1390.8444	1394.4675	1395.6514	1413.8466	1424.5236	1437.4973	1480.6951	1487.1986	1493.7823	1496.2281	1500.9921	1510.1802	1770.7858	2923.3618	2989.7977	2991.1922	3009.4213	3034.0439	3038.4527	3060.6559	3083.7339	3107.278	3111.0571	3111.7695	3116.1816	3798.9135
CC(C)N=COCCO	CC(C)N=COCCO	
InChI=1S/C6H13NO2/c1-6(2)7-5-9-4-3-8/h5-6,8H,3-4H2,1-2H3	InChI=1S/C6H13NO2/c1-6(2)7-5-9-4-3-8/h5-6,8H,3-4H2,1-2H3
