17
gdb 9103	5.36066	0.98276	0.84348	1.1955	74.79	-0.2483	0.0291	0.2774	1343.9237	0.138331	-363.829897	-363.820116	-363.819172	-363.865546	33.188	
C	 0.0515481142	 1.4498881868	 0.0631346667	-0.32776
N	 0.0193519914	 0.003144056	 0.0580048673	-0.28343
C	-1.0795636265	-0.6179392712	-0.0295928913	 0.419582
C	-2.4865880815	-0.0757482045	-0.1393676971	-0.488646
O	-1.1025636387	-1.9747500537	-0.0337804621	-0.249828
C	 0.1755587898	-2.6173616311	 0.0657575967	-0.228526
C	-0.0256908413	-4.0578148566	 0.0474104636	 0.296875
C	-0.1527234917	-5.2517983963	 0.0353347285	-0.419883
H	 0.6721197562	 1.8030096862	-0.7691055481	 0.126802
H	-0.927642916	 1.941944894	-0.0130955446	 0.101866
H	 0.5340753297	 1.7998609214	 0.9835237822	 0.126803
H	-2.5935390627	 0.5476220653	-1.0317372557	 0.14542
H	-3.1976774509	-0.8993641271	-0.1974475979	 0.147397
H	-2.7324400155	 0.5434000455	 0.7281453	 0.145429
H	 0.8148492416	-2.2936403234	-0.7636389885	 0.144176
H	 0.6770569548	-2.2966737677	 0.9861085764	 0.144173
H	-0.2684440327	-6.3073065735	 0.0243899141	 0.199548
46.1501	68.2963	73.4449	119.6122	165.5341	232.7283	275.1122	317.5084	337.2434	415.3125	536.5	577.1465	608.8831	631.465	676.4052	834.1222	970.6135	983.979	1015.304	1054.2875	1057.5308	1133.8977	1134.8567	1156.5967	1242.7699	1290.5055	1381.7465	1404.8393	1448.705	1478.6477	1479.0462	1488.8949	1499.4771	1506.8117	1757.9972	2248.8982	3000.7886	3037.3763	3053.0235	3063.8992	3066.912	3069.112	3114.4611	3157.1618	3506.7085	46.1492	68.2959	73.4468	119.6121	165.5333	232.7283	275.1121	317.5084	337.2439	415.3126	536.5002	577.1463	608.8835	631.465	676.4055	834.1222	970.6131	983.9789	1015.3042	1054.2877	1057.5304	1133.8977	1134.8564	1156.5964	1242.7702	1290.505	1381.7468	1404.8395	1448.7046	1478.6479	1479.0463	1488.8951	1499.4769	1506.8112	1757.9972	2248.8983	3000.7885	3037.3761	3053.0235	3063.8992	3066.9119	3069.112	3114.4611	3157.1617	3506.7085
CN=C(C)OCC#C	CN=C(C)OCC#C	
InChI=1S/C6H9NO/c1-4-5-8-6(2)7-3/h1H,5H2,2-3H3	InChI=1S/C6H9NO/c1-4-5-8-6(2)7-3/h1H,5H2,2-3H3
