18
gdb 121712	7.22948	0.56087	0.52559	1.7632	73.24	-0.2627	-0.0247	0.238	2043.0061	0.144721	-476.242988	-476.232671	-476.231727	-476.280066	34.174	
C	-0.0951623044	 1.2860044355	-0.1420662034	-0.230717
O	 0.0057435728	-0.1138499612	-0.0245858185	-0.233852
C	 0.6847934779	-0.51577406	 1.1422874717	-0.050795
C	 0.7215385673	-2.0377924333	 1.1429293441	-0.347949
C	 1.4272573646	-2.5946870662	 2.3499545134	 0.46851
O	 1.9225545373	-1.95746225	 3.2398666355	-0.337091
O	 1.4297492308	-3.9680641614	 2.2971485693	-0.208154
C	 2.0344298281	-4.6539636856	 3.3223998296	 0.115084
N	 2.0333794027	-5.9101202485	 3.2690228794	-0.416972
H	 0.8958973709	 1.764306332	-0.1868846046	 0.107281
H	-0.6323302306	 1.4976279092	-1.0694733353	 0.129983
H	-0.6505714737	 1.727294053	 0.7004087043	 0.107282
H	 1.708009167	-0.108674577	 1.165662113	 0.103354
H	 0.1745377803	-0.1453335893	 2.0454256669	 0.103356
H	-0.2940797198	-2.4477843597	 1.1102810316	 0.153176
H	 1.2201368267	-2.4116106184	 0.241652777	 0.153172
H	 2.4554596633	-3.9962410218	 4.0828213093	 0.143773
H	 2.5110305188	-6.2895205074	 4.0854489068	 0.240559
39.5833	71.0314	95.2596	108.8989	112.3758	144.1317	227.8851	235.8993	304.628	343.9424	478.7868	552.0404	571.7641	741.6072	808.4421	853.2908	945.3495	999.3199	1011.7364	1072.3627	1090.5756	1090.9417	1148.604	1176.9661	1181.0639	1222.8701	1236.4405	1265.1242	1297.4851	1343.1421	1391.1313	1431.8746	1457.5256	1484.2537	1486.164	1505.2729	1528.6967	1747.5501	1836.3012	2968.6202	2981.007	3004.9103	3018.189	3055.5256	3091.5112	3118.0619	3140.5801	3506.5766
COCCC(=O)OC=N	COCCC(=O)O[CH][NH]	
InChI=1S/C5H9NO3/c1-8-3-2-5(7)9-4-6/h4,6H,2-3H2,1H3	InChI=1S/C5H9NO3/c1-8-3-2-5(7)9-4-6/h4,6H,2-3H2,1H3
