19
gdb 35896	3.03844	1.3557	1.05233	0.9666	80.61	-0.2438	0.0538	0.2976	1155.0329	0.159976	-385.842976	-385.834892	-385.833948	-385.875516	31.949	
C	-0.0127453009	-1.239829762	 0.0013981259	-0.450673
C	-0.0030941587	-0.037710253	 0.0154882818	 0.321801
C	 0.0061350929	 1.4229772691	 0.04982713	-0.202558
C	-0.8226544235	 1.9836104044	 1.2313437376	-0.222418
C	-0.5630976405	 3.4802821565	 1.374870802	-0.074526
O	 0.7828489645	 3.7330964009	 1.7494684874	-0.256903
C	 1.7410138144	 3.2141680464	 0.8705303595	 0.087704
C	 2.3607436333	 1.8851306152	 1.2184960171	-0.301945
C	 1.4256572627	 1.9959666145	 0.0366340297	-0.048083
H	-0.0188847737	-2.3014236953	-0.0178810206	 0.192656
H	-0.4799956421	 1.783370361	-0.8683398956	 0.104786
H	-1.8850977321	 1.7883792964	 1.0552124765	 0.10914
H	-0.5482739819	 1.4806063871	 2.1642676378	 0.118728
H	-0.8112119541	 4.0009941791	 0.4348526778	 0.087015
H	-1.176039273	 3.9118927225	 2.1709171402	 0.108795
H	 2.36966561	 3.9889465301	 0.4368176782	 0.092768
H	 3.4146472978	 1.7218764136	 1.0222250092	 0.111775
H	 1.9891140569	 1.4122413586	 2.1208145223	 0.124352
H	 1.8983147479	 1.9519232547	-0.9396673468	 0.097586
87.5388	134.0795	190.7003	269.7461	324.5612	382.528	430.1356	471.8755	526.9645	589.2408	625.1962	634.7687	643.9245	748.439	796.0354	830.914	878.5685	921.5692	963.5984	1012.3798	1024.4535	1047.0708	1052.7231	1076.3814	1093.7859	1126.5364	1161.8458	1191.6163	1218.7888	1244.7493	1281.2868	1321.3867	1331.1826	1353.9936	1371.8314	1399.7602	1419.236	1476.8543	1487.9989	1502.023	2234.7919	2967.7093	2995.2826	3050.688	3089.8469	3097.1904	3121.4378	3136.6086	3151.5908	3225.3694	3504.6917
C#CC1CCOC2CC12	C#C[C@H]1CCO[C@H]2C[C@@H]12	
InChI=1S/C8H10O/c1-2-6-3-4-9-8-5-7(6)8/h1,6-8H,3-5H2	InChI=1S/C8H10O/c1-2-6-3-4-9-8-5-7(6)8/h1,6-8H,3-5H2/t6-,7-,8-/m0/s1
