17
gdb 77998	3.04925	1.28228	1.07412	3.8329	74.8	-0.247	0.0001	0.2471	1142.7693	0.136283	-417.971684	-417.963391	-417.962447	-418.004348	31.751	
C	-0.1798416234	 1.5474283033	 0.0295646685	-0.409973
C	 0.1518482821	 0.0647689457	 0.0332376827	 0.048236
N	 1.3661585496	-0.3510470474	-0.7654211523	-0.409124
C	 1.8066362346	-1.2188660722	 0.3558979856	 0.191793
C	 2.2343054397	-2.5633797547	 0.1799830733	 0.171903
N	 2.5781650931	-3.6590675559	 0.0282731434	-0.346637
C	 2.219957749	-0.270668571	 1.4506261521	 0.106874
O	 2.8150711803	 0.9362190451	 1.1339934527	-0.425234
C	 0.7478988047	-0.5842703154	 1.2909857473	-0.20575
H	 0.6586324541	 2.1408194254	 0.3984320233	 0.141355
H	-0.435730734	 1.8826851429	-0.9809063845	 0.122543
H	-1.0446019605	 1.7377052205	 0.6741482504	 0.12499
H	-0.7189557479	-0.5193893578	-0.2862451489	 0.095518
H	 1.1280189152	-0.877915394	-1.598195379	 0.24409
H	 2.6714280776	-0.7375355237	 2.3207485465	 0.131477
H	 2.7091277167	 1.0333827038	 0.1730378987	 0.300074
H	 0.1762353691	-1.0549327148	 2.0806690502	 0.117867
115.411	148.8243	180.8806	223.9311	254.2963	315.8082	398.318	470.7465	494.7637	538.8595	558.5766	613.3729	700.4576	705.5094	801.8128	829.5491	880.151	903.1841	964.6722	997.7814	1026.3503	1080.885	1098.8202	1113.3961	1162.361	1197.3356	1229.1782	1250.3402	1309.8373	1352.2514	1380.4677	1395.426	1414.8046	1472.4101	1488.4698	1501.7066	2338.1405	3033.8765	3041.9093	3104.0968	3141.2448	3170.9207	3198.4566	3547.5839	3674.074
CC1NC2(C#N)C(O)C12	C[C@H]1N[C@@]2(C#N)[C@@H](O)[C@@H]12	
InChI=1S/C6H8N2O/c1-3-4-5(9)6(4,2-7)8-3/h3-5,8-9H,1H3	InChI=1S/C6H8N2O/c1-3-4-5(9)6(4,2-7)8-3/h3-5,8-9H,1H3/t3-,4-,5+,6-/m1/s1
