20
gdb 106925	3.72594	1.12813	0.99641	4.183	78.93	-0.2469	-0.0056	0.2413	1253.6728	0.171127	-403.169415	-403.160729	-403.159785	-403.20306	32.889	
C	 0.0495018097	 1.5303551665	-0.3043896191	-0.384707
C	-0.0136921266	 0.0580575103	 0.120532294	-0.265449
C	-1.4235500915	-0.4920209804	 0.1337257722	 0.338821
C	-1.9956664865	-1.1048248878	-1.0846798191	-0.297199
N	-1.5560716875	-1.9670287423	 0.0540538357	-0.172113
C	-2.6796872403	-2.3549143602	 0.8622724689	 0.389338
O	-3.0268457286	-3.4919769177	 1.0082151941	-0.30843
C	-3.3412418002	-1.1179793706	 1.4924589421	-0.346221
C	-2.4103399104	 0.0601523083	 1.1706832667	-0.292995
H	 1.0833545136	 1.886988442	-0.3144109576	 0.120819
H	-0.3636419579	 1.6705489483	-1.3089711159	 0.119054
H	-0.5147667617	 2.172680026	 0.3797804286	 0.1202
H	 0.5935056541	-0.5545211612	-0.5541430404	 0.112853
H	 0.4205590542	-0.0597445731	 1.1216586121	 0.102772
H	-3.064086464	-1.023148924	-1.2717693057	 0.122884
H	-1.3902189751	-1.2187452242	-1.9788267485	 0.130419
H	-4.3389927164	-1.0128835442	 1.0538708077	 0.139156
H	-3.4904612311	-1.2855604308	 2.5611134576	 0.141311
H	-1.8502132577	 0.3662569657	 2.0600277243	 0.114561
H	-2.9432214563	 0.9428564591	 0.8068379924	 0.114925
72.597	92.9384	128.8275	212.5518	242.746	341.5928	369.3509	387.9986	501.1706	558.5821	606.8885	659.5739	699.8635	780.3682	791.6764	818.6734	877.1242	907.2154	941.7921	990.6325	1014.655	1025.8785	1065.2529	1085.3749	1103.5164	1120.939	1147.7866	1178.9929	1238.7138	1255.1225	1275.5536	1292.74	1344.7455	1357.9635	1404.6696	1414.0466	1459.6912	1485.0269	1495.9114	1500.9032	1509.1805	1517.3083	1864.3969	3026.9819	3036.1199	3052.2409	3063.4829	3072.1903	3091.5558	3104.4443	3106.7516	3111.1799	3116.286	3194.2105
CCC12CN1C(=O)CC2	CC[C@@]12CN1C(=O)CC2	
InChI=1S/C7H11NO/c1-2-7-4-3-6(9)8(7)5-7/h2-5H2,1H3	InChI=1S/C7H11NO/c1-2-7-4-3-6(9)8(7)5-7/h2-5H2,1H3/t7-,8?/m1/s1
