14
gdb 133346	3.2584	1.36948	0.96429	2.2021	71.1	-0.1989	-0.0306	0.1682	1103.7842	0.102282	-474.174902	-474.167162	-474.166218	-474.207115	29.591	
N	 0.0692993166	 1.3369135262	-0.1061028186	-0.583172
C	-0.0360651293	-0.0036861972	-0.0386508373	 0.414343
C	-1.1908696375	-0.7382995134	-0.0163563735	-0.398496
C	-1.0785497451	-2.1486274071	 0.0806951381	 0.364538
F	-2.2115377035	-2.8470952216	 0.1042305999	-0.07381
N	 0.0089893734	-2.8324475698	 0.1496629836	-0.293507
N	 1.1454069195	-2.0735016711	 0.1208994127	-0.327709
C	 1.2606010649	-0.7071672881	 0.0271350282	 0.36523
N	 2.3449388097	-0.0103899105	-0.0100614604	-0.589288
H	 1.0088097868	 1.700797134	-0.1848468025	 0.283664
H	-0.7280265493	 1.9258339778	-0.2619845151	 0.26277
H	-2.1721155858	-0.2832197479	-0.0656304849	 0.106668
H	 1.9884282508	-2.6238154872	 0.169567081	 0.264878
H	 3.185077139	-0.584777494	 0.0367590786	 0.203893
103.7445	156.0834	204.8948	331.3322	367.9023	379.2084	436.0052	470.821	529.8036	556.669	585.1391	595.3739	673.0582	741.2799	757.3659	784.4676	806.0379	836.003	984.2254	1082.9269	1113.9172	1220.7455	1243.4487	1332.4595	1428.5125	1467.1789	1479.5232	1581.7859	1646.5546	1665.4603	1702.8225	3206.6833	3491.4908	3565.336	3633.5167	3734.7839
NC1=CC(F)=NNC1=N	NC1=C(NN=C(C1)F)[NH]	
InChI=1S/C4H5FN4/c5-3-1-2(6)4(7)9-8-3/h1H,(H2,6,8)(H2,7,9)	InChI=1S/C4H6FN4/c5-3-1-2(6)4(7)9-8-3/h7,9H,1,6H2
