18
gdb 10633	2.54092	1.75954	1.25158	3.1218	73.44	-0.2667	0.0189	0.2856	1039.5861	0.153084	-343.985388	-343.976451	-343.975507	-344.018851	32.135	
C	 0.2901473962	 1.537635533	 0.2040125259	-0.389936
C	-0.2149074573	 0.1296484021	-0.1280510106	-0.248927
C	 0.5401616179	-0.5005609724	-1.289033015	 0.1655
N	 1.8931106332	-1.0276621332	-0.9934535224	-0.355743
C	 0.8489567939	-1.9706574535	-1.4029722947	-0.037653
C	 0.3961028945	-3.0050629425	-0.4021001068	-0.406089
C	 0.3753078675	 0.1874196045	-2.5543265586	 0.24795
N	 0.249700444	 0.7484227589	-3.5588282527	-0.347749
H	 1.3525601449	 1.5108882399	 0.4636908805	 0.133387
H	 0.1632272883	 2.2168813028	-0.6447764098	 0.138187
H	-0.2590316839	 1.9540840307	 1.0530195596	 0.11859
H	-0.1007372205	-0.517716811	 0.7443218923	 0.114703
H	-1.2826913777	 0.1548150216	-0.3750662759	 0.114404
H	 2.5348901843	-0.8299590085	-1.7568351688	 0.249582
H	 0.8984805376	-2.3352556024	-2.4278853668	 0.107147
H	 0.4210132396	-2.6187912694	 0.6180642061	 0.135614
H	-0.6191748473	-3.3464167256	-0.6279540383	 0.129195
H	 1.0611350348	-3.8738807449	-0.4445108441	 0.131838
77.8137	141.9479	148.2293	170.1368	202.271	225.9812	292.7717	373.3312	403.983	496.3724	574.8038	596.6975	661.4361	773.8863	806.9538	869.8487	938.4051	993.5152	1009.8725	1042.3728	1085.7677	1107.8881	1110.8872	1145.7688	1240.2725	1256.7356	1316.8079	1324.3722	1373.6269	1408.0454	1411.9327	1452.744	1473.4899	1488.4361	1497.6097	1500.1743	1508.7681	2342.2763	3042.2973	3043.1975	3046.6404	3099.7004	3105.1206	3117.0193	3118.7226	3122.063	3143.7292	3511.3566
CCC1(NC1C)C#N	CC[C@]1(N[C@H]1C)C#N	
InChI=1S/C6H10N2/c1-3-6(4-7)5(2)8-6/h5,8H,3H2,1-2H3	InChI=1S/C6H10N2/c1-3-6(4-7)5(2)8-6/h5,8H,3H2,1-2H3/t5-,6-/m0/s1
