18
gdb 45752	3.07713	1.33625	1.01332	3.1223	79.64	-0.2038	-0.0014	0.2024	1185.4991	0.148278	-401.975707	-401.967684	-401.966739	-402.008864	30.611	
O	 0.0769584184	 0.0208254642	-0.2238555848	-0.385219
C	-0.0062062902	 1.2212165759	-0.0811440816	 0.405927
C	-1.2631696443	 2.1020390576	-0.0786621046	-0.394619
C	-0.7214257671	 3.4884370559	 0.1407484859	-0.163006
C	 0.6087311235	 3.4073112294	 0.2441788833	-0.012111
N	 1.0648375121	 2.0846934549	 0.1181193337	-0.091004
C	 2.4170833333	 1.6180278842	 0.1755280472	 0.066383
C	 3.5567962826	 2.4187436759	-0.3932100623	-0.289801
C	 3.4285403686	 2.2314353555	 1.1051864091	-0.289778
H	-1.7968823082	 1.9789299519	-1.0282166854	 0.146296
H	-1.9454096774	 1.7620432626	 0.7091233961	 0.146289
H	-1.3084746293	 4.3912076777	 0.2033081657	 0.108745
H	 1.3246415602	 4.200764261	 0.4043596376	 0.129456
H	 2.4271027221	 0.5432592088	 0.0420419061	 0.134509
H	 4.3386146288	 1.8871969641	-0.9240136326	 0.125075
H	 3.335469085	 3.4009339781	-0.7971438438	 0.118892
H	 3.1221984703	 3.0895253927	 1.6939846528	 0.118892
H	 4.1214603514	 1.5700629696	 1.6131054874	 0.125076
54.1266	115.4276	180.2505	181.2686	322.1106	406.4163	443.2963	530.4298	589.3078	592.7989	688.5697	710.7167	774.9603	811.5356	855.3001	884.6046	904.1511	940.0866	950.2794	977.31	1011.2594	1057.4919	1070.7851	1079.9558	1143.9893	1146.809	1152.8753	1196.3002	1210.3442	1241.3779	1272.1244	1320.4587	1424.2057	1428.235	1437.5634	1465.0966	1506.574	1667.8001	1811.3999	3045.5071	3076.8603	3134.1879	3137.3967	3197.9913	3213.5034	3227.9866	3233.6512	3261.9609
O=C1CC=CN1C1CC1	O=C1CC=CN1C1CC1	
InChI=1S/C7H9NO/c9-7-2-1-5-8(7)6-3-4-6/h1,5-6H,2-4H2	InChI=1S/C7H9NO/c9-7-2-1-5-8(7)6-3-4-6/h1,5-6H,2-4H2
