19
gdb 77409	2.57129	1.60759	1.34759	2.0411	75.46	-0.2302	0.0605	0.2907	1033.7195	0.158288	-422.974263	-422.965681	-422.964737	-423.006711	33.867	
C	 0.0297913587	 1.5670754599	 0.0487202747	-0.490109
C	 0.0605501758	 0.0674572423	-0.0107072509	 0.221525
C	 0.6380973341	-0.7672706207	-1.130664598	-0.098856
C	 2.1269456979	-0.9261849439	-0.9887390036	-0.29837
C	 1.2342055516	-1.7733799788	-0.1195843804	-0.145424
C	 0.6228977068	-0.96709063	 0.9845287285	 0.291785
O	 1.1904928582	-0.659788571	 2.2227216501	-0.473549
C	-0.87198535	-0.8077481365	 0.8247643496	 0.011612
O	-1.5166653198	-0.2059746253	 1.9042132695	-0.447074
H	 1.0304290224	 2.0007597305	-0.0501745548	 0.116818
H	-0.5899483362	 1.9687559586	-0.7615714469	 0.119387
H	-0.4043659493	 1.904828692	 0.9930158159	 0.127909
H	 0.1177508891	-1.0273093437	-2.045964719	 0.088498
H	 2.6167246594	-1.4582094541	-1.7987686804	 0.110948
H	 2.72369021	-0.1337489562	-0.5466167561	 0.116765
H	 1.2135103782	-2.8552543173	-0.1938814272	 0.086344
H	 1.2475606937	-1.474575113	 2.7367804555	 0.290517
H	-1.4863842462	-1.574229531	 0.3542033947	 0.087225
H	-0.8422098543	-0.0795943019	 2.5869652288	 0.284049
161.3508	165.5661	211.8658	224.663	265.2727	272.387	279.5896	439.6606	483.7039	505.7706	522.9669	582.6479	664.8359	710.7306	745.7439	804.0649	852.8832	868.7249	906.5206	970.6294	1018.6249	1045.9617	1055.5813	1074.6622	1092.1322	1095.2223	1119.9359	1169.2073	1174.6193	1227.7627	1238.4531	1271.5869	1316.5094	1327.4468	1350.0828	1402.2971	1417.2502	1455.867	1485.7029	1489.4448	1496.9648	3029.5533	3085.8852	3108.7591	3119.8657	3120.6328	3164.6989	3174.7871	3205.9892	3728.6933	3776.5116
CC12C3CC3C1(O)C2O	C[C@@]12[C@H]3C[C@H]3[C@]1(O)[C@H]2O	
InChI=1S/C7H10O2/c1-6-3-2-4(3)7(6,9)5(6)8/h3-5,8-9H,2H2,1H3	InChI=1S/C7H10O2/c1-6-3-2-4(3)7(6,9)5(6)8/h3-5,8-9H,2H2,1H3/t3-,4+,5-,6-,7-/m0/s1
