19
gdb 53603	3.59281	0.8139	0.69838	2.4261	85.3	-0.2309	-0.0178	0.2131	1649.0106	0.156711	-385.878119	-385.868076	-385.867132	-385.915511	34.66	
C	-0.185463197	 1.5519036086	-0.0053111937	-0.497227
C	-0.0780291365	 0.1024048079	-0.0865541114	 0.083408
C	 0.0157423122	-1.0964271808	-0.1389370692	 0.065382
C	 0.1027936583	-2.5501214977	-0.2112350868	-0.378785
C	-1.2256089218	-3.2559907195	 0.0977783226	-0.075244
C	-1.2893793449	-4.8162894025	 0.0592793158	-0.262076
C	-2.0651836819	-4.8303995171	 1.4105301469	-0.334886
C	-1.6891490136	-3.3461510986	 1.5667368197	 0.392132
O	-1.646290305	-2.5950503897	 2.496155595	-0.286517
H	 0.7991391271	 2.0173231808	 0.1152755931	 0.146487
H	-0.6407770651	 1.9720179509	-0.9091112759	 0.143501
H	-0.8012287769	 1.8553561323	 0.8485387053	 0.152101
H	 0.4309132426	-2.8535733293	-1.2146641073	 0.128659
H	 0.8718598739	-2.9149191409	 0.4827632616	 0.127426
H	-2.0265309439	-2.8162642533	-0.5081494382	 0.111225
H	-1.7989373019	-5.2552412147	-0.7991142311	 0.11005
H	-0.2974372959	-5.2670365165	 0.149806528	 0.113122
H	-3.1455254069	-4.9601335821	 1.2883919251	 0.132244
H	-1.7221480628	-5.5007111379	 2.2021544906	 0.128997
23.4214	41.6463	60.3643	106.7976	170.6811	222.0363	270.7333	313.4485	380.2678	423.2889	471.7813	541.8522	687.1177	725.3883	754.3157	773.6619	879.2904	929.6397	935.2872	1020.5381	1050.6749	1052.4472	1056.0567	1083.1218	1117.6154	1168.4828	1191.1171	1196.3806	1229.8359	1252.6722	1263.8118	1321.589	1354.5723	1414.9225	1442.2213	1471.0778	1478.6127	1479.4414	1492.686	1891.492	2376.7106	3008.8027	3026.2209	3034.8148	3051.2561	3059.0104	3070.1129	3085.5162	3087.9897	3114.4243	3132.8916
CC#CCC1CCC1=O	CC#CC[C@H]1CCC1=O	
InChI=1S/C8H10O/c1-2-3-4-7-5-6-8(7)9/h7H,4-6H2,1H3	InChI=1S/C8H10O/c1-2-3-4-7-5-6-8(7)9/h7H,4-6H2,1H3/t7-/m0/s1
