21
gdb 115360	2.88336	1.08784	1.00132	1.7987	80.92	-0.2459	0.0086	0.2545	1309.0228	0.182913	-424.229757	-424.22063	-424.219686	-424.263714	34.678	
C	 0.0869652951	 1.5433703532	-0.0079600958	-0.397023
C	 0.0452477142	 0.0176702232	 0.041869194	 0.100167
O	 0.619915841	-0.4508458017	-1.1705181184	-0.265261
C	 0.9031101439	-1.8412389068	-1.1569471661	-0.105441
C	 2.0013650978	-2.1710578096	-0.1387541811	-0.050726
C	 3.3843430274	-1.7239608586	-0.6556693769	-0.069521
O	 4.42573234	-1.9177999399	 0.2868765093	-0.425063
C	 1.6486863481	-1.5169175567	 1.1753805049	-0.115839
C	 0.7489951399	-0.5380187296	 1.2541322174	-0.064117
H	 1.1226189657	 1.8946977357	-0.0243847594	 0.124358
H	-0.4167409785	 1.9006808514	-0.9098567763	 0.126854
H	-0.4147166081	 1.9706466116	 0.8654283946	 0.113794
H	-1.0151617538	-0.2994253595	 0.0823931892	 0.07506
H	-0.0071333929	-2.4168941297	-0.9255411494	 0.090705
H	 1.212810444	-2.0954794858	-2.1760643797	 0.103943
H	 2.0379939945	-3.2589386968	 0.0079583539	 0.081171
H	 3.6576418317	-2.3243732722	-1.5305126175	 0.105704
H	 3.3167764837	-0.6747628789	-0.9768614495	 0.101086
H	 4.2946896168	-1.28103932	 0.9964973842	 0.283126
H	 2.1392183854	-1.8855318646	 2.0725226363	 0.095464
H	 0.4722077745	-0.1033474349	 2.2117483464	 0.091559
61.3582	115.2106	179.6531	204.536	240.8097	299.0755	339.3396	345.541	357.2773	469.3849	486.5136	569.6747	622.3207	742.9269	798.5913	823.8208	828.6575	899.2163	954.7025	975.7576	1005.7311	1048.7204	1058.5571	1078.7233	1104.13	1119.2611	1126.5251	1164.8806	1200.091	1214.1093	1290.1237	1306.1946	1334.1358	1348.6147	1363.4135	1389.1291	1394.3372	1403.3883	1409.1809	1433.2496	1484.268	1495.6278	1500.5345	1506.8814	1715.3723	2909.485	2978.4638	3003.6816	3021.6086	3043.8451	3069.002	3073.8727	3119.5554	3125.8815	3146.5458	3169.5519	3818.6265
CC1OCC(CO)C=C1	C[C@H]1OC[C@@H](CO)C=C1	
InChI=1S/C7H12O2/c1-6-2-3-7(4-8)5-9-6/h2-3,6-8H,4-5H2,1H3	InChI=1S/C7H12O2/c1-6-2-3-7(4-8)5-9-6/h2-3,6-8H,4-5H2,1H3/t6-,7-/m1/s1
