18
gdb 71746	2.86199	2.24266	1.69679	1.2974	72.95	-0.2256	0.0662	0.2918	842.3181	0.150952	-401.916225	-401.909995	-401.909051	-401.946252	27.249	
O	-0.0859493872	 1.3640541818	 0.1133279782	-0.499954
C	 0.0244624854	-0.0267218306	 0.0707711885	 0.420247
C	 0.9383213504	-0.7453044956	 1.0564664884	-0.321123
C	 0.6084991471	-2.1447776139	 0.5996590802	-0.039601
C	-0.8057947269	-2.1835045421	 0.1311383991	-0.044605
C	-1.3606317078	-0.764125841	 0.008707701	-0.099789
C	-1.3271610869	-0.5388289513	-1.5339057252	-0.231128
C	 0.1900569615	-0.7388393188	-1.3187424211	-0.068861
N	 0.3082156619	-2.1613662576	-0.8679012887	-0.135149
H	 0.766292448	 1.7422704374	-0.1287725265	 0.282423
H	 1.9947533295	-0.4849666504	 0.9188460969	 0.095094
H	 0.6596645556	-0.5590565049	 2.0985089648	 0.111628
H	 1.119233652	-3.0204800563	 0.9835559923	 0.09216
H	-1.4370679675	-3.0641317226	 0.1705404541	 0.091428
H	-2.1975289569	-0.4643604114	 0.6380002335	 0.072704
H	-1.8462311331	-1.2552824986	-2.1742399918	 0.099273
H	-1.5747077505	 0.4883230946	-1.8056352144	 0.11227
H	 0.9463452152	-0.4568408187	-2.0526426694	 0.062985
266.3211	302.5023	339.6738	412.9203	447.1576	495.5496	605.3328	674.2229	689.9401	727.7535	782.0234	801.9641	862.7758	871.7693	899.7413	930.2971	953.1279	967.9846	1001.1757	1025.7133	1037.9148	1058.1859	1066.2031	1106.6668	1124.7583	1141.3813	1175.6428	1193.1604	1201.0434	1234.6253	1254.013	1259.3596	1268.2137	1296.5025	1329.8091	1368.6224	1388.2366	1483.9953	1486.222	3035.7544	3073.987	3089.2424	3105.3513	3128.3267	3142.6883	3168.4715	3181.961	3802.1796
OC12CC3C4C1CC2N34	O[C@@]12C[C@H]3[C@H]4[C@@H]1C[C@@H]2N34	
InChI=1S/C7H9NO/c9-7-2-4-6-3(7)1-5(7)8(4)6/h3-6,9H,1-2H2	InChI=1S/C7H9NO/c9-7-2-4-6-3(7)1-5(7)8(4)6/h3-6,9H,1-2H2/t3-,4-,5-,6+,7-,8?/m0/s1
