18
gdb 99820	2.07403	1.32798	1.16403	3.2618	72.79	-0.2667	-0.0449	0.2218	1196.2324	0.143262	-439.116171	-439.105555	-439.10461	-439.152343	37.175	
C	-0.0185468179	 1.5266403773	-0.1445109228	-0.429383
C	 0.0134830779	 0.0004345675	-0.0485545612	-0.190404
C	 0.7911528377	-0.5317492492	 1.1696922152	 0.110057
O	 2.1638687837	-0.171663911	 1.1495511419	-0.448037
C	 0.171088041	-0.0642696841	 2.431292052	 0.256564
N	-0.2919978578	 0.313837394	 3.4211397812	-0.334849
C	 0.7436130797	-2.0999958247	 1.2069803769	 0.375579
C	 1.8888474891	-2.7876662835	 1.9070124023	-0.478427
O	-0.1828084168	-2.6782257148	 0.7021134281	-0.283597
H	 0.9872847571	 1.9500865849	-0.246448843	 0.112438
H	-0.5847633198	 1.8368863128	-1.0265776109	 0.133702
H	-0.4937879854	 1.9762417617	 0.7330940099	 0.145281
H	-0.9977517586	-0.4107198158	-0.0041719217	 0.142049
H	 0.4926875347	-0.42957661	-0.9340587888	 0.1194
H	 2.232165592	 0.7851269068	 1.2411162014	 0.300542
H	 2.0277712123	-2.3718371119	 2.9099700843	 0.158568
H	 1.6852905776	-3.8571713982	 1.9610984568	 0.14532
H	 2.8195698135	-2.6042392619	 1.3626309184	 0.165197
33.0375	87.9767	130.8657	151.5682	160.5778	203.3082	245.2201	266.1768	304.7686	345.3013	372.9145	425.2163	477.6226	575.6464	597.8247	615.6206	679.7487	783.8489	889.7217	937.7276	982.0107	1000.4631	1049.6518	1091.3484	1156.0231	1174.4135	1188.9235	1300.3415	1332.4514	1371.5972	1384.472	1415.4716	1456.196	1466.1131	1470.7316	1502.1808	1508.785	1832.9405	2341.5758	3034.2117	3052.6175	3060.5668	3093.605	3118.1483	3118.5426	3122.3303	3163.3426	3811.2024
CCC(O)(C#N)C(C)=O	CC[C@@](O)(C#N)C(=O)C	
InChI=1S/C6H9NO2/c1-3-6(9,4-7)5(2)8/h9H,3H2,1-2H3	InChI=1S/C6H9NO2/c1-3-6(9,4-7)5(2)8/h9H,3H2,1-2H3/t6-/m1/s1
