16
gdb 96663	3.49381	0.92709	0.73689	1.7992	73.9	-0.2329	-0.0923	0.1405	1473.7926	0.12288	-471.251897	-471.24232	-471.241375	-471.286805	33.505	
C	 0.7819842514	 1.6827065603	 0.1418367957	-0.336974
N	 0.7210081751	 0.2746379363	 0.4773232324	-0.321124
C	 0.3404317254	-0.528385467	-0.4376129967	 0.474558
N	-0.007503333	-0.262621465	-1.7315960378	-0.570332
N	 0.3175543507	-1.8952461927	-0.0821571174	-0.374423
C	-0.1398777942	-2.9541829037	-0.7876788661	 0.324528
O	-0.6217137604	-2.9540685369	-1.9121683107	-0.37476
C	-0.0084056291	-4.2743096739	-0.0214414357	 0.113469
O	 0.4423893619	-4.3541602325	 1.0904508154	-0.238654
H	 1.4578826703	 1.887052797	-0.7038652739	 0.114796
H	-0.2051925442	 2.1009116582	-0.1186193528	 0.106114
H	 1.1509525097	 2.2434346228	 1.0038476198	 0.12905
H	-0.2402141019	 0.6882233496	-1.9592086886	 0.261788
H	-0.4464204518	-1.0061829857	-2.2594658194	 0.283702
H	 0.6595382679	-2.084724268	 0.8526369701	 0.283435
H	-0.3766961279	-5.1406746388	-0.6039536242	 0.124828
79.2561	92.0665	133.3772	143.1834	176.8873	244.8717	254.9924	319.8489	377.7541	398.1081	523.4635	557.3129	577.4077	621.5457	717.5374	734.7193	759.1378	937.6628	964.6984	1026.5228	1062.9021	1112.8773	1135.9752	1198.8334	1241.7738	1362.1728	1399.7575	1438.889	1491.8777	1504.7087	1530.6818	1625.6082	1745.7143	1769.9877	1828.3941	2955.495	2966.743	3001.3794	3103.1822	3533.5051	3579.8134	3707.3295
CN=C(N)NC(=O)C=O	CN=C(N)NC(=O)C=O	
InChI=1S/C4H7N3O2/c1-6-4(5)7-3(9)2-8/h2H,1H3,(H3,5,6,7,9)	InChI=1S/C4H7N3O2/c1-6-4(5)7-3(9)2-8/h2H,1H3,(H3,5,6,7,9)
