20
gdb 61886	2.0391	1.15668	0.81693	5.2267	77.84	-0.249	0.0214	0.2704	1445.3154	0.168927	-440.277113	-440.267374	-440.26643	-440.312627	34.681	
C	-0.1588023829	 1.7403343861	 0.1087688824	-0.399421
C	-0.0764910743	 0.2221249487	 0.0387359898	 0.100768
C	-1.4257887095	-0.4327609158	-0.2651335302	-0.133613
N	-1.3201853433	-1.8815570656	-0.1862821325	-0.065454
C	-1.7102723433	-2.5059609917	 1.0758954118	-0.227367
C	-2.5690398043	-2.6287649321	-0.1345285115	-0.219194
O	 0.8526586601	-0.1044140702	-1.0086264976	-0.191363
C	 1.5916000189	-1.2243736306	-0.8782317636	 0.18578
O	 2.317229999	-1.6169397211	-1.7422146198	-0.286393
H	 0.8316806881	 2.1662062114	 0.2856140865	 0.133522
H	-0.5430153517	 2.1486447507	-0.8307591894	 0.135275
H	-0.8223313604	 2.0514952262	 0.9207743912	 0.120399
H	 0.3068719027	-0.1759552596	 0.9890432635	 0.08928
H	-2.1884140734	-0.0255932639	 0.4229325786	 0.083026
H	-1.7186639358	-0.1613585836	-1.2858576427	 0.122021
H	-1.0958704535	-3.3394993013	 1.4032251247	 0.124544
H	-2.0684258852	-1.8594678792	 1.876076893	 0.110854
H	-3.5003085672	-2.0644860141	-0.140619599	 0.112954
H	-2.5914843724	-3.5520914523	-0.7056895697	 0.127094
H	 1.4720883984	-1.7077472621	 0.1077973447	 0.077288
60.4393	73.8247	106.5918	161.2274	190.6911	209.8662	268.629	311.6792	333.5563	412.9327	494.0352	511.3302	617.0799	771.7056	835.3802	892.6373	905.5717	944.4709	955.3524	1030.1155	1035.601	1039.9052	1098.3532	1115.2125	1120.832	1139.4168	1155.0333	1178.5429	1189.5419	1209.4876	1286.7274	1325.1513	1328.0848	1377.2624	1404.7629	1413.9211	1443.6945	1475.3285	1487.2655	1493.2839	1500.0079	1521.619	1862.2597	2943.5151	2977.6184	3009.5901	3047.3512	3066.21	3093.297	3099.6149	3120.7025	3129.513	3180.3008	3194.4296
CC(CN1CC1)OC=O	C[C@@H](CN1CC1)OC=O	
InChI=1S/C6H11NO2/c1-6(9-5-8)4-7-2-3-7/h5-6H,2-4H2,1H3	InChI=1S/C6H11NO2/c1-6(9-5-8)4-7-2-3-7/h5-6H,2-4H2,1H3/t6-/m0/s1
