20
gdb 96961	3.67296	1.2771	1.12598	2.9458	81.53	-0.2369	0.0267	0.2636	1159.9936	0.172344	-403.152432	-403.144258	-403.143313	-403.186165	31.202	
C	-0.3004291051	 1.4421868697	-0.1986541685	-0.314729
N	-0.2276159284	-0.0110859163	-0.1457981449	-0.316714
C	 0.6440990207	-0.5924662916	-0.8492243655	 0.408868
C	 0.7806608779	-2.1115747393	-0.8457319379	-0.302228
C	 1.9051285662	-2.5742501225	-1.7742354799	-0.030362
C	 3.1602667201	-1.6925279147	-1.5047076555	-0.243012
C	 2.4621049548	-0.6483079003	-2.4066688489	 0.124883
C	 1.7639021125	-1.8227239876	-3.1309595497	-0.242959
O	 1.508932257	 0.1110983073	-1.6491558922	-0.269477
H	 0.6416643754	 1.9128873658	 0.1121179746	 0.11617
H	-0.517755959	 1.8055447166	-1.2118165197	 0.116242
H	-1.0950003598	 1.7847628973	 0.4688055856	 0.111844
H	 0.9609489765	-2.4364685252	 0.1843866964	 0.129582
H	-0.1805579251	-2.5422102362	-1.1454744902	 0.129562
H	 2.0130259379	-3.6604521816	-1.7799429497	 0.070649
H	 3.3823436064	-1.3964740952	-0.4760667645	 0.107437
H	 4.0586609954	-2.0929360275	-1.9802678626	 0.106335
H	 3.0445783824	 0.0843543191	-2.9654656628	 0.08418
H	 2.4024943229	-2.2473844301	-3.909074994	 0.106323
H	 0.7617681511	-1.6407919777	-3.5280650802	 0.107407
30.613	78.4618	209.9876	222.7965	307.6117	376.0429	436.0899	485.8395	492.9388	610.3104	631.733	761.2111	813.3679	855.1502	865.2641	909.1323	922.2368	929.8974	990.9087	1028.5747	1032.0642	1079.4464	1084.4667	1096.5582	1107.9845	1137.5553	1153.5399	1190.8316	1211.4527	1217.001	1247.5023	1267.832	1298.3516	1325.5071	1363.5443	1387.5823	1436.7417	1469.6385	1469.9861	1484.1204	1497.5873	1498.9867	1771.6107	3003.4868	3047.677	3053.7671	3058.832	3063.1307	3084.632	3091.1605	3102.9286	3112.1132	3120.542	3123.9749
CN=C1CC2CC(C2)O1	CN=C1C[C@@H]2C[C@@H](C2)O1	
InChI=1S/C7H11NO/c1-8-7-4-5-2-6(3-5)9-7/h5-6H,2-4H2,1H3	InChI=1S/C7H11NO/c1-8-7-4-5-2-6(3-5)9-7/h5-6H,2-4H2,1H3/t5-,6+
