15
gdb 20402	4.69753	2.00713	1.4569	3.4809	66.13	-0.2506	-0.0088	0.2417	824.3653	0.122099	-362.667766	-362.661806	-362.660862	-362.697805	23.389	
C	 0.0110604512	 1.5122281002	-0.0450665308	-0.205708
C	 1.5137804613	 1.9494532861	-0.0285358036	-0.356476
C	 2.1667469614	 0.7835466751	 0.6528431948	 0.170042
C	 3.2791237154	 0.3304275046	 1.2753867813	-0.091331
O	 3.1021539622	-0.9578386401	 1.6480342892	-0.175678
N	 1.8222015197	-1.3876326587	 1.2595587998	-0.249516
C	 1.3012623918	-0.3427439995	 0.6784571569	 0.376827
C	-0.0128197409	-0.0474395451	 0.0156620994	-0.337204
H	-0.4801091292	 1.9076312153	 0.8496170951	 0.117725
H	-0.527024713	 1.9046374872	-0.911073083	 0.106527
H	 1.89673009	 2.0734093574	-1.0492607612	 0.120207
H	 1.6545743528	 2.9060075589	 0.4821302912	 0.118466
H	 4.2357255287	 0.7551904196	 1.5374656779	 0.148037
H	-0.8768216201	-0.4377653319	 0.5583737575	 0.130055
H	-0.0356991513	-0.4852509392	-0.9895613445	 0.128028
145.5397	243.0316	285.3132	443.1555	566.5157	596.8174	658.0498	704.979	718.3327	828.4803	843.6599	880.185	891.4186	905.2498	962.0655	991.547	1059.7434	1112.0962	1128.5461	1154.9186	1208.7609	1228.6951	1278.1667	1307.8687	1313.4963	1339.1059	1421.1328	1479.7261	1487.5545	1502.1097	1553.6144	1670.4507	3028.7601	3039.8091	3055.5184	3085.4739	3100.7469	3112.4949	3262.3475
C1CC2=CON=C2C1	C1Cc2conc2C1	
InChI=1S/C6H7NO/c1-2-5-4-8-7-6(5)3-1/h4H,1-3H2	InChI=1S/C6H7NO/c1-2-5-4-8-7-6(5)3-1/h4H,1-3H2
