17
gdb 15703	3.04222	1.78314	1.25357	3.6728	63.96	-0.2317	-0.0265	0.2052	964.4798	0.143562	-401.012578	-401.004875	-401.003931	-401.045107	28.509	
O	 0.006379641	 1.3857763199	-0.2463453672	-0.421893
C	 0.0382773155	-0.015472858	-0.1259030332	-0.036521
C	-1.3697200659	-0.5523915555	 0.2051531425	-0.139196
N	-2.3272223741	-0.0700427433	-0.8048911393	-0.312884
C	-2.5051568863	-1.1667607232	-1.7866495111	-0.185835
C	-2.3371186834	-2.4796738258	-1.0045351194	-0.325525
C	-1.4086588999	-2.0871127275	 0.1493660907	 0.400743
O	-0.7983800181	-2.8302750055	 0.8727714869	-0.313425
H	-0.7793569836	 1.5668046889	-0.783210144	 0.282645
H	 0.409228281	-0.4926854643	-1.0494701518	 0.08101
H	 0.7290457618	-0.2790268177	 0.6795691414	 0.127091
H	-1.6431535514	-0.1941154518	 1.2019182296	 0.10778
H	-3.2172022357	 0.1295446708	-0.363141953	 0.230311
H	-3.4727669151	-1.0700063237	-2.2825917514	 0.115652
H	-1.7337325518	-1.0824941834	-2.5603650829	 0.122857
H	-3.2904315083	-2.8060957104	-0.5690078009	 0.132203
H	-1.9296229259	-3.3192266896	-1.571877747	 0.134988
66.1919	123.574	169.2383	192.0172	324.1933	412.3528	519.0293	528.2628	552.4597	630.3609	645.7624	812.0824	825.0263	828.3009	870.5905	952.4905	992.3072	1015.1901	1054.1796	1088.2678	1109.591	1144.9713	1186.5082	1221.7263	1226.8761	1254.5854	1285.5375	1342.3391	1368.4754	1383.2464	1435.8992	1445.2779	1457.2474	1503.7779	1514.4179	1845.5349	2953.0346	3035.2424	3045.9452	3073.0129	3097.0809	3109.8149	3116.9253	3537.2232	3720.2718
OCC1NCCC1=O	OC[C@H]1NCCC1=O	
InChI=1S/C5H9NO2/c7-3-4-5(8)1-2-6-4/h4,6-7H,1-3H2	InChI=1S/C5H9NO2/c7-3-4-5(8)1-2-6-4/h4,6-7H,1-3H2/t4-/m1/s1
