18
gdb 64612	2.81506	1.48349	1.36253	1.6517	82.94	-0.2282	0.0014	0.2296	1038.2214	0.146682	-364.752126	-364.743936	-364.742991	-364.784307	32.62	
C	-0.1574415933	 1.6319292983	 0.0127320225	-0.419076
C	 0.0043902331	 0.1002851424	-0.0064822461	 0.026493
C	 0.6975441087	-0.4365013333	-1.2599540832	-0.119401
C	 1.7284321797	-1.2138926538	-0.9351819042	-0.084744
C	 1.91170361	-1.2374485047	 0.5429445326	-0.066577
C	 2.2462196905	 0.087862869	 1.1419435484	-0.2452
N	 0.8560944626	-0.3837617146	 1.1287791236	-0.10981
C	-1.3223367781	-0.5215380244	 0.1209269314	 0.364957
C	-2.4139699172	-1.0200971606	 0.1857354219	-0.469944
H	 0.8043101078	 2.1302947408	-0.1291025843	 0.11684
H	-0.8314806648	 1.9469501071	-0.7878103151	 0.128554
H	-0.5855709918	 1.9470835374	 0.9673057994	 0.139194
H	 0.3541980979	-0.1907122825	-2.257265306	 0.107408
H	 2.3740294455	-1.7432706162	-1.6251506829	 0.107153
H	 2.1575357144	-2.1638333449	 1.0546417203	 0.098972
H	 2.6744875834	 0.1516437666	 2.138831241	 0.116629
H	 2.5618922059	 0.8663671481	 0.4530343802	 0.11548
H	-3.3739109146	-1.4686152245	 0.2563992806	 0.193072
123.4968	149.3193	207.4641	240.1619	276.9279	385.5007	427.7419	470.6849	501.4479	573.736	613.3322	625.6075	651.2828	706.9601	774.8077	779.0354	817.0893	868.9745	914.8555	932.8247	952.5153	986.6749	1046.4724	1062.8463	1100.1151	1108.2735	1132.4913	1165.2901	1170.796	1208.8909	1253.7528	1327.7931	1367.22	1401.9343	1486.1357	1488.45	1496.8484	1668.0037	2232.9179	3051.9879	3104.69	3128.8435	3134.6222	3146.9346	3194.3246	3199.8103	3223.8008	3502.0659
CC1(C=CC2CN12)C#C	C[C@]1(C=C[C@H]2CN12)C#C	
InChI=1S/C8H9N/c1-3-8(2)5-4-7-6-9(7)8/h1,4-5,7H,6H2,2H3	InChI=1S/C8H9N/c1-3-8(2)5-4-7-6-9(7)8/h1,4-5,7H,6H2,2H3/t7-,8+,9?/m0/s1
