21
gdb 53205	2.58091	1.07354	0.87687	0.2424	92.53	-0.235	0.0225	0.2575	1438.4541	0.181855	-349.949125	-349.939256	-349.938311	-349.985791	35.594	
C	 0.0656443999	 1.4293544377	 0.5410009052	-0.496909
C	 0.0243814247	-0.0045174706	 0.2887596692	-0.001515
C	-0.0083263464	-1.190410441	 0.0765544426	 0.138197
C	-0.0232514894	-2.6339759514	-0.1696245153	-0.230734
C	 0.8780706632	-3.364489019	 0.8186302724	-0.065134
C	 0.1778352496	-4.04114203	 1.7251141685	-0.061082
C	-1.3094383472	-3.9105541697	 1.5073343094	-0.257367
C	-1.4084215314	-3.3386108133	 0.0707469589	 0.032975
C	-2.6460887377	-2.4901063229	-0.2016285997	-0.409197
H	 0.8307488095	 1.9200751718	-0.0711325912	 0.145352
H	-0.8947211087	 1.9033932206	 0.3089372809	 0.14548
H	 0.2947135274	 1.644814898	 1.5907352762	 0.145504
H	 0.2986651421	-2.802595806	-1.2059054529	 0.09555
H	 1.9565524639	-3.26293935	 0.7882229782	 0.096507
H	 0.6048193822	-4.5978536849	 2.5523677347	 0.091508
H	-1.8478757238	-4.8599653071	 1.6074460708	 0.099719
H	-1.7502297638	-3.2250735015	 2.2462748092	 0.107398
H	-1.4150105603	-4.1970814475	-0.611680139	 0.078395
H	-2.6686139214	-1.6081806881	 0.4451638088	 0.126153
H	-2.6716101455	-2.1409610661	-1.2391529508	 0.112483
H	-3.5577084969	-3.0701231591	-0.0220130462	 0.106718
14.0869	63.139	90.4431	142.1032	233.8322	253.2582	268.6304	326.7073	391.9744	408.9669	462.1864	555.6528	607.9678	718.9403	765.0557	802.2982	848.0237	916.9269	928.1376	971.0123	977.381	998.2818	1047.9774	1053.3499	1053.8893	1119.4015	1126.5855	1134.6427	1180.9129	1193.4045	1254.0588	1299.324	1303.7102	1351.9362	1364.6176	1369.3054	1412.4958	1415.0425	1479.0366	1479.786	1486.0414	1495.1	1498.1108	1687.2943	2361.2661	3000.1162	3005.6175	3023.6847	3027.7262	3033.1185	3056.3167	3083.1868	3083.2285	3096.0755	3111.763	3181.8665	3210.212
CC#CC1C=CCC1C	CC#C[C@H]1C=CC[C@H]1C	
InChI=1S/C9H12/c1-3-5-9-7-4-6-8(9)2/h4,7-9H,6H2,1-2H3	InChI=1S/C9H12/c1-3-5-9-7-4-6-8(9)2/h4,7-9H,6H2,1-2H3/t8-,9+/m1/s1
