23
gdb 110058	2.26876	1.3228	1.14314	2.9072	80.84	-0.2445	0.056	0.3004	1243.2135	0.206462	-425.445309	-425.435639	-425.434695	-425.479888	37.036	
C	-0.0234530861	 1.5869510572	 0.0887674306	-0.391931
C	 0.0221174255	 0.0581825623	 0.1759599221	-0.180493
C	-1.3340774258	-0.6157617452	-0.0461046	-0.007504
C	-1.9993308037	-0.400030083	-1.416841012	 0.099557
O	-1.0202586234	-0.7327174718	-2.4174621679	-0.440168
C	-3.1694189591	-1.4016280883	-1.4090145773	-0.237961
C	-2.7071940647	-2.5801580218	-0.5050357155	-0.234688
C	-1.3321927079	-2.1605188607	 0.0791525453	 0.124676
O	-0.2450895664	-2.7592041472	-0.6105337087	-0.444859
H	 0.9551932248	 2.0205904338	 0.317153584	 0.111379
H	-0.3039593536	 1.9224175454	-0.9149551386	 0.118833
H	-0.7458859435	 2.0100870515	 0.7966581308	 0.106343
H	 0.741425023	-0.3340000234	-0.5471101896	 0.11476
H	 0.3927645779	-0.2409610847	 1.1643977611	 0.09259
H	-2.0473040733	-0.2318672095	 0.6985773207	 0.068175
H	-2.3379299781	 0.6324197659	-1.5704277588	 0.065292
H	-1.4571234551	-0.7337930722	-3.2748933642	 0.286807
H	-4.0585291458	-0.9150295221	-0.9944489441	 0.102193
H	-3.4313029991	-1.7146874009	-2.4255719841	 0.087715
H	-3.4329917514	-2.7607754002	 0.2934048633	 0.097292
H	-2.5906380157	-3.5176089375	-1.0532304854	 0.108577
H	-1.2224277399	-2.4779783331	 1.1205835612	 0.071572
H	-0.2434998987	-2.3692646143	-1.4960253628	 0.281843
59.7422	82.567	152.8068	181.1883	228.9079	283.8037	316.2567	328.8171	367.5229	407.9484	478.5395	529.9154	586.6736	721.9077	727.3203	770.545	819.1144	837.0632	865.1742	894.7431	944.2087	969.2259	994.3605	1015.0355	1040.9667	1066.8228	1079.8861	1137.8067	1155.6484	1185.7719	1193.5535	1236.6008	1255.3143	1277.0794	1288.4809	1301.0607	1327.5357	1338.1028	1350.5258	1375.4867	1397.6294	1409.3039	1418.6435	1472.2965	1477.0695	1485.8541	1496.547	1500.3333	1507.5957	2998.4571	3017.4142	3028.8771	3033.6085	3041.6507	3054.1988	3069.2033	3076.6572	3084.7998	3102.103	3109.9712	3112.461	3736.3783	3821.3004
CCC1C(O)CCC1O	CC[C@H]1[C@@H](O)CC[C@H]1O	
InChI=1S/C7H14O2/c1-2-5-6(8)3-4-7(5)9/h5-9H,2-4H2,1H3	InChI=1S/C7H14O2/c1-2-5-6(8)3-4-7(5)9/h5-9H,2-4H2,1H3/t5-,6-,7+
