18
gdb 32634	3.00874	1.27862	0.97492	2.1588	74.77	-0.1895	0.0379	0.2274	1221.7342	0.148766	-435.303498	-435.294215	-435.293271	-435.337888	33.784	
C	-0.017320802	 1.5512227	-0.033215846	-0.373798
C	 0.0622073724	 0.0234229935	-0.0052476508	-0.143319
N	 0.7140550355	-0.4919307279	 1.1879888079	-0.001651
C	 2.0047497257	-0.8771308123	 1.3128431465	-0.01123
N	 2.2992345244	-1.2633170338	 2.5446437906	-0.364708
C	 1.1408723762	-1.1123312018	 3.2402046918	 0.303333
O	 1.0468003102	-1.4194640734	 4.5570479811	-0.445096
C	 0.1240076085	-0.634525452	 2.4475121633	 0.11698
N	-1.2356280776	-0.3290132666	 2.6555886925	-0.621358
H	 0.9799777188	 1.9968849201	 0.0270314559	 0.125404
H	-0.4899023862	 1.8861402832	-0.9619007388	 0.118692
H	-0.6136285431	 1.9182096436	 0.805811006	 0.135254
H	-0.943207006	-0.4032288433	-0.0471069429	 0.132005
H	 0.6222422459	-0.3496717979	-0.8679929003	 0.115592
H	 2.6917432946	-0.8639736636	 0.4797016732	 0.122842
H	 1.9199118889	-1.7359738175	 4.8183928291	 0.297306
H	-1.3572609934	 0.4261154244	 3.3230274071	 0.246093
H	-1.748955383	-1.1280452447	 3.0133357839	 0.247658
50.6277	97.5403	143.864	208.4291	231.7736	273.7775	301.4008	320.5649	374.216	419.1316	536.568	593.7532	655.8171	728.9921	733.9972	767.3254	779.5571	783.4467	834.2345	964.908	1065.2047	1101.3828	1117.0142	1169.8877	1215.9407	1255.1048	1274.7767	1336.4704	1375.0342	1394.7947	1406.9716	1410.8254	1473.2874	1478.7333	1490.2549	1505.0434	1529.7614	1660.4953	1686.419	3042.9313	3059.2856	3102.1502	3116.6991	3132.1381	3244.2679	3496.4195	3555.858	3803.6768
CCN1C=NC(O)=C1N	CCn1cnc(O)c1N	
InChI=1S/C5H9N3O/c1-2-8-3-7-5(9)4(8)6/h3,9H,2,6H2,1H3	InChI=1S/C5H9N3O/c1-2-8-3-7-5(9)4(8)6/h3,9H,2,6H2,1H3
