12
gdb 24899	3.52957	1.33762	0.97001	2.5616	75.44	-0.2624	-0.0888	0.1736	1103.2518	0.077309	-435.50686	-435.499655	-435.498711	-435.538788	26.64	
O	-0.1165690105	-0.029030496	 0.0048298549	-0.321247
C	 0.0146048767	 1.1585267316	 0.0092149436	 0.412304
O	-1.1716458151	 1.9491245499	 0.0298248537	-0.233928
C	-1.1169194282	 3.2931801602	 0.0359348033	 0.260083
N	-0.0400938864	 4.0063644994	 0.0245340317	-0.319334
C	 1.1422924617	 3.3056231225	 0.0043994993	 0.005012
C	 1.2205154469	 1.9534887326	-0.003630317	-0.232309
C	-2.4050834107	 3.9005969406	 0.0570614223	 0.25358
C	-3.4961167558	 4.4042192958	 0.0749025296	-0.316374
H	 2.0390670233	 3.9178274445	-0.0050300326	 0.134658
H	 2.1624809954	 1.4217490907	-0.0195713202	 0.138876
H	-4.4586274672	 4.8550969983	 0.0906733914	 0.218679
122.0712	147.0308	150.1632	312.8487	426.2312	438.8945	493.4915	528.3963	579.5467	678.3415	678.6753	723.2977	744.0664	784.3001	843.6671	857.9627	975.0762	1017.9189	1055.8563	1129.6165	1273.1902	1300.2285	1431.7338	1569.2268	1642.0434	1877.0024	2244.1648	3181.8429	3231.1945	3496.5616
O=C1OC(=NC=C1)C#C	O=c1oc(ncc1)C#C	
InChI=1S/C6H3NO2/c1-2-5-7-4-3-6(8)9-5/h1,3-4H	InChI=1S/C6H3NO2/c1-2-5-7-4-3-6(8)9-5/h1,3-4H
