16
gdb 83682	2.39456	1.73657	1.3629	4.4321	67.81	-0.2686	0.0122	0.2808	972.5661	0.124656	-437.853867	-437.845923	-437.844979	-437.886968	29.237	
O	 0.4273536267	 1.144943428	 0.5134261377	-0.419746
C	 0.039912117	-0.134511164	 0.1211380552	 0.120697
C	-1.475131591	-0.4814569528	 0.0092930927	-0.112549
C	-2.3524214917	 0.6296773603	-0.5858830919	-0.095934
O	-2.0648273892	 0.1921760141	-1.9421510233	-0.271967
C	-1.2772339431	-0.9030322605	-1.4727315766	 0.109818
C	 0.2498698175	-0.5671569525	-1.3943241274	-0.260243
C	 0.7167214354	 0.4922278644	-2.2639968575	 0.304062
N	 1.0891167927	 1.3924727753	-2.8876487719	-0.332636
H	 0.349670078	 1.7518930927	-0.2332800143	 0.30441
H	 0.5533760076	-0.8342537275	 0.7852922832	 0.109364
H	-1.9018821223	-1.1101696887	 0.7882948964	 0.090043
H	-3.420787193	 0.5391908839	-0.3628475718	 0.117469
H	-2.0317066539	 1.6602521784	-0.3982968736	 0.115164
H	-1.552386927	-1.8594880906	-1.9214580873	 0.094414
H	 0.8941670262	-1.4447849306	-1.4897377895	 0.127634
48.5739	124.3952	160.9464	232.3198	283.6051	351.7968	389.0008	513.9968	552.8222	643.4544	688.5248	754.0673	804.2645	856.1662	889.5524	925.9262	989.2934	1015.498	1037.4867	1053.697	1080.2428	1130.915	1153.9318	1162.9881	1196.8433	1222.3746	1257.5202	1287.0202	1291.4109	1324.7499	1332.7792	1368.8938	1430.8849	1529.5247	2350.1999	3034.9621	3074.3004	3080.8369	3085.6956	3095.5324	3133.2721	3777.2206
OC1C2COC2C1C#N	O[C@H]1[C@H]2CO[C@H]2[C@H]1C#N	
InChI=1S/C6H7NO2/c7-1-3-5(8)4-2-9-6(3)4/h3-6,8H,2H2	InChI=1S/C6H7NO2/c7-1-3-5(8)4-2-9-6(3)4/h3-6,8H,2H2/t3-,4+,5+,6-/m0/s1
