21
gdb 86194	2.38718	1.38916	1.14573	3.7043	73.36	-0.2499	0.0523	0.3022	1159.8835	0.181978	-461.366987	-461.357237	-461.356293	-461.401085	37.144	
C	 0.6042772206	 1.6303066418	 0.1047779971	-0.405136
C	 0.1208678109	 0.1808706612	-0.0118003415	-0.050013
C	 0.6871010767	-0.5665474359	-1.2318929112	 0.130171
O	 0.6951765823	 0.2675261025	-2.3777418751	-0.434612
C	 2.0951710047	-1.0502645823	-0.7904512351	-0.273663
C	 2.0621847578	-1.127075594	 0.7542124755	 0.055474
O	 2.9257825422	-0.1663149903	 1.372827326	-0.434327
C	 0.610561215	-0.7283167701	 1.1432523564	 0.144779
O	 0.5156504696	-0.1913597795	 2.4377293478	-0.448237
H	 1.694710464	 1.6987888632	 0.1395214536	 0.123923
H	 0.2523459913	 2.2177270303	-0.7457750612	 0.124126
H	 0.2121207056	 2.0717379335	 1.0251444284	 0.115745
H	-0.9735491784	 0.1818583941	-0.0450489667	 0.070749
H	 0.0521687387	-1.4476119189	-1.4191849906	 0.063149
H	 1.0006959778	-0.2543440182	-3.1260543011	 0.281041
H	 2.3694995727	-2.0019720912	-1.2562980881	 0.089506
H	 2.8352756453	-0.3029205944	-1.0906827688	 0.115439
H	 2.3066016507	-2.126152442	 1.1339117268	 0.070377
H	 3.8153910014	-0.5271299025	 1.4088503051	 0.292696
H	 0.0029040165	-1.6431950962	 1.1330188165	 0.077797
H	 1.3637160446	 0.2426299388	 2.6015951065	 0.291014
75.2289	128.1038	175.5789	227.5632	246.6309	254.8241	264.4989	297.3769	354.1622	403.8662	434.0143	470.9173	515.9303	585.5039	602.0778	754.0399	770.9724	814.1987	857.87	955.4507	998.4722	1005.0717	1042.7774	1065.1848	1078.6966	1123.2608	1134.7803	1156.1897	1197.4864	1211.1403	1247.9713	1267.156	1272.6125	1299.5563	1336.639	1347.0163	1371.436	1388.6462	1406.4364	1421.9319	1441.2719	1452.4074	1480.3856	1499.0856	1509.8185	2959.4081	3009.363	3027.9305	3048.9824	3052.4696	3054.3709	3101.0896	3122.8274	3134.1946	3756.8986	3820.3348	3846.931
CC1C(O)CC(O)C1O	C[C@H]1[C@@H](O)C[C@@H](O)[C@H]1O	
InChI=1S/C6H12O3/c1-3-4(7)2-5(8)6(3)9/h3-9H,2H2,1H3	InChI=1S/C6H12O3/c1-3-4(7)2-5(8)6(3)9/h3-9H,2H2,1H3/t3-,4-,5+,6-/m0/s1
