21
gdb 39658	3.97382	0.99408	0.94704	2.1876	81.88	-0.2406	0.0831	0.3237	1325.2044	0.184101	-387.031623	-387.023443	-387.022499	-387.065679	30.96	
C	 0.2293744849	 1.6629320111	 0.130784559	-0.230193
C	 1.7531987208	 1.3497160133	-0.024490624	-0.230189
C	 1.4318604796	-0.1513229991	-0.0105205137	-0.078296
C	-0.0649357365	 0.1563457143	 0.1419927484	-0.078306
C	 0.4554754847	-0.5307952147	-1.0958949302	-0.011682
C	 0.4298962167	 0.0354410475	-2.4903003615	-0.047166
C	 1.2263452909	-0.7214956817	-3.5818171828	-0.084261
O	 0.0447860599	-0.9028912836	-4.3875275223	-0.272784
C	-0.7929702457	-0.3074425996	-3.3767114396	-0.084294
H	 0.0076575586	 2.1378536941	 1.088700816	 0.104331
H	-0.2476229211	 2.2515051554	-0.6597197479	 0.095946
H	 2.2592956779	 1.7361975554	-0.9151864001	 0.095943
H	 2.3236847252	 1.6618177927	 0.8526915092	 0.104331
H	 2.0250732768	-0.9047743744	 0.4946368853	 0.082805
H	-0.7952929515	-0.3250453223	 0.7820052023	 0.082805
H	 0.2377943343	-1.5988611556	-1.0777530463	 0.085281
H	 0.6490595472	 1.1041188995	-2.4897876492	 0.081148
H	 2.0012229591	-0.1522107087	-4.1093274327	 0.097919
H	 1.6524428485	-1.6800359011	-3.254051396	 0.094374
H	-1.4869456692	-1.0363142329	-2.9351943462	 0.09437
H	-1.370712051	 0.5392018505	-3.7668333177	 0.09792
47.1729	53.4959	153.9835	184.2459	283.7158	336.2135	474.5717	481.3404	737.6533	745.3999	786.1251	796.1625	813.2112	879.5326	891.4145	942.6499	949.4357	952.618	981.6999	1005.7371	1023.6205	1039.2048	1046.2656	1078.2595	1084.6108	1088.9144	1122.6408	1147.0351	1160.0424	1160.4087	1223.1417	1243.102	1246.0241	1253.7429	1264.0259	1305.6429	1306.9164	1315.8811	1357.4831	1380.8338	1465.8639	1484.6234	1506.0067	1511.9662	1538.2069	2994.6615	3005.9724	3044.7462	3046.1517	3046.9612	3052.2401	3095.8715	3096.2681	3111.7696	3115.068	3169.2865	3181.0855
C1CC2C1C2C1COC1	C1C[C@H]2[C@@H]1[C@H]2C1COC1	
InChI=1S/C8H12O/c1-2-7-6(1)8(7)5-3-9-4-5/h5-8H,1-4H2	InChI=1S/C8H12O/c1-2-7-6(1)8(7)5-3-9-4-5/h5-8H,1-4H2/t6-,7+,8-
