20
gdb 26462	3.27537	1.36653	1.22834	2.3696	86.31	-0.1927	0.0591	0.2518	1117.9802	0.171562	-366.029842	-366.02142	-366.020476	-366.062888	32.931	
C	-0.3044163582	 1.6139898883	-0.2940648093	-0.427381
C	-0.0381865922	 0.1284807247	-0.076478565	 0.311902
C	-1.2797649859	-0.6226048673	 0.3918489078	-0.42736
C	 0.7804044276	-0.5848526005	-1.2382627425	-0.446477
C	 1.8776115676	-0.7464697986	-0.2040573723	 0.348537
C	 3.0990858347	-1.1230046345	 0.308658332	-0.339978
C	 3.0729512299	-0.6931695356	 1.6745308427	-0.130574
C	 1.8579248409	-0.0791458928	 1.9457899475	-0.172773
N	 1.1586344022	-0.1333513598	 0.7716381196	 0.015189
H	 0.6031440198	 2.129878722	-0.6186681083	 0.13068
H	-1.0765818377	 1.7533243434	-1.0577049886	 0.122022
H	-0.6560340116	 2.0859443464	 0.6295347794	 0.122264
H	-2.076970481	-0.5404761229	-0.354151764	 0.122025
H	-1.0589941849	-1.6815628588	 0.5501006956	 0.130693
H	-1.655321426	-0.2058080018	 1.332406894	 0.122268
H	 0.3211712842	-1.5064023366	-1.6082871981	 0.113908
H	 1.0062913673	 0.0639420092	-2.0897972612	 0.113895
H	 3.9092416932	-1.6300510865	-0.1910411332	 0.090573
H	 3.8714896744	-0.8225215527	 2.3906409433	 0.088277
H	 1.4730268258	 0.3657711846	 2.8485823207	 0.112311
45.2517	159.6178	222.1918	235.6453	297.0718	312.3795	335.0216	428.1168	521.5624	603.2635	613.0617	662.6421	691.0747	710.2028	757.2267	818.3439	828.9298	910.3605	924.3111	954.2691	972.51	1020.1232	1021.4946	1045.4276	1084.0842	1103.5991	1177.596	1203.9665	1238.9596	1251.5322	1264.4356	1298.3705	1401.4571	1412.6098	1419.5614	1425.6848	1473.3357	1478.3792	1483.512	1495.8505	1497.4283	1507.4653	1579.3579	3032.7347	3037.4661	3048.3351	3091.592	3101.1579	3106.8193	3117.9974	3120.048	3234.7794	3257.6267	3271.1307
CC1(C)CC2=CC=CN12	CC1(C)Cc2cccn12	
InChI=1S/C8H11N/c1-8(2)6-7-4-3-5-9(7)8/h3-5H,6H2,1-2H3	InChI=1S/C8H11N/c1-8(2)6-7-4-3-5-9(7)8/h3-5H,6H2,1-2H3
