20
gdb 115688	2.16339	1.43943	1.04916	3.5011	75.69	-0.2339	0.0361	0.27	1213.9434	0.170985	-440.299816	-440.290401	-440.289456	-440.334859	34.636	
C	 0.2865801856	 1.1334176649	 0.2159930028	-0.255598
O	 0.2205698326	-0.1016076415	-0.4765697452	-0.250537
C	-1.0400243053	-0.7294447044	-0.3845411915	 0.134936
C	-1.2244762037	-1.9787692747	-1.2599789664	-0.259562
C	-2.0909614911	-2.5828134985	-0.1214132847	-0.222421
C	-1.4520451341	-1.5607687986	 0.879993955	-0.157888
C	-0.3950208466	-2.2322496667	 1.7578052519	 0.387396
N	 0.9006829023	-2.1232727985	 1.3526895569	-0.528661
O	-0.7306162332	-2.8661277553	 2.7413721453	-0.377494
H	 1.2811563464	 1.5497117358	 0.0413676373	 0.13257
H	-0.4679385739	 1.8378976868	-0.1621247683	 0.118868
H	 0.1373642076	 1.0050091612	 1.2970020108	 0.122433
H	-1.8269670649	 0.0117138958	-0.5883981277	 0.08005
H	-1.6722545862	-1.8438310523	-2.2463781084	 0.102712
H	-0.2778852223	-2.5146947329	-1.3659581848	 0.118842
H	-3.1575164539	-2.3938491453	-0.2618321222	 0.109273
H	-1.9495627421	-3.6373944439	 0.1165742916	 0.125703
H	-2.1534386268	-1.0794186814	 1.5635970963	 0.097565
H	 1.1581661489	-1.4801943166	 0.6178717138	 0.270075
H	 1.6050234807	-2.5359756239	 1.9428360074	 0.251737
32.1866	95.6144	122.4298	183.9662	230.9766	240.6658	296.8139	361.3215	422.6629	450.1833	515.148	587.2546	659.766	678.6105	763.9344	766.4706	798.8341	909.4823	929.2387	962.0113	1005.9878	1048.2133	1077.7334	1103.2779	1140.8668	1153.0974	1182.8128	1187.8864	1228.9628	1240.9996	1257.7709	1269.0647	1277.9184	1328.6197	1365.7607	1405.6552	1479.7878	1485.1525	1490.6655	1503.1386	1507.747	1617.4194	1787.6356	2988.2961	2995.4409	3048.4901	3070.6916	3076.2625	3096.9886	3122.5035	3122.7333	3138.8846	3541.9166	3697.7532
COC1CCC1C(N)=O	CO[C@H]1CC[C@H]1C(=O)N	
InChI=1S/C6H11NO2/c1-9-5-3-2-4(5)6(7)8/h4-5H,2-3H2,1H3,(H2,7,8)	InChI=1S/C6H11NO2/c1-9-5-3-2-4(5)6(7)8/h4-5H,2-3H2,1H3,(H2,7,8)/t4-,5+/m1/s1
