20
gdb 101497	3.66525	0.86848	0.78907	4.1337	79.64	-0.2451	0.019	0.2641	1511.4395	0.170249	-440.280152	-440.270583	-440.269639	-440.315724	34.434	
C	-0.0308695214	 1.4259602452	-0.09128606	-0.3753
C	 0.1111842102	-0.0953382398	 0.0380472596	 0.011497
C	 0.8551520721	-0.4912785906	 1.3238820425	-0.052056
O	 0.1269332234	-0.1234941744	 2.4771149315	-0.424812
N	-1.2197620086	-0.7107811632	 0.1328388075	-0.357339
C	-1.7785605188	-1.1544281989	-0.8927956719	 0.472937
C	-3.0939925016	-1.840735031	-1.1966101436	-0.376589
C	-2.5636102616	-1.8437525372	-2.6449726001	-0.075806
O	-1.3431902107	-1.1696873984	-2.2083002548	-0.261934
H	 0.9561371897	 1.8936345467	-0.1683064129	 0.111577
H	-0.6054140003	 1.6882873078	-0.9838377434	 0.113652
H	-0.5360400456	 1.831510071	 0.7885377253	 0.131678
H	 0.6675765173	-0.4829805145	-0.8263776108	 0.081951
H	 1.0508125106	-1.575996971	 1.3028914951	 0.078448
H	 1.8223181653	 0.02128802	 1.3724996693	 0.09782
H	-0.7759696479	-0.4238458006	 2.3041606004	 0.288172
H	-3.2211079638	-2.8178730819	-0.7279904188	 0.141283
H	-3.9803618849	-1.2312678791	-1.013219503	 0.141906
H	-2.336269288	-2.821612785	-3.0757330165	 0.126455
H	-3.1108129054	-1.2303091852	-3.3643584452	 0.126458
28.8417	103.099	126.7324	152.027	173.6834	219.4255	259.0152	322.0177	417.796	477.0516	518.4982	599.1405	620.2886	791.4666	791.6781	832.4739	903.7349	934.1473	947.5311	965.0967	1006.6918	1032.6277	1057.1616	1086.5619	1125.2159	1150.3105	1151.5277	1159.28	1200.0179	1233.3544	1240.3334	1331.1011	1351.0133	1360.8613	1384.9579	1405.9569	1441.7097	1467.4874	1488.849	1496.4694	1507.5192	1522.1268	1841.8618	2967.1684	3013.3086	3041.7525	3066.1962	3067.2239	3089.1906	3110.9577	3121.0217	3131.6295	3145.4267	3749.9445
CC(CO)N=C1CCO1	C[C@@H](CO)N=C1CCO1	
InChI=1S/C6H11NO2/c1-5(4-8)7-6-2-3-9-6/h5,8H,2-4H2,1H3	InChI=1S/C6H11NO2/c1-5(4-8)7-6-2-3-9-6/h5,8H,2-4H2,1H3/t5-/m0/s1
