19
gdb 88381	2.11201	1.40096	1.19935	1.5185	76.92	-0.2642	0.032	0.2962	1167.5915	0.154704	-422.967892	-422.957671	-422.956727	-423.002782	37.837	
C	-1.4668213235	-1.3990224059	 2.6689633361	-0.437986
C	-0.6311741515	-1.3453744845	 1.4162707771	 0.063513
O	-0.6558270917	-0.1499046314	 0.6193283666	-0.266722
C	 0.5859435874	-0.5465020723	 1.1977831913	 0.043381
C	 1.3022981679	 0.4132551126	 2.1544114161	 0.118534
C	 2.2408413645	-0.3814485556	 3.0722807319	-0.398992
O	 2.1598587656	 1.247666239	 1.3614541117	-0.443175
C	 0.3993007047	 1.2700339177	 2.9357306699	 0.311277
C	-0.2728402081	 2.0368174839	 3.5723002827	-0.45986
H	-1.3597090222	-0.4999128845	 3.2738684127	 0.148179
H	-2.5227502956	-1.5179801148	 2.4037614016	 0.127775
H	-1.1772463632	-2.2693977407	 3.2684218896	 0.119521
H	-0.6960494876	-2.2520597008	 0.8091083251	 0.089498
H	 1.3104493494	-0.9330970408	 0.4769331657	 0.098374
H	 2.904566987	-1.0039310861	 2.4654712529	 0.126296
H	 2.8496073219	 0.3098011572	 3.6583176776	 0.139529
H	 1.6692712878	-1.0199639076	 3.749276954	 0.127962
H	 1.5920984561	 1.8143128469	 0.8258264419	 0.291145
H	-0.882467339	 2.7070795277	 4.1269347253	 0.201751
46.6795	137.378	163.2635	188.2478	194.7874	224.884	238.2642	326.6066	353.9945	362.293	394.8823	437.6236	510.0904	591.7256	637.8965	642.4038	663.177	694.3242	784.9875	864.948	925.6611	945.1968	996.8371	1039.1351	1059.0611	1099.1516	1148.5096	1166.4449	1182.0385	1242.5527	1321.3462	1356.4929	1391.1735	1404.8633	1416.0052	1464.6489	1479.8443	1491.1999	1497.9497	1509.1854	2231.3608	3039.1596	3052.6855	3069.3393	3085.3952	3095.3587	3130.7864	3144.737	3166.1357	3499.0643	3797.5135
CC1OC1C(C)(O)C#C	C[C@H]1O[C@H]1[C@@](C)(O)C#C	
InChI=1S/C7H10O2/c1-4-7(3,8)6-5(2)9-6/h1,5-6,8H,2-3H3	InChI=1S/C7H10O2/c1-4-7(3,8)6-5(2)9-6/h1,5-6,8H,2-3H3/t5-,6-,7+/m1/s1
