18
gdb 117478	5.9373	0.55281	0.51053	1.1961	71.02	-0.2658	-0.0429	0.2228	2042.9716	0.143899	-476.221738	-476.211178	-476.210233	-476.259588	35.085	
O	-0.335170981	 1.4727649825	 0.1081427853	-0.424488
C	-0.0129485847	 0.0894887498	 0.0658095205	-0.073828
C	-1.3349601131	-0.6626955717	 0.0074468916	-0.26394
C	-1.1784161109	-2.1570963404	-0.043244305	 0.423166
N	-0.0466583444	-2.7255343198	-0.0375419733	-0.527345
O	-2.4123692083	-2.7439168394	-0.0932482648	-0.245465
C	-2.4842755956	-4.1553528758	-0.1453186066	-0.183058
C	-3.9555154572	-4.5395040824	-0.19075353	 0.138575
O	-4.3308851958	-5.6787695885	-0.2403771159	-0.22922
H	 0.4878938569	 1.9676731601	 0.148321041	 0.287695
H	 0.5960832542	-0.1619989575	-0.8132441284	 0.104256
H	 0.5544561367	-0.2257720852	 0.952117675	 0.10423
H	-1.9491672254	-0.4006760032	 0.8769657698	 0.134052
H	-1.9080828947	-0.337293199	-0.8687036128	 0.134103
H	-0.0981311062	-3.741537526	-0.0758341284	 0.22265
H	-1.9829173169	-4.5555530879	-1.0378867984	 0.146027
H	-2.021243318	-4.6190555347	 0.7371755265	 0.146004
H	-4.6504255058	-3.6728568111	-0.1738725864	 0.106586
40.4109	48.0958	75.6255	94.9583	95.4853	157.7666	215.9795	265.4308	305.2633	374.4063	409.3548	544.9821	570.5138	679.6016	740.6803	806.469	871.9664	924.1182	1005.2263	1041.1845	1063.7089	1083.6038	1098.4137	1113.215	1143.1655	1211.9459	1232.7949	1236.7064	1279.0096	1300.9825	1340.4273	1386.2169	1407.9647	1463.4793	1472.5015	1479.6667	1522.8264	1738.058	1848.1321	2914.7649	3002.7839	3003.5304	3033.6678	3044.893	3045.5843	3081.0706	3510.6502	3837.0595
OCCC(=N)OCC=O	OCC[C]([NH])OCC=O	
InChI=1S/C5H9NO3/c6-5(1-2-7)9-4-3-8/h3,6-7H,1-2,4H2	InChI=1S/C5H9NO3/c6-5(1-2-7)9-4-3-8/h3,6-7H,1-2,4H2
