15
gdb 23515	4.79614	1.31541	1.2431	0.9387	70.88	-0.2437	0.0016	0.2454	989.3396	0.113921	-416.664392	-416.657961	-416.657017	-416.695252	25.949	
O	-0.09684266	 1.3569557827	-0.0248904006	-0.394544
N	 0.052185974	-0.0450305239	-0.0396840714	-0.286614
C	-1.0705234908	-0.6242776309	-0.057889318	 0.466633
C	-2.5451450677	-0.2722279849	 0.0669449961	-0.183322
C	-3.248746182	-1.0500503965	-1.0705827073	-0.039233
N	-3.7038556294	-2.2052673417	-0.2274228276	-0.179649
C	-2.4781259966	-2.3290261018	-1.0852652937	-0.042541
C	-1.4511434364	-2.0864161215	 0.0472320718	-0.174656
C	-2.7438777262	-1.6372376811	 0.8234781095	 0.022225
H	 0.8188286339	 1.6544522714	 0.0054875684	 0.307675
H	-2.9139066708	 0.6955948922	 0.3888257977	 0.100641
H	-3.8363444839	-0.667628336	-1.8952664443	 0.106089
H	-2.423429686	-3.0137511181	-1.9218759698	 0.106484
H	-0.7667156058	-2.8722995207	 0.3509716922	 0.093548
H	-2.9243765322	-1.7570330893	 1.8882896768	 0.097265
114.1249	190.6607	310.2619	410.3699	444.5732	577.865	670.7783	709.6489	762.1567	781.5429	789.8756	820.8876	852.2163	870.9809	899.3325	916.2987	932.1574	967.9359	994.5367	1032.7301	1037.3951	1063.2711	1131.7404	1135.273	1182.4564	1192.1137	1196.3227	1204.9269	1249.1649	1287.3316	1340.8606	1409.332	1797.6458	3154.8179	3174.2989	3184.0011	3193.9954	3204.9101	3816.7535
ON=C1C2C3N4C3C1C24	ON=C1[C@H]2[C@@H]3N4[C@@H]3[C@@H]1[C@@H]24	
InChI=1S/C6H6N2O/c9-7-3-1-4-2(3)6-5(1)8(4)6/h1-2,4-6,9H	InChI=1S/C6H6N2O/c9-7-3-1-4-2(3)6-5(1)8(4)6/h1-2,4-6,9H/t1-,2+,4-,5+,6-,8?
