21
gdb 119713	3.06279	1.03282	0.90303	2.1498	79.4	-0.2298	0.0748	0.3046	1401.4829	0.180346	-424.173348	-424.163709	-424.162765	-424.208341	35.26	
C	-0.1001127231	 1.5560084305	 0.0196077921	-0.387043
C	-0.1316793765	 0.0779454774	-0.3244673719	-0.057136
O	-1.2160120694	-0.5203467192	 0.3855296401	-0.28321
C	-1.3509793909	-1.8696866536	 0.1683293232	 0.337377
C	-2.2474139441	-2.4906993775	-0.9067595634	-0.152785
O	-2.6512566169	-3.544864877	 0.0096175769	-0.283247
C	-1.9138619271	-2.931940087	 1.0744805317	-0.014311
C	-0.4331332852	-2.9227435839	 0.7723530583	-0.091878
C	 0.2730119524	-4.0276867463	 0.0196960328	-0.422875
H	 0.723225143	 2.0508491931	-0.5039979231	 0.116807
H	-1.0372198848	 2.0389262441	-0.2713475303	 0.128976
H	 0.0371984422	 1.6961934621	 1.0955512719	 0.128327
H	-0.2654755454	-0.0662226821	-1.4074144559	 0.093463
H	 0.8110130403	-0.4133048015	-0.0418813025	 0.096477
H	-3.0995327295	-1.8481214687	-1.1550574679	 0.114345
H	-1.789172955	-2.883379776	-1.8215088362	 0.102463
H	-2.3659426178	-2.9085078471	 2.0590907706	 0.110518
H	 0.1237155504	-2.4845100795	 1.5999469917	 0.093939
H	-0.4165846567	-4.531057626	-0.6624271297	 0.137479
H	 1.1202703043	-3.6470182204	-0.5606540564	 0.11296
H	 0.6561605997	-4.7828572014	 0.7142739681	 0.119356
63.1537	73.5413	118.4733	176.4081	233.447	243.4497	247.166	323.7979	351.2458	381.3459	472.9302	585.4867	693.0291	752.0861	794.4146	818.4167	884.7642	927.2519	950.7321	987.8604	999.2269	1007.1237	1069.0159	1079.6776	1082.0955	1121.8951	1132.2043	1143.8664	1164.2742	1185.7945	1219.7916	1278.4559	1286.7919	1294.1497	1346.3321	1397.3368	1405.9791	1419.3219	1475.1154	1483.2169	1491.9175	1499.9725	1502.8453	1514.9287	1527.895	2983.253	3016.217	3027.2564	3034.2059	3045.8594	3080.7779	3092.1434	3115.2905	3120.5632	3122.8594	3130.924	3185.3535
CCOC12COC1C2C	CCO[C@]12CO[C@H]1[C@H]2C	
InChI=1S/C7H12O2/c1-3-9-7-4-8-6(7)5(7)2/h5-6H,3-4H2,1-2H3	InChI=1S/C7H12O2/c1-3-9-7-4-8-6(7)5(7)2/h5-6H,3-4H2,1-2H3/t5-,6+,7+/m1/s1
