17
gdb 83766	2.46796	1.89737	1.47522	1.9066	66.94	-0.2194	0.0687	0.2881	931.4492	0.136249	-458.920254	-458.912677	-458.911732	-458.951834	30.117	
O	 0.0508133888	 1.4718617126	-0.0719687985	-0.433261
C	 0.007428764	 0.0673014474	 0.0418642888	 0.064701
C	 0.2074277068	-0.6129410464	 1.447215658	-0.155365
C	-0.3122149003	 0.3087442619	 2.5514936803	-0.061322
O	-1.7091441073	 0.4729447029	 2.2746103677	-0.265244
C	-2.0601861	-0.5035104612	 1.3272911508	 0.041287
C	-0.9990279598	-1.5278159754	 1.1158954616	-0.176054
C	-1.3678026611	-0.562638146	-0.0252130094	 0.308794
O	-2.0370481892	-0.8795428616	-1.1917149205	-0.460822
H	 0.9562490971	 1.738778393	-0.2572793999	 0.284654
H	 0.6574040065	-0.4149146545	-0.7000066788	 0.078569
H	 1.1786829875	-1.0654645296	 1.6434735126	 0.074036
H	-0.1740839816	-0.1304454625	 3.5497024812	 0.090648
H	 0.1625100025	 1.2941659331	 2.5196676289	 0.107774
H	-3.1084757562	-0.777935435	 1.3480798955	 0.107522
H	-1.0818920141	-2.6020033718	 1.1986756586	 0.100807
H	-2.5765085735	-0.1208833669	-1.4416511169	 0.293275
156.4604	232.7618	243.7364	260.0371	276.2074	319.5215	384.2689	508.8957	561.3701	598.7635	713.518	748.9979	791.4373	841.5664	873.4518	893.0624	904.5611	947.0868	998.6214	1011.1916	1027.5268	1054.3247	1099.0336	1127.6478	1157.1666	1172.1644	1200.4622	1234.0054	1257.4938	1261.3493	1271.478	1316.2869	1338.3921	1376.1422	1414.8388	1470.8892	1505.1676	3002.5728	3020.4326	3081.4509	3122.2634	3191.0909	3219.3427	3795.179	3824.1191
OC1C2COC3C2C13O	O[C@H]1[C@H]2CO[C@@H]3[C@H]2[C@]13O	
InChI=1S/C6H8O3/c7-4-2-1-9-5-3(2)6(4,5)8/h2-5,7-8H,1H2	InChI=1S/C6H8O3/c7-4-2-1-9-5-3(2)6(4,5)8/h2-5,7-8H,1H2/t2-,3-,4-,5+,6-/m0/s1
