17
gdb 32821	3.53088	1.11307	0.86215	2.2063	72.19	-0.1945	0.0227	0.2172	1308.4075	0.136357	-455.160789	-455.151916	-455.150972	-455.195129	31.612	
C	 0.4678467207	 1.3870602171	 0.0331540247	-0.226345
O	 0.6293845991	-0.0128437481	 0.0360168485	-0.24432
C	 0.1523933171	-0.6230467073	-1.1543255734	-0.184065
C	 0.4537050505	-2.0828315536	-1.0967734935	 0.168501
C	 1.3889466415	-2.739251446	-0.3544049069	 0.297903
N	 2.3900496183	-2.3417317294	 0.5096512918	-0.60364
O	 1.2989363571	-4.0691061556	-0.637796087	-0.173741
C	 0.2935635695	-4.1513367377	-1.5599374357	 0.045716
N	-0.2348506943	-3.0187376894	-1.8674160183	-0.308295
H	 1.016997132	 1.8585099185	-0.7964353535	 0.111131
H	-0.5923694017	 1.6701668413	-0.0507716746	 0.112646
H	 0.8608103709	 1.765131508	 0.9798732555	 0.127169
H	-0.9336036714	-0.4722915097	-1.261233062	 0.112556
H	 0.6271111704	-0.1452998591	-2.030260618	 0.101482
H	 2.2181782415	-1.392724367	 0.8199675915	 0.266639
H	 2.5206558715	-2.9742448454	 1.2894711948	 0.253067
H	 0.0479840575	-5.1380087666	-1.9164774237	 0.143597
49.6744	84.0397	143.5034	222.691	244.2655	281.7439	302.5201	335.0342	375.1307	456.7426	649.7418	680.9112	714.7994	769.4899	773.742	802.6015	951.8665	984.4432	1031.3185	1048.9585	1109.942	1149.5465	1182.3868	1196.7246	1229.3407	1245.8221	1280.7153	1314.4406	1402.4158	1460.2012	1482.4508	1485.2116	1503.9961	1526.3424	1568.5557	1617.955	1702.9637	2938.2353	2978.344	2990.1796	3026.3584	3116.909	3286.424	3527.5512	3627.7756
COCC1=C(N)OC=N1	COCc1c(N)ocn1	
InChI=1S/C5H8N2O2/c1-8-2-4-5(6)9-3-7-4/h3H,2,6H2,1H3	InChI=1S/C5H8N2O2/c1-8-2-4-5(6)9-3-7-4/h3H,2,6H2,1H3
