22
gdb 13448	3.22115	1.09605	0.98714	1.3331	78.56	-0.2591	0.078	0.3371	1303.5571	0.198869	-350.191273	-350.181242	-350.180297	-350.226299	36.006	
C	-0.2761738595	 1.0259193851	-1.6910336448	-0.406768
C	-0.0217956823	-0.1934501065	-0.8291022702	-0.015572
C	 1.3662425915	-0.6151865046	-0.3896366244	-0.039956
C	 2.6207546834	 0.1472866492	-0.7637447182	-0.403305
C	 0.3699438604	-0.1112404738	 0.6369280106	-0.030814
C	 0.54460186	 1.196965646	 1.3811354354	-0.195558
C	-0.7664436027	 1.7061067871	 1.9721675528	-0.066864
O	-0.4874277676	 2.9008397194	 2.6878414465	-0.423153
H	 0.3693037459	 1.8696211259	-1.4364030112	 0.11856
H	-0.1084022407	 0.7960744208	-2.7494657037	 0.114912
H	-1.3128634558	 1.3669081354	-1.5902373475	 0.114009
H	-0.6877515642	-1.0188322647	-1.0710593159	 0.076328
H	 1.5253477816	-1.6910866962	-0.3689892398	 0.077335
H	 2.4702783898	 1.2288100083	-0.7908167538	 0.116906
H	 3.4251897805	-0.0511125249	-0.0465564768	 0.116438
H	 2.9798109933	-0.1574863048	-1.7532477587	 0.113755
H	-0.0629472379	-0.8892425841	 1.2637057558	 0.074007
H	 1.261391996	 1.0681206217	 2.2020181463	 0.103894
H	 0.9549220187	 1.9808351326	 0.7382807439	 0.102827
H	-1.4945663665	 1.8836913083	 1.1646627914	 0.087965
H	-1.1976262608	 0.9366264654	 2.633980153	 0.081092
H	-1.311495273	 3.2278887443	 3.0597334893	 0.28396
70.4236	93.7608	114.7765	157.8418	165.196	220.0881	253.1968	263.9991	282.2206	389.1397	453.5847	528.33	537.3623	740.2548	772.893	805.4842	863.8899	937.2399	946.357	1012.0502	1040.628	1045.066	1062.7572	1075.9238	1115.5342	1139.5544	1162.42	1180.5551	1190.0981	1234.5473	1243.1823	1272.3244	1313.2496	1324.4847	1378.8695	1399.8471	1418.9543	1424.4577	1456.0538	1458.653	1483.0778	1493.3613	1498.5418	1503.8886	1515.2487	1527.3911	2960.2265	2988.7838	3029.099	3031.7538	3035.6277	3082.0065	3084.6736	3087.8418	3105.4482	3109.9808	3119.3689	3123.1645	3138.0553	3830.4195
CC1C(C)C1CCO	C[C@H]1[C@@H](C)[C@H]1CCO	
InChI=1S/C7H14O/c1-5-6(2)7(5)3-4-8/h5-8H,3-4H2,1-2H3	InChI=1S/C7H14O/c1-5-6(2)7(5)3-4-8/h5-8H,3-4H2,1-2H3/t5-,6+,7-
