16
gdb 98815	3.14713	1.14449	0.9519	2.58	67.25	-0.2595	-0.0025	0.257	1239.8481	0.123602	-475.072776	-475.063719	-475.062775	-475.107881	30.987	
C	 0.0633245542	 1.3955085648	 0.123009731	-0.24117
O	-0.0385633663	-0.0326159393	 0.2173115588	-0.229913
C	-1.2618227556	-0.5384448763	-0.007290079	 0.457126
O	-2.2428529831	 0.1273138286	-0.2312500894	-0.365008
C	-1.2231179726	-2.0446575523	 0.0156035469	-0.283109
C	-2.5963061791	-2.7610622408	 0.0619033425	-0.171572
N	-2.2852333282	-3.3193624093	-1.260267747	-0.318417
C	-1.0828736402	-2.6893907971	-1.4165821303	 0.424737
O	-0.2695187182	-2.6512985558	-2.294800609	-0.344158
H	 1.1101179298	 1.6296961245	 0.314459994	 0.137863
H	-0.230013739	 1.7348947156	-0.8731823367	 0.147153
H	-0.5801639491	 1.8760637327	 0.8640991574	 0.141256
H	-0.4655871592	-2.4109372608	 0.7080689223	 0.126887
H	-2.7017333162	-3.512139149	 0.849617999	 0.116408
H	-3.4415266491	-2.0698997083	 0.0674311553	 0.143541
H	-2.8309751781	-3.8669336973	-1.9087555157	 0.258375
42.1125	94.7622	104.8297	122.0811	197.22	207.1417	311.1511	402.2648	420.0797	474.2142	610.179	687.4426	750.0489	801.8356	868.8164	918.1574	972.5657	995.2567	1056.0609	1089.6954	1143.759	1173.7857	1178.9875	1181.2168	1200.2202	1223.7891	1296.5006	1363.4032	1397.5915	1474.4027	1482.4579	1496.235	1519.2007	1811.3381	1908.5286	3054.8504	3059.2448	3120.3889	3130.5252	3130.964	3164.3644	3617.3918
COC(=O)C1CNC1=O	COC(=O)[C@H]1CNC1=O	
InChI=1S/C5H7NO3/c1-9-5(8)3-2-6-4(3)7/h3H,2H2,1H3,(H,6,7)	InChI=1S/C5H7NO3/c1-9-5(8)3-2-6-4(3)7/h3H,2H2,1H3,(H,6,7)/t3-/m0/s1
