21
gdb 119842	4.03585	0.8653	0.78424	1.8807	84.99	-0.2337	0.0096	0.2433	1544.584	0.182541	-387.088114	-387.079243	-387.078299	-387.122348	33.404	
C	-0.0145311109	 1.5827165612	-0.0957923008	-0.379337
C	 0.005496015	 0.0524055511	-0.1083329956	-0.160702
C	-1.3900748186	-0.5625810883	 0.1171009192	-0.30924
C	-1.3951483348	-2.0614306766	 0.0954178958	 0.347296
C	-1.6623665304	-2.8967869601	 1.1070601068	-0.191802
C	-1.5552196676	-4.3570442612	 0.7173019013	-0.285631
C	-1.2419549028	-4.287321857	-0.7727717265	 0.047122
O	-2.2590935711	-3.6631603607	-1.5582588803	-0.258917
C	-1.1225285136	-2.8675778791	-1.1423113115	-0.068007
H	 0.9871486222	 1.9953515585	-0.2508251494	 0.112785
H	-0.6639295724	 1.9771604215	-0.8851700226	 0.116103
H	-0.3884516788	 1.9652856267	 0.8604546944	 0.115425
H	 0.4120529097	-0.2996983239	-1.0648110849	 0.098835
H	 0.6858345411	-0.3193894661	 0.6674152209	 0.100902
H	-1.7848521912	-0.2122025577	 1.0782922535	 0.099881
H	-2.0711887755	-0.1817475409	-0.657476813	 0.107709
H	-1.9699229989	-2.5837272099	 2.0995337196	 0.091436
H	-0.7551563191	-4.8724113763	 1.2651261208	 0.109089
H	-2.481522628	-4.9118872434	 0.9105526657	 0.122859
H	-0.6931938294	-5.0842552951	-1.2676600366	 0.092683
H	-0.5026076051	-2.5002275526	-1.955137607	 0.091512
62.0056	81.824	112.5654	240.7026	250.1809	294.5352	317.5932	347.6978	412.2962	610.6723	658.5515	746.141	763.2783	815.7356	824.3448	858.908	872.0743	890.5312	907.1115	927.8897	956.6204	1014.3734	1036.0923	1043.2854	1090.176	1105.5565	1115.8547	1184.1206	1192.5238	1248.5429	1255.5218	1282.1507	1303.039	1320.0294	1324.8167	1370.5693	1382.5527	1410.4891	1412.3953	1461.5776	1478.6918	1492.1481	1499.1524	1509.4037	1697.6938	3004.1686	3022.5032	3025.416	3030.3147	3046.3101	3058.5347	3066.6926	3098.293	3103.2803	3145.0007	3159.2645	3184.621
CCCC1=CCC2OC12	CCCC1=CC[C@H]2O[C@@H]12	
InChI=1S/C8H12O/c1-2-3-6-4-5-7-8(6)9-7/h4,7-8H,2-3,5H2,1H3	InChI=1S/C8H12O/c1-2-3-6-4-5-7-8(6)9-7/h4,7-8H,2-3,5H2,1H3/t7-,8+/m1/s1
