14
gdb 44651	2.65246	1.83409	1.23173	4.392	68.89	-0.2578	-0.0736	0.1842	961.3834	0.102386	-436.708987	-436.702222	-436.701278	-436.740473	25.933	
N	-0.0941657725	 1.224678384	-0.4680642329	-0.5238
C	-0.0277694086	 0.0379970535	-0.0794417009	 0.430778
O	 1.047498494	-0.7105132909	 0.3666831555	-0.269389
C	 0.181073769	-1.8916077436	 0.5557055363	 0.063903
C	-0.0946434054	-2.1654038846	 2.0088866498	-0.071289
C	-1.2882941253	-1.694367041	 2.3880210072	-0.166185
C	-1.9914534456	-1.0238101906	 1.2566086695	 0.388081
O	-3.0903794706	-0.5341396513	 1.2701770421	-0.306051
C	-1.0330908962	-1.0976406439	 0.0529819465	-0.293705
H	 0.8166589942	 1.6850736488	-0.4270832399	 0.235005
H	 0.5591016812	-2.7365432122	-0.021388857	 0.111513
H	 0.6272804717	-2.6589666945	 2.6492387974	 0.133717
H	-1.7243028936	-1.7432721943	 3.3779572615	 0.13358
H	-1.5375010524	-1.3858975694	-0.8676776452	 0.133842
98.9258	145.119	249.6563	369.0352	445.2262	452.8134	584.8101	608.2141	685.2372	720.2282	819.715	821.6111	854.8109	875.6826	920.476	932.7804	981.7	994.4721	1009.8417	1025.7865	1103.1472	1167.127	1185.7474	1208.1421	1227.3311	1305.848	1322.3885	1360.6092	1646.068	1813.5457	1842.9265	3109.0799	3141.9783	3202.4503	3229.0532	3480.8398
N=C1OC2C=CC(=O)C12	[NH][C]1O[C@H]2C=CC(=O)[C@@H]12	
InChI=1S/C6H5NO2/c7-6-5-3(8)1-2-4(5)9-6/h1-2,4-5,7H	InChI=1S/C6H5NO2/c7-6-5-3(8)1-2-4(5)9-6/h1-2,4-5,7H/t4-,5+/m0/s1
