17
gdb 128480	3.16962	1.27862	0.9228	2.1229	73.15	-0.2118	0.0307	0.2425	1243.3042	0.13524	-455.140073	-455.130702	-455.129758	-455.174525	33.226	
C	-0.1027861074	 1.421329432	-0.0075057177	-0.250362
O	-0.0208794599	-0.0075446349	 0.0250534106	-0.27222
C	-1.1690587406	-0.6805744112	 0.0211034626	 0.508736
C	-1.3707467537	-2.0289757919	 0.0061732311	-0.075747
C	-0.3650650594	-3.1330361293	-0.0327669031	-0.527179
C	-2.796257457	-2.1069940378	 0.0039243638	 0.375354
N	-3.5420515861	-3.2708538407	-0.0862777131	-0.586164
N	-3.3900418699	-0.9302573908	 0.027296878	-0.265897
O	-2.3164651912	 0.0033351471	 0.0274149755	-0.242584
H	 0.9288481105	 1.7729216776	-0.0072797104	 0.140092
H	-0.616785591	 1.762802705	-0.9106713499	 0.144974
H	-0.630514873	 1.8025012112	 0.8714265053	 0.144804
H	-0.3677903625	-3.734849988	 0.8854317137	 0.121174
H	-0.5500042704	-3.816118297	-0.8699166488	 0.133986
H	 0.6421204861	-2.7251857741	-0.1498272508	 0.140178
H	-3.167272918	-4.0422233668	 0.4479350486	 0.252846
H	-4.5226834565	-3.1218860204	 0.1132890947	 0.258008
62.6111	109.2548	143.9611	186.8133	190.3537	230.9073	259.7768	321.8903	376.4911	396.7934	561.6464	591.879	638.2983	690.405	722.1545	760.7106	783.6023	926.7056	954.2947	1039.3942	1070.1599	1137.7101	1177.094	1190.3165	1204.4034	1243.9638	1361.2459	1421.8633	1463.635	1485.0072	1486.9028	1497.8578	1501.5002	1527.5975	1569.7716	1646.3857	1717.0698	3015.798	3042.9725	3064.4009	3115.4367	3117.1314	3156.8964	3550.5567	3650.0565
COC1=C(C)C(N)=NO1	COc1c(C)c(N)no1	
InChI=1S/C5H8N2O2/c1-3-4(6)7-9-5(3)8-2/h1-2H3,(H2,6,7)	InChI=1S/C5H8N2O2/c1-3-4(6)7-9-5(3)8-2/h1-2H3,(H2,6,7)
