19
gdb 86829	2.62568	1.23018	1.0458	2.4716	80.68	-0.239	-0.0178	0.2212	1227.2148	0.157995	-385.897869	-385.888845	-385.8879	-385.931797	34.088	
C	-0.2706340581	 1.5064977372	-0.0036446939	-0.409121
C	 0.0780947001	 0.021322935	-0.0044214592	-0.073001
C	 0.8812156093	-0.5119186032	-1.2004380721	-0.237246
C	 1.5207205434	-1.8363290626	-0.6832593046	-0.189585
C	 1.9076989198	-1.4877815411	 0.776311058	-0.330838
C	 0.9119958554	-0.4061623926	 1.2115300759	 0.413591
O	 0.8171861323	 0.0495594629	 2.3217659886	-0.320646
C	 0.5784204605	-2.9500679196	-0.7472886217	 0.340662
C	-0.2100063889	-3.8569115873	-0.7918659992	-0.486289
H	 0.6259081745	 2.1199841671	-0.1450843312	 0.116886
H	-0.976857418	 1.7506001009	-0.8024718787	 0.114997
H	-0.7161053462	 1.7847788048	 0.9550151284	 0.14027
H	-0.8485916876	-0.568195218	 0.0715521259	 0.118958
H	 0.2769701405	-0.6694989302	-2.0956408061	 0.116669
H	 1.6830431285	 0.1922517864	-1.4551737644	 0.101608
H	 2.4053586639	-2.0922897628	-1.2747103827	 0.108083
H	 1.9021508406	-2.336944519	 1.4614997288	 0.141611
H	 2.9104725114	-1.0444397772	 0.809425993	 0.132508
H	-0.8978665812	-4.6647963707	-0.8358281147	 0.200883
61.9734	89.884	181.2847	201.0521	242.3214	256.8035	348.6232	419.1662	439.0101	525.0919	586.1526	598.5013	632.2179	634.6768	697.9459	738.5335	798.373	876.3289	914.296	927.1133	985.3441	991.031	1050.9912	1080.8045	1139.9374	1158.8607	1169.3296	1195.1749	1230.925	1289.0801	1300.6388	1310.3919	1351.7169	1364.1007	1409.0947	1443.5582	1493.4589	1497.7655	1498.9664	1843.5757	2233.1105	2998.8911	3034.484	3038.7655	3043.5828	3059.1808	3104.1048	3114.2582	3123.4996	3125.0726	3502.898
CC1CC(CC1=O)C#C	C[C@H]1C[C@@H](CC1=O)C#C	
InChI=1S/C8H10O/c1-3-7-4-6(2)8(9)5-7/h1,6-7H,4-5H2,2H3	InChI=1S/C8H10O/c1-3-7-4-6(2)8(9)5-7/h1,6-7H,4-5H2,2H3/t6-,7-/m0/s1
