27
gdb 87119	2.32289	1.18284	1.11309	0.1087	95.36	-0.2548	0.0757	0.3305	1362.0412	0.249458	-353.557284	-353.546013	-353.545069	-353.592433	44.026	
C	 0.0417146495	 1.4130221883	-0.3756053699	-0.421696
C	 0.296594795	-0.0603602567	-0.1296420728	-0.035275
C	 1.6860362608	-0.6048490238	 0.1056653859	-0.346779
C	 0.6634604439	-0.6453082068	 1.2246085933	 0.361525
C	 0.8916687924	 0.3410250184	 2.3654064078	-0.473398
C	 0.0855870124	-2.0200278822	 1.6660858852	 0.204589
C	 1.1707466145	-2.8041611298	 2.4357685151	-0.399602
C	-1.1389664469	-1.8106471446	 2.5825456946	-0.412075
C	-0.3727668681	-2.8941048159	 0.4805552977	-0.425168
H	 0.7354399657	 2.0557391234	 0.1719175364	 0.114165
H	 0.1568280479	 1.6454857926	-1.4403694943	 0.114898
H	-0.9757066466	 1.699412597	-0.0846977054	 0.113459
H	-0.329112008	-0.6952297853	-0.7480708254	 0.07816
H	 1.9726080702	-1.5244514348	-0.3933249347	 0.103597
H	 2.5010821841	 0.1064902285	 0.2035949615	 0.099616
H	 1.4795381554	 1.2009049088	 2.0372211617	 0.111167
H	-0.0497588584	 0.7248289669	 2.7718422956	 0.115949
H	 1.4433756537	-0.1201149369	 3.190430545	 0.114458
H	 1.5274312798	-2.2607051914	 3.3154073516	 0.109503
H	 0.7764943426	-3.7651649616	 2.7838651169	 0.103779
H	 2.0351244655	-3.0078621995	 1.7955908619	 0.110664
H	-1.9016615768	-1.1996451651	 2.0871500393	 0.109494
H	-1.5955412445	-2.7739912025	 2.8345680031	 0.104673
H	-0.8722307121	-1.3199404409	 3.5224387649	 0.111391
H	 0.4156106076	-3.0428586914	-0.2634429441	 0.111854
H	-0.6599654117	-3.8844349595	 0.8489869738	 0.107069
H	-1.2463219678	-2.4730693454	-0.0255039846	 0.113982
60.7338	153.4375	173.3653	182.4865	219.4872	256.6662	263.7887	281.5786	302.3257	323.1783	336.0174	371.0165	386.4566	444.9754	450.7173	465.3402	514.2535	624.9506	783.084	795.6398	878.4942	889.3645	923.717	932.3899	934.4298	956.8601	972.0285	1010.1862	1033.9997	1048.896	1052.7414	1105.4434	1126.9868	1131.5332	1190.6215	1204.7213	1229.7797	1237.257	1292.1571	1316.5366	1395.1798	1398.1667	1404.6296	1418.9671	1420.6828	1432.5248	1479.3397	1484.4497	1487.8729	1489.2875	1493.107	1494.9326	1502.8379	1509.346	1514.9094	1517.7516	1522.2394	3027.7888	3028.265	3030.7129	3037.6419	3042.3457	3082.3267	3090.5214	3093.1467	3097.176	3100.876	3106.9953	3107.6131	3109.8293	3111.7071	3120.1451	3124.2879	3162.0086	3202.0779
CC1CC1(C)C(C)(C)C	C[C@H]1C[C@]1(C)C(C)(C)C	
InChI=1S/C9H18/c1-7-6-9(7,5)8(2,3)4/h7H,6H2,1-5H3	InChI=1S/C9H18/c1-7-6-9(7,5)8(2,3)4/h7H,6H2,1-5H3/t7-,9-/m0/s1
