20
gdb 97208	2.33347	1.60305	1.0583	2.5519	82.7	-0.2362	0.0317	0.2678	1190.5094	0.171589	-403.158895	-403.15003	-403.149086	-403.193112	32.706	
C	-0.1501486525	 1.3932182462	-0.0765826663	-0.331318
N	-0.1959169098	-0.0560221048	-0.171117129	-0.346477
C	 0.5545418496	-0.6560385545	-0.9861393587	 0.408036
O	 1.4255288738	-0.0503635977	-1.8567912413	-0.258771
C	 2.2358519268	-1.0395605269	-2.5124838354	-0.087364
C	 1.43754462	-2.3494507962	-2.4346328337	-0.324228
C	 0.6410540966	-2.13815886	-1.1582900955	 0.236833
C	 0.8033157539	-2.9976546979	 0.0827583032	-0.297437
C	-0.4846921793	-3.0164785404	-0.6892887556	-0.309794
H	 0.7389660432	 1.8431863548	-0.5335063647	 0.119719
H	-1.0367794201	 1.8231807986	-0.5596859329	 0.12151
H	-0.1927166904	 1.6838652771	 0.9785161976	 0.117909
H	 2.4232611889	-0.6932290427	-3.5311726872	 0.118657
H	 3.1949197455	-1.1184630093	-1.9850960871	 0.111719
H	 0.7704643541	-2.4400684528	-3.2992078088	 0.115519
H	 2.0845262709	-3.2292291854	-2.4107320857	 0.110424
H	 1.4622497969	-3.8570849842	 0.0125688218	 0.110824
H	 0.812931306	-2.4798746522	 1.034982898	 0.132877
H	-1.3362213564	-2.5031950962	-0.2571853571	 0.140578
H	-0.7159464174	-3.8934848756	-1.2849032016	 0.110786
49.5005	86.7951	155.5314	181.8567	206.1381	284.9116	298.47	376.8564	490.8988	542.4593	665.2302	717.5794	726.4555	789.3982	825.0815	894.7043	920.3662	954.9008	967.3482	997.4532	1039.1839	1055.9971	1068.6278	1086.5023	1109.3319	1122.3347	1135.6825	1173.6799	1200.2727	1208.5536	1241.0824	1309.2868	1312.1886	1369.0017	1406.9128	1438.9491	1452.4583	1489.9645	1491.9818	1493.7293	1498.9704	1523.2039	1797.5243	3011.46	3026.0048	3043.1244	3067.7736	3085.8743	3100.6103	3110.0091	3130.4406	3133.1212	3219.6719	3233.2481
CN=C1OCCC11CC1	CN=C1OCCC21CC2	
InChI=1S/C7H11NO/c1-8-6-7(2-3-7)4-5-9-6/h2-5H2,1H3	InChI=1S/C7H11NO/c1-8-6-7(2-3-7)4-5-9-6/h2-5H2,1H3
