17
gdb 35570	2.84868	1.56304	1.31515	1.0178	73.21	-0.2464	0.0191	0.2655	1008.6379	0.136381	-421.775447	-421.767835	-421.76689	-421.807694	29.392	
C	 0.3880511022	-1.1729295544	 0.2755697894	-0.433479
C	 0.2494378714	 0.0169367183	 0.1757096599	 0.351318
C	 0.0812102258	 1.4489994585	 0.0351276246	-0.118501
O	-0.2739554483	 2.1376739592	 1.2649471739	-0.308469
C	 0.7985132034	 3.0988017437	 1.1099833731	 0.094517
C	 1.8883024317	 2.961088608	 2.1660458807	-0.241434
C	 2.6672990864	 1.7311565328	 1.6723409773	-0.09401
O	 2.5882900743	 1.7824944058	 0.2406654322	-0.254818
C	 1.357572108	 2.3444832583	-0.119605369	 0.060048
H	 0.5129283945	-2.2239153528	 0.3652292106	 0.20216
H	-0.6615891711	 1.6643044662	-0.7455316063	 0.102783
H	 0.4151610793	 4.114539728	 0.9786517361	 0.08125
H	 2.521550912	 3.8544275102	 2.1570900088	 0.109104
H	 1.4717788187	 2.8334114377	 3.1677225977	 0.120926
H	 3.7260193196	 1.7388566655	 1.9406881475	 0.112554
H	 2.2126958091	 0.8045043591	 2.0424912362	 0.119417
H	 1.4654037728	 2.8436618262	-1.0831303327	 0.096634
84.7144	128.3856	218.4358	231.3283	349.0685	373.5916	517.883	562.8605	616.8001	658.6318	674.3612	676.5611	787.5855	843.5948	862.608	901.7808	938.0876	963.8243	971.6683	990.8663	1024.5318	1069.7775	1105.4108	1140.1844	1184.848	1219.1216	1230.1491	1251.6106	1294.0792	1314.7015	1324.4215	1354.0513	1363.2259	1401.3094	1466.716	1521.9692	2234.7309	3005.1849	3039.0036	3053.3909	3072.4273	3106.209	3111.2385	3121.4559	3501.9247
C#CC1OC2CCOC12	C#C[C@H]1O[C@H]2CCO[C@@H]12	
InChI=1S/C7H8O2/c1-2-5-7-6(9-5)3-4-8-7/h1,5-7H,3-4H2	InChI=1S/C7H8O2/c1-2-5-7-6(9-5)3-4-8-7/h1,5-7H,3-4H2/t5-,6+,7+/m1/s1
