21
gdb 83795	2.59871	1.67859	1.39898	2.2764	81.64	-0.2034	0.0687	0.2722	1033.767	0.185626	-383.221316	-383.213495	-383.21255	-383.253201	31.7	
C	-0.5105180763	 1.3925763852	-0.1993926211	-0.319881
N	-0.0295543607	 0.0310562094	-0.0142556237	-0.110301
C	 1.3383087398	-0.3822333385	-0.3188340516	-0.038653
C	 2.4750905146	 0.5848657537	-0.6455015622	-0.237212
C	 3.5287618627	 0.6481252776	 0.480462176	-0.207102
C	 2.9089566704	 0.9621857515	 1.8267729169	-0.016487
N	 1.7940337979	 1.919076258	 1.8022254787	-0.34051
C	 1.5160989082	 0.4974285527	 2.1006646615	-0.049306
C	 0.8218709028	-0.383450437	 1.0912188062	-0.008707
H	 0.2111368933	 2.1811055004	 0.0315157755	 0.140678
H	-0.8454918426	 1.4957218073	-1.2375439986	 0.110439
H	-1.3845434856	 1.5351483539	 0.4452142476	 0.112023
H	 1.3875124713	-1.3326666086	-0.8486958252	 0.080687
H	 2.9606060444	 0.2692789772	-1.5736254858	 0.095059
H	 2.0873428906	 1.5914550493	-0.8205542553	 0.121478
H	 4.0546096277	-0.3129432439	 0.5584891272	 0.098449
H	 4.2855998163	 1.4025948668	 0.2343574681	 0.099041
H	 3.5968367401	 1.0070334357	 2.6683628319	 0.080136
H	 1.7604294989	 2.4594884473	 2.6616438753	 0.232266
H	 1.2715908287	 0.2607530264	 3.1333261502	 0.079163
H	 0.5149659875	-1.3307217445	 1.5358590583	 0.078741
139.6239	148.2352	222.8192	289.0376	296.0818	349.6182	457.2073	461.7262	526.2511	616.8028	673.1128	732.3719	765.2829	795.6141	819.1082	870.1688	902.3778	922.6899	953.5499	996.1321	1036.0002	1054.8785	1072.3348	1101.0618	1127.2953	1146.3686	1153.2102	1164.2728	1182.4215	1187.5211	1226.7048	1248.8961	1270.413	1342.8784	1355.064	1364.5031	1388.6466	1404.4462	1421.8129	1449.2352	1457.862	1476.6753	1486.2305	1491.7421	1517.1932	3018.5977	3024.043	3053.269	3062.0673	3086.7382	3088.5893	3095.6422	3101.0955	3110.5104	3125.1862	3136.7001	3512.5663
CN1C2CCC3NC3C12	CN1[C@H]2CC[C@H]3N[C@H]3[C@@H]12	
InChI=1S/C7H12N2/c1-9-5-3-2-4-6(8-4)7(5)9/h4-8H,2-3H2,1H3	InChI=1S/C7H12N2/c1-9-5-3-2-4-6(8-4)7(5)9/h4-8H,2-3H2,1H3/t4-,5+,6-,7+,9?/m1/s1
