21
gdb 111905	3.0549	1.10116	0.85857	2.6818	86.17	-0.235	-0.0151	0.2199	1412.101	0.181185	-387.138983	-387.129409	-387.128465	-387.173708	35.463	
C	 0.04572421	 1.622619861	 0.1320171658	-0.387595
C	-0.0160556298	 0.0960251439	 0.0358393666	-0.173046
C	 0.6697672013	-0.4791183808	-1.2265973004	-0.144095
C	 0.7989948884	-1.9798743967	-1.2350525717	-0.181861
C	 0.2089723445	-2.5740194611	-2.2774079754	 0.306906
C	 0.1519156269	-4.040469351	-2.5647539636	-0.486772
C	-0.4255858928	-1.5599925703	-3.1970239384	-0.412405
C	-0.132594946	-0.2145133942	-2.5169386478	 0.393475
O	-0.4856126365	 0.8629012673	-2.9243904137	-0.311692
H	 1.0842683082	 1.9686025644	 0.1865375029	 0.109584
H	-0.4144854113	 2.0885141302	-0.7419602917	 0.149886
H	-0.4709121654	 1.9763369324	 1.0297561318	 0.107095
H	 0.4661395101	-0.3524073418	 0.9135600545	 0.096332
H	-1.0592773999	-0.2434077497	 0.0581798384	 0.098462
H	 1.6496442296	 0.0128227393	-1.3274469491	 0.100479
H	 1.3200791774	-2.5138595723	-0.446121641	 0.090223
H	 0.6668692475	-4.620561434	-1.7940547727	 0.125085
H	-0.8857655934	-4.3934905718	-2.6227461884	 0.127673
H	 0.6125142278	-4.2734537779	-3.5333483815	 0.127486
H	-0.0018538154	-1.5649081295	-4.2106883076	 0.132657
H	-1.5080404612	-1.6954312974	-3.324644797	 0.132125
49.8497	106.9229	129.9585	185.9035	201.0745	260.5399	283.891	325.8974	370.4097	443.3149	491.0229	544.4692	595.0084	695.3812	728.8623	814.5577	837.498	889.2456	907.0296	942.9019	989.835	1033.0174	1041.1083	1049.4049	1104.2827	1108.1405	1136.9113	1169.8367	1186.4359	1254.6394	1270.5816	1283.3683	1331.8742	1352.5914	1363.3201	1412.851	1415.3831	1442.596	1477.5258	1488.1569	1489.9264	1496.8658	1513.4843	1716.6554	1839.6489	2988.3665	3015.2847	3019.5667	3021.0236	3035.0505	3045.0784	3054.3192	3062.6768	3097.8999	3110.0148	3134.3563	3175.281
CCC1C=C(C)CC1=O	CC[C@H]1C=C(C)CC1=O	
InChI=1S/C8H12O/c1-3-7-4-6(2)5-8(7)9/h4,7H,3,5H2,1-2H3	InChI=1S/C8H12O/c1-3-7-4-6(2)5-8(7)9/h4,7H,3,5H2,1-2H3/t7-/m0/s1
