13
gdb 20638	7.45485	1.2817	1.10116	3.2044	69.94	-0.2547	-0.0325	0.2223	1021.7467	0.094477	-361.433783	-361.426471	-361.425527	-361.46548	26.439	
C	 0.0499769684	 1.5026986158	-0.0100126872	-0.498768
C	-0.0849927819	 0.0232270907	 0.0554321587	 0.4354
C	-1.1120078207	-0.8380139871	-0.1640298783	-0.425615
C	-0.5408448745	-2.1238328567	 0.0793050719	 0.240077
N	 0.7334431219	-2.0304025442	 0.4186765898	-0.20402
O	 1.0156950039	-0.6744852408	 0.40204496	-0.198923
C	-1.1835034442	-3.3849913553	-0.0083630365	 0.256304
C	-1.7625282616	-4.4352998762	-0.0932724531	-0.387927
H	 0.8121198146	 1.7934622281	-0.7401290554	 0.155067
H	-0.9003235496	 1.9543615355	-0.299678665	 0.144915
H	 0.3496996349	 1.9109685352	 0.9605170612	 0.155055
H	-2.1237542517	-0.6122547719	-0.4540012281	 0.128132
H	-2.2613646396	-5.370349813	-0.1643445482	 0.200302
95.2666	136.2682	147.3258	269.7959	326.4772	473.3311	523.4795	550.9653	624.0043	641.454	670.6439	715.107	726.9116	822.6166	942.7613	1011.4077	1027.6552	1033.1988	1066.2031	1149.8739	1280.7368	1412.9145	1420.7846	1473.8173	1474.2879	1491.4029	1638.3498	2246.3323	3044.6726	3102.3785	3141.3551	3286.2035	3502.4099
CC1=CC(=NO1)C#C	Cc1cc(no1)C#C	
InChI=1S/C6H5NO/c1-3-6-4-5(2)8-7-6/h1,4H,2H3	InChI=1S/C6H5NO/c1-3-6-4-5(2)8-7-6/h1,4H,2H3
