26
gdb 6799	5.69688	0.62454	0.58756	0.0898	90.06	-0.2959	0.0861	0.382	2037.377	0.244806	-315.494718	-315.483612	-315.482668	-315.531516	39.781	
C	 0.0314990473	 1.6388837744	-0.050984982	-0.378898
C	-0.0016021159	 0.1086280264	-0.0136204108	-0.163561
C	 0.7201470513	-0.4821005591	 1.2023362473	-0.156574
C	 0.6939528234	-2.0141281362	 1.2468097807	-0.188633
C	 1.4172297582	-2.5929496023	 2.4686451006	-0.164616
C	 1.5100086007	-4.1292899211	 2.5148848375	 0.043495
C	 2.4251622101	-4.5774322126	 3.6627902243	-0.387466
C	 0.1332754996	-4.7990931898	 2.6324358864	-0.379862
H	 1.061356266	 2.0120488512	-0.083668559	 0.112299
H	-0.4916106298	 2.0302895943	-0.9292752828	 0.109348
H	-0.4448190182	 2.067062546	 0.8381974965	 0.112295
H	-1.0444860974	-0.2356752015	-0.0176444446	 0.09265
H	 0.4508404107	-0.2902003407	-0.9314122744	 0.092608
H	 1.763212367	-0.1352742868	 1.2080316881	 0.089373
H	 0.266820434	-0.0838947835	 2.1211855015	 0.089801
H	-0.3500409865	-2.3518153846	 1.2311189271	 0.094699
H	 1.1549676067	-2.4105826243	 0.3308956519	 0.089069
H	 2.4359701998	-2.1822359792	 2.4981012269	 0.085906
H	 0.924370461	-2.2380594573	 3.3859201515	 0.086652
H	 1.9675047771	-4.4629453738	 1.5715369037	 0.068001
H	 2.0181528655	-4.2651653385	 4.6322691545	 0.109773
H	 2.5324336227	-5.6671019428	 3.6851438565	 0.106675
H	 3.4260780196	-4.1428786848	 3.568547556	 0.107404
H	-0.3778857964	-4.4800172614	 3.5492596948	 0.108669
H	-0.5167863332	-4.5564020351	 1.7870014449	 0.113171
H	 0.2298730467	-5.889367377	 2.6713377027	 0.107722
47.7792	63.4317	96.0278	133.8397	137.8646	218.7444	233.4984	245.7396	248.8192	282.1919	371.3039	400.6983	447.7778	491.3815	731.8732	756.4791	815.2215	844.2687	900.7463	925.8647	940.672	959.9475	969.1804	1010.5467	1044.4657	1058.1834	1068.2727	1102.2836	1161.3519	1192.7106	1205.3491	1241.1133	1264.1659	1300.5633	1325.2759	1330.5	1334.1818	1362.5889	1371.9148	1395.0458	1397.9792	1402.1172	1412.6012	1422.6271	1477.1331	1483.1971	1487.6688	1489.4823	1495.519	1499.5419	1503.955	1504.8274	1510.7362	1514.591	2989.8813	2997.2743	3000.2857	3008.2105	3016.1165	3021.4497	3023.7726	3027.1891	3027.9856	3029.0445	3046.0771	3063.6544	3085.204	3091.2683	3094.1341	3096.0925	3099.3557	3106.4721
CCCCCC(C)C	CCCCCC(C)C	
InChI=1S/C8H18/c1-4-5-6-7-8(2)3/h8H,4-7H2,1-3H3	InChI=1S/C8H18/c1-4-5-6-7-8(2)3/h8H,4-7H2,1-3H3
