14
gdb 5451	3.38562	1.97019	1.25512	4.2888	72.56	-0.2278	-0.018	0.2098	910.3682	0.109026	-341.649244	-341.641917	-341.640973	-341.681062	26.566	
C	-0.0018089396	 1.5312490172	 0.0425568602	-0.517631
C	 0.0163648509	 0.0345601918	 0.0297203382	 0.201811
C	-0.0062112324	-0.7752888137	-1.1005414156	 0.139719
N	 0.0224917222	-2.0939562375	-0.6851756839	-0.311104
C	 0.062171227	-2.1359671618	 0.6739888925	-0.074047
C	 0.0596064192	-0.839507046	 1.1454864112	-0.218781
C	-0.0500894509	-0.4259821057	-2.4655572029	 0.201775
N	-0.0860798406	-0.1407515195	-3.5897363163	-0.360523
H	 0.8893260539	 1.9357973255	 0.5349098613	 0.135958
H	-0.0363657417	 1.9339487579	-0.972791633	 0.145271
H	-0.8725412368	 1.9139401293	 0.5862163461	 0.135953
H	 0.0130747946	-2.8872005144	-1.3029304706	 0.278799
H	 0.0892117069	-3.0772537494	 1.1993447325	 0.135206
H	 0.0861421374	-0.5462377435	 2.1838678304	 0.107594
85.0168	142.6356	160.3508	261.6606	322.8589	475.3691	516.7582	543.8325	594.1341	637.2193	692.631	694.1205	757.6148	844.572	916.5764	996.5592	1062.492	1076.5287	1121.6085	1193.9254	1262.4091	1308.0366	1420.1026	1436.9285	1475.1224	1484.2684	1495.7015	1503.6981	1603.5532	2328.095	3034.2406	3086.2182	3121.0477	3248.1151	3271.7836	3681.3109
CC1=C(NC=C1)C#N	Cc1c([nH]cc1)C#N	
InChI=1S/C6H6N2/c1-5-2-3-8-6(5)4-7/h2-3,8H,1H3	InChI=1S/C6H6N2/c1-5-2-3-8-6(5)4-7/h2-3,8H,1H3
