18
gdb 112335	2.03449	1.54162	0.92671	2.8373	78.17	-0.2438	-0.0297	0.2141	1250.9665	0.147593	-439.114811	-439.105978	-439.105034	-439.148517	32.678	
C	-0.0652079202	 1.4996993412	-0.0000230142	-0.501736
C	-0.0086404888	 0.0086982596	-0.0227289718	 0.311616
C	-0.0252071938	-0.8225057222	-1.0695339593	-0.282327
C	 0.0288261382	-2.2097824359	-0.6037370779	 0.408633
N	 0.0291856461	-3.2600123299	-1.3098013134	-0.549629
O	 0.0738396501	-2.1843510502	 0.7764119715	-0.273284
C	 0.0783007038	-0.820566418	 1.235102571	-0.020517
C	 1.3461246273	-0.6108195634	 2.0701519654	-0.061373
O	 1.3918615573	-1.4994647046	 3.1634847105	-0.416978
H	 0.8432349966	 1.9273826267	 0.4412556406	 0.144027
H	-0.1773394326	 1.9077645129	-1.0069044201	 0.141012
H	-0.9057480316	 1.851943943	 0.6102198777	 0.141369
H	-0.0780474653	-0.5692741239	-2.1185436582	 0.127518
H	 0.0684418552	-4.0918606182	-0.719252074	 0.220489
H	-0.7965228699	-0.6807277195	 1.8859213063	 0.106897
H	 2.2227166028	-0.7188399231	 1.4117613454	 0.097132
H	 1.3540637384	 0.4029349022	 2.4841474515	 0.112611
H	 1.3030786062	-2.3873877165	 2.7976671691	 0.294541
94.6814	137.137	145.5026	170.6261	191.3597	262.285	356.3088	412.6249	442.9234	531.4378	537.3824	584.0305	680.6074	701.7922	846.407	859.1685	900.0389	929.2013	967.2528	1001.765	1049.6846	1059.4418	1075.5307	1094.7708	1101.8408	1181.1068	1220.9762	1245.3075	1300.7397	1347.2741	1367.5108	1388.5024	1416.2719	1429.4998	1479.5819	1483.9756	1498.1522	1701.3108	1761.8161	2981.8124	3014.8196	3026.7407	3074.3429	3079.2173	3125.538	3246.4548	3481.4716	3799.3947
CC1=CC(=N)OC1CO	C[C]1C=C([NH])O[C@H]1CO	
InChI=1S/C6H9NO2/c1-4-2-6(7)9-5(4)3-8/h2,5,7-8H,3H2,1H3	InChI=1S/C6H9NO2/c1-4-2-6(7)9-5(4)3-8/h2,5,7-8H,3H2,1H3/t5-/m0/s1
