13
gdb 16130	4.30981	1.92974	1.5676	2.5445	59.59	-0.2569	-0.0352	0.2217	784.3273	0.09579	-398.598749	-398.592422	-398.591478	-398.629312	23.596	
O	-0.0704491236	-0.0137275117	 0.1476664654	-0.259784
C	 0.0141587181	 1.1752627432	-0.0199065474	 0.086812
C	 1.2714679855	 1.9442514095	-0.0428597501	 0.303644
C	 1.3293539403	 3.4250251748	 0.2626884393	-0.348369
C	 1.6702840786	 2.9887004886	-1.12844877	-0.051637
N	 3.0529147729	 2.7124429606	-1.4061033347	-0.246984
C	 3.392921035	 1.7655019724	-0.6271342521	 0.09966
O	 2.4589948415	 1.2162351939	 0.1915650811	-0.222557
H	-0.8813175435	 1.8181910713	-0.1828325798	 0.077098
H	 0.3691955719	 3.9111789034	 0.4005841616	 0.137979
H	 2.1254175188	 3.7681745536	 0.9144803507	 0.143552
H	 1.0384537048	 3.2621366731	-1.96478476	 0.123456
H	 4.37996569	 1.3283590875	-0.5460379541	 0.15713
115.2674	202.9639	249.6286	385.5758	397.284	502.4945	609.4609	677.8288	734.8052	793.9371	869.9381	914.908	937.7131	955.0722	1010.4926	1044.1835	1056.1816	1077.0884	1123.3194	1143.9289	1224.7204	1293.2773	1325.7729	1359.1389	1435.7717	1457.557	1665.6591	1823.3995	2868.2871	3132.8309	3190.3612	3227.9614	3240.1821
O=CC12CC1N=CO2	O=C[C@]12C[C@H]1N=CO2	
InChI=1S/C5H5NO2/c7-2-5-1-4(5)6-3-8-5/h2-4H,1H2	InChI=1S/C5H5NO2/c7-2-5-1-4(5)6-3-8-5/h2-4H,1H2/t4-,5-/m1/s1
