17
gdb 48948	3.64053	1.38613	1.3355	2.9833	72.53	-0.2424	-0.0185	0.2239	994.7441	0.137993	-421.838588	-421.831852	-421.830908	-421.869816	27.036	
O	-0.1614499464	 0.0828481141	 0.2938494741	-0.270276
C	 0.0358873565	 1.2155534871	-0.0818816192	 0.042152
C	 1.3341070199	 1.8897274937	-0.0469105541	 0.222765
C	 2.6260645759	 1.2667356994	 0.4580579834	-0.286843
C	 3.4741790629	 2.5479585543	 0.3185591847	 0.043135
C	 3.2505958418	 2.9493516995	-1.156307542	-0.230555
C	 1.7290387165	 2.9966111918	-1.0613871795	-0.170899
C	 1.4658098831	 3.3769067214	 0.3546591245	 0.059225
O	 2.6859929694	 3.5245938761	 1.0343503466	-0.252361
H	-0.7968138253	 1.8378383382	-0.4869687988	 0.060258
H	 2.5473183472	 0.9266965973	 1.4927649138	 0.123723
H	 2.9844740391	 0.4458219986	-0.1674250422	 0.115199
H	 4.4901899247	 2.543897866	 0.7052043621	 0.091498
H	 3.681720723	 3.9263020887	-1.3913226736	 0.115799
H	 3.6259189554	 2.2022922168	-1.8597153854	 0.113088
H	 1.0764792982	 3.2696792705	-1.87967678	 0.104169
H	 0.6515135181	 3.9841568666	 0.7232136755	 0.119925
103.2828	184.384	260.7464	408.6799	426.4225	467.9777	554.4114	645.6551	672.7965	771.1442	810.2983	830.957	889.5968	897.6166	908.9372	945.2233	966.6459	976.968	1001.9966	1023.0236	1053.1193	1071.9672	1087.2896	1127.6469	1149.1691	1172.4069	1228.1227	1251.6529	1277.4716	1285.6386	1328.6664	1348.9632	1391.688	1440.5311	1475.6667	1494.7729	1799.1812	2849.0352	3065.8993	3076.6117	3119.943	3129.3953	3160.4799	3210.2189	3229.6022
O=CC12CC3CC1C2O3	O=C[C@@]12C[C@H]3C[C@@H]1[C@@H]2O3	
InChI=1S/C7H8O2/c8-3-7-2-4-1-5(7)6(7)9-4/h3-6H,1-2H2	InChI=1S/C7H8O2/c8-3-7-2-4-1-5(7)6(7)9-4/h3-6H,1-2H2/t4-,5-,6+,7+/m1/s1
