17
gdb 19096	3.6321	2.80014	2.78327	1.6181	69.65	-0.2046	0.0786	0.2832	647.3316	0.146011	-326.633713	-326.62869	-326.627745	-326.662366	22.449	
C	-0.0216908611	 1.5358758429	 0.0769537072	-0.241168
C	 1.5183869926	 1.4670859803	-0.0208311595	-0.045564
C	 2.1518897879	 0.734548798	 1.2343370886	-0.062747
C	 1.0528466071	 0.2311794704	 2.1815692567	-0.176647
N	 0.5904315559	-0.7442300066	 1.1329570322	-0.164381
C	-0.0215563107	-0.0022985714	-0.059581722	 0.002825
C	 1.3794945289	 0.076132897	-0.7490226349	-0.053016
C	 1.9698002998	-0.6234764008	 0.4855693327	 0.009075
H	-0.4952972794	 2.0091390669	 0.9421370566	 0.097036
H	-0.4401101353	 1.9763057938	-0.8345356079	 0.099988
H	 2.0807239089	 2.3093686992	-0.4223374675	 0.065443
H	 3.0966909664	 1.1301424553	 1.612433496	 0.060683
H	 1.4643621199	-0.33822351	 3.0218633515	 0.104128
H	 0.2971171849	 0.9220596386	 2.5666529239	 0.100837
H	-0.8994710738	-0.5141025372	-0.4564758425	 0.072027
H	 1.5903369331	-0.1111551576	-1.7998966329	 0.065327
H	 2.6415087449	-1.4822434788	 0.5273474218	 0.066154
394.1672	428.9937	458.9769	621.7075	694.6843	724.4907	764.9622	790.4048	808.1833	835.9297	870.3631	894.9419	931.5525	953.2613	959.0813	963.0634	990.1981	1011.4554	1037.6885	1099.9216	1105.0686	1121.3315	1158.6446	1178.1104	1184.6157	1191.7462	1211.4864	1232.7691	1241.9971	1269.8976	1279.2209	1288.7139	1315.7962	1316.3167	1475.3552	1516.8772	3037.6519	3044.4366	3079.0852	3085.5214	3089.5637	3094.079	3094.6741	3111.6803	3132.9642
C1C2C3CN4C1C2C34	C1[C@H]2[C@H]3CN4[C@@H]1[C@@H]2[C@@H]34	
InChI=1S/C7H9N/c1-3-4-2-8-5(1)6(3)7(4)8/h3-7H,1-2H2	InChI=1S/C7H9N/c1-3-4-2-8-5(1)6(3)7(4)8/h3-7H,1-2H2/t3-,4+,5-,6+,7+/m0/s1
