20
gdb 59814	4.43573	0.61804	0.61694	0.4846	82.79	-0.2598	-0.0176	0.2422	1935.6131	0.166931	-440.333789	-440.322977	-440.322033	-440.371056	37.299	
C	-0.1359749724	 1.5338367298	 0.1551480903	-0.370448
C	-0.0389262593	 0.0081904407	 0.043790356	 0.056527
C	 0.7484264033	-0.5933343919	 1.2132454182	-0.37042
N	-1.3895999138	-0.5484618238	 0.0529976546	-0.19842
C	-1.751269382	-1.2017831639	-0.9532270329	 0.099778
O	-3.0201364658	-1.7353009555	-0.9676281156	-0.221727
C	-3.4054960381	-2.4537384135	-2.0736040869	 0.439528
C	-4.8169100704	-2.9427302152	-1.8916765096	-0.482696
O	-2.7020287928	-2.6463586839	-3.0266969878	-0.329449
H	 0.8630201272	 1.9806591242	 0.17456136	 0.111671
H	-0.6845213784	 1.9536606681	-0.6930764275	 0.115067
H	-0.6623734767	 1.814818395	 1.0724223584	 0.12696
H	 0.4836993765	-0.242079126	-0.8960312596	 0.064727
H	 0.8246874594	-1.6801710297	 1.11531138	 0.115106
H	 1.7607614252	-0.1785491319	 1.2465681485	 0.11171
H	 0.2486888422	-0.3721224078	 2.1612954151	 0.126928
H	-1.175952036	-1.4150000605	-1.856486414	 0.133515
H	-5.4889091602	-2.091631011	-1.748837892	 0.159713
H	-5.1183235408	-3.5170846314	-2.7664597296	 0.152271
H	-4.8833298572	-3.5607740818	-0.9918305856	 0.15966
35.7377	64.5442	92.5359	116.2091	123.425	214.9317	240.0611	264.8735	275.6186	302.4076	391.3799	476.5323	515.5186	535.4392	595.9939	649.9689	831.6733	924.2482	931.2489	957.0842	998.9093	1002.9204	1003.4304	1064.0546	1135.2713	1140.4655	1170.5091	1204.2861	1234.6054	1348.1022	1355.2614	1394.8485	1395.0202	1400.7807	1415.0789	1466.4795	1473.2248	1481.0495	1487.4012	1493.9941	1510.7866	1768.1972	1845.9151	2943.4585	3035.9419	3040.0955	3058.6388	3109.973	3113.4844	3113.6293	3113.843	3118.2243	3123.6532	3173.0965
CC(C)N=COC(C)=O	CC(C)N=COC(=O)C	
InChI=1S/C6H11NO2/c1-5(2)7-4-9-6(3)8/h4-5H,1-3H3	InChI=1S/C6H11NO2/c1-5(2)7-4-9-6(3)8/h4-5H,1-3H3
