23
gdb 103168	1.97901	1.47964	1.07808	2.2849	81.89	-0.2455	0.0586	0.3041	1262.1018	0.203726	-425.422646	-425.412152	-425.411208	-425.457562	39.582	
C	-0.0767436056	 1.5937954689	-0.0561495568	-0.422496
C	 0.0382358355	 0.0790414449	-0.0270887436	 0.010087
C	 1.0915288038	-0.6218172008	-0.9291254249	-0.261955
C	 1.3940603621	-1.6098516843	 0.2320298251	-0.008774
C	 2.8287841686	-2.0425783417	 0.4910233052	-0.406993
C	 0.7242479041	-0.6019123104	 1.2109192187	 0.39994
O	 1.7171441725	 0.2181754277	 1.8019254677	-0.484313
C	-0.1743352914	-1.1614874671	 2.3011278294	-0.156711
O	-0.6870411469	-0.0392553801	 3.0214290425	-0.436052
H	 0.8893248485	 2.0540683068	 0.1707868159	 0.121083
H	-0.3983023795	 1.9438965897	-1.0432318997	 0.106707
H	-0.8042238334	 1.9491455301	 0.6815823699	 0.117807
H	-0.9456323421	-0.3786677641	-0.1832580224	 0.060422
H	 0.7497799529	-1.0433143238	-1.8779602413	 0.087366
H	 1.9473317394	 0.0325023927	-1.1238037097	 0.103331
H	 0.745642403	-2.4900461447	 0.1411963168	 0.062889
H	 3.473160027	-1.1736991138	 0.6439562863	 0.133491
H	 2.9052799198	-2.6751718056	 1.3823336992	 0.106758
H	 3.2152496596	-2.6165690779	-0.358439922	 0.106423
H	 1.2514792299	 0.7510415352	 2.4595023748	 0.285777
H	-0.9878790571	-1.7560937553	 1.8605695865	 0.087354
H	 0.4160525254	-1.8147740371	 2.9612263041	 0.093564
H	-1.0792541561	-0.3496750394	 3.8419540382	 0.294295
77.7766	99.3728	170.8023	193.888	209.7893	230.6798	254.2765	273.0685	301.0235	319.0332	405.6973	435.6509	464.1529	502.2221	560.0761	627.3559	715.7325	830.1678	881.7429	904.9958	910.0407	963.5352	984.1414	1015.5547	1039.5448	1071.2096	1102.9973	1122.092	1150.835	1172.9075	1181.8734	1207.8506	1237.5885	1253.9934	1265.1826	1279.6217	1319.6602	1344.2071	1375.2397	1401.095	1409.4769	1411.3891	1448.4697	1488.2	1489.1393	1492.1395	1499.9856	1506.8767	1507.584	2981.1084	3019.9674	3025.5549	3030.3986	3033.0137	3036.8286	3050.1494	3089.9865	3094.4994	3103.3524	3112.6598	3125.3598	3770.6885	3841.9283
CC1CC(C)C1(O)CO	C[C@H]1C[C@@H](C)[C@]1(O)CO	
InChI=1S/C7H14O2/c1-5-3-6(2)7(5,9)4-8/h5-6,8-9H,3-4H2,1-2H3	InChI=1S/C7H14O2/c1-5-3-6(2)7(5,9)4-8/h5-6,8-9H,3-4H2,1-2H3/t5-,6+,7-
