15
gdb 131203	3.38631	1.59304	1.10533	4.4228	68.08	-0.1966	0.011	0.2076	1027.0883	0.116313	-450.110906	-450.103854	-450.10291	-450.142376	26.923	
O	 0.0428267722	 1.381289277	 0.0133854926	-0.442236
C	 0.0201013015	 0.0311314118	-0.0755206653	 0.234656
C	 0.1481045939	-0.7607932973	-1.194796232	 0.306094
N	 0.4515949068	-0.786712075	-2.5609850613	-0.423718
C	 0.104685635	-2.1656807193	-3.0009058705	-0.181759
C	 0.2611236652	-3.0288457877	-1.718186713	-0.171258
N	 0.0203686898	-2.0139062547	-0.7075952449	 0.063343
N	-0.1431954251	-2.0430165668	 0.6249094294	-0.201082
N	-0.1632238859	-0.779470024	 0.9969759596	-0.277379
H	-0.0873365301	 1.5930458011	 0.9462483236	 0.30437
H	 0.0022840605	-0.062471056	-3.106459959	 0.252787
H	-0.9322655232	-2.2236629396	-3.3576754356	 0.120616
H	 0.7679998248	-2.4949479172	-3.8033040948	 0.129319
H	-0.462250775	-3.8434792158	-1.6603413102	 0.145233
H	 1.2719205198	-3.4380906266	-1.6153765588	 0.141013
138.2455	176.5741	263.9	274.0643	328.0663	392.3084	509.0635	579.646	641.9903	666.2805	692.4111	710.8951	804.0365	867.5095	891.7263	951.5844	1032.233	1111.0787	1121.5104	1148.7019	1194.1618	1225.6779	1250.2582	1280.7802	1327.6002	1334.1	1358.2514	1391.2833	1447.4344	1504.1823	1521.2085	1550.8197	1707.8207	3014.8988	3050.4121	3105.1541	3124.772	3568.0429	3796.6975
OC1=C2NCCN2N=N1	Oc1c2NCCn2nn1	
InChI=1S/C4H6N4O/c9-4-3-5-1-2-8(3)7-6-4/h5,9H,1-2H2	InChI=1S/C4H6N4O/c9-4-3-5-1-2-8(3)7-6-4/h5,9H,1-2H2
