18
gdb 20095	4.33142	1.65563	1.48012	1.5101	72.28	-0.2239	0.0785	0.3024	916.5813	0.154275	-347.746061	-347.738921	-347.737977	-347.777515	27.902	
C	-0.1546264794	 1.4461543782	-0.0763768216	-0.268972
C	 1.2340173193	 0.9174361755	 0.1766316205	-0.26544
C	 0.0743382286	-0.0416995677	 0.0270770776	-0.107184
C	-0.39735558	-0.7898786772	 1.2138782138	 0.492275
C	-0.387422059	-2.2734478914	 1.4170642922	-0.338977
C	-1.683656827	-1.5028109994	 1.5998944418	-0.188401
C	-1.5932425138	-0.6932507449	 2.8834924787	-0.087427
O	-0.3139953041	-0.1251114925	 2.4863517687	-0.324525
H	-0.6575981151	 1.925576779	 0.7554138344	 0.122477
H	-0.3849047498	 1.8596455538	-1.0519009392	 0.106855
H	 1.9647969314	 0.961024703	-0.623025781	 0.109215
H	 1.6394201028	 1.0480643827	 1.1730650363	 0.133102
H	 0.0315797731	-0.614160117	-0.8944506875	 0.083843
H	-0.3441138377	-2.8690484821	 0.5100313823	 0.112621
H	 0.129963374	-2.6996443217	 2.2733473597	 0.111062
H	-2.5813593097	-1.7034898793	 1.0310103811	 0.098699
H	-2.3524650272	 0.0925297991	 2.9663557619	 0.107884
H	-1.5229434965	-1.2410173479	 3.8312390202	 0.102892
78.1212	163.642	190.282	319.4141	381.6572	420.5429	502.3513	634.9867	751.5866	791.2032	807.0413	840.0923	861.3376	916.4192	940.0901	948.9931	972.5202	987.7335	1001.9768	1020.7505	1052.4486	1066.5363	1075.9339	1085.4661	1124.4199	1129.8358	1166.673	1201.7023	1205.2678	1219.2086	1279.2796	1323.7437	1345.3581	1440.3092	1460.2009	1485.2649	1510.9404	1521.7491	3020.6799	3069.5027	3106.7943	3137.8492	3141.7793	3155.1394	3197.4418	3205.7925	3222.3723	3236.6567
C1CC1C12CC1CO2	C1CC1[C@]12C[C@H]1CO2	
InChI=1S/C7H10O/c1-2-5(1)7-3-6(7)4-8-7/h5-6H,1-4H2	InChI=1S/C7H10O/c1-2-5(1)7-3-6(7)4-8-7/h5-6H,1-4H2/t6-,7+/m0/s1
