18
gdb 36130	3.90804	1.10255	0.98501	4.2085	80.96	-0.2424	0.008	0.2504	1219.6392	0.148918	-364.828681	-364.820782	-364.819838	-364.861504	30.43	
N	-0.1490428671	-1.1235499528	 0.387417376	-0.312334
C	-0.105464849	 0.0018491664	 0.1287104872	 0.26776
C	-0.0259928808	 1.4261298357	-0.2072122782	-0.442766
C	 1.3970815314	 1.9576083084	-0.1608636834	 0.338794
C	 1.9935602204	 2.4403189551	 1.1457827331	-0.308538
C	 1.7238670715	 3.4310931976	 0.0390745508	-0.110022
C	 2.8639622228	 3.7876600831	-0.9147841104	-0.277992
C	 3.2198531344	 2.4587935656	-1.5498980824	-0.076996
C	 2.4050774927	 1.4777290218	-1.1576448746	-0.145216
H	-0.4584566577	 1.567097514	-1.2053306955	 0.152742
H	-0.6597360862	 1.9806963722	 0.4935929537	 0.149031
H	 1.3383738043	 2.4868328547	 2.0105393078	 0.114211
H	 3.0169402121	 2.1579990096	 1.3692715322	 0.120588
H	 0.9297942252	 4.1521515475	 0.1977672008	 0.088543
H	 2.5462114339	 4.5196027612	-1.6693767778	 0.111467
H	 3.7178683988	 4.2371273627	-0.3918664776	 0.116132
H	 4.0621518314	 2.3414764574	-2.2220964725	 0.100761
H	 2.4590207118	 0.4412062399	-1.4711144393	 0.113836
56.731	111.1794	228.1015	264.8021	324.9619	390.925	409.7254	450.0146	494.4167	686.4405	725.2221	752.4677	769.5258	844.3815	878.8245	915.6257	925.5895	942.7444	957.7496	968.1424	984.8801	1035.8532	1062.3924	1074.0364	1090.5277	1135.9754	1184.4765	1203.371	1251.839	1291.0677	1314.779	1332.6651	1367.3985	1405.1496	1458.9337	1474.029	1486.946	1671.6913	2360.838	3016.6058	3035.933	3045.1445	3077.4916	3122.7358	3171.3066	3188.9096	3211.9594	3212.9797
N#CCC12CC1CC=C2	N#CC[C@]12C[C@H]1CC=C2	
InChI=1S/C8H9N/c9-5-4-8-3-1-2-7(8)6-8/h1,3,7H,2,4,6H2	InChI=1S/C8H9N/c9-5-4-8-3-1-2-7(8)6-8/h1,3,7H,2,4,6H2/t7-,8-/m1/s1
