21
gdb 109008	3.49713	1.22508	1.18163	0.2871	87.24	-0.2113	0.0034	0.2147	1178.9259	0.184734	-349.953563	-349.945749	-349.944804	-349.985872	31.762	
C	 0.0589266864	 1.5190288526	 0.26647318	-0.372152
C	-0.0441884654	 0.0380933159	-0.1399744868	-0.311465
C	-1.4432726425	-0.4887834076	-0.1308573511	 0.377158
C	-2.1856791333	-0.96344103	-1.1337872605	-0.211978
C	-3.5227426595	-1.4499645199	-0.5410883177	-0.10118
C	-3.69858682	-0.350353583	 0.5496620763	-0.194826
C	-2.2962729134	-0.6548612353	 1.1552283188	-0.15751
C	-2.474889062	-2.1678722244	 1.3958384746	-0.080997
C	-3.2073181305	-2.6414459026	 0.3882751588	-0.068992
H	 1.1012088478	 1.8528233399	 0.2611338121	 0.111426
H	-0.5055947323	 2.1516337751	-0.4254948478	 0.119731
H	-0.3395605649	 1.6876615606	 1.2720845228	 0.118607
H	 0.3873467154	-0.0961681621	-1.1386579954	 0.101426
H	 0.5725978206	-0.559934147	 0.5471118906	 0.10138
H	-1.901503232	-1.0681873342	-2.1730920986	 0.089639
H	-4.3362116057	-1.5988107333	-1.2507734422	 0.055413
H	-3.7820877881	 0.6579960184	 0.1346913464	 0.090388
H	-4.5206451953	-0.5530849664	 1.2421711765	 0.090233
H	-1.974888461	-0.0711018561	 2.0180844959	 0.054529
H	-2.0296418197	-2.7137264796	 2.2167982658	 0.09437
H	-3.4976060245	-3.6649752509	 0.1924513714	 0.094801
79.658	129.2294	201.6973	269.4038	349.0094	448.084	489.0901	533.8832	567.083	637.1501	723.1186	750.133	790.225	803.19	828.7826	859.1273	892.0694	897.7609	920.8782	922.8751	939.7631	959.7019	964.8828	1040.0253	1056.4515	1089.4444	1103.0624	1131.0752	1151.7394	1207.4481	1231.5062	1241.2851	1264.1627	1271.9334	1284.5063	1307.3955	1340.055	1353.0829	1408.9378	1478.1099	1491.4217	1498.5847	1506.659	1633.1157	1695.8203	2998.7478	3036.3891	3049.971	3054.6572	3105.2052	3109.0557	3110.8738	3112.7045	3117.0151	3207.3234	3210.0817	3234.2634
CCC1=CC2CC1C=C2	CCC1=C[C@@H]2C[C@H]1C=C2	
InChI=1S/C9H12/c1-2-8-5-7-3-4-9(8)6-7/h3-5,7,9H,2,6H2,1H3	InChI=1S/C9H12/c1-2-8-5-7-3-4-9(8)6-7/h3-5,7,9H,2,6H2,1H3/t7-,9-/m1/s1
