22
gdb 120875	4.88125	0.78112	0.73508	1.8828	83.59	-0.2028	0.0783	0.2811	1625.4984	0.192791	-404.297089	-404.287442	-404.286498	-404.33172	36.366	
C	-0.1579821824	 1.5345682587	-0.0745352566	-0.380391
C	 0.077306573	 0.0232957248	-0.0162226158	-0.167819
C	 0.6528796398	-0.4349687408	 1.3249766107	-0.128117
N	 0.8457001504	-1.876116811	 1.3602084033	-0.072442
C	 1.984246864	-2.4730232149	 0.5964664563	-0.24916
C	 2.456825549	-3.1661753619	 1.8807117695	 0.372628
O	 2.8418904016	-4.4900254033	 1.9597408186	-0.461097
C	 2.7567820357	-2.1397250718	 2.943901133	-0.360505
C	 1.3157679178	-2.4905103448	 2.5995322694	-0.068555
H	 0.7738432396	 2.08965236	 0.0816409176	 0.112984
H	-0.564953292	 1.836046811	-1.0444137484	 0.113054
H	-0.8661800502	 1.8566682511	 0.697202371	 0.114368
H	-0.8587265473	-0.5174382515	-0.1965025544	 0.105374
H	 0.7624038584	-0.272207192	-0.8217489876	 0.096199
H	 1.5841149656	 0.1275086072	 1.5335910052	 0.070355
H	-0.0481378281	-0.1804708307	 2.1305840783	 0.097992
H	 1.6409916273	-3.168524931	-0.1758276006	 0.112145
H	 2.6829355503	-1.7497168268	 0.1532312059	 0.088597
H	 3.8029602861	-4.5286574037	 1.9061625507	 0.286589
H	 3.0971076636	-2.5667895726	 3.8825815716	 0.113536
H	 3.1843364323	-1.1711374568	 2.6977359186	 0.105189
H	 0.6178433756	-2.8695917794	 3.3381474137	 0.099077
74.2703	91.3304	107.5125	190.0464	237.623	261.5979	294.2429	319.1907	399.4583	410.9245	429.1837	511.2665	628.2745	711.1506	755.2767	842.1851	852.8274	891.1946	898.0537	936.377	973.2298	979.7576	1012.3082	1040.5896	1046.7455	1081.5829	1083.349	1127.6392	1141.6568	1193.3557	1207.3241	1225.9489	1271.7629	1276.5647	1291.6883	1322.0305	1328.3282	1334.7163	1406.0271	1413.5628	1420.7328	1484.5606	1486.7218	1495.5342	1500.1813	1508.5466	1514.5722	2906.6026	3001.9374	3020.8675	3029.1571	3036.3968	3064.8023	3073.7944	3095.8919	3103.7891	3111.1217	3169.5616	3203.4081	3796.9287
CCCN1CC2(O)CC12	CCCN1C[C@@]2(O)C[C@@H]12	
InChI=1S/C7H13NO/c1-2-3-8-5-7(9)4-6(7)8/h6,9H,2-5H2,1H3	InChI=1S/C7H13NO/c1-2-3-8-5-7(9)4-6(7)8/h6,9H,2-5H2,1H3/t6-,7+/m1/s1
