12
gdb 21249	3.6663	1.93697	1.27768	2.6157	54.84	-0.219	-0.0278	0.1912	873.9697	0.082132	-451.752171	-451.744667	-451.743722	-451.784379	25.894	
C	 0.0547884279	 1.4784915919	-0.0237119056	-0.25423
O	-0.0137843569	 0.0456376199	-0.0012566135	-0.25592
C	 0.5516877887	-0.5954547191	-1.0120566489	 0.438131
C	 0.644946663	-1.9420648729	-1.261143677	 0.193371
O	 0.1717228311	-2.9651534971	-0.5187923443	-0.42954
N	 1.3193693958	-2.0794550519	-2.4250846749	-0.183423
N	 1.6492957112	-0.9559445791	-2.9152504724	-0.047966
O	 1.1546276731	 0.0547161942	-2.0013695594	-0.223982
H	 1.0949311246	 1.8163707127	-0.0110328617	 0.149883
H	-0.4461237649	 1.8760175851	-0.9110000912	 0.149882
H	-0.4593806605	 1.8074034422	 0.8785224147	 0.151123
H	 0.4058060671	-3.7826852359	-0.9737532758	 0.31267
69.4008	160.8333	189.7067	217.3842	278.1265	327.6166	371.4351	538.4918	635.1454	647.7182	662.9169	707.9767	792.924	986.9884	1040.625	1162.1899	1176.1253	1205.4318	1287.1257	1363.4951	1411.0623	1442.9697	1486.5692	1497.8226	1515.3428	1730.9808	3044.7252	3119.2194	3165.9784	3815.5287
COC1=C(O)N=NO1	COc1c(O)nno1	
InChI=1S/C3H4N2O3/c1-7-3-2(6)4-5-8-3/h6H,1H3	InChI=1S/C3H4N2O3/c1-7-3-2(6)4-5-8-3/h6H,1H3
