16
gdb 19885	3.45857	2.23594	2.08205	1.6088	62.45	-0.2347	0.0768	0.3115	735.9369	0.131846	-383.688955	-383.682644	-383.6817	-383.719043	25.769	
O	 0.1789797024	 1.3928529484	-0.0156758464	-0.426389
C	-0.013068884	 0.0132180168	-0.0341805757	 0.098461
C	-0.4613252024	-0.6951083842	 1.2069896427	 0.011052
O	-1.0349952886	 0.1665037495	 2.1721765862	-0.27658
C	-2.3909488075	 0.4358069319	 1.848775386	 0.090138
C	-2.7104625686	 1.4453512351	 0.7767037282	-0.333059
C	-2.6606124696	-0.0384237667	 0.4476282126	-0.070075
C	-1.3747061649	-0.6899785743	-0.0080144655	-0.132727
H	 0.1542267204	 1.6556174275	 0.9144285682	 0.295653
H	 0.7298301294	-0.4947934542	-0.6458542415	 0.102614
H	 0.0493191077	-1.5525456622	 1.634745784	 0.096413
H	-3.0612001467	 0.2897158308	 2.6896341793	 0.101177
H	-3.6989736814	 1.8907322401	 0.8327642631	 0.110228
H	-1.938665158	 2.0896347458	 0.3836717019	 0.145161
H	-3.5783808941	-0.5523010711	 0.1881208972	 0.094263
H	-1.4656726539	-1.5669175433	-0.6381526704	 0.09367
174.4246	215.4379	286.2944	420.6512	439.9452	579.6205	658.0816	688.4139	715.0771	740.1816	754.672	798.9771	827.8741	889.7737	968.5392	975.1488	1011.358	1035.8689	1059.8155	1073.9646	1086.9187	1094.2681	1099.4098	1110.9202	1152.0399	1206.9377	1229.6047	1292.4582	1333.057	1345.7193	1368.6372	1375.3499	1436.5078	1475.6739	3125.1126	3142.2599	3150.8338	3160.6612	3173.7235	3186.8551	3260.8313	3751.8839
OC1C2OC3CC3C12	O[C@H]1[C@H]2O[C@H]3C[C@H]3[C@@H]12	
InChI=1S/C6H8O2/c7-5-4-2-1-3(2)8-6(4)5/h2-7H,1H2	InChI=1S/C6H8O2/c7-5-4-2-1-3(2)8-6(4)5/h2-7H,1H2/t2-,3+,4+,5-,6+/m1/s1
