19
gdb 124606	2.60526	1.38104	1.12192	3.4934	77.12	-0.2218	0.0299	0.2517	1169.5887	0.160966	-415.426639	-415.417529	-415.416585	-415.460862	33.539	
C	-0.0770664246	 1.5767034251	 0.1185115836	-0.380809
C	-0.028609712	 0.0482100319	 0.0261798216	 0.024367
C	 0.7708875915	-0.5796773191	 1.1734389315	-0.37953
N	-1.3828168203	-0.5003074929	-0.0154239663	 0.000487
N	-2.2866040074	-0.2169771651	 0.9754738387	-0.26488
C	-3.3635930182	-0.8514328949	 0.5592591301	 0.032467
N	-3.2310376185	-1.5396550632	-0.6087268149	-0.34146
C	-1.971272548	-1.2974677382	-0.9360054943	 0.399121
N	-1.3476517679	-1.7262793575	-2.0987044542	-0.601788
H	 0.9381509939	 1.9840197073	 0.1148298123	 0.11513
H	-0.6247647788	 2.0002930115	-0.7275856075	 0.127195
H	-0.577242075	 1.8830676932	 1.0399692044	 0.149792
H	 0.4254651319	-0.2290506778	-0.9312310034	 0.096055
H	 0.8232784741	-1.6677688643	 1.0705922877	 0.114282
H	 1.790903692	-0.1845424298	 1.1866468689	 0.118482
H	 0.2938626861	-0.3506018627	 2.1298953455	 0.148899
H	-4.2855874307	-0.827198056	 1.1216227754	 0.119357
H	-1.9513469869	-2.3677468213	-2.5965470171	 0.26696
H	-0.4332581512	-2.1360158863	-1.9591350619	 0.255873
39.2351	112.6883	190.0848	219.7999	249.6716	258.4627	288.9696	301.2731	403.824	435.9963	533.9929	635.1658	674.6053	697.708	754.7991	791.854	890.8927	903.9379	933.3336	952.4029	988.9751	1057.7998	1099.2357	1146.5161	1165.7967	1214.4847	1229.9989	1287.6163	1315.6169	1344.7959	1397.641	1402.2097	1418.4201	1458.9913	1479.6936	1490.6814	1495.6903	1513.7971	1559.821	1575.9647	1652.1978	3042.4337	3049.1738	3056.7984	3113.4749	3121.2545	3129.5071	3139.1139	3253.0169	3546.2623	3640.1974
CC(C)N1N=CN=C1N	CC(C)n1ncnc1N	
InChI=1S/C5H10N4/c1-4(2)9-5(6)7-3-8-9/h3-4H,1-2H3,(H2,6,7,8)	InChI=1S/C5H10N4/c1-4(2)9-5(6)7-3-8-9/h3-4H,1-2H3,(H2,6,7,8)
