19
gdb 115692	2.16926	1.43303	1.0407	4.2854	72.43	-0.2337	-0.0114	0.2223	1222.4259	0.156098	-460.143642	-460.13375	-460.132806	-460.179417	34.17	
C	 0.2165730199	 1.5028726738	-0.0561480059	-0.243607
O	-0.3176458696	 0.277500496	-0.5163919393	-0.235337
C	 0.5901713765	-0.4803880698	-1.2614831424	 0.075859
C	 1.6684408361	-1.3069630344	-0.5195086117	-0.101132
O	 1.233952238	-2.5094246798	-1.1885444965	-0.265231
C	 0.0581986449	-1.8704245027	-1.6964116853	-0.027753
C	-1.2291429155	-2.3027482799	-0.9805739858	 0.376651
C	-2.5119389347	-1.75812474	-1.5749956568	-0.490621
O	-1.1950234802	-3.0220995011	-0.0141512526	-0.2882
H	 1.0618749521	 1.3475867356	 0.6294121703	 0.118576
H	 0.5568207431	 2.1313563606	-0.8931047183	 0.11197
H	-0.5810445774	 2.0213116835	 0.4794719344	 0.138086
H	 0.9984415886	 0.1084421233	-2.0950596587	 0.081499
H	 2.7181233416	-1.0769822762	-0.7291718723	 0.106295
H	 1.4998334377	-1.3569808652	 0.56349464	 0.11855
H	-0.054904659	-2.0172257877	-2.7785378769	 0.094164
H	-2.6154621172	-2.066701408	-2.6215103458	 0.132711
H	-3.3665116527	-2.1169515343	-1.0001384518	 0.14233
H	-2.4808306921	-0.6636924336	-1.5549394247	 0.155191
62.8318	73.8246	103.3828	122.8932	126.4703	193.3974	243.8695	291.7386	363.2596	434.4145	451.3618	589.9237	599.3952	746.3687	797.3449	893.1645	935.0466	976.9965	1002.5765	1028.8757	1050.0261	1081.5705	1095.8985	1160.5688	1175.4029	1183.5043	1189.4056	1217.2418	1259.0213	1274.4014	1331.1654	1352.3796	1376.8248	1400.1024	1465.5354	1476.6844	1481.7422	1489.969	1506.7571	1508.6377	1829.9743	2983.7276	3000.1967	3020.6041	3026.5684	3037.6856	3039.0988	3081.7806	3104.8272	3127.7425	3152.8439
COC1COC1C(C)=O	CO[C@H]1CO[C@H]1C(=O)C	
InChI=1S/C6H10O3/c1-4(7)6-5(8-2)3-9-6/h5-6H,3H2,1-2H3	InChI=1S/C6H10O3/c1-4(7)6-5(8-2)3-9-6/h5-6H,3H2,1-2H3/t5-,6-/m0/s1
