16
gdb 44153	3.27631	1.35861	1.20478	5.0588	68.49	-0.2475	-0.0089	0.2386	1049.1939	0.12513	-437.841884	-437.834537	-437.833593	-437.874208	27.948	
O	-0.4519315781	 0.2433872561	 0.0806702563	-0.310383
C	-0.1395449261	 1.3849001008	 0.1134707497	 0.484647
O	-0.9881192142	 2.4887135302	 0.2896586494	-0.269282
C	 0.1237903774	 3.3888220665	 0.0250244072	 0.047484
C	 1.1682899067	 3.2716944031	 1.0740872328	-0.040397
C	 0.9726615055	 3.0079926703	 2.5381396326	-0.030497
C	 0.2713955853	 4.0138661091	 3.3820339781	-0.232701
N	-0.321102461	 2.6908831979	 3.1530178869	-0.317067
C	 1.0916849782	 2.2296313483	-0.0661721514	-0.310628
H	-0.069016386	 4.2105159522	-0.6504896055	 0.135794
H	 2.0095267881	 3.93898136	 0.8813485309	 0.119788
H	 1.8035777196	 2.4632060629	 2.9834256834	 0.103741
H	 0.611565456	 4.2041685322	 4.3961101029	 0.120652
H	-0.1649459514	 4.8745154444	 2.8799588974	 0.11135
H	-1.0637821201	 2.7477324389	 2.462803193	 0.254132
H	 1.9171027999	 2.0256581469	-0.7319746036	 0.133366
76.5963	110.9536	203.0214	260.384	360.7533	424.5606	480.4589	686.285	691.835	713.6261	801.1085	821.0662	827.0264	847.3895	891.685	935.5942	944.3264	981.7469	988.9016	1024.215	1047.8319	1065.7047	1102.0909	1119.9518	1147.0404	1165.5482	1204.9264	1268.5502	1277.4229	1308.6559	1321.4512	1409.5362	1437.4498	1513.675	1955.2385	3103.608	3107.4193	3119.1714	3189.3448	3219.1812	3234.9378	3535.3322
O=C1OC2C(C3CN3)C12	O=C1O[C@H]2[C@@H]([C@H]3CN3)[C@@H]12	
InChI=1S/C6H7NO2/c8-6-4-3(2-1-7-2)5(4)9-6/h2-5,7H,1H2	InChI=1S/C6H7NO2/c8-6-4-3(2-1-7-2)5(4)9-6/h2-5,7H,1H2/t2-,3+,4-,5+/m1/s1
