19
gdb 30321	2.95227	1.66772	1.10343	1.9677	83.83	-0.1587	0.0609	0.2196	1099.8872	0.162327	-382.093881	-382.085958	-382.085014	-382.125987	31.007	
C	-0.0912396969	 1.5011920147	-0.0193702474	-0.333177
N	 0.0640543758	 0.0592697298	 0.0404224655	-0.171386
C	 0.700393624	-0.5520863614	-1.1601582503	-0.156581
C	 1.3694985548	-1.8795735616	-0.6837128753	-0.36168
C	 1.5646726575	-1.585010985	 0.7801592742	 0.231214
C	 0.8055472063	-0.4915346533	 1.0928206015	 0.394267
N	 0.8446453096	-0.2683366151	 2.4354567316	-0.394525
C	 1.6615658646	-1.2462674359	 3.0032188663	-0.088077
C	 2.1060078076	-2.080258562	 2.0005141	-0.319716
H	 0.8686348173	 2.036700145	-0.1348402821	 0.102386
H	-0.7343289543	 1.763712709	-0.8645973811	 0.125713
H	-0.5828284158	 1.8641076052	 0.8892221738	 0.113672
H	-0.0438416506	-0.6989164076	-1.9479422505	 0.103657
H	 1.4763936867	 0.1299848627	-1.5450735626	 0.091051
H	 0.6983451473	-2.7341947948	-0.8466274924	 0.106219
H	 2.2848089115	-2.0798474656	-1.2499619402	 0.103782
H	 0.4004776085	 0.4790782966	 2.9376765986	 0.25642
H	 1.8722688278	-1.2326274648	 4.0599061778	 0.108965
H	 2.7545429083	-2.9316338761	 2.1427691925	 0.087795
127.4527	158.8175	224.472	227.9885	269.9929	356.6636	403.423	478.6573	583.2946	609.2356	623.4197	641.2923	706.9779	730.6114	809.2607	837.63	927.8598	942.256	989.7712	1041.7684	1066.7247	1071.379	1127.6085	1143.5679	1172.4512	1205.0398	1216.2199	1257.6484	1264.9143	1308.7783	1348.2585	1378.9185	1436.2471	1456.0249	1487.2443	1494.9598	1495.3298	1503.4432	1512.5686	1565.2523	1628.6157	2940.0789	2965.3519	3003.7821	3061.4879	3063.2359	3081.8045	3103.2759	3240.1171	3271.741	3690.436
CN1CCC2=C1NC=C2	CN1CCc2c1[nH]cc2	
InChI=1S/C7H10N2/c1-9-5-3-6-2-4-8-7(6)9/h2,4,8H,3,5H2,1H3	InChI=1S/C7H10N2/c1-9-5-3-6-2-4-8-7(6)9/h2,4,8H,3,5H2,1H3
