27
gdb 117829	2.2524	1.00374	0.86141	0.9478	92.74	-0.2512	0.0733	0.3246	1574.2811	0.249231	-390.693047	-390.680974	-390.68003	-390.7304	43.858	
C	-0.109228215	 1.5247663659	 0.2000223273	-0.403998
C	 0.0157093214	 0.0029742727	 0.0657929716	-0.179759
C	 0.7144168333	-0.5260299792	-1.2136796023	 0.237966
C	 0.7462995099	-2.0657798929	-1.1493423654	-0.420382
C	 0.0159305681	-0.0498301177	-2.512155221	-0.192421
C	-1.4593644014	-0.4354274997	-2.6696152284	-0.403353
C	 2.1650702491	-0.0153773578	-1.2818088034	-0.067282
O	 2.8563865937	-0.3598025908	-0.0986111243	-0.23973
C	 4.203230473	 0.0420290836	-0.1114346318	-0.226081
H	 0.870631616	 2.0115514541	 0.2266868468	 0.118742
H	-0.6821740473	 1.9694018752	-0.6201914612	 0.113034
H	-0.6229089687	 1.7812377249	 1.132108412	 0.110624
H	 0.5704667268	-0.3810872746	 0.9275155115	 0.110386
H	-0.9834110241	-0.4449544693	 0.1229554442	 0.087939
H	-0.2547929488	-2.4845687919	-1.0101921205	 0.10799
H	 1.1622638353	-2.4901724528	-2.070672461	 0.099985
H	 1.3701767636	-2.3969234133	-0.3154244698	 0.127763
H	 0.1041372854	 1.0411688609	-2.587074861	 0.092854
H	 0.5772129757	-0.4519370899	-3.3663341489	 0.088888
H	-1.8452677454	-0.072067401	-3.6273316649	 0.111276
H	-1.6036037378	-1.5197971632	-2.6492292418	 0.118541
H	-2.0822684775	-0.0018283887	-1.8812058668	 0.119731
H	 2.6706637932	-0.4595321416	-2.1572456925	 0.077907
H	 2.1846730887	 1.0783165465	-1.4228471734	 0.080659
H	 4.6467397386	-0.2611191395	 0.8404292037	 0.124812
H	 4.7645913846	-0.4328777376	-0.9321798135	 0.102235
H	 4.3044261598	 1.1341526576	-0.2182787251	 0.101673
51.1962	74.147	102.8769	131.5257	145.7565	221.1683	230.5406	233.2494	265.6278	274.798	303.4668	334.1017	343.5683	372.0058	414.3507	483.0993	558.1681	719.6053	770.0035	798.1567	876.6849	916.436	960.7232	993.4345	1012.6109	1019.2278	1024.6756	1053.3113	1091.9919	1108.8427	1158.0323	1182.6294	1204.5027	1214.5574	1229.255	1261.6941	1278.7666	1317.9211	1333.0908	1377.7741	1385.7794	1399.2759	1410.1702	1414.1658	1423.2208	1476.4573	1482.9288	1484.6404	1485.6248	1494.8922	1500.4785	1501.4693	1506.1845	1508.3011	1511.4614	1514.1902	1529.4307	2944.6141	2967.4801	2975.4287	3008.5037	3013.9417	3030.1806	3035.7406	3036.3948	3041.946	3047.4174	3076.485	3095.4929	3099.7618	3103.6589	3107.5251	3109.8698	3111.6555	3121.2262
CCC(C)(CC)COC	CCC(C)(CC)COC	
InChI=1S/C8H18O/c1-5-8(3,6-2)7-9-4/h5-7H2,1-4H3	InChI=1S/C8H18O/c1-5-8(3,6-2)7-9-4/h5-7H2,1-4H3
