14
gdb 132435	3.20137	1.40585	0.98282	3.0346	70.45	-0.235	-0.054	0.181	1112.729	0.100221	-478.006563	-477.998828	-477.997884	-478.039059	28.461	
C	-0.020613536	 1.4663749191	 0.0961247421	-0.471732
C	-0.0065020786	-0.017065867	-0.0699394297	 0.415682
N	-0.038759465	-0.5962274977	-1.2092666591	-0.307429
C	-0.0201381505	-1.984414964	-1.2139839769	-0.139762
C	 0.0295229312	-2.7040393768	-0.0799343987	 0.196384
F	 0.0474049399	-4.0277017844	-0.0804936738	-0.043731
C	 0.0664725491	-2.0548137891	 1.2192155713	 0.300292
N	 0.1136983681	-2.6565029072	 2.3286502233	-0.527579
O	 0.0444554778	-0.6603934939	 1.1298323765	-0.252976
H	 0.8757263441	 1.7982171855	 0.630043127	 0.152539
H	-0.0617133833	 1.9389594431	-0.884050826	 0.159003
H	-0.8855117096	 1.774465365	 0.6924758981	 0.152531
H	-0.0476308581	-2.4716757193	-2.1820433287	 0.135112
H	 0.1320763611	-1.9949197233	 3.1047350844	 0.231665
107.8221	138.9995	144.5391	299.3384	308.127	378.7376	394.9117	465.3216	525.7291	559.715	652.7898	745.7667	751.3678	764.7452	853.1164	940.4297	961.7738	974.9785	1061.6253	1063.7051	1194.1698	1227.0203	1249.4998	1324.0685	1403.1716	1423.0414	1470.897	1473.2882	1657.8847	1689.4414	1762.1561	3048.3052	3105.0083	3171.0582	3200.6983	3498.8987
CC1=NC=C(F)C(=N)O1	CC1=NCC(=C([NH])O1)F	
InChI=1S/C5H5FN2O/c1-3-8-2-4(6)5(7)9-3/h2,7H,1H3	InChI=1S/C5H6FN2O/c1-3-8-2-4(6)5(7)9-3/h7H,2H2,1H3
