18
gdb 26394	4.30506	0.99882	0.89726	0.5099	74.34	-0.2182	0.027	0.2452	1338.8902	0.147337	-439.124923	-439.116241	-439.115297	-439.158817	31.854	
C	-0.0504141357	 1.5141170176	-0.0737098081	-0.398787
C	 0.0259323145	-0.0052346658	 0.0175402881	 0.145566
C	 0.6016144199	-0.508128297	 1.331940026	-0.394027
O	-1.313936007	-0.5730446333	-0.0650578053	-0.271261
C	-1.8311420858	-0.6843787601	-1.274512272	 0.497684
N	-1.3281303907	-0.3791400187	-2.4304603012	-0.383097
C	-2.3383815367	-0.7395744959	-3.3245037754	-0.112269
C	-3.3896947582	-1.2386573668	-2.644672905	-0.048493
O	-3.0718246007	-1.2071817196	-1.2994712034	-0.188535
H	 0.9548023589	 1.9409245938	-0.0020891355	 0.119913
H	-0.4840657244	 1.8196285794	-1.0280044108	 0.146716
H	-0.65631301	 1.9183161166	 0.7433118917	 0.122711
H	 0.5956377076	-0.3985333237	-0.8299652414	 0.117114
H	 0.0037305879	-0.1517111318	 2.1763731833	 0.129027
H	 0.6182988143	-1.6006758508	 1.3566187718	 0.128411
H	 1.6248464615	-0.1417738913	 1.454576622	 0.122283
H	-2.2218465866	-0.6067616112	-4.3883076244	 0.123202
H	-4.3593396388	-1.6295779316	-2.8957270503	 0.143841
66.1245	74.1571	160.3701	217.8536	251.8008	293.357	314.992	396.5121	449.8266	505.6527	618.7389	704.9966	748.8534	763.0476	852.8708	856.9657	921.3686	936.572	945.3304	952.1141	1013.0253	1088.5679	1135.5655	1146.1103	1161.0906	1184.3421	1207.2083	1282.0187	1361.3862	1378.2433	1403.044	1417.1715	1433.9225	1480.6708	1486.8163	1495.6389	1511.6023	1584.5633	1637.6453	3042.8334	3047.0085	3068.7732	3112.6601	3123.0935	3126.2905	3138.2618	3264.0631	3310.1996
CC(C)OC1=NC=CO1	CC(C)Oc1ncco1	
InChI=1S/C6H9NO2/c1-5(2)9-6-7-3-4-8-6/h3-5H,1-2H3	InChI=1S/C6H9NO2/c1-5(2)9-6-7-3-4-8-6/h3-5H,1-2H3
