21
gdb 108119	2.95305	1.5199	1.37963	1.4003	81.1	-0.2349	0.0867	0.3216	1060.8678	0.18435	-387.060998	-387.053395	-387.052451	-387.092944	31.072	
C	-0.0697084522	 1.5761650643	 0.1246612297	-0.381593
C	-0.0188453684	 0.0434022163	 0.0692353854	-0.311084
C	-1.387812014	-0.5705183069	 0.0096167616	 0.504129
O	-2.239237048	-0.3180294344	 1.1399025446	-0.337561
C	-3.0599281745	-1.3904967169	 0.5881724317	 0.066899
C	-3.6652603374	-0.6891434808	-0.6431341948	-0.206297
C	-2.2957220951	-0.5189804814	-1.3311798936	-0.125195
C	-1.8923841093	-1.9958729676	-1.5797142116	-0.250364
C	-1.7841926267	-2.0678199164	-0.0488406489	-0.135599
H	 0.9358770262	 1.9976749525	 0.211452416	 0.110842
H	-0.5318723315	 1.991255159	-0.7768843073	 0.116506
H	-0.6565904127	 1.9089570674	 0.985085768	 0.138991
H	 0.5554125381	-0.2869276925	-0.805046159	 0.101496
H	 0.5001337239	-0.3428479683	 0.9547833505	 0.106113
H	-3.7015466427	-1.8751310977	 1.3224773887	 0.076837
H	-4.3597475801	-1.2991113168	-1.2281188781	 0.092579
H	-4.1495694112	 0.2438923174	-0.3486769669	 0.104815
H	-2.1802644839	 0.2486135733	-2.0945315094	 0.064565
H	-2.6122945348	-2.6347469764	-2.0996087351	 0.092336
H	-0.9085275884	-2.0998430691	-2.0458551015	 0.100096
H	-1.2767569872	-2.8508789949	 0.5129024099	 0.071489
92.7885	154.5375	207.8717	296.6871	333.0787	452.2657	469.6572	539.0476	593.1892	685.1852	723.1271	774.9327	813.4373	834.8118	886.8064	898.4638	926.4608	936.0711	957.7533	972.3785	979.3996	989.9534	1007.6144	1031.7556	1079.4385	1088.4387	1126.6465	1140.0235	1158.068	1181.6662	1215.5759	1233.0547	1246.5323	1274.8599	1288.2708	1314.2628	1321.2968	1325.6612	1398.253	1409.626	1475.9411	1481.2292	1499.0269	1504.5776	1509.672	3027.8724	3041.2657	3050.1041	3061.234	3063.8884	3103.2626	3108.5302	3120.0879	3122.0346	3124.7556	3130.9888	3136.7814
CCC12OC3CC1CC23	CC[C@@]12O[C@H]3C[C@@H]1C[C@@H]23	
InChI=1S/C8H12O/c1-2-8-5-3-6(8)7(4-5)9-8/h5-7H,2-4H2,1H3	InChI=1S/C8H12O/c1-2-8-5-3-6(8)7(4-5)9-8/h5-7H,2-4H2,1H3/t5-,6+,7-,8+/m0/s1
