19
gdb 18535	5.63882	1.01658	0.96833	1.7511	70.84	-0.2315	0.0757	0.3072	1231.2989	0.166072	-365.004312	-364.99622	-364.995276	-365.037254	29.959	
O	-0.035775134	 1.4595180481	-0.0518924288	-0.419946
C	 0.010269388	 0.0450948468	 0.0535549539	-0.070174
C	-1.4063604287	-0.4855688812	-0.1317269451	-0.200892
C	-1.4853008793	-2.00467735	-0.0210020235	 0.007427
C	-1.3171301426	-2.7179399177	 1.3538495663	-0.183136
N	-2.6050004981	-3.4842959324	 1.1882672047	-0.126655
C	-3.6583167933	-2.4567033018	 1.126065759	-0.235231
C	-2.85112377	-2.6893767343	-0.0872639519	-0.052218
H	 0.8542076305	 1.8006210864	 0.0752711573	 0.2856
H	 0.6733023257	-0.391490613	-0.7119039767	 0.08404
H	 0.4009196714	-0.2682884397	 1.0360683255	 0.087125
H	-2.0535386722	-0.0092814251	 0.6135258649	 0.104777
H	-1.7726916281	-0.1652286937	-1.1150464658	 0.107171
H	-0.8087429394	-2.45967895	-0.7522679619	 0.079897
H	-0.4704838945	-3.4049550884	 1.4054911063	 0.109803
H	-1.3081908047	-2.074991789	 2.2419744724	 0.099927
H	-4.6595921889	-2.8764918637	 1.1434298966	 0.120028
H	-3.5421518145	-1.5435303066	 1.7061007587	 0.110692
H	-3.2703169572	-3.1578633847	-0.9727853919	 0.091765
84.7647	97.8249	126.3584	227.3562	267.192	334.1858	364.0358	467.9491	525.955	713.5852	755.4433	783.9738	797.2873	881.2406	929.7712	964.1771	991.5165	996.1062	1039.1854	1062.1203	1085.0225	1102.5655	1109.3257	1126.7386	1170.973	1202.577	1213.1258	1236.5765	1244.2718	1272.5937	1296.8065	1314.5769	1327.2991	1377.9745	1396.2883	1463.7133	1490.1263	1493.7039	1513.6902	1527.4988	2956.3415	2980.6287	3032.5045	3035.3292	3045.4047	3078.8409	3104.9966	3110.093	3152.6099	3195.0902	3829.9103
OCCC1CN2CC12	OCC[C@H]1CN2C[C@@H]12	
InChI=1S/C6H11NO/c8-2-1-5-3-7-4-6(5)7/h5-6,8H,1-4H2	InChI=1S/C6H11NO/c8-2-1-5-3-7-4-6(5)7/h5-6,8H,1-4H2/t5-,6-,7?/m0/s1
