20
gdb 16960	3.22286	2.13458	1.93571	1.575	73.13	-0.2361	0.0811	0.3172	828.3393	0.180289	-349.024228	-349.01738	-349.016436	-349.054884	27.919	
C	-0.1815867718	 1.5520949839	 0.0186939535	-0.408666
C	 0.0161702332	 0.0382429595	 0.0038220985	 0.043207
C	 0.8664223418	-0.5032323101	-1.2002521144	-0.233334
C	 1.9987031611	-1.2968250217	-0.5032744364	-0.035656
C	 2.8953586693	-0.2825141599	 0.2231941366	-0.069363
O	 2.0674655273	 0.2093803491	 1.2959343849	-0.281128
C	 0.8251795332	-0.5079248517	 1.2038690433	 0.108536
C	 1.2591847672	-1.8947554937	 0.7137685165	-0.23377
H	 0.7810631905	 2.0659742397	 0.0912465909	 0.129211
H	-0.6879791647	 1.8916292194	-0.8908932058	 0.10701
H	-0.7898245562	 1.8639182611	 0.8750467326	 0.108446
H	-0.9675276929	-0.4473504859	 0.0059165589	 0.066016
H	 0.2727769033	-1.1513361014	-1.8517477709	 0.093493
H	 1.2627625266	 0.3082358367	-1.8192170604	 0.095065
H	 2.5435953324	-1.9897572928	-1.1459543949	 0.063364
H	 3.7987679899	-0.7448294775	 0.6438939656	 0.092672
H	 3.2010547727	 0.5516741201	-0.4205177301	 0.093828
H	 0.3261572874	-0.4395414731	 2.1721448359	 0.066611
H	 0.4234487816	-2.5442129461	 0.4403199313	 0.095061
H	 1.9130717679	-2.4112183855	 1.4212255248	 0.099399
131.3257	210.2237	260.4209	328.3585	392.2191	459.4521	494.1158	583.7596	736.8766	794.283	820.7033	837.9727	893.5709	912.3713	924.5997	942.0382	963.4258	972.5013	993.4261	1021.9306	1037.2012	1069.8641	1103.1284	1133.2139	1156.6084	1184.5821	1203.7431	1243.6453	1252.457	1275.5549	1308.8803	1320.1889	1325.7369	1340.5529	1370.1591	1388.0597	1407.7786	1488.6615	1492.1301	1499.3744	1501.0138	1529.2286	3002.8945	3021.6941	3031.9855	3041.4778	3045.9999	3062.7283	3086.5997	3093.8928	3103.1846	3108.8119	3115.203	3117.7595
CC1CC2COC1C2	C[C@H]1C[C@H]2CO[C@@H]1C2	
InChI=1S/C7H12O/c1-5-2-6-3-7(5)8-4-6/h5-7H,2-4H2,1H3	InChI=1S/C7H12O/c1-5-2-6-3-7(5)8-4-6/h5-7H,2-4H2,1H3/t5-,6+,7+/m0/s1
