18
gdb 17390	4.68415	1.69898	1.60025	1.5335	71.19	-0.2301	0.0784	0.3085	874.1346	0.154378	-347.75197	-347.745176	-347.744232	-347.78275	27.277	
C	-0.1627773984	 1.3764232107	 0.0957852972	-0.306172
C	 1.1346860153	 0.6923366139	-0.1961107787	 0.096117
O	 1.7662214464	 0.2645811717	 1.0135947748	-0.330948
C	 0.6645676728	-0.6392087775	 1.2853536114	 0.470764
C	 0.9674579504	-2.1493900675	 1.3928062318	-0.292279
C	-0.0819011693	-2.2240207063	 2.5379269037	-0.216682
C	 0.0344740394	-0.6807475416	 2.6914423651	-0.285635
C	-0.095450985	-0.1390618526	 0.0578706387	-0.195795
H	-0.2878297733	 1.9026193482	 1.0382437887	 0.116158
H	-0.6621510079	 1.8274485925	-0.7565718581	 0.112514
H	 1.7558453679	 0.8444150858	-1.0707612631	 0.102254
H	 0.8166724563	-2.7618542499	 0.500162978	 0.097596
H	 1.9857685314	-2.2996653519	 1.7617144915	 0.113782
H	-1.0672560526	-2.528351931	 2.1759632318	 0.105068
H	 0.1725313144	-2.8327813884	 3.4071020637	 0.10304
H	 0.7770240659	-0.4045499311	 3.4455204674	 0.11439
H	-0.8753626716	-0.0978479583	 2.8548977382	 0.098038
H	-0.6908118721	-0.7487302565	-0.6086578322	 0.097791
120.8619	165.6874	240.5127	346.6242	460.095	464.3438	519.4813	689.6827	759.215	784.2984	802.9172	825.945	894.7461	912.0647	922.3369	953.86	964.079	977.5067	1010.1404	1027.1847	1044.5105	1056.8796	1083.1042	1116.6822	1143.8414	1171.6302	1196.3141	1215.1004	1239.513	1243.3813	1270.8359	1284.5247	1336.9173	1352.912	1466.7451	1473.5754	1482.7652	1504.9854	3056.4836	3060.3665	3069.48	3106.8416	3113.4816	3114.6293	3128.6646	3181.2813	3197.9115	3209.1206
C1C2OC3(CCC3)C12	C1[C@H]2OC3(CCC3)[C@@H]12	
InChI=1S/C7H10O/c1-2-7(3-1)5-4-6(5)8-7/h5-6H,1-4H2	InChI=1S/C7H10O/c1-2-7(3-1)5-4-6(5)8-7/h5-6H,1-4H2/t5-,6+/m0/s1
