14
gdb 7700	3.57057	1.98996	1.28769	1.8934	66.95	-0.255	-0.0519	0.2031	882.8166	0.109533	-378.783134	-378.776362	-378.775417	-378.815076	25.176	
N	-0.071306746	 1.2768335667	-0.4503023932	-0.519532
C	-0.015065324	 0.083428154	-0.0118311368	 0.3887
C	-1.3064587358	-0.6297879498	 0.3470515941	-0.329405
C	-1.1559005875	-2.0276254245	 0.8586306897	-0.059458
C	 0.02466965	-2.631182879	 0.9970614106	-0.165875
C	 1.2878414445	-1.9535012977	 0.6503704071	 0.419462
O	 2.3849255541	-2.4620704502	 0.7589238467	-0.360557
N	 1.1542186321	-0.6505122385	 0.1743871178	-0.397443
H	 0.8565727176	 1.6515467074	-0.6574455559	 0.208866
H	-1.8383079368	-0.0145968997	 1.0834783144	 0.159765
H	-1.9540185858	-0.6212712142	-0.5386113879	 0.159782
H	-2.0721664833	-2.5495033824	 1.1211692094	 0.119926
H	 0.1339197972	-3.6431237994	 1.3671188847	 0.12459
H	 2.0337740736	-0.2059150628	-0.0558550608	 0.251179
32.5497	139.604	315.3572	371.4424	487.121	521.9248	529.0389	537.0138	639.5514	674.9955	712.8691	833.9152	871.5364	906.8906	948.4848	960.4088	983.1886	1023.2304	1142.8167	1162.7231	1209.693	1297.6362	1351.8122	1396.1436	1414.4752	1421.3518	1442.1692	1701.1863	1731.8256	1797.003	3037.2386	3058.7903	3168.7378	3218.5525	3452.156	3586.0306
N=C1CC=CC(=O)N1	[NH][C]1CC=CC(=O)N1	
InChI=1S/C5H6N2O/c6-4-2-1-3-5(8)7-4/h1,3H,2H2,(H2,6,7,8)	InChI=1S/C5H6N2O/c6-4-2-1-3-5(8)7-4/h1,3H,2H2,(H2,6,7,8)
