22
gdb 100815	3.58235	0.8013	0.6893	4.8239	83.65	-0.264	0.0362	0.3003	1652.1346	0.191434	-404.363873	-404.352811	-404.351867	-404.400615	39.06	
C	 0.0071458439	 1.372302194	 0.1009914179	-0.241308
O	-0.0384098715	-0.0285228425	-0.0420146374	-0.247471
C	 0.6615569069	-0.5431418884	-1.1683348826	 0.141884
C	 2.1627497808	-0.6306602643	-0.8723207459	-0.418151
C	 0.0002329634	-1.90072197	-1.4844926841	 0.014283
C	-1.4918680854	-1.7307402338	-1.7935854371	-0.411691
C	 0.7340300731	-2.6174018928	-2.6443380175	-0.36135
C	 0.1610231213	-3.9253272747	-2.9563653505	 0.268496
N	-0.2915436	-4.9620689368	-3.1930394047	-0.313323
H	 1.0226514333	 1.7481975579	 0.293294571	 0.108063
H	-0.3863931572	 1.8841987617	-0.7908501146	 0.106946
H	-0.6207602779	 1.6262940601	 0.9584774097	 0.131674
H	 0.501282318	 0.1298216179	-2.029987293	 0.062955
H	 2.3593787304	-1.3803739747	-0.0991638573	 0.128014
H	 2.7419768218	-0.884452954	-1.7646526924	 0.119111
H	 2.5389890319	 0.330862792	-0.5128039624	 0.123127
H	 0.1060924356	-2.521099073	-0.5855575765	 0.102466
H	-1.9894951057	-1.2214503391	-0.9677933	 0.13837
H	-1.6362716781	-1.1325031402	-2.7017867276	 0.108584
H	-1.9735154313	-2.6993035523	-1.9512752785	 0.139778
H	 0.6958211925	-2.0007454324	-3.5517169441	 0.146957
H	 1.7912089143	-2.7682264248	-2.4071574327	 0.152588
54.2611	70.5582	83.1862	127.916	187.3462	205.5797	227.9849	250.8438	295.9241	319.4703	386.0667	396.5175	403.1747	450.2286	502.8688	594.9566	820.8275	856.7197	888.7354	915.1125	957.4892	989.3264	1041.5494	1102.257	1116.1433	1132.8389	1146.8661	1180.8709	1190.7444	1214.7834	1253.1031	1292.5549	1337.2208	1357.9597	1372.9379	1391.5242	1406.0463	1411.8152	1466.8815	1478.6567	1486.0153	1492.6515	1496.5812	1504.1243	1508.9334	1512.0195	2360.8382	2940.8638	2979.576	3027.3535	3028.5483	3033.4376	3041.9852	3043.6002	3092.3402	3107.8909	3113.9742	3114.3419	3116.6661	3148.3655
COC(C)C(C)CC#N	CO[C@@H](C)[C@@H](C)CC#N	
InChI=1S/C7H13NO/c1-6(4-5-8)7(2)9-3/h6-7H,4H2,1-3H3	InChI=1S/C7H13NO/c1-6(4-5-8)7(2)9-3/h6-7H,4H2,1-3H3/t6-,7-/m0/s1
