16
gdb 34752	2.96506	1.71776	1.52871	5.2285	70.91	-0.2454	0.0109	0.2563	904.5471	0.127733	-396.883215	-396.876513	-396.875569	-396.914268	26.636	
N	-0.2350950717	-1.1866811585	-0.3418854448	-0.334286
C	-0.1296180518	-0.0511189065	-0.153948261	 0.317373
C	 0.0056556695	 1.3881837272	 0.0534173972	-0.117421
C	-0.2498056385	 2.0035689144	 1.4632233104	-0.060859
N	 0.0671683112	 1.0269318772	 2.4939980059	-0.276123
C	 1.5026816987	 0.7060625693	 2.2878976844	-0.217753
C	 2.03013352	 1.7851583585	 1.3405927496	-0.024732
C	 1.0286171698	 2.8480743029	 1.1729145663	-0.066236
N	 1.3960311671	 1.9714180167	-0.0047471489	-0.151956
H	-0.5832137418	 1.9033252697	-0.7105400323	 0.135399
H	-1.2114067584	 2.487532048	 1.6254425249	 0.091906
H	-0.0662326159	 1.4484735944	 3.4074580819	 0.226956
H	 2.0520420935	 0.7268260286	 3.234008677	 0.112966
H	 1.6124735387	-0.2961905854	 1.8635080227	 0.147663
H	 3.0914925675	 2.0020647296	 1.3105388474	 0.111273
H	 1.1765137921	 3.9206296336	 1.1787755393	 0.105831
136.8181	151.1918	262.9829	377.3815	396.493	538.5256	578.2082	655.3572	683.4586	763.6016	790.5058	811.7603	846.0264	858.2806	887.0496	930.8243	951.316	1011.1042	1037.698	1040.6527	1051.9329	1086.1566	1118.6593	1182.1689	1189.9098	1229.3828	1248.8393	1266.7555	1312.8537	1339.4382	1359.0954	1394.0824	1450.211	1508.3534	2353.9129	3055.9471	3076.6713	3094.0634	3133.9846	3186.4054	3198.6604	3521.6394
N#CC1C2NCC3C2N13	N#C[C@H]1[C@H]2NC[C@@H]3[C@H]2N13	
InChI=1S/C6H7N3/c7-1-3-5-6-4(2-8-5)9(3)6/h3-6,8H,2H2	InChI=1S/C6H7N3/c7-1-3-5-6-4(2-8-5)9(3)6/h3-6,8H,2H2/t3-,4+,5+,6+,9?/m0/s1
