17
gdb 20844	5.25137	1.26094	1.09132	3.1397	71.55	-0.2025	0.0413	0.2438	1108.1676	0.143888	-360.070213	-360.061921	-360.060977	-360.103337	30.238	
C	-0.0031315378	 1.4346677963	-0.463866116	-0.368657
C	-0.1011041649	 0.1135345114	 0.3168523341	-0.282282
C	-1.431490029	-0.5630118356	 0.1719995108	 0.363541
N	-2.2727389221	-0.6170079232	 1.1982193733	-0.301998
N	-3.3653318595	-1.2638876659	 0.7052013864	-0.246706
C	-3.2301258543	-1.614841604	-0.5976291329	 0.395908
N	-4.2163550441	-2.3538176484	-1.2575784956	-0.605783
C	-1.9811894034	-1.1721780843	-0.9871022539	-0.367352
H	 0.9814881019	 1.8946387056	-0.3319098605	 0.108214
H	-0.1588584728	 1.2755385867	-1.5358363179	 0.112614
H	-0.7608129661	 2.1452141599	-0.1195566807	 0.122794
H	 0.6929806983	-0.5645089249	-0.0205323312	 0.100362
H	 0.06799771	 0.2983628845	 1.3820430263	 0.115105
H	-4.1159302636	-1.5069321154	 1.328166327	 0.26454
H	-5.1440907641	-1.9563560159	-1.1644544878	 0.248844
H	-4.0031633797	-2.462682529	-2.2400009226	 0.255042
H	-1.5390009189	-1.264019568	-1.9664334288	 0.085816
43.5284	131.096	166.7924	206.4554	263.8939	314.5742	394.1775	416.5067	471.6732	594.6915	666.0995	715.5324	751.2463	753.1302	786.6354	794.9171	963.8964	1006.0207	1050.2551	1062.6931	1085.9153	1107.5722	1159.9829	1190.0759	1277.5215	1339.9253	1352.6132	1405.7169	1441.0285	1478.5318	1488.5568	1497.6875	1512.2899	1540.3108	1620.6926	1659.3053	3027.5554	3034.3733	3081.3946	3104.7951	3112.1287	3254.749	3528.347	3626.2425	3678.2854
CCC1=NNC(N)=C1	CCc1n[nH]c(N)c1	
InChI=1S/C5H9N3/c1-2-4-3-5(6)8-7-4/h3H,2H2,1H3,(H3,6,7,8)	InChI=1S/C5H9N3/c1-2-4-3-5(6)8-7-4/h3H,2H2,1H3,(H3,6,7,8)
