20
gdb 80998	2.74902	1.51824	1.23325	3.6335	79.33	-0.2146	-0.0062	0.2084	1090.5033	0.170522	-403.137892	-403.129511	-403.128566	-403.170241	33.269	
C	-0.2581283126	 1.4213452499	-0.03131613	-0.335491
N	 0.0146672053	-0.0089801569	 0.0159359971	-0.136803
C	 1.1765229503	-0.4617797442	-0.8481279225	-0.113689
C	 2.159145995	-0.1216151296	 0.3064415621	-0.293653
C	 0.9059880581	-0.5033565438	 1.1517489991	 0.338785
C	 0.6662367262	-0.0038998269	 2.5525706457	-0.503955
C	 0.7823771563	-2.0205385391	 0.8849616335	-0.364725
C	 1.0004929682	-1.9688455536	-0.6428106164	 0.466403
O	 1.0341601061	-2.8619384801	-1.4417106295	-0.333845
H	 0.6176335571	 2.0853046377	 0.0632429657	 0.096054
H	-0.7475842153	 1.6498394255	-0.98336282	 0.127687
H	-0.9603749407	 1.6755723301	 0.768759145	 0.125362
H	 1.2602018002	-0.085743505	-1.8659472876	 0.08413
H	 3.0720440187	-0.7158245397	 0.4178113537	 0.104542
H	 2.4031322224	 0.9402772573	 0.3532154505	 0.113112
H	 0.7756270674	 1.0827447337	 2.6195939437	 0.121532
H	-0.3404308732	-0.2696437055	 2.8928418167	 0.130194
H	 1.3847034115	-0.456183182	 3.2440641282	 0.126014
H	 1.5445407865	-2.6275282974	 1.3829300074	 0.118242
H	-0.2079925274	-2.4112912104	 1.1304138577	 0.130106
125.3458	200.7403	225.1567	230.4368	248.0815	295.0227	360.0624	422.17	483.1792	521.9339	562.549	603.3979	662.1576	753.0944	774.0045	802.3449	823.6311	916.0889	950.5043	953.992	976.9875	1042.2385	1069.2138	1111.2971	1125.2826	1159.0194	1175.1758	1186.4333	1200.6738	1211.8924	1249.3288	1254.857	1276.5199	1340.1533	1413.4262	1446.0817	1448.5026	1482.3397	1486.6688	1494.6236	1503.178	1516.3778	1884.748	2960.1617	3033.5112	3051.9342	3064.048	3064.8058	3101.3723	3102.8136	3107.2102	3119.5951	3130.0202	3146.1826
CN1C2CC1(C)CC2=O	CN1[C@H]2C[C@]1(C)CC2=O	
InChI=1S/C7H11NO/c1-7-3-5(8(7)2)6(9)4-7/h5H,3-4H2,1-2H3	InChI=1S/C7H11NO/c1-7-3-5(8(7)2)6(9)4-7/h5H,3-4H2,1-2H3/t5-,7+/m0/s1
