23
gdb 90237	3.38911	1.3644	1.30418	0.1015	90.33	-0.2288	0.0818	0.3106	1121.272	0.208507	-351.077559	-351.069994	-351.069049	-351.108912	32.52	
C	-0.07432662	 1.6229939557	 0.0386928143	-0.416306
C	 0.0711586704	 0.1017406105	 0.0157977152	 0.062649
C	 1.0800678398	-0.4656605503	-1.0308099122	-0.255569
C	 1.9874673383	-1.3397851747	-0.1183660049	 0.315028
C	 2.289056801	-2.7472265315	-0.7206838952	-0.327059
C	 0.8270703332	-3.1437854245	-0.2156417196	-0.297091
C	 1.0296285394	-2.0035821567	 0.8444652123	 0.037518
C	 0.7010784359	-0.5251023217	 1.2708833868	-0.087531
C	 2.2755777198	-0.3105469385	 1.0294601881	-0.331467
H	 0.8858387398	 2.1204748968	 0.2121344258	 0.113334
H	-0.4685154503	 1.9921347249	-0.9144922301	 0.111541
H	-0.7627503392	 1.9448291151	 0.8279925032	 0.109631
H	-0.9216824593	-0.3345922204	-0.1457223621	 0.066085
H	 0.5924401963	-1.0264662886	-1.8315340879	 0.089317
H	 1.6694113139	 0.3265127074	-1.5060127515	 0.088522
H	 2.497595824	-2.8166821776	-1.7923795994	 0.094404
H	 3.0505920161	-3.3044505715	-0.168711241	 0.104884
H	 0.065941496	-2.9539207259	-0.9738426279	 0.111479
H	 0.6923328793	-4.1558007156	 0.1735769285	 0.095488
H	 1.6037972851	-2.4563884628	 1.660440116	 0.071433
H	 0.2463030897	-0.2835706274	 2.2348660807	 0.055531
H	 2.8737511503	-0.7146671595	 1.8480034563	 0.099882
H	 2.6168629905	 0.6974518068	 0.7721671547	 0.088299
154.4197	227.0612	245.8176	315.0533	324.3862	424.8926	478.996	488.1347	584.173	599.2564	670.9711	735.3408	786.0416	821.1437	830.299	853.1073	871.7622	910.5179	921.5708	932.308	984.5043	1005.7572	1023.7074	1040.2532	1067.61	1077.9524	1086.8709	1125.8699	1138.3524	1164.9767	1171.9925	1195.8396	1210.8145	1213.688	1232.5627	1246.1314	1252.6743	1265.4019	1315.1884	1321.6945	1376.1	1406.0848	1413.936	1477.6009	1487.2846	1493.4882	1499.6617	1503.9492	1520.4404	3024.598	3027.7884	3029.358	3042.1302	3047.229	3051.3324	3071.1762	3083.0788	3090.7093	3093.6718	3100.4494	3107.5342	3124.0983	3135.112
CC1CC23CCC2C1C3	C[C@H]1C[C@]23CC[C@@H]2[C@H]1C3	
InChI=1S/C9H14/c1-6-4-9-3-2-8(9)7(6)5-9/h6-8H,2-5H2,1H3	InChI=1S/C9H14/c1-6-4-9-3-2-8(9)7(6)5-9/h6-8H,2-5H2,1H3/t6-,7-,8+,9-/m0/s1
