12
gdb 9109	7.14202	0.93501	0.83101	4.0215	63.11	-0.2905	-0.0905	0.1999	1284.733	0.081584	-414.680172	-414.671981	-414.671037	-414.713653	26.921	
C	 0.0911761494	 1.3647831862	-0.0936324571	-0.325611
N	-0.0240874673	-0.0693603359	-0.2765299959	-0.175977
C	-1.1110226224	-0.6069962737	 0.0203349328	 0.114769
O	-1.2131610868	-1.9834629204	-0.1581979299	-0.202066
C	-2.3819960418	-2.5730533417	 0.1602673507	 0.376793
O	-3.3693518951	-2.0471506513	 0.588312634	-0.313242
C	-2.2863039097	-4.012024754	-0.0970160899	 0.260973
N	-2.2707154433	-5.1521163269	-0.2792641507	-0.295872
H	 0.9220180084	 1.5679348009	 0.5894946791	 0.148063
H	 0.3466494316	 1.8236965286	-1.0540513719	 0.14806
H	-0.8181278317	 1.8425431372	 0.2991424211	 0.114794
H	-2.0199408113	-0.1469286388	 0.4101850278	 0.149316
76.3937	83.3394	116.1516	212.995	213.2117	287.6655	362.7184	365.2059	445.4589	569.2323	647.3692	769.6991	915.5497	972.3461	1057.6655	1092.2467	1140.1457	1169.9206	1241.1518	1367.1302	1445.299	1479.6762	1500.113	1781.1636	1826.2555	2363.3827	2995.6908	3083.2643	3101.3022	3129.2835
CN=COC(=O)C#N	CN=COC(=O)C#N	
InChI=1S/C4H4N2O2/c1-6-3-8-4(7)2-5/h3H,1H3	InChI=1S/C4H4N2O2/c1-6-3-8-4(7)2-5/h3H,1H3
