18
gdb 22596	2.8227	1.22695	1.04665	0.741	77.06	-0.2382	0.0311	0.2693	1204.2793	0.145692	-438.983265	-438.974178	-438.973234	-439.016816	34.192	
C	-0.1609306298	 1.546853536	 0.0247092919	-0.445805
C	 0.0395041995	 0.038436032	 0.0352378106	 0.010653
C	 1.2217294954	-0.6448362874	-0.7639973471	-0.172136
C	 2.2015990096	-0.1342857006	 0.3471453932	-0.30588
C	 0.9285537936	-0.6591862413	 1.1248068653	 0.306493
O	 0.6627209379	-0.6448748328	 2.4703369935	-0.467929
C	 0.9882636661	-1.8285062259	 0.1576773354	 0.429329
N	 0.9041810124	-3.0813733694	 0.2406652065	-0.337193
O	 1.0727799195	-3.6971700788	-1.0281153949	-0.403001
H	 0.7625111108	 2.1178497723	 0.1400494198	 0.122765
H	-0.6284641728	 1.8563388082	-0.9158373464	 0.122087
H	-0.833303441	 1.8361930708	 0.8388877025	 0.133395
H	-0.9207942184	-0.465737974	-0.1098173789	 0.087177
H	 1.3823349606	-0.6535786099	-1.8361883064	 0.103459
H	 3.124755497	-0.7017747893	 0.4777206228	 0.107992
H	 2.3815969521	 0.9394540647	 0.3807989078	 0.107465
H	 1.0916568372	-1.4069232827	 2.8756803876	 0.298137
H	 0.9708631906	-4.629064102	-0.807520653	 0.302992
113.6949	121.6096	163.9375	175.2953	230.2934	284.8362	324.9601	352.6792	386.3314	425.1284	497.8358	614.1956	673.9154	699.6115	746.7443	772.7317	834.7254	872.6392	932.8239	942.0184	1002.8356	1033.8057	1037.7051	1075.5016	1109.2832	1117.1866	1154.7791	1168.2259	1204.0188	1224.4155	1309.1968	1370.5416	1404.4449	1410.6154	1432.2462	1492.3089	1498.1119	1525.3073	1830.2757	3041.6349	3061.1874	3081.7662	3101.1936	3125.8211	3155.5446	3190.2186	3807.8782	3819.436
CC1C2CC1(O)C2=NO	C[C@H]1[C@H]2C[C@]1(O)C2=NO	
InChI=1S/C6H9NO2/c1-3-4-2-6(3,8)5(4)7-9/h3-4,8-9H,2H2,1H3	InChI=1S/C6H9NO2/c1-3-4-2-6(3,8)5(4)7-9/h3-4,8-9H,2H2,1H3/t3-,4+,6+/m0/s1
