18
gdb 30644	3.90778	0.92994	0.90859	2.221	73.84	-0.2377	0.005	0.2427	1338.5108	0.147786	-439.114747	-439.105778	-439.104833	-439.149186	32.067	
C	-0.0282886196	 1.57487034	 0.0022348975	-0.395896
C	-0.0078139255	 0.035690601	 0.0234172749	-0.102824
C	 0.7356694825	-0.4997385476	 1.2583073486	-0.076626
O	 2.072754211	-0.0310189123	 1.1934391782	-0.420359
C	-1.3755603256	-0.550558868	-0.0620626643	 0.347298
C	-2.017703037	-1.3768871204	-0.9244022423	-0.21276
N	-3.3231306413	-1.5903307891	-0.492372138	-0.256117
C	-3.4073080064	-0.8958933418	 0.5921907791	 0.068436
O	-2.276107097	-0.2332314874	 0.9300380363	-0.186997
H	 0.9896948885	 1.9591201866	 0.0885517561	 0.137744
H	-0.4708343377	 1.9456881652	-0.9263910593	 0.118172
H	-0.6181486504	 1.9645259719	 0.8378541185	 0.123559
H	 0.5407048729	-0.3220284356	-0.8560279185	 0.102903
H	 0.2276380735	-0.1484047649	 2.1695275866	 0.098602
H	 0.6960966898	-1.5996733717	 1.2563705825	 0.093418
H	 2.5269056704	-0.299238263	 1.9971069781	 0.290179
H	-1.6373910042	-1.832246971	-1.8251103826	 0.123695
H	-4.2524187039	-0.7791199922	 1.2523741887	 0.147573
53.504	102.4331	115.7374	191.8075	227.7573	230.8601	289.4425	369.9694	385.7611	481.2794	668.2892	708.2078	730.5592	833.4861	859.6563	874.4899	931.6614	939.0196	973.6588	1011.0354	1078.915	1101.2709	1123.4785	1130.1101	1160.461	1223.739	1240.4466	1260.5222	1267.7473	1324.4883	1346.5361	1361.889	1397.9971	1453.6222	1493.8227	1503.1342	1523.274	1551.9742	1637.3749	2976.6417	3009.7341	3045.1742	3050.0687	3115.0199	3140.1069	3262.338	3275.8964	3836.3067
CC(CO)C1=CN=CO1	C[C@@H](CO)c1cnco1	
InChI=1S/C6H9NO2/c1-5(3-8)6-2-7-4-9-6/h2,4-5,8H,3H2,1H3	InChI=1S/C6H9NO2/c1-5(3-8)6-2-7-4-9-6/h2,4-5,8H,3H2,1H3/t5-/m0/s1
