15
gdb 43834	3.13916	1.48364	1.17252	2.7037	65.08	-0.2546	-0.039	0.2156	1017.6143	0.112002	-457.740709	-457.733576	-457.732631	-457.772491	27.497	
O	 0.0863160113	-0.0258190854	 0.1209404464	-0.307753
C	 0.0051860482	 1.1668113829	-0.0058102552	 0.413834
C	-1.2771234571	 1.9902206984	-0.2021603146	-0.441194
C	-0.812275438	 3.2222953962	-0.9746051533	 0.453381
C	-1.3984265577	 3.6710094215	-2.2432950203	-0.252633
O	-1.6317964444	 4.3828325404	-1.0230126209	-0.275287
C	 0.6539734325	 3.3875742724	-0.6780425772	-0.040956
O	 0.9349820079	 3.2949540983	 0.7163566977	-0.243244
C	 1.1681216226	 2.1296961112	-0.0946734755	-0.091378
H	-2.0422650435	 1.4018569225	-0.7099048921	 0.138764
H	-1.6656273104	 2.2888286317	 0.7773206402	 0.161801
H	-0.7844256203	 4.191554487	-2.9775862981	 0.120998
H	-2.2570310224	 3.1382894964	-2.6490659607	 0.124426
H	 1.2747388303	 4.0709499855	-1.2503866957	 0.11663
H	 2.191963151	 1.7798553309	-0.1762322506	 0.122611
85.8723	168.7958	278.1726	313.605	349.9204	439.2771	496.4359	523.3267	561.7001	650.0333	791.3634	813.0304	854.4776	863.6896	877.1575	919.8044	942.4035	1013.2162	1023.6154	1079.3581	1125.8687	1155.3079	1163.8191	1182.3105	1234.2647	1249.1142	1269.1171	1295.7177	1367.3667	1432.4559	1456.1919	1533.656	1854.7807	3064.7507	3082.276	3133.7621	3162.4775	3171.017	3183.6704
O=C1CC2(CO2)C2OC12	O=C1C[C@]2(CO2)[C@H]2O[C@@H]12	
InChI=1S/C6H6O3/c7-3-1-6(2-8-6)5-4(3)9-5/h4-5H,1-2H2	InChI=1S/C6H6O3/c7-3-1-6(2-8-6)5-4(3)9-5/h4-5H,1-2H2/t4-,5-,6-/m0/s1
