20
gdb 8267	6.02593	0.82554	0.82259	0.1461	85.6	-0.236	0.0592	0.2953	1507.275	0.175859	-311.845635	-311.836267	-311.835322	-311.881483	33.225	
C	 0.0469376874	 1.5589007903	-0.0938414265	-0.498458
C	 0.0456941942	 0.1041185376	-0.0319847009	 0.093053
C	 0.0489525588	-1.1002931013	 0.0148551985	 0.046865
C	 0.0307421142	-2.5467821383	 0.093596923	-0.159587
C	 0.2122327801	-3.2401465079	 1.4829281112	-0.233938
C	-0.8412401158	-4.2984653008	 1.0537551815	 0.054111
C	-1.8332359101	-4.8125331395	 2.0845165659	-0.410885
C	-1.3313662154	-3.3032788684	-0.0340931334	-0.233936
H	 0.7625831396	 1.9275644377	-0.8374253175	 0.144792
H	-0.9407221286	 1.9481725203	-0.3661072381	 0.144625
H	 0.3190798348	 1.9997476903	 0.8719362109	 0.144625
H	 0.7481070401	-2.9703079915	-0.6187068171	 0.093417
H	 1.2161807598	-3.5801440445	 1.7477863446	 0.097791
H	-0.1693356836	-2.6002878549	 2.2841759035	 0.104838
H	-0.3341272047	-5.1434675118	 0.5729222686	 0.070445
H	-2.351758155	-3.9823022005	 2.5775336059	 0.112342
H	-2.5933148596	-5.4525378911	 1.6221773051	 0.113635
H	-1.3322086206	-5.4009203109	 2.8615986281	 0.113635
H	-2.1521099708	-2.6813741192	 0.3355365576	 0.104838
H	-1.598397075	-3.6952556458	-1.0183230208	 0.097791
14.4149	61.324	104.2598	163.6325	225.5063	275.9415	311.4581	325.8557	405.7342	457.1144	516.6693	550.3408	724.4715	811.9146	867.5974	896.28	930.2976	952.7593	964.126	1022.5928	1052.7223	1054.2128	1111.0103	1132.8464	1143.4059	1196.5865	1230.6897	1236.1649	1245.6088	1264.0687	1294.2681	1356.3719	1384.6711	1411.9328	1415.2208	1476.3003	1479.1283	1479.5564	1494.2786	1496.3896	1502.8081	2365.3602	3021.4588	3022.6558	3029.7373	3033.9217	3052.7753	3058.2422	3081.4595	3082.0267	3088.4707	3090.3333	3110.5069	3115.6416	14.3892	61.3241	104.26	163.6326	225.5062	275.9414	311.4579	325.8557	405.7343	457.1144	516.6692	550.3409	724.4715	811.9146	867.5974	896.28	930.2976	952.7592	964.1259	1022.5927	1052.7225	1054.213	1111.0102	1132.8463	1143.4058	1196.5864	1230.6894	1236.1647	1245.6085	1264.0685	1294.2678	1356.3718	1384.6708	1411.9328	1415.2213	1476.3	1479.129	1479.5571	1494.2785	1496.3896	1502.8079	2365.3602	3021.4588	3022.6559	3029.7373	3033.9217	3052.7754	3058.2422	3081.4595	3082.0266	3088.4707	3090.3333	3110.5069	3115.6417
CC#CC1CC(C)C1	CC#C[C@H]1C[C@@H](C)C1	
InChI=1S/C8H12/c1-3-4-8-5-7(2)6-8/h7-8H,5-6H2,1-2H3	InChI=1S/C8H12/c1-3-4-8-5-7(2)6-8/h7-8H,5-6H2,1-2H3/t7-,8+
