19
gdb 92309	2.46213	1.70551	1.12326	3.8521	76.25	-0.2122	0.0292	0.2414	1104.4574	0.161522	-419.223364	-419.215236	-419.214291	-419.256246	30.682	
C	 0.008666684	 1.5548682344	 0.1004303559	-0.3288
N	 0.0091655674	 0.1112017559	 0.1482058965	-0.067778
C	-1.252068197	-0.6139485544	 0.3850276872	-0.179315
C	-0.4801969744	-1.6208312329	 1.2701600707	-0.058582
C	 0.1433944342	-2.8488013234	 0.5579766712	-0.175488
N	 1.5695464591	-2.5598218054	 0.539904686	-0.311772
C	 1.9428607099	-1.2900627218	 0.8917403081	 0.427355
O	 3.0669128546	-0.8375889809	 0.8652159154	-0.387781
C	 0.6553062941	-0.5723572852	 1.2933483631	-0.096895
H	 1.0382617789	 1.9173263661	 0.0257196821	 0.141082
H	-0.5352752507	 1.8953963284	-0.7871130924	 0.121184
H	-0.4595829387	 2.019782258	 0.9891927786	 0.089043
H	-1.9832793507	-0.0357378142	 0.9735701802	 0.087698
H	-1.7464190528	-0.9917679132	-0.5184148716	 0.100697
H	-0.9473391687	-1.8887139388	 2.2160623562	 0.087894
H	-0.057955593	-3.7786376047	 1.1016646633	 0.110246
H	-0.2570907583	-2.9653547097	-0.4580868527	 0.112342
H	 2.2438443364	-3.1806779789	 0.1205656887	 0.249413
H	 0.7753831555	 0.0395398007	 2.1953527635	 0.079458
87.1609	130.9495	150.1525	223.4711	275.0681	322.1183	388.6217	465.768	523.401	583.8523	696.9719	702.0737	761.6473	838.3257	880.9002	910.5946	934.9487	980.9169	997.2745	1037.7919	1086.4217	1105.1466	1147.1364	1171.0148	1189.1412	1216.7068	1231.2425	1249.2534	1259.4696	1271.4545	1318.3269	1328.0763	1340.9007	1360.1594	1449.5424	1455.8724	1488.874	1498.6566	1519.3121	1532.5156	1828.4491	2924.3277	2966.8012	3008.7627	3036.6443	3041.3043	3048.7676	3061.4144	3108.5447	3126.3769	3637.1482
CN1CC2CNC(=O)C12	CN1C[C@H]2CNC(=O)[C@@H]12	
InChI=1S/C6H10N2O/c1-8-3-4-2-7-6(9)5(4)8/h4-5H,2-3H2,1H3,(H,7,9)	InChI=1S/C6H10N2O/c1-8-3-4-2-7-6(9)5(4)8/h4-5H,2-3H2,1H3,(H,7,9)/t4-,5+/m1/s1
