14
gdb 26459	3.91924	1.07906	0.94815	1.5767	63.32	-0.2489	-0.0429	0.206	1183.9735	0.100855	-473.853715	-473.846023	-473.845079	-473.886832	27.571	
O	-0.1192495314	 1.434307101	 0.0889390252	-0.426593
C	 0.0176822063	 0.0427045041	 0.0517753475	-0.056718
C	 0.7739123922	-0.3809124619	-1.2055324035	 0.132761
O	 1.1180465631	 0.4346679041	-2.0249890634	-0.256919
C	 0.7372391399	-0.4662231442	 1.2665387215	 0.214736
C	 1.3487269473	 0.2386591011	 2.2475886519	-0.099192
O	 1.8684897037	-0.6582410719	 3.1411166618	-0.135956
C	 1.54069209	-1.8660714825	 2.6367437014	 0.074679
N	 0.870826074	-1.8261561917	 1.5312437824	-0.315188
H	 0.2753327588	 1.7516845091	-0.74030638	 0.298113
H	-0.9677786004	-0.4558741336	-0.0008595065	 0.1171
H	 0.9838365283	-1.4610701996	-1.3099157984	 0.127601
H	 1.4822046274	 1.2832041242	 2.4603187387	 0.168393
H	 1.8616416708	-2.7314217482	 3.1948922315	 0.157184
62.3171	95.3918	164.7052	233.9175	310.5575	366.9614	439.3355	498.4637	638.0308	664.0704	714.8273	784.8824	789.772	850.0079	871.3794	936.3614	1005.5477	1032.9017	1091.2729	1136.5206	1152.5691	1235.3967	1245.0515	1255.4986	1333.6997	1355.105	1385.3761	1433.3014	1550.7389	1629.549	1814.5191	2941.3375	2979.9561	3278.2796	3319.3595	3673.0556
OC(C=O)C1=COC=N1	O[C@@H](C=O)c1cocn1	
InChI=1S/C5H5NO3/c7-1-5(8)4-2-9-3-6-4/h1-3,5,8H	InChI=1S/C5H5NO3/c7-1-5(8)4-2-9-3-6-4/h1-3,5,8H/t5-/m0/s1
