18
gdb 44452	4.09842	1.42704	1.30444	2.8772	77.56	-0.2604	0.0254	0.2858	1004.9864	0.150382	-401.896712	-401.890117	-401.889173	-401.927523	27.717	
N	-0.0605055252	 1.2598214462	-0.1014423371	-0.529709
C	-0.0189462034	 0.0049275031	-0.0127858429	 0.406175
C	-1.2549990914	-0.9258338761	-0.0783000062	-0.444296
C	-0.5462811858	-2.2229786177	-0.3711220462	 0.305507
C	-0.423790595	-3.7557002223	-0.1222978109	-0.320364
C	 0.9977207928	-3.2814301647	-0.6389340066	-0.102038
C	 0.2469939256	-2.4563477142	-1.705796005	-0.252809
C	 0.7945753985	-2.089948879	 0.3430763983	 0.126856
O	 1.1574305181	-0.724053095	 0.1407255881	-0.268579
H	 0.8765298031	 1.6588888085	-0.0214898559	 0.225724
H	-1.7620786898	-0.9254371481	 0.8932355885	 0.132025
H	-1.9535304543	-0.5629767907	-0.8330067682	 0.138498
H	-0.488566183	-4.09536475	 0.9149480511	 0.102888
H	-0.9686773354	-4.4177066793	-0.7980262676	 0.107386
H	 1.8778513947	-3.9109753664	-0.7718181473	 0.08207
H	-0.280154324	-3.0211549304	-2.478155803	 0.093489
H	 0.7731245549	-1.5980056077	-2.1240284617	 0.117348
H	 0.8511232598	-2.3271204264	 1.4102503825	 0.079829
109.6012	282.5349	342.4843	369.5871	480.8574	502.9482	545.8442	568.2413	706.3201	737.8853	773.6814	802.827	840.5522	890.0518	900.4219	910.1661	940.6885	968.8215	997.4134	1003.7051	1028.6869	1063.0842	1080.6232	1086.7916	1113.7454	1137.8055	1166.9832	1200.2384	1208.6097	1222.8914	1254.2723	1263.3799	1276.2561	1330.7827	1395.3966	1468.6943	1495.5548	1534.5131	1778.9551	3052.489	3055.0337	3061.6318	3070.6036	3112.8093	3129.5911	3130.7126	3142.6103	3472.4783
N=C1CC23CC(C2)C3O1	[NH][C]1C[C@@]23C[C@@H](C2)[C@H]3O1	
InChI=1S/C7H9NO/c8-5-3-7-1-4(2-7)6(7)9-5/h4,6,8H,1-3H2	InChI=1S/C7H9NO/c8-5-3-7-1-4(2-7)6(7)9-5/h4,6,8H,1-3H2/t4-,6-,7+/m1/s1
