20
gdb 110000	2.09067	1.43483	0.92938	3.2258	76.85	-0.2243	-0.0285	0.1958	1278.2085	0.168795	-440.257608	-440.247645	-440.246701	-440.293661	35.099	
C	 0.1339167248	 1.5407868992	 0.1747706022	-0.328658
N	 0.1166919347	 0.0929011574	 0.0991913825	-0.083729
C	-1.1969747509	-0.5644758787	 0.2291741653	-0.18349
C	-0.5444638162	-1.6448981764	 1.1353747133	-0.150582
C	-0.3870491941	-2.9963691031	 0.4875720322	 0.151855
O	 0.6224816522	-3.6506336089	 0.4326361554	-0.24137
C	 0.6703481346	-0.6768246903	 1.2422997277	 0.042935
C	 2.1071609194	-1.1479720278	 1.0499126862	-0.094049
O	 2.9808022942	-0.0240868547	 0.9664635538	-0.422444
H	 1.1649629934	 1.8947789481	 0.2483065402	 0.125632
H	-0.3166047677	 1.9674040424	-0.7279890902	 0.119764
H	-0.4191135496	 1.9305565032	 1.0506598926	 0.093767
H	-1.9387231132	 0.0430119061	 0.7707043467	 0.092381
H	-1.6422896245	-0.8986768558	-0.7158569285	 0.106353
H	-1.0836059625	-1.8166800798	 2.073885258	 0.110874
H	-1.3407022961	-3.3858273144	 0.0569614238	 0.081576
H	 0.6164901547	-0.1016507383	 2.1815381522	 0.067339
H	 2.4290654492	-1.7387879167	 1.9133381726	 0.110638
H	 2.1902436615	-1.7815438189	 0.1632421976	 0.111554
H	 2.9201941561	 0.3082283073	 0.0657814765	 0.289656
29.6758	75.7947	99.8622	168.8186	193.4537	212.4965	269.7308	295.3062	332.4107	373.0805	398.4881	492.3091	663.2858	680.9686	782.615	868.9739	892.8986	941.2631	983.6929	1017.3828	1039.193	1061.096	1110.4221	1116.1033	1148.1442	1166.8986	1180.4087	1207.6749	1234.1639	1249.2565	1278.5471	1321.1505	1340.0744	1364.8569	1396.1595	1422.5422	1425.9535	1449.2654	1484.9663	1487.2818	1502.291	1521.3826	1827.6136	2847.2701	2927.0685	2961.035	2978.8774	3041.3004	3053.4539	3056.5276	3062.1657	3109.2568	3118.9926	3828.384
CN1CC(C=O)C1CO	CN1C[C@@H](C=O)[C@H]1CO	
InChI=1S/C6H11NO2/c1-7-2-5(3-8)6(7)4-9/h3,5-6,9H,2,4H2,1H3	InChI=1S/C6H11NO2/c1-7-2-5(3-8)6(7)4-9/h3,5-6,9H,2,4H2,1H3/t5-,6+/m0/s1
