23
gdb 117891	2.91397	0.61254	0.53383	0.8521	93.69	-0.24	0.0493	0.2894	2198.6132	0.202076	-388.266258	-388.254416	-388.253472	-388.306654	40.572	
C	 0.0305854608	 1.2487835186	-0.566673793	-0.383713
C	-0.0147974643	-0.1542414667	 0.0159383529	-0.028977
O	-1.3514239215	-0.6138207309	-0.051022419	-0.254019
C	-1.5358246479	-1.9648489708	 0.3650549635	-0.040212
C	-1.5877420249	-2.088777723	 1.8973374015	-0.390349
C	-2.7660188058	-2.4666736018	-0.2477003595	 0.033079
C	-3.785176333	-2.899139878	-0.7213894731	 0.120667
C	-5.0045797674	-3.4216424787	-1.3289881354	-0.316393
C	-4.7640381948	-4.0916469706	-2.6940366245	-0.363817
H	 1.0517058201	 1.6410377198	-0.5378977094	 0.112052
H	-0.3135736289	 1.2431249981	-1.6045915663	 0.127781
H	-0.6161610013	 1.9211153716	 0.0040840409	 0.127329
H	 0.646243054	-0.8303726093	-0.5526908247	 0.085175
H	 0.3523367759	-0.1438283422	 1.0545689773	 0.08645
H	-0.6899925574	-2.5685487982	-0.0074107898	 0.087001
H	-0.6523958273	-1.7452363561	 2.3480667463	 0.114574
H	-2.4116340515	-1.4870580212	 2.2889252057	 0.132091
H	-1.7454464898	-3.1312112899	 2.1874935055	 0.123322
H	-5.4727200104	-4.1406055633	-0.6441782064	 0.127398
H	-5.7276383728	-2.6038845371	-1.4439834049	 0.131509
H	-5.7058822516	-4.4638987469	-3.1082817275	 0.112897
H	-4.3313513182	-3.3812108528	-3.4034866763	 0.129923
H	-4.0733307621	-4.9337644709	-2.5972591438	 0.126233
7.3746	43.8226	62.1631	91.7685	118.5181	189.8142	203.6662	229.2632	245.536	273.0807	338.1459	362.6364	408.5429	501.967	536.4593	552.5695	740.9981	784.1543	821.1677	847.4178	925.9425	961.2077	1018.8175	1068.1979	1082.7354	1098.1692	1104.1824	1126.7696	1150.3524	1187.3113	1189.2014	1286.2808	1295.2441	1343.1379	1350.4095	1357.1144	1396.6425	1401.7697	1408.3783	1435.4215	1473.2686	1482.6094	1488.9108	1491.088	1494.5721	1500.1189	1505.3799	1529.394	2368.7452	2945.9243	2957.8944	2987.3241	3018.9772	3043.2701	3044.2657	3046.1097	3046.143	3116.2019	3118.0263	3119.174	3122.6665	3123.2694	3131.5618
CCOC(C)C#CCC	CCO[C@@H](C)C#CCC	
InChI=1S/C8H14O/c1-4-6-7-8(3)9-5-2/h8H,4-5H2,1-3H3	InChI=1S/C8H14O/c1-4-6-7-8(3)9-5-2/h8H,4-5H2,1-3H3/t8-/m0/s1
