21
gdb 60232	3.18621	0.91949	0.75298	1.0522	80.33	-0.256	-0.0317	0.2243	1543.2587	0.179897	-424.23125	-424.221341	-424.220397	-424.2668	35.892	
C	 0.1111845513	 1.5195594507	-0.1924930481	-0.392344
C	 0.0692950923	 0.0042685372	 0.0469769767	 0.031478
C	 0.7318955943	-0.3558791332	 1.3845745467	-0.381876
C	-1.3793683811	-0.5104042366	-0.0488501728	-0.192275
C	-1.5274216092	-2.0253707364	-0.0702251838	-0.001569
O	-1.3631155958	-2.6937867798	 1.211875651	-0.286529
C	-2.6715985831	-3.296654211	 1.1886751679	-0.190559
C	-2.9557268735	-2.5889472367	-0.1416750866	 0.336753
O	-3.8801134105	-2.4851941014	-0.8875923925	-0.273801
H	 1.1392765127	 1.8941077293	-0.1559484148	 0.112605
H	-0.3098078448	 1.7857342178	-1.1678380536	 0.110517
H	-0.462113314	 2.0527915004	 0.5752490523	 0.114143
H	 0.6411243121	-0.4797520576	-0.7586442253	 0.07261
H	 0.1993212065	 0.1170755612	 2.2184222968	 0.110281
H	 0.7296836228	-1.4331081232	 1.5649247343	 0.137678
H	 1.7679365916	-0.0020433876	 1.4091559338	 0.105722
H	-1.9771485907	-0.1058976979	 0.7784901022	 0.100896
H	-1.8362538567	-0.1434751878	-0.9777180335	 0.114608
H	-0.8627382049	-2.468122033	-0.8280124958	 0.104339
H	-2.640967225	-4.3926500396	 1.1331423677	 0.132262
H	-3.3017616644	-2.9933039648	 2.0341019472	 0.135061
47.5447	86.2536	114.4067	130.5347	220.8717	235.1587	261.8703	302.1286	370.373	403.5993	424.729	516.6401	550.8143	693.4619	808.7737	822.3105	853.9886	922.5433	934.798	968.0106	976.2682	991.9792	1011.9205	1080.0776	1094.8848	1127.1142	1140.296	1155.2305	1197.2533	1236.0812	1255.4025	1286.8623	1323.2895	1355.1284	1365.4995	1389.3446	1403.6457	1426.7644	1464.6203	1481.3154	1487.141	1494.4578	1506.235	1509.8738	1922.7434	2991.7423	2994.4487	3017.1412	3017.2721	3024.6706	3032.0296	3061.3095	3063.7765	3088.8152	3094.4318	3100.0236	3127.6286
CC(C)CC1OCC1=O	CC(C)C[C@H]1OCC1=O	
InChI=1S/C7H12O2/c1-5(2)3-7-6(8)4-9-7/h5,7H,3-4H2,1-2H3	InChI=1S/C7H12O2/c1-5(2)3-7-6(8)4-9-7/h5,7H,3-4H2,1-2H3/t7-/m1/s1
