21
gdb 100569	2.35328	0.99558	0.84569	2.1465	84.56	-0.2404	-0.0192	0.2212	1486.8651	0.178484	-387.083	-387.071954	-387.07101	-387.120477	39.06	
C	 0.1972154777	 1.5630629662	 1.0051562074	-0.397673
C	 0.3797369024	 0.2388580431	 0.2588949159	-0.166077
C	 0.5101879403	-0.9916757555	 1.1804900536	-0.061756
C	-0.7592960479	-1.2569911033	 2.015657825	-0.398648
C	 0.7873816398	-2.2325551473	 0.3354800863	 0.392408
O	 0.130565205	-2.5060147785	-0.6398426828	-0.31499
C	 1.9737645738	-3.1352869903	 0.7373466666	-0.444899
C	 2.0670077744	-3.4281529421	 2.1598809313	 0.302948
C	 2.130720551	-3.6718985758	 3.3353660728	-0.454731
H	 1.0187104087	 1.7416982146	 1.7083429749	 0.113668
H	 0.1760368603	 2.400812289	 0.3013190548	 0.116748
H	-0.7379424332	 1.5891924444	 1.5722698188	 0.121634
H	-0.4547515734	 0.0670455505	-0.4290224222	 0.119779
H	 1.2785264605	 0.3038583886	-0.3675662875	 0.093394
H	 1.350549391	-0.8426582514	 1.8688729716	 0.083941
H	-0.6350668142	-2.1420624985	 2.6457553339	 0.130889
H	-0.9786546483	-0.4099651338	 2.6705494797	 0.119758
H	-1.6172547587	-1.4209745408	 1.3565754174	 0.133544
H	 1.9010672052	-4.0515492906	 0.1439919908	 0.154787
H	 2.8858808456	-2.6129966944	 0.4109751375	 0.151957
H	 2.1927296201	-3.892656864	 4.372256644	 0.203321
27.7758	48.9769	84.0237	119.3653	194.282	210.0727	222.3383	269.3996	292.2095	334.8612	339.8078	427.6542	469.9615	569.3109	621.7241	645.0471	689.6437	755.2206	797.4657	860.4761	915.6213	967.2946	984.5809	988.8902	1038.7396	1100.4404	1105.1219	1123.6486	1193.327	1217.12	1288.1859	1292.7395	1339.2689	1351.1459	1387.9917	1399.3541	1414.1702	1445.5986	1485.3826	1493.8127	1498.7837	1507.2347	1511.1935	1812.4231	2236.3725	3005.5585	3026.1263	3033.272	3039.0069	3044.225	3075.62	3087.6379	3101.2	3108.5194	3119.461	3122.1192	3504.5426
CCC(C)C(=O)CC#C	CC[C@@H](C)C(=O)CC#C	
InChI=1S/C8H12O/c1-4-6-8(9)7(3)5-2/h1,7H,5-6H2,2-3H3	InChI=1S/C8H12O/c1-4-6-8(9)7(3)5-2/h1,7H,5-6H2,2-3H3/t7-/m1/s1
