18
gdb 84958	2.2962	1.62736	1.01021	5.9354	74.74	-0.2337	-0.0603	0.1734	1168.9636	0.147148	-439.147672	-439.138651	-439.137706	-439.182114	32.6	
C	-0.1128489737	 1.5673220204	 0.009474611	-0.402923
C	 0.0330159349	 0.0444194236	 0.0048128999	 0.034483
C	 0.7901719673	-0.4939093162	-1.2281436554	-0.368496
C	 1.8481949096	-1.4392130688	-0.6814854934	 0.318812
O	 2.5837046121	-2.155372306	-1.3018715383	-0.280815
C	 1.8187438826	-1.326120339	 0.8527349519	 0.297805
O	 2.5399568349	-1.9019542322	 1.6375348669	-0.370728
N	 0.8082340216	-0.4528743188	 1.1465281755	-0.079614
C	 0.4139363336	-0.1928485082	 2.5139942088	-0.354019
H	 0.8697719841	 2.0502747546	-0.0081864652	 0.129089
H	-0.6713525143	 1.8877666764	-0.8752909851	 0.129971
H	-0.6554386308	 1.9206534753	 0.8908047199	 0.127183
H	-0.9726821408	-0.3991963408	 0.0489368101	 0.091978
H	 0.1419739788	-1.0082167627	-1.941268077	 0.146507
H	 1.2925592398	 0.313403486	-1.7723533197	 0.145798
H	 1.0585933983	-0.7936287866	 3.157930058	 0.172133
H	 0.531482336	 0.8642235539	 2.7748152892	 0.134924
H	-0.6332353941	-0.4766950108	 2.6778382029	 0.127913
37.124	96.3057	158.1978	182.7043	268.1063	296.7067	317.8416	335.4332	430.7259	438.8489	542.6195	576.7422	636.3008	682.2708	703.3539	883.1454	916.5987	954.6894	1035.3573	1064.9295	1075.3285	1116.5223	1145.3806	1163.47	1209.2645	1250.7095	1299.5354	1314.3287	1381.4154	1410.2755	1421.476	1443.1919	1450.1682	1489.0684	1491.9124	1505.1182	1518.6157	1813.9958	1862.8356	2987.5759	3021.0893	3038.3256	3057.4467	3079.2553	3111.8174	3113.7452	3117.1249	3143.5615
CC1CC(=O)C(=O)N1C	C[C@H]1CC(=O)C(=O)N1C	
InChI=1S/C6H9NO2/c1-4-3-5(8)6(9)7(4)2/h4H,3H2,1-2H3	InChI=1S/C6H9NO2/c1-4-3-5(8)6(9)7(4)2/h4H,3H2,1-2H3/t4-/m0/s1
