15
gdb 49049	2.17148	1.75538	1.30031	3.5437	65.71	-0.2677	-0.048	0.2197	999.7717	0.111919	-457.777617	-457.769825	-457.76888	-457.810716	27.952	
O	-0.7944602466	 0.9890673829	-0.5673330006	-0.238646
C	 0.1347664968	 0.9865134184	 0.1996832322	 0.054881
C	 1.3571306275	 1.8288745267	 0.0255775012	 0.043586
C	 1.5492149968	 3.0931445599	 0.9496051213	-0.298343
C	 1.862528592	 3.9451258762	-0.3206290821	-0.23373
C	 1.7186946057	 2.68984058	-1.2014342193	 0.071824
O	 2.9901582997	 1.9655530328	-1.3288646824	-0.256308
C	 2.7073195655	 1.1542514775	-0.2587494385	 0.422405
O	 3.3667960882	 0.2798599733	 0.1993928098	-0.320917
H	 0.1366708651	 0.354395722	 1.1141896995	 0.10041
H	 0.6230813107	 3.3839595622	 1.4485127102	 0.133973
H	 2.3387564393	 3.0016040675	 1.6965590635	 0.136741
H	 1.0994645301	 4.6982936826	-0.5264979114	 0.128003
H	 2.8480927534	 4.4106284227	-0.3648592026	 0.13298
H	 1.1730163158	 2.7034521354	-2.1412501309	 0.123142
59.0946	128.6653	144.564	202.4841	237.6302	353.1353	423.6382	612.8445	648.745	676.808	743.3169	756.4225	842.1478	868.2838	915.6616	945.3072	955.7737	984.1203	1064.9309	1089.1045	1111.4758	1153.2672	1196.3184	1223.9485	1236.2811	1274.9433	1321.9296	1331.4693	1417.9275	1466.0725	1489.5617	1815.1724	1932.122	2900.138	3079.5741	3084.1887	3131.3372	3147.0597	3161.0775
O=CC12CCC1OC2=O	O=C[C@]12CC[C@H]1OC2=O	
InChI=1S/C6H6O3/c7-3-6-2-1-4(6)9-5(6)8/h3-4H,1-2H2	InChI=1S/C6H6O3/c7-3-6-2-1-4(6)9-5(6)8/h3-4H,1-2H2/t4-,6-/m1/s1
