21
gdb 64418	2.44297	1.65913	1.33014	1.9162	77.59	-0.2482	0.0815	0.3297	1068.9324	0.182506	-424.218684	-424.210171	-424.209227	-424.25116	34.047	
C	 0.011522718	 1.5158098504	-0.0664133662	-0.408871
C	-0.018620755	-0.0103467467	 0.0035854326	 0.333243
C	-1.4729137221	-0.5102558585	 0.04836137	-0.420978
O	 0.6105785236	-0.4527649436	-1.2198767928	-0.274476
C	 1.0215846793	-1.7890381953	-1.1993359047	 0.005022
O	 2.0946117045	-2.0053546976	-0.3146365365	-0.244183
C	 1.7847903842	-1.6304506462	 0.9997023914	 0.088677
C	 2.2236929525	-0.2592304224	 1.431349452	-0.328756
C	 0.7541887769	-0.5451789048	 1.2108188213	-0.071564
H	 1.0401670749	 1.8759041113	-0.1355071822	 0.122767
H	-0.535403312	 1.8633366985	-0.9479372575	 0.119663
H	-0.4508517492	 1.9497958035	 0.8252929855	 0.111438
H	-1.9979105794	-0.2077252208	-0.8616178626	 0.122177
H	-1.5286239174	-1.5991058648	 0.1352408633	 0.117419
H	-1.9972053029	-0.0834087983	 0.9091427788	 0.1154
H	 0.1826557381	-2.4578503649	-0.9454161581	 0.07764
H	 1.3933122024	-2.0225891235	-2.1992480341	 0.115398
H	 1.8401762888	-2.4589028069	 1.7018909302	 0.093082
H	 2.5700421284	-0.1069731769	 2.4475763028	 0.109685
H	 2.7468351826	 0.3138068625	 0.6738343069	 0.129913
H	 0.1503141736	-0.6352418452	 2.10863807	 0.087304
105.3332	194.3563	216.2814	255.7599	296.0558	325.141	340.5433	377.1998	434.4582	486.5751	526.0898	547.6337	690.4603	747.5488	797.7871	821.2305	854.4505	923.9814	934.8876	984.4539	989.3557	1026.3546	1034.6754	1058.4345	1072.0284	1100.6373	1123.7441	1168.6662	1184.8957	1199.6557	1226.3177	1239.7055	1269.6195	1313.2472	1368.2209	1394.0987	1396.8071	1415.0041	1443.2776	1470.9668	1476.4242	1482.7438	1496.5259	1506.5914	1516.4357	2963.5657	3038.7352	3045.5921	3107.2167	3109.7982	3114.7876	3122.1079	3127.2897	3130.9846	3136.1222	3152.5442	3227.5208
CC1(C)OCOC2CC12	CC1(C)OCO[C@H]2C[C@@H]12	
InChI=1S/C7H12O2/c1-7(2)5-3-6(5)8-4-9-7/h5-6H,3-4H2,1-2H3	InChI=1S/C7H12O2/c1-7(2)5-3-6(5)8-4-9-7/h5-6H,3-4H2,1-2H3/t5-,6+/m1/s1
