19
gdb 68620	2.82393	1.53162	1.2178	1.6402	81.28	-0.248	0.0465	0.2945	1080.5963	0.158674	-385.84627	-385.838023	-385.837078	-385.878565	32.823	
C	 0.0580399608	 1.5171609644	 0.1119141494	-0.497179
C	 0.0148744584	 0.0212064224	 0.0183232142	 0.41643
C	 0.7871894686	-0.7126766191	-1.1042153618	-0.261153
C	 0.5831091783	-2.172206813	-0.5888032254	-0.234922
C	-0.2460173379	-1.8161946864	 0.6601359452	 0.079258
O	 0.4902553383	-0.6887278247	 1.2106045682	-0.328611
C	-1.3103973337	-0.8212077592	 0.1110077906	-0.252389
C	-2.282406474	-0.3487559044	 1.0714934557	 0.313326
C	-3.1110066148	 0.0492141161	 1.846968031	-0.42365
H	 1.0865848047	 1.8525265875	 0.2800531274	 0.129688
H	-0.300972358	 1.9684745353	-0.8187752934	 0.121322
H	-0.5659655628	 1.8705113905	 0.9362868548	 0.142302
H	 0.3649852593	-0.5337466652	-2.0968045733	 0.099672
H	 1.83628914	-0.4089483764	-1.1122590504	 0.108966
H	 0.0484908106	-2.8176565688	-1.2908257569	 0.100718
H	 1.5207453586	-2.6576273655	-0.3116852391	 0.111953
H	-0.4933361324	-2.5876853469	 1.3877646995	 0.08858
H	-1.7869458545	-1.0865469442	-0.8386839303	 0.093731
H	-3.8371929495	 0.3944659276	 2.5403604442	 0.191958
131.2505	143.1117	194.4544	253.5766	298.1338	340.2237	378.5229	447.6248	497.024	590.373	619.0341	634.1549	642.1735	700.7101	803.8275	827.2718	879.2492	886.6659	916.2008	926.8399	949.1433	1000.966	1011.1084	1047.455	1105.0958	1128.7425	1169.8153	1178.0633	1207.6769	1241.7609	1262.6264	1294.4758	1299.5825	1336.3316	1367.9597	1416.0432	1475.8821	1481.5625	1492.3366	1500.5478	2235.6364	3040.2429	3049.6823	3062.2047	3072.0418	3106.9636	3109.8281	3126.0747	3127.2151	3138.1321	3504.2772
CC12CCC(O1)C2C#C	C[C@@]12CC[C@@H](O1)[C@H]2C#C	
InChI=1S/C8H10O/c1-3-6-7-4-5-8(6,2)9-7/h1,6-7H,4-5H2,2H3	InChI=1S/C8H10O/c1-3-6-7-4-5-8(6,2)9-7/h1,6-7H,4-5H2,2H3/t6-,7-,8+/m1/s1
