16
gdb 51244	4.64515	0.86332	0.79321	1.9795	76.89	-0.2489	-0.0559	0.193	1400.559	0.123824	-437.917651	-437.909262	-437.908318	-437.952611	29.567	
N	-0.0537738979	 1.3191332214	 0.0517980615	-0.548665
C	-0.0410620157	 0.0540950781	 0.0265606375	 0.427758
O	 1.0910921212	-0.7269010384	-0.0557247142	-0.248441
C	 0.7221556303	-2.1050162821	-0.0595360752	-0.168866
C	-0.7833966133	-2.1111063035	 0.0325545393	 0.275284
C	-1.5786655496	-3.3798548093	 0.0157995216	-0.382549
C	-1.6333735969	-3.9449215197	-1.4042053519	 0.154813
O	-1.0963654791	-4.9625713849	-1.7484098662	-0.22201
C	-1.2010361197	-0.8425262967	 0.0773301489	-0.280077
H	 0.8964197131	 1.6895467213	 0.0031294956	 0.225236
H	 1.09457479	-2.581920246	-0.9764180727	 0.13938
H	 1.1946761201	-2.6116936442	 0.7932070175	 0.132058
H	-1.1345440027	-4.1421402011	 0.6634184978	 0.135823
H	-2.6047629935	-3.1796906438	 0.34460022	 0.135651
H	-2.2043346801	-3.3130745748	-2.1200930736	 0.094704
H	-2.2133626561	-0.4725666763	 0.1502096841	 0.129899
30.1513	42.7889	135.7262	197.2899	264.9632	269.8951	449.919	471.6501	512.6185	610.151	690.3948	699.9074	837.7117	864.5084	899.1624	910.9205	920.283	999.8142	1013.1904	1036.4388	1062.2242	1092.8194	1164.2156	1186.7951	1199.9	1265.0091	1285.3053	1358.6351	1389.1853	1415.8716	1464.5546	1500.0486	1692.8031	1761.0267	1837.4975	2891.1398	3010.7754	3040.4478	3041.5616	3103.0369	3249.2438	3482.6733
N=C1OCC(CC=O)=C1	[NH]C1=C[C](CO1)CC=O	
InChI=1S/C6H7NO2/c7-6-3-5(1-2-8)4-9-6/h2-3,7H,1,4H2	InChI=1S/C6H7NO2/c7-6-3-5(1-2-8)4-9-6/h2-3,7H,1,4H2
