16
gdb 91258	2.23842	1.28874	0.93928	7.4339	79.89	-0.1831	-0.0196	0.1636	1239.9029	0.122926	-437.841902	-437.833067	-437.832123	-437.876414	31.54	
C	 0.5186173766	 1.4398222292	 0.43879062	-0.343568
N	 0.2632513991	 0.0210701425	 0.0910207723	-0.092934
H	-0.6855137045	-0.2129291015	 0.3955947562	 0.264679
C	 0.493312221	-0.3925708111	-1.3523777992	-0.306584
C	 1.5597346301	-1.4213654129	-0.8176847466	 0.29204
O	 2.2527006737	-2.2169819722	-1.4184932955	-0.396954
C	 2.7565865443	-0.6939310119	 2.312700151	 0.48155
O	 3.7239617266	-0.1406936968	 2.6439171497	-0.230517
C	 1.6587254293	-1.2957715319	 1.8821533442	-0.569116
C	 1.3149190118	-1.0008113943	 0.5038938449	 0.03664
H	 1.4892219888	 1.7169073807	 0.0259711328	 0.168847
H	-0.2706670326	 2.0800243084	 0.0347557518	 0.140904
H	 0.5515713909	 1.5262632069	 1.5268740308	 0.161038
H	-0.4143317163	-0.8070798808	-1.7967896405	 0.13496
H	 0.8599127651	 0.447894711	-1.9449797783	 0.138539
H	 1.1620047163	-2.0153443553	 2.5321734265	 0.120475
53.8125	71.2137	122.205	198.91	227.7461	281.8004	318.0057	457.571	483.8084	556.3065	574.8678	603.1793	622.1664	698.3537	734.2182	857.2005	874.6457	946.5796	1014.1887	1044.6683	1087.1397	1123.9404	1130.2037	1203.8593	1232.4833	1257.2135	1338.0935	1425.0342	1432.8111	1441.5017	1481.5465	1486.0704	1498.9192	1842.6947	2200.1825	3051.1442	3071.2904	3098.5411	3137.4546	3141.1764	3162.0864	3373.533
C[NH+]1C[C-]2OC(=O)C=C12	C[NH]1CC(=O)[C]1[CH][C][O]	
InChI=1S/C6H6NO2/c1-7-3-5-4(7)2-6(8)9-5/h2H,3H2,1H3/q-1/p+1	InChI=1S/C6H7NO2/c1-7-4-6(9)5(7)2-3-8/h2,7H,4H2,1H3
