14
gdb 51393	3.81319	1.03927	0.97395	2.5652	64.2	-0.2645	-0.018	0.2465	1188.4445	0.100601	-473.833485	-473.825851	-473.824906	-473.866787	27.636	
O	 0.0078543524	 0.1764939644	 0.6152026505	-0.315555
C	 0.0540516	 1.2728715109	 0.1035477907	 0.159248
N	 1.1970205196	 1.8714878257	-0.3427802377	-0.296579
C	 2.461790876	 1.2305922339	-0.2560503006	 0.051323
C	 3.6463587085	 1.7513994672	-0.9638550348	 0.021919
O	 3.5629477099	 3.2025661581	-1.0141167374	-0.278308
C	 3.7101506034	 3.2632746208	 0.3817715977	 0.469836
O	 3.8396468583	 4.2385027931	 1.0408180108	-0.308054
C	 3.6705506979	 1.7734177989	 0.5550825901	-0.30695
H	-0.8352047711	 1.9083479278	-0.0669652021	 0.090996
H	 1.1565349358	 2.783864448	-0.7712208341	 0.27136
H	 2.3667608354	 0.1531030091	-0.1714028862	 0.15911
H	 4.2849721167	 1.2701318653	-1.6916037304	 0.141406
H	 4.1957739874	 1.1817127866	 1.2898792037	 0.140249
38.3316	123.438	175.1053	239.1321	255.9386	440.256	475.0044	557.9739	605.4258	701.2144	724.384	798.0513	812.5128	824.4132	891.1232	933.4732	980.0231	1018.7237	1029.8506	1050.6732	1068.2716	1112.5015	1143.9331	1236.0932	1270.6998	1299.9431	1395.4584	1428.9038	1533.1045	1806.7047	1954.4229	2961.6158	3188.1709	3218.6488	3238.7641	3626.5987
O=CNC1C2OC(=O)C12	O=CN[C@H]1[C@H]2OC(=O)[C@@H]12	
InChI=1S/C5H5NO3/c7-1-6-3-2-4(3)9-5(2)8/h1-4H,(H,6,7)	InChI=1S/C5H5NO3/c7-1-6-3-2-4(3)9-5(2)8/h1-4H,(H,6,7)/t2-,3+,4-/m0/s1
