18
gdb 35941	2.30084	1.51465	1.2661	4.8125	77.08	-0.26	-0.0013	0.2586	1081.421	0.149206	-401.958993	-401.950759	-401.949814	-401.99255	30.55	
N	-0.4412415165	-1.1596543229	-0.1890901608	-0.325073
C	-0.2600304738	-0.0226238836	-0.0933610134	 0.288484
C	-0.0311062487	 1.4241039643	-0.0135962519	-0.170926
C	-0.655184686	 2.0036469114	 1.2759217143	-0.084276
O	-0.2537468305	 1.3387240918	 2.4431394429	-0.222102
C	 1.0004668429	 1.7155955317	 2.9805881099	-0.128764
C	 2.22751808	 1.3072399107	 2.2012874243	-0.052274
C	 2.4161217036	 1.3172010388	 0.8822606859	-0.049388
C	 1.4643742718	 1.7664156584	-0.1988531076	-0.274194
H	-0.5731013957	 1.8773682669	-0.8548536145	 0.125745
H	-0.4197800169	 3.0798211017	 1.3233902446	 0.093757
H	-1.7429133349	 1.8960855379	 1.2233063107	 0.126049
H	 1.019932117	 2.8088606403	 3.1467919858	 0.101961
H	 1.0324511532	 1.2471918053	 3.9685591527	 0.124559
H	 3.0633947245	 0.9978184965	 2.8255299368	 0.098412
H	 3.3922540985	 1.0057534353	 0.5180786309	 0.09963
H	 1.7920546962	 1.3526754617	-1.1573779702	 0.127396
H	 1.5331997952	 2.8589838338	-0.3070928005	 0.121004
44.5394	88.3705	168.2941	246.1095	308.6028	367.906	373.419	421.9657	467.6315	583.5934	657.7092	724.1948	744.3929	816.1222	870.9193	889.9775	925.2818	960.6276	1001.4137	1036.458	1043.8219	1060.0686	1125.2772	1177.0198	1235.1974	1249.5282	1272.8964	1293.9876	1324.3162	1364.4667	1381.3189	1403.9027	1421.9242	1426.5228	1473.6075	1477.5825	1492.206	1734.3315	2360.7332	2933.5734	2972.7484	3002.9094	3024.7704	3077.294	3080.5481	3083.4134	3139.4876	3163.0825
N#CC1COCC=CC1	N#C[C@H]1COCC=CC1	
InChI=1S/C7H9NO/c8-5-7-3-1-2-4-9-6-7/h1-2,7H,3-4,6H2	InChI=1S/C7H9NO/c8-5-7-3-1-2-4-9-6-7/h1-2,7H,3-4,6H2/t7-/m0/s1
