17
gdb 37201	2.73061	2.06385	1.74647	1.2715	69.7	-0.2396	0.0499	0.2894	851.4367	0.136517	-421.712986	-421.706369	-421.705425	-421.743579	27.35	
C	-0.056933829	 1.5556166979	-0.0368359138	-0.28605
C	 1.5201656076	 1.5600620834	 0.0060827828	-0.29278
C	 1.4865577245	 0.0061889003	-0.0186845187	 0.360636
O	 1.5806232985	-0.7124011712	 1.2208449956	-0.330166
C	 0.1243166009	-0.7579440306	 1.3107081491	-0.144718
C	-0.0416799187	-0.0054025187	-0.0262559062	 0.13702
C	 0.0068945644	-0.8534342871	-1.3060666663	-0.045147
O	 0.7661051224	-0.1068429698	-2.2651445992	-0.230851
C	 1.5011355862	-0.8534509113	-1.2943266335	-0.056717
H	-0.5554139674	 2.0160455178	 0.8197034519	 0.102535
H	-0.4658373052	 1.9769938028	-0.9558261308	 0.122109
H	 1.9949329341	 2.0221851713	-0.8607141665	 0.118596
H	 1.9618389834	 1.9591686581	 0.9209891016	 0.114701
H	-0.2473934149	-1.7888553589	 1.3414657103	 0.109004
H	-0.2419910137	-0.2193508606	 2.1927328294	 0.109833
H	-0.7017458461	-1.5707239018	-1.7079781198	 0.103432
H	 2.2262654631	-1.5732554916	-1.6585566459	 0.108563
175.9118	248.9693	287.1749	344.0218	351.2752	522.1322	545.6446	699.3956	707.5417	733.3986	740.9144	833.2829	852.4115	868.808	893.1065	911.6399	927.0625	964.7953	1003.0633	1023.3271	1039.1826	1113.0918	1137.2864	1147.2968	1157.8955	1203.1557	1219.8603	1228.5073	1243.2232	1268.8118	1278.9506	1299.5689	1330.0638	1347.0758	1450.3614	1467.2923	1513.6705	3018.726	3065.7578	3068.3068	3078.2166	3127.7959	3144.8632	3161.3516	3180.0534
C1CC23OCC12C1OC31	C1C[C@@]23OC[C@@]12[C@H]1O[C@@H]31	
InChI=1S/C7H8O2/c1-2-7-5-4(9-5)6(1,7)3-8-7/h4-5H,1-3H2	InChI=1S/C7H8O2/c1-2-7-5-4(9-5)6(1,7)3-8-7/h4-5H,1-3H2/t4-,5+,6+,7-/m0/s1
