23
gdb 92535	2.77206	1.43599	1.13574	1.7376	84.02	-0.241	0.0703	0.3113	1180.7123	0.207334	-388.291243	-388.282493	-388.281548	-388.324694	34.233	
C	-0.6830876221	 1.3861954777	-0.0153863019	-0.414093
C	-0.0007318632	 0.019416394	-0.0178428298	 0.046578
C	 0.9371304347	-0.2315794577	-1.2191851372	-0.241531
C	 1.710058719	-1.5014846233	-0.8284269184	-0.067313
C	 3.243750822	-1.4198770806	-0.6975866506	-0.08624
O	 3.1658112399	-1.3145848928	 0.7397928705	-0.289385
C	 1.7296837883	-1.5138757809	 0.7226216028	 0.126366
C	 0.8736590336	-0.3217594225	 1.2274311916	-0.037667
C	 1.7296698809	 0.8402418709	 1.7460950441	-0.384906
H	 0.0460746454	 2.2026746928	-0.0241260177	 0.11836
H	-1.3188124421	 1.5038306708	-0.8995269316	 0.110542
H	-1.3187430033	 1.5151194159	 0.8674053608	 0.1125
H	-0.7884470735	-0.7469003993	-0.0639583118	 0.06956
H	 0.3878707739	-0.3343621505	-2.1596830291	 0.094689
H	 1.6221854825	 0.6169079366	-1.3417920023	 0.097761
H	 1.3290411571	-2.396465381	-1.3228560598	 0.07278
H	 3.7855746849	-2.3238013544	-1.00413738	 0.096721
H	 3.7258427985	-0.5444270319	-1.1519671509	 0.096415
H	 1.4688857395	-2.4563629735	 1.2181584675	 0.068936
H	 0.2247889653	-0.6526309627	 2.0461993606	 0.063279
H	 2.3490638355	 1.281301742	 0.9600223726	 0.115774
H	 1.098183481	 1.6290053161	 2.1653734162	 0.105735
H	 2.4093557221	 0.4943622943	 2.5287622842	 0.12514
52.7104	123.9935	227.7533	236.298	259.4578	283.093	307.7702	382.3096	448.1131	506.4172	561.2615	668.1364	753.9111	794.5291	826.5003	869.1698	895.7238	909.4229	948.6561	982.3941	1000.389	1016.7819	1029.6068	1043.9518	1081.5408	1096.816	1111.5475	1154.7715	1166.5296	1176.0335	1207.0478	1224.3371	1264.1133	1285.6158	1307.659	1333.691	1345.0062	1350.6228	1358.6136	1377.3152	1381.616	1412.8844	1418.2355	1487.6131	1492.0525	1496.0479	1502.8453	1507.2179	1522.8173	2989.118	3004.0366	3022.5298	3027.5622	3030.8499	3043.129	3046.1005	3047.1521	3077.3838	3093.1367	3098.6734	3102.9758	3114.2764	3121.3905
CC1CC2COC2C1C	C[C@H]1C[C@H]2CO[C@H]2[C@H]1C	
InChI=1S/C8H14O/c1-5-3-7-4-9-8(7)6(5)2/h5-8H,3-4H2,1-2H3	InChI=1S/C8H14O/c1-5-3-7-4-9-8(7)6(5)2/h5-8H,3-4H2,1-2H3/t5-,6-,7-,8-/m0/s1
