22
gdb 89120	4.534	0.57552	0.54266	2.683	84.72	-0.2284	-0.0216	0.2068	2031.2018	0.191935	-404.325492	-404.315109	-404.314165	-404.36239	36.615	
C	-0.389553963	 1.4017996545	 0.2014384595	-0.314063
N	-0.0226748171	-0.0031318453	 0.119879753	-0.076517
C	 1.3305143284	-0.3193313178	-0.3214069793	-0.264079
C	 0.9160422468	-0.5834250295	 1.0865130006	 0.023285
C	 1.5226125664	 0.1808971297	 2.2468801381	-0.218661
C	 0.6069943506	 0.2194671644	 3.4792483698	-0.189875
C	 1.2511593784	 0.9390204908	 4.6768250789	-0.274453
C	 0.3012138007	 1.046115061	 5.8473068558	 0.159889
O	 0.5217095983	 0.6406017723	 6.958991365	-0.236204
H	 0.4265534353	 2.0780514064	 0.5011307724	 0.097707
H	-0.7415539833	 1.7255770778	-0.7833782124	 0.126589
H	-1.2164950427	 1.5242680814	 0.908882527	 0.121593
H	 1.4274649853	-1.1282941338	-1.0412670015	 0.114106
H	 2.0192538425	 0.5112486018	-0.4807573844	 0.101955
H	 0.6525638695	-1.6100391671	 1.3438541835	 0.088839
H	 2.4697154171	-0.3047114568	 2.517394242	 0.107453
H	 1.783549169	 1.2018697396	 1.946939923	 0.099546
H	-0.337788754	 0.7136085499	 3.2197865842	 0.109927
H	 0.3459537487	-0.8059449352	 3.7700438952	 0.114915
H	 2.1618749718	 0.4327241615	 5.0105878063	 0.121902
H	 1.5215595721	 1.9625117078	 4.3767812818	 0.116913
H	-0.6682586907	 1.5428527166	 5.6024607115	 0.069235
50.2795	52.318	84.2794	115.2779	135.6301	199.3158	261.2925	289.0775	314.8178	371.1076	459.1309	500.812	537.7141	729.6037	750.0288	792.5584	819.6633	899.1829	931.8551	991.9265	1030.8244	1041.4286	1050.1474	1088.6927	1110.1642	1120.472	1133.3615	1161.0556	1172.4898	1204.4673	1214.4577	1251.6223	1288.5331	1329.814	1330.2709	1342.4225	1387.3782	1427.1793	1432.4014	1446.6898	1463.4128	1477.5249	1490.1209	1499.9091	1506.2965	1515.5596	1837.3437	2846.4116	2975.4116	3007.6452	3020.0551	3029.1023	3052.9263	3064.0222	3073.9149	3079.599	3096.1293	3097.6467	3099.5547	3167.2634
CN1CC1CCCC=O	CN1C[C@H]1CCCC=O	
InChI=1S/C7H13NO/c1-8-6-7(8)4-2-3-5-9/h5,7H,2-4,6H2,1H3	InChI=1S/C7H13NO/c1-8-6-7(8)4-2-3-5-9/h5,7H,2-4,6H2,1H3/t7-,8?/m1/s1
