23
gdb 62791	2.798	1.25128	1.11979	1.2928	86.01	-0.2393	0.0785	0.3178	1239.2233	0.203548	-388.264605	-388.254867	-388.253923	-388.297919	38.846	
C	 0.1414942459	 1.6646838386	-0.4095610462	-0.461645
C	 0.2324573354	 0.1711406859	-0.1858004943	 0.388336
O	-0.9445296249	-0.496191229	-0.5988296188	-0.472109
C	 1.4699151381	-0.6659277288	-0.3845683389	-0.122036
C	 2.7267009742	 0.0123655753	 0.1749240101	-0.311768
C	 2.0894929706	-0.0103362318	 1.6156960803	 0.314349
C	 2.7495000957	-1.1028581703	 2.4661028553	-0.422957
C	 2.0337270543	 1.2928281975	 2.4148639374	-0.453304
C	 0.7911860635	-0.5666489741	 0.9986947187	-0.108195
H	 1.0745441137	 2.1873730361	-0.1964959124	 0.123862
H	-0.1051926194	 1.8614352773	-1.4611450406	 0.10015
H	-0.6519779625	 2.1016673774	 0.2048340184	 0.125539
H	-1.0115565535	-0.4001583371	-1.5554600776	 0.278044
H	 1.4570074754	-1.498604812	-1.0784484633	 0.079986
H	 3.625355859	-0.605738216	 0.1084174864	 0.099711
H	 2.9633929247	 0.9981080784	-0.2387343888	 0.090735
H	 3.7707190864	-0.816479699	 2.7422339178	 0.107397
H	 2.1861364719	-1.272563711	 3.3911335076	 0.109862
H	 2.7962066206	-2.0531945443	 1.9247536914	 0.113499
H	 1.5718818007	 2.1124389286	 1.8615967906	 0.113262
H	 1.4586383599	 1.1525245602	 3.3375949692	 0.112931
H	 3.042682648	 1.6113285185	 2.7029607196	 0.109354
H	 0.1551602623	-1.3002398006	 1.4828575179	 0.084998
150.5889	164.9719	199.8398	227.9672	253.8024	275.7469	287.7987	313.9554	348.9066	362.9313	410.4865	445.2399	472.5267	531.4841	619.2407	674.4696	817.5371	830.2104	860.5812	892.6446	934.9497	947.1975	965.3083	983.7112	997.4971	1015.3133	1024.9419	1041.7069	1093.1185	1122.4686	1143.3475	1208.354	1227.5097	1239.9156	1261.8951	1265.9091	1291.3181	1327.6254	1399.9462	1414.5993	1419.6294	1435.4669	1480.5065	1483.8632	1491.7573	1494.4254	1501.9158	1507.9549	1512.1593	3020.2702	3022.7046	3028.3376	3044.8342	3081.6743	3087.2747	3088.3918	3095.5849	3100.6948	3126.9384	3143.0122	3164.3832	3176.7942	3791.2786
CC1(O)C2CC(C)(C)C12	C[C@@]1(O)[C@H]2CC(C)(C)[C@@H]12	
InChI=1S/C8H14O/c1-7(2)4-5-6(7)8(5,3)9/h5-6,9H,4H2,1-3H3	InChI=1S/C8H14O/c1-7(2)4-5-6(7)8(5,3)9/h5-6,9H,4H2,1-3H3/t5-,6-,8+/m0/s1
