16
gdb 131500	3.92527	1.27729	1.09354	1.3724	72.64	-0.2412	-0.0145	0.2267	1094.2366	0.126424	-434.045626	-434.038356	-434.037412	-434.077899	27.8	
O	 0.1453930067	 1.4175910226	 0.2382375322	-0.423006
C	 0.034167425	 0.0507678047	 0.0688348332	 0.12723
C	-0.4789077664	-0.862600008	 1.154030031	-0.354817
C	-1.3107420957	-0.6387330197	-0.0958169318	 0.01735
N	-2.5143652753	 0.1361826344	-0.0141526133	 0.154418
N	-2.6064519012	 1.2495323639	 0.7108379169	-0.261328
C	-3.8583526744	 1.6690060976	 0.4964033762	-0.055889
C	-4.4808976661	 0.766275222	-0.3678822157	-0.067309
N	-3.6087171304	-0.1992111296	-0.6810756861	-0.222642
H	-0.6910381953	 1.7394417248	 0.6149367605	 0.301902
H	 0.8313527587	-0.3227541935	-0.5666323192	 0.117646
H	-0.0336563448	-1.8412140724	 1.298091072	 0.125048
H	-0.8425811929	-0.3815568188	 2.0557540274	 0.141074
H	-1.4352916325	-1.4332794001	-0.8185229131	 0.131312
H	-4.2297793768	 2.5668684849	 0.9629657565	 0.136204
H	-5.4815519886	 0.7597673474	-0.7681002567	 0.132808
58.632	145.3214	199.7287	304.5438	370.0012	465.7755	521.0089	559.0212	675.1855	690.277	726.3021	772.5034	812.834	838.8404	888.6505	943.7337	980.9893	997.7723	1030.7595	1061.8654	1069.3069	1108.7005	1119.8908	1141.4844	1189.8571	1228.8225	1277.2828	1292.0149	1363.0516	1386.1584	1437.4363	1451.4581	1454.8662	1489.0045	1506.827	3132.8777	3161.2429	3214.8104	3229.6871	3268.6266	3286.1331	3640.4106
OC1CC1N1N=CC=N1	O[C@H]1C[C@H]1n1nccn1	
InChI=1S/C5H7N3O/c9-5-3-4(5)8-6-1-2-7-8/h1-2,4-5,9H,3H2	InChI=1S/C5H7N3O/c9-5-3-4(5)8-6-1-2-7-8/h1-2,4-5,9H,3H2/t4-,5+/m1/s1
