21
gdb 76465	2.7795	1.4349	1.17789	1.4133	83.44	-0.2404	0.0655	0.3059	1139.943	0.182293	-387.013209	-387.004537	-387.003593	-387.046245	33.755	
C	-0.1414895898	 1.5438728277	-0.0746730975	-0.400635
C	-0.0208863618	 0.0349343788	-0.0190956513	-0.171663
C	 1.3378690682	-0.6330927969	-0.223655362	-0.057979
O	 2.4271351787	 0.2232506507	-0.4507595675	-0.420276
C	 0.6753048076	-0.6558476732	 1.1110732811	 0.438798
C	 1.1544905069	-0.1678680531	 2.4938387822	-0.127158
C	-0.2153836331	-0.6738492162	 3.045585292	-0.213281
C	 0.2804128451	-1.7921114529	 2.0775231627	-0.132785
C	 1.6898005363	-1.6169246957	 2.7211068384	-0.217529
H	 0.7664040584	 2.0200535732	 0.3007680227	 0.128427
H	-0.2923690266	 1.886745706	-1.1039135645	 0.116794
H	-0.9896732032	 1.8949537719	 0.5229513943	 0.109838
H	-0.8546235041	-0.5031538548	-0.4670595541	 0.080743
H	 1.3548527912	-1.5481317036	-0.8186179858	 0.078066
H	 3.1711139532	-0.1003023314	 0.0669087131	 0.287446
H	 1.6577777913	 0.769665647	 2.7310544373	 0.076409
H	-0.2439393832	-0.9300298263	 4.1086872672	 0.086636
H	-1.1035609612	-0.1174912764	 2.7385365502	 0.096589
H	-0.2239930227	-2.7270841389	 1.829577628	 0.071536
H	 2.5467355112	-1.9302114676	 2.1184399702	 0.081303
H	 1.7923167976	-1.9379188285	 3.7617516431	 0.08872
121.0572	151.1057	154.1928	159.4893	238.5159	260.5132	339.252	412.439	514.9327	561.0925	619.1118	646.9612	794.3823	798.536	815.8254	891.0522	899.4237	902.895	914.1252	993.0685	1014.1556	1020.6461	1041.8173	1045.3011	1083.6248	1096.963	1108.6083	1125.256	1152.6677	1158.7506	1163.5916	1182.0183	1194.3383	1231.4565	1244.6927	1245.1172	1299.3416	1339.5406	1363.021	1412.043	1478.4058	1491.8979	1494.0472	1505.9258	1533.3452	3034.5224	3044.06	3051.4605	3075.9491	3090.3868	3102.8427	3109.3746	3111.0492	3115.2661	3122.1549	3134.467	3811.5162
CC1C(O)C11C2CC1C2	C[C@H]1[C@@H](O)[C@]21[C@H]1C[C@@H]2C1	
InChI=1S/C8H12O/c1-4-7(9)8(4)5-2-6(8)3-5/h4-7,9H,2-3H2,1H3	InChI=1S/C8H12O/c1-4-7(9)8(4)5-2-6(8)3-5/h4-7,9H,2-3H2,1H3/t4-,5-,6+,7+,8-/m0/s1
