17
gdb 32609	2.80269	1.25275	0.92694	3.1896	71.3	-0.1861	0.0431	0.2292	1250.2778	0.13556	-455.199351	-455.190132	-455.189188	-455.233938	33.237	
C	 0.1291001121	 1.5646636561	-0.0626789157	-0.374822
C	-0.0164007085	 0.0485362364	 0.0897219096	-0.155777
N	 0.7097270511	-0.4855802837	 1.2265513631	-0.090908
C	 2.0992400398	-0.6513976183	 1.3321832398	-0.21745
C	 2.3555885107	-1.1107907306	 2.5710486047	 0.332118
O	 3.5363086777	-1.3700950264	 3.1845597121	-0.4281
N	 1.1348394132	-1.2486660613	 3.2344803707	-0.424985
C	 0.0857970203	-0.8259870739	 2.4180345198	 0.463943
O	-1.1004981308	-0.7698171625	 2.6874699844	-0.446974
H	 1.1767767264	 1.8528134806	-0.1950005052	 0.119342
H	-0.4311707503	 1.9121687155	-0.9363198903	 0.119051
H	-0.2582492401	 2.077792953	 0.821869019	 0.138426
H	-1.063196865	-0.2186543525	 0.2537933703	 0.147613
H	 0.3241074678	-0.4632443224	-0.818141887	 0.108049
H	 2.7703784872	-0.4531571139	 0.5154511632	 0.137118
H	 3.6255963671	-2.3200727738	 3.3308179834	 0.306357
H	 1.0149027712	-1.4096312122	 4.219522248	 0.266999
43.7333	86.6	175.3821	195.5922	205.773	290.0088	300.5166	335.5136	376.7201	439.9199	566.1284	608.8655	615.0872	680.4007	695.8852	755.5795	792.0157	836.4206	964.8491	1017.7572	1087.926	1099.1819	1164.7655	1178.6878	1254.0581	1258.0162	1266.1457	1377.0616	1399.9982	1408.7995	1411.9351	1434.9547	1483.3935	1491.0503	1502.9258	1724.5851	1821.5494	3036.377	3039.8281	3100.9298	3116.2124	3126.3017	3291.1336	3685.6626	3759.793
CCN1C=C(O)NC1=O	CCn1cc(O)[nH]c1=O	
InChI=1S/C5H8N2O2/c1-2-7-3-4(8)6-5(7)9/h3,8H,2H2,1H3,(H,6,9)	InChI=1S/C5H8N2O2/c1-2-7-3-4(8)6-5(7)9/h3,8H,2H2,1H3,(H,6,9)
