15
gdb 71978	2.836	1.73213	1.25533	5.6483	70.68	-0.24	-0.0008	0.2392	972.2646	0.113116	-416.740883	-416.733535	-416.732591	-416.772464	28.826	
N	-0.1592707059	 1.4015809876	-0.0034490024	-0.599659
C	 0.0155585831	 0.0045995714	-0.0752869424	 0.215489
C	 0.9392755285	-0.9071888924	-0.9068412918	-0.293164
C	 0.0659420538	-2.0601740794	-0.3561027481	 0.049364
O	 0.4114894735	-2.0987950642	 1.0629333844	-0.321824
C	-0.3028253359	-0.8733262451	 1.1785041429	 0.364667
C	-0.6396461668	-0.3369539047	 2.4532289932	 0.216251
N	-0.9046715569	 0.1021088736	 3.4900783959	-0.351225
C	-1.0949922787	-1.0352116662	-0.0863504018	-0.222828
H	 0.6307775126	 1.8676594063	 0.4295585023	 0.248124
H	-0.3203518002	 1.8150369019	-0.915360385	 0.241224
H	 0.7743968764	-0.7474538862	-1.9761094522	 0.109554
H	 2.0076110023	-0.9527100541	-0.6768368832	 0.112261
H	-0.0010841476	-3.0427355468	-0.8138664626	 0.105567
H	-2.155233198	-0.9926332716	-0.2902019594	 0.1262
129.4485	154.5397	240.2345	332.7918	338.9013	433.5448	492.5549	519.7113	536.6829	594.5885	677.3487	738.8561	760.3413	801.5391	810.8729	909.6227	926.4561	936.7949	996.2873	1014.7793	1031.988	1090.7101	1115.3356	1133.3873	1217.2953	1235.6691	1265.4172	1281.7568	1355.0624	1419.3185	1485.7173	1657.6191	2354.282	3053.3644	3116.8872	3169.9238	3226.207	3508.2682	3588.2607
NC12CC3OC1(C#N)C23	N[C@@]12C[C@H]3O[C@]1(C#N)[C@@H]23	
InChI=1S/C6H6N2O/c7-2-6-4-3(9-6)1-5(4,6)8/h3-4H,1,8H2	InChI=1S/C6H6N2O/c7-2-6-4-3(9-6)1-5(4,6)8/h3-4H,1,8H2/t3-,4-,5-,6-/m1/s1
