20
gdb 98666	3.58093	1.01512	0.91002	5.2354	77.33	-0.2361	0.0192	0.2553	1353.5071	0.171267	-440.310246	-440.300851	-440.299907	-440.345304	34.42	
C	 0.2631149414	 1.4693051935	 0.3047371433	-0.336093
N	 0.0197603948	 0.03892242	 0.2977265031	-0.319814
C	 0.9144554433	-0.8679130215	 0.767513437	 0.447539
O	 2.0010770634	-0.532876881	 1.2352164354	-0.405497
C	 0.490128	-2.320247481	 0.6797249856	-0.142791
C	 1.5993075315	-3.2266396216	 0.0507979466	-0.2463
C	 2.0530121222	-3.648959049	 1.4832363064	 0.153527
O	 3.1986970637	-2.9996033693	 1.9554770373	-0.441949
C	 0.7037110543	-3.084428252	 2.0280057093	-0.246285
H	 0.2471954643	 1.8785933298	-0.711159223	 0.129918
H	-0.485253757	 1.9952527303	 0.9073424991	 0.129927
H	 1.2497166624	 1.6297124653	 0.7396582216	 0.17557
H	-0.8516222565	-0.3008727568	-0.0729449426	 0.25067
H	-0.5046128248	-2.4149692581	 0.2359869437	 0.057456
H	 1.1637316889	-4.0512285541	-0.5194602159	 0.097549
H	 2.3614718145	-2.7293332911	-0.5525724818	 0.113482
H	 2.2157649993	-4.719377761	 1.6339556088	 0.07609
H	 3.0502858546	-2.0466057058	 1.819548044	 0.295966
H	 0.7825908279	-2.4786503141	 2.9330335843	 0.11348
H	-0.0554096983	-3.8576509526	 2.1719957982	 0.097554
40.6837	70.7669	140.4767	145.2317	219.9416	261.5568	325.9041	381.014	398.7366	425.0651	501.1479	648.9365	657.2126	743.8678	773.2995	819.7058	846.715	865.8073	933.8328	959.4044	997.7703	1030.3391	1087.1395	1094.1943	1122.7287	1153.8707	1169.6559	1172.8738	1196.8312	1239.6852	1248.0135	1267.1677	1267.9402	1357.329	1389.2612	1439.6472	1452.1064	1469.7783	1491.8943	1500.044	1505.7808	1567.661	1734.739	3032.2451	3055.627	3059.9319	3066.7846	3078.5109	3085.921	3125.936	3126.8141	3160.1977	3614.9252	3654.8091
CNC(=O)C1CC(O)C1	CNC(=O)[C@H]1C[C@@H](O)C1	
InChI=1S/C6H11NO2/c1-7-6(9)4-2-5(8)3-4/h4-5,8H,2-3H2,1H3,(H,7,9)	InChI=1S/C6H11NO2/c1-7-6(9)4-2-5(8)3-4/h4-5,8H,2-3H2,1H3,(H,7,9)/t4-,5+
