16
gdb 28818	3.2087	1.39501	1.0613	1.4432	85.77	-0.2375	-0.0737	0.1638	1125.645	0.125139	-396.945135	-396.937211	-396.936266	-396.977764	29.57	
C	-0.435360829	 1.3777986681	 0.1735409234	-0.439342
C	 0.0195651591	-0.034731201	-0.061419044	 0.352399
N	-0.109970132	-0.5408127487	-1.2442042295	-0.275019
C	 0.106954308	-1.8556545493	-1.5699492149	-0.001783
C	 0.0431937637	-2.9580157528	-0.7828498014	-0.106733
C	-0.0535865545	-2.9629489767	 0.6723127569	 0.226525
N	-0.5494316938	-3.9565915675	 1.3126562295	-0.493678
C	 0.6699817696	-1.8358956199	 1.3289666891	-0.050305
N	 0.6630063117	-0.5943268758	 1.0309014779	-0.228628
H	-1.1068321049	 1.4161772667	 1.0385321056	 0.138834
H	 0.4214693749	 2.0164043701	 0.4122233905	 0.14806
H	-0.947729334	 1.7593020617	-0.7091277389	 0.142361
H	 0.228323817	-2.0103434203	-2.6402351849	 0.116786
H	 0.077228964	-3.9366393276	-1.2527127756	 0.1211
H	-0.4338143399	-3.8293391459	 2.3222862524	 0.217118
H	 1.2889407001	-2.1305727311	 2.1834176539	 0.132304
76.962	128.7967	187.8805	288.5193	310.0841	342.474	366.1745	460.227	476.6335	596.6337	676.2797	725.2408	732.5586	823.6686	848.2933	883.9371	927.8212	972.9824	986.3772	1005.6038	1062.6457	1080.2561	1160.2275	1254.9492	1295.0718	1366.981	1398.7205	1405.088	1450.4529	1467.0526	1473.3812	1574.9522	1623.1039	1672.5343	1702.0589	3042.1063	3071.6674	3098.0394	3147.913	3161.6716	3181.7451	3421.9213
CC1=NC=CC(=N)C=N1	C[C]1[N]C=C[C]([NH])C=N1	
InChI=1S/C6H7N3/c1-5-8-3-2-6(7)4-9-5/h2-4,7H,1H3	InChI=1S/C6H7N3/c1-5-8-3-2-6(7)4-9-5/h2-4,7H,1H3
