19
gdb 106565	2.04206	1.59283	1.27967	3.9674	71.43	-0.2467	0.0542	0.301	1087.2866	0.158529	-460.097328	-460.088392	-460.087448	-460.130533	34.42	
O	 0.5830021368	-0.0155670627	 0.8921181218	-0.426206
C	-0.1382613962	 0.1235856272	-0.3213263454	-0.187726
C	-1.5107638093	-0.4830882919	-0.2098562893	 0.232246
C	-2.6910721907	-0.5214784611	-1.2316156243	-0.325735
C	-3.2519095889	-1.2319378953	 0.0397052497	-0.163199
C	-1.8793848368	-1.9683244015	 0.1608347389	 0.166032
O	-1.5382673115	-3.0301132882	-0.680896654	-0.452342
C	-2.5823418747	-0.0628907305	 0.8258519545	 0.099829
O	-2.1807895505	-0.2195286639	 2.1704991055	-0.442079
H	-0.0295846908	 0.1610183435	 1.616317412	 0.296184
H	-0.2227456131	 1.1820944504	-0.6237807506	 0.081047
H	 0.4460603678	-0.3880725452	-1.0954530407	 0.107279
H	-3.1396612539	 0.43949833	-1.4997365671	 0.099399
H	-2.5591894374	-1.1276196659	-2.1306393775	 0.088983
H	-4.2534218071	-1.6420574474	 0.1766641367	 0.073953
H	-1.5990334101	-2.2768453491	 1.1652006171	 0.106414
H	-1.7823656762	-2.8199211134	-1.5875736061	 0.280654
H	-3.0329477915	 0.9230170363	 0.6567140947	 0.07279
H	-2.9245275759	-0.0198606414	 2.746937464	 0.292477
96.9878	148.8642	193.9473	232.1469	251.5704	268.1153	341.8081	382.3297	395.7091	423.5334	454.6964	560.695	649.4736	698.0737	760.6542	833.5633	857.1031	901.6169	937.4362	987.9042	997.1641	1035.0751	1066.6785	1088.9742	1126.9391	1133.3706	1144.1636	1169.8225	1191.7447	1213.9522	1233.0926	1253.9079	1284.5179	1289.2901	1338.5749	1369.6576	1429.3943	1449.8548	1465.6983	1506.2337	1538.095	2949.9272	3026.4704	3051.1064	3056.1594	3106.5637	3107.9904	3153.0794	3785.9117	3819.8609	3826.8243
OCC12CC(C1O)C2O	OC[C@@]12C[C@@H]([C@H]1O)[C@H]2O	
InChI=1S/C6H10O3/c7-2-6-1-3(4(6)8)5(6)9/h3-5,7-9H,1-2H2	InChI=1S/C6H10O3/c7-2-6-1-3(4(6)8)5(6)9/h3-5,7-9H,1-2H2/t3-,4-,5-,6-/m1/s1
