18
gdb 47227	2.1874	2.06558	1.2457	3.3228	78.52	-0.2416	0.006	0.2476	1021.5842	0.15003	-401.963539	-401.956062	-401.955118	-401.99543	29.274	
O	 0.032414269	 0.3322553211	 1.0708241179	-0.346667
C	-0.0129421679	 1.2144036268	 0.2435025044	 0.364137
C	-1.2999313494	 1.801648845	-0.3013006719	-0.300544
C	-1.7335296976	 2.9820612627	 0.5886165971	-0.25858
C	-0.7621505821	 4.1247098838	 0.7175435602	-0.054912
C	 0.5172265635	 4.2194019254	 0.3439129612	-0.058741
C	 1.3910947083	 3.219674056	-0.3210147338	-0.079148
C	 2.2386001746	 2.25753421	 0.486322588	-0.239685
N	 1.1277512793	 1.7945240505	-0.3065034334	-0.080213
H	-1.1591535725	 2.1375917333	-1.3328428935	 0.116765
H	-2.0703631717	 1.027932255	-0.2817932312	 0.124145
H	-2.6861103513	 3.3811067065	 0.2168390981	 0.113039
H	-1.953690102	 2.5944340219	 1.5934433343	 0.136022
H	-1.1886720773	 5.0028828518	 1.1999786223	 0.09606
H	 1.0201502585	 5.1703296107	 0.5148019419	 0.097246
H	 1.8381202844	 3.573388388	-1.2512590419	 0.107657
H	 3.230820206	 1.9926352993	 0.1318137451	 0.125596
H	 2.1056671283	 2.2494378221	 1.5649326153	 0.137821
103.0073	166.2852	209.5729	291.2399	330.3873	394.581	447.7936	507.0367	606.8083	669.2119	710.2414	751.3283	799.7081	824.0097	869.022	911.2411	958.06	999.5484	1010.7306	1024.8166	1041.8684	1098.3038	1102.8007	1123.5401	1136.9857	1173.0501	1213.525	1240.598	1273.607	1337.1757	1374.3328	1387.3157	1414.159	1442.962	1469.8649	1484.5422	1509.2227	1728.1583	1800.2316	3012.203	3038.9977	3064.21	3092.0111	3111.4348	3121.327	3125.7579	3148.4663	3204.2237
O=C1CCC=CC2CN12	O=C1CCC=C[C@H]2CN12	
InChI=1S/C7H9NO/c9-7-4-2-1-3-6-5-8(6)7/h1,3,6H,2,4-5H2	InChI=1S/C7H9NO/c9-7-4-2-1-3-6-5-8(6)7/h1,3,6H,2,4-5H2/t6-,8?/m0/s1
