20
gdb 80296	2.43435	1.51661	1.24192	3.0364	80.11	-0.243	0.0278	0.2708	1118.3844	0.171023	-403.164744	-403.156014	-403.15507	-403.197827	33.561	
C	-0.4277603113	 1.4312840743	-0.0946445771	-0.428714
C	-0.0706426542	-0.0346124097	 0.0211855029	-0.089697
C	 1.2919307073	-0.5855957847	-0.3158874706	 0.033394
O	 2.3548464052	 0.3408905336	-0.4380662964	-0.232851
C	 2.6266205047	 0.926780577	 0.7735679759	 0.404278
N	 3.4856486296	 1.833712437	 0.9495131616	-0.540019
C	 1.7359753796	 0.3280777684	 1.8501094782	-0.380158
C	 0.8147890994	-0.6334603609	 1.113038863	 0.281793
C	 0.4027917468	-1.9114260711	 1.8042831844	-0.484205
H	 0.4118930965	 2.0902494006	 0.1366794097	 0.141956
H	-0.7547519377	 1.6657719303	-1.1130361535	 0.125344
H	-1.2477111895	 1.6856273649	 0.5853961012	 0.121312
H	-0.8781592404	-0.7037778951	-0.270181955	 0.088204
H	 1.4308457991	-1.4524709265	-0.9515098188	 0.103661
H	 3.9483319868	 2.0650592913	 0.0687334325	 0.222494
H	 2.3562164832	-0.2085179411	 2.5758712346	 0.133132
H	 1.2223956892	 1.1239249215	 2.3964746479	 0.136821
H	-0.2561472503	-1.707407114	 2.6561721466	 0.124354
H	-0.1386257846	-2.5746333559	 1.1223632497	 0.118137
H	 1.2748146909	-2.45813022	 2.1816492031	 0.120765
89.6029	167.3137	195.3457	201.1089	215.8714	261.9537	306.8804	436.3909	466.7863	529.7836	555.9799	576.0176	685.5203	750.7094	797.7158	843.0349	885.6523	895.7094	956.2315	966.6943	974.8542	1030.7102	1047.3075	1063.8717	1112.9426	1121.4599	1153.1666	1156.4807	1194.0574	1232.7158	1263.7271	1317.3831	1322.3806	1367.0011	1419.6773	1423.2241	1448.8756	1475.8098	1490.5483	1495.1822	1500.6979	1506.4795	1774.3842	3023.2346	3038.3753	3055.4477	3083.6732	3095.0011	3095.8098	3099.2519	3117.1698	3133.0519	3178.8281	3473.231
CC1C2OC(=N)CC12C	C[C@H]1[C@H]2O[C]([NH])C[C@@]12C	
InChI=1S/C7H11NO/c1-4-6-7(4,2)3-5(8)9-6/h4,6,8H,3H2,1-2H3	InChI=1S/C7H11NO/c1-4-6-7(4,2)3-5(8)9-6/h4,6,8H,3H2,1-2H3/t4-,6+,7-/m0/s1
