21
gdb 109514	1.92479	1.45883	1.07173	1.0363	86.94	-0.2259	0.0497	0.2755	1265.8269	0.178497	-387.04004	-387.029425	-387.028481	-387.075021	39.049	
C	 0.3627500214	 1.098051578	 0.3786359141	-0.24044
O	-0.3341615411	 0.0675974649	-0.3021241666	-0.237203
C	 0.4225066342	-0.5428078563	-1.2847112434	 0.098343
C	 1.389552726	-1.6794000817	-0.9120347788	-0.33317
C	 1.5566549793	-2.0799216329	 0.4505495935	 0.350358
C	 1.7204141073	-2.42305941	 1.5930568283	-0.449704
C	 0.0729874253	-1.9436315629	-1.6725406088	 0.241118
C	-1.0575122174	-2.6381045992	-0.9414325552	-0.446447
C	 0.2123139177	-2.320854394	-3.1347974535	-0.450477
H	 1.2512401515	 0.7090361545	 0.890471957	 0.127889
H	 0.6692831025	 1.8961508468	-0.3142306875	 0.104149
H	-0.327261504	 1.5142370069	 1.1157294993	 0.128122
H	 0.7728025012	 0.1338139354	-2.068211313	 0.082786
H	 2.292971711	-1.7380972703	-1.5141856267	 0.104453
H	 1.8604156932	-2.7285877226	 2.599926001	 0.190856
H	-1.1242231311	-2.3133520173	 0.0965496016	 0.144174
H	-2.0132125322	-2.417338338	-1.4296036332	 0.114498
H	-0.9131420284	-3.7237399481	-0.9576005455	 0.114962
H	 0.4121530404	-3.3928091479	-3.2437194903	 0.121814
H	-0.7094606241	-2.0941568603	-3.6828707881	 0.120699
H	 1.030711957	-1.778118525	-3.6184092545	 0.11322
104.3432	125.1065	132.8521	172.3391	182.2288	188.2739	225.8242	254.081	311.7312	347.7593	368.9852	396.6343	513.387	542.5687	566.2602	646.554	662.8379	701.7056	822.1501	841.2705	969.0542	974.0936	998.7141	1015.6158	1054.045	1090.4134	1117.7494	1156.0229	1178.8016	1185.5662	1222.2008	1270.362	1327.1669	1355.6421	1408.8404	1418.4685	1436.7389	1480.7147	1486.0491	1487.9348	1488.4816	1499.9729	1505.4532	1512.9463	2228.2373	2990.7476	3023.907	3036.63	3061.1933	3065.7537	3087.9855	3093.34	3098.7963	3125.8069	3132.3608	3153.8849	3504.7605
COC1C(C#C)C1(C)C	CO[C@H]1[C@@H](C#C)C1(C)C	
InChI=1S/C8H12O/c1-5-6-7(9-4)8(6,2)3/h1,6-7H,2-4H3	InChI=1S/C8H12O/c1-5-6-7(9-4)8(6,2)3/h1,6-7H,2-4H3/t6-,7+/m1/s1
