15
gdb 12601	3.1285	2.09133	1.31618	2.2819	61.65	-0.2465	-0.0362	0.2102	887.9761	0.11882	-399.867035	-399.859323	-399.858379	-399.899599	27.626	
C	-0.1823814594	 1.5838219889	 0.0099215786	-0.392119
C	 0.0777870254	 0.0774050207	-0.0023518249	-0.240418
C	 0.8843186179	-0.4283257839	-1.1922433287	 0.393426
O	 0.7743141322	-0.0909518374	-2.339907487	-0.297766
C	 1.9139885121	-1.4482202979	-0.6754963991	-0.273837
N	 1.7985726285	-1.3202482366	 0.7612615222	-0.324857
C	 0.8477519424	-0.442753095	 1.2165743237	 0.41816
O	 0.6568628929	-0.1465216336	 2.3742795763	-0.374623
H	 0.7574762307	 2.1435388925	 0.0095537301	 0.127521
H	-0.7533428112	 1.8758375373	-0.8740179513	 0.137275
H	-0.7380619793	 1.8537607994	 0.910264159	 0.14483
H	-0.8841762948	-0.4564760581	-0.0196524425	 0.139954
H	 1.660430026	-2.452298353	-1.0425087777	 0.140466
H	 2.9105407359	-1.1946019591	-1.0563359755	 0.143813
H	 2.4184878705	-1.7730935444	 1.4144467469	 0.258173
51.2298	140.5756	171.5611	219.5974	252.3643	387.3501	499.7666	520.0953	558.5969	596.1831	682.2486	706.2521	768.763	831.2252	934.972	1012.6466	1072.4347	1077.4612	1113.3401	1154.3713	1198.6536	1239.262	1256.5817	1301.4744	1344.0744	1404.0707	1434.6971	1492.2697	1496.9767	1502.4185	1824.8635	1870.5696	3010.6353	3013.6743	3053.151	3056.1184	3125.2339	3143.2485	3637.0809
CC1C(=O)CNC1=O	C[C@H]1C(=O)CNC1=O	
InChI=1S/C5H7NO2/c1-3-4(7)2-6-5(3)8/h3H,2H2,1H3,(H,6,8)	InChI=1S/C5H7NO2/c1-3-4(7)2-6-5(3)8/h3H,2H2,1H3,(H,6,8)/t3-/m0/s1
