19
gdb 84682	2.12957	1.93939	1.49765	2.746	75.34	-0.2457	0.0086	0.2543	987.7979	0.159993	-423.022483	-423.014543	-423.013598	-423.05456	31.574	
C	-0.370770082	 1.32236674	-0.0008411588	-0.468395
C	 0.1004516767	-0.1136196081	-0.0174029182	 0.395295
O	-1.0080420746	-1.0445061171	 0.2041481802	-0.33672
C	-0.4347201382	-1.5111067519	 1.4481450198	-0.08404
C	 0.8628821728	-0.7097765117	 1.1979135807	-0.16192
C	 1.9824503292	-1.4980386353	 0.5746101422	-0.091753
C	 1.9807963277	-1.4221258307	-0.7559783141	-0.105995
C	 0.8776552895	-0.5365721026	-1.3006093909	 0.051292
O	 0.0301439311	-1.1716235897	-2.237147119	-0.437314
H	 0.4818627297	 2.0065441032	-0.0699131761	 0.120508
H	-1.0270249914	 1.5064013926	-0.8580041236	 0.138425
H	-0.926418395	 1.5487061885	 0.9138792442	 0.118011
H	-1.0289536862	-1.174762733	 2.3065293037	 0.103331
H	-0.3381993146	-2.6017000585	 1.4743366715	 0.10632
H	 1.1699689249	-0.0322569445	 1.9978357047	 0.081875
H	 2.6797127522	-2.080098888	 1.1686675476	 0.099632
H	 2.672047884	-1.9307501503	-1.4188828654	 0.103583
H	 1.2913923194	 0.33942165	-1.8173053033	 0.080578
H	-0.600658135	-1.6753875928	-1.7011016452	 0.287287
98.0221	200.4878	238.942	276.6582	282.1914	316.5022	378.0867	503.5858	522.6943	553.1604	603.965	678.7342	759.5748	808.0777	857.1879	867.7682	897.9781	916.3058	979.9203	1000.7541	1017.6551	1040.6819	1068.7981	1079.6363	1109.7508	1150.7682	1169.4464	1172.2068	1216.1597	1235.2696	1283.039	1301.6808	1340.5576	1357.2352	1372.0931	1406.6231	1446.8794	1482.4988	1490.7838	1519.789	1678.0952	3018.7584	3020.3029	3032.9181	3072.8254	3086.3461	3104.6317	3111.1505	3177.0621	3206.2205	3718.4324
CC12OCC1C=CC2O	C[C@]12OC[C@H]1C=C[C@H]2O	
InChI=1S/C7H10O2/c1-7-5(4-9-7)2-3-6(7)8/h2-3,5-6,8H,4H2,1H3	InChI=1S/C7H10O2/c1-7-5(4-9-7)2-3-6(7)8/h2-3,5-6,8H,4H2,1H3/t5-,6-,7+/m1/s1
