20
gdb 126316	2.92631	1.17785	0.90256	1.7281	84.46	-0.1922	0.0371	0.2293	1352.0621	0.171875	-399.359334	-399.349537	-399.348593	-399.394871	35.253	
C	 0.1161884789	 1.5390131911	-0.1363955643	-0.367792
C	 0.0369407462	 0.0162422022	 0.0743425851	-0.315278
C	-1.3671067313	-0.510915156	 0.0811802198	 0.142371
C	-2.1064810677	-0.9931458969	 1.1437681561	-0.123862
N	-3.3342168063	-1.324005798	 0.6814311541	 0.053036
C	-4.4593052844	-1.8453735986	 1.4173306143	-0.312651
N	-3.45320648	-1.0930338068	-0.6513043034	-0.356331
C	-2.272111382	-0.5988175874	-1.0111833312	 0.29899
N	-2.0416496421	-0.174389304	-2.3239613588	-0.590351
H	 1.1565888493	 1.8787005729	-0.1726261584	 0.103428
H	-0.3730885079	 1.8263188647	-1.071743965	 0.133909
H	-0.3890638583	 2.0685415844	 0.6772357804	 0.115828
H	 0.6216818846	-0.4817464542	-0.7127429966	 0.091844
H	 0.5283648179	-0.2500197988	 1.0172379447	 0.098842
H	-1.8440134539	-1.1209417217	 2.1833861132	 0.121816
H	-5.2926998076	-1.1352599418	 1.4093236994	 0.141238
H	-4.8003604349	-2.7864428504	 0.9756243732	 0.142123
H	-4.1533443353	-2.0250629146	 2.4497229068	 0.132628
H	-2.7548265367	-0.5256382955	-2.9512520101	 0.247582
H	-1.1234364286	-0.4290807406	-2.6653724792	 0.242628
33.121	68.9032	131.6391	177.4685	197.209	254.2173	290.1644	297.077	303.2279	413.2646	500.4396	601.3555	622.8082	652.7605	709.6814	776.5884	786.6909	806.082	817.4642	966.3794	1017.5882	1069.0972	1070.7748	1088.0056	1144.0529	1152.0101	1202.211	1238.4135	1299.6283	1338.2671	1356.7996	1408.6402	1433.5342	1459.4595	1470.5589	1478.7408	1484.9706	1496.6678	1510.7001	1531.4841	1538.4837	1620.4434	1648.9628	2997.3434	3035.1129	3037.4358	3053.5165	3097.0641	3104.8334	3115.5478	3137.998	3244.1528	3530.31	3625.1902
CCC1=CN(C)N=C1N	CCc1cn(C)nc1N	
InChI=1S/C6H11N3/c1-3-5-4-9(2)8-6(5)7/h4H,3H2,1-2H3,(H2,7,8)	InChI=1S/C6H11N3/c1-3-5-4-9(2)8-6(5)7/h4H,3H2,1-2H3,(H2,7,8)
