19
gdb 53305	2.73553	0.76368	0.63492	2.8824	87.46	-0.2348	-0.0196	0.2152	1762.2365	0.156325	-385.8659	-385.855616	-385.854672	-385.903539	35.178	
C	 0.0541750108	 1.5009218214	 0.1829275552	-0.498495
C	 0.0308204683	 0.0478211471	 0.0941349482	 0.057238
C	 0.0210217109	-1.1556188806	 0.0207245822	 0.089235
C	 0.0152570682	-2.5866003492	-0.0778665995	-0.203106
C	-0.4785566893	-3.4362288194	 1.0831523205	-0.288948
C	-1.2958783967	-3.3630288955	-0.1783510718	-0.015128
C	-2.6276521182	-2.6410932419	-0.2082765592	-0.303127
C	-3.7337815191	-3.4702002813	 0.409053516	 0.166232
O	-4.7963005866	-3.6987440856	-0.1091235182	-0.241128
H	 1.0623397444	 1.8900362929	 0.0019976217	 0.150696
H	-0.6140550219	 1.9598425057	-0.5543177011	 0.148852
H	-0.2585632993	 1.84598679	 1.1747622632	 0.147827
H	 0.8381715076	-3.006658162	-0.6492134784	 0.113151
H	 0.0596167297	-4.3503604955	 1.3064289215	 0.121599
H	-0.8387849699	-2.9002127728	 1.9542593834	 0.125378
H	-1.2473137001	-4.2369227838	-0.8220848044	 0.102736
H	-2.5415032321	-1.711261891	 0.371085471	 0.13062
H	-2.9202628012	-2.3700667125	-1.2269938089	 0.123717
H	-3.4895915255	-3.8741301659	 1.4192195487	 0.072652
27.8007	49.8345	72.2218	89.1804	131.5319	195.1575	246.1887	304.0902	359.5614	404.3312	491.962	510.7429	578.6505	703.0571	771.0126	819.5348	855.0787	911.7802	955.3233	988.1926	1050.7544	1053.8396	1063.7179	1072.4864	1091.8126	1126.5986	1162.1453	1180.4439	1236.5647	1249.576	1295.9171	1384.4993	1407.675	1416.3538	1426.1114	1457.0239	1477.217	1479.3517	1487.1083	1833.5934	2365.0559	2861.1081	3024.011	3025.7391	3085.3554	3087.3355	3095.6767	3138.2226	3140.26	3150.7208	3227.3863
CC#CC1CC1CC=O	CC#C[C@H]1C[C@H]1CC=O	
InChI=1S/C8H10O/c1-2-3-7-6-8(7)4-5-9/h5,7-8H,4,6H2,1H3	InChI=1S/C8H10O/c1-2-3-7-6-8(7)4-5-9/h5,7-8H,4,6H2,1H3/t7-,8+/m0/s1
