20
gdb 111516	2.84998	1.41877	1.1963	4.123	73.5	-0.2426	0.0636	0.3062	1096.5207	0.173964	-440.269011	-440.261116	-440.260172	-440.301192	31.881	
O	 0.1200419451	 1.3300910763	 0.2455421588	-0.43019
C	 0.023955913	-0.0338753327	-0.1178252357	-0.073664
C	-1.4158572139	-0.567653248	-0.0396245066	-0.028352
C	-1.5167865928	-2.0850858068	-0.0135177591	-0.052248
N	-1.1764239089	-2.6384712817	 1.3247532368	-0.357644
C	-2.5964750166	-2.4868523983	 0.9210895956	-0.032094
C	-3.2257219332	-1.2335316516	 1.4988998544	-0.235948
C	-2.1581926947	-0.1360780484	 1.2646490304	 0.080541
O	-1.2659915971	-0.0182815532	 2.370471165	-0.445553
H	-0.0900151824	 1.3485331184	 1.1891957604	 0.292271
H	 0.397012643	-0.1139146118	-1.14478766	 0.098774
H	 0.6717638336	-0.660686899	 0.5123012805	 0.08824
H	-1.9897872594	-0.1938031413	-0.8973422835	 0.078964
H	-1.2678508397	-2.6742418284	-0.8903991633	 0.090072
H	-0.8909615047	-3.6096067082	 1.2384587424	 0.237475
H	-3.1861061807	-3.3843012999	 0.7651267209	 0.089949
H	-4.1467167263	-1.0037200159	 0.9501121816	 0.1038
H	-3.47197083	-1.311111091	 2.5615799446	 0.113169
H	-2.6104164294	 0.8503588198	 1.1504157532	 0.091051
H	-0.8809130848	-0.9040723682	 2.4725837138	 0.291386
122.1172	148.46	206.7845	259.4157	325.2298	382.4042	417.7947	490.3153	565.2199	602.344	635.5897	694.8988	756.806	804.6316	812.932	863.3282	887.9235	901.6945	958.1663	971.7212	988.0298	1027.4794	1071.6673	1085.1845	1088.5024	1102.4713	1126.7731	1155.8124	1195.7642	1218.2909	1253.6973	1255.5321	1293.6396	1305.2391	1328.6935	1351.5064	1379.4537	1405.9104	1423.5054	1442.1244	1467.3998	1479.1618	1508.8152	2995.9805	3027.0824	3041.8338	3066.1632	3097.4304	3100.8567	3158.826	3170.2942	3516.1673	3672.0396	3752.4065
OCC1C2NC2CC1O	OC[C@H]1[C@H]2N[C@H]2C[C@H]1O	
InChI=1S/C6H11NO2/c8-2-3-5(9)1-4-6(3)7-4/h3-9H,1-2H2	InChI=1S/C6H11NO2/c8-2-3-5(9)1-4-6(3)7-4/h3-9H,1-2H2/t3-,4+,5-,6-/m1/s1
