15
gdb 27674	2.92032	1.30228	0.90676	5.0021	78.61	-0.2138	-0.015	0.1989	1214.5472	0.114284	-413.059165	-413.05058	-413.049636	-413.092346	31.271	
C	 0.0190145627	 1.506423278	 0.0961148022	-0.49895
C	 0.0046999442	 0.0185267273	 0.0113576528	 0.208783
C	-0.0464906432	-0.7652598714	-1.1241277194	 0.138598
N	-0.0240708217	-2.0880461678	-0.6600614127	-0.377484
C	 0.0328556711	-2.0203076732	 0.693228153	 0.41653
N	-0.00916713	-3.1383077938	 1.4995270277	-0.596481
N	 0.0600499265	-0.7739784708	 1.1293498737	-0.356125
C	-0.0934408803	-0.4367078184	-2.4886302869	 0.191087
N	-0.135461015	-0.1693700241	-3.6178533511	-0.360817
H	 0.9269966488	 1.8557968171	 0.5985664173	 0.142281
H	-0.0259814596	 1.9574315346	-0.8976105075	 0.142052
H	-0.8328631173	 1.8654837055	 0.6829065294	 0.143611
H	-0.1408425558	-2.9110468306	-1.2270512259	 0.276604
H	 0.5372643534	-3.9268898061	 1.1815790064	 0.257944
H	 0.1940453862	-2.9027903363	 2.4613442708	 0.272367
114.9788	135.1396	135.667	216.5489	274.8767	275.5575	323.1895	412.1885	448.0794	527.096	551.7179	586.6005	638.0727	662.0891	691.9369	756.045	812.7848	1005.2786	1054.6534	1062.2201	1122.2051	1163.5248	1238.9847	1327.1339	1403.0944	1422.4732	1474.9159	1483.0068	1506.4723	1595.3967	1609.1659	1659.2248	2322.067	3040.8305	3096.907	3132.2626	3557.7883	3658.2906	3666.2469
CC1=C(NC(N)=N1)C#N	Cc1c([nH]c(N)n1)C#N	
InChI=1S/C5H6N4/c1-3-4(2-6)9-5(7)8-3/h1H3,(H3,7,8,9)	InChI=1S/C5H6N4/c1-3-4(2-6)9-5(7)8-3/h1H3,(H3,7,8,9)
