16
gdb 98820	3.12633	1.24635	0.90645	1.4694	68.76	-0.2646	-0.0168	0.2478	1245.305	0.12362	-475.082814	-475.073881	-475.072937	-475.117462	30.503	
C	-0.0234670992	 1.3853238891	-0.005737623	-0.23392
O	 0.0246574951	-0.0469659846	 0.0372324354	-0.228668
C	 0.6575300041	-0.5554895216	 1.1005222342	 0.5231
O	 1.1720992825	 0.0729395334	 1.9935771614	-0.402931
N	 0.6571089753	-1.9398486835	 1.0618015472	-0.206581
C	 1.2481283354	-2.8653148404	 2.0400686979	-0.16235
C	 0.7464691026	-4.03557909	 1.1487933571	-0.381217
C	 0.1758050892	-2.9553645159	 0.2089429041	 0.425577
O	-0.427620774	-2.9272425317	-0.8197357313	-0.321876
H	 0.9854252917	 1.804045071	-0.0351535506	 0.143434
H	-0.5660916782	 1.6295782264	-0.9183418757	 0.143003
H	-0.5460290477	 1.7797644172	 0.8691056213	 0.143523
H	 2.331999622	-2.7643713865	 2.1257790884	 0.134713
H	 0.7921360166	-2.7924801704	 3.0295511835	 0.134673
H	 1.523389003	-4.651213911	 0.6927670558	 0.144763
H	-0.0138188785	-4.6790065616	 1.5943627942	 0.144756
74.0385	82.7952	118.1741	132.6828	168.821	212.8195	298.768	375.5063	434.6715	537.3198	606.3225	775.4086	779.648	811.3046	819.1787	934.5503	1002.1798	1041.6878	1048.2512	1152.0453	1159.6636	1180.8912	1191.2038	1192.2072	1227.3372	1230.278	1340.8243	1377.5799	1458.0749	1478.7537	1483.4235	1499.665	1524.298	1810.6546	1907.5909	3054.5806	3074.5495	3093.0939	3124.7499	3130.2146	3150.6976	3166.1928
COC(=O)N1CCC1=O	COC(=O)N1CCC1=O	
InChI=1S/C5H7NO3/c1-9-5(8)6-3-2-4(6)7/h2-3H2,1H3	InChI=1S/C5H7NO3/c1-9-5(8)6-3-2-4(6)7/h2-3H2,1H3
