21
gdb 111273	3.13873	1.20579	1.04329	2.0627	78.63	-0.2374	0.061	0.2984	1232.5196	0.182107	-424.194899	-424.185638	-424.184694	-424.228405	35.755	
C	 0.0037273309	 1.5382737448	 0.0011989694	-0.506303
C	 0.0375981649	 0.0369580749	-0.0138298042	 0.371252
C	-0.9151812984	-0.8246366004	 0.7610697906	-0.331495
C	 0.5615061336	-0.961771944	 1.0341754409	-0.140169
C	 1.2511206496	-1.7951916558	-0.0504869237	-0.013661
C	 0.8923652393	-3.262383389	-0.2108986403	-0.119469
O	 1.3592496511	-3.6600425487	-1.5078403588	-0.427714
C	 0.6762463932	-0.8033988612	-1.1264886112	 0.046009
O	-0.2303487229	-1.3301554841	-2.0686369415	-0.445116
H	 0.9838747083	 1.9644211543	-0.2426432773	 0.113464
H	-0.7167746915	 1.9241373499	-0.7298508289	 0.127265
H	-0.2897761864	 1.9179276696	 0.985601673	 0.113736
H	-1.4718297875	-0.3048051203	 1.5349945754	 0.105171
H	-1.4769625706	-1.6055383061	 0.2585880782	 0.116949
H	 0.9798246293	-0.7470484678	 2.0110838949	 0.081021
H	 2.3399312303	-1.7014857291	-0.0030564472	 0.075576
H	 1.3705802691	-3.8634720007	 0.5766087455	 0.093753
H	-0.192262182	-3.4093502281	-0.1331827888	 0.10009
H	 1.1160041887	-4.5801199477	-1.6480207838	 0.292072
H	 1.4873572343	-0.2528021615	-1.6240160226	 0.061306
H	 0.1923576667	-2.125288229	-2.4216143597	 0.286263
106.6382	135.8359	172.3969	193.8994	243.4106	261.2492	318.7429	334.4147	357.7536	471.8977	492.4373	535.3527	604.7886	661.7835	706.9843	800.8196	833.7997	901.8441	938.4317	969.8874	982.422	1005.6524	1035.6588	1037.7961	1076.9527	1101.5498	1108.7544	1117.0687	1144.2898	1186.1181	1236.4849	1251.8237	1263.0047	1271.1452	1299.6544	1355.1939	1369.4813	1379.546	1417.7001	1441.619	1452.2451	1485.0316	1499.004	1502.0102	1517.9108	2991.5308	2991.8	3020.2308	3036.3109	3068.082	3079.1717	3092.8621	3124.2122	3171.5079	3205.6324	3746.174	3827.8401
CC12CC1C(CO)C2O	C[C@]12C[C@H]1[C@@H](CO)[C@H]2O	
InChI=1S/C7H12O2/c1-7-2-5(7)4(3-8)6(7)9/h4-6,8-9H,2-3H2,1H3	InChI=1S/C7H12O2/c1-7-2-5(7)4(3-8)6(7)9/h4-6,8-9H,2-3H2,1H3/t4-,5+,6-,7+/m1/s1
