21
gdb 60572	3.57377	0.95434	0.84636	1.4058	79.12	-0.2586	0.0833	0.342	1431.3337	0.181351	-424.188204	-424.17868	-424.177736	-424.223026	35.464	
C	 0.002569626	 1.5155848608	-0.2841168801	-0.401539
C	-0.0034319019	 0.0321447369	 0.0173477438	-0.005626
C	 1.2595798433	-0.7918823212	-0.0548652246	-0.307112
C	 0.5870591183	-0.5477997205	 1.2790630739	-0.006672
C	 1.2483885022	 0.317170547	 2.3357314605	 0.072394
O	 0.3002846424	 1.0305700774	 3.1133203983	-0.442262
C	 2.1271897316	-0.537150494	 3.2413082323	 0.068761
C	 2.4338537391	-0.1361638797	 4.6161270538	-0.189633
O	 1.4261318076	-1.1263778316	 4.3469856399	-0.253838
H	 0.9512815002	 1.9865204884	-0.0111355182	 0.113606
H	-0.150131711	 1.6911217502	-1.3545889852	 0.111891
H	-0.791430615	 2.0338830779	 0.2628320797	 0.129899
H	-0.9031649989	-0.4744682515	-0.3232396728	 0.084052
H	 1.2249488497	-1.7870812044	-0.48425304	 0.110114
H	 2.1863955914	-0.2593158436	-0.2509209343	 0.105928
H	 0.051263682	-1.3939060727	 1.7047310577	 0.086676
H	 1.8797253327	 1.0734799842	 1.8548374271	 0.088574
H	-0.0588004855	 0.385901282	 3.7389560871	 0.287254
H	 2.8077776793	-1.2168532004	 2.7288015304	 0.1003
H	 3.3307029517	-0.515817132	 5.1017593991	 0.118198
H	 2.0539461248	 0.8133394066	 4.9841165817	 0.129036
57.2712	82.6715	118.6898	186.0003	206.1868	259.9091	279.738	362.0965	394.8826	432.6353	484.7046	545.6852	669.9062	774.0935	792.3943	842.2494	859.4842	878.861	916.9691	942.3949	999.5427	1010.5963	1035.0413	1066.5543	1097.3865	1111.0252	1113.7617	1152.1287	1159.4862	1168.6446	1174.2213	1197.2349	1239.2176	1265.1837	1294.6214	1297.2738	1393.5033	1412.2462	1420.2752	1430.1487	1442.7887	1491.3512	1494.4626	1504.1214	1514.0831	3033.9442	3046.6864	3095.9516	3098.8595	3105.7477	3117.8819	3120.619	3123.7751	3138.1569	3195.3463	3206.1102	3749.2439
CC1CC1C(O)C1CO1	C[C@H]1C[C@H]1[C@@H](O)[C@H]1CO1	
InChI=1S/C7H12O2/c1-4-2-5(4)7(8)6-3-9-6/h4-8H,2-3H2,1H3	InChI=1S/C7H12O2/c1-4-2-5(4)7(8)6-3-9-6/h4-8H,2-3H2,1H3/t4-,5+,6+,7+/m0/s1
