20
gdb 33231	5.39996	0.66024	0.62957	1.1987	81.26	-0.2382	0.0073	0.2455	1817.3625	0.17169	-403.192067	-403.182992	-403.182048	-403.227173	32.631	
C	 0.05223092	 1.5819314771	 0.1173891735	-0.381837
C	-0.049854152	 0.061099969	-0.0270035391	-0.163642
C	 0.7785660331	-0.4863453924	-1.1930055293	-0.151844
C	 0.6789495818	-2.015473156	-1.3371561374	-0.323449
C	 1.4397776073	-2.5414033513	-2.5103964411	 0.260636
C	 2.5229754868	-3.3547859085	-2.5562964915	-0.12117
O	 2.8703278073	-3.5448388033	-3.8680761832	-0.139678
C	 1.9604100741	-2.8207876907	-4.5544482874	 0.075059
N	 1.0923372789	-2.2065223714	-3.822440575	-0.30071
H	 1.087984817	 1.8946151843	 0.2907012596	 0.113274
H	-0.2974282799	 2.089067	-0.7885957961	 0.116347
H	-0.5497386982	 1.9454823043	 0.9561188744	 0.11065
H	 0.2736641424	-0.4184508684	 0.9067932976	 0.091566
H	-1.1011268985	-0.2247664322	-0.1651154717	 0.096091
H	 0.4523661933	-0.0237398228	-2.1320250906	 0.117962
H	 1.832133667	-0.2062522454	-1.0619085171	 0.092624
H	 1.0426543379	-2.5015676784	-0.4242494669	 0.100069
H	-0.3768782574	-2.2956825647	-1.4443160508	 0.115655
H	 3.128836165	-3.8569897392	-1.8221540084	 0.143498
H	 2.0459846743	-2.8287261301	-5.6299093193	 0.148895
50.6797	80.9968	91.0008	128.954	242.2376	246.9617	321.9173	330.5479	438.5196	640.4657	683.675	737.2919	740.6665	774.3106	798.3916	847.6639	909.024	931.3935	937.2072	983.9905	1017.1336	1063.1719	1092.391	1103.5804	1123.4912	1137.5954	1231.7218	1247.8673	1277.1381	1286.4118	1314.8114	1330.6854	1351.0351	1367.9896	1396.4829	1413.5508	1475.7234	1485.993	1498.7791	1500.0337	1512.4334	1559.5792	1630.9833	3010.4171	3017.6834	3027.5501	3030.5055	3038.9335	3057.3167	3080.028	3097.5347	3101.4717	3273.8691	3293.6208
CCCCC1=COC=N1	CCCCc1cocn1	
InChI=1S/C7H11NO/c1-2-3-4-7-5-9-6-8-7/h5-6H,2-4H2,1H3	InChI=1S/C7H11NO/c1-2-3-4-7-5-9-6-8-7/h5-6H,2-4H2,1H3
