15
gdb 43784	4.23183	1.23239	1.11478	2.9122	71.92	-0.2391	-0.0242	0.2148	1068.8736	0.111571	-420.58011	-420.572709	-420.571764	-420.611896	29.051	
O	 0.0481002717	 0.0456197077	-0.0107942594	-0.315949
C	 0.0182901106	 1.242556659	 0.0006371123	 0.441936
C	-1.193408499	 2.2038432837	-0.0031921925	-0.38575
C	-0.3655477123	 3.5119704566	-0.0042127877	 0.303226
C	 0.7367802505	 3.2565261635	-1.073347866	-0.284937
C	 1.1687376407	 2.2636128039	 0.0278230485	-0.048814
O	 0.6461943112	 3.195112418	 1.0301614241	-0.323621
C	-1.0437179273	 4.7710105631	 0.1398235942	 0.086024
C	-1.6223730023	 5.8195869537	 0.2355506523	-0.312774
H	-1.8318874377	 2.0635635274	-0.8788663194	 0.135403
H	-1.7944451121	 2.1081843061	 0.9031489726	 0.148995
H	 0.4373283076	 2.8823319155	-2.0552714895	 0.117022
H	 1.4240592586	 4.0986671243	-1.148910352	 0.13572
H	 2.1858517267	 1.918792013	 0.1941795285	 0.107752
H	-2.1319342871	 6.7474370845	 0.3255039242	 0.195767
113.3699	137.957	193.0419	373.2903	404.4626	495.499	501.1307	511.8014	543.7555	627.543	631.9051	662.2031	694.1044	766.4397	817.428	829.7897	894.2752	947.6602	989.5709	1002.2014	1038.493	1079.4583	1152.9827	1172.3423	1184.3272	1217.2005	1238.4415	1256.7131	1317.7275	1448.6473	1484.9532	1887.5468	2245.9266	3073.7147	3078.7387	3134.4253	3155.8413	3169.0507	3500.0335
O=C1CC2(CC1O2)C#C	O=C1C[C@@]2(C[C@H]1O2)C#C	
InChI=1S/C7H6O2/c1-2-7-3-5(8)6(4-7)9-7/h1,6H,3-4H2	InChI=1S/C7H6O2/c1-2-7-3-5(8)6(4-7)9-7/h1,6H,3-4H2/t6-,7-/m1/s1
