20
gdb 89826	2.76306	1.35158	1.10613	3.4852	78.65	-0.2327	-0.0173	0.2153	1166.2897	0.171285	-403.159708	-403.151122	-403.150177	-403.193201	33.026	
C	 0.0632573125	 1.5685228804	 0.0167908129	-0.401198
C	-0.0106685158	 0.0315518607	-0.0286669638	-0.087324
C	 0.72220903	-0.5929027392	-1.2341664794	-0.315206
C	 2.1433074851	-0.8446205827	-0.7298821203	 0.33859
C	 3.2426487891	-1.2786552042	-1.6152900803	-0.30559
N	 3.2354660744	 0.0917238375	-1.0586630464	-0.345732
C	 2.0130440453	-1.2341184484	 0.7320617218	-0.383617
C	 0.7259710325	-0.5430010713	 1.1978130491	 0.403392
O	 0.348775591	-0.4444695191	 2.3363561951	-0.321584
H	 1.100477644	 1.9178231352	-0.0236225844	 0.131163
H	-0.4765381462	 2.005256358	-0.8291370315	 0.116158
H	-0.381374071	 1.9397661816	 0.9437712276	 0.140708
H	-1.0610525446	-0.2704330866	 0.0226603268	 0.095721
H	 0.2541699713	-1.5466015252	-1.5075080159	 0.108785
H	 0.7058248429	 0.0425872633	-2.125875523	 0.096449
H	 4.0319369875	-1.9216219086	-1.2345527348	 0.119383
H	 3.0256483265	-1.4115984119	-2.6728930636	 0.109957
H	 2.9302639677	 0.744056405	-1.777689562	 0.226406
H	 1.8730156792	-2.317361554	 0.8492835592	 0.129871
H	 2.8707695187	-0.9403134806	 1.3401472629	 0.143666
55.3423	92.2838	222.4965	242.87	270.8885	318.2586	365.4654	386.5649	479.5852	506.3754	560.1702	639.3963	751.2315	762.7169	828.2118	859.666	905.9387	918.2455	939.3312	960.203	980.8316	1021.9889	1047.9505	1076.3364	1107.622	1126.6008	1157.674	1184.3909	1213.7932	1244.4612	1259.5569	1276.7566	1308.6479	1317.6362	1345.2936	1401.1376	1413.4558	1438.5494	1484.9771	1497.3476	1503.0266	1515.0209	1845.2585	3026.4145	3029.9267	3035.9134	3064.5133	3075.1804	3100.3481	3105.7895	3119.6825	3122.6768	3183.9131	3487.7143
CC1CC2(CN2)CC1=O	C[C@H]1C[C@]2(CN2)CC1=O	
InChI=1S/C7H11NO/c1-5-2-7(4-8-7)3-6(5)9/h5,8H,2-4H2,1H3	InChI=1S/C7H11NO/c1-5-2-7(4-8-7)3-6(5)9/h5,8H,2-4H2,1H3/t5-,7+/m0/s1
