15
gdb 45573	3.42941	1.51873	1.29821	4.9767	60.01	-0.2892	0.0392	0.3284	962.2702	0.11527	-494.967285	-494.960623	-494.959679	-494.998971	25.147	
O	 0.0900336663	-0.0185546982	-0.0424372218	-0.365107
C	 0.0392664669	 1.1674499012	-0.009416024	 0.493295
O	-1.1099376191	 1.8877792988	 0.0934256586	-0.256133
C	-0.8344736402	 3.2896710474	 0.0987985475	 0.033314
C	-1.1821521185	 3.9316434462	 1.4447259747	-0.243688
C	 0.1286461264	 3.7836709551	 2.2263260044	-0.109825
O	 1.1499374683	 3.9431475625	 1.2294204257	-0.239007
C	 0.715894021	 3.3671822915	 0.0457765733	 0.196271
O	 1.1123639181	 1.996905462	-0.0738278868	-0.255631
H	-1.3380937512	 3.7436830593	-0.7558641798	 0.112796
H	-1.4176438881	 4.9892533843	 1.295736949	 0.124005
H	-2.0377445224	 3.4423079614	 1.912646302	 0.136543
H	 0.2875946382	 4.5549760424	 2.9812395822	 0.128631
H	 0.2101946144	 2.7997841066	 2.7059139388	 0.127385
H	 1.16291959	 3.9104150296	-0.787195354	 0.117149
88.6057	118.5374	223.5407	364.1032	461.1854	548.735	605.6071	664.9028	720.9189	773.4201	845.9982	855.9247	893.5782	923.3148	933.1006	957.8991	1006.3042	1032.2807	1063.929	1110.0486	1134.3804	1175.8218	1212.041	1236.6441	1295.7598	1321.0372	1347.3402	1371.4269	1385.2606	1412.3723	1473.6623	1524.3219	1930.7801	3029.6585	3070.8136	3103.4441	3119.5524	3124.6771	3136.9524
O=C1OC2CCOC2O1	O=C1O[C@H]2CCO[C@H]2O1	
InChI=1S/C5H6O4/c6-5-8-3-1-2-7-4(3)9-5/h3-4H,1-2H2	InChI=1S/C5H6O4/c6-5-8-3-1-2-7-4(3)9-5/h3-4H,1-2H2/t3-,4-/m0/s1
