17
gdb 76111	3.1354	1.35405	1.13887	4.0373	73.08	-0.2535	0.006	0.2595	1096.7924	0.135072	-417.974082	-417.965354	-417.96441	-418.007304	32.309	
C	 0.1348553108	 1.5458945419	 0.0666115932	-0.504854
C	-0.0452141227	 0.0631706197	-0.051754085	 0.349705
C	-0.9656566644	-0.7371827621	 0.7786905666	-0.287054
N	 0.4869009002	-0.9312254085	 0.9899615676	-0.169826
C	 0.9467783365	-1.8185227552	-0.1389912677	-0.184032
C	 0.3755850436	-3.1557546639	-0.1999497468	 0.308886
N	-0.0807484007	-4.2149132913	-0.2832575758	-0.329953
C	 0.4537537255	-0.7812618847	-1.2174167237	 0.037157
O	-0.5538762944	-1.1442023175	-2.1169860125	-0.415553
H	 1.1558549148	 1.8468616279	-0.1906446354	 0.124979
H	-0.5535774223	 2.0688508435	-0.6066691457	 0.137824
H	-0.0703514018	 1.8787721028	 1.08764537	 0.136992
H	-1.4326349409	-0.2298054517	 1.6166164476	 0.130067
H	-1.554639989	-1.5390805442	 0.3434924642	 0.150911
H	 2.0361681757	-1.8945426834	-0.1060831769	 0.12909
H	 1.3136160083	-0.3256680148	-1.7242692895	 0.088745
H	-0.1829056293	-1.7207427884	-2.7940348401	 0.296916
98.4697	122.6953	171.0904	190.1426	254.2601	281.5719	306.4521	366.7394	430.7119	506.4368	544.018	626.8682	681.2711	767.5344	780.3838	810.9001	886.9536	955.2571	977.4699	1039.7903	1056.3752	1085.7312	1124.4665	1134.6071	1146.6653	1187.6145	1232.375	1265.6327	1318.7534	1349.6099	1378.618	1417.9255	1448.0102	1482.784	1492.3166	1509.3323	2350.9427	3024.754	3033.6106	3086.504	3096.731	3117.1985	3125.83	3215.5457	3808.6532
CC12CN1C(C#N)C2O	C[C@]12CN1[C@@H](C#N)[C@H]2O	
InChI=1S/C6H8N2O/c1-6-3-8(6)4(2-7)5(6)9/h4-5,9H,3H2,1H3	InChI=1S/C6H8N2O/c1-6-3-8(6)4(2-7)5(6)9/h4-5,9H,3H2,1H3/t4-,5+,6+,8?/m0/s1
