20
gdb 26147	2.52278	1.27406	1.04403	1.6974	81.73	-0.2263	0.0107	0.237	1260.1926	0.170398	-403.202563	-403.193103	-403.192159	-403.237146	34.413	
C	-0.0370795534	 1.5962493798	-0.0332689495	-0.380055
C	-0.0554604748	 0.0570954367	-0.0097971554	-0.090719
C	-1.4991451837	-0.4768920186	 0.0139370886	-0.38005
C	 0.7014954366	-0.5033833562	-1.1788126181	 0.20323
C	 1.8111007804	-1.2878373813	-1.2147695788	 0.229469
C	 2.7084205471	-1.8988187177	-0.202223898	-0.49742
O	 2.1081357736	-1.527137846	-2.5385955199	-0.178667
C	 1.150820897	-0.8664326516	-3.2251901178	 0.057237
N	 0.2928373408	-0.2441268967	-2.4915607693	-0.307422
H	 0.9864691245	 1.9812723556	 0.0078070896	 0.109915
H	-0.4991748233	 1.9666143	-0.9530579452	 0.136617
H	-0.5908872049	 2.0028037637	 0.8192499936	 0.106115
H	 0.4493971669	-0.2781088421	 0.9051093036	 0.07106
H	-2.0228574944	-0.1938459129	-0.9038533307	 0.136596
H	-1.5169914445	-1.5685360215	 0.0886079001	 0.109911
H	-2.0497450527	-0.0657893279	 0.8663560757	 0.106126
H	 2.7216683734	-2.9916054341	-0.2838692376	 0.141202
H	 3.7405871267	-1.5485185869	-0.3160417289	 0.141203
H	 2.3702201173	-1.6376339034	 0.8027164674	 0.141042
H	 1.1981996676	-0.9239560089	-4.3016428195	 0.144609
48.6295	121.6447	148.2281	177.029	226.5871	238.4963	251.2894	280.7295	367.9045	421.3074	501.8563	615.9022	646.0937	713.0687	753.9069	834.2693	886.8778	930.1151	952.7521	965.2481	966.8163	1053.7739	1065.7453	1097.6321	1123.3498	1155.0297	1195.4005	1224.4946	1295.5029	1333.2828	1358.4786	1371.0059	1393.4883	1415.3578	1421.6926	1472.5731	1485.3238	1489.2945	1492.757	1499.493	1513.4338	1567.3977	1672.6277	3023.845	3031.5056	3033.2452	3037.3175	3081.6264	3102.484	3105.9288	3114.859	3119.3424	3130.1355	3269.848
CC(C)C1=C(C)OC=N1	CC(C)c1c(C)ocn1	
InChI=1S/C7H11NO/c1-5(2)7-6(3)9-4-8-7/h4-5H,1-3H3	InChI=1S/C7H11NO/c1-5(2)7-6(3)9-4-8-7/h4-5H,1-3H3
