18
gdb 50935	2.96654	0.97281	0.81042	2.2414	72.94	-0.2563	-0.0578	0.1984	1402.7991	0.144787	-439.062072	-439.052361	-439.051417	-439.0988	33.062	
O	-0.6782905735	 0.9305898004	 0.8537491489	-0.229849
C	 0.0955656508	 0.9998187553	-0.0650530594	 0.151713
C	 1.3060118969	 1.9083796851	-0.111848932	-0.300515
C	 1.2383065194	 2.9084026792	-1.286985444	-0.113585
C	 0.0928358829	 3.9009764672	-1.0831070265	 0.127557
O	-0.3495550613	 4.6063482134	-1.9532086207	-0.241556
C	 2.5806447124	 3.6204804103	-1.4766493013	 0.011612
C	 2.7268911845	 4.8598318374	-2.2731802639	-0.255976
N	 2.91328599	 4.8903799519	-0.8089064471	-0.321726
H	-0.0445227854	 0.3785169519	-0.9811198843	 0.081004
H	 1.3988230807	 2.4278819803	 0.8467997548	 0.133485
H	 2.1926954878	 1.2748657416	-0.2440945752	 0.129422
H	 1.0215581494	 2.3674520156	-2.2186104276	 0.119081
H	-0.3190537368	 3.9452418252	-0.0498621272	 0.107541
H	 3.4144706962	 2.9198036521	-1.4784312665	 0.098409
H	 3.6333503879	 5.0200830868	-2.8498813487	 0.122724
H	 1.8267897032	 5.2994351619	-2.690735524	 0.146783
H	 2.0898482347	 5.2971544444	-0.3699519753	 0.233876
40.1118	49.7535	62.3428	86.4294	188.8911	209.9107	272.3906	320.6332	380.546	472.6684	537.2314	576.1321	762.6452	808.12	837.6998	905.3059	941.6083	954.3721	990.677	1012.8713	1054.0031	1091.2781	1109.3918	1133.3278	1151.935	1193.4795	1202.6308	1250.6589	1265.3969	1304.4356	1316.8923	1342.8909	1399.504	1427.0751	1439.292	1467.7046	1509.4169	1823.2318	1835.3393	2856.2688	2883.895	3018.95	3031.7416	3100.5044	3112.6589	3119.9588	3211.7823	3490.0238
O=CCC(C=O)C1CN1	O=CC[C@@H](C=O)[C@H]1CN1	
InChI=1S/C6H9NO2/c8-2-1-5(4-9)6-3-7-6/h2,4-7H,1,3H2	InChI=1S/C6H9NO2/c8-2-1-5(4-9)6-3-7-6/h2,4-7H,1,3H2/t5-,6+/m0/s1
