16
gdb 47209	2.70261	1.7778	1.18094	3.5374	72.31	-0.2493	-0.0057	0.2437	1015.345	0.125942	-437.900361	-437.8929	-437.891955	-437.93267	28.29	
O	 0.078653106	 0.0541747413	 0.4648655887	-0.352086
C	 0.0289182876	 1.1865050347	 0.0533672697	 0.3956
O	-1.1423163835	 1.675399416	-0.3942168945	-0.242034
C	-1.3136009484	 3.0164302278	-0.8810432469	-0.118148
C	-0.049623863	 3.7387393983	-1.2195054108	-0.124283
C	 1.1365262577	 3.2983865624	-0.8166691346	-0.096462
C	 1.2435742852	 2.0715723008	-0.0056317912	 0.11447
C	 2.116271114	 2.0090421813	 1.2210637082	-0.254261
N	 2.5390609246	 1.3616358762	-0.0099016268	-0.342865
H	-1.9570660679	 2.9233640043	-1.763394603	 0.138083
H	-1.891289463	 3.5676891618	-0.1251811757	 0.133384
H	-0.1574317296	 4.648020346	-1.8022905408	 0.111398
H	 2.0617793522	 3.809635074	-1.0607878127	 0.116098
H	 2.6754153183	 2.8979304806	 1.5001361548	 0.125558
H	 1.7591094989	 1.3937960367	 2.0416206989	 0.14091
H	 2.3315154707	 0.3651495578	 0.0590822666	 0.254637
66.1873	128.038	257.2692	284.8938	307.2113	414.1778	483.7696	508.5627	560.665	645.2819	723.1318	752.558	833.3644	885.7717	918.9749	938.1959	960.3873	991.5883	1009.7495	1030.4934	1056.4613	1113.3956	1146.0033	1170.0708	1208.6382	1258.2095	1282.3224	1329.8474	1362.5054	1433.5567	1437.7467	1494.8294	1504.0933	1738.1663	1815.5133	3005.7664	3056.845	3111.3386	3176.3418	3197.5959	3207.7989	3474.6943
O=C1OCC=CC11CN1	O=C1OCC=C[C@]21CN2	
InChI=1S/C6H7NO2/c8-5-6(4-7-6)2-1-3-9-5/h1-2,7H,3-4H2	InChI=1S/C6H7NO2/c8-5-6(4-7-6)2-1-3-9-5/h1-2,7H,3-4H2/t6-/m1/s1
