18
gdb 65582	3.37092	1.24732	1.21171	2.9745	74.69	-0.2786	0.0361	0.3148	1087.0967	0.148368	-401.963693	-401.955678	-401.954734	-401.995945	31.097	
C	 0.4415095248	 1.3094382747	 0.0306630648	-0.435284
C	-0.1260251977	-0.1271812311	-0.0033982965	 0.124944
C	 0.4363495019	-0.935625881	-1.2273179371	-0.28396
C	 1.5908283317	-1.7365295157	-0.6669266208	 0.046683
O	 2.5142602667	-0.9633730586	 0.113921286	-0.251927
C	 1.5232025016	-1.7445557871	 0.7978704084	 0.046682
C	 0.3216034328	-0.9492352058	 1.2582268003	-0.28396
C	-1.5888433202	-0.0560950314	-0.0705506049	 0.253472
N	-2.7425365018	-0.0001882135	-0.1234550699	-0.349268
H	 1.5299588895	 1.2626902718	 0.0806577422	 0.152562
H	 0.146622723	 1.8615442651	-0.8662067576	 0.129815
H	 0.0649663123	 1.8518683407	 0.9025229147	 0.129816
H	-0.3176652978	-1.6230649173	-1.6239674477	 0.128953
H	 0.7337505607	-0.2653409367	-2.0385910906	 0.126167
H	 2.0314098794	-2.5435109709	-1.2464742673	 0.105091
H	 1.9089225857	-2.5580459285	 1.4066886282	 0.105092
H	 0.5426719612	-0.2880037037	 2.1007208343	 0.126168
H	-0.4654022738	-1.6405794912	 1.5761974936	 0.128954
117.1204	159.1416	209.833	253.4708	290.3771	350.2819	378.0182	381.6363	547.3309	562.5178	601.7369	671.2096	777.1807	816.4156	862.4965	873.6616	936.7435	946.7938	961.2208	969.7179	1000.6504	1036.2181	1100.7296	1130.3285	1159.3329	1187.4064	1213.3276	1256.1953	1288.1724	1307.3539	1331.5859	1340.914	1401.1652	1448.0526	1475.8852	1482.1497	1497.7581	1505.8062	2351.6253	3047.9463	3055.2885	3058.0004	3101.906	3103.6602	3118.6385	3146.9362	3152.9033	3159.1506
CC1(CC2OC2C1)C#N	C[C@]1(C[C@H]2O[C@H]2C1)C#N	
InChI=1S/C7H9NO/c1-7(4-8)2-5-6(3-7)9-5/h5-6H,2-3H2,1H3	InChI=1S/C7H9NO/c1-7(4-8)2-5-6(3-7)9-5/h5-6H,2-3H2,1H3/t5-,6+,7-
