19
gdb 65972	2.37911	1.46175	1.28234	2.2865	76.47	-0.2596	-0.0344	0.2252	1092.7638	0.15779	-423.013606	-423.004941	-423.003997	-423.046862	33.304	
O	-0.015659289	 1.3390343226	-0.5533715314	-0.476558
C	-0.0225911816	 0.0418620295	-0.0515736137	 0.263463
C	 0.0320516016	-0.1367617926	 1.5043564619	-0.282844
C	-1.1151726186	-1.1839835349	 1.4195294978	-0.318406
C	-1.3806955974	-0.7088914997	-0.0119114372	 0.312209
C	-2.6438742546	-0.0880617972	-0.5245194778	-0.30724
C	-2.1168153713	-1.3580291863	-1.1484961605	-0.345653
C	 1.028644191	-0.7858856058	-0.7501300086	 0.125389
O	 1.7165721831	-0.3353738755	-1.6363074423	-0.288122
H	 0.6726095794	 1.3542996115	-1.2388173801	 0.290928
H	 0.9815104422	-0.4522288135	 1.9444150142	 0.103931
H	-0.286713504	 0.797697806	 1.9692891427	 0.130052
H	-0.7523244801	-2.2154168284	 1.472254591	 0.104728
H	-1.9334535967	-1.0692632857	 2.1343094438	 0.109371
H	-3.527674977	-0.1526869217	 0.1023619421	 0.112755
H	-2.5424713918	 0.8366938145	-1.0816368667	 0.134044
H	-1.6848436406	-1.2949712707	-2.142878322	 0.119217
H	-2.6413403963	-2.2872014034	-0.9491576451	 0.114866
H	 1.1308712418	-1.8367336488	-0.4122583179	 0.097871
77.2349	106.5672	192.9079	222.1682	285.9255	301.7375	346.054	413.0318	447.2386	505.3843	545.8515	585.7782	742.0236	781.8745	832.1966	860.7695	881.4395	893.5862	920.6975	944.6333	952.6582	997.4435	1055.4195	1074.9265	1077.0065	1102.8224	1140.5867	1190.9409	1192.9728	1222.3055	1243.027	1260.4467	1304.8607	1364.9163	1386.4299	1438.8123	1460.9793	1474.5268	1497.8547	1500.59	1803.3928	2935.0225	3049.0648	3067.2773	3099.5386	3121.032	3129.6759	3133.5539	3201.7675	3222.6868	3672.0856
OC1(CCC11CC1)C=O	O[C@]1(CCC21CC2)C=O	
InChI=1S/C7H10O2/c8-5-7(9)4-3-6(7)1-2-6/h5,9H,1-4H2	InChI=1S/C7H10O2/c8-5-7(9)4-3-6(7)1-2-6/h5,9H,1-4H2/t7-/m1/s1
