16
gdb 133743	2.45567	1.23912	1.19497	3.3752	53.61	-0.2785	0.0469	0.3254	1092.4102	0.11793	-606.529525	-606.519855	-606.518911	-606.56396	35.117	
C	 0.0282681088	 1.5668587445	 0.0235077626	-0.441829
C	-0.0310916268	 0.0338435061	-0.0007116342	 0.223031
O	 0.6413641987	-0.5200027984	 1.1131510168	-0.476146
C	-1.4837396837	-0.478643259	-0.0200489519	-0.133153
O	-2.012989131	-0.1752116461	 1.267787995	-0.435994
C	 0.7056598124	-0.5033658241	-1.2358136083	 0.279346
F	 1.9734775552	-0.0863200836	-1.2721269204	-0.071254
F	 0.7142373216	-1.8407878458	-1.2722351113	-0.073726
F	 0.1013267669	-0.0753501687	-2.3621396134	-0.089982
H	 1.0629105722	 1.8920172715	 0.1445829368	 0.139071
H	-0.3761243552	 1.9966597089	-0.8969145209	 0.125168
H	-0.5600270177	 1.9321997373	 0.8681160453	 0.134896
H	-0.0097959382	-0.520278131	 1.8274939095	 0.292549
H	-2.0565679058	 0.0137137891	-0.8156857118	 0.111479
H	-1.479809907	-1.5600204075	-0.2000823524	 0.115231
H	-2.8007285303	-0.7067286232	 1.4096120688	 0.301312
66.939	111.5699	180.8691	222.6754	231.7796	239.9766	293.7911	341.1483	345.2515	368.7238	416.0706	449.226	479.3124	574.8555	583.1972	681.5535	765.4059	883.0508	943.6778	989.4296	1059.9942	1112.9994	1147.8282	1188.0907	1210.8663	1221.508	1249.5579	1277.0614	1303.3701	1394.9795	1431.9904	1445.8329	1493.202	1501.2136	1518.6781	3020.0193	3056.7592	3069.8447	3133.6016	3147.5823	3762.1207	3849.8612
CC(O)(CO)C(F)(F)F	C[C@@](O)(CO)C(F)(F)F	
InChI=1S/C4H7F3O2/c1-3(9,2-8)4(5,6)7/h8-9H,2H2,1H3	InChI=1S/C4H7F3O2/c1-3(9,2-8)4(5,6)7/h8-9H,2H2,1H3/t3-/m1/s1
