18
gdb 32410	3.0249	1.29033	0.94107	3.3206	76.72	-0.1863	0.0276	0.2139	1243.4001	0.148571	-439.11385	-439.105012	-439.104068	-439.147306	33.008	
C	-0.0230185499	 1.451138901	-0.0778037941	-0.497932
C	-0.0570033211	-0.030066314	-0.0135818492	 0.265903
C	-1.0467412666	-0.946822166	-0.2055595429	 0.128441
O	-2.3410563989	-0.6971443155	-0.5249750819	-0.455195
C	-0.4680613333	-2.2525488349	-0.0073979149	 0.156313
C	-1.2348232212	-3.5344352497	-0.0911766935	-0.293627
N	-2.2109739099	-3.4461432289	-1.2004399085	-0.518837
H	-2.831961069	-4.248813431	-1.1927299878	 0.239806
H	-2.6936663375	-1.5504360682	-0.8480062291	 0.296333
H	-1.7222054107	-3.4544846404	-2.0911654947	 0.242829
C	 0.8394162414	-2.0241219799	 0.2847800468	-0.132281
O	 1.1071497657	-0.6960012755	 0.2984348747	-0.188493
H	 0.7223926409	 1.8125690506	-0.7963248933	 0.127926
H	-1.0051253064	 1.8126640266	-0.3919529694	 0.145268
H	 0.2115987238	 1.904132181	 0.8934448116	 0.128953
H	-0.5502699172	-4.3917233866	-0.1734949647	 0.102456
H	-1.8206824316	-3.6865312465	 0.8249628561	 0.124495
H	 1.6684968515	-2.6762736321	 0.5088027949	 0.127641
100.0525	122.2511	143.9315	209.7343	261.5127	266.8461	319.6326	364.6858	428.6231	506.5336	586.64	611.7607	698.0764	719.4133	726.0081	728.6229	772.9317	892.6515	941.8094	992.5524	1022.1626	1052.3805	1064.5326	1169.1654	1186.2222	1191.5566	1261.5164	1294.1271	1326.3054	1386.3247	1414.0613	1427.3071	1473.1989	1475.1614	1495.55	1504.7113	1609.0061	1649.3074	1725.1877	2988.4181	3019.3669	3030.7411	3064.7981	3125.9012	3262.9877	3493.5321	3529.3147	3578.0046
CC1=C([O-])C(C[NH3+])=CO1	Cc1c(O)c(CN)co1	
InChI=1S/C6H9NO2/c1-4-6(8)5(2-7)3-9-4/h3,8H,2,7H2,1H3	InChI=1S/C6H9NO2/c1-4-6(8)5(2-7)3-9-4/h3,8H,2,7H2,1H3
