21
gdb 119313	2.35204	1.08025	0.88309	3.1698	79.09	-0.2538	-0.0295	0.2244	1419.9103	0.180333	-424.216696	-424.206671	-424.205727	-424.252758	35.237	
C	-0.0431441341	 1.5763873926	 0.0743515455	-0.381503
C	-0.00386703	 0.0475724284	 0.1377602437	-0.177641
C	-1.3764416396	-0.5924727484	-0.1101960471	-0.271808
C	-1.372670197	-2.1208804992	-0.0194453628	 0.181698
C	-1.166482046	-2.7710721799	 1.3650465066	-0.116439
O	-2.4543852839	-3.4230637201	 1.3049954941	-0.267682
C	-2.7757529191	-2.8002863072	 0.0540373955	-0.12354
C	-0.535357327	-2.7221788975	-1.126517582	 0.113293
O	 0.3465396298	-3.528833068	-0.9825433324	-0.249683
H	 0.9459231541	 2.0065325168	 0.2574130015	 0.118743
H	-0.3813825397	 1.9242698661	-0.9079893835	 0.117013
H	-0.7291456037	 1.9861564974	 0.8239111867	 0.117866
H	 0.7183413908	-0.3325876433	-0.5962283539	 0.110029
H	 0.3711785602	-0.2701179595	 1.1189952208	 0.108593
H	-2.1017281944	-0.2033223723	 0.6154919191	 0.106815
H	-1.7477448101	-0.2941162853	-1.101436805	 0.101496
H	-0.3417419933	-3.4876602627	 1.4190658742	 0.129616
H	-1.1055294566	-2.0643348076	 2.2020212664	 0.096551
H	-3.6103836233	-2.0908578976	 0.1375495809	 0.101792
H	-3.0079294728	-3.533160532	-0.7297780379	 0.108377
H	-0.8184415043	-2.359534251	-2.1438340705	 0.076416
62.6131	69.1429	89.226	100.5189	157.5494	241.8069	263.6852	293.6798	320.3415	353.6322	412.0023	605.7046	705.2512	741.7302	855.2962	864.5066	891.7683	912.8229	959.0481	980.7513	995.7493	1043.2865	1049.7475	1070.2679	1074.393	1143.3709	1159.4352	1169.3394	1226.7003	1243.0127	1302.3943	1311.4043	1320.139	1345.4278	1373.2438	1393.7162	1414.589	1424.3894	1481.3463	1491.3351	1499.7323	1508.8471	1509.9787	1533.1255	1827.6161	2845.0534	2996.9357	3004.973	3021.0272	3023.3027	3031.7219	3039.6663	3043.3912	3061.2527	3090.8815	3097.9368	3107.3675
CCCC1(COC1)C=O	CCCC1(COC1)C=O	
InChI=1S/C7H12O2/c1-2-3-7(4-8)5-9-6-7/h4H,2-3,5-6H2,1H3	InChI=1S/C7H12O2/c1-2-3-7(4-8)5-9-6-7/h4H,2-3,5-6H2,1H3
