19
gdb 17453	3.38091	2.12564	1.66608	1.3386	75.04	-0.2317	0.0867	0.3184	858.8835	0.165647	-327.863457	-327.855942	-327.854998	-327.894615	29.679	
C	-0.1623246841	 1.4668439096	-0.1075233075	-0.311035
N	 0.1054931166	 0.0445038943	 0.0385276655	-0.084779
C	 1.4267638173	-0.5109887814	-0.1637539994	-0.054808
C	 2.5593120766	 0.3326856162	 0.3921051096	-0.128427
C	 3.1965130128	-0.4037626484	 1.543943795	-0.328065
C	 1.8920127051	 0.3194681083	 1.7798777719	 0.347653
C	 1.7500285132	 1.4087523461	 2.8093826565	-0.497666
C	 0.7625749717	-0.5244703119	 1.2010255753	-0.126831
H	 0.660292781	 2.1229623352	 0.2060311886	 0.108914
H	-0.3795083082	 1.6722307929	-1.1609671049	 0.118854
H	-1.0529835647	 1.7225500357	 0.4755676615	 0.118425
H	 1.5387826244	-1.3309868029	-0.8657976979	 0.092143
H	 3.051809464	 1.1632446171	-0.1008327797	 0.087734
H	 3.2343672669	-1.4904436914	 1.535782226	 0.105766
H	 4.0759502191	 0.0648810219	 1.9791875053	 0.105861
H	 2.6684444798	 2.0002078847	 2.8875093467	 0.117089
H	 0.9289437043	 2.0927868139	 2.5744736341	 0.120952
H	 1.5505532021	 0.9841361232	 3.800643827	 0.121244
H	 0.2713036823	-1.351759793	 1.7045090363	 0.086975
171.7158	185.4939	210.2314	227.4876	312.9706	347.2635	404.1909	504.5331	609.1213	649.5123	741.6841	791.3825	823.2039	860.1948	905.3091	919.8694	962.071	984.7168	1001.5223	1036.1102	1045.6674	1071.1249	1088.9952	1104.9674	1118.9855	1154.1677	1182.842	1221.0074	1258.421	1282.0561	1290.5855	1351.3092	1372.4792	1421.2471	1444.9152	1486.6795	1488.8741	1496.373	1497.5604	1509.1507	3009.5267	3026.4051	3074.4142	3084.4649	3098.3881	3101.7106	3103.401	3152.277	3164.5866	3173.8943	3185.615
CN1C2C3CC3(C)C12	CN1[C@H]2[C@@H]3C[C@]3(C)[C@@H]12	
InChI=1S/C7H11N/c1-7-3-4(7)5-6(7)8(5)2/h4-6H,3H2,1-2H3	InChI=1S/C7H11N/c1-7-3-4(7)5-6(7)8(5)2/h4-6H,3H2,1-2H3/t4-,5-,6-,7-,8?/m0/s1
