16
gdb 33045	4.62893	0.88112	0.7598	5.7825	68.95	-0.2123	0.0319	0.2442	1461.28	0.124035	-475.064622	-475.056116	-475.055172	-475.098832	30.518	
C	-0.2211497815	 1.3989678384	 0.0684597478	-0.394543
C	 0.3171448393	-0.0263139255	 0.0592623794	-0.134956
N	 0.5294276448	-0.4820846577	-1.3243800549	-0.405575
C	 0.839640867	-1.8010168803	-1.542927238	 0.38762
C	 1.7321311584	-2.4528022841	-2.2952025513	-0.167469
O	 1.4547668629	-3.8208460501	-2.2191400412	-0.212511
C	 0.4126659981	-3.9797078089	-1.3683781663	 0.508805
O	-0.0821010093	-5.0070210281	-1.0321440172	-0.374785
O	 0.0110843356	-2.7320295217	-0.9449361751	-0.233963
H	 0.4907201284	 2.0967278774	-0.3876597119	 0.116415
H	-1.1617346833	 1.4617119132	-0.4853812312	 0.137088
H	-0.3964033152	 1.7311347986	 1.0953165944	 0.129293
H	 1.2448141832	-0.0901215031	 0.6491540734	 0.103744
H	-0.4034083448	-0.7079907714	 0.5174571607	 0.146407
H	 1.1300536679	 0.1360692559	-1.8546506426	 0.243885
H	 2.5461681385	-2.1462461126	-2.9244301661	 0.150546
54.0338	77.02	115.3438	211.2529	252.7774	331.5823	352.0867	397.5232	558.7557	617.9802	628.0625	664.2412	712.3831	774.7453	785.7242	816.4665	913.2465	937.2315	985.1797	1063.4392	1085.5845	1122.036	1134.5422	1162.3019	1289.6014	1302.7215	1372.9222	1382.0472	1415.7775	1473.3772	1495.9665	1498.5253	1520.6732	1752.7832	1939.4428	2983.2901	3036.6325	3093.6793	3113.8058	3127.8668	3317.2462	3575.2535
CCNC1=COC(=O)O1	CCNc1coc(=O)o1	
InChI=1S/C5H7NO3/c1-2-6-4-3-8-5(7)9-4/h3,6H,2H2,1H3	InChI=1S/C5H7NO3/c1-2-6-4-3-8-5(7)9-4/h3,6H,2H2,1H3
