19
gdb 34852	3.80744	1.22548	1.13957	0.6028	81.19	-0.2534	0.0498	0.3032	1124.6204	0.160685	-385.842767	-385.835068	-385.834124	-385.874715	30.787	
C	-0.0441146101	-1.1825593082	-0.0722056025	-0.408902
C	-0.0221651601	 0.0194166853	-0.024721709	 0.279421
C	 0.0071154501	 1.466947911	 0.0357977129	-0.19898
C	-0.107803475	 2.0739535936	 1.4768756899	-0.04076
C	 1.435739261	 1.9385965741	 1.5922889386	-0.232565
C	 1.4404451332	 2.1024019598	 0.0471962876	-0.040764
C	 1.3020396245	 3.5913740054	-0.2899344431	-0.075897
O	 0.5837636469	 4.2939685797	 0.7165244935	-0.261999
C	-0.4623583013	 3.5589536843	 1.3393426019	-0.075896
H	-0.0685629542	-2.2429562456	-0.1195436646	 0.189787
H	-0.6843672793	 1.8877686091	-0.704657897	 0.090799
H	-0.7558140603	 1.5660708655	 2.1933475843	 0.078651
H	 1.9680967728	 2.6861672802	 2.1836724277	 0.106809
H	 1.7318929503	 0.9328747788	 1.8929919559	 0.115204
H	 2.2159843592	 1.6206775566	-0.5508630739	 0.07865
H	 2.2857832155	 4.071129389	-0.3390490041	 0.108656
H	 0.819440719	 3.710801129	-1.2745125664	 0.089564
H	-1.4077347489	 3.669877741	 0.782101357	 0.089565
H	-0.5988424634	 4.0181260115	 2.3246658012	 0.108656
127.1723	139.1463	199.8358	303.3558	346.7014	391.6207	456.5716	480.1915	555.0629	615.8359	633.3053	652.4043	828.9085	854.5357	866.7627	871.9949	882.2053	922.9844	966.1577	1000.5322	1022.8647	1073.8547	1084.3007	1091.3744	1107.9892	1127.1208	1160.0985	1216.6986	1239.5951	1256.7179	1271.1743	1283.6614	1310.8278	1312.5934	1365.4621	1377.38	1419.0055	1481.7613	1504.8756	1513.1796	2230.9923	2960.2686	2967.4247	3024.0679	3059.2324	3061.8649	3075.4804	3096.7977	3098.2362	3138.0586	3504.4707
C#CC1C2CC1COC2	C#C[C@H]1[C@H]2C[C@@H]1COC2	
InChI=1S/C8H10O/c1-2-8-6-3-7(8)5-9-4-6/h1,6-8H,3-5H2	InChI=1S/C8H10O/c1-2-8-6-3-7(8)5-9-4-6/h1,6-8H,3-5H2/t6-,7+,8-
