25
gdb 60248	2.71237	0.93254	0.76003	1.3716	88.79	-0.2529	0.0762	0.3291	1609.5948	0.228086	-389.487365	-389.476909	-389.475965	-389.522924	39.657	
C	-0.3137470478	 1.587988304	 0.2981998289	-0.391017
C	-0.0758189388	 0.0843258366	 0.1035048104	 0.038661
C	 0.9764719603	-0.4290329588	 1.0956142746	-0.378617
C	-1.4096794423	-0.6843308667	 0.1784836396	-0.196433
C	-1.3245892078	-2.1797235897	-0.1445513332	-0.044247
C	-1.1121280857	-3.1350594446	 1.072603168	-0.227489
C	-2.6406171052	-3.4063523814	 1.1087111525	-0.263733
C	-2.7197958833	-2.8704078564	-0.3409997403	 0.153875
O	-3.8346667476	-2.1238113197	-0.7593595445	-0.429146
H	 0.6174795375	 2.1540567374	 0.1905950412	 0.109046
H	-1.030307852	 1.9779586437	-0.4324564841	 0.109695
H	-0.7123818487	 1.7957054028	 1.2987452549	 0.10931
H	 0.3227792516	-0.0626451539	-0.9110411812	 0.073472
H	 0.6234229866	-0.3300077125	 2.1295505634	 0.108063
H	 1.2208997326	-1.4812163303	 0.9255210947	 0.118749
H	 1.9044982112	 0.1460659343	 1.0084643723	 0.107576
H	-1.8516166504	-0.5341978853	 1.1757424206	 0.080084
H	-2.102686767	-0.2218421905	-0.5372636559	 0.097422
H	-0.6338320165	-2.3249270629	-0.9822097964	 0.063462
H	-0.5402240307	-4.0267386661	 0.8020676318	 0.100924
H	-0.6688237429	-2.7014190846	 1.9708145887	 0.101031
H	-2.9894878976	-4.4237093763	 1.3007504026	 0.09896
H	-3.1511636848	-2.7303753798	 1.8041709	 0.092563
H	-2.6338100527	-3.6881238736	-1.0629560982	 0.088138
H	-4.0029191179	-1.4430493956	-0.0996644507	 0.279649
52.6171	96.12	127.0573	150.1207	224.3313	239.9566	269.0426	303.4395	317.9009	376.9321	401.0619	420.5321	458.1724	549.8995	652.4335	755.1993	819.5395	852.6015	876.0622	905.786	927.0998	935.6765	964.8166	968.1444	973.2299	1012.5415	1060.3924	1089.4228	1135.2166	1144.3123	1162.0485	1195.9138	1206.1398	1230.112	1250.7861	1259.2661	1265.4855	1297.5857	1317.1946	1320.1215	1360.3641	1372.8736	1391.0933	1400.1443	1421.4605	1438.9313	1480.4776	1483.6309	1489.6753	1495.3384	1503.1118	1506.0989	1511.5818	2984.6759	2997.3674	3021.8523	3026.9207	3031.0975	3042.1255	3042.8713	3063.4218	3068.8501	3085.0336	3091.1495	3098.4531	3102.5785	3109.0877	3120.9257	3812.8123
CC(C)CC1CCC1O	CC(C)C[C@H]1CC[C@H]1O	
InChI=1S/C8H16O/c1-6(2)5-7-3-4-8(7)9/h6-9H,3-5H2,1-2H3	InChI=1S/C8H16O/c1-6(2)5-7-3-4-8(7)9/h6-9H,3-5H2,1-2H3/t7-,8-/m1/s1
