19
gdb 69271	2.58465	1.68905	1.21017	4.6887	75.81	-0.2392	0.0457	0.2848	1063.7767	0.161363	-419.237095	-419.228999	-419.228054	-419.269388	31.732	
C	-0.0312207601	 1.4865948634	 0.0735222716	-0.458143
C	-0.0273166646	-0.0215526358	-0.061391243	 0.320663
C	 0.7381915129	-0.6610449037	-1.1794226456	-0.291705
N	 1.269160783	-0.6658977001	 0.1799123953	-0.143602
C	 1.3299249835	-1.8798975395	 0.8991661035	 0.391547
O	 2.1432965174	-2.7480572326	 0.6619113469	-0.386145
N	 0.4324126598	-1.9472648974	 1.9393098165	-0.317374
C	-0.7885327304	-1.1537166201	 1.9994118882	-0.151777
C	-1.2032378212	-0.7518316554	 0.5746626378	-0.290276
H	 0.9169747531	 1.9063494856	-0.2703896813	 0.133582
H	-0.8440696663	 1.9238443803	-0.516706725	 0.119693
H	-0.1733299091	 1.7881536087	 1.117504981	 0.121991
H	 0.3819392218	-1.6067993999	-1.5805275108	 0.127454
H	 1.2778612914	-0.0393293609	-1.8888940172	 0.121522
H	 0.4835078774	-2.807803154	 2.4604240636	 0.251999
H	-1.5706491772	-1.7481385279	 2.4810270074	 0.112791
H	-0.6449261004	-0.2536386044	 2.6140055332	 0.11547
H	-2.0898763344	-0.1118117545	 0.5999892262	 0.109186
H	-1.4577795766	-1.6557361919	 0.0120992015	 0.113123
112.4259	157.9264	220.4958	229.4306	323.2899	366.9027	399.6472	446.311	477.2881	500.0999	551.5892	653.208	728.6444	743.8908	788.0717	887.5165	922.6583	940.0659	972.4434	979.9275	1015.9689	1074.3864	1097.5876	1123.2555	1132.819	1165.1874	1216.8667	1250.9308	1274.3036	1321.0026	1355.1323	1389.1174	1408.3532	1425.1381	1450.16	1481.0478	1489.4912	1495.6651	1514.2674	1518.4038	1806.6569	3001.4479	3031.8177	3049.9162	3078.4576	3093.7103	3100.5483	3104.5114	3125.4341	3192.0901	3644.4653
CC12CN1C(=O)NCC2	C[C@@]12CN1C(=O)NCC2	
InChI=1S/C6H10N2O/c1-6-2-3-7-5(9)8(6)4-6/h2-4H2,1H3,(H,7,9)	InChI=1S/C6H10N2O/c1-6-2-3-7-5(9)8(6)4-6/h2-4H2,1H3,(H,7,9)/t6-,8?/m1/s1
