20
gdb 113992	3.16616	0.80865	0.70632	2.448	82.55	-0.2242	0.058	0.2822	1621.4783	0.168618	-403.071403	-403.061254	-403.06031	-403.107231	36.581	
O	 0.0074848776	 1.4769929211	 0.2832365547	-0.403639
C	-0.0173287	 0.0610017086	 0.3904048921	-0.11621
C	-1.3850931882	-0.4904684645	 0.0377031074	 0.000275
C	-2.5712396582	 0.3973640187	-0.110919823	-0.252699
N	-2.0265411438	-0.3196034108	-1.2641291553	-0.087794
C	-1.3591124958	 0.4531583565	-2.3069865781	-0.14594
C	-2.3891041739	 0.8295873476	-3.3879882291	-0.346517
C	-1.7902405967	 1.5493513809	-4.5041479649	 0.297892
C	-1.2687665147	 2.1380747865	-5.4134428338	-0.450495
H	 0.9223904711	 1.7671350414	 0.3443683384	 0.291612
H	 0.7409109308	-0.3973200905	-0.2648191617	 0.098452
H	 0.2130405107	-0.2570608573	 1.4198971989	 0.097812
H	-1.5334683447	-1.4874101799	 0.4521576366	 0.091414
H	-3.5504938795	 0.0744488003	 0.2329552448	 0.109175
H	-2.3815136543	 1.4656207714	-0.0405829636	 0.132205
H	-0.8661372185	 1.3580832116	-1.9299914068	 0.120434
H	-0.5876966936	-0.1810437536	-2.7587098846	 0.10594
H	-2.8771046195	-0.0857671061	-3.7426670517	 0.136762
H	-3.1776272003	 1.4417819577	-2.9319848167	 0.130522
H	-0.8224805085	 2.6591381803	-6.2234405239	 0.190799
65.3838	75.0954	88.4941	127.3913	193.1893	228.9325	260.7602	278.3277	351.0003	411.6754	446.2007	510.7865	612.6819	624.9543	636.9874	752.9013	791.2922	812.1257	927.0261	960.1181	981.6925	1029.2662	1040.2402	1053.7441	1084.4873	1107.6531	1122.3151	1154.6418	1171.9169	1232.745	1242.2196	1278.1284	1297.2651	1318.2921	1338.2123	1393.8706	1417.6414	1457.3323	1474.665	1501.8238	1513.6093	1523.5757	2238.3606	2966.7067	2991.8721	3021.4214	3030.0415	3055.7061	3078.2729	3103.2036	3107.4675	3192.5199	3508.2741	3830.4393
OCC1CN1CCC#C	OC[C@H]1CN1CCC#C	
InChI=1S/C7H11NO/c1-2-3-4-8-5-7(8)6-9/h1,7,9H,3-6H2	InChI=1S/C7H11NO/c1-2-3-4-8-5-7(8)6-9/h1,7,9H,3-6H2/t7-,8?/m1/s1
