21
gdb 68578	4.07369	0.97586	0.91126	0.713	89.17	-0.2568	0.0566	0.3134	1369.3842	0.181288	-349.884587	-349.875573	-349.874629	-349.918167	35.289	
C	-0.0028415234	 1.4762510377	-0.0027031329	-0.50819
C	 0.0029004733	-0.0288402824	-0.0036312472	 0.332729
C	 0.6205737197	-0.9718489128	-1.083509964	-0.307169
C	 0.0116797012	-1.9164574317	-0.0075450611	 0.354626
C	 0.0251788204	-3.4346650108	-0.0219144024	-0.48426
C	-0.6360080892	-4.0184127888	 1.1406262163	 0.308481
C	-1.1865205946	-4.4713744353	 2.1084704684	-0.45892
C	 0.6332493051	-0.9761054234	 1.0650465545	-0.281744
C	-1.2328279209	-0.9825813018	 0.00339455	-0.281741
H	 1.0177492909	 1.874802523	-0.0095660644	 0.117092
H	-0.5218905811	 1.869470994	-0.8838740912	 0.117094
H	-0.5092220505	 1.8673601067	 0.8866408778	 0.118403
H	 0.1395041919	-0.9729881743	-2.0669213147	 0.08401
H	 1.7117250954	-0.9674734089	-1.1723849608	 0.084009
H	-0.4608908677	-3.7924007972	-0.9396079573	 0.12948
H	 1.0644106683	-3.7870324567	-0.0692993914	 0.129483
H	-1.6701238048	-4.8837872819	 2.9588087861	 0.193882
H	 1.7255096202	-0.9725535449	 1.1393526766	 0.082452
H	 0.1639653265	-0.986126998	 2.0525886725	 0.093907
H	-1.8418699604	-0.9931441391	 0.91142467	 0.093918
H	-1.85482374	-0.9849472234	-0.8975383049	 0.082456
68.582	96.2638	210.4073	218.1431	232.5853	344.1071	352.8992	358.3676	437.5341	545.7465	546.1664	616.8309	618.013	632.7336	686.1955	759.5496	791.8926	890.2014	927.2203	946.2533	962.7588	977.499	989.8363	991.9772	1080.1475	1083.6798	1103.3668	1132.5948	1145.1582	1148.744	1159.3652	1203.5428	1207.2063	1272.4714	1301.5273	1329.2299	1352.3599	1412.0113	1463.8122	1490.5181	1490.5849	1496.9738	1497.2143	1561.3392	2237.6885	3011.2062	3024.9732	3033.2602	3037.8264	3042.2929	3047.4457	3092.2666	3093.1542	3097.6315	3106.5591	3110.575	3507.5837
CC12CC(CC#C)(C1)C2	C[C@@]12C[C@@](CC#C)(C1)C2	
InChI=1S/C9H12/c1-3-4-9-5-8(2,6-9)7-9/h1H,4-7H2,2H3	InChI=1S/C9H12/c1-3-4-9-5-8(2,6-9)7-9/h1H,4-7H2,2H3/t8-,9+
