15
gdb 128907	6.80909	0.6988	0.66353	1.2686	71.41	-0.2739	-0.0263	0.2476	1576.0065	0.113558	-416.816654	-416.808637	-416.807693	-416.850799	28.088	
N	-0.0008852625	-1.2013142717	 0.0233288154	-0.297404
C	-0.0209127332	-0.046624448	 0.0602481291	 0.256593
C	-0.015683085	 1.4138187701	 0.1006502095	-0.328448
C	 1.4051054665	 2.0015874089	-0.0992836035	-0.337419
C	 1.4085479211	 3.4980000598	-0.046400199	 0.142789
C	 1.5134372152	 4.3924170958	-1.0664523864	-0.005918
O	 1.4598357459	 5.6505236449	-0.6100304147	-0.157639
N	 1.3128107697	 5.6224895206	 0.772328032	-0.123537
C	 1.283677202	 4.3533763471	 1.0899465993	-0.038947
H	-0.6888988627	 1.7930567768	-0.6755081154	 0.160581
H	-0.4287781208	 1.7406528524	 1.0611508541	 0.15924
H	 2.066496266	 1.5917490707	 0.6709176557	 0.140384
H	 1.7973323888	 1.6597463115	-1.0612101374	 0.135897
H	 1.6359478107	 4.2827753518	-2.1333600878	 0.157433
H	 1.1809677782	 4.0782127694	 2.131080729	 0.136398
52.299	61.8548	98.3405	190.6973	305.6499	369.4157	402.7929	505.0613	622.2544	665.9771	734.785	765.2085	850.924	902.145	909.7631	937.3203	955.5668	1004.4586	1014.8507	1035.8424	1154.8075	1178.8717	1212.6859	1278.6126	1299.562	1310.1833	1376.0811	1402.8088	1467.3932	1477.9961	1493.0395	1650.6939	2363.8657	3047.9754	3058.3467	3083.8443	3106.6503	3236.1612	3261.6188
N#CCCC1=CON=C1	N#CCCc1conc1	
InChI=1S/C6H6N2O/c7-3-1-2-6-4-8-9-5-6/h4-5H,1-2H2	InChI=1S/C6H6N2O/c7-3-1-2-6-4-8-9-5-6/h4-5H,1-2H2
