21
gdb 83342	2.10698	1.62164	1.48032	1.3038	77.76	-0.2366	0.0587	0.2953	1071.3289	0.18209	-424.205704	-424.196738	-424.195794	-424.238636	34.967	
C	-0.1796480288	 1.5713825357	 0.9293805837	-0.444275
C	-0.0791269882	 0.0946435501	 0.5833879239	-0.012325
C	 0.9426411877	-0.4024273073	-0.4757779467	 0.064992
O	 2.2032476514	 0.1143227232	 0.0108072309	-0.274634
C	 2.1362401386	-0.2193792796	 1.4116919629	-0.148683
C	 0.7540970204	-0.8960067674	 1.4539484132	 0.339434
O	 0.2415209562	-1.318816276	 2.6755054104	-0.485671
C	 0.8817417465	-1.8105854721	 0.1740594554	-0.03557
C	-0.2682429826	-2.7569881455	-0.1392897786	-0.434403
H	 0.7958466221	 2.0617309778	 0.8880501221	 0.13346
H	-0.8393486547	 2.0881475664	 0.2245558336	 0.113339
H	-0.5967467494	 1.7080389501	 1.932889481	 0.123929
H	-1.0688996343	-0.3255054733	 0.4018884863	 0.081223
H	 0.8564533155	-0.2147025103	-1.5444919624	 0.077324
H	 2.9545185918	-0.8998962203	 1.6841526805	 0.088237
H	 2.20165042	 0.6815516014	 2.0322107618	 0.102287
H	 0.9025936706	-1.8627903025	 3.1180852055	 0.282889
H	 1.8344491962	-2.3465970922	 0.0968446781	 0.067496
H	-1.2463293831	-2.2705613031	-0.1449123011	 0.124029
H	-0.1253234563	-3.2254132879	-1.1187744565	 0.117381
H	-0.3100150096	-3.5571350774	 0.6076548958	 0.119543
137.5747	164.8013	190.4742	210.0995	234.6884	261.2889	310.909	343.3181	383.6888	449.3646	515.8215	607.6289	629.5705	695.6337	746.3777	812.9996	827.7592	906.5841	941.8696	984.5872	1013.8099	1021.568	1043.5551	1063.8479	1088.1629	1124.2914	1149.2501	1152.3635	1178.7138	1185.0097	1228.5643	1239.2634	1264.44	1291.3422	1345.1301	1363.9599	1385.7589	1406.3092	1415.1891	1430.3562	1492.3463	1494.6446	1500.1818	1504.5319	1533.2207	3005.9366	3035.6441	3037.5197	3042.8836	3057.6134	3094.2816	3095.8216	3101.607	3120.3041	3128.6931	3140.1409	3796.8386
CC1C2OCC1(O)C2C	C[C@H]1[C@H]2OC[C@]1(O)[C@H]2C	
InChI=1S/C7H12O2/c1-4-6-5(2)7(4,8)3-9-6/h4-6,8H,3H2,1-2H3	InChI=1S/C7H12O2/c1-4-6-5(2)7(4,8)3-9-6/h4-6,8H,3H2,1-2H3/t4-,5-,6-,7-/m0/s1
