23
gdb 120190	3.5488	0.84069	0.76679	1.6262	86.55	-0.2508	0.0724	0.3232	1601.9294	0.205843	-388.239962	-388.230616	-388.229672	-388.274475	35.882	
C	-0.2322009024	 1.5545282251	 0.0174121834	-0.381036
C	 0.0162790314	 0.0440637702	 0.0017855397	-0.156436
C	 0.588837212	-0.4852781196	 1.3244141096	-0.239435
C	 0.7817580826	-1.9978278062	 1.3162805999	 0.048658
C	 1.9676476325	-2.6914701467	 0.5562617387	-0.107082
C	 2.9003227988	-2.2367056752	 1.7140842565	-0.230721
C	 1.6092935908	-2.7426302348	 2.4186057412	-0.125678
C	 1.6958961612	-3.9567894063	 1.4355234253	 0.193758
O	 0.6190904683	-4.8167858926	 1.2045717538	-0.450757
H	 0.695768921	 2.1064953956	 0.2040609784	 0.114193
H	-0.6399634066	 1.902949631	-0.9366316287	 0.111674
H	-0.9430105768	 1.8307622188	 0.8043540654	 0.113658
H	-0.9228541958	-0.4794410797	-0.2224195288	 0.09243
H	 0.7044905556	-0.2068707443	-0.8156243991	 0.099522
H	 1.5235956601	 0.0409926474	 1.5447486484	 0.097378
H	-0.1003477394	-0.2281768238	 2.1412979184	 0.0937
H	-0.1998685107	-2.4484201769	 1.1129521481	 0.032437
H	 2.1798271743	-2.6629624255	-0.5139987034	 0.068662
H	 3.8050338565	-2.831048478	 1.8713303189	 0.091592
H	 3.1204188464	-1.1732966759	 1.7867501587	 0.100195
H	 1.4073859495	-2.7689272156	 3.4911529134	 0.067712
H	 2.5630858224	-4.6050489948	 1.5842713128	 0.080723
H	-0.1805956119	-4.3003799022	 1.0636932995	 0.284853
69.7823	82.4315	115.8716	228.5526	243.1366	255.5547	298.1843	356.2095	390.3695	442.281	549.3017	637.4365	732.5281	758.1634	788.4378	845.0486	859.5196	883.6757	895.4526	906.1273	920.7921	1014.3767	1029.1511	1041.4278	1047.1045	1077.57	1109.6421	1118.2737	1122.5791	1141.9906	1174.3892	1185.3374	1197.6001	1235.9814	1245.8832	1266.407	1274.7756	1286.6134	1311.0225	1330.7151	1387.1905	1412.1541	1444.3362	1461.8473	1481.4334	1492.9169	1499.9315	1509.6231	1528.6581	2991.2933	3009.9576	3016.0382	3028.9455	3043.2936	3062.3141	3072.3229	3082.9696	3093.5049	3095.8535	3101.4027	3102.2053	3148.9007	3817.981
CCCC1C2CC1C2O	CCC[C@H]1[C@H]2C[C@@H]1[C@H]2O	
InChI=1S/C8H14O/c1-2-3-5-6-4-7(5)8(6)9/h5-9H,2-4H2,1H3	InChI=1S/C8H14O/c1-2-3-5-6-4-7(5)8(6)9/h5-9H,2-4H2,1H3/t5-,6+,7-,8-
