23
gdb 111754	2.32302	1.16673	0.93233	1.574	85.98	-0.2452	0.0704	0.3156	1390.3007	0.205615	-388.262031	-388.252288	-388.251343	-388.296849	36.761	
C	 0.0253761637	 1.3965020542	-0.2212694184	-0.370465
C	 0.0134217349	-0.0549936342	 0.273694343	-0.209854
C	-1.3617194518	-0.6879986267	 0.172249504	-0.043178
C	-1.9656081232	-1.2652980586	-1.0836660021	-0.130663
C	-0.9251270894	-2.0234847624	-1.9193382552	-0.228447
C	-0.614820241	-2.9316666014	-0.6873837406	-0.284453
C	-1.6720954259	-2.1678291634	 0.1288625209	 0.296891
C	-2.6243081103	-2.8108322894	 1.0919242305	-0.172068
O	-1.9949546704	-3.2165506515	 2.3037209898	-0.415304
H	 1.021125495	 1.8409332557	-0.1271594269	 0.110403
H	-0.2726920856	 1.4542196115	-1.2733368892	 0.120673
H	-0.6721037968	 2.0165973918	 0.3528768181	 0.112281
H	 0.7475673155	-0.6367470649	-0.2926876067	 0.102851
H	 0.3481162469	-0.0877491391	 1.3192183707	 0.089912
H	-2.1120744567	-0.1464753652	 0.7508102676	 0.076548
H	-2.9283005279	-0.9275747283	-1.4515297045	 0.081072
H	-1.3762410185	-2.5848422344	-2.7402707808	 0.103232
H	-0.0991697621	-1.4307355857	-2.3256177365	 0.096641
H	-0.9044097574	-3.9715526091	-0.8574183034	 0.103887
H	 0.4082469653	-2.9226931069	-0.3000916488	 0.09663
H	-3.4684623254	-2.1283007336	 1.2871669861	 0.080116
H	-3.0426670725	-3.7301721661	 0.66561105	 0.104041
H	-1.5554763564	-2.4407361725	 2.6675432726	 0.279252
62.8404	91.4328	127.0189	183.4985	211.5198	272.8836	284.3778	298.3145	333.2326	413.5919	464.8903	523.7526	682.7908	737.7702	772.1543	794.3158	825.088	905.9191	923.5795	934.677	954.986	958.8018	1005.1206	1026.0352	1052.4904	1066.6915	1087.751	1116.2569	1131.8985	1147.8473	1200.9757	1220.2375	1239.544	1251.7557	1263.8962	1290.7166	1317.1968	1332.4338	1360.9136	1373.6696	1410.1088	1422.3548	1469.3355	1477.209	1491.4225	1498.4679	1500.7842	1507.5793	1512.0182	2962.7864	3018.348	3031.0611	3046.8255	3054.1183	3056.4307	3067.2568	3093.3395	3094.481	3102.2274	3104.9833	3112.6941	3168.4418	3809.3686
CCC1C2CCC12CO	CC[C@H]1[C@H]2CC[C@@]12CO	
InChI=1S/C8H14O/c1-2-6-7-3-4-8(6,7)5-9/h6-7,9H,2-5H2,1H3	InChI=1S/C8H14O/c1-2-6-7-3-4-8(6,7)5-9/h6-7,9H,2-5H2,1H3/t6-,7+,8+/m0/s1
