18
gdb 88134	2.69471	1.42991	1.07968	2.3506	72.48	-0.2221	-0.0386	0.1835	1149.4843	0.147392	-439.081004	-439.072472	-439.071528	-439.114412	31.686	
C	-0.0246224392	 1.4726234037	-0.2554512571	-0.424723
C	 0.0701557167	-0.0068049926	 0.0139038553	 0.011672
O	 1.3778946648	-0.5784395593	 0.1069441246	-0.285138
C	 0.5587962573	-0.5532684732	 1.2884940999	 0.284979
C	 1.0328574723	 0.1969255651	 2.5229729189	-0.280656
N	 1.331571748	-0.8362589362	 3.542516163	-0.301959
C	 0.3878964998	-1.9356288163	 3.2907364766	-0.292932
C	 0.0842131026	-1.9115875763	 1.7878731547	 0.337674
O	-0.4158347153	-2.7758750325	 1.1172347199	-0.305991
H	 0.6980695654	 2.0352825002	 0.3402053099	 0.128672
H	 0.1694619785	 1.6772515401	-1.3132271789	 0.137001
H	-1.0310466102	 1.8369901014	-0.0237780128	 0.128775
H	-0.6311190676	-0.6386509147	-0.533699932	 0.111133
H	 1.9126052282	 0.810620989	 2.3241233147	 0.127969
H	 0.2379479065	 0.8514606368	 2.9049461536	 0.116557
H	 2.2723368924	-1.180317794	 3.3759499403	 0.231066
H	 0.7800351347	-2.9037875103	 3.6087313726	 0.139883
H	-0.5495946451	-1.7645679112	 3.8405126568	 0.136019
68.4215	153.7176	163.1415	185.2942	196.4364	300.6975	355.9092	440.4628	499.6855	557.1077	567.2177	661.5635	714.0891	777.1034	821.2177	885.051	919.2073	960.523	988.7854	1004.2576	1029.5514	1083.5977	1091.3198	1133.3892	1168.9267	1194.4748	1216.4997	1283.2687	1305.8626	1326.5359	1364.6624	1408.8107	1457.8769	1463.7868	1466.7584	1483.1737	1488.1477	1505.6161	1851.6494	3005.5025	3019.3321	3040.6639	3101.9876	3104.9199	3115.1195	3121.4905	3131.7725	3512.8589
CC1OC11CNCC1=O	C[C@H]1O[C@]21CNCC2=O	
InChI=1S/C6H9NO2/c1-4-6(9-4)3-7-2-5(6)8/h4,7H,2-3H2,1H3	InChI=1S/C6H9NO2/c1-4-6(9-4)3-7-2-5(6)8/h4,7H,2-3H2,1H3/t4-,6+/m1/s1
