19
gdb 26224	3.85989	1.00713	0.8483	2.2896	78.06	-0.1961	0.0504	0.2465	1378.4809	0.159961	-419.262035	-419.252931	-419.251987	-419.296011	34.223	
C	 0.045857456	 1.5965274827	 0.1723925467	-0.385478
C	-0.0390802277	 0.0756086035	-0.0107326779	-0.099948
C	 0.7672258893	-0.6533749194	 1.0837683412	-0.377956
C	-1.4663565637	-0.3818245923	-0.0498284318	 0.325775
C	-2.6630685703	 0.2401322721	 0.1702552502	-0.189517
N	-3.7312485113	-0.6360537637	 0.0168604697	-0.368761
C	-3.1717782547	-1.770782161	-0.293740631	 0.437554
O	-3.7905863115	-2.9380639934	-0.5477807967	-0.427348
N	-1.8179009806	-1.7016937984	-0.3525125743	-0.375109
H	 1.0892429385	 1.9248909482	 0.1589120288	 0.110886
H	-0.4898994405	 2.1233192008	-0.6221122137	 0.123008
H	-0.3876995002	 1.8981846438	 1.1318269625	 0.123332
H	 0.4266607926	-0.1688238496	-0.9782266317	 0.079682
H	 1.8179549298	-0.3460029184	 1.0599007052	 0.112925
H	 0.3635179813	-0.4230639688	 2.0750944204	 0.124859
H	 0.7357792291	-1.740613337	 0.9579444796	 0.102076
H	-2.8321670623	 1.2730622091	 0.4302786984	 0.104778
H	-4.7354670843	-2.7635018213	-0.4535754887	 0.312973
H	-1.1993041598	-2.4600397069	-0.583808287	 0.266271
48.0716	128.977	175.5298	230.9731	258.5094	287.5338	318.4905	385.4442	409.1085	448.1517	463.4673	497.5151	611.8722	678.8886	729.0926	736.0158	832.7089	881.4132	929.2144	966.6935	998.2284	1043.0529	1104.5203	1118.6879	1152.8062	1161.5935	1209.5697	1227.4313	1294.2686	1341.0227	1346.3764	1391.7504	1398.4786	1419.1075	1485.59	1491.32	1500.8396	1511.4781	1558.3508	1599.115	1640.9391	2975.3037	3029.3404	3037.8286	3097.3106	3103.36	3108.4557	3115.4304	3258.1504	3672.7628	3804.4181
CC(C)C1=CN=C(O)N1	CC(C)c1cnc(O)[nH]1	
InChI=1S/C6H10N2O/c1-4(2)5-3-7-6(9)8-5/h3-4H,1-2H3,(H2,7,8,9)	InChI=1S/C6H10N2O/c1-4(2)5-3-7-6(9)8-5/h3-4H,1-2H3,(H2,7,8,9)
