18
gdb 30787	1.91467	1.19949	0.74375	3.2915	82.09	-0.245	-0.068	0.1771	1521.7564	0.143381	-439.135942	-439.124796	-439.123852	-439.173375	37.938	
C	-1.4805673412	 1.4729092032	 0.4230583205	-0.507305
C	-0.4871271417	 0.3618000945	 0.3421790364	 0.277179
C	 0.1127950767	-0.1057431578	-0.9109226315	 0.3418
C	-0.0750364295	 0.3177870622	-2.1605025034	-0.432173
N	 2.0871023193	-1.895641115	-3.547088802	-0.72207
H	 1.8640936591	-2.8058450744	-3.9411261367	 0.235802
H	 3.0693475087	-1.7358548704	-3.754796202	 0.23582
H	 2.0251918652	-2.0016370619	-2.5366419821	 0.262123
O	 0.9814148052	-1.1387916034	-0.6173512467	-0.250875
C	 0.970789833	-1.3594736722	 0.7606680815	 0.420772
O	 1.6466737347	-2.2096079035	 1.2639378753	-0.337819
C	 0.0274422489	-0.388264019	 1.3339078181	-0.393382
H	-1.0600416941	 2.4023742686	 0.023971224	 0.149564
H	-2.3719414723	 1.2436663644	-0.1710125225	 0.149575
H	-1.7904344834	 1.6501232354	 1.4547911571	 0.140155
H	 0.4547257486	-0.1423211133	-2.9886887893	 0.177554
H	-0.7640662526	 1.1302877658	-2.3520801206	 0.118799
H	-0.1763829546	-0.3364232733	 2.3929351539	 0.134482
39.538	69.0614	113.2972	125.1995	130.7788	159.3596	181.7429	194.9466	270.2439	306.6349	357.3463	380.8039	556.3026	591.6918	657.1309	679.1359	738.585	771.8482	798.9616	867.478	905.2458	953.3955	993.8821	1012.1348	1061.7613	1088.7003	1118.4533	1186.7245	1275.8496	1360.8749	1413.4775	1441.1442	1478.1243	1487.8559	1663.6366	1676.8059	1694.3692	1714.2463	1875.7158	3039.1513	3093.5567	3132.6631	3149.5934	3251.7922	3258.111	3460.6695	3577.4864	3581.4656
CC1=C(C[NH3+])OC([O-])=C1	CC1=CC(=O)OC1=C.N	
InChI=1S/C6H9NO2/c1-4-2-6(8)9-5(4)3-7/h2,8H,3,7H2,1H3	InChI=1S/C6H6O2.H3N/c1-4-3-6(7)8-5(4)2;/h3H,2H2,1H3;1H3
