21
gdb 71231	2.68903	1.82194	1.67411	1.224	81.19	-0.2347	0.0871	0.3218	954.9319	0.184858	-387.071193	-387.064042	-387.063097	-387.102043	30.645	
C	-0.1124683028	 1.5072063264	 0.0060593538	-0.466477
C	 0.0545883191	 0.0058998878	 0.0039301152	 0.417047
C	 1.0980491948	-0.6691843386	-0.9389102231	-0.284037
C	 1.2924641851	-1.7106130388	 0.1765691915	-0.038834
C	-0.0256146982	-2.5116471531	 0.534634406	-0.052719
C	-0.0792272649	-1.7735328095	 1.9041598262	-0.235031
C	 0.7784891814	-0.6901690905	 1.2376977145	-0.060531
C	-1.1749559346	-1.9884031434	-0.3205344972	-0.088723
O	-1.2372209224	-0.5665762182	-0.2011165837	-0.305133
H	 0.8454444502	 2.0015152905	 0.191960912	 0.110497
H	-0.5027823714	 1.8515497656	-0.9567939119	 0.12198
H	-0.8177318722	 1.8087542176	 0.7870379303	 0.124009
H	 0.7569016257	-0.974233515	-1.9329867916	 0.095463
H	 1.9928584366	-0.0480001355	-1.0456639036	 0.095547
H	 2.225768352	-2.266596932	 0.2751650621	 0.060313
H	 0.023024062	-3.6026565117	 0.5245656249	 0.064539
H	-1.0665973593	-1.4997253229	 2.2880002154	 0.099314
H	 0.4833176809	-2.2985451097	 2.6813970112	 0.094308
H	 1.4340332619	-0.0359387818	 1.8160771046	 0.055436
H	-1.0519031345	-2.2838538259	-1.3733974641	 0.090348
H	-2.1398442293	-2.3759892114	 0.0253280077	 0.102688
209.4628	238.0812	295.6637	301.9754	386.7015	411.9662	447.191	513.5955	608.863	629.1223	709.7631	777.2468	827.6022	831.37	869.0809	882.3649	897.6435	961.1554	970.6459	979.02	995.0497	1026.0211	1046.3743	1054.8117	1096.6312	1115.7593	1130.9532	1165.0502	1202.1534	1211.7078	1221.3706	1224.7761	1255.4224	1271.5193	1280.0486	1295.6671	1329.1489	1343.0735	1395.6115	1410.7394	1480.4498	1482.3825	1483.1282	1492.9914	1519.0861	2987.283	3036.6602	3045.0126	3046.8771	3058.0563	3082.2701	3085.2333	3095.4495	3100.0735	3103.4798	3108.6887	3115.904
CC12CC3C(CC13)CO2	C[C@@]12C[C@@H]3[C@@H](C[C@H]13)CO2	
InChI=1S/C8H12O/c1-8-3-6-5(4-9-8)2-7(6)8/h5-7H,2-4H2,1H3	InChI=1S/C8H12O/c1-8-3-6-5(4-9-8)2-7(6)8/h5-7H,2-4H2,1H3/t5-,6+,7-,8+/m0/s1
