13
gdb 20324	6.04094	1.29705	1.13409	2.5771	64.22	-0.2669	-0.0137	0.2532	993.0118	0.095161	-361.421908	-361.414905	-361.413961	-361.45398	25.404	
C	-0.2135934661	-1.0141305229	-0.7288118206	-0.448873
C	-0.0576952802	 0.0292552678	-0.154609139	 0.300807
C	 0.1318112866	 1.3058023037	 0.5273209299	-0.455258
C	 1.4625234909	 1.9469850745	 0.2288201761	 0.392921
N	 2.1638701899	 2.4658991208	 1.2081943148	-0.19699
O	 3.3026758536	 3.0011645578	 0.6149282007	-0.162531
C	 3.246014849	 2.7793868105	-0.706147644	 0.086205
C	 2.1094797973	 2.1155674755	-1.0296532557	-0.32117
H	-0.3528263568	-1.9424111275	-1.2253136762	 0.20265
H	-0.671548667	 1.9948382477	 0.2332063015	 0.153444
H	 0.0486950074	 1.1798752462	 1.6119574331	 0.163552
H	 4.0829305011	 3.1465341133	-1.279877086	 0.153516
H	 1.7773056743	 1.7817561226	-1.9978096547	 0.131729
41.1756	111.7801	278.4862	316.6749	332.8822	458.1338	614.5663	624.6569	646.3893	662.4411	753.7043	802.1967	874.3074	910.241	934.1542	945.1931	969.2155	1013.2575	1079.3223	1157.6313	1216.3867	1290.9381	1330.9222	1448.1138	1459.7202	1483.1238	1610.2304	2245.1573	3020.5791	3077.0763	3263.9206	3292.4867	3505.9478
C#CCC1=NOC=C1	C#CCc1nocc1	
InChI=1S/C6H5NO/c1-2-3-6-4-5-8-7-6/h1,4-5H,3H2	InChI=1S/C6H5NO/c1-2-3-6-4-5-8-7-6/h1,4-5H,3H2
