15
gdb 125501	2.57443	1.47339	0.94381	4.3138	71.93	-0.2441	-0.045	0.1992	1181.7405	0.113269	-450.177646	-450.169229	-450.168285	-450.21079	30.257	
C	-0.0289701566	 1.4480587208	 0.0020988356	-0.482174
C	 0.0009059181	-0.0404095252	 0.0058749877	 0.370548
N	 0.0400087414	-0.7474116043	-1.0969034577	-0.27678
N	 0.0465342912	-2.0471703569	-0.6196373092	-0.083429
C	-0.0036735352	-3.1625519681	-1.4551567692	 0.18287
O	 0.0159144645	-3.1293580275	-2.6519302887	-0.257992
C	 0.0297884334	-2.0080388666	 0.7629510805	 0.439667
N	-0.0207160224	-3.122644926	 1.5613766685	-0.598627
N	-0.0007822112	-0.770312105	 1.1817301344	-0.367813
H	 0.8274176009	 1.8486513699	 0.5535528047	 0.143057
H	-0.0065929359	 1.8226412733	-1.021868004	 0.148989
H	-0.9330696464	 1.8116745932	 0.5007236926	 0.144309
H	-0.0741743061	-4.0949262859	-0.8649225336	 0.091636
H	 0.5447393862	-3.9111923963	 1.2845438359	 0.267799
H	 0.089605008	-2.8875147555	 2.5380426524	 0.277939
109.0485	135.2166	182.4419	203.8867	211.1963	291.0106	307.8802	406.3186	418.1221	570.1556	604.1132	650.4268	691.6768	712.1796	758.0049	893.186	996.9385	1016.7785	1048.06	1068.5424	1114.6622	1151.7543	1332.9707	1352.7157	1411.4035	1443.2936	1466.8147	1475.2628	1476.2163	1584.8868	1609.4692	1667.6235	1844.3472	2963.7728	3048.2039	3104.6138	3153.2324	3570.8895	3671.8735
CC1=NN(C=O)C(N)=N1	Cc1nn(C=O)c(N)n1	
InChI=1S/C4H6N4O/c1-3-6-4(5)8(2-9)7-3/h2H,1H3,(H2,5,6,7)	InChI=1S/C4H6N4O/c1-3-6-4(5)8(2-9)7-3/h2H,1H3,(H2,5,6,7)
