21
gdb 103462	2.54129	1.35965	1.1058	1.0235	78.66	-0.2441	0.0596	0.3036	1195.5939	0.18106	-424.193085	-424.183349	-424.182405	-424.227325	36.65	
C	-0.0785395249	 1.5859217458	 0.092750974	-0.502465
C	 0.0161940772	 0.0846455361	 0.0569824943	 0.286492
C	-1.2179834654	-0.8273742716	-0.0638790107	-0.272888
C	-0.5794209502	-1.8344626684	 0.9408586247	-0.237838
C	 0.6628489016	-0.9439667176	 1.0303447558	-0.181902
C	 1.2382132349	-0.6884644176	-0.3347787605	 0.331283
O	 1.1488431825	-1.656650095	-1.363222996	-0.480507
C	 2.5668652901	 0.0483178879	-0.4077227433	-0.127689
O	 3.6520146805	-0.8607786275	-0.4931860129	-0.425069
H	 0.8700126357	 2.0623794556	 0.3555295601	 0.122379
H	-0.3851576543	 1.9796923662	-0.8843820413	 0.124527
H	-0.8257315313	 1.9115534401	 0.8253174108	 0.117809
H	-2.1182083442	-0.3551486545	 0.3369722629	 0.097563
H	-1.4262917298	-1.2047230884	-1.0674366519	 0.107916
H	-1.1272929519	-1.8833385587	 1.8841183559	 0.103601
H	-0.4215503271	-2.8564306769	 0.5809608896	 0.086625
H	 1.25833092	-0.7760994866	 1.9221927612	 0.084182
H	 1.4716390273	-2.4887669296	-1.0013025075	 0.286668
H	 2.562567252	 0.7335636485	-1.270084253	 0.091571
H	 2.7312685741	 0.646043404	 0.4930250391	 0.109708
H	 3.5126398632	-1.3522102716	-1.3105750212	 0.278033
82.1061	122.2223	165.5537	175.0822	196.7757	224.1561	277.562	305.5607	361.0589	396.5858	497.08	517.6734	540.6109	644.8853	712.252	784.9291	790.5161	877.0954	928.4799	945.8969	957.3375	986.9963	994.339	1013.5785	1067.3938	1100.7719	1111.8544	1153.9675	1180.1199	1210.8707	1234.1611	1241.4399	1262.3632	1276.9461	1301.4717	1329.417	1386.533	1415.1707	1420.6385	1446.782	1473.7436	1487.8492	1496.3957	1500.669	1505.6731	2979.5513	3022.5064	3044.9776	3064.0351	3077.3938	3089.3603	3099.9724	3107.5474	3120.7752	3159.7546	3800.4685	3807.2652
CC12CCC1C2(O)CO	C[C@]12CC[C@H]1[C@]2(O)CO	
InChI=1S/C7H12O2/c1-6-3-2-5(6)7(6,9)4-8/h5,8-9H,2-4H2,1H3	InChI=1S/C7H12O2/c1-6-3-2-5(6)7(6,9)4-8/h5,8-9H,2-4H2,1H3/t5-,6+,7-/m1/s1
