18
gdb 38548	3.07564	2.24887	1.86405	2.0299	78.78	-0.214	-0.006	0.208	811.7193	0.15201	-364.763227	-364.757497	-364.756553	-364.792825	25.498	
C	-0.1588006179	 1.417063912	 0.0365820026	-0.293496
C	 1.419150186	 1.3343606928	 0.0528729496	-0.024468
C	 2.0321647207	 0.559160117	 1.2575894754	-0.252474
C	 2.3818532767	-0.8521064292	 0.7480559039	-0.026609
C	 1.3094665263	-1.7703030273	 0.2137407473	-0.070206
C	-0.0424482754	-1.153924925	 0.276279585	-0.157642
C	-0.0269800231	-0.0186820766	-0.4353879244	 0.116667
C	 1.3494670797	 0.203442283	-1.0349815188	-0.02739
N	 2.1853557884	-0.9576542745	-0.7043601971	-0.128458
H	-0.6787695667	 1.6029169708	 0.9783700755	 0.106322
H	-0.4962969588	 2.1267539412	-0.7248558465	 0.109115
H	 1.9464131959	 2.2608965342	-0.1910110381	 0.076553
H	 2.9496607494	 1.0493202601	 1.5945234036	 0.108869
H	 1.3516787535	 0.5300232246	 2.1140651606	 0.110802
H	 3.2952732819	-1.3075660897	 1.1224508198	 0.089489
H	 1.4799405975	-2.8433145218	 0.2191669866	 0.088707
H	-0.7642124314	-1.4177676169	 1.0408141839	 0.097745
H	 1.4250857573	 0.5146175154	-2.0777550691	 0.076475
257.7054	368.3432	377.9006	498.009	586.7306	656.2187	704.826	705.2513	738.7093	796.0374	811.3882	837.3542	845.0153	872.0318	897.9333	929.5215	930.783	971.6871	996.4931	1036.0825	1037.9702	1071.8027	1094.1736	1102.2602	1114.5518	1130.5387	1193.4007	1216.9298	1226.174	1233.9638	1267.4356	1289.4105	1307.3408	1316.0574	1341.751	1370.3931	1479.5561	1492.6198	1657.9844	3051.5331	3054.9907	3065.5077	3095.674	3099.2461	3117.4008	3134.4542	3148.138	3195.5646
C1C2CC3C4C=C1C2N34	C1[C@H]2C[C@H]3[C@H]4[CH][C]1[C@@H]2N34	
InChI=1S/C8H9N/c1-4-2-6-7-3-5(1)8(4)9(6)7/h2,5-8H,1,3H2	InChI=1S/C8H9N/c1-4-2-6-7-3-5(1)8(4)9(6)7/h2,5-8H,1,3H2/t5-,6+,7-,8-,9?/m0/s1
