20
gdb 119238	1.94529	1.41147	1.00861	2.5732	76.47	-0.2517	-0.0341	0.2176	1264.1209	0.168604	-440.259859	-440.24973	-440.248785	-440.29523	35.837	
C	-0.9116880982	 1.036561394	-0.4227599344	-0.238303
O	-0.0658110881	 0.2634366702	 0.4025888706	-0.226104
C	-0.7098637884	-0.8112956811	 1.0595767622	-0.167506
C	-0.9441583755	-2.0074778673	 0.1485831614	 0.176687
N	-1.7908335786	-3.0889676566	 0.6819373714	-0.36807
C	-2.277130923	-2.3624804961	-0.4799548305	-0.007806
C	-3.5334548978	-1.5430150089	-0.3247464383	-0.40849
C	 0.2420170777	-2.4593495238	-0.6439633294	 0.094555
O	 0.333542467	-3.5720976977	-1.1132698784	-0.279686
H	-0.309929517	 1.8609128708	-0.8125971243	 0.13249
H	-1.3120440177	 0.462017729	-1.2698980466	 0.111814
H	-1.7577188471	 1.4518459154	 0.1454950849	 0.109728
H	-0.0366117661	-1.1105596363	 1.8703828308	 0.120347
H	-1.6536661441	-0.4912681875	 1.5209972812	 0.104261
H	-1.3746467731	-3.9713123818	 0.3803893776	 0.24744
H	-2.1780276886	-2.8711300042	-1.4383426086	 0.106109
H	-3.596056295	-1.0809542385	 0.6625971113	 0.131408
H	-3.5937773522	-0.7607085522	-1.0880839864	 0.12117
H	-4.408243232	-2.1920249985	-0.4401399669	 0.132633
H	 1.0429753878	-1.7066087189	-0.7720244975	 0.107323
64.656	92.2397	134.0339	163.8919	177.6101	218.6078	233.0186	242.214	297.0131	382.1047	407.5999	458.3423	486.9526	684.6952	741.0646	785.2295	874.2345	941.6721	988.2123	995.4475	1033.5383	1060.009	1092.0244	1135.0264	1139.1454	1144.9241	1179.8899	1214.5881	1257.2972	1272.6424	1318.7905	1339.0601	1396.521	1404.2807	1424.1204	1454.3717	1475.5246	1480.7987	1486.3947	1494.2184	1501.6073	1510.4006	1791.9195	2959.3996	2983.6139	3017.0817	3036.0065	3041.062	3072.0033	3101.7033	3114.4001	3117.548	3135.8124	3454.2261
COCC1(NC1C)C=O	COC[C@]1(N[C@H]1C)C=O	
InChI=1S/C6H11NO2/c1-5-6(3-8,7-5)4-9-2/h3,5,7H,4H2,1-2H3	InChI=1S/C6H11NO2/c1-5-6(3-8,7-5)4-9-2/h3,5,7H,4H2,1-2H3/t5-,6+/m0/s1
