20
gdb 52812	2.845	1.07567	0.91315	1.4026	88.72	-0.2239	0.0593	0.2832	1385.1588	0.169545	-365.944793	-365.935207	-365.934263	-365.980667	35.144	
C	-0.0317727964	 1.4995470978	-0.0511737902	-0.49997
C	-0.012563097	 0.0438955605	-0.0252840254	 0.05266
C	-0.010244607	-1.1603339246	 0.0075989457	 0.07365
C	 0.0124294482	-2.61487146	 0.021951586	 0.137598
C	 0.938139512	-3.1693663942	-1.0699457953	-0.449326
C	 0.2792368969	-3.3167913025	 1.4233723224	-0.270062
C	-1.0695318683	-4.0251017803	 1.283785279	-0.041124
N	-2.088127684	-2.9470971174	 1.2310671801	-0.327746
C	-1.3619398491	-3.330645905	 0.0034082062	-0.085562
H	 0.9829812566	 1.9134078658	-0.0595789571	 0.142983
H	-0.5475559343	 1.8758994813	-0.9419410638	 0.14375
H	-0.548078728	 1.9064928501	 0.8254726244	 0.147811
H	 1.9677698928	-2.8391470368	-0.9047247579	 0.124472
H	 0.9201613748	-4.2644944958	-1.0702270405	 0.109709
H	 0.6243368283	-2.8194108958	-2.0583298587	 0.121197
H	 1.1440552848	-3.982400451	 1.381049628	 0.101937
H	 0.3601328937	-2.647214012	 2.2810483606	 0.112653
H	-1.3341259784	-5.0229931051	 1.6104426457	 0.091379
H	-3.0024950201	-3.3969356599	 1.1852224997	 0.226792
H	-1.8909389153	-3.6643242852	-0.882092819	 0.0872
16.0031	81.8256	106.794	183.1454	250.2154	268.7568	288.6904	329.9672	393.6831	443.4197	491.0448	538.9933	587.4986	757.7963	811.1187	833.1886	864.8147	885.9153	926.7329	955.3219	976.4117	1008.0994	1052.9483	1053.4094	1061.3872	1086.2655	1092.1586	1144.2267	1156.5728	1183.7387	1224.2756	1270.3931	1317.8234	1319.6111	1376.8646	1406.58	1414.1285	1470.9617	1478.6431	1479.5925	1489.6318	1496.6146	2366.5864	3023.5865	3031.365	3071.5021	3082.0276	3084.3057	3102.9916	3112.5382	3134.8494	3174.3738	3193.5719	3468.6165
CC#CC1(C)CC2NC12	CC#C[C@@]1(C)C[C@H]2N[C@@H]12	
InChI=1S/C8H11N/c1-3-4-8(2)5-6-7(8)9-6/h6-7,9H,5H2,1-2H3	InChI=1S/C8H11N/c1-3-4-8(2)5-6-7(8)9-6/h6-7,9H,5H2,1-2H3/t6-,7-,8+/m1/s1
