23
gdb 102592	2.28741	1.11827	0.80376	1.0912	81.99	-0.2458	0.0689	0.3148	1487.3168	0.204142	-425.394336	-425.383914	-425.38297	-425.430387	37.043	
C	 0.7358048349	 1.0786464412	-0.2519591992	-0.388024
C	 0.1869437707	-0.3290329744	-0.0085778436	-0.180338
C	-1.3406781856	-0.3705139183	 0.1000867008	 0.09619
O	-1.8400299815	 0.0814742207	-1.1522594985	-0.245207
C	-3.1938937127	 0.468937299	-1.1711574748	-0.23819
C	-1.8432405851	-1.7720222466	 0.4471075762	-0.023948
C	-1.4020270482	-2.3910569989	 1.7938498365	-0.091315
O	-2.7611152664	-2.7182824943	 2.1430828314	-0.274399
C	-3.2677295477	-1.973121337	 1.0191917975	-0.105453
H	 1.8249078918	 1.0635782996	-0.3553436834	 0.109997
H	 0.3086356967	 1.5037975739	-1.1630202103	 0.133877
H	 0.4894438171	 1.747580063	 0.5804629339	 0.109417
H	 0.4862795025	-0.994835787	-0.8275343731	 0.104668
H	 0.6167029357	-0.7443569774	 0.9104329591	 0.099134
H	-1.6654425484	 0.3287832345	 0.8931994594	 0.059927
H	-3.4250985558	 1.1852571227	-0.367516746	 0.104843
H	-3.3744541145	 0.9541747477	-2.1341636991	 0.126407
H	-3.8831554989	-0.3834847174	-1.08248568	 0.112605
H	-1.642274958	-2.4351414941	-0.3988278512	 0.088853
H	-0.7592263999	-3.2771867481	 1.7494652857	 0.106494
H	-0.9641140867	-1.6711116313	 2.5009956802	 0.095063
H	-3.7641490806	-1.0466764143	 1.3409724917	 0.094335
H	-3.9690375194	-2.5613468931	 0.4161499668	 0.105063
74.5645	87.2023	100.1599	117.8315	151.7935	206.3657	215.9151	263.3719	282.6671	348.9443	398.2856	456.2878	516.2974	748.5203	782.1936	877.81	892.7013	916.0664	941.3326	993.7465	1014.6501	1037.6005	1047.0065	1092.7373	1110.8672	1134.3605	1155.1336	1166.7101	1174.0361	1179.7656	1194.1565	1229.4742	1266.3732	1283.2392	1313.2666	1315.4849	1343.9978	1379.2426	1392.1661	1405.6419	1406.9638	1473.6969	1479.4913	1493.3385	1496.6494	1508.1279	1510.0922	1510.9942	1536.3639	2930.2688	2977.3626	2988.4112	3002.9341	3027.4752	3030.2192	3036.7835	3050.9784	3055.6998	3068.0359	3080.328	3101.1433	3105.1642	3129.3655
CCC(OC)C1COC1	CC[C@@H](OC)C1COC1	
InChI=1S/C7H14O2/c1-3-7(8-2)6-4-9-5-6/h6-7H,3-5H2,1-2H3	InChI=1S/C7H14O2/c1-3-7(8-2)6-4-9-5-6/h6-7H,3-5H2,1-2H3/t7-/m1/s1
