23
gdb 95513	2.10329	1.69296	1.21591	1.0161	87.36	-0.2414	0.0249	0.2662	1163.0583	0.205088	-388.30867	-388.299186	-388.298242	-388.341992	37.317	
C	-0.103785335	 1.5186456216	-0.124575036	-0.41632
C	 0.0303544368	 0.0072700367	 0.010464121	 0.106348
O	 0.7023030676	-0.4389665609	-1.1656488255	-0.266481
C	 0.6399081756	-1.8382064759	-1.3450671183	-0.126076
C	 0.9300626712	-2.5980146612	-0.0827266106	-0.101466
C	 1.00856449	-1.9861558451	 1.0948735127	-0.067107
C	 0.7751638992	-0.497997423	 1.2772852118	 0.233826
C	 2.1357784868	 0.2069348377	 1.4578603092	-0.417709
C	-0.0962931295	-0.2857814836	 2.52994269	-0.431093
H	 0.8765305592	 1.9897931488	-0.232123397	 0.127847
H	-0.689179903	 1.7546920992	-1.0171182923	 0.121103
H	-0.6083125039	 1.9533729893	 0.7422836694	 0.114664
H	-0.9801860706	-0.4372028142	 0.0318100374	 0.059899
H	-0.3483187738	-2.134986349	-1.7453353399	 0.09392
H	 1.3770674346	-2.0816836391	-2.1201433552	 0.113834
H	 1.0724474392	-3.6717420091	-0.1748185536	 0.089152
H	 1.2453345314	-2.5520899922	 1.9941914712	 0.081496
H	 2.7111477216	 0.1652564739	 0.5293778308	 0.127944
H	 2.0102462469	 1.2558397588	 1.7458124347	 0.108617
H	 2.721336669	-0.2837568757	 2.2424967467	 0.106183
H	 0.3952943117	-0.7087746361	 3.4128782935	 0.11219
H	-0.2665349693	 0.7770769288	 2.7274139546	 0.114235
H	-1.0708344058	-0.7748974896	 2.4261794751	 0.114992
98.804	190.8666	209.5628	218.2585	261.2993	276.1146	292.97	295.3434	334.8607	393.4033	474.877	481.613	516.6819	554.3044	702.0918	737.1999	801.9546	856.5935	906.9509	938.2772	941.6913	951.4452	997.6181	1011.0225	1036.9234	1051.2681	1100.4233	1122.3577	1152.8224	1184.3996	1199.4866	1228.1171	1264.4427	1280.8496	1369.9038	1372.9915	1391.1898	1399.3149	1405.7579	1410.409	1426.5058	1482.9508	1484.4439	1486.1176	1489.3403	1504.0342	1506.0428	1512.1206	1725.3774	2924.4218	2945.589	3027.3864	3033.3528	3043.741	3051.5454	3093.0024	3096.0502	3103.648	3120.0224	3123.2036	3128.9024	3134.2951	3166.6965
CC1OCC=CC1(C)C	C[C@H]1OCC=CC1(C)C	
InChI=1S/C8H14O/c1-7-8(2,3)5-4-6-9-7/h4-5,7H,6H2,1-3H3	InChI=1S/C8H14O/c1-7-8(2,3)5-4-6-9-7/h4-5,7H,6H2,1-3H3/t7-/m1/s1
