17
gdb 30223	3.52728	1.29498	0.99894	2.3752	78.24	-0.1793	0.0412	0.2204	1160.2121	0.137679	-417.996278	-417.988048	-417.987104	-418.029295	31.081	
N	-0.069019995	 1.4736492526	-0.1353337869	-0.600614
C	-0.0743416675	 0.069430668	-0.1464512353	 0.231165
C	-1.0837373747	-0.8519312232	 0.125814896	-0.19387
C	-0.5982222621	-2.1761850855	-0.1240622913	-0.32383
C	 0.6914196113	-2.0109072836	-0.570115589	 0.249038
C	 2.1352523589	-2.4028704709	-0.8401396692	-0.00568
O	 2.4443765406	-3.1105068107	-2.0130984571	-0.42248
C	 2.4228341586	-0.8381254069	-0.8252854924	-0.215377
N	 0.9756144079	-0.6649719342	-0.6090839656	-0.014509
H	 0.6863205007	 1.8576924538	 0.4234730133	 0.242872
H	-0.9433946263	 1.8317094953	 0.2277029039	 0.247776
H	-2.0822065657	-0.5921137248	 0.4477404796	 0.081701
H	-1.1446307226	-3.0952299149	 0.0190722725	 0.097359
H	 2.646346011	-2.9308575341	-0.0300156939	 0.105189
H	 1.8097527056	-2.8412198801	-2.6869792227	 0.281816
H	 3.0463018437	-0.4863273703	 0.0029150929	 0.11837
H	 2.7880159353	-0.4287090705	-1.771409475	 0.121076
75.0425	113.3422	166.1433	234.3361	274.2093	350.5747	385.4382	453.1547	548.7112	623.225	644.8519	668.2274	735.7734	759.1289	784.4589	797.2415	813.6242	867.2373	973.1673	1021.9297	1035.6419	1088.6664	1134.4342	1145.124	1199.2504	1217.8143	1239.9332	1261.9821	1294.296	1312.704	1381.948	1431.7107	1470.0782	1513.8291	1562.2635	1585.4799	1653.1258	3043.9909	3072.6829	3103.7802	3228.7983	3256.2527	3505.3692	3608.638	3796.5717
NC1=CC=C2C(O)CN12	Nc1ccc2[C@@H](O)Cn12	
InChI=1S/C6H8N2O/c7-6-2-1-4-5(9)3-8(4)6/h1-2,5,9H,3,7H2	InChI=1S/C6H8N2O/c7-6-2-1-4-5(9)3-8(4)6/h1-2,5,9H,3,7H2/t5-/m0/s1
