16
gdb 49677	2.35176	1.68294	1.54442	4.4	69.43	-0.2421	-0.0386	0.2035	948.5999	0.125614	-437.922991	-437.915304	-437.91436	-437.955536	28.582	
O	-0.9426056001	 1.2224228752	-0.3072339361	-0.265963
C	 0.0916684277	 1.1614522051	 0.314965165	 0.142189
C	 1.2679260331	 2.0557022594	 0.147692692	-0.106633
C	 1.5473322961	 2.8979066923	-1.0871202911	-0.086407
C	 0.4117520024	 3.150903254	-2.0818438327	-0.180466
N	-0.5186971456	 3.9799370175	-1.3347377317	-0.290746
C	-0.1869218506	 4.2079743819	-0.0242383583	 0.415322
O	-0.8422920524	 4.8149505425	 0.7923049482	-0.378959
C	 1.1811411258	 3.5913042924	 0.1848722582	-0.180819
H	 0.2371249725	 0.3782604207	 1.0917436942	 0.087468
H	 2.1564390134	 1.6800484915	 0.6472431917	 0.106083
H	 2.5617333625	 2.8862796965	-1.4661275301	 0.10948
H	 0.8009574356	 3.6839719152	-2.9581193208	 0.113309
H	-0.0623384033	 2.2245487952	-2.4194367489	 0.136456
H	-1.4756909228	 4.1038853907	-1.6250615194	 0.257567
H	 1.8744197357	 4.1112582699	 0.83262927	 0.122118
73.8559	120.5077	190.1834	221.0881	304.8954	374.2034	458.2831	497.2777	624.3577	706.6132	724.0226	762.5563	782.7918	822.7653	862.313	924.5386	974.5237	1006.8053	1023.3051	1048.3903	1072.9052	1100.1519	1117.5907	1187.5898	1233.7895	1254.8693	1318.839	1334.6642	1372.9978	1416.4821	1436.1548	1452.501	1513.2867	1806.641	1833.2033	2884.0213	3024.8053	3078.7796	3152.6791	3188.2364	3208.5869	3645.9489
O=CC1C2CNC(=O)C12	O=C[C@H]1[C@H]2CNC(=O)[C@@H]12	
InChI=1S/C6H7NO2/c8-2-4-3-1-7-6(9)5(3)4/h2-5H,1H2,(H,7,9)	InChI=1S/C6H7NO2/c8-2-4-3-1-7-6(9)5(3)4/h2-5H,1H2,(H,7,9)/t3-,4+,5-/m1/s1
