19
gdb 59312	2.71136	1.24367	0.94425	2.8382	71.86	-0.2664	-0.0031	0.2634	1267.8733	0.157115	-460.191694	-460.181918	-460.180974	-460.22655	35.037	
C	-0.1332298873	 1.4233212699	-0.2340527108	-0.402355
C	-0.0350708407	-0.0855608594	 0.0256816062	 0.025668
C	 0.8856025448	-0.4035543171	 1.2135510796	-0.405832
C	-1.4144335088	-0.6736690638	 0.2749035887	 0.112527
O	-2.3447925731	-0.4359715508	-0.8555354531	-0.253289
C	-2.4638473556	-1.770362498	-1.1144668717	 0.416032
O	-3.0301016599	-2.3060131277	-2.0137635503	-0.330778
C	-1.6147630533	-2.1978882368	 0.0924281357	-0.080102
O	-0.4577212057	-2.9408135711	-0.1877826065	-0.419463
H	 0.8541527559	 1.8367535828	-0.4609010382	 0.116189
H	-0.7972241948	 1.6372209	-1.0753257492	 0.136776
H	-0.520848185	 1.9498425017	 0.6463087519	 0.112261
H	 0.3713126126	-0.5745989446	-0.8670748215	 0.09198
H	 0.501390715	 0.0402944158	 2.1398501419	 0.11162
H	 0.9859186414	-1.4815724857	 1.3614107252	 0.139697
H	 1.8835584341	 0.0102204354	 1.0406047229	 0.119373
H	-1.8644239167	-0.2685377008	 1.1864984559	 0.096124
H	-2.2198304215	-2.6552060934	 0.8873284109	 0.107578
H	-0.7145176114	-3.6926222064	-0.7337460075	 0.305994
73.2629	90.9772	132.9281	162.5349	222.5069	240.4404	259.8754	261.0182	319.0372	394.9853	431.3765	479.4165	596.2924	709.6458	787.4137	817.2165	895.1455	904.0827	935.9814	942.6604	976.031	1016.0584	1118.2404	1136.3613	1153.6935	1182.7964	1191.8872	1220.8831	1304.4713	1310.4186	1332.3814	1345.3521	1398.3726	1402.0006	1409.5534	1424.502	1489.3101	1494.2806	1504.7828	1516.6508	1931.4439	3012.6435	3030.1122	3032.782	3045.7303	3072.2354	3096.0112	3102.9751	3123.1548	3126.0673	3807.7274
CC(C)C1OC(=O)C1O	CC(C)[C@H]1OC(=O)[C@H]1O	
InChI=1S/C6H10O3/c1-3(2)5-4(7)6(8)9-5/h3-5,7H,1-2H3	InChI=1S/C6H10O3/c1-3(2)5-4(7)6(8)9-5/h3-5,7H,1-2H3/t4-,5+/m0/s1
