18
gdb 104875	2.63382	1.32558	1.18649	2.9651	67.82	-0.2496	0.005	0.2546	1107.1426	0.148649	-476.223906	-476.2154	-476.214456	-476.257307	31.692	
O	 0.1494928354	 1.3815087163	 0.0277197945	-0.430972
C	-0.0076416725	-0.0066687466	 0.159540574	-0.064365
C	-1.4498524109	-0.5248004778	-0.0320190405	 0.192423
C	-2.0029328098	-0.1460886815	-1.4184200664	-0.105789
O	-2.1540406513	 1.2609924562	-1.5446423565	-0.422861
C	-1.5217996837	-2.0522268548	 0.2402735192	-0.160761
O	-2.4098745918	-2.1734924425	 1.3787677479	-0.216973
C	-2.8067996363	-0.91362301	 1.6602286004	 0.120477
N	-2.3667268482	 0.0581669325	 0.9766528656	-0.298629
H	-0.4178566688	 1.667584667	-0.7025645928	 0.289909
H	 0.6309263954	-0.5623399021	-0.5538249852	 0.077225
H	 0.328605144	-0.2761702731	 1.168326928	 0.103536
H	-1.3147741297	-0.463361922	-2.2097371373	 0.116466
H	-2.963802087	-0.6583426703	-1.5791111071	 0.098199
H	-2.6460807131	 1.537296078	-0.7576634872	 0.304491
H	-1.9503319073	-2.6269446528	-0.5870428983	 0.12142
H	-0.5558616658	-2.4874969068	 0.5119293355	 0.126948
H	-3.5018626788	-0.8392572797	 2.4895668461	 0.149256
67.0413	132.6818	150.5334	239.5005	250.1029	331.5587	348.8764	401.3799	438.4526	449.6258	612.1052	672.8864	720.9443	791.6333	896.2062	909.9639	941.4734	964.4278	967.2149	983.2056	1059.8712	1076.8363	1123.3535	1132.9329	1166.3106	1184.7841	1222.2535	1274.2926	1297.0889	1321.5505	1363.9697	1385.1795	1398.0209	1434.5136	1474.0545	1499.2199	1511.2792	1516.5157	1700.6612	2920.3161	2987.3844	3044.6645	3047.8066	3071.5238	3094.6422	3214.6247	3712.2089	3743.8092
OCC1(CO)COC=N1	OCC1(CO)COC=N1	
InChI=1S/C5H9NO3/c7-1-5(2-8)3-9-4-6-5/h4,7-8H,1-3H2	InChI=1S/C5H9NO3/c7-1-5(2-8)3-9-4-6-5/h4,7-8H,1-3H2
