22
gdb 65777	2.5473	1.29133	1.15481	3.5517	81.9	-0.2462	0.0305	0.2767	1203.1309	0.19518	-404.398929	-404.389528	-404.388584	-404.433215	35.465	
C	-0.1868885168	 1.658542999	 0.1233854184	-0.441831
C	 0.1030423352	 0.1583522121	 0.0167234294	 0.299851
C	 1.0597659836	-0.2118882268	-1.1400560326	-0.223131
C	 1.5772662099	-1.6245948377	-0.7966644624	-0.206587
C	 1.4722485651	-1.7493626589	 0.7527273228	-0.210389
C	 0.8543650138	-0.4158172834	 1.2344110473	-0.252307
N	-1.1622362502	-0.595710891	-0.1142567905	-0.296232
C	-2.0364584247	-0.4967448764	-1.1468657458	 0.157934
O	-1.8951499666	 0.1900484677	-2.1394742512	-0.334009
H	 0.746850496	 2.2216254341	 0.2189736329	 0.109225
H	-0.7155024218	 2.0058564474	-0.7666845778	 0.152537
H	-0.8072333682	 1.8729900759	 1.0000088776	 0.105647
H	 0.5657551627	-0.1456598276	-2.109465947	 0.134253
H	 1.8854163364	 0.5090596367	-1.1366437664	 0.092356
H	 0.9588581874	-2.3853979248	-1.280685302	 0.105274
H	 2.5985833159	-1.7770347329	-1.15501754	 0.099075
H	 0.8367661404	-2.5966448105	 1.0282934752	 0.095065
H	 2.4428087215	-1.9277832286	 1.2230490115	 0.102471
H	 1.6410785056	 0.2946436537	 1.50798775	 0.106635
H	 0.2091868594	-0.5229391313	 2.1141337207	 0.089244
H	-1.445811962	-1.1700348478	 0.6643018904	 0.242341
H	-2.9277551828	-1.1389080291	-0.9868888004	 0.072579
68.8065	81.7206	154.813	197.2359	224.8909	249.8661	287.821	365.0722	402.7862	416.5734	508.0226	593.6098	644.6953	697.1877	792.8565	802.3712	850.9513	890.0031	910.7016	925.0737	957.1091	996.4257	1030.1076	1046.13	1061.4079	1064.8573	1148.6337	1180.3943	1209.5642	1233.6905	1247.5429	1265.9698	1271.068	1313.449	1331.7963	1342.1486	1362.3982	1404.3204	1433.6309	1480.3464	1484.7972	1491.8145	1495.9248	1509.0332	1514.3812	1523.5511	1795.7922	2912.7016	3034.8465	3037.6648	3044.5681	3050.673	3064.4108	3074.4401	3088.3431	3102.6424	3107.61	3134.8932	3138.3168	3621.4957
CC1(CCCC1)NC=O	CC1(CCCC1)NC=O	
InChI=1S/C7H13NO/c1-7(8-6-9)4-2-3-5-7/h6H,2-5H2,1H3,(H,8,9)	InChI=1S/C7H13NO/c1-7(8-6-9)4-2-3-5-7/h6H,2-5H2,1H3,(H,8,9)
