23
gdb 119085	2.30071	1.08577	0.86729	1.1614	82.05	-0.2475	0.0737	0.3213	1473.7927	0.203777	-425.396868	-425.386409	-425.385465	-425.43308	37.497	
C	 0.0133940284	 1.5241392193	 0.0050844875	-0.381063
C	 0.09958989	-0.0037037753	-0.0474821251	-0.17505
C	 0.6572851114	-0.605988967	 1.2466324146	-0.213543
C	 0.7407802561	-2.1311076	 1.2444751264	 0.356737
C	 1.8980124565	-2.6973255021	 0.3689736969	-0.136821
O	 2.6899990511	-2.9618418795	 1.5432902408	-0.272886
C	 1.5817199177	-2.6915228105	 2.4239444794	-0.135923
O	-0.577305527	-2.5942270222	 1.0661931755	-0.293939
C	-0.7940764386	-3.9806033448	 0.9115331012	-0.255441
H	 0.9987867537	 1.9745355977	 0.1699877765	 0.112415
H	-0.386986077	 1.9324993634	-0.9280361458	 0.111208
H	-0.6400669849	 1.855002875	 0.8200381952	 0.114727
H	-0.8907875417	-0.4291696144	-0.2360089287	 0.115141
H	 0.7307948166	-0.3035409617	-0.89449988	 0.091425
H	 1.661379613	-0.210647752	 1.4445962111	 0.103333
H	 0.0256486359	-0.3062861083	 2.0931284985	 0.100188
H	 1.663882686	-3.6165150821	-0.1818154716	 0.097233
H	 2.3881404466	-1.9920534627	-0.3115552448	 0.103958
H	 1.8411701663	-1.9797335557	 3.216233485	 0.102659
H	 1.1861383222	-3.6064077947	 2.8832085264	 0.097269
H	-0.3811478036	-4.367394098	-0.0296253496	 0.113732
H	-0.3812341049	-4.5716489038	 1.7398725669	 0.113598
H	-1.8777041236	-4.1205664306	 0.8952689835	 0.131042
64.9169	73.8206	89.6177	115.2881	148.8706	232.276	248.3276	288.0403	313.66	333.4405	382.8709	454.1758	538.0416	659.8083	747.8664	829.4185	860.3972	890.0954	935.5661	951.9125	981.4601	1015.4712	1033.3056	1046.8076	1062.8068	1130.241	1146.3981	1150.5829	1159.9532	1178.5543	1189.3238	1235.1134	1274.7245	1279.7477	1300.6627	1324.6092	1336.692	1379.173	1398.2809	1413.7258	1473.5382	1481.8566	1487.9627	1494.0042	1500.4457	1505.3907	1510.5396	1516.0974	1534.4111	3000.0495	3009.4751	3016.6086	3025.1077	3027.1235	3029.5013	3054.7503	3058.1466	3062.1606	3067.3417	3079.153	3100.4943	3102.8484	3114.5523
CCCC1(COC1)OC	CCCC1(COC1)OC	
InChI=1S/C7H14O2/c1-3-4-7(8-2)5-9-6-7/h3-6H2,1-2H3	InChI=1S/C7H14O2/c1-3-4-7(8-2)5-9-6-7/h3-6H2,1-2H3
