17
gdb 12028	3.68979	1.73443	1.5242	3.999	71.86	-0.2762	0.0374	0.3135	890.5879	0.142546	-326.715846	-326.708366	-326.707422	-326.747215	28.761	
C	-0.0935951837	 1.5755366505	 0.0434073276	-0.447742
C	 0.0386863687	 0.0482542223	 0.0330695544	 0.140615
C	 1.1341237573	-0.6010076646	-0.9096565221	-0.28381
C	 1.7613834928	-1.2880006106	 0.3075505661	-0.023359
C	 2.1892004822	-0.2611643914	 1.3131350773	-0.301918
C	 0.7360079358	-0.6379678272	 1.235686009	-0.05978
C	-1.2686092048	-0.559584812	-0.2108749958	 0.249125
N	-2.3069186995	-1.0333039532	-0.3979082707	-0.347205
H	 0.8761971538	 2.0420248773	 0.2317588998	 0.123565
H	-0.4670603623	 1.9382964939	-0.9188128423	 0.136109
H	-0.7893168512	 1.9007498531	 0.8223440262	 0.137158
H	 0.697444582	-1.2884488053	-1.6343491271	 0.13311
H	 1.7688069039	 0.1182631745	-1.4367895201	 0.106399
H	 2.1355346404	-2.3032976654	 0.320877797	 0.097964
H	 2.7017269216	-0.647464092	 2.1881907238	 0.122486
H	 2.5425906275	 0.7154908731	 0.9925802204	 0.111371
H	 0.2025482855	-1.059960233	 2.0779332963	 0.105911
138.9377	168.9209	211.0315	231.8198	290.4175	386.5731	445.0929	514.7799	572.272	628.7538	743.0497	790.6349	847.0211	855.3588	897.5034	945.647	962.9492	993.2002	1006.0021	1049.4399	1070.5901	1087.955	1137.1389	1150.3099	1158.8874	1216.9424	1245.3927	1259.849	1301.6879	1359.1641	1412.6441	1478.4231	1487.7368	1489.3207	1501.5202	2349.3887	3044.6456	3054.1791	3114.308	3116.6406	3126.1083	3132.4299	3191.0444	3196.3204	3208.5494
CC1(CC2CC12)C#N	C[C@]1(C[C@H]2C[C@@H]12)C#N	
InChI=1S/C7H9N/c1-7(4-8)3-5-2-6(5)7/h5-6H,2-3H2,1H3	InChI=1S/C7H9N/c1-7(4-8)3-5-2-6(5)7/h5-6H,2-3H2,1H3/t5-,6-,7+/m1/s1
