13
gdb 27983	3.7921	1.24373	0.93656	5.0545	64.49	-0.2107	-0.0203	0.1905	1133.3203	0.088156	-489.913604	-489.905499	-489.904555	-489.946686	28.887	
O	 0.0660048191	 1.3245927778	 0.0073503706	-0.413364
C	-0.0475752234	-0.0038266246	 0.0010676888	 0.394376
C	-1.11155522	-0.8046524646	 0.0025250417	-0.244757
N	-0.6061391969	-2.1365698733	-0.0070773769	-0.143307
C	-1.4047692152	-3.2748838649	-0.0090670381	 0.168719
O	-1.0176103978	-4.4108285914	-0.0166314191	-0.268517
C	 0.7951144943	-2.084855758	-0.0141656112	 0.493975
N	 1.6122491263	-3.0384756873	-0.0233807705	-0.534497
O	 1.1219442353	-0.7247272093	-0.0088488152	-0.262326
H	 1.0037305948	 1.5520012362	 0.0038170975	 0.320616
H	-2.1631788948	-0.587773931	 0.0092610378	 0.163081
H	-2.4732991471	-2.9847087397	-0.0015164964	 0.088882
H	 2.5699897153	-2.6946432897	-0.026659189	 0.237118
80.982	120.2947	177.8174	208.27	230.1441	335.6574	346.1581	461.0572	532.1211	620.9166	643.9819	677.7095	722.3249	788.1017	790.9727	827.7872	988.4693	998.6803	1015.2496	1162.7364	1184.3813	1218.7345	1267.0984	1377.4766	1430.4882	1449.3065	1759.5099	1819.3687	1855.2783	2945.8428	3312.1323	3531.4935	3815.6296
OC1=CN(C=O)C(=N)O1	OC1=CN(C=O)[C@H]([NH])O1	
InChI=1S/C4H4N2O3/c5-4-6(2-7)1-3(8)9-4/h1-2,5,8H	InChI=1S/C4H5N2O3/c5-4-6(2-7)1-3(8)9-4/h1-2,4-5,8H/t4-/m0/s1
