21
gdb 40067	4.29203	1.16234	1.03568	0.4787	91.5	-0.2093	0.0223	0.2317	1230.2293	0.184261	-349.927235	-349.919539	-349.918595	-349.959232	31.612	
C	-0.0009734738	 1.5244830387	-0.0159465012	-0.317147
C	 1.3133200095	 0.7890497735	-0.0814222402	-0.305949
C	 0.0099377326	 0.0169148058	 0.012737991	 0.366291
C	-0.3837083014	-0.7699817277	 1.2909949847	-0.334121
C	-0.5441973296	-2.2133561186	 0.773228117	-0.037717
C	-1.870418389	-3.0557966695	 0.7383254234	-0.23847
C	-1.6787403002	-3.2270831012	-0.8171682136	-0.317768
C	-0.7472919243	-2.0420934081	-0.7096168553	 0.297246
C	-0.5161056631	-0.8031522469	-1.1341639539	-0.321199
H	-0.2512492834	 2.0429918479	 0.9047541363	 0.106912
H	-0.3599457415	 2.0193239088	-0.913093587	 0.10781
H	 1.8471463042	 0.7747507354	-1.0258577795	 0.109381
H	 1.9556892182	 0.810260031	 0.7932005442	 0.108336
H	 0.3505204541	-0.6647683209	 2.0953519486	 0.093011
H	-1.3425175863	-0.3915945945	 1.6674956025	 0.099009
H	 0.3062673628	-2.855414616	 1.0333606349	 0.073488
H	-1.9021605268	-3.9700813469	 1.3362240285	 0.096918
H	-2.7453304887	-2.4404581092	 0.963832453	 0.106529
H	-1.1656972304	-4.1667004073	-1.0501535212	 0.109607
H	-2.5549740625	-3.1351376462	-1.4633195365	 0.108219
H	-0.7420655705	-0.377376938	-2.1057076957	 0.089615
84.0487	177.1108	255.2694	288.4501	296.9289	402.8204	451.2919	494.5516	612.3728	683.7137	756.1955	778.1076	789.1717	816.8444	841.3461	865.0782	901.8685	913.0124	929.4104	936.535	953.1306	978.9495	1039.5578	1053.8574	1071.9856	1077.6541	1096.2158	1106.9375	1176.107	1186.1206	1190.663	1230.116	1235.2528	1249.3976	1258.0203	1269.5485	1293.9091	1339.1533	1372.2896	1464.4952	1472.9592	1482.3009	1487.4693	1498.7734	1727.524	3023.3285	3025.3777	3042.8873	3057.2365	3082.6593	3100.2916	3118.0521	3120.7013	3125.1851	3187.7225	3196.7215	3214.3719
C1CC11CC2CCC2=C1	C1CC21C[C@H]1CC[C]1[CH]2	
InChI=1S/C9H12/c1-2-8-6-9(3-4-9)5-7(1)8/h5,8H,1-4,6H2	InChI=1S/C9H12/c1-2-8-6-9(3-4-9)5-7(1)8/h5,8H,1-4,6H2/t8-/m1/s1
