14
gdb 49835	2.21542	1.50975	0.98006	3.003	70.53	-0.2577	-0.063	0.1947	1144.8594	0.100183	-432.866358	-432.858039	-432.857094	-432.900148	29.119	
N	-0.0615959542	 1.1569163164	-0.05982522	-0.450593
C	-0.0789159092	-0.0881714316	 0.2002058074	 0.061933
N	-1.2722265659	-0.7638513401	 0.2866942408	-0.04697
C	-2.5400343593	-0.2666009466	-0.2701669518	-0.278294
C	-2.9383386493	-1.7258270996	-0.5055840986	 0.392159
O	-3.8911734021	-2.308289606	-0.9003655505	-0.242422
C	-1.5170505326	-2.1899083944	 0.0173241922	-0.258938
C	-0.664030573	-2.8310802307	-0.977085529	 0.291415
N	 0.0169475143	-3.3232776955	-1.7712765783	-0.308843
H	 0.8907073115	 1.5149083764	-0.0519485368	 0.234705
H	 0.7885153379	-0.7278880853	 0.3975926503	 0.116729
H	-3.1687269151	 0.2937529909	 0.4288646067	 0.158891
H	-2.4168964086	 0.3217136932	-1.1888409575	 0.169977
H	-1.5719749743	-2.8154833472	 0.916513945	 0.160253
67.1029	90.6523	129.2455	185.0905	242.4452	302.5644	394.5838	443.3085	494.0101	555.04	601.5053	737.2957	746.2987	810.3143	853.316	994.7523	1018.7879	1027.6486	1048.6964	1107.2465	1119.9405	1170.6538	1210.7667	1287.7105	1318.2185	1358.526	1424.9769	1474.7608	1713.4795	1948.2156	2350.5006	3032.7644	3040.9612	3065.5941	3088.3498	3520.0061
N=CN1CC(=O)C1C#N	[NH][CH]N1CC(=O)[C@H]1C#N	
InChI=1S/C5H5N3O/c6-1-4-5(9)2-8(4)3-7/h3-4,7H,2H2	InChI=1S/C5H5N3O/c6-1-4-5(9)2-8(4)3-7/h3-4,7H,2H2/t4-/m1/s1
