18
gdb 12696	3.35014	2.01057	1.30559	3.636	70.3	-0.2248	0.0631	0.2879	951.5791	0.155286	-381.174468	-381.16616	-381.165215	-381.207063	29.538	
C	-0.0540256298	 1.395047067	 0.0027851577	-0.338107
N	-0.0148554677	-0.0333997192	-0.1969262393	-0.116364
C	-1.1734793929	-0.8699904168	 0.051750149	-0.173803
C	-0.5918779459	-2.2851631295	-0.1287458645	-0.173813
N	 0.8100168848	-2.0771337991	 0.1803419276	-0.116356
C	 1.7888621677	-3.1222563209	 0.0029917441	-0.33811
C	 1.1585344556	-0.744840225	 0.009605519	 0.473242
O	 2.2832441334	-0.2859831977	 0.0362364053	-0.437896
H	 0.9651750192	 1.7720422986	-0.0976171118	 0.163217
H	-0.6925348756	 1.8746004983	-0.7472076163	 0.119628
H	-0.4345554164	 1.6610234882	 1.0009624686	 0.111165
H	-1.5600781368	-0.7252301	 1.0737678325	 0.102635
H	-1.9873392919	-0.6599251906	-0.6493796636	 0.113957
H	-1.0542917719	-3.0158971182	 0.5422839303	 0.113958
H	-0.7252937632	-2.6420881359	-1.1630273965	 0.102636
H	 1.7435911415	-3.5620998189	-1.0051704501	 0.111165
H	 2.775900777	-2.6807651473	 0.1506990403	 0.163218
H	 1.638022893	-3.923717513	 0.7344717376	 0.11963
109.7377	164.479	176.5796	183.7987	215.8861	240.1915	272.3844	326.1621	522.6955	579.4107	654.4272	765.0055	772.5258	864.5044	970.4315	1001.62	1052.4582	1100.6862	1119.0952	1156.9834	1175.5266	1202.4955	1222.9749	1276.6883	1298.7117	1311.3753	1319.6926	1411.9878	1428.5671	1441.1902	1462.7492	1492.152	1492.212	1510.2439	1514.723	1537.0474	1542.6271	1814.5849	2966.0023	2973.4147	2987.1739	2988.906	3062.4146	3062.5088	3063.5258	3069.0369	3142.459	3142.6815
CN1CCN(C)C1=O	CN1CCN(C)C1=O	
InChI=1S/C5H10N2O/c1-6-3-4-7(2)5(6)8/h3-4H2,1-2H3	InChI=1S/C5H10N2O/c1-6-3-4-7(2)5(6)8/h3-4H2,1-2H3
