23
gdb 76874	2.24258	1.8411	1.49756	0.203	88.15	-0.2314	0.0216	0.253	1046.0451	0.208621	-351.171491	-351.16347	-351.162526	-351.203279	33.573	
C	-0.1680613831	 1.5801881127	-0.0939599962	-0.410988
C	 0.0484664772	 0.0689325131	-0.0116524469	 0.030275
C	 0.8920266874	-0.5303470047	-1.1959239921	-0.057706
C	 1.2471469982	-1.9166563868	-0.6113620386	-0.223812
C	 1.976609153	-1.316824099	 0.6124643413	-0.057704
C	 2.9072577546	-0.3367402443	-0.0876830485	-0.076812
C	 2.2627306718	 0.1306481877	-1.1623048515	-0.076814
C	 0.8095581427	-0.4829474371	 1.2573415365	 0.030272
C	 1.2663795373	 0.5400718323	 2.2976792882	-0.410986
H	 0.7765655383	 2.1311422996	-0.090079745	 0.118042
H	-0.6999653359	 1.8387907456	-1.0166378984	 0.104857
H	-0.7713051986	 1.9455799699	 0.7433044232	 0.110181
H	-0.9389631627	-0.4065142193	-0.0470009169	 0.065482
H	 0.3738995249	-0.5086401762	-2.1564031167	 0.051013
H	 0.3702687101	-2.5178218476	-0.346900921	 0.083617
H	 1.9096872474	-2.4949429574	-1.2602197981	 0.090853
H	 2.45029323	-2.014317719	 1.30569813	 0.051013
H	 3.8719412743	-0.0199886195	 0.2887643956	 0.090328
H	 2.5944826652	 0.90637538	-1.8411621741	 0.090329
H	 0.1480067307	-1.1946814659	 1.7653772569	 0.065482
H	 1.9546529386	 1.2769098763	 1.8743221334	 0.118044
H	 0.4179691686	 1.083104431	 2.7263315699	 0.110179
H	 1.7833913104	 0.0382292586	 3.1235040389	 0.104856
128.2559	227.3623	252.0768	266.8108	269.3905	330.0003	460.835	468.8105	485.5641	519.8782	666.2732	705.561	753.364	764.6677	790.237	851.4297	894.0525	899.1372	921.7077	954.8961	964.9249	978.6059	1016.8685	1018.7911	1030.115	1066.8677	1067.9451	1121.2649	1148.823	1159.1403	1162.0782	1194.8964	1195.3615	1275.2666	1284.7126	1285.7521	1304.6462	1339.155	1366.2638	1371.7298	1381.0939	1406.2381	1415.2145	1488.6648	1495.0507	1497.3542	1507.9247	1512.0868	1641.5079	3011.733	3029.7606	3029.7931	3035.9616	3044.9975	3088.5706	3093.2053	3093.8584	3096.1115	3106.3141	3107.0627	3115.4822	3193.3995	3219.2942
CC1C2CC(C=C2)C1C	C[C@H]1[C@@H]2C[C@@H](C=C2)[C@H]1C	
InChI=1S/C9H14/c1-6-7(2)9-4-3-8(6)5-9/h3-4,6-9H,5H2,1-2H3	InChI=1S/C9H14/c1-6-7(2)9-4-3-8(6)5-9/h3-4,6-9H,5H2,1-2H3/t6-,7+,8+,9-
