14
gdb 19836	3.46219	2.73896	1.8449	3.2018	61.32	-0.2598	-0.0206	0.2392	709.3054	0.108624	-382.501618	-382.49587	-382.494925	-382.531265	23.018	
O	-0.0355321915	 1.437717095	 0.0557398563	-0.229681
C	 1.2636737933	 0.8179428843	-0.0105694394	-0.008332
C	 2.1239689776	 0.8565216739	 1.1917578198	-0.073058
C	 1.8048739291	 0.2213501323	 2.3267233834	-0.073054
C	 0.5653857126	-0.5720132567	 2.4731131729	-0.008336
O	-0.6995903327	 0.1158998032	 2.4176941061	-0.22968
C	-0.3464981739	-0.6915698512	 1.3086537801	 0.015752
C	 0.0120594882	 0.0221282958	 0.03334509	 0.015748
H	 1.760295974	 0.9650844572	-0.9682804985	 0.096344
H	 3.0608226469	 1.4005058378	 1.1166453112	 0.104607
H	 2.4820570171	 0.2484446329	 3.1752191717	 0.104607
H	 0.5855471472	-1.3732554	 3.2100648064	 0.096345
H	-0.9313366314	-1.6035434869	 1.1914197658	 0.09437
H	-0.3475780464	-0.4416102776	-0.8848500957	 0.09437
197.2379	230.8452	388.4959	484.5496	545.0284	548.3021	684.3353	721.1586	786.2835	826.1454	843.6492	844.584	944.6568	945.5628	966.77	975.6497	1027.7367	1062.4037	1075.207	1121.3236	1134.4264	1210.337	1264.6299	1289.1721	1350.6808	1388.1092	1415.1783	1427.7486	1463.0592	1692.3638	3104.5218	3117.5211	3123.213	3128.688	3165.2925	3185.7634
O1C2C=CC3OC3C12	O1[C@H]2C=C[C@H]3O[C@H]3[C@@H]12	
InChI=1S/C6H6O2/c1-2-4-6(8-4)5-3(1)7-5/h1-6H	InChI=1S/C6H6O2/c1-2-4-6(8-4)5-3(1)7-5/h1-6H/t3-,4+,5-,6+
