19
gdb 68319	2.95449	1.20825	1.01046	3.0506	79.97	-0.2436	0.0298	0.2734	1217.7652	0.159822	-382.010627	-382.002156	-382.001212	-382.044269	32.005	
C	 0.1106873333	 1.3632671241	 0.1504481657	-0.518719
C	 0.0691122557	-0.1421269832	 0.0892259026	 0.295091
C	 0.5638612586	-1.0986894874	-1.0269684029	-0.202427
N	 0.0029790044	-2.0955188868	 0.0050334219	-0.165419
C	 0.7190607055	-1.1910216921	 1.0268584577	-0.219027
C	-1.1625419662	-1.0943546207	 0.095781351	 0.039834
C	-2.1191642349	-1.2503712453	 1.2828474894	-0.395787
C	-3.120757543	-0.1860133546	 1.2939751286	 0.263483
N	-3.8990724457	 0.6681941597	 1.2856366149	-0.30908
H	 1.1429770878	 1.7274324586	 0.1144578663	 0.123252
H	-0.4336117085	 1.8043941358	-0.6909941251	 0.131417
H	-0.3467280891	 1.7348477475	 1.0732630244	 0.133458
H	 0.0265896269	-1.1061239049	-1.9797513075	 0.104447
H	 1.6422745308	-1.196002629	-1.1750967644	 0.104224
H	 1.8073160874	-1.2906073774	 0.9953266439	 0.106212
H	 0.3646955163	-1.2913888749	 2.0542212268	 0.099388
H	-1.7560501922	-1.0887288316	-0.8248380612	 0.089803
H	-2.6289103034	-2.2172995453	 1.1976301493	 0.166802
H	-1.6050876937	-1.2494669527	 2.2473586085	 0.153049
45.3249	105.0421	184.83	215.7852	296.6009	332.272	364.2028	388.5445	467.5154	597.9678	608.2472	641.869	756.1914	780.7593	850.2106	905.5243	909.7593	927.5598	955.6381	977.4813	1017.0826	1036.657	1076.527	1124.7843	1139.0302	1171.4076	1193.6071	1196.1034	1210.1365	1234.8537	1261.9349	1309.8072	1341.8926	1412.981	1438.8773	1463.191	1486.8902	1488.8864	1518.0735	1558.8312	2362.0146	3032.297	3046.4655	3050.5635	3052.0143	3065.9466	3101.4339	3102.2749	3104.1193	3119.1999	3124.644
CC12CN(C1)C2CC#N	C[C@@]12CN(C1)[C@H]2CC#N	
InChI=1S/C7H10N2/c1-7-4-9(5-7)6(7)2-3-8/h6H,2,4-5H2,1H3	InChI=1S/C7H10N2/c1-7-4-9(5-7)6(7)2-3-8/h6H,2,4-5H2,1H3/t6-/m0/s1
