25
gdb 118485	2.11523	0.98575	0.71649	1.0307	90.25	-0.2498	0.0914	0.3412	1687.6414	0.227282	-389.472241	-389.461246	-389.460302	-389.508864	39.737	
C	 0.6012297503	-0.2030312726	 1.4182521155	-0.388564
C	-0.0137907136	-0.1124880497	 0.0191271786	-0.172783
C	-1.4419883848	-0.6787963767	-0.0972327012	-0.016018
C	-2.0521776361	-0.3271929525	-1.4577124262	-0.059649
O	-2.1332272552	 1.0777647452	-1.5839498308	-0.233928
C	-2.6557892401	 1.4890656322	-2.8222420431	-0.225675
C	-1.5026626418	-2.1814730086	 0.1198539275	 0.032428
C	-1.7093765096	-2.7713758944	 1.4931262698	-0.271274
C	-2.8082756069	-2.8574856993	 0.4651021882	-0.279895
H	 1.5965258469	 0.2526830237	 1.4353383131	 0.107545
H	-0.014730671	 0.3244392679	 2.1556455198	 0.110048
H	 0.7034692706	-1.2394125269	 1.7521391256	 0.120814
H	-0.0411009084	 0.9328673163	-0.303369916	 0.111988
H	 0.6309145797	-0.638915903	-0.6993359264	 0.083752
H	-2.0701594161	-0.1947250673	 0.6649043664	 0.072337
H	-1.4340642554	-0.7486700956	-2.2714282957	 0.077178
H	-3.0549950071	-0.7756155195	-1.5494297313	 0.08499
H	-3.6776518803	 1.1088357893	-2.9828288326	 0.101148
H	-2.68318365	 2.5817469515	-2.8218346265	 0.124467
H	-2.0310994683	 1.1498634744	-3.6643816382	 0.101591
H	-0.844314923	-2.7473843592	-0.5369887066	 0.077694
H	-1.1723673656	-3.6769234689	 1.7539245373	 0.10909
H	-1.8472735491	-2.0844998178	 2.3212137293	 0.113109
H	-3.6807304027	-2.227383725	 0.6073018299	 0.11085
H	-3.0275583324	-3.8220376935	 0.0207472635	 0.108756
77.1046	84.1732	96.1483	107.9977	140.0523	195.5071	225.1138	244.4824	269.3308	325.1644	351.8917	396.2959	452.3789	561.6479	746.1653	789.2104	826.0277	838.9964	875.637	924.3512	968.977	978.0211	1004.0062	1036.1933	1041.0957	1062.5849	1081.8243	1120.5137	1140.633	1155.0377	1164.5552	1185.211	1201.1221	1204.2698	1225.1734	1232.9147	1258.2452	1278.6153	1321.6603	1332.9664	1382.8973	1409.2456	1411.7242	1426.6031	1472.0299	1479.7173	1485.031	1491.7202	1497.2785	1502.4585	1507.0432	1511.5378	1525.859	2936.9973	2965.8179	2980.1168	3001.0946	3007.1933	3014.0741	3032.568	3077.8773	3094.2812	3109.6026	3113.5802	3118.9277	3127.9305	3134.0166	3205.6508	3221.2449
CCC(COC)C1CC1	CC[C@@H](COC)C1CC1	
InChI=1S/C8H16O/c1-3-7(6-9-2)8-4-5-8/h7-8H,3-6H2,1-2H3	InChI=1S/C8H16O/c1-3-7(6-9-2)8-4-5-8/h7-8H,3-6H2,1-2H3/t7-/m0/s1
