20
gdb 60946	2.98074	1.23217	1.0977	3.9554	79.67	-0.2364	0.0276	0.2641	1189.0653	0.171565	-403.139681	-403.130963	-403.130019	-403.173302	32.497	
C	-0.9833559838	 1.062120719	 0.2080481058	-0.345157
N	-0.0716161075	-0.0645055908	 0.0794122428	-0.045409
C	 0.9261203739	-0.2347193	 0.9996972823	 0.151887
O	 1.0740085712	 0.4236764564	 2.0081055864	-0.345583
C	-0.0658595595	-0.7857549886	-1.1600422431	 0.012571
C	 0.1105306252	-2.2743814457	-1.2603050116	-0.09496
C	-0.5612704788	-3.0208897176	-0.1000983317	-0.229575
C	-1.9144572937	-2.3270301585	-0.4478712046	-0.229049
C	-1.2331094738	-1.6129229378	-1.6227826513	-0.089344
H	-0.7501661492	 1.8462489692	-0.5241761498	 0.121376
H	-2.0152456661	 0.7366264012	 0.0468191413	 0.127216
H	-0.8727210536	 1.4713407812	 1.2121333431	 0.165271
H	 1.5952031018	-1.0696678428	 0.7203931927	 0.080867
H	 0.4100903871	-0.2491335766	-1.9828432488	 0.097897
H	 0.8669112747	-2.6922920531	-1.9142030784	 0.093426
H	-0.5974858758	-4.0971022884	-0.2803377475	 0.109903
H	-0.1539153348	-2.848904326	 0.899517556	 0.110455
H	-2.6756935625	-3.0383206521	-0.7730489012	 0.109243
H	-2.3453127379	-1.6814499959	 0.3224538373	 0.107595
H	-1.6725810968	-1.449208313	-2.5994724796	 0.091369
79.5808	120.0276	142.3824	156.8522	255.5497	287.1414	317.0213	356.9026	480.5552	492.7411	718.6538	756.2615	762.7822	794.8079	812.7511	881.9674	946.1229	962.0857	966.2017	1020.604	1025.474	1039.1738	1055.0287	1084.4069	1126.1631	1146.2658	1146.9416	1167.9031	1227.3778	1248.0731	1266.8862	1293.2797	1307.9185	1348.0761	1384.3052	1423.9769	1435.1441	1449.9092	1479.1572	1496.4447	1502.303	1516.2231	1793.8429	2962.3453	3018.7657	3061.1525	3067.6492	3083.1797	3085.4246	3107.6255	3125.4997	3158.8726	3175.4084	3186.9922
CN(C=O)C1C2CCC12	CN(C=O)[C@H]1[C@H]2CC[C@@H]12	
InChI=1S/C7H11NO/c1-8(4-9)7-5-2-3-6(5)7/h4-7H,2-3H2,1H3	InChI=1S/C7H11NO/c1-8(4-9)7-5-2-3-6(5)7/h4-7H,2-3H2,1H3/t5-,6+,7-
