24
gdb 57196	2.31945	1.32579	1.0543	3.3413	86.27	-0.2308	0.0336	0.2643	1302.3177	0.214499	-405.584239	-405.573013	-405.572069	-405.620315	41.832	
C	 0.1430864154	 1.4517338341	 0.0185253289	-0.343328
N	-0.0481859735	 0.0067712812	 0.0306174549	-0.111349
C	-0.0272566155	-0.7012113608	 1.2100042096	 0.411624
C	-0.0300719848	 0.0770175295	 2.5254572268	-0.496477
O	-0.018480681	-1.9238871559	 1.2493414873	-0.388663
C	-0.0120273231	-0.7384049529	-1.2790314589	 0.266228
C	-0.1076578833	 0.2435910355	-2.4616833232	-0.423091
C	 1.3149322002	-1.5148351271	-1.3940613104	-0.398007
C	-1.2198065917	-1.6922378822	-1.3766228202	-0.395292
H	 1.1404277901	 1.73342576	-0.3445235366	 0.123964
H	-0.5981266224	 1.9480355624	-0.6122939384	 0.130657
H	 0.0349594111	 1.855640809	 1.0210163021	 0.13585
H	-0.881431442	 0.7595017375	 2.6086718037	 0.13533
H	-0.0909473849	-0.6647858248	 3.3209507438	 0.145305
H	 0.8850841943	 0.6622153971	 2.6610878463	 0.135485
H	 0.7222130072	 0.9539231145	-2.4966232043	 0.113342
H	-0.0752686148	-0.3391473929	-3.386082051	 0.119915
H	-1.0484333382	 0.8018759208	-2.4617100618	 0.116754
H	 1.4059341659	-2.2412762803	-0.5873809256	 0.1541
H	 1.3572619305	-2.0439026714	-2.3517060716	 0.105812
H	 2.1681753344	-0.8287786783	-1.3527725043	 0.099922
H	-2.1554181914	-1.1311551837	-1.2820794975	 0.101381
H	-1.2178969655	-2.1809820689	-2.3563758273	 0.102462
H	-1.186399587	-2.4533619922	-0.6006532724	 0.158074
37.572	81.6787	138.4452	173.3823	221.4826	246.9755	250.6868	265.432	312.4688	331.6041	367.9271	385.1792	418.0464	441.078	454.88	503.3397	602.3849	613.1607	665.8678	805.1983	904.8549	926.1447	928.8799	962.2899	1014.5584	1046.3271	1048.203	1055.3037	1146.0547	1156.5012	1189.6491	1239.9281	1245.2482	1272.1867	1375.9088	1389.2191	1397.0491	1406.1096	1428.5692	1464.2963	1469.6995	1478.5285	1486.2319	1492.4485	1496.546	1498.7427	1507.7192	1519.1307	1525.4715	1533.8002	1739.2398	3014.6404	3034.785	3038.7868	3042.6406	3047.8039	3092.8432	3095.2251	3099.5965	3107.0038	3116.8429	3121.6161	3158.8453	3159.3267	3176.9831	3185.684
CN(C(C)=O)C(C)(C)C	CN(C(=O)C)C(C)(C)C	
InChI=1S/C7H15NO/c1-6(9)8(5)7(2,3)4/h1-5H3	InChI=1S/C7H15NO/c1-6(9)8(5)7(2,3)4/h1-5H3
