19
gdb 62867	2.82655	1.87797	1.47518	2.9062	73.36	-0.2464	0.0762	0.3226	942.9024	0.160367	-422.977726	-422.97054	-422.969596	-423.008815	30.411	
C	-0.0768964419	 1.5803237241	 0.0161463826	-0.435439
C	-0.0601261547	 0.0517711536	-0.005849384	 0.447267
O	-1.403918095	-0.2898532736	-0.1784232326	-0.493107
C	 1.0561338003	-0.5896684187	-0.9211709045	-0.149043
C	 2.0517561805	-0.2612628523	 0.2522803433	-0.237867
C	 0.799993108	-0.6217654574	 1.1348717663	-0.148967
C	 0.7563329991	-2.1280492853	 0.7998660046	 0.03828
O	-0.2996677334	-2.5908220907	-0.0768669733	-0.283385
C	 0.9372976976	-2.1052699358	-0.6537953809	 0.038245
H	 0.8963017838	 2.0520319256	 0.1453391076	 0.110845
H	-0.5141033738	 1.9356077428	-0.9214083108	 0.126607
H	-0.7327545433	 1.9078811585	 0.8279532658	 0.126629
H	-1.4352761489	-1.257741689	-0.1974460532	 0.2935
H	 1.2231694652	-0.2622860083	-1.9472098142	 0.067148
H	 2.9118777008	-0.9283616485	 0.349075705	 0.099147
H	 2.3834516572	 0.7730061193	 0.3097279664	 0.109503
H	 0.7090655863	-0.3267535773	 2.1801320059	 0.067134
H	 1.1576109586	-2.8791566051	 1.4711890682	 0.111734
H	 1.4934085433	-2.8372662619	-1.2289100122	 0.111771
141.1281	201.3	331.2728	331.8924	427.1662	438.5829	475.6433	510.8189	621.5974	675.6841	675.7327	714.4994	774.133	819.0939	833.0331	866.7704	895.1013	905.3652	916.9412	965.845	982.9376	1008.6988	1053.529	1071.11	1077.7087	1090.9233	1117.2851	1149.3731	1199.4812	1211.5908	1236.7614	1246.9345	1248.8279	1278.3181	1301.3424	1393.7679	1404.9846	1449.7442	1481.0333	1495.528	1527.8721	3053.9799	3077.1383	3114.9835	3118.1803	3119.9306	3145.0084	3166.5996	3173.6132	3185.3818	3688.6311
CC1(O)C2CC1C1OC21	C[C@@]1(O)[C@H]2C[C@@H]1[C@H]1O[C@@H]21	
InChI=1S/C7H10O2/c1-7(8)3-2-4(7)6-5(3)9-6/h3-6,8H,2H2,1H3	InChI=1S/C7H10O2/c1-7(8)3-2-4(7)6-5(3)9-6/h3-6,8H,2H2,1H3/t3-,4+,5-,6+,7+
