20
gdb 89763	2.06301	1.66203	1.11543	3.9827	83.15	-0.2816	0.0257	0.3073	1162.5594	0.170851	-366.01078	-366.001877	-366.000933	-366.044579	33.767	
C	-0.3418393198	 1.448289701	 0.0133103471	-0.401316
C	-0.0000710448	-0.0350167226	-0.0315918368	 0.007504
C	 1.2408671181	-0.3907838639	-0.9088921836	-0.319226
C	 2.0622549237	-0.5881592217	 0.3692074056	 0.371148
C	 3.3048359244	-1.3930298911	 0.5907603109	-0.330049
C	 3.3401228592	 0.1127329963	 0.723426486	-0.32231
C	 0.7757870713	-0.5889106172	 1.2264263808	-0.2392
C	 0.7700067085	 0.1967884632	 2.4480479117	 0.290776
N	 0.7878332297	 0.8331918695	 3.4140667327	-0.347687
H	 0.5417206925	 2.0546617289	 0.2375576204	 0.132236
H	-0.7371289949	 1.7732013708	-0.954679378	 0.117422
H	-1.0939634495	 1.6625020899	 0.7786501036	 0.133345
H	-0.8952021558	-0.6197796531	-0.2560278021	 0.083349
H	 1.1092096046	-1.3123787618	-1.483959745	 0.105312
H	 1.579275875	 0.3990202311	-1.5853540339	 0.106842
H	 3.3771558537	-1.9849074564	 1.4978711249	 0.121116
H	 3.7754213232	-1.8457632548	-0.2763200106	 0.11725
H	 3.8323796555	 0.6861723674	-0.0555586938	 0.116077
H	 3.4289782602	 0.5357881293	 1.7189174906	 0.138395
H	 0.4556365052	-1.6082927747	 1.4655141693	 0.119017
50.0421	121.426	152.6117	233.4202	244.2507	315.9485	333.4883	356.1045	385.6427	501.5996	546.6234	625.1691	767.3716	776.7995	804.1262	832.6324	898.1898	905.0828	940.2633	944.8522	981.091	1018.7598	1056.8014	1080.3594	1082.8943	1092.554	1122.5522	1159.5321	1189.1638	1218.3541	1234.4713	1262.5209	1284.3513	1326.4491	1358.3491	1379.6593	1416.3389	1464.1549	1487.6142	1494.0174	1497.1076	1503.2474	2346.8903	3035.5135	3048.106	3053.4688	3074.4273	3099.1432	3106.374	3112.2299	3123.831	3127.731	3203.2113	3218.2099
CC1CC2(CC2)C1C#N	C[C@H]1CC2(CC2)[C@H]1C#N	
InChI=1S/C8H11N/c1-6-4-8(2-3-8)7(6)5-9/h6-7H,2-4H2,1H3	InChI=1S/C8H11N/c1-6-4-8(2-3-8)7(6)5-9/h6-7H,2-4H2,1H3/t6-,7-/m0/s1
