18
gdb 102043	2.5175	0.97985	0.8428	2.3767	70.79	-0.258	-0.0351	0.223	1427.0161	0.144741	-476.222109	-476.211706	-476.210761	-476.258958	35.309	
C	 0.2247405398	 1.3355930286	-0.1803525059	-0.231044
O	 0.3580294408	-0.0852197471	-0.068664406	-0.228112
C	 0.5625222885	-0.5671790678	 1.169025162	 0.382376
N	 0.6420945845	 0.2016446241	 2.1775567767	-0.524179
C	 0.6594980094	-2.0848256735	 1.1389283944	-0.222249
C	 1.9988291498	-2.5708724983	 1.7360276393	-0.074009
O	 2.0475695155	-3.9757049467	 1.8662794669	-0.406941
C	-0.4947016918	-2.6998455777	 1.9271423032	 0.186972
O	-1.3050254215	-3.4516409728	 1.4602288468	-0.241526
H	 1.1277513038	 1.837144256	 0.1773117619	 0.140797
H	 0.0676840299	 1.5321492458	-1.2412297161	 0.131837
H	-0.6249833546	 1.6899956003	 0.4088373873	 0.142959
H	 0.7967117453	-0.3191307012	 3.0376281504	 0.225748
H	 0.5654523169	-2.4234898404	 0.1039126427	 0.111008
H	 2.8271488262	-2.1767749323	 1.1297160176	 0.114721
H	 2.1218180162	-2.1751232348	 2.7494982332	 0.118655
H	 1.9499472666	-4.368819633	 0.992435214	 0.293289
H	-0.5296806054	-2.3947688693	 2.9977234417	 0.079698
35.1998	60.9639	95.5741	129.3923	178.4932	186.5798	230.1998	254.8787	315.7436	338.8206	366.3996	455.2801	516.9987	698.7531	710.9395	847.2649	870.18	901.1856	993.467	1004.5864	1060.1201	1077.5996	1104.9367	1120.3503	1179.3182	1197.2055	1217.2516	1242.6281	1322.8487	1375.1183	1391.9303	1411.3113	1426.3428	1476.9222	1477.5462	1497.3879	1502.0208	1710.9991	1843.4235	2873.7061	3003.627	3050.1174	3074.1009	3093.0855	3124.5386	3156.4945	3519.9474	3812.3666
COC(=N)C(CO)C=O	CO[C]([NH])[C@@H](CO)C=O	
InChI=1S/C5H9NO3/c1-9-5(6)4(2-7)3-8/h2,4,6,8H,3H2,1H3	InChI=1S/C5H9NO3/c1-9-5(6)4(2-7)3-8/h2,4,6,8H,3H2,1H3/t4-/m1/s1
