19
gdb 77521	2.49973	1.58783	1.41239	2.1684	71.05	-0.2361	0.0624	0.2985	1023.2086	0.157998	-460.141456	-460.132795	-460.131851	-460.173835	34.214	
C	-0.0106898432	 1.4940532363	 0.1046216547	-0.492513
C	-0.0505394381	 0.002290911	-0.0547202584	 0.405703
C	 0.3303564113	-0.7809714375	-1.3430267664	-0.351054
C	-0.3661939078	-1.9342805929	-0.5480585392	 0.290443
O	-0.8785132546	-3.0999667063	-1.1073085038	-0.48677
C	 0.5603270626	-2.0338313398	 0.6768857698	-0.125507
O	 0.7675420276	-0.6394531492	 0.9502635206	-0.302291
C	-1.3514593378	-0.8437622161	-0.0427714845	 0.072321
O	-1.9897030166	-0.9816133318	 1.1941920389	-0.439859
H	 1.0176765964	 1.8597391269	 0.0291270488	 0.127379
H	-0.6123859163	 1.9811498226	-0.6676152622	 0.116075
H	-0.4043140626	 1.7760909424	 1.0855664514	 0.139976
H	-0.2272995015	-0.4800531527	-2.2314134209	 0.104649
H	 1.3980005708	-0.8719423089	-1.5521079229	 0.099892
H	-0.1459997838	-3.6788417771	-1.3454106118	 0.284246
H	 0.0731354362	-2.5247163314	 1.5258435793	 0.107054
H	 1.5144184923	-2.5312051311	 0.4570377802	 0.084569
H	-2.0393620504	-0.5354507924	-0.8400510179	 0.07476
H	-2.7079135545	-1.6144818519	 1.0911799643	 0.290928
189.9379	208.7174	212.2311	242.6485	260.102	270.8787	307.4182	323.6138	388.4438	485.5471	509.8636	596.6417	612.7469	646.7492	762.2933	779.5006	864.8741	888.1924	906.3056	952.1307	1002.9902	1029.9255	1062.3584	1104.7504	1131.46	1143.2128	1172.4407	1181.7449	1186.5135	1213.8801	1248.4164	1300.5313	1343.1437	1353.5828	1388.5536	1415.0608	1443.9222	1479.9745	1490.6839	1497.205	1519.5514	3011.7874	3029.8239	3044.1384	3073.1781	3076.0752	3116.455	3121.5393	3143.3434	3801.2046	3816.7636
CC12CC(O)(CO1)C2O	C[C@@]12C[C@@](O)(CO1)[C@H]2O	
InChI=1S/C6H10O3/c1-5-2-6(8,3-9-5)4(5)7/h4,7-8H,2-3H2,1H3	InChI=1S/C6H10O3/c1-5-2-6(8,3-9-5)4(5)7/h4,7-8H,2-3H2,1H3/t4-,5-,6+/m0/s1
