18
gdb 48715	3.6421	1.34619	1.15402	2.7636	76.49	-0.243	-0.0202	0.2228	1075.7183	0.148724	-401.921997	-401.914635	-401.913691	-401.953719	29.296	
O	-0.1142265818	 0.0375147375	 0.2056385197	-0.270019
C	 0.0213916484	 1.2134821838	-0.0345231539	 0.086189
C	 1.3031406058	 1.9435106813	 0.0041032313	 0.249293
C	 1.2687832281	 3.4491826293	 0.2314816915	-0.35106
C	 1.6519721455	 2.943607811	-1.1184602835	-0.034186
N	 3.0262507111	 2.739286263	-1.5503842672	-0.103184
C	 4.0958611421	 3.0954883986	-0.6051691483	-0.250695
C	 3.6233703891	 1.6915261171	-0.6858988949	-0.006551
C	 2.5867283991	 1.17829213	 0.3153124099	-0.341746
H	-0.8511269887	 1.8459755391	-0.32287849	 0.06661
H	 0.2845657953	 3.9020943375	 0.3136854361	 0.123999
H	 2.001660742	 3.8747952028	 0.9055545272	 0.128858
H	 0.9613964701	 3.1031504242	-1.9391866848	 0.111664
H	 5.0288897506	 3.3809524082	-1.0833053574	 0.121783
H	 3.8603333646	 3.6784330629	 0.2797121896	 0.11449
H	 4.2413702206	 0.9548963657	-1.1922725766	 0.100104
H	 2.9104937909	 1.3021947869	 1.3539181	 0.114794
H	 2.3918928772	 0.1136991613	 0.1634019814	 0.139659
104.6226	195.9491	214.1992	285.1449	328.8848	431.4301	473.3026	529.6991	648.7551	666.6815	727.2034	782.0165	809.0943	818.2394	871.7548	900.1981	935.0569	954.3657	1008.7013	1031.15	1059.8433	1081.329	1090.7265	1098.6802	1118.8984	1132.0957	1163.5327	1184.5431	1261.0484	1281.8208	1290.2501	1329.1541	1364.9436	1391.0615	1436.001	1473.5141	1494.9907	1519.6524	1806.1979	2852.6614	3054.7791	3106.4628	3115.5395	3129.3751	3142.6231	3171.5069	3196.6638	3218.0667
O=CC12CC1N1CC1C2	O=C[C@]12C[C@H]1N1C[C@H]1C2	
InChI=1S/C7H9NO/c9-4-7-1-5-3-8(5)6(7)2-7/h4-6H,1-3H2	InChI=1S/C7H9NO/c9-4-7-1-5-3-8(5)6(7)2-7/h4-6H,1-3H2/t5-,6-,7+,8?/m1/s1
