20
gdb 102995	1.96947	1.36288	1.11733	4.3115	80.84	-0.2279	0.0357	0.2636	1227.9948	0.171307	-399.322012	-399.311905	-399.310961	-399.356739	37.333	
C	 0.2160088731	 1.5495142864	 0.1593543552	-0.38711
C	-0.0980483057	 0.0715884344	-0.0992242701	-0.258343
C	 0.6987512992	-0.5100709031	-1.2612731983	 0.122983
C	 0.4839364737	 0.1348002816	-2.5281562491	 0.250278
N	 0.322519288	 0.6568704736	-3.5498519189	-0.362782
C	 2.1316747966	-1.0796588659	-1.0376181361	-0.01282
N	 2.7589759717	-1.1478305664	 0.2420150999	-0.523895
C	 1.0026661058	-2.0167820934	-1.3451269323	-0.099565
N	 0.5333634463	-2.8393840972	-0.2609991902	-0.519304
H	 1.2702817178	 1.6902298954	 0.419675425	 0.110607
H	 0.0078062073	 2.1606497356	-0.7239718177	 0.143354
H	-0.3887176611	 1.9337491868	 0.9860747942	 0.116629
H	 0.1071730402	-0.5226386589	 0.7931441135	 0.114048
H	-1.16836804	-0.0462516007	-0.3075208306	 0.109557
H	 2.8222625764	-0.8794279089	-1.8512283798	 0.116124
H	 3.0541093035	-0.2364718958	 0.5733141957	 0.239579
H	 2.1356445239	-1.5642427484	 0.9244841969	 0.248454
H	 0.9787217596	-2.4288733161	-2.3540953677	 0.101446
H	-0.4336842044	-3.1111835436	-0.4051567197	 0.244114
H	 1.0818262981	-3.6927029756	-0.2120897398	 0.246648
74.6909	122.5494	146.3343	172.3484	189.5595	223.6026	250.1718	291.7997	323.0435	386.1899	442.6585	468.521	561.5225	588.0569	607.371	672.3897	765.5458	803.1315	824.6513	890.1679	903.6129	963.2831	1002.3554	1037.1003	1077.9712	1104.8123	1156.8468	1183.4329	1218.8365	1251.6978	1282.517	1295.5105	1312.5329	1360.9068	1389.3806	1411.4297	1461.2618	1491.8579	1497.4793	1507.7962	1642.4965	1655.2745	2332.7396	3036.1998	3039.3844	3091.6548	3100.9017	3109.2773	3123.5846	3155.3012	3499.1248	3514.8928	3575.6446	3603.5955
CCC1(C#N)C(N)C1N	CC[C@@]1(C#N)[C@@H](N)[C@H]1N	
InChI=1S/C6H11N3/c1-2-6(3-7)4(8)5(6)9/h4-5H,2,8-9H2,1H3	InChI=1S/C6H11N3/c1-2-6(3-7)4(8)5(6)9/h4-5H,2,8-9H2,1H3/t4-,5+,6+
