17
gdb 66259	2.06343	1.64781	1.4159	4.5027	73.24	-0.2774	-0.0045	0.273	1031.453	0.136798	-418.046009	-418.037543	-418.036599	-418.079074	31.325	
C	-0.1786362614	 1.553921931	 0.0430076238	-0.433507
C	 0.0364048279	 0.0349948631	-0.0124246602	 0.014295
C	 0.9372216941	-0.4669669592	-1.1692151325	-0.258937
C	 1.5250051	-1.752123904	-0.5829820585	-0.101647
O	 1.6388721966	-1.4994001497	 0.831092765	-0.238467
C	 0.8125928081	-0.4888787114	 1.2093602153	 0.414639
N	 0.6975571578	-0.0208283628	 2.3717323586	-0.52964
C	-1.2602129505	-0.6589837528	-0.0673490668	 0.279828
N	-2.2744599987	-1.2085269447	-0.1409432387	-0.339792
H	 0.7898845465	 2.0602136863	 0.0561511788	 0.12977
H	-0.7488692246	 1.8955204379	-0.8244217993	 0.132639
H	-0.7153037317	 1.8188412173	 0.9551836536	 0.166749
H	 0.3949393366	-0.6293213534	-2.1013237298	 0.136288
H	 1.7256611048	 0.2711469756	-1.3436855632	 0.124801
H	 0.864449124	-2.6126806875	-0.7369280273	 0.138618
H	 2.5206369073	-1.9940194935	-0.958913339	 0.13091
H	 1.3032911233	-0.5124298022	 3.0303664903	 0.233452
88.254	142.6506	168.821	214.891	219.4348	268.6641	336.0924	426.4347	499.3615	549.4279	617.9315	659.7999	684.1101	719.0042	832.0968	890.5592	922.4373	936.494	964.8257	1010.6194	1044.6967	1086.2301	1148.5487	1176.8338	1191.3587	1243.672	1249.9891	1287.7784	1339.6358	1402.7056	1414.5613	1482.7787	1486.9932	1493.5223	1519.9272	1782.0887	2352.4706	3048.5902	3054.3786	3066.8355	3119.245	3130.219	3137.7094	3150.9228	3483.9323
CC1(CCOC1=N)C#N	C[C@]1(CCO[C]1[NH])C#N	
InChI=1S/C6H8N2O/c1-6(4-7)2-3-9-5(6)8/h8H,2-3H2,1H3	InChI=1S/C6H8N2O/c1-6(4-7)2-3-9-5(6)8/h8H,2-3H2,1H3/t6-/m0/s1
