19
gdb 72041	2.42866	1.91559	1.51228	2.42	73.68	-0.2275	0.0744	0.3019	952.3207	0.160862	-423.025271	-423.01776	-423.016815	-423.056477	31.374	
O	-0.1268280858	 1.3485789947	-0.0540455896	-0.474266
C	 0.0184219291	-0.0268495489	-0.0350631276	 0.374121
C	 1.127431328	-0.755915079	-0.7894539606	-0.284185
C	 0.6708050237	-2.1926326124	-0.4347053121	-0.049727
C	 0.5632934684	-2.1261663712	 1.1136951519	-0.221897
C	-0.3312770799	-0.8949373266	 1.1784795102	-0.223297
C	-1.2029821093	-0.9118729325	-0.0818243745	 0.374094
O	-2.4627912596	-0.3441104839	-0.1434680933	-0.474266
C	-0.8169636764	-2.1647944191	-0.8639655397	-0.284149
H	 0.5548490625	 1.7300133769	 0.5096501578	 0.281261
H	 1.1047177066	-0.5515567781	-1.8647318815	 0.101309
H	 2.128635145	-0.5227776166	-0.4079606562	 0.083876
H	 1.274148967	-3.0037922	-0.8413177048	 0.065668
H	 0.0999834559	-3.0231302691	 1.5397677183	 0.091152
H	 1.5371402212	-1.9818039148	 1.59485841	 0.091149
H	-0.6976266863	-0.4373769583	 2.0886073488	 0.0827
H	-3.0643130688	-0.8919644187	 0.3722360829	 0.281269
H	-0.949943309	-2.0403004253	-1.9434649548	 0.101308
H	-1.3680167424	-3.0563964071	-0.5419763554	 0.08388
224.4621	224.6927	263.8066	269.9887	382.0719	383.7833	423.4634	429.9033	516.5511	594.1828	599.7109	691.5711	702.8907	802.4872	892.2726	896.3582	900.9662	923.4772	929.6722	958.2395	973.7917	1016.5207	1049.8928	1115.4479	1126.48	1126.5866	1146.0869	1193.083	1216.8853	1230.7239	1250.6393	1282.6989	1291.3417	1316.3814	1324.3915	1326.1488	1367.215	1477.7569	1488.4076	1498.0008	1525.7497	3030.5191	3032.4222	3037.431	3073.0963	3083.6712	3086.576	3118.4783	3200.589	3796.3471	3796.3866
OC12CC3CC1C2(O)C3	O[C@@]12C[C@H]3C[C@@H]1[C@]2(O)C3	
InChI=1S/C7H10O2/c8-6-2-4-1-5(6)7(6,9)3-4/h4-5,8-9H,1-3H2	InChI=1S/C7H10O2/c8-6-2-4-1-5(6)7(6,9)3-4/h4-5,8-9H,1-3H2/t4-,5+,6+,7-
