15
gdb 128254	3.05996	1.36364	0.94885	6.0712	75.08	-0.2317	-0.0672	0.1644	1176.5339	0.112586	-450.108939	-450.100356	-450.099412	-450.143673	30.084	
C	-0.0439108541	 1.4467824485	 0.0610335486	-0.320549
N	 0.025231316	-0.0007172169	-0.0423269501	-0.358339
C	 0.6211394323	-0.6199067789	-1.0818451624	 0.412013
N	 1.1583041167	 0.0738874368	-2.0376855142	-0.370493
C	 1.7518676933	-0.5996540228	-3.0737527056	 0.449456
N	 2.303841788	-0.0252549568	-4.0552427135	-0.525966
O	 1.7550423046	-2.0280207375	-3.0578557462	-0.278172
N	 1.1836820274	-2.7471515877	-2.0412001967	-0.035449
C	 0.639638034	-2.0793117035	-1.0932062464	-0.038996
H	 0.959620598	 1.8822330765	 0.0819395432	 0.158521
H	-0.5724902258	 1.8709821366	-0.7977927233	 0.159036
H	-0.5728836086	 1.7063760368	 0.9790077451	 0.12961
H	-0.3800456216	-0.5636168035	 0.6846691303	 0.261346
H	 2.6778814489	-0.7167130247	-4.7041279946	 0.227058
H	 0.1935920508	-2.6713137629	-0.2992919845	 0.130924
26.482	75.4977	134.511	191.0471	204.1416	305.4408	406.3661	434.5991	482.823	589.7289	599.5514	712.0636	715.6366	752.5323	834.5844	851.118	876.4636	958.5979	1001.6802	1062.0307	1118.7909	1157.8281	1204.9197	1283.2177	1305.393	1385.6258	1459.0612	1472.4609	1510.0647	1573.4005	1628.0703	1691.8902	1757.618	3046.4309	3106.0668	3146.8972	3174.7874	3506.9219	3675.0477
CNC1=NC(=N)ON=C1	CN[C]1N=C([NH])ON=C1	
InChI=1S/C4H6N4O/c1-6-3-2-7-9-4(5)8-3/h2H,1H3,(H2,5,6,8)	InChI=1S/C4H6N4O/c1-6-3-2-7-9-4(5)8-3/h2H,1H3,(H2,5,6,8)
