21
gdb 89078	5.52595	0.60338	0.58209	4.7457	84.62	-0.2407	0.0256	0.2663	1917.7098	0.182406	-383.257161	-383.247091	-383.246147	-383.293544	35.982	
C	 0.1633543473	 1.3290137915	-0.5212506165	-0.405956
C	-0.0170274022	 0.0173467038	 0.2135759062	 0.000932
C	 1.1236162481	-0.9584605492	 0.3672747706	-0.298459
C	 0.5597352565	-0.2600194448	 1.586549414	-0.00273
C	 1.3981915502	 0.7491058956	 2.352042454	-0.189806
N	 2.4055507247	 0.1886055338	 3.2596972974	-0.281918
C	 1.8483801694	-0.5559522076	 4.3825981697	-0.271176
C	 2.9110076937	-1.0079621581	 5.2870876432	 0.262793
N	 3.7448926694	-1.3885720081	 5.989775239	-0.299945
H	 1.1705272582	 1.7378825033	-0.4011208988	 0.118761
H	-0.001596361	 1.1890512398	-1.5950731069	 0.121459
H	-0.5476883611	 2.0864342342	-0.1729667358	 0.119496
H	-0.9904565147	-0.4366634672	 0.0443523326	 0.086876
H	 0.9388305263	-2.018602355	 0.2329104303	 0.113105
H	 2.0991834261	-0.6332367377	 0.0149224129	 0.108607
H	-0.0765671408	-0.8744420471	 2.2192162613	 0.082506
H	 1.933588054	 1.4004698484	 1.6547382313	 0.108756
H	 0.7487722882	 1.40326437	 2.9487359475	 0.10874
H	 3.0371620379	-0.4123206325	 2.7388848729	 0.230187
H	 1.1808690373	 0.1098502954	 4.9443879679	 0.153982
H	 1.2490787523	-1.4418774486	 4.1093971473	 0.133789
36.5565	52.6751	89.0509	160.5223	187.7192	213.3598	226.9203	329.9429	391.529	408.3259	426.281	498.248	586.5959	732.6974	772.0327	837.1752	868.0615	880.6957	922.4033	949.2167	964.7619	990.483	1035.2381	1065.8577	1095.2553	1114.5935	1135.7222	1154.3377	1178.2846	1199.2874	1234.2202	1250.8708	1313.2335	1351.7508	1385.3932	1399.6823	1421.5188	1433.0328	1473.4773	1490.0041	1494.94	1495.5438	1502.4246	1508.7446	2367.5027	2952.839	3024.6601	3032.748	3045.8604	3079.8179	3090.4607	3106.3036	3119.7299	3126.395	3138.8972	3205.7478	3517.4122
CC1CC1CNCC#N	C[C@H]1C[C@H]1CNCC#N	
InChI=1S/C7H12N2/c1-6-4-7(6)5-9-3-2-8/h6-7,9H,3-5H2,1H3	InChI=1S/C7H12N2/c1-6-4-7(6)5-9-3-2-8/h6-7,9H,3-5H2,1H3/t6-,7-/m0/s1
