18
gdb 40472	3.81967	1.34233	1.23057	0.9447	76.1	-0.2352	0.0575	0.2927	1064.4616	0.14798	-401.81625	-401.809033	-401.808089	-401.848196	28.826	
C	-0.1729003511	 1.4228312544	-0.0528628673	-0.267983
C	 1.2466400035	 0.9684018073	 0.1703071231	-0.267982
C	 0.1343647128	-0.0492893578	 0.0840603718	-0.165633
C	-0.2867698094	-0.764461389	 1.3063451673	 0.522939
O	-0.2645681142	-0.0662571711	 2.5929225276	-0.359296
C	-0.7458439719	-1.3968211184	 2.9394609634	 0.067278
C	-1.5873068641	-1.5757649666	 1.6362476676	-0.129765
N	-0.9480514703	-2.867018931	 1.2212779919	-0.350162
C	 0.1659963096	-2.1383260075	 1.911257136	-0.129798
H	-0.6781023002	 1.898882347	 0.7795774189	 0.131189
H	-0.4534832237	 1.7926697814	-1.0325197317	 0.112331
H	 1.9472371419	 1.0241415607	-0.6550964485	 0.112332
H	 1.6760059351	 1.1452348802	 1.1496838134	 0.131222
H	 0.0786448002	-0.6623639116	-0.8098804704	 0.105454
H	-0.9791759054	-1.614120394	 3.9825680432	 0.094586
H	-2.6276226862	-1.3159700618	 1.4381797905	 0.090549
H	-1.285863298	-3.6313516877	 1.8114818328	 0.21219
H	 1.1738988714	-2.5357322446	 2.0344791105	 0.09055
74.2664	157.4452	172.6917	302.6528	407.8369	539.6852	547.4911	615.7385	757.8951	773.5361	788.7423	812.612	818.9225	861.9152	872.1664	887.7651	902.2182	938.1486	944.0789	991.3621	1050.4346	1061.4674	1068.443	1087.5046	1109.4239	1128.8608	1134.3152	1135.9862	1151.4664	1203.6143	1206.762	1216.383	1230.5436	1289.9813	1290.9942	1335.8629	1456.3262	1461.6291	1503.0775	3107.5171	3116.2775	3127.7225	3138.9417	3142.1333	3163.783	3223.0325	3237.4174	3408.4925
C1CC1C12OC3C1NC23	C1CC1[C@@]12O[C@H]3[C@@H]1N[C@@H]23	
InChI=1S/C7H9NO/c1-2-3(1)7-5-4(9-7)6(7)8-5/h3-6,8H,1-2H2	InChI=1S/C7H9NO/c1-2-3(1)7-5-4(9-7)6(7)8-5/h3-6,8H,1-2H2/t4-,5-,6+,7+
