17
gdb 66293	2.03081	1.71799	1.37833	3.1084	68.07	-0.2663	-0.0498	0.2165	1025.4881	0.135129	-459.023274	-459.014596	-459.013652	-459.057021	31.166	
C	-0.1776644038	 1.750901586	 0.3036270986	-0.45129
C	 0.0880504692	 0.2585903217	 0.0610692209	 0.019948
C	 0.8832876471	-0.1057866177	-1.1955694979	-0.276472
C	 1.6877201743	-1.333094236	-0.7440890982	-0.093831
O	 1.8474402372	-1.2003312212	 0.6852578706	-0.220973
C	 0.9577824848	-0.3227523799	 1.1967735889	 0.429201
O	 0.8760136047	-0.0700408294	 2.3643516853	-0.346261
C	-1.2459522962	-0.4947365973	 0.1275553078	 0.142554
O	-1.6413709374	-1.2546730958	-0.716621356	-0.248159
H	 0.7612508101	 2.3108304289	 0.2892839754	 0.136036
H	-0.8369106824	 2.1619672798	-0.4666348414	 0.129555
H	-0.639723443	 1.8985893453	 1.2830595612	 0.150725
H	 0.2347907451	-0.3369907972	-2.0417587971	 0.136899
H	 1.5505818988	 0.715866253	-1.4697182283	 0.114285
H	 1.1535563872	-2.2667996648	-0.9424002655	 0.138745
H	 2.6865531928	-1.3913411237	-1.1796170638	 0.129414
H	-1.8379235485	-0.2766710317	 1.0416281294	 0.109625
63.5554	98.701	186.2017	195.6973	210.3336	276.3921	283.8684	340.5073	486.8343	562.0629	601.0729	696.8751	731.2504	773.3543	805.586	915.3068	931.2692	973.1526	1011.7249	1043.8383	1052.3186	1120.5733	1172.7237	1188.0672	1239.3553	1252.3986	1264.0864	1338.3963	1397.3944	1400.2063	1421.6084	1479.4268	1492.6237	1496.3469	1521.8301	1820.6865	1868.6887	2915.5589	3044.8318	3065.0066	3068.8977	3119.1064	3121.5169	3129.2228	3136.1415
CC1(CCOC1=O)C=O	C[C@]1(CCOC1=O)C=O	
InChI=1S/C6H8O3/c1-6(4-7)2-3-9-5(6)8/h4H,2-3H2,1H3	InChI=1S/C6H8O3/c1-6(4-7)2-3-9-5(6)8/h4H,2-3H2,1H3/t6-/m0/s1
