19
gdb 102740	3.18552	0.91729	0.75254	3.9471	75.85	-0.252	0.0227	0.2747	1496.029	0.159194	-419.18631	-419.176673	-419.175729	-419.221691	34.303	
O	-0.0131559236	 1.4652802261	 0.1130038498	-0.414917
C	 0.0040327373	 0.0725926307	-0.0832037564	-0.071435
C	-1.4088247299	-0.5621068497	-0.0312331354	-0.14818
C	-1.366793992	-2.0873995591	-0.2834227733	-0.247403
C	-2.7264705548	-2.7073442862	-0.5193995239	 0.024971
C	-3.0018491171	-4.0999239248	-0.0867676483	-0.247602
N	-3.6562929304	-2.9683027467	 0.5887721072	-0.303758
C	-2.0112872602	-0.2478618261	 1.2676446677	 0.273645
N	-2.4183915986	 0.0161851416	 2.3176756879	-0.335175
H	-0.2879554386	 1.6399381869	 1.0206255747	 0.299944
H	 0.4152804388	-0.0951311346	-1.0832762187	 0.122691
H	 0.6561353469	-0.4413354235	 0.6393400259	 0.10625
H	-2.0174538832	-0.0783604403	-0.8047798329	 0.138511
H	-0.7368753853	-2.2592347404	-1.1655367652	 0.117253
H	-0.8705607768	-2.57966151	 0.5615971149	 0.112381
H	-3.2294429121	-2.3440301512	-1.4150789536	 0.095964
H	-3.6645924671	-4.7331931051	-0.6694569767	 0.122984
H	-2.2088464556	-4.6334760694	 0.4322584629	 0.112167
H	-3.2108680175	-2.7764546781	 1.4829663134	 0.24171
57.5718	78.7875	103.7476	142.8903	179.5571	228.7408	285.7966	334.6561	379.3347	438.7847	447.8697	561.1045	629.0273	782.2473	799.2674	830.1611	911.563	939.2391	959.0192	1012.7857	1037.7068	1058.6046	1083.5122	1097.7266	1132.1381	1152.5217	1173.7813	1207.9458	1242.8454	1266.5872	1276.6137	1311.5937	1347.264	1367.0502	1392.6814	1421.8324	1432.3881	1475.208	1503.239	1514.6946	2347.1649	2991.7267	3024.3271	3047.2788	3068.971	3087.8946	3106.1039	3112.944	3191.4149	3503.9283	3798.0384
OCC(CC1CN1)C#N	OC[C@@H](C[C@H]1CN1)C#N	
InChI=1S/C6H10N2O/c7-2-5(4-9)1-6-3-8-6/h5-6,8-9H,1,3-4H2	InChI=1S/C6H10N2O/c7-2-5(4-9)1-6-3-8-6/h5-6,8-9H,1,3-4H2/t5-,6-/m0/s1
