19
gdb 95669	3.32478	1.21242	0.92851	5.911	83.04	-0.2026	-0.0052	0.1974	1258.2172	0.161809	-419.244961	-419.23629	-419.235346	-419.278558	32.206	
C	-0.0627630927	 1.4411227094	-0.5317186031	-0.338782
N	-0.0326853569	 0.210467518	 0.2382630107	-0.063535
C	-1.3055276369	-0.4785113889	 0.3647137302	-0.145113
C	-1.3799671522	-1.3987066877	 1.5881493321	-0.185266
N	-0.6996161785	-2.6592032333	 1.4006494959	-0.333563
C	 0.6643857663	-2.8237055441	 1.2485366087	 0.360535
O	 1.1665473707	-3.9277986644	 1.4135232433	-0.396562
C	 1.4786075195	-1.6611168674	 0.874898572	-0.233251
C	 1.1634960057	-0.419489289	 0.433704794	 0.032833
H	 0.9050435968	 1.9427756877	-0.4679796302	 0.137463
H	-0.2899172708	 1.2667454193	-1.5945833536	 0.125376
H	-0.8258845682	 2.1170929194	-0.1304435635	 0.128825
H	-2.0786206458	 0.2928031367	 0.4574599985	 0.106691
H	-1.5331243593	-1.0681364039	-0.5366514786	 0.115945
H	-1.0118961654	-0.8490576753	 2.4669086712	 0.119906
H	-2.4348260752	-1.623654992	 1.767167156	 0.116301
H	-1.1513907937	-3.495096482	 1.7392592414	 0.24004
H	 2.5371603279	-1.8824848514	 0.9320380763	 0.101647
H	 2.0027120586	 0.229884189	 0.1971408485	 0.110508
76.0327	101.7153	142.5458	197.0307	273.8091	337.788	369.6146	391.5836	424.0665	499.307	539.9152	619.7688	721.5526	732.0939	780.418	821.9321	904.5628	924.8878	976.5371	992.5079	1082.3908	1098.5619	1145.2162	1156.1008	1206.8273	1241.3665	1274.1199	1309.773	1341.578	1390.7855	1403.2581	1422.8196	1452.1268	1463.6939	1475.5101	1482.8514	1496.7833	1497.6735	1528.2504	1683.9762	1748.7912	2984.2028	2989.1209	3001.9687	3057.0046	3061.4483	3091.5432	3123.7515	3156.9204	3208.3584	3621.3688
CN1CCNC(=O)C=C1	CN1CCNC(=O)C=C1	
InChI=1S/C6H10N2O/c1-8-4-2-6(9)7-3-5-8/h2,4H,3,5H2,1H3,(H,7,9)	InChI=1S/C6H10N2O/c1-8-4-2-6(9)7-3-5-8/h2,4H,3,5H2,1H3,(H,7,9)
