19
gdb 80294	2.4193	1.56251	1.27907	4.0003	75.21	-0.2275	0.0552	0.2827	1080.378	0.160004	-419.251144	-419.24236	-419.241416	-419.284109	33.661	
C	-0.0502664385	 1.5580112177	 0.0636344257	-0.438901
C	 0.0433537133	 0.0504645286	 0.0690009583	-0.071702
C	 1.3307563154	-0.715957586	-0.22236385	-0.073046
N	 2.5953258936	-0.0614349457	-0.0577048812	-0.333578
C	 2.7322176352	 0.4644334691	 1.2250359474	 0.409459
O	 3.5737149393	 1.2478456508	 1.6037018679	-0.410142
N	 1.706408399	-0.092728283	 1.9794343033	-0.380689
C	 0.7259779358	-0.7633615846	 1.1659502011	 0.309292
C	 0.0795623684	-1.9823490925	 1.7729671415	-0.465441
H	 0.8440086416	 2.0335067728	 0.4730812424	 0.144303
H	-0.1874786299	 1.9352697214	-0.9556266937	 0.121645
H	-0.9048597607	 1.8967120218	 0.6593208219	 0.121485
H	-0.8326324045	-0.4534530874	-0.3337179489	 0.086535
H	 1.3146856114	-1.5791817603	-0.8795304674	 0.102196
H	 3.0462854609	 0.4392900868	-0.8063552917	 0.254198
H	 1.4773397394	 0.3489245605	 2.8550630306	 0.250942
H	-0.5638056793	-1.7081431456	 2.6174929718	 0.120509
H	-0.5457381119	-2.4969735934	 1.0380082742	 0.121612
H	 0.8376028014	-2.682445851	 2.1379923867	 0.131321
119.6535	143.6078	193.7142	210.1554	220.6219	268.7527	321.6269	407.811	474.8544	492.2729	517.637	580.5882	627.1578	697.4281	765.2277	770.8801	804.6686	876.767	957.3527	984.1142	1000.4108	1021.6646	1065.5026	1114.6365	1124.0024	1137.5102	1157.6189	1241.0836	1256.0075	1335.4285	1375.1021	1378.8727	1388.147	1417.8364	1423.3819	1456.7381	1485.	1494.7182	1500.192	1505.5873	1846.6178	3029.4687	3035.4417	3090.8409	3092.2917	3115.1254	3119.0628	3136.0268	3158.7705	3646.1234	3649.3154
CC1C2NC(=O)NC12C	C[C@H]1[C@H]2NC(=O)N[C@@]12C	
InChI=1S/C6H10N2O/c1-3-4-6(3,2)8-5(9)7-4/h3-4H,1-2H3,(H2,7,8,9)	InChI=1S/C6H10N2O/c1-3-4-6(3,2)8-5(9)7-4/h3-4H,1-2H3,(H2,7,8,9)/t3-,4+,6-/m0/s1
