18
gdb 98088	4.24092	0.88063	0.77752	1.6484	75.09	-0.2468	-0.0895	0.1573	1490.4301	0.145686	-439.092744	-439.083086	-439.082142	-439.128724	33.49	
C	-0.1991081939	 1.5607354413	 0.0976570056	-0.385727
C	 0.217676788	 0.0934375381	 0.0618061103	-0.27601
C	 0.8150906213	-0.3261701314	-1.261157743	 0.294261
O	 0.9539397775	 0.4103882067	-2.2107598608	-0.28367
C	 1.2655536732	-1.8016064338	-1.3684255996	 0.284881
O	 1.0905083836	-2.566231249	-0.4402112217	-0.321837
C	 1.9080146734	-2.2156321263	-2.6422068373	-0.10305
C	 3.1963099083	-2.9811477485	-2.5064708519	-0.215168
N	 1.9800863697	-3.6609781825	-2.915290687	-0.302466
H	 0.6561538899	 2.2164114421	-0.0861554954	 0.131891
H	-0.9444010094	 1.775884095	-0.6725883866	 0.133029
H	-0.6256667137	 1.8142611456	 1.0715885181	 0.116982
H	 0.9487444613	-0.1468757262	 0.8450048982	 0.139964
H	-0.623762042	-0.5802592127	 0.2699865185	 0.143216
H	 1.7656601287	-1.5635765407	-3.4940126946	 0.12812
H	 3.9490958953	-2.8535382445	-3.2786266384	 0.134828
H	 3.5719489111	-3.1396687424	-1.4992622383	 0.132337
H	 1.5859879579	-4.1374247106	-2.1027004961	 0.248418
40.2065	53.3972	86.8143	144.1329	188.2878	247.0016	263.3911	314.9574	323.071	426.6956	511.659	683.382	694.2131	780.0458	821.3247	844.3553	854.5197	917.6159	986.3639	1007.2287	1009.2888	1082.0711	1099.5457	1118.436	1134.2668	1176.4063	1204.1695	1260.2042	1286.6614	1316.805	1371.9112	1404.3811	1416.4238	1435.0638	1494.1787	1495.9927	1498.1847	1770.678	1800.075	3035.4482	3052.1377	3057.6938	3113.4366	3124.5323	3125.5623	3203.8823	3212.8062	3459.84
CCC(=O)C(=O)C1CN1	CCC(=O)C(=O)[C@H]1CN1	
InChI=1S/C6H9NO2/c1-2-5(8)6(9)4-3-7-4/h4,7H,2-3H2,1H3	InChI=1S/C6H9NO2/c1-2-5(8)6(9)4-3-7-4/h4,7H,2-3H2,1H3/t4-/m1/s1
