17
gdb 81760	3.28447	1.24369	1.07956	2.1048	75.81	-0.2404	0.0295	0.2699	1134.2055	0.133967	-421.759371	-421.750467	-421.749523	-421.792737	33.85	
O	-0.0100935798	 1.4325144367	 0.194505936	-0.444776
C	-0.0525599395	 0.0372359629	 0.0739472585	 0.128006
C	-1.4249113944	-0.6488134848	 0.0353177856	-0.125709
C	-2.19529329	-0.2189916673	-1.1669404054	-0.335788
C	-1.1000658809	-1.2481818079	-1.3651853888	 0.186715
C	-1.3286659686	-2.5557214083	-1.8751301799	 0.142477
C	-1.4885309675	-3.6633444172	-2.3201268547	-0.395182
C	 0.2674201981	-0.5417468811	-1.3449782049	-0.029459
O	 0.4829691391	 0.5051502126	-2.2696798673	-0.436439
H	 0.0889686863	 1.7810291937	-0.7011412109	 0.29873
H	 0.5919918537	-0.4024903747	 0.8410464217	 0.088949
H	-1.8919361723	-1.165537374	 0.864335913	 0.10488
H	-3.2010220154	-0.614929402	-1.24805118	 0.131288
H	-2.063982904	 0.778293239	-1.5743812374	 0.120764
H	-1.6378474427	-4.6414018215	-2.7049583496	 0.18496
H	 1.0994411991	-1.2540853606	-1.3477288979	 0.083748
H	 0.3685314891	 0.1671813246	-3.1636550882	 0.296835
77.6606	136.1111	172.1889	176.9995	271.0958	291.6119	354.0608	399.6779	456.8558	523.5277	547.5863	568.4898	595.6023	650.9076	689.4547	737.4537	806.6842	848.9861	902.192	961.4869	987.1421	1022.9017	1077.9296	1082.4364	1100.0735	1131.3932	1148.264	1211.7597	1258.6692	1274.9714	1304.2156	1350.0279	1383.6659	1397.0407	1430.2137	1489.0295	2229.1843	3043.7292	3063.9451	3134.1949	3196.6505	3225.442	3503.1314	3764.6195	3825.3635
OC1C2CC2(C#C)C1O	O[C@H]1[C@H]2C[C@@]2(C#C)[C@H]1O	
InChI=1S/C7H8O2/c1-2-7-3-4(7)5(8)6(7)9/h1,4-6,8-9H,3H2	InChI=1S/C7H8O2/c1-2-7-3-4(7)5(8)6(7)9/h1,4-6,8-9H,3H2/t4-,5+,6+,7-/m1/s1
