22
gdb 122489	3.04418	0.71976	0.63061	3.7034	84.9	-0.2488	0.0043	0.2531	1842.1149	0.19281	-404.351931	-404.34168	-404.340736	-404.388317	36.343	
C	-0.306615508	 1.387056307	-0.2358175731	-0.38203
C	-0.089534417	-0.1270548114	-0.1755332602	-0.165388
C	 0.7002271848	-0.6692531322	-1.371388433	-0.164588
C	 0.9160613173	-2.1878557047	-1.3118846137	-0.215312
C	 1.7487905562	-2.730682598	-2.4530443754	-0.00945
C	 1.617191724	-4.1634897562	-2.8914820788	-0.254131
N	 1.1447861632	-3.0883985553	-3.7302807538	-0.06076
C	-0.168940602	-2.9224046664	-4.1221683749	 0.134628
O	-0.9215461148	-3.818558772	-4.4207414931	-0.292377
H	 0.6481542963	 1.9244422122	-0.2528817124	 0.114982
H	-0.8614610938	 1.6720297268	-1.1365022254	 0.116912
H	-0.8730602943	 1.7430869949	 0.6300551821	 0.115051
H	 0.4372151287	-0.3867542161	 0.7523417017	 0.096682
H	-1.0613307378	-0.63553979	-0.1240711309	 0.100299
H	 0.1776369933	-0.4085120935	-2.3013265278	 0.101338
H	 1.6760274463	-0.1666259025	-1.422729236	 0.097427
H	 1.4238663241	-2.4430315091	-0.3718791957	 0.108318
H	-0.0518852212	-2.7053546209	-1.2916412204	 0.110953
H	 2.7316581613	-2.2704261473	-2.5555151334	 0.100852
H	 2.4881159607	-4.7044233411	-3.2510992218	 0.12695
H	 0.8587209608	-4.7754196054	-2.4088741495	 0.135699
H	-0.438719718	-1.8524147288	-4.2099215044	 0.083946
52.6651	70.3969	110.7705	118.5831	143.6591	220.9323	245.7962	253.6402	324.4774	342.1027	463.9585	493.2994	618.2291	735.9957	790.8908	809.7348	878.1689	901.6659	927.8409	967.0716	1023.7941	1036.6321	1045.4833	1067.6676	1085.8244	1124.5794	1132.3891	1145.8523	1161.0363	1198.181	1247.2413	1277.6193	1317.6472	1333.199	1355.7144	1381.2181	1397.6645	1413.8629	1418.7753	1436.4891	1473.7493	1484.9073	1497.5404	1500.3499	1511.7433	1512.7067	1794.7719	2949.974	3008.1397	3012.6058	3020.6775	3030.5574	3032.9947	3047.979	3066.4586	3097.0988	3104.4979	3108.4905	3110.4802	3197.2891
CCCCC1CN1C=O	CCCC[C@H]1CN1C=O	
InChI=1S/C7H13NO/c1-2-3-4-7-5-8(7)6-9/h6-7H,2-5H2,1H3	InChI=1S/C7H13NO/c1-2-3-4-7-5-8(7)6-9/h6-7H,2-5H2,1H3/t7-,8?/m0/s1
