18
gdb 52823	2.59773	1.00335	0.95364	3.4224	82.61	-0.2324	0.0286	0.2611	1379.1241	0.145601	-401.951833	-401.941722	-401.940778	-401.9888	34.978	
C	-0.0027597811	 1.4996202865	-0.0150772923	-0.499794
C	 0.0342439492	 0.0445557008	-0.0029758446	 0.052727
C	 0.057930211	-1.1598218691	 0.0035744942	 0.060114
C	 0.0782159189	-2.6100267513	-0.0036712722	-0.02889
C	 1.0373782991	-3.1855662929	-1.0529973739	-0.44135
C	 0.163511645	-3.2812243176	 1.4177686845	-0.195476
N	-1.1672076586	-3.8345495995	 1.1694589854	-0.323431
C	-1.3486736646	-3.2773415986	-0.0674924541	 0.405951
O	-2.237157457	-3.3191258183	-0.8715246882	-0.359677
H	 0.6958451118	 1.9093611725	-0.7528328931	 0.149332
H	-1.0037698377	 1.8676562611	-0.2656587449	 0.15377
H	 0.2675501231	 1.9131365914	 0.9628789704	 0.147212
H	 2.0562089236	-2.825074627	-0.8853213564	 0.126126
H	 1.0396294462	-4.2795290113	-1.0156888821	 0.120068
H	 0.7218020142	-2.8765276873	-2.0525134491	 0.146385
H	 0.9533594051	-4.0329921189	 1.5165246117	 0.112222
H	 0.2101669916	-2.5739525157	 2.2496007702	 0.121804
H	-1.7631043598	-4.4334160949	 1.7211682546	 0.252908
13.7063	80.9639	85.7576	127.2595	197.4495	226.2813	268.1428	290.4201	303.687	411.9171	441.7173	508.2989	551.0885	622.0896	727.8121	772.1071	849.2349	883.7232	966.1526	1004.6041	1051.4837	1053.3646	1070.5319	1120.4929	1152.8986	1163.0689	1195.136	1290.4571	1300.7219	1387.7208	1409.0184	1414.8136	1477.0701	1478.2932	1487.0592	1494.6396	1525.2461	1901.2368	2367.0334	3026.7509	3038.7398	3043.2749	3087.5399	3088.7623	3100.3663	3112.7238	3127.0449	3613.7048
CC#CC1(C)CNC1=O	CC#C[C@@]1(C)CNC1=O	
InChI=1S/C7H9NO/c1-3-4-7(2)5-8-6(7)9/h5H2,1-2H3,(H,8,9)	InChI=1S/C7H9NO/c1-3-4-7(2)5-8-6(7)9/h5H2,1-2H3,(H,8,9)/t7-/m0/s1
