12
gdb 66414	2.38591	1.56885	1.29103	5.0978	59.8	-0.2892	-0.0361	0.2531	974.7751	0.07612	-472.610326	-472.6027	-472.601756	-472.642675	27.639	
O	-0.083887235	 1.4699215299	 0.0431785997	-0.427805
C	-0.0219488134	 0.1131050748	-0.0234293899	 0.185495
C	-1.1155573236	-0.9071754728	-0.0994677561	 0.040923
O	-0.3695836934	-1.7091639649	-1.042419178	-0.244983
C	 0.637059334	-0.7435161427	-1.1029910901	 0.409916
O	 1.572831468	-0.6992782979	-1.8221962555	-0.302778
C	-0.3476403012	-0.8091698182	 1.1913381309	-0.293656
C	 0.5183315423	-1.8484133833	 1.6771212027	 0.318781
N	 1.2225193101	-2.6703706867	 2.0831176647	-0.322728
H	 0.7426447291	 1.8079204264	 0.4096532782	 0.316118
H	-2.1859183309	-0.8336723789	-0.2256385047	 0.159515
H	-0.8622428359	-0.2411691556	 1.9632225781	 0.161203
100.2443	136.2282	208.7	237.7645	309.079	345.9302	389.7661	494.846	526.6459	639.2081	678.8684	735.2178	770.2051	834.517	915.6063	931.9978	942.6792	1005.4503	1043.6549	1082.2929	1178.3677	1264.8154	1300.7207	1338.0899	1494.9629	1967.6086	2360.8766	3152.7566	3237.9862	3787.5274
OC12C(OC1=O)C2C#N	O[C@@]12[C@@H](OC1=O)[C@H]2C#N	
InChI=1S/C5H3NO3/c6-1-2-3-5(2,8)4(7)9-3/h2-3,8H	InChI=1S/C5H3NO3/c6-1-2-3-5(2,8)4(7)9-3/h2-3,8H/t2-,3+,5+/m1/s1
