14
gdb 20423	6.36229	1.55055	1.36582	2.5227	63.25	-0.2428	0.0143	0.2571	877.3033	0.110508	-374.895204	-374.888743	-374.887799	-374.927173	23.462	
C	 0.3082298945	 1.6479798513	 0.1342410999	-0.215279
C	 1.0949944023	 0.4998930797	-0.3721799064	-0.228132
N	-0.2804340396	 0.3026616447	 0.1496820034	-0.207334
C	-0.3860260034	-0.3053771048	 1.4016996715	 0.449152
N	 0.0330641569	 0.1179050269	 2.5824250394	-0.322808
C	-0.3661376488	-0.8827599121	 3.4176882793	 0.027856
N	-0.9980170327	-1.8890367059	 2.8396819819	-0.214289
N	-1.0033798624	-1.496545311	 1.5395094749	-0.252997
H	 0.5915254064	 2.0637791244	 1.0952630339	 0.160362
H	-0.1655563314	 2.331148322	-0.5634836436	 0.126743
H	 1.2010121593	 0.3266677032	-1.4382143508	 0.129207
H	 1.9095436632	 0.1409441034	 0.2498320056	 0.141184
H	-0.1864179465	-0.8654949595	 4.4824022763	 0.125345
H	-1.446023738	-2.0561784223	 0.8294851746	 0.28099
21.6785	173.0946	222.1269	402.9036	464.1679	566.1795	627.4397	698.1184	772.9819	824.0967	851.5919	907.0217	917.9348	982.1449	1044.1778	1053.3911	1113.5985	1120.3008	1143.3434	1177.9927	1187.319	1221.407	1251.2881	1303.4895	1328.3954	1425.558	1482.4335	1508.2905	1512.6211	1584.901	3120.9548	3127.994	3212.6359	3229.0918	3257.2681	3669.4411
C1CN1C1=NC=NN1	C1CN1c1ncn[nH]1	
InChI=1S/C4H6N4/c1-2-8(1)4-5-3-6-7-4/h3H,1-2H2,(H,5,6,7)	InChI=1S/C4H6N4/c1-2-8(1)4-5-3-6-7-4/h3H,1-2H2,(H,5,6,7)
