18
gdb 53273	2.42066	1.05712	0.85921	3.115	82.8	-0.2293	0.0214	0.2506	1420.1954	0.146091	-401.950864	-401.940802	-401.939858	-401.987442	35.382	
C	 0.1635455017	 1.536755183	-0.3487385254	-0.49936
C	 0.0993091231	 0.087809003	-0.2312624493	 0.051937
C	 0.0295932043	-1.108666112	-0.1131779933	 0.119911
C	-0.0190579693	-2.5370026263	-0.0017691749	-0.194254
C	-0.3366804898	-3.2275839843	 1.3013455554	-0.287495
C	-1.3464891433	-3.2981394659	 0.1909223797	-0.128448
C	-2.6141696662	-2.510808823	 0.3493985343	 0.413614
N	-3.608662886	-2.858249967	-0.5290484902	-0.536225
O	-2.7649480795	-1.6524579809	 1.196801637	-0.362744
H	 1.0721734015	 1.936792399	 0.1153564988	 0.14529
H	 0.1593879484	 1.8560235263	-1.3970934538	 0.14236
H	-0.6945451486	 2.0063587911	 0.1446964022	 0.155164
H	 0.680132702	-3.0628937493	-0.6470517572	 0.110745
H	 0.2174142664	-4.1242501955	 1.5530108178	 0.115293
H	-0.61797846	-2.5871331111	 2.1286823092	 0.153882
H	-1.4266340838	-4.224838956	-0.368430498	 0.086596
H	-3.4016086172	-3.3902941451	-1.3572030031	 0.254992
H	-4.4188681538	-2.259308596	-0.5530745294	 0.25874
33.1275	50.9388	72.3516	124.7817	191.7981	243.8343	314.0164	323.984	330.829	422.0748	474.2579	512.8831	570.7663	624.3545	693.6746	741.7861	807.0929	839.6705	910.7023	938.1506	1038.15	1051.3731	1054.4184	1082.4343	1093.4647	1121.8386	1123.5882	1177.1159	1240.6805	1280.0678	1392.5641	1414.2124	1430.7975	1471.7366	1478.025	1478.7133	1619.0719	1795.0424	2373.2178	3024.5676	3082.2707	3088.268	3132.5729	3144.4608	3157.5653	3245.4848	3591.419	3722.4144
CC#CC1CC1C(N)=O	CC#C[C@H]1C[C@H]1C(=O)N	
InChI=1S/C7H9NO/c1-2-3-5-4-6(5)7(8)9/h5-6H,4H2,1H3,(H2,8,9)	InChI=1S/C7H9NO/c1-2-3-5-4-6(5)7(8)9/h5-6H,4H2,1H3,(H2,8,9)/t5-,6+/m0/s1
