19
gdb 121654	3.84188	0.7449	0.66043	2.5676	74.11	-0.2505	-0.0266	0.2239	1722.4665	0.155705	-460.13898	-460.128965	-460.128021	-460.175322	34.381	
C	 0.3975852211	 1.33872321	 0.1916876162	-0.384755
C	 0.7222404558	-0.1362397561	 0.0325829669	-0.026992
O	 0.4712583955	-0.5060143992	-1.3108828774	-0.225877
C	 0.7278265035	-1.8510608357	-1.5663600247	-0.165648
C	 0.3772296217	-2.1773681745	-3.0118788653	 0.324929
O	-0.1711029771	-1.4065461259	-3.7591041158	-0.284016
C	 0.7257573792	-3.5673536089	-3.4776458434	-0.018862
C	 2.1172842667	-4.0617565472	-3.440330832	-0.174104
O	 1.1569013932	-4.5136414804	-2.4955851843	-0.217295
H	 1.0191514089	 1.9419919725	-0.4756726836	 0.130461
H	-0.6509865206	 1.5274428135	-0.0538772076	 0.132715
H	 0.5787242471	 1.6587266803	 1.2220689527	 0.114782
H	 1.7770141813	-0.3331028015	 0.2898853209	 0.086231
H	 0.1061886303	-0.7465162045	 0.7144549042	 0.089213
H	 1.7812295751	-2.1194213985	-1.3698304181	 0.108552
H	 0.1314882631	-2.5241027928	-0.9232417922	 0.124008
H	 0.0647627102	-3.9516627417	-4.2527929284	 0.12446
H	 2.4293221191	-4.7925943687	-4.1841836484	 0.134566
H	 2.9083562559	-3.4265865907	-3.0455612898	 0.127633
52.0571	73.773	97.2273	105.8052	139.5796	196.6918	243.4835	268.1038	319.4008	418.3857	492.5886	574.7133	581.4901	811.7668	822.5947	870.8805	905.407	916.2916	931.324	1018.0462	1056.4238	1085.9559	1147.6189	1152.4205	1162.7671	1185.806	1188.3582	1210.0695	1248.7463	1263.8037	1297.8574	1381.7816	1391.6013	1406.9162	1439.5117	1474.809	1482.984	1499.8532	1523.8594	1531.0028	1825.4413	2944.1318	2957.7769	2962.7679	2980.5477	3047.4854	3091.0636	3121.8747	3126.1171	3135.4085	3182.1702
CCOCC(=O)C1CO1	CCOCC(=O)[C@H]1CO1	
InChI=1S/C6H10O3/c1-2-8-3-5(7)6-4-9-6/h6H,2-4H2,1H3	InChI=1S/C6H10O3/c1-2-8-3-5(7)6-4-9-6/h6H,2-4H2,1H3/t6-/m1/s1
