20
gdb 98690	3.44644	0.93105	0.86443	4.2961	78.74	-0.2479	0.0126	0.2605	1454.9955	0.168016	-440.307122	-440.296613	-440.295669	-440.343069	37.236	
C	-0.4476493537	 1.6548617081	-0.3851525259	-0.334036
N	-0.4222256684	 0.2055783592	-0.3831957325	-0.324056
C	 0.7110235391	-0.5102101673	-0.6456637235	 0.415267
O	 1.7825321886	 0.0050513246	-0.9088171712	-0.376502
C	 0.4980607646	-2.0051957621	-0.5569744358	-0.116046
O	 1.3694830233	-2.8300571463	-1.3194395239	-0.269493
C	 1.4553378409	-2.930349256	 0.1065012275	 0.390408
C	 2.7441105473	-2.433853811	 0.7211870722	-0.469396
C	 0.91139948	-4.2241158276	 0.6776547377	-0.447937
H	-0.7427366362	 2.0505442053	 0.5931290355	 0.126181
H	 0.5614457897	 1.9955435401	-0.6194768403	 0.174639
H	-1.1394601076	 2.0400894409	-1.1423928269	 0.128387
H	-1.2787862024	-0.2915716436	-0.2045017017	 0.247211
H	-0.5490852533	-2.3186100631	-0.5829411188	 0.07521
H	 3.0693496782	-1.5115333153	 0.2418933942	 0.172698
H	 2.6127382926	-2.2587286762	 1.7946066625	 0.112526
H	 3.522155068	-3.1959382999	 0.6021371276	 0.119951
H	 1.6555076337	-5.0213872194	 0.5748946773	 0.129989
H	 0.685422264	-4.1145578409	 1.7435808698	 0.121359
H	 0.0035235014	-4.5354253695	 0.1550356663	 0.12364
50.2589	78.7689	116.2234	149.5655	180.757	195.1415	237.8463	285.5837	331.3728	356.4545	391.5281	432.1245	446.766	487.2797	690.8472	744.7171	766.6238	832.7802	930.4381	941.0947	952.141	1017.31	1046.9013	1071.8481	1129.2039	1154.3102	1159.6986	1171.0798	1225.6786	1267.2366	1354.8629	1407.1054	1416.5696	1437.2319	1447.83	1477.0518	1484.8043	1493.1836	1500.1064	1504.942	1510.9169	1562.1727	1781.4418	3028.2631	3033.5874	3038.8586	3063.7915	3080.4358	3093.2599	3101.2277	3122.5923	3154.813	3166.0919	3647.6055
CNC(=O)C1OC1(C)C	CNC(=O)[C@H]1OC1(C)C	
InChI=1S/C6H11NO2/c1-6(2)4(9-6)5(8)7-3/h4H,1-3H3,(H,7,8)	InChI=1S/C6H11NO2/c1-6(2)4(9-6)5(8)7-3/h4H,1-3H3,(H,7,8)/t4-/m1/s1
