19
gdb 73557	2.73117	1.68923	1.35485	1.7768	76.72	-0.2377	0.0035	0.2413	1010.4741	0.160121	-423.02481	-423.016916	-423.015972	-423.056987	30.678	
C	 0.0202037268	 1.6589123896	-0.1210775015	-0.43252
C	-0.015458998	 0.1321306689	 0.0070480427	 0.323252
C	 0.8201145178	-0.5516479577	-1.0924566293	-0.118032
O	 2.1651809727	-0.4816824499	-0.5958934316	-0.277938
C	 2.1621048934	-0.5400420309	 0.84482807	-0.169243
C	 0.71850188	-0.4216802461	 1.2065743182	 0.266466
C	-0.1465225164	-0.9286692398	 2.0728177359	-0.272469
C	-1.542857138	-0.7505690784	 1.5182300375	-0.130231
O	-1.3554680914	-0.323724042	 0.1630958136	-0.320525
H	 1.0429453689	 2.0088657722	-0.2903260799	 0.127739
H	-0.5971873251	 1.9706925089	-0.9690374916	 0.125626
H	-0.3691472867	 2.1349388205	 0.7833804516	 0.115874
H	 0.4835672375	-1.590360129	-1.221042957	 0.097365
H	 0.8101989586	-0.0441788577	-2.060702757	 0.10628
H	 2.6030900245	-1.4833301736	 1.1931393307	 0.11474
H	 2.7850909434	 0.2829430921	 1.2176051414	 0.116835
H	 0.0625355828	-1.4585936971	 2.9937435321	 0.108334
H	-2.1058910339	-1.6935986579	 1.5190597913	 0.11405
H	-2.1432178769	-0.0129956621	 2.076137863	 0.104397
108.7855	166.9952	214.3787	246.7533	257.0732	334.561	380.2276	450.5709	587.4252	601.9685	670.0159	759.3874	786.8679	813.7596	904.6855	913.3704	939.4508	958.251	962.43	1021.5606	1037.1219	1055.3643	1062.5046	1125.4881	1161.783	1193.4162	1196.5292	1206.9518	1218.4955	1257.2037	1301.5888	1336.8069	1365.3953	1384.8878	1402.5578	1488.8078	1490.6999	1508.1937	1517.9897	1518.4391	1754.8045	2965.9356	3002.4539	3011.4587	3024.9539	3038.5026	3039.4324	3094.0153	3114.3731	3118.2521	3212.2126
CC12COCC1=CCO2	C[C@@]12COC[C]1[CH]CO2	
InChI=1S/C7H10O2/c1-7-5-8-4-6(7)2-3-9-7/h2H,3-5H2,1H3	InChI=1S/C7H10O2/c1-7-5-8-4-6(7)2-3-9-7/h2H,3-5H2,1H3/t7-/m1/s1
