21
gdb 113955	4.96129	0.6513	0.61787	2.5225	80.2	-0.2586	0.0755	0.3342	1814.0182	0.181315	-424.178292	-424.168513	-424.167569	-424.214218	35.202	
O	-0.3309490204	 1.426826022	-0.6977391942	-0.420176
C	-0.000924865	 0.2055436892	-0.0465271678	-0.096805
C	-1.2846051506	-0.5366449901	 0.2157862037	-0.00504
C	-1.9163947867	-1.3854506725	-0.8602649847	-0.285882
C	-1.3498286067	-2.0383569663	 0.3786815043	-0.000581
C	-0.1378855231	-2.9497681181	 0.3067502291	-0.260118
C	-0.540176585	-4.3788358933	 0.0222069185	 0.110199
C	 0.1575939328	-5.5263122711	 0.6131084522	-0.182473
O	-1.1121658447	-5.1056881295	 1.1153957237	-0.238153
H	 0.4752261243	 1.9442361259	-0.7850058157	 0.283774
H	 0.6741449872	-0.400444335	-0.6702821746	 0.078948
H	 0.5209132503	 0.3978746856	 0.9052335836	 0.085627
H	-1.971507719	 0.0291503564	 0.8393051485	 0.090958
H	-2.9914152309	-1.3473125989	-0.9949468626	 0.113251
H	-1.3578122306	-1.4981584648	-1.7852340784	 0.108181
H	-2.081760819	-2.3824071418	 1.1045984629	 0.100808
H	 0.5512511318	-2.6184230397	-0.478983058	 0.098533
H	 0.4148152808	-2.9262490472	 1.2541843595	 0.102461
H	-1.0614494485	-4.5341530351	-0.9242919886	 0.093282
H	 0.1636801684	-6.4859042746	 0.0976633225	 0.112818
H	 1.0031325047	-5.354153161	 1.278616456	 0.110388
48.0999	66.4174	94.2576	114.7279	179.3872	253.2347	278.9319	304.2159	408.0716	421.7125	456.7173	568.0383	779.3926	799.6558	829.4545	862.0296	883.8991	890.0853	939.6377	963.2482	991.0271	1051.5177	1062.2898	1070.4959	1090.69	1114.0516	1146.1571	1156.1645	1159.6603	1175.5402	1189.2109	1235.4784	1258.5632	1265.5205	1284.7732	1293.2191	1312.5702	1384.571	1424.744	1444.9157	1467.5611	1474.9084	1498.2295	1521.1293	1530.0211	2963.8718	2993.7913	3026.351	3066.977	3079.1684	3097.217	3125.7746	3139.7218	3150.1128	3164.4884	3211.7007	3824.7248
OCC1CC1CC1CO1	OC[C@H]1C[C@H]1C[C@H]1CO1	
InChI=1S/C7H12O2/c8-3-6-1-5(6)2-7-4-9-7/h5-8H,1-4H2	InChI=1S/C7H12O2/c8-3-6-1-5(6)2-7-4-9-7/h5-8H,1-4H2/t5-,6+,7-/m0/s1
