14
gdb 12582	3.4716	1.98664	1.28348	4.8786	65.73	-0.2317	-0.0916	0.1401	900.984	0.106306	-382.590202	-382.582737	-382.581792	-382.622229	26.694	
C	 0.0016662444	 1.5178365259	-0.0003877025	-0.490978
C	-0.0187628554	 0.025091888	-0.0034231072	 0.212885
C	-1.0696315532	-0.8042125115	-0.1461153201	-0.165847
C	-0.7276636571	-2.2715442236	-0.0999372365	-0.38296
C	 0.7870881795	-2.2609838491	 0.1056240541	 0.321814
O	 1.5226333594	-3.2030123457	 0.2053218214	-0.271952
C	 1.2182970359	-0.7675614185	 0.1643221258	 0.233001
O	 2.3477526781	-0.3692184723	 0.3176224262	-0.297688
H	 0.6538203971	 1.893842119	-0.7961256722	 0.149615
H	-0.9978628174	 1.9380734137	-0.1360725339	 0.125737
H	 0.4178802691	 1.8934584698	 0.9406543226	 0.149614
H	-2.0917510866	-0.4641185037	-0.284709858	 0.118869
H	-1.2271861148	-2.804602827	 0.7184280223	 0.148944
H	-0.9909996292	-2.8043318349	-1.021993612	 0.148946
79.9735	114.4566	232.8444	248.519	295.4037	318.178	456.2326	528.5994	573.037	675.5202	714.8348	747.5996	825.1958	925.9365	987.3125	1000.407	1032.6007	1069.3301	1083.1594	1149.089	1255.0486	1292.6573	1355.0875	1415.3761	1444.9929	1472.5898	1483.1942	1680.6781	1812.6056	1863.1861	3034.3969	3037.6285	3064.5235	3093.2894	3123.5411	3175.8382
CC1=CCC(=O)C1=O	CC1=CCC(=O)C1=O	
InChI=1S/C6H6O2/c1-4-2-3-5(7)6(4)8/h2H,3H2,1H3	InChI=1S/C6H6O2/c1-4-2-3-5(7)6(4)8/h2H,3H2,1H3
