18
gdb 99000	4.99568	0.7453	0.67183	2.6781	70.79	-0.2601	0.0013	0.2614	1669.791	0.145639	-476.26099	-476.250812	-476.249867	-476.297869	34.387	
C	-0.6711696942	 1.4914493633	 0.919377192	-0.22565
O	-0.6143006915	 0.0837574424	 1.1549339033	-0.239706
C	 0.6123367363	-0.4197988249	 1.4154682419	 0.40848
N	 1.6429851412	 0.3089087486	 1.4672175793	-0.53298
C	 0.4794015855	-1.9259681418	 1.5822285675	-0.43398
C	 1.622583533	-2.5985616802	 2.3126870112	 0.450481
O	 2.783607922	-2.2685978456	 2.2756838289	-0.353629
O	 1.1769621524	-3.6620738664	 3.0023081463	-0.225567
C	 2.185140878	-4.4141270105	 3.6946235625	-0.242614
H	-0.0417223132	 1.7685752508	 0.0692659775	 0.137164
H	-1.7188050189	 1.7141729336	 0.7122948243	 0.123778
H	-0.3258762352	 2.045693406	 1.7964289472	 0.137628
H	 2.4630950372	-0.2618554365	 1.667915916	 0.250093
H	-0.4658381886	-2.1627455156	 2.0729717823	 0.152687
H	 0.4235953882	-2.3762165435	 0.5819884547	 0.164103
H	 2.925187366	-4.8031858183	 2.9911397002	 0.14455
H	 2.6937402953	-3.7861930218	 4.4298360229	 0.14681
H	 1.6571169764	-5.2303539297	 4.186789592	 0.138353
23.0837	59.7784	128.617	142.4395	156.1255	179.6601	200.4017	275.3873	314.7219	374.8753	389.5927	523.1608	633.3946	677.116	751.4548	894.9034	920.036	926.803	974.9437	1016.7652	1041.5062	1133.067	1178.4338	1180.4857	1181.005	1210.2981	1218.9079	1231.8379	1349.5823	1400.9094	1445.6508	1474.9493	1475.4722	1478.3868	1482.7036	1496.7154	1500.1581	1736.6755	1815.7184	3038.644	3045.8338	3055.8768	3118.0376	3123.933	3132.4513	3148.6796	3164.9235	3503.9715
COC(=N)CC(=O)OC	CO[C]([NH])CC(=O)OC	
InChI=1S/C5H9NO3/c1-8-4(6)3-5(7)9-2/h6H,3H2,1-2H3	InChI=1S/C5H9NO3/c1-8-4(6)3-5(7)9-2/h6H,3H2,1-2H3
