18
gdb 66134	2.35523	1.63491	1.43394	1.6077	71.98	-0.2277	-0.0301	0.1977	1006.8407	0.146531	-439.070948	-439.062517	-439.061573	-439.103988	31.772	
C	 0.1546029335	 1.5838478851	-0.2593018531	-0.442246
C	 0.0518390084	 0.0691701916	-0.09550781	 0.165184
N	 0.8288442522	-0.6176679298	-1.1584400656	-0.33879
C	 1.3199017275	-1.9103556579	-0.6576233622	-0.204856
C	 1.4586880042	-1.6703652835	 0.8306356969	 0.059274
O	 2.1091126441	-0.4374643791	 1.1660719683	-0.264989
C	 0.6795306295	-0.4831509046	 1.1754721996	 0.041014
C	-1.3940261096	-0.4092131792	-0.2033643193	 0.124332
O	-1.9271420912	-1.2029720142	 0.5308154957	-0.260947
H	 1.2067335338	 1.8739959275	-0.2239889208	 0.150785
H	-0.2588005889	 1.9011720151	-1.2228069684	 0.114992
H	-0.3921501712	 2.10746478	 0.5323589687	 0.120521
H	 0.3283115477	-0.6853763024	-2.0373180204	 0.225917
H	 0.6245721095	-2.7524842786	-0.8045688608	 0.106058
H	 2.2687717194	-2.162201299	-1.1451143028	 0.118478
H	 1.6229649209	-2.500267207	 1.5108479898	 0.10414
H	 0.1895939938	-0.3347928079	 2.1317613522	 0.109519
H	-1.9270086036	-0.0046461461	-1.0988988879	 0.071612
65.9268	147.1898	193.625	224.6836	258.4643	322.578	332.3675	377.8376	452.4124	547.8401	600.6528	620.396	781.69	838.3272	846.5555	885.08	903.4405	937.7926	969.0146	998.9004	1011.8465	1049.1153	1091.6774	1114.9289	1158.31	1192.9346	1212.5492	1227.9493	1263.0916	1300.7616	1357.6718	1400.2844	1417.0195	1434.9965	1451.365	1491.6696	1493.6502	1504.7912	1815.8201	2831.7243	2977.4303	3034.439	3054.2811	3099.0737	3135.4377	3165.9729	3180.7992	3545.3599
CC1(NCC2OC12)C=O	C[C@]1(NC[C@H]2O[C@@H]12)C=O	
InChI=1S/C6H9NO2/c1-6(3-8)5-4(9-5)2-7-6/h3-5,7H,2H2,1H3	InChI=1S/C6H9NO2/c1-6(3-8)5-4(9-5)2-7-6/h3-5,7H,2H2,1H3/t4-,5-,6+/m1/s1
