15
gdb 117029	4.37973	0.78337	0.66996	1.667	69.84	-0.2556	-0.1041	0.1515	1574.0214	0.107982	-457.739608	-457.729562	-457.728618	-457.776104	33.897	
O	-0.1488374312	 1.4613329561	 0.0110577084	-0.421298
C	 0.0276768249	 0.0543030633	 0.0020876839	-0.086322
C	-1.3612635605	-0.5664215252	 0.011793164	-0.285128
C	-1.3289816888	-2.0726250051	 0.0036238895	 0.280323
O	-0.3214695503	-2.7385727812	-0.0096112282	-0.281505
C	-2.7117842604	-2.7707267261	 0.0130907221	 0.119911
O	-3.7352105081	-2.1227330325	 0.0263883879	-0.269308
C	-2.6838005219	-4.2152336033	 0.0049965396	 0.298511
C	-2.6856148617	-5.4187339958	-0.0015080383	-0.376872
H	 0.7205357601	 1.8720472476	 0.0047764161	 0.289697
H	 0.5773047855	-0.2834110191	-0.8885652748	 0.103197
H	 0.593761647	-0.2926023205	 0.8787971566	 0.103186
H	-1.931890438	-0.2296172132	 0.8862431001	 0.151921
H	-1.9479972493	-0.2205929364	-0.8483684604	 0.151921
H	-2.6846248573	-6.4820695386	-0.0072383563	 0.221765
34.1599	64.8518	98.1424	102.3024	169.89	229.1263	266.0693	269.1495	358.0572	404.5818	413.0498	508.1558	651.538	677.7763	685.1804	721.6105	790.5789	821.6499	949.1818	1040.9358	1066.0543	1087.939	1202.1781	1203.346	1261.1798	1295.2864	1358.3766	1436.0418	1470.6019	1523.3661	1759.8705	1805.7076	2214.7526	2991.6769	3019.9443	3045.6304	3075.2086	3492.9977	3832.4168
OCCC(=O)C(=O)C#C	OCCC(=O)C(=O)C#C	
InChI=1S/C6H6O3/c1-2-5(8)6(9)3-4-7/h1,7H,3-4H2	InChI=1S/C6H6O3/c1-2-5(8)6(9)3-4-7/h1,7H,3-4H2
