23
gdb 102504	1.65705	1.21977	0.88753	4.7494	85.97	-0.2585	0.0232	0.2817	1473.7462	0.2048	-384.48606	-384.474859	-384.473915	-384.522845	40.215	
C	-0.1714981698	 1.5008012736	-0.1182765256	-0.393253
C	-0.1154254296	-0.0244766189	 0.0231226183	-0.203189
C	 0.770934107	-0.5195330401	 1.1838256575	 0.04383
C	 0.1346503684	-0.2454307815	 2.5597446239	-0.199803
C	 1.056867603	-0.4786682744	 3.7620356515	-0.397518
C	 1.1337308294	-2.0317872438	 1.0221378019	-0.155235
N	 0.0273306385	-2.9923853483	 0.9836982614	-0.506891
C	 1.9599598128	-2.2185802427	-0.1832579092	 0.309559
N	 2.6083087006	-2.3295068827	-1.133351686	-0.330984
H	 0.8296618129	 1.9167005112	-0.2744237702	 0.123678
H	-0.7863694314	 1.7862121697	-0.9770871383	 0.119234
H	-0.6001785724	 1.9850822745	 0.7645152747	 0.119299
H	-1.1341144268	-0.4149617354	 0.1487158842	 0.090343
H	 0.2635739304	-0.4438501362	-0.9165711429	 0.120734
H	 1.7241788753	 0.026394106	 1.1372394781	 0.087799
H	-0.204040954	 0.7954904531	 2.5785037154	 0.107207
H	-0.7766724992	-0.8501701104	 2.6645338207	 0.088993
H	 1.3491597417	-1.5282360079	 3.8711139501	 0.119474
H	 1.9751422138	 0.1122254628	 3.6753524786	 0.123861
H	 0.5607004317	-0.1858950785	 4.6922004605	 0.120386
H	 1.7691139795	-2.3193230061	 1.8678534699	 0.130797
H	-0.491432718	-2.9530431942	 1.8545738306	 0.239681
H	-0.6186059139	-2.7609991398	 0.2355376047	 0.241997
47.9421	70.2968	98.7629	150.3835	181.1067	205.1874	227.6342	251.8437	261.0998	307.4012	317.8104	372.3997	449.4949	487.5442	584.2639	644.4657	734.4919	775.1759	833.5458	845.3339	877.4851	935.6354	988.3014	1024.9672	1040.7183	1053.3295	1061.7023	1116.9465	1157.9315	1185.0956	1205.4891	1273.0707	1287.3153	1305.3796	1335.2439	1349.8792	1385.8381	1392.1867	1413.7548	1417.0079	1417.7908	1486.7189	1492.7124	1501.476	1504.0279	1505.8982	1509.7298	1655.3118	2358.6282	3004.145	3014.9869	3024.0569	3034.5074	3036.2696	3050.6257	3057.2704	3069.6642	3101.4792	3104.9239	3106.1136	3107.7632	3505.7722	3593.5305
CCC(CC)C(N)C#N	CCC(CC)[C@@H](N)C#N	
InChI=1S/C7H14N2/c1-3-6(4-2)7(9)5-8/h6-7H,3-4,9H2,1-2H3	InChI=1S/C7H14N2/c1-3-6(4-2)7(9)5-8/h6-7H,3-4,9H2,1-2H3/t7-/m0/s1
