16
gdb 25836	3.75153	1.26824	0.95333	2.954	79.69	-0.2432	-0.0629	0.1803	1183.8054	0.125696	-400.834994	-400.82724	-400.826296	-400.867744	28.704	
C	-0.0463885641	 1.500652989	 0.0093127523	-0.476303
C	 0.0319564573	-0.0092189722	 0.0032708801	 0.332173
O	 1.0873993434	-0.6079550493	-0.0070211879	-0.302388
C	-1.2688840169	-0.7721547634	 0.0104845634	 0.202742
N	-2.4050998318	-0.0622006796	 0.0217987511	-0.310383
C	-3.5551231182	-0.7359063488	 0.0281878938	-0.010574
C	-3.6300905527	-2.127907983	 0.0236798852	-0.113814
C	-2.4449998037	-2.8579975364	 0.0119154953	-0.082963
C	-1.2397936855	-2.1687202449	 0.0051710386	-0.141705
H	 0.9637767492	 1.910720588	 0.0032340852	 0.132033
H	-0.6093858747	 1.8555350863	-0.8590945243	 0.148584
H	-0.5963661667	 1.8492565047	 0.8885316549	 0.148585
H	-4.4628394323	-0.1370766943	 0.0373271736	 0.114135
H	-4.5956328407	-2.6213419213	 0.0292914075	 0.110827
H	-2.4624263019	-3.94286372	 0.0080907414	 0.116143
H	-0.2802152905	-2.6703180348	-0.0040285003	 0.132907
68.8163	133.9954	153.7266	207.5754	361.0817	410.1998	433.5865	485.7363	595.0833	610.9613	630.7824	760.1637	772.6725	809.657	941.5938	957.2028	990.6197	1011.8869	1026.0534	1048.4314	1063.1553	1103.2506	1123.4283	1171.6699	1284.0034	1316.5925	1323.637	1387.5075	1453.396	1463.3228	1464.5718	1499.204	1611.2782	1622.1233	1787.3935	3052.5815	3115.3093	3155.6389	3159.833	3182.7583	3201.8821	3221.6935
CC(=O)C1=NC=CC=C1	CC(=O)c1ncccc1	
InChI=1S/C7H7NO/c1-6(9)7-4-2-3-5-8-7/h2-5H,1H3	InChI=1S/C7H7NO/c1-6(9)7-4-2-3-5-8-7/h2-5H,1H3
