18
gdb 103551	2.63772	1.2281	1.02536	1.3955	68.47	-0.2548	0.0082	0.263	1199.851	0.145344	-476.233567	-476.223706	-476.222762	-476.268321	35.63	
C	 0.0036849432	 1.5391387617	 0.040495787	-0.430415
C	-0.0717921178	 0.019476836	 0.0656540645	 0.282445
C	-1.4846510986	-0.5057130717	-0.193361034	-0.10639
O	-1.9351271142	-0.2033998941	-1.5041542807	-0.419904
N	 0.9300358429	-0.6492769619	-0.8208504671	-0.382666
C	 1.7267217672	-1.0855495076	 0.2103819788	 0.400264
O	 2.8442462789	-1.5268717642	 0.2726891016	-0.367193
C	 0.6776419639	-0.6646586861	 1.2653457504	-0.078622
O	 1.161794761	 0.1851987226	 2.269860053	-0.426762
H	 1.0313932788	 1.8849965504	 0.1672072076	 0.123581
H	-0.3938883475	 1.914425654	-0.9067617883	 0.129424
H	-0.5942899556	 1.9606813773	 0.8536005103	 0.134148
H	-1.5141208217	-1.5887587401	-0.0043263386	 0.0917
H	-2.1881841471	-0.0248247813	 0.4946783442	 0.119812
H	-1.4545526395	-0.7774381556	-2.1097403044	 0.285938
H	 1.2234120532	-0.390709789	-1.7543325986	 0.24861
H	 0.1139408798	-1.5078199116	 1.6883365647	 0.092752
H	 2.0806882632	-0.060626509	 2.4314021496	 0.30328
69.0746	90.12	168.0575	182.1307	208.9006	231.1649	261.5747	298.4026	351.7814	374.8578	397.1235	468.7745	519.4169	612.377	687.3349	746.3647	808.0113	870.6427	912.0803	951.7619	966.0471	1062.7082	1090.6791	1131.422	1159.7841	1194.2198	1211.5939	1259.1974	1280.235	1340.4619	1361.2247	1381.2864	1397.9377	1406.0462	1419.3993	1480.5619	1494.1994	1496.3055	1887.9123	2995.2104	3009.9108	3049.3973	3078.5068	3120.5228	3136.465	3574.6008	3789.32	3813.4095
CC1(CO)NC(=O)C1O	C[C@@]1(CO)NC(=O)[C@H]1O	
InChI=1S/C5H9NO3/c1-5(2-7)3(8)4(9)6-5/h3,7-8H,2H2,1H3,(H,6,9)	InChI=1S/C5H9NO3/c1-5(2-7)3(8)4(9)6-5/h3,7-8H,2H2,1H3,(H,6,9)/t3-,5+/m1/s1
