19
gdb 7980	2.81413	1.93341	1.45831	3.1047	72.14	-0.2508	0.0323	0.2831	950.4969	0.166313	-365.099498	-365.091291	-365.090347	-365.132255	30.661	
C	 0.6298577785	 1.348029716	 0.0722048992	-0.396976
C	-0.0763754238	 0.006160891	-0.0826438197	 0.120788
C	 0.4042758028	-0.8508785558	-1.2754313791	-0.261922
C	 1.3456567574	-1.89907294	-0.647194966	-0.06709
C	 2.8447570664	-1.6444834321	-0.8660518045	-0.398302
C	 0.9871690796	-1.852657201	 0.8285842562	 0.399709
N	 1.4025795356	-2.6720260315	 1.6962669808	-0.544199
O	 0.1609336922	-0.8016056432	 1.0911951749	-0.245002
H	 1.7165335943	 1.2218726642	 0.1042694028	 0.127968
H	 0.3848027025	 2.0032722338	-0.7700528067	 0.119504
H	 0.3149092112	 1.8412365339	 0.9958642482	 0.130665
H	-1.1579477233	 0.1704327629	-0.1220474382	 0.09061
H	-0.4489577489	-1.337899322	-1.7545095698	 0.11183
H	 0.9020650771	-0.2406877271	-2.0333280678	 0.10786
H	 1.1159311974	-2.9017477763	-1.0169140254	 0.107446
H	 3.140808606	-0.6497750314	-0.5169346572	 0.119333
H	 3.4314859184	-2.3826832344	-0.3142115639	 0.146071
H	 3.0959175436	-1.7176778784	-1.9288408012	 0.113768
H	 1.0459045831	-2.4276720285	 2.6215713373	 0.217938
71.1741	88.1892	225.5859	242.5001	255.2995	317.9612	353.9627	417.853	467.5928	641.4704	671.8938	718.1918	764.7349	842.7249	873.3836	893.1182	921.4253	955.2346	1021.3957	1036.2106	1059.9328	1097.3023	1129.3369	1134.5425	1170.0292	1240.7899	1261.7643	1293.8601	1334.1304	1345.5368	1376.2339	1398.8329	1408.0849	1412.7836	1485.5983	1493.028	1493.6917	1501.8168	1503.8072	1767.3752	3037.8599	3039.9928	3049.0779	3063.2542	3074.3932	3105.7447	3108.141	3113.2209	3121.5513	3129.0423	3472.2522
CC1CC(C)C(=N)O1	C[C@H]1C[C@@H](C)[C]([NH])O1	
InChI=1S/C6H11NO/c1-4-3-5(2)8-6(4)7/h4-5,7H,3H2,1-2H3	InChI=1S/C6H11NO/c1-4-3-5(2)8-6(4)7/h4-5,7H,3H2,1-2H3/t4-,5+/m1/s1
