15
gdb 28072	6.16193	0.81358	0.74346	5.6942	70.82	-0.2016	0.0097	0.2114	1443.6882	0.112937	-453.98905	-453.980497	-453.979552	-454.022941	30.725	
N	-0.0335588018	 1.365975079	 0.4042508041	-0.607748
C	-0.0839122288	-0.0035940021	 0.0894547678	 0.328255
C	-1.1295689019	-0.8928877954	-0.0399336969	-0.342317
C	-0.5423019458	-2.1633485071	-0.2892501984	 0.337772
O	-1.2629002371	-3.3172159094	-0.5267300204	-0.218462
C	-1.0471885723	-4.3714074232	 0.3020925382	 0.150549
O	-1.5645397183	-5.4319581201	 0.1325571951	-0.267705
C	 0.8241026547	-2.0311223468	-0.3173333312	-0.198411
N	 1.0864094337	-0.6973708313	-0.0771180115	-0.267664
H	 0.2218212449	 1.9402856935	-0.3939093058	 0.248689
H	-0.9297450085	 1.6894735627	 0.7459480302	 0.252512
H	-2.1829305539	-0.6689093603	 0.0091717818	 0.103494
H	-0.3493959382	-4.1153211373	 1.1201556805	 0.085676
H	 1.6054370024	-2.7435008937	-0.5190460989	 0.13001
H	 1.996530681	-0.2978861486	 0.0732422155	 0.26535
49.6787	124.9496	136.3952	159.1329	249.5229	321.0732	389.9256	445.0208	469.8694	507.2165	629.9158	670.574	682.2649	703.6251	772.6854	820.4168	827.1599	992.0257	1018.9769	1048.7884	1117.9	1127.3849	1154.1209	1199.2737	1275.6353	1336.1833	1405.1096	1433.1632	1487.4928	1560.7978	1625.4492	1658.9906	1869.4268	2977.1736	3263.4803	3280.7178	3497.0622	3604.1072	3680.8885
NC1=CC(OC=O)=CN1	Nc1cc(OC=O)c[nH]1	
InChI=1S/C5H6N2O2/c6-5-1-4(2-7-5)9-3-8/h1-3,7H,6H2	InChI=1S/C5H6N2O2/c6-5-1-4(2-7-5)9-3-8/h1-3,7H,6H2
