15
gdb 53883	4.2174	0.85891	0.75828	1.2334	64.63	-0.2504	-0.0546	0.1958	1432.6364	0.110533	-491.120485	-491.111063	-491.110119	-491.15616	32.54	
N	-0.1421408946	 0.9298178046	-0.8973851521	-0.512236
C	 0.0326178125	-0.0881919946	-0.0077837356	 0.23945
N	 1.1038861855	-0.2592933351	 0.664927284	-0.506421
C	-1.1956315199	-0.981564155	 0.0548398866	 0.427318
O	-2.2366221023	-0.7390989429	-0.5071118322	-0.367306
O	-0.9949167278	-2.0658662518	 0.822068709	-0.241655
C	-2.1312233752	-2.9242128624	 0.969694115	-0.163704
C	-2.4554590231	-3.6776241595	-0.3158513762	 0.151988
O	-3.4414356398	-4.3498733602	-0.4358346596	-0.224698
H	 0.5286362039	 1.6796196604	-0.8815401478	 0.267457
H	-1.0775770911	 1.1192323344	-1.2155510449	 0.274764
H	 1.0289777068	-1.1006126305	 1.2314347407	 0.234149
H	-1.8557820571	-3.6405827036	 1.7479120586	 0.155867
H	-3.0109099267	-2.3591149554	 1.2876151303	 0.164184
H	-1.6902166811	-3.5805560986	-1.116787236	 0.100842
37.756	70.6329	75.9823	143.1661	210.8548	282.2396	343.0522	366.0846	387.3073	466.2599	501.8751	530.9277	571.7711	658.6707	713.8097	807.0362	869.4864	873.7289	1033.0576	1041.8828	1111.0981	1121.4894	1155.9932	1248.563	1281.8083	1355.4601	1409.3225	1432.4279	1453.2459	1601.5857	1730.5562	1800.5229	1849.0923	2899.9848	3073.3834	3132.3398	3531.6303	3607.1151	3737.0934
NC(=N)C(=O)OCC=O	NC(=N)C(=O)OCC=O	
InChI=1S/C4H6N2O3/c5-3(6)4(8)9-2-1-7/h1H,2H2,(H3,5,6)	InChI=1S/C4H6N2O3/c5-3(6)4(8)9-2-1-7/h1H,2H2,(H3,5,6)
