13
gdb 42257	2.99572	1.1246	0.98852	5.6116	69.86	-0.3101	-0.1059	0.2041	1175.1657	0.088441	-415.623059	-415.614737	-415.613793	-415.657008	28.861	
O	 0.067160158	-0.0696673344	-0.4190653999	-0.274832
C	-0.0308754307	 1.111535918	-0.1942600789	 0.311016
C	 1.1688161686	 1.938365655	 0.0381831165	 0.22776
N	 2.0989657675	 2.60269644	 0.2124723966	-0.291949
C	-1.318899221	 1.8534736012	-0.1256510709	-0.134965
C	-2.5185084096	 1.241499897	-0.8069535107	-0.284714
C	-2.4771144542	 1.2413613438	 0.6931682764	-0.164469
C	-2.2995295569	 0.0206406468	 1.430396486	 0.312517
N	-2.1934853919	-0.9467804968	 2.0540821625	-0.319739
H	-1.2409842947	 2.9325802469	-0.0699876467	 0.136573
H	-3.2179801962	 1.9107383428	-1.2922004823	 0.14973
H	-2.3390989478	 0.2927604786	-1.2986381204	 0.17537
H	-3.088750791	 1.9752937312	 1.2070968217	 0.157701
41.5977	109.4445	147.7681	194.5527	247.1326	281.2052	321.6158	455.2843	535.539	572.3529	603.4552	742.3841	765.4412	808.4402	845.2658	906.7241	969.1207	1059.289	1093.1059	1112.0327	1126.8262	1147.9988	1214.1234	1378.0508	1407.047	1470.6061	1783.4801	2339.8108	2363.5403	3154.1824	3174.6058	3194.5739	3254.6401
O=C(C#N)C1CC1C#N	O=C(C#N)[C@H]1C[C@H]1C#N	
InChI=1S/C6H4N2O/c7-2-4-1-5(4)6(9)3-8/h4-5H,1H2	InChI=1S/C6H4N2O/c7-2-4-1-5(4)6(9)3-8/h4-5H,1H2/t4-,5-/m0/s1
