22
gdb 107399	3.70254	1.03364	0.92767	2.2948	81.71	-0.2319	0.0593	0.2912	1352.9986	0.195347	-404.337553	-404.328459	-404.327515	-404.371455	35.144	
C	 0.3872455542	 1.7073144611	 0.0332041231	-0.404405
C	 0.0799457693	 0.211458117	 0.0434302869	 0.060173
C	 0.6022705273	-0.5595757935	-1.2018186228	-0.224249
C	 0.8896480928	-1.9690482436	-0.7034860533	-0.101365
N	 2.17632677	-2.0751057356	 0.0265307381	-0.367516
C	 0.9159458546	-1.9711028226	 0.7851618247	 0.328245
C	 0.4797413135	-3.1451446996	 1.6355009826	-0.196458
O	 0.7474060908	-4.4013240084	 1.0282468071	-0.410553
C	 0.6461614181	-0.5497379944	 1.274992489	-0.292168
H	 1.469269623	 1.8811330544	 0.013355757	 0.120004
H	-0.0457558001	 2.1974406921	-0.8456125283	 0.110531
H	-0.0149923395	 2.2049506473	 0.9223742634	 0.110098
H	-1.0108168918	 0.0837373168	 0.0635103254	 0.0667
H	-0.130942582	-0.5506687583	-2.0143401814	 0.091202
H	 1.5256151497	-0.1099098407	-1.5838083543	 0.109022
H	 0.5621921774	-2.8296148919	-1.2804760582	 0.066327
H	 2.446162179	-3.059648506	 0.0344375237	 0.231376
H	 1.0429682129	-3.147529333	 2.5766688884	 0.119962
H	-0.5847117978	-3.0423833622	 1.897236839	 0.095262
H	 0.1162596489	-4.5216534974	 0.3118013138	 0.288971
H	 1.581793055	-0.0981986573	 1.6221509447	 0.109148
H	-0.0600265655	-0.5312686646	 2.1127231513	 0.089693
51.3705	113.6686	194.5976	220.3983	251.378	300.6274	337.0641	362.1648	412.8592	444.4698	450.9774	596.0095	648.8932	725.1919	809.1915	837.8273	882.0825	903.5987	927.0802	950.987	969.205	999.1294	1028.1936	1060.8847	1077.399	1087.7657	1128.2984	1132.6297	1158.233	1210.5125	1229.077	1260.2584	1272.5687	1287.3751	1317.9448	1339.9082	1352.5972	1374.0786	1392.0929	1410.3943	1418.1892	1438.6238	1479.2926	1487.4673	1498.3122	1498.8489	1501.2448	2985.9076	3003.3954	3024.401	3035.6293	3040.886	3053.7317	3078.7809	3084.5149	3093.2748	3095.0513	3140.5214	3458.5866	3821.8715
CC1CC2NC2(CO)C1	C[C@H]1C[C@H]2N[C@@]2(CO)C1	
InChI=1S/C7H13NO/c1-5-2-6-7(3-5,4-9)8-6/h5-6,8-9H,2-4H2,1H3	InChI=1S/C7H13NO/c1-5-2-6-7(3-5,4-9)8-6/h5-6,8-9H,2-4H2,1H3/t5-,6+,7+/m0/s1
