17
gdb 80941	2.60004	1.34256	1.22122	1.2984	74.83	-0.2537	0.031	0.2847	1101.2366	0.133435	-421.729243	-421.720753	-421.719809	-421.761989	32.935	
C	 0.0784080559	 1.4227682522	-0.0401466047	-0.521583
C	 0.0179003058	-0.0621623154	 0.0993637808	 0.351504
O	 0.6245416121	-0.9098738249	-0.9783562228	-0.373118
C	 0.0854760775	-1.8771358436	 0.0087401578	-0.015993
C	 0.7201561691	-1.0092950209	 1.12810532	 0.135636
O	 2.102405176	-0.9517481923	 1.208658454	-0.445972
C	-1.2142756279	-1.0253865759	 0.0747781194	-0.219326
C	-2.1197595757	-1.1048163612	 1.1997690931	 0.294579
C	-2.8809927546	-1.161544174	 2.1292578173	-0.437383
H	 1.1141138263	 1.767481887	 0.0386710296	 0.138813
H	-0.3278729834	 1.7421509999	-1.0042183242	 0.138056
H	-0.5036722396	 1.8927599926	 0.7584692083	 0.141502
H	 0.1927701061	-2.9375026849	-0.2185389719	 0.103912
H	 0.3018861819	-1.0749197615	 2.1325565478	 0.107002
H	 2.4073066225	-0.9132540813	 0.2899206227	 0.287049
H	-1.7279426768	-1.000100098	-0.8884542877	 0.115607
H	-3.5528134351	-1.2156255678	 2.9501739606	 0.199716
122.2817	134.2557	184.0498	205.1189	281.237	318.4319	391.2499	416.6833	522.4612	549.3713	586.6657	637.6761	645.2181	653.0741	692.7102	746.4426	816.4821	860.1218	890.6724	916.3756	953.9706	1041.7849	1068.4997	1098.585	1147.2518	1166.2079	1186.3383	1209.9064	1228.2808	1299.5471	1309.4553	1363.2809	1410.3866	1461.1646	1476.946	1484.1987	2232.6463	3040.7913	3096.2645	3115.4515	3119.6678	3124.5851	3132.0475	3501.0613	3732.3601
CC12OC(C1O)C2C#C	C[C@@]12O[C@@H]([C@H]1O)[C@H]2C#C	
InChI=1S/C7H8O2/c1-3-4-5-6(8)7(4,2)9-5/h1,4-6,8H,2H3	InChI=1S/C7H8O2/c1-3-4-5-6(8)7(4,2)9-5/h1,4-6,8H,2H3/t4-,5-,6-,7+/m1/s1
