18
gdb 17062	3.89208	1.54974	1.3268	2.0049	68.64	-0.2432	0.0777	0.3208	978.6842	0.153678	-384.871402	-384.863689	-384.862744	-384.903407	29.267	
C	 0.0381070277	 1.321571697	-0.2015324283	-0.243673
O	-0.0417393373	 0.0381986436	 0.3769758163	-0.257519
C	-1.2912531746	-0.5669384855	 0.1996072842	 0.192666
C	-1.5804541428	-1.3742807576	-1.1150373531	-0.156547
C	-0.5399524333	-2.414634193	-0.6077412243	-0.234532
C	-1.3839365878	-2.0462266602	 0.6522697782	-0.1224
C	-2.6228043353	-2.1696145001	-0.2654439792	 0.146598
O	-3.7949706989	-1.5432980056	 0.1948470193	-0.440754
H	 1.0199791807	 1.7310494239	 0.0477898743	 0.125699
H	-0.0642004584	 1.2878902759	-1.2967234342	 0.105435
H	-0.7385478396	 1.9937341858	 0.195355917	 0.105906
H	-2.0967486306	 0.0944485964	 0.5338021957	 0.08134
H	-1.7039862541	-0.9959553514	-2.131251638	 0.06385
H	-0.644069986	-3.4362374655	-0.9841446231	 0.085868
H	 0.4962990923	-2.0857514648	-0.593909552	 0.118655
H	-1.275674104	-2.4322314009	 1.6659419094	 0.076024
H	-2.823400638	-3.1860744672	-0.6272643337	 0.068711
H	-4.43535446	-1.5430267307	-0.5230816783	 0.284672
86.6449	175.253	180.0023	262.1959	288.046	359.917	374.4472	447.5502	551.5401	627.3548	765.7691	839.1079	867.4454	892.6043	903.7987	935.2235	1022.3942	1033.8952	1057.183	1067.204	1103.9177	1109.4593	1149.9215	1167.6015	1184.1279	1194.5629	1212.7441	1217.5814	1241.9781	1247.6558	1272.4382	1317.1805	1404.7221	1435.8172	1481.4414	1488.0946	1506.6205	1515.4946	2975.8091	3021.0514	3022.9839	3061.7456	3064.6803	3097.8689	3114.3311	3117.4447	3168.3712	3823.7242
COC1C2CC1C2O	CO[C@H]1[C@H]2C[C@@H]1[C@H]2O	
InChI=1S/C6H10O2/c1-8-6-3-2-4(6)5(3)7/h3-7H,2H2,1H3	InChI=1S/C6H10O2/c1-8-6-3-2-4(6)5(3)7/h3-7H,2H2,1H3/t3-,4+,5-,6-
