20
gdb 95429	2.67451	1.19631	0.85335	5.8706	86.91	-0.2052	-0.0167	0.1885	1352.3589	0.172216	-403.193464	-403.184538	-403.183594	-403.227	33.599	
C	-0.0266132371	 1.564951637	-0.0113563638	-0.399151
C	 0.0195767356	 0.0362366077	 0.0210410454	 0.007132
C	 0.6298228498	-0.5199148945	-1.2762935368	-0.1547
N	 0.6973067584	-1.974911778	-1.2251093871	-0.305963
C	 0.9532763854	-2.6122304083	-0.0562941475	-0.016487
C	 1.0146324077	-1.9852562389	 1.1468496343	 0.128637
C	 0.7922955559	-0.4958199939	 1.2416540049	-0.311109
C	 1.2603870837	-2.7704832888	 2.335621492	 0.080216
O	 1.3141350785	-2.3308487611	 3.470486806	-0.320668
H	 0.9814976457	 1.9877278394	-0.0933631325	 0.117495
H	-0.6156352835	 1.9342625202	-0.8579433195	 0.109848
H	-0.475374933	 1.957979466	 0.9059135243	 0.124092
H	-1.0076993205	-0.3471488714	 0.0802466311	 0.087843
H	 0.0219281575	-0.2309553611	-2.1399291431	 0.109819
H	 1.6334376686	-0.0896372101	-1.4231779931	 0.107424
H	 0.7971299751	-2.4812502665	-2.0875739524	 0.251944
H	 1.0878153638	-3.6884750198	-0.1283704203	 0.115476
H	 1.7530425489	 0.0317239333	 1.3310369552	 0.105807
H	 0.248992945	-0.2721274292	 2.1656733846	 0.125306
H	 1.4049831546	-3.861152172	 2.1418231285	 0.03704
89.0048	151.2659	174.816	194.7925	231.7507	302.0243	318.7394	379.5469	414.6863	435.1804	452.4207	543.9336	610.999	729.1801	857.8766	883.6316	891.0173	928.3167	949.0909	975.7731	1015.4452	1029.3951	1094.7566	1122.0478	1168.75	1202.9537	1231.1688	1275.0782	1291.5043	1307.9586	1328.7187	1374.5114	1387.513	1404.1807	1414.5002	1438.7419	1480.6924	1496.9133	1499.4987	1501.8238	1536.0035	1688.6245	1762.7544	2827.8434	2975.7151	3001.036	3022.7552	3028.7717	3067.2447	3073.1617	3093.3345	3106.1126	3168.2059	3662.4376
CC1CNC=C(C1)C=O	C[C@H]1CNC=C(C1)C=O	
InChI=1S/C7H11NO/c1-6-2-7(5-9)4-8-3-6/h4-6,8H,2-3H2,1H3	InChI=1S/C7H11NO/c1-6-2-7(5-9)4-8-3-6/h4-6,8H,2-3H2,1H3/t6-/m1/s1
