22
gdb 18715	2.91123	2.04888	1.39814	0.207	80.88	-0.2596	0.081	0.3406	980.1638	0.203198	-313.082339	-313.074683	-313.073739	-313.113787	31.029	
C	-0.0719311935	 1.5563850052	 0.0166216195	-0.395312
C	 0.0486496123	 0.0273344288	 0.0063395938	 0.0278
C	 0.6694092889	-0.49406061	-1.3015675952	-0.200982
C	 0.8661066601	-2.0127971676	-1.2546917343	-0.196359
C	 1.8867676263	-2.4229010195	-0.1796939859	-0.215057
C	 1.6760621898	-1.7103092363	 1.1579700442	-0.033791
C	 2.2791909652	-0.3423826661	 1.3850993802	-0.287799
C	 0.7853776115	-0.4859889498	 1.2370579491	 0.001419
H	 0.9162565913	 2.0272292579	-0.0298261442	 0.11321
H	-0.6552103413	 1.9128348585	-0.8396630136	 0.104912
H	-0.564581383	 1.9103605195	 0.9286292046	 0.106785
H	-0.9693866738	-0.3883057057	 0.0543792011	 0.067256
H	 0.0178925088	-0.2184096674	-2.1390243114	 0.089198
H	 1.6321637154	 0.001952462	-1.4897669149	 0.090248
H	-0.1018386323	-2.4853184049	-1.0395544395	 0.092045
H	 1.1870521317	-2.3910065803	-2.2318154796	 0.086992
H	 1.8350669723	-3.5058610325	-0.0250523006	 0.093863
H	 2.9000200107	-2.2199162334	-0.5501531445	 0.096058
H	 1.6593553162	-2.3632673136	 2.0253145602	 0.077561
H	 2.680411891	-0.1023828539	 2.3639704033	 0.102491
H	 2.8395163586	 0.0925875135	 0.5626124006	 0.105368
H	 0.2183252239	-0.3720581942	 2.1580440269	 0.074093
113.8236	213.3972	232.8538	268.7967	309.1776	369.1217	417.7796	457.4215	537.9799	624.6922	727.0579	768.0451	830.4011	854.1052	865.316	890.788	934.3733	949.4425	992.2096	1001.3532	1038.0306	1062.3301	1074.7071	1097.9544	1117.3935	1133.3759	1148.2841	1173.6866	1204.4832	1229.4304	1251.8647	1289.3197	1334.0993	1349.3866	1368.092	1373.2451	1378.4232	1392.7828	1406.5111	1420.0767	1483.8297	1488.1996	1494.4049	1497.5344	1499.6153	1505.9843	2982.5091	3010.026	3015.2772	3018.2625	3025.6205	3056.635	3060.1272	3068.0083	3092.9252	3096.0002	3121.4862	3124.9256	3146.2741	3204.3991
CC1CCCC2CC12	C[C@H]1CCC[C@H]2C[C@@H]12	
InChI=1S/C8H14/c1-6-3-2-4-7-5-8(6)7/h6-8H,2-5H2,1H3	InChI=1S/C8H14/c1-6-3-2-4-7-5-8(6)7/h6-8H,2-5H2,1H3/t6-,7-,8-/m0/s1
