20
gdb 70818	2.35717	1.68512	1.48701	1.5986	79.87	-0.2372	0.0715	0.3087	1034.1071	0.169052	-403.072369	-403.063473	-403.062529	-403.105008	34.803	
C	 0.0174373956	 1.4664244305	-0.0142505744	-0.521968
C	-0.0349617848	-0.0292012006	-0.1020263634	 0.3392
C	 0.5360468987	-0.9560539832	-1.1831523158	-0.357952
C	 0.0281796987	-1.8975147521	-0.0845309218	 0.302927
C	 0.1733196605	-3.3859282937	 0.0287079083	-0.526643
N	 0.5423486056	-0.9403740516	 1.0262012233	-0.209428
C	-0.8210486831	-0.9664246783	 1.7113336771	-0.269159
C	-1.2127468107	-0.9836369481	 0.2377907811	 0.277008
O	-2.4534409411	-0.9287222937	-0.3786260484	-0.471571
H	 1.053436972	 1.8172468982	-0.0566962787	 0.129203
H	-0.5315273729	 1.9136716218	-0.8494816426	 0.130326
H	-0.4285336451	 1.8322197806	 0.9160618688	 0.124108
H	 0.0038298597	-0.9810588584	-2.1371203787	 0.101882
H	 1.6209721415	-0.9206935861	-1.3231271872	 0.097601
H	 1.2288880634	-3.6741175257	-0.0091732523	 0.133891
H	-0.24487679	-3.7638750002	 0.9678044249	 0.120266
H	-0.3436684692	-3.8850735242	-0.7982907512	 0.122855
H	-0.9906510995	-1.8648346188	 2.3136608604	 0.093773
H	-1.0363249599	-0.0688441125	 2.2986393	 0.102135
H	-2.9676796894	-1.6980876739	-0.1093930292	 0.281545
183.1503	184.5827	197.0563	199.3427	231.1671	247.3912	297.0737	310.6627	456.3686	472.3589	500.363	585.9304	626.9019	671.8766	715.1435	799.1129	865.4753	870.8621	890.1273	929.4771	997.967	1013.1037	1047.0149	1093.4392	1100.9703	1119.1523	1148.8695	1151.8168	1181.4823	1224.9747	1235.251	1263.3034	1295.808	1335.3322	1381.5314	1408.1399	1416.2066	1482.7383	1484.0719	1486.4932	1489.1	1497.7389	1524.0279	3029.7769	3035.0936	3044.8732	3051.6173	3097.2712	3100.3809	3102.2444	3105.7382	3107.5773	3118.3388	3799.4995
CC12CC3(C)N1CC23O	C[C@@]12C[C@@]3(C)N1C[C@@]23O	
InChI=1S/C7H11NO/c1-5-3-6(2)7(5,9)4-8(5)6/h9H,3-4H2,1-2H3	InChI=1S/C7H11NO/c1-5-3-6(2)7(5,9)4-8(5)6/h9H,3-4H2,1-2H3/t5-,6+,7+
