20
gdb 90166	2.78054	1.60056	1.38417	2.2265	78.12	-0.2212	0.0709	0.2921	1025.1619	0.173032	-403.107453	-403.09973	-403.098785	-403.139213	31.517	
O	 0.3739362946	 1.2630883275	-0.1829706074	-0.429022
C	 0.1029528633	-0.1193484332	-0.117463943	 0.037553
C	 0.4169407647	-0.7706209539	 1.2825850987	-0.34053
C	-1.0973423535	-0.9697104817	 1.4825499276	 0.252006
C	-2.0833384174	-0.4567908568	 2.5063328147	-0.285854
C	-3.2241135494	 0.1420034964	 1.6208634664	-0.203801
C	-2.5641058557	 0.5946635479	 0.2785303779	-0.292812
C	-1.3958474263	-0.3500656869	 0.1535852826	 0.263707
N	-1.683111614	-1.7609359808	 0.3978437669	-0.396203
H	 1.328761255	 1.3820984937	-0.2082438969	 0.28661
H	 0.5071809758	-0.6427612982	-0.9986567421	 0.057794
H	 1.0426795999	-1.6699764792	 1.3146911394	 0.087931
H	 0.8381317494	-0.0138321276	 1.9497217794	 0.107227
H	-2.4624289528	-1.2135720842	 3.2004287462	 0.100057
H	-1.6009630201	 0.3271640962	 3.101964632	 0.099257
H	-3.9602266996	-0.6375460145	 1.4129107662	 0.120511
H	-3.7463981002	 0.9623648768	 2.1209931773	 0.092848
H	-3.2741381481	 0.5611463998	-0.5536603174	 0.098622
H	-2.1771797799	 1.6161330406	 0.3498317718	 0.118103
H	-1.0032790457	-2.3779312421	-0.0403040904	 0.225995
122.3027	190.6312	237.7688	269.172	313.8853	408.096	449.1114	480.0152	523.8766	595.8984	646.0405	730.8714	744.3352	800.644	842.7723	850.2693	893.6387	906.1805	962.6703	978.8732	1010.472	1043.181	1064.037	1081.4343	1109.2008	1165.4949	1173.5562	1187.1702	1217.1909	1233.1061	1240.0813	1249.5058	1260.9294	1303.1516	1335.2399	1341.6055	1372.1448	1408.4859	1426.7341	1470.0941	1483.4564	1485.3891	1500.7804	2961.1492	3031.3666	3038.4127	3049.972	3067.371	3079.0191	3091.2188	3102.5505	3118.0492	3486.3697	3817.4117
OC1CC23CCCC12N3	O[C@H]1C[C@@]23CCC[C@@]12N3	
InChI=1S/C7H11NO/c9-5-4-6-2-1-3-7(5,6)8-6/h5,8-9H,1-4H2	InChI=1S/C7H11NO/c9-5-4-6-2-1-3-7(5,6)8-6/h5,8-9H,1-4H2/t5-,6-,7+/m0/s1
