14
gdb 24078	7.2819	0.80526	0.73857	4.0892	69.8	-0.2224	-0.0039	0.2185	1429.3805	0.100864	-436.703563	-436.6956	-436.694655	-436.738052	27.84	
N	-0.0715051165	-1.0752955331	 0.2085945295	-0.285314
C	 0.0007616196	 0.0690071472	 0.0765823454	 0.272059
C	 0.0476990549	 1.5187080505	-0.1125231798	-0.213724
O	 1.2865350626	 1.9994865173	 0.4100479265	-0.266129
C	 1.523668856	 3.3063844853	 0.2022943354	 0.441894
C	 2.6652342706	 3.9609594359	-0.1273066009	-0.300234
C	 2.3202292851	 5.3562657143	-0.1030339096	-0.162346
C	 1.0075080386	 5.4293597872	 0.2235640505	-0.017122
O	 0.4999472894	 4.1694668681	 0.4229638766	-0.187132
H	-0.0365460578	 1.7496408135	-1.1824657804	 0.160502
H	-0.8000688738	 1.9811918419	 0.4048334056	 0.173431
H	 3.6167799088	 3.5100399003	-0.3530474635	 0.12373
H	 2.9735409484	 6.1884726706	-0.3128068143	 0.119625
H	 0.304181894	 6.2352965109	 0.343031049	 0.14076
32.2071	42.8158	112.0271	220.5444	334.9564	380.192	439.2226	513.1172	611.1881	663.008	719.0471	756.0854	794.1984	849.4699	896.0133	953.2707	966.5399	1023.4722	1029.2757	1046.1226	1098.8194	1179.7229	1242.0011	1251.3824	1282.9311	1394.135	1417.987	1489.9217	1557.3882	1662.9942	2377.8541	3026.8037	3076.072	3258.1337	3279.1256	3296.0735
N#CCOC1=CC=CO1	N#CCOc1ccco1	
InChI=1S/C6H5NO2/c7-3-5-9-6-2-1-4-8-6/h1-2,4H,5H2	InChI=1S/C6H5NO2/c7-3-5-9-6-2-1-4-8-6/h1-2,4H,5H2
