19
gdb 114973	2.92505	1.3579	1.09005	1.1645	76.9	-0.2353	0.006	0.2413	1141.9368	0.160049	-422.981937	-422.973756	-422.972812	-423.014748	31.243	
O	-0.0406618075	 1.4063394635	-0.1362647629	-0.4254
C	 0.0065598368	-0.0017197887	 0.0591839941	-0.074291
C	-1.428861361	-0.520747363	 0.0292534765	-0.049914
C	-2.0871415713	-0.3151437356	-1.3845874571	-0.256195
C	-1.7669739215	-1.6176153278	-2.1173598303	-0.205346
C	-1.5180831576	-2.5621070156	-1.2186318926	 0.198154
C	-0.5614959263	-3.6499774485	-0.8014169143	-0.156102
O	-0.2930013922	-2.8855971732	 0.4173668961	-0.309861
C	-1.492253106	-2.0550246928	 0.1841380478	 0.08797
H	 0.8631220948	 1.7306295728	-0.1822751538	 0.286621
H	 0.5976046279	-0.4953130478	-0.7258390681	 0.091845
H	 0.4677446251	-0.2581083672	 1.0237708076	 0.099204
H	-1.9913333602	-0.0004570291	 0.8103862107	 0.076256
H	-3.1652335831	-0.1272058843	-1.2992396636	 0.105677
H	-1.6574442983	 0.5559515112	-1.8878585779	 0.124927
H	-1.6512328012	-1.6820248463	-3.1929421616	 0.098862
H	-1.0063955814	-4.6238562662	-0.5585626978	 0.108832
H	 0.3327088893	-3.796771535	-1.4161510492	 0.119003
H	-2.2867006265	-2.3840951163	 0.8666198165	 0.079758
97.706	134.7081	165.4415	253.6457	268.735	287.6068	351.2788	413.4885	494.0537	660.5417	729.9663	753.2585	812.1659	837.3056	880.849	901.7832	919.4475	942.5339	962.9062	1006.6464	1038.6749	1048.6621	1074.219	1090.0679	1122.7508	1140.2534	1184.3432	1216.5903	1240.3133	1242.7004	1274.5069	1288.1614	1320.7573	1332.48	1358.3016	1361.4613	1455.2469	1492.3257	1509.7158	1514.3257	1744.5427	2990.6137	3009.6028	3016.4058	3021.3614	3023.7121	3069.6973	3074.164	3088.7113	3200.6433	3834.0462
OCC1CC=C2COC12	OC[C@H]1C[CH][C]2CO[C@@H]12	
InChI=1S/C7H10O2/c8-3-5-1-2-6-4-9-7(5)6/h2,5,7-8H,1,3-4H2	InChI=1S/C7H10O2/c8-3-5-1-2-6-4-9-7(5)6/h2,5,7-8H,1,3-4H2/t5-,7+/m1/s1
