18
gdb 89386	2.69268	1.47629	1.21824	2.1325	72.72	-0.236	-0.0335	0.2025	1077.371	0.148171	-439.09217	-439.083858	-439.082914	-439.124816	31.991	
C	-0.0286109038	 1.5322570458	-0.0035076082	-0.469596
C	-0.0178047625	 0.0265573277	 0.0579063454	 0.322711
C	-1.2444773359	-0.7489380057	-0.4336088672	-0.288015
C	-1.1203817223	-2.1553360272	 0.1648160938	-0.025014
O	-0.5001416352	-3.0221759023	-0.7910068815	-0.425072
C	-0.1842837337	-1.9813066055	 1.3894721652	 0.400398
O	-0.1437559824	-2.7403126837	 2.3281503453	-0.336368
C	 0.6169441519	-0.7413092791	 1.1870688582	-0.187785
N	 1.2615035697	-0.6334670756	-0.1497568739	-0.361827
H	 0.9116589893	 1.9381448455	 0.3766037266	 0.136056
H	-0.147926533	 1.8713561708	-1.0388076791	 0.12648
H	-0.8558499574	 1.9441380358	 0.583926815	 0.120389
H	-2.1599980553	-0.2673731339	-0.0742560706	 0.113224
H	-1.2961756756	-0.7882615674	-1.5265387714	 0.12331
H	-2.0823678454	-2.5673158978	 0.4912327363	 0.098114
H	-0.3302152507	-3.8636292598	-0.3507253922	 0.298281
H	 1.1510443857	-0.296321962	 2.0192903442	 0.106259
H	 1.1494739266	-1.5034562757	-0.6693826359	 0.248455
96.4969	150.5865	208.8264	231.6989	288.8529	344.7731	395.9978	406.6711	435.0872	480.843	542.9699	642.4876	697.5099	748.9956	812.3424	877.909	908.1489	921.8402	991.4937	1011.4612	1031.9329	1058.181	1109.2278	1149.6672	1158.273	1202.1292	1216.2964	1234.9849	1285.2974	1311.636	1325.976	1341.9739	1398.3386	1409.5978	1438.6463	1479.9642	1486.7585	1496.9288	1825.8286	3033.8511	3036.4086	3051.6682	3091.9528	3096.5922	3127.5961	3178.4992	3471.9152	3794.5312
CC12CC(O)C(=O)C1N2	C[C@]12C[C@@H](O)C(=O)[C@H]1N2	
InChI=1S/C6H9NO2/c1-6-2-3(8)4(9)5(6)7-6/h3,5,7-8H,2H2,1H3	InChI=1S/C6H9NO2/c1-6-2-3(8)4(9)5(6)7-6/h3,5,7-8H,2H2,1H3/t3-,5-,6+/m1/s1
