23
gdb 121627	3.97186	0.68296	0.6242	1.9303	83.71	-0.2614	0.02	0.2814	1922.0543	0.20284	-425.481236	-425.469785	-425.468841	-425.519779	39.612	
C	 0.0816531777	 1.4523659095	 0.0816601365	-0.383423
C	-0.0478109602	-0.0728363826	 0.1212640125	-0.189527
C	-1.4982478604	-0.5207031933	 0.0442529063	-0.044338
O	-1.5195577329	-1.9595848637	 0.0893978937	-0.253302
C	-2.7387756921	-2.5357664365	 0.0283823749	 0.444529
O	-3.7671439875	-1.9092563993	-0.0423344134	-0.362539
C	-2.6217933644	-4.053078968	 0.0338742266	-0.083541
C	-3.9565610446	-4.6990855994	 0.4105552186	-0.38236
C	-2.1161209743	-4.5290276194	-1.3429729241	-0.390541
H	 1.130311473	 1.7572147928	 0.1380626355	 0.119796
H	-0.3355391348	 1.8645258457	-0.8435447442	 0.120498
H	-0.4464089895	 1.9196182811	 0.9199479406	 0.120691
H	 0.5069892234	-0.5218461549	-0.7106653869	 0.107583
H	 0.3966731791	-0.467080171	 1.0423617251	 0.108417
H	-2.0896240906	-0.1282700026	 0.878777539	 0.118371
H	-1.9793976688	-0.1837118315	-0.8805700674	 0.117482
H	-1.8582079338	-4.3095029264	 0.7774929746	 0.097463
H	-4.7361323324	-4.4145525628	-0.3010045218	 0.13336
H	-3.8636580033	-5.7893440564	 0.4095978812	 0.107492
H	-4.2868732881	-4.3827388606	 1.4037218625	 0.120893
H	-1.1573038866	-4.067861205	-1.5923005501	 0.127902
H	-1.9870117727	-5.615450315	-1.3422550393	 0.118455
H	-2.8359854761	-4.2757646506	-2.1285873005	 0.126638
20.5537	51.0906	68.9861	105.3832	161.1581	203.1951	229.5699	234.7368	243.4056	292.1692	311.6194	341.2858	389.1858	519.9944	642.8507	756.0789	763.8502	846.6615	891.4522	910.9262	931.2631	934.416	972.374	1014.6617	1055.4519	1115.3586	1131.6308	1148.442	1186.6835	1189.2502	1217.5558	1268.7012	1312.3653	1327.4681	1333.6343	1370.9302	1397.2577	1413.0665	1418.1296	1426.2878	1486.3763	1488.2113	1491.6608	1499.9351	1500.7692	1504.6925	1512.7027	1520.6513	1812.946	3033.6079	3034.308	3036.7342	3041.8184	3043.671	3044.956	3063.1257	3086.2688	3104.512	3106.6766	3111.1818	3114.63	3123.1716	3124.823
CCCOC(=O)C(C)C	CCCOC(=O)C(C)C	
InChI=1S/C7H14O2/c1-4-5-9-7(8)6(2)3/h6H,4-5H2,1-3H3	InChI=1S/C7H14O2/c1-4-5-9-7(8)6(2)3/h6H,4-5H2,1-3H3
