19
gdb 28437	2.99675	1.30194	0.91801	1.543	87.62	-0.2066	0.0066	0.2132	1279.485	0.159184	-385.974244	-385.965152	-385.964208	-386.00875	33.952	
C	-0.0731845643	 1.5347888989	 0.0138355379	-0.493147
C	-0.0281963078	 0.0261123928	-0.0106393961	 0.31234
C	 0.0101175171	-0.6777798263	-1.2171728831	-0.201146
C	 0.0804861441	-2.0646351395	-1.2378837541	-0.17542
C	 0.1120432332	-2.7800121639	-0.0429424598	 0.278403
O	 0.1779102248	-4.14273458	-0.1305250019	-0.441375
C	 0.0703346018	-2.1079789445	 1.1872930209	 0.209083
C	 0.0959661603	-2.8822073958	 2.4820749631	-0.537194
C	-0.0000762664	-0.7142469194	 1.1722169966	-0.27938
H	 0.9339785535	 1.9702945654	-0.0065225947	 0.128694
H	-0.6128221934	 1.9321857693	-0.8512884634	 0.122504
H	-0.5667358339	 1.9061456777	 0.9170775786	 0.120569
H	-0.0171975698	-0.133783991	-2.1569039694	 0.08792
H	 0.1072127393	-2.6146038376	-2.1719719082	 0.099065
H	 0.1908814907	-4.5179872922	 0.7550335113	 0.295049
H	 1.009654944	-3.4834372527	 2.5873192423	 0.129761
H	 0.0564668943	-2.2072695221	 3.3401645595	 0.134205
H	-0.7577703696	-3.5680541298	 2.5722098673	 0.129786
H	-0.0356796178	-0.1903458295	 2.1245045333	 0.080283
23.7125	137.2557	160.7396	196.596	274.5986	312.8885	318.4674	348.4743	445.4623	452.1448	490.6863	570.1371	575.0499	723.2408	732.9264	782.7937	840.9441	892.4538	939.0419	940.4478	995.8702	1029.5002	1056.2529	1061.5557	1133.2449	1167.7084	1206.5304	1259.4836	1307.9071	1320.9257	1368.9645	1410.205	1413.822	1446.1762	1487.9081	1488.2411	1494.2686	1508.4764	1539.6911	1632.6182	1663.6314	3002.5525	3022.4423	3045.6019	3079.2343	3107.5488	3115.1773	3151.6595	3167.1261	3196.1561	3835.1677
CC1=CC=C(O)C(C)=C1	Cc1ccc(O)c(C)c1	
InChI=1S/C8H10O/c1-6-3-4-8(9)7(2)5-6/h3-5,9H,1-2H3	InChI=1S/C8H10O/c1-6-3-4-8(9)7(2)5-6/h3-5,9H,1-2H3
