18
gdb 72377	2.37321	2.0157	1.49074	1.7897	75.84	-0.2447	0.0073	0.252	951.0469	0.149591	-401.986867	-401.979494	-401.97855	-402.018527	29.186	
C	-0.2422332336	 1.4775554426	 0.0365563225	-0.448897
C	 0.0262184107	-0.0168760164	-0.0458431712	 0.354067
O	-1.2749111581	-0.7045957778	-0.0196890664	-0.258693
C	-1.171616994	-1.626650079	 0.9593160793	 0.104762
N	-0.1200588593	-1.7062795615	 1.6650075048	-0.275495
C	 0.790931689	-0.6660225939	 1.1583427777	-0.048315
C	 2.1007597616	-1.2542456491	 0.5763871256	-0.27165
C	 1.9234969521	-1.1144819154	-0.9143329886	-0.06681
C	 0.8166834961	-0.4558445414	-1.2513873435	-0.122788
H	 0.7031938783	 2.0284385353	 0.051918962	 0.124779
H	-0.8228848495	 1.8181767338	-0.8260291448	 0.127092
H	-0.8021221062	 1.7186560545	 0.9450978875	 0.127276
H	-2.047144393	-2.2571671446	 1.0756911624	 0.135102
H	 0.9976864069	 0.0458427075	 1.9638596753	 0.082474
H	 2.9853664539	-0.7063119091	 0.9256960627	 0.108436
H	 2.2305585429	-2.2948842989	 0.8907055329	 0.126806
H	 2.6473470634	-1.5076758517	-1.6204455997	 0.101627
H	 0.4876459287	-0.2340779649	-2.2602600184	 0.100228
93.4765	220.2206	225.1076	267.1717	322.2978	405.7969	471.9118	560.6106	610.9592	621.7498	734.2946	780.1987	832.6249	854.7055	869.5065	926.8639	955.9709	963.6526	966.3557	982.4693	1041.5324	1047.4086	1101.0657	1113.2258	1160.5881	1190.3888	1198.1271	1237.0866	1280.0309	1315.7971	1326.2931	1337.6261	1388.2681	1407.5815	1477.9998	1484.6947	1491.1801	1681.6319	1697.6469	3025.4336	3038.1597	3052.8514	3076.8593	3113.5996	3115.1609	3183.0117	3204.9256	3208.8397
CC12OC=NC1CC=C2	C[C@]12OC=N[C@H]1CC=C2	
InChI=1S/C7H9NO/c1-7-4-2-3-6(7)8-5-9-7/h2,4-6H,3H2,1H3	InChI=1S/C7H9NO/c1-7-4-2-3-6(7)8-5-9-7/h2,4-6H,3H2,1H3/t6-,7+/m0/s1
