14
gdb 125467	5.48348	1.30896	1.0637	1.8244	70.7	-0.2266	-0.0155	0.2111	1060.0776	0.104039	-432.894633	-432.887726	-432.886782	-432.926121	25.879	
C	-0.0143586462	 1.4533110731	 0.0589767152	-0.493891
C	-0.0048093312	-0.0259771611	-0.0600048932	 0.35821
N	-0.1051830368	-0.7369933961	-1.1502307404	-0.39537
C	-0.0374499871	-2.0251495795	-0.6677391285	 0.375221
C	 0.1013005159	-2.0413957011	 0.6968227355	 0.232512
O	 0.1248598091	-0.7367455465	 1.1142604635	-0.235701
C	 0.1608486615	-3.386502425	 1.087880963	-0.1587
N	 0.0612904827	-4.1548495576	-0.0042194743	-0.21421
N	-0.0593095765	-3.3155141302	-1.0699481054	-0.339887
H	 0.9140370821	 1.8141871707	 0.5135609877	 0.1523
H	-0.1215045111	 1.8892463423	-0.9341534222	 0.160425
H	-0.8425819642	 1.7885458171	 0.6918038504	 0.152303
H	 0.2659930556	-3.8448061969	 2.0579071512	 0.126136
H	-0.1464356138	-3.7066886492	-1.9914444325	 0.280653
96.9073	148.1012	285.3411	306.7431	355.0631	449.8856	520.5333	577.8064	664.7413	669.7151	768.3364	781.8834	819.5728	854.0793	926.6965	985.0918	1027.6364	1062.0573	1074.6265	1177.9993	1242.3048	1274.3327	1330.8161	1396.1218	1408.8467	1470.6573	1472.2668	1499.7242	1570.0236	1578.7303	1609.7471	3045.6191	3100.5378	3161.5585	3266.5816	3687.1449
CC1=NC2=C(O1)C=NN2	Cc1nc2c(o1)cn[nH]2	
InChI=1S/C5H5N3O/c1-3-7-5-4(9-3)2-6-8-5/h2H,1H3,(H,6,8)	InChI=1S/C5H5N3O/c1-3-7-5-4(9-3)2-6-8-5/h2H,1H3,(H,6,8)
