19
gdb 82994	3.57427	1.55147	1.45615	2.7592	73.33	-0.2351	0.0724	0.3074	955.0393	0.162893	-423.014035	-423.007333	-423.006388	-423.044733	28.273	
O	 0.0182324189	 1.463532862	-0.092590915	-0.440354
C	 0.0138683087	 0.0625042543	 0.0425604572	 0.140783
C	 0.1429645784	-0.6035672908	 1.4508985597	-0.112124
C	-0.9145164427	 0.1962684228	 2.2359040334	-0.231005
C	-2.1190841493	-0.1134614589	 1.3025302809	 0.117065
O	-2.7931405739	-1.2786759664	 1.7886489787	-0.273422
C	-1.8318922412	-2.3399360854	 1.7131625271	-0.10963
C	-0.7132212521	-1.7749228241	 0.8389160696	-0.043576
C	-1.3639090111	-0.60567556	 0.0360904612	-0.078752
H	 0.9306570914	 1.7692497541	-0.0811364711	 0.283681
H	 0.6837839349	-0.4103141987	-0.6874890581	 0.06786
H	 1.1123877216	-0.78249725	 1.9179583234	 0.056014
H	-1.105287948	-0.1695083209	 3.2470967394	 0.099464
H	-0.6640275988	 1.25787706	 2.2747528915	 0.104716
H	-2.8578419602	 0.676294596	 1.1782490132	 0.080886
H	-1.4831355646	-2.6209593911	 2.7169398368	 0.095172
H	-2.3096253354	-3.218046777	 1.2621840905	 0.101917
H	-0.1414189605	-2.5042462203	 0.2656205164	 0.073126
H	-1.951404166	-0.7571005756	-0.8682029347	 0.068177
200.4405	253.7783	269.2859	291.8553	436.1912	465.9452	531.5309	642.6723	709.7693	742.1997	784.793	811.0122	839.2367	890.9725	902.9385	928.6382	962.8151	978.5738	995.7543	1015.3607	1030.0572	1046.0799	1070.3805	1117.9111	1131.1145	1147.0857	1163.8179	1193.5684	1198.2727	1233.4781	1243.4513	1270.0627	1279.4564	1306.8356	1318.0711	1332.7835	1349.6166	1383.8588	1441.4072	1490.677	1525.9085	3001.0722	3017.3766	3044.8477	3073.7018	3103.6136	3119.7538	3125.0704	3129.1888	3140.7935	3818.882
OC1C2CC3OCC2C13	O[C@H]1[C@H]2C[C@@H]3OC[C@H]2[C@H]13	
InChI=1S/C7H10O2/c8-7-3-1-5-6(7)4(3)2-9-5/h3-8H,1-2H2	InChI=1S/C7H10O2/c8-7-3-1-5-6(7)4(3)2-9-5/h3-8H,1-2H2/t3-,4+,5-,6-,7-/m0/s1
