18
gdb 19535	3.52046	1.65696	1.56139	1.0429	67.18	-0.241	0.076	0.3169	904.1433	0.155469	-384.91935	-384.911833	-384.910889	-384.951391	28.191	
O	-0.0865292643	 1.3268652211	-0.5427096434	-0.426683
C	 0.0171298336	 0.0899173749	 0.1616919925	-0.11839
C	-1.3323702676	-0.5806865238	 0.0892581367	-0.004007
C	-1.8465735446	-1.2854718062	-1.1432852151	-0.064514
C	-0.8316239372	-1.7520028023	-2.169614405	-0.094997
O	 0.1695840712	-2.4744442647	-1.4496371644	-0.255381
C	-0.3997559067	-2.9944269846	-0.2508254664	-0.094571
C	-1.5532266789	-2.0771200394	 0.1123392607	-0.098338
H	 0.769586854	 1.7631093572	-0.4973356843	 0.284167
H	 0.793603915	-0.5479342254	-0.2752972706	 0.114278
H	 0.2768299031	 0.2634103846	 1.2187003164	 0.080486
H	-2.1012735074	-0.0185806692	 0.6138674253	 0.091233
H	-2.8593758074	-1.0938578534	-1.4774438949	 0.089181
H	-1.3217489294	-2.39612629	-2.9167007481	 0.091294
H	-0.3244026332	-0.9357838615	-2.6944590512	 0.118342
H	-0.7805244087	-4.0176335118	-0.4020480551	 0.0938
H	 0.4030223023	-3.039553108	 0.4938586533	 0.105406
H	-2.3450716838	-2.4817934576	 0.7322794536	 0.088693
68.3024	150.4284	231.5711	239.9965	272.3009	310.6753	486.417	504.5567	697.1977	735.744	774.4293	810.8115	896.8023	917.7499	963.4184	983.1288	996.8064	1025.0541	1061.0392	1080.9266	1090.928	1124.5113	1124.9176	1130.6659	1199.0962	1226.044	1246.1254	1255.6648	1290.167	1329.927	1357.9215	1362.0228	1381.749	1444.8692	1477.4001	1513.5401	1525.2251	1533.5089	2967.5204	2971.3698	2980.4075	3055.188	3056.8819	3070.9229	3137.1042	3172.9056	3184.5197	3824.3698
OCC1C2COCC12	OC[C@H]1[C@H]2COC[C@@H]12	
InChI=1S/C6H10O2/c7-1-4-5-2-8-3-6(4)5/h4-7H,1-3H2	InChI=1S/C6H10O2/c7-1-4-5-2-8-3-6(4)5/h4-7H,1-3H2/t4-,5+,6-
