19
gdb 86101	2.58627	1.28266	1.00309	3.0052	78.23	-0.2409	-0.0167	0.2242	1235.7223	0.157776	-423.051759	-423.042622	-423.041678	-423.085897	33.719	
C	-0.0286489652	 1.4543382766	-0.0837517212	-0.493246
C	 0.0209205685	-0.0392705874	-0.0259979793	 0.29829
C	-0.053055031	-0.8954576629	-1.0495659505	-0.168042
C	-0.0238000751	-2.3323442518	-0.592253415	-0.168437
C	 0.8067866443	-3.2838140323	-1.4287323034	 0.15731
O	 1.4148191205	-2.9685148937	-2.4198277468	-0.25305
C	 0.5309602849	-2.2154644891	 0.8644140496	 0.104262
O	 1.9406438626	-2.3974812741	 0.8880006657	-0.42829
C	 0.1264396234	-0.7868341739	 1.2903197465	-0.320372
H	 0.8658087772	 1.8983599221	 0.3710473162	 0.127847
H	-0.1062045728	 1.8166808056	-1.1121114009	 0.128965
H	-0.886584052	 1.8422275214	 0.4803739263	 0.128515
H	-0.1441589248	-0.6219849604	-2.0935298557	 0.106691
H	-1.0400273265	-2.7614163137	-0.5565090867	 0.100123
H	 0.8111470633	-4.3339318421	-1.0607263359	 0.079931
H	 0.1353341634	-2.9868284879	 1.5285414189	 0.089846
H	 2.330058103	-1.7337717698	 0.3051656791	 0.288902
H	 0.8702749016	-0.369184306	 1.9787196887	 0.111849
H	-0.8363551952	-0.7806426903	 1.8207200147	 0.108907
68.9336	106.3489	132.4537	182.7031	214.1571	279.6145	323.3051	381.5083	399.9254	445.984	489.7009	594.1884	707.9801	723.6177	830.8857	842.8054	883.9404	890.3239	943.5082	980.9929	1005.6906	1027.733	1050.4834	1067.6207	1113.7864	1164.8048	1192.3331	1223.6467	1255.1562	1273.2695	1315.0371	1329.4479	1356.135	1413.3066	1425.4319	1433.8844	1473.7158	1479.5847	1487.8075	1712.6567	1825.8131	2884.5422	2963.0649	3010.4824	3018.8582	3062.5192	3064.4225	3094.5582	3114.6207	3210.6431	3781.941
CC1=CC(C=O)C(O)C1	CC1=C[C@@H](C=O)[C@@H](O)C1	
InChI=1S/C7H10O2/c1-5-2-6(4-8)7(9)3-5/h2,4,6-7,9H,3H2,1H3	InChI=1S/C7H10O2/c1-5-2-6(4-8)7(9)3-5/h2,4,6-7,9H,3H2,1H3/t6-,7-/m0/s1
