19
gdb 33213	5.3872	0.67089	0.6359	1.5804	79.03	-0.2129	0.0229	0.2357	1752.0161	0.159385	-423.052422	-423.043316	-423.042372	-423.087653	32.666	
O	-0.0616797291	 1.4577307489	 0.3057113489	-0.4209
C	 0.0123033961	 0.0525381531	 0.1232457862	-0.074386
C	-1.4101457666	-0.4867359339	 0.0593746147	-0.160322
C	-1.4515155074	-2.0127802035	-0.1383313793	-0.324877
C	-2.8329171759	-2.5688562194	-0.1751071992	 0.376126
C	-3.5716285786	-3.1905136676	-1.1345637872	-0.27711
C	-4.848707869	-3.4798119148	-0.5486865544	-0.168512
C	-4.7897236255	-3.0113994863	 0.7229692768	-0.021175
O	-3.5721016539	-2.45448634	 0.9684102462	-0.179939
H	 0.83447418	 1.8032282535	 0.3509563902	 0.28528
H	 0.5496142108	-0.2015400908	-0.8060720325	 0.082124
H	 0.5554644266	-0.4303894057	 0.9528089765	 0.084114
H	-1.9321476652	-0.2196875109	 0.9839778155	 0.121862
H	-1.9422543239	 0.0091837902	-0.7599070168	 0.111253
H	-0.9560770562	-2.2844215911	-1.077012369	 0.112064
H	-0.882830806	-2.4970771674	 0.6676353257	 0.114256
H	-3.2465950891	-3.4168914424	-2.1382120825	 0.103059
H	-5.6889537114	-3.97010395	-1.0146868614	 0.108013
H	-5.4858884759	-2.9932989218	 1.5450528717	 0.129071
47.6969	75.257	89.8652	124.8133	240.9734	260.9388	309.6867	335.2243	463.1751	615.1029	663.5867	734.5183	746.2951	758.9026	803.1366	844.8892	862.0973	902.4862	949.2018	1019.4997	1031.2435	1033.1172	1075.3732	1084.7994	1122.1506	1183.5907	1204.3967	1229.3417	1240.0497	1254.9127	1304.3441	1308.001	1315.1128	1377.0042	1418.6911	1464.1003	1474.3173	1500.14	1528.461	1543.3832	1638.8516	2953.1491	2977.8919	3011.2876	3049.4942	3066.9494	3098.7239	3249.2455	3260.824	3285.2841	3830.4393
OCCCC1=CC=CO1	OCCCc1ccco1	
InChI=1S/C7H10O2/c8-5-1-3-7-4-2-6-9-7/h2,4,6,8H,1,3,5H2	InChI=1S/C7H10O2/c8-5-1-3-7-4-2-6-9-7/h2,4,6,8H,1,3,5H2
