16
gdb 36661	4.22347	0.9451	0.90095	5.0668	69.32	-0.2494	0.0093	0.2587	1290.524	0.123693	-437.824333	-437.816237	-437.815293	-437.858126	29.077	
N	-0.2657162017	-0.9188167195	 0.3014216809	-0.294104
C	 0.0040376617	 0.1694699734	 0.0265226164	 0.263161
C	 0.325315409	 1.5461114305	-0.3580829139	-0.188816
O	 1.0487869676	 2.1563791396	 0.6954646932	-0.245641
C	 1.3626188538	 3.4898993188	 0.4335531098	 0.098879
C	 2.7497230766	 3.9851369426	 0.7234762031	-0.184541
C	 3.7485226802	 2.9204982912	 0.2751574533	-0.083658
O	 3.1486045315	 2.8488040956	-1.0513174132	-0.281477
C	 2.242664559	 3.8931350474	-0.7142221484	 0.035833
H	 0.9217975192	 1.5329857257	-1.279747759	 0.165668
H	-0.6155626164	 2.0785648103	-0.5646381712	 0.139068
H	 0.5683360294	 4.2007993357	 0.6676743083	 0.102178
H	 2.960811245	 4.8294057855	 1.3650414594	 0.111506
H	 4.7747453762	 3.292419898	 0.2022184986	 0.118306
H	 3.72050406	 1.9594163088	 0.795431967	 0.13058
H	 2.004425529	 4.6298530764	-1.4736117043	 0.113058
46.1164	97.3815	124.7713	226.9218	243.9818	336.9201	385.9895	470.66	551.6599	702.8315	732.0661	799.9992	826.1774	925.7423	954.5406	968.3529	972.209	1019.6435	1034.4346	1045.1258	1062.0322	1072.6172	1095.177	1133.7861	1171.8196	1214.3203	1257.1337	1261.3356	1312.5011	1345.7119	1397.4145	1443.0479	1490.9299	1506.5343	2373.9276	2995.621	3048.5113	3052.3986	3097.1761	3111.067	3175.4658	3210.8952
N#CCOC1C2COC12	N#CCO[C@H]1[C@H]2CO[C@@H]12	
InChI=1S/C6H7NO2/c7-1-2-8-5-4-3-9-6(4)5/h4-6H,2-3H2	InChI=1S/C6H7NO2/c7-1-2-8-5-4-3-9-6(4)5/h4-6H,2-3H2/t4-,5+,6-/m1/s1
