16
gdb 97191	3.81095	1.19308	0.9375	2.812	72.59	-0.2368	0.0135	0.2504	1215.9497	0.125929	-471.233016	-471.224797	-471.223853	-471.266341	29.766	
C	-0.4522584425	 1.4052415383	-0.2577985924	-0.328944
N	-0.1040808165	 0.0076485631	-0.0817144709	-0.350953
C	 0.7633973155	-0.5228650779	-0.821476396	 0.498615
N	 1.174211039	-1.8390464087	-0.6255508569	-0.400261
C	 1.7827084064	-2.6276371149	-1.5892657655	 0.457772
N	 1.7773359175	-3.8886859221	-1.5193155302	-0.565247
O	 2.3685280079	-1.904767331	-2.5907899738	-0.22843
C	 2.5896055914	-0.5471623442	-2.2704158664	-0.010646
O	 1.3927877577	 0.08563454	-1.8738168991	-0.235468
H	 0.2622431526	 1.9717366232	-0.8664137061	 0.118711
H	-1.4394252262	 1.4847107972	-0.7292366656	 0.129369
H	-0.530620428	 1.8777108199	 0.7267226454	 0.125711
H	 0.6952750381	-2.3370580764	 0.1099988348	 0.284059
H	 2.3295380549	-4.2882403948	-2.2749133721	 0.232151
H	 3.3414782213	-0.4662588341	-1.4743159609	 0.126937
H	 2.9260960709	-0.0548037177	-3.1815852441	 0.146624
87.8231	97.6738	133.9784	212.191	250.6447	300.9664	401.1107	463.611	536.7071	600.6901	646.721	709.2217	727.1508	781.8405	820.1985	871.3931	913.5259	1028.6812	1044.3827	1077.9437	1135.0069	1139.7032	1166.1902	1185.1024	1280.4855	1302.0833	1399.5898	1415.4959	1446.7139	1467.3552	1494.7971	1502.1731	1521.2302	1781.7483	1809.1838	3015.192	3023.5243	3072.9012	3089.1528	3153.0907	3530.528	3638.9429
CN=C1NC(=N)OCO1	CN=C1N[C]([NH])OCO1	
InChI=1S/C4H7N3O2/c1-6-4-7-3(5)8-2-9-4/h2H2,1H3,(H2,5,6,7)	InChI=1S/C4H7N3O2/c1-6-4-7-3(5)8-2-9-4/h2H2,1H3,(H2,5,6,7)
