19
gdb 112171	2.54782	1.16339	0.97328	1.2326	72.07	-0.2463	-0.0297	0.2166	1265.8113	0.1558	-460.161985	-460.151826	-460.150882	-460.197458	36.556	
C	-0.0857999011	 1.6126845241	 0.1501784486	-0.431483
C	-0.1157343189	 0.091567028	-0.0105362303	 0.276146
O	-1.4239663084	-0.3956194965	 0.1870242706	-0.481111
C	 0.6432475526	-0.4756959071	-1.2722257417	-0.049512
C	 0.8447932096	 0.3942815152	-2.5035696642	-0.095608
O	 1.7310346671	-0.2001785141	-3.4405237884	-0.41422
C	 1.8921593802	-0.7880264028	-0.3844554105	-0.357412
C	 0.9568738657	-0.6442143042	 0.814185858	 0.340048
O	 0.8907703132	-1.1363438806	 1.906810484	-0.315906
H	 0.9160498859	 2.0295030482	 0.009346843	 0.118706
H	-0.7628731413	 2.0776487953	-0.5721463066	 0.134311
H	-0.4274913597	 1.8743244126	 1.1556497421	 0.130649
H	-1.4323247113	-0.8327042662	 1.0484237851	 0.294053
H	 0.1422951991	-1.4088521179	-1.5523257122	 0.08638
H	-0.1283992632	 0.628285128	-2.9626116717	 0.101312
H	 1.3115569159	 1.3457551498	-2.2294067252	 0.110392
H	 1.3233143067	-1.0117030448	-3.7599798652	 0.28386
H	 2.3964617078	-1.749170549	-0.4948356101	 0.133908
H	 2.6406612102	 0.0102533519	-0.4322474452	 0.135486
43.686	86.8512	151.0259	159.362	205.9176	235.8231	270.6351	281.3117	311.028	346.367	401.8561	454.6248	498.4011	614.997	669.1483	747.9512	807.2821	855.7473	876.3486	964.9219	1008.6641	1027.6763	1057.3565	1098.7038	1113.4788	1124.2942	1139.007	1209.1842	1216.6475	1241.4079	1277.3032	1345.1862	1369.6847	1392.9857	1400.1794	1423.3695	1443.8336	1485.8814	1491.1223	1506.1364	1875.0631	2985.3482	3039.5771	3048.7133	3059.2301	3079.6606	3115.7858	3118.5861	3129.2909	3768.2895	3813.4851
CC1(O)C(CO)CC1=O	C[C@@]1(O)[C@@H](CO)CC1=O	
InChI=1S/C6H10O3/c1-6(9)4(3-7)2-5(6)8/h4,7,9H,2-3H2,1H3	InChI=1S/C6H10O3/c1-6(9)4(3-7)2-5(6)8/h4,7,9H,2-3H2,1H3/t4-,6-/m1/s1
