16
gdb 125379	2.94745	1.26623	0.97975	4.8344	74.58	-0.2466	0.0087	0.2553	1182.5819	0.125761	-396.974697	-396.966211	-396.965267	-397.008603	30.36	
C	 0.2611987196	 1.4935765914	 0.119361584	-0.522659
C	 0.0856771998	 0.0084743402	 0.0347725108	 0.148793
C	-0.0495395015	-0.7706630016	-1.0960019242	-0.100395
N	-0.1788825695	-2.0542627152	-0.6783186664	-0.190154
N	-0.1358420247	-2.1779098153	 0.6581812201	-0.282836
C	 0.0229102719	-0.9318185427	 1.0966972335	 0.280757
C	 0.0963963656	-0.6788289078	 2.5789569168	-0.440767
C	 1.3450821615	-0.0299688115	 2.9897449867	 0.266565
N	 2.3248103292	 0.496775737	 3.3026950349	-0.318947
H	 1.1905088534	 1.760473368	 0.6335396516	 0.157521
H	 0.2880540988	 1.9425071559	-0.8770117191	 0.125639
H	-0.5586480456	 1.9684910683	 0.6713161797	 0.128649
H	-0.059915957	-0.508482837	-2.142581084	 0.137338
H	-0.2936301723	-2.8799614108	-1.2407479327	 0.278474
H	-0.7359223439	-0.0459612499	 2.9122013738	 0.158089
H	 0.0027530247	-1.6359510889	 3.1005159344	 0.173931
49.6475	107.4507	108.8691	228.6997	250.7696	312.348	381.6914	400.359	482.0927	504.3929	648.457	668.6588	702.2575	781.2547	795.8143	925.9367	944.0151	959.4974	1011.1624	1068.9336	1091.5094	1151.4367	1218.4965	1232.8099	1321.57	1329.6642	1407.2944	1425.5779	1451.6825	1470.8905	1484.992	1493.7375	1516.8319	1614.1136	2361.837	3030.2674	3034.1959	3083.854	3097.6662	3115.0443	3258.4457	3678.496
CC1=CNN=C1CC#N	Cc1c[nH]nc1CC#N	
InChI=1S/C6H7N3/c1-5-4-8-9-6(5)2-3-7/h4H,2H2,1H3,(H,8,9)	InChI=1S/C6H7N3/c1-5-4-8-9-6(5)2-3-7/h4H,2H2,1H3,(H,8,9)
