18
gdb 102633	2.50444	1.0636	0.96321	2.5178	64.64	-0.2577	0.047	0.3047	1301.7563	0.146877	-513.39403	-513.384173	-513.383229	-513.429503	35.433	
N	-0.2901016471	 1.258495351	-0.0644960081	-0.560728
C	-0.0236806251	-0.0802971601	-0.0175362715	 0.503004
O	 1.0788109041	-0.5734973984	 0.0179985674	-0.395513
O	-1.1859491361	-0.7844892392	-0.0664935335	-0.284524
C	-1.0616617996	-2.221440445	 0.0169005336	 0.080506
C	-0.9316751001	-2.6696568291	 1.4777218626	-0.07378
O	-1.9834214295	-2.2299595967	 2.3086152062	-0.431176
C	-2.2988764179	-2.7687122068	-0.6885655825	-0.095764
O	-3.512808336	-2.3662879539	-0.0562739678	-0.419789
H	 0.4781808881	 1.8649199458	 0.1672537627	 0.27177
H	-1.2174191834	 1.5728773782	 0.166382474	 0.26419
H	-0.1613874336	-2.5302485294	-0.5242947304	 0.113547
H	-0.8333238224	-3.7696275601	 1.4750877542	 0.083635
H	-0.0035764975	-2.2623860363	 1.8884379785	 0.129794
H	-2.8069084469	-2.4445286619	 1.8494661806	 0.285506
H	-2.2890820342	-2.457832073	-1.7422830746	 0.108942
H	-2.2827351708	-3.8622279149	-0.6572686722	 0.122834
H	-3.5176861221	-1.4017370203	-0.0694815492	 0.297543
50.7827	74.3249	105.9173	157.4821	204.9521	268.8711	300.2094	319.6636	379.776	391.6581	468.6111	494.6846	513.7612	629.5602	662.2689	748.3824	785.9009	830.0708	910.6543	939.9243	981.2844	1040.4055	1066.6339	1114.2765	1118.3567	1127.4588	1224.5537	1243.7854	1324.5445	1334.6089	1383.2781	1398.8535	1405.3445	1429.6147	1469.0222	1495.2414	1510.6543	1613.955	1833.358	2953.9816	3013.7524	3071.9609	3093.1545	3095.121	3611.9543	3738.6966	3740.5431	3799.9054
NC(=O)OC(CO)CO	NC(=O)OC(CO)CO	
InChI=1S/C4H9NO4/c5-4(8)9-3(1-6)2-7/h3,6-7H,1-2H2,(H2,5,8)	InChI=1S/C4H9NO4/c5-4(8)9-3(1-6)2-7/h3,6-7H,1-2H2,(H2,5,8)
