19
gdb 33121	3.01835	0.99096	0.79432	1.4659	77.68	-0.216	0.0252	0.2411	1433.5132	0.158703	-423.054376	-423.044939	-423.043995	-423.089473	33.81	
C	-0.0707890272	 1.5139182165	-0.0010962038	-0.509341
C	-0.0255385127	 0.0171343955	-0.0012291338	 0.160311
C	 0.0030484389	-0.801982264	-1.0852879843	-0.096195
O	 0.0607899758	-2.108951683	-0.7125859306	-0.147309
C	 0.0703492692	-2.1210230394	 0.6457549239	-0.100988
C	 0.0191272232	-0.8588091563	 1.149978582	 0.144568
C	-0.0037453695	-0.4630458298	 2.596048567	-0.307963
C	-1.4121855502	-0.1502625304	 3.1073810358	-0.063019
O	-1.2981263635	 0.240758153	 4.4663500992	-0.417885
H	 0.7664179517	 1.9413371588	 0.5629335831	 0.131606
H	-0.0193806241	 1.908383669	-1.0197592742	 0.12505
H	-0.9908639599	 1.8967959792	 0.455591441	 0.129276
H	-0.0042212107	-0.6161052101	-2.1472267302	 0.130548
H	 0.1258080507	-3.0940843934	 1.1069025358	 0.132146
H	 0.414195443	-1.2625717857	 3.2167677922	 0.112102
H	 0.6215840781	 0.4219148813	 2.7630867895	 0.112009
H	-1.8638492269	 0.6480509743	 2.4971192359	 0.08911
H	-2.0461097262	-1.0435703453	 2.9940116315	 0.089768
H	-2.1799089694	 0.4254852799	 4.8021457401	 0.286208
54.7334	83.9423	114.6354	135.2612	231.2975	254.7298	256.527	341.4566	377.3412	403.3248	622.0483	636.1361	673.3846	739.0849	762.1895	782.1565	801.3543	893.1062	1006.9714	1012.0952	1052.2001	1065.5593	1077.8951	1088.5177	1176.6633	1185.4577	1217.918	1237.7961	1260.869	1302.9067	1308.429	1344.3927	1397.5717	1421.2898	1452.2281	1481.3488	1487.6184	1496.4112	1525.0199	1583.0298	1652.5928	2969.0183	2997.4514	3026.1206	3037.4092	3074.3281	3082.7259	3108.7237	3265.9243	3271.2784	3832.1865
CC1=COC=C1CCO	Cc1cocc1CCO	
InChI=1S/C7H10O2/c1-6-4-9-5-7(6)2-3-8/h4-5,8H,2-3H2,1H3	InChI=1S/C7H10O2/c1-6-4-9-5-7(6)2-3-8/h4-5,8H,2-3H2,1H3
