14
gdb 128753	7.32593	0.77269	0.70211	5.5832	72.31	-0.2542	-0.0537	0.2006	1519.4264	0.100811	-470.00023	-469.991862	-469.990917	-470.036633	27.403	
C	 0.2063462477	 0.9916795165	 0.6096492849	-0.257282
O	-0.1573809805	 0.4369520252	-0.6597487513	-0.173743
C	 0.5885859629	-0.5656920939	-1.0958839545	 0.160658
N	 0.3176054503	-1.1045037266	-2.2199834908	-0.346879
C	 1.1267039126	-2.1351796786	-2.6122257713	 0.516161
N	 2.1625349384	-2.6899349685	-2.0279379026	-0.352362
C	 2.5081999922	-3.6503564286	-2.9343700706	 0.039692
N	 1.7636040852	-3.7107493143	-4.0066873853	-0.121188
O	 0.8293852304	-2.690326234	-3.7947978866	-0.199978
H	 0.1337184522	 0.2380222796	 1.400141385	 0.146211
H	 1.2200715368	 1.4035120811	 0.5795365854	 0.146212
H	-0.5068854516	 1.7922006766	 0.8024067326	 0.161391
H	 1.4149537952	-0.8803558222	-0.4484308711	 0.138597
H	 3.3388975183	-4.3279523224	-2.796378024	 0.14251
8.9206	37.8214	121.525	160.474	176.3576	332.7233	371.2817	409.4558	560.5943	653.2167	790.2515	831.0693	931.4117	937.0638	983.8797	1026.246	1032.1702	1071.323	1172.0591	1175.3748	1214.2143	1266.0398	1294.6235	1341.9102	1406.8543	1481.9347	1494.7638	1495.845	1524.2465	1594.5764	1718.1042	3035.3052	3072.6184	3110.0959	3163.8647	3252.5507
COC=NC1=NC=NO1	COC=Nc1ncno1	
InChI=1S/C4H5N3O2/c1-8-3-6-4-5-2-7-9-4/h2-3H,1H3	InChI=1S/C4H5N3O2/c1-8-3-6-4-5-2-7-9-4/h2-3H,1H3
