15
gdb 27371	1.95787	1.87058	0.96237	6.9795	71.24	-0.2251	-0.0145	0.2107	1151.1382	0.113191	-454.018112	-454.009959	-454.009015	-454.050995	30.31	
C	-0.0181294335	 1.4837979751	 0.0730140875	-0.486691
C	-0.0006432655	-0.0160631981	-0.0358567265	 0.391109
N	-0.0228241895	-0.6005033762	-1.1789045572	-0.342032
C	-0.0056438183	-2.0218970544	-1.2573993619	 0.381974
O	-0.0255753165	-2.5779607213	-2.3375089803	-0.370404
C	 0.0383614201	-2.7468369755	 0.0126187345	-0.402939
C	 0.0596936388	-2.0651276714	 1.1771173393	 0.489041
O	 0.0997915737	-2.5600926238	 2.4308112775	-0.420292
N	 0.040365842	-0.6946284362	 1.1667107145	-0.383944
H	 0.876771587	 1.8500565486	 0.5889357385	 0.140428
H	-0.0521001051	 1.9064060639	-0.9296459672	 0.170796
H	-0.8921260005	 1.8259876027	 0.6388650944	 0.140306
H	 0.0529684525	-3.8294444994	-0.0088464065	 0.103168
H	 0.1119231298	-3.5231939649	 2.3853066073	 0.318191
H	 0.0569222752	-0.2045530291	 2.0475927561	 0.271288
96.3631	125.2715	173.9637	228.8053	293.8222	367.3911	396.9717	490.3324	504.3418	521.3309	595.7076	596.2226	622.7687	686.9126	764.7028	840.6108	903.2934	974.8293	1017.8524	1060.0639	1083.134	1164.4846	1207.7639	1238.7472	1299.3241	1399.9567	1421.1211	1474.3185	1484.1944	1535.5415	1652.6161	1722.5793	1776.1511	3036.1538	3092.1795	3172.4058	3207.1612	3638.0581	3817.4656
CC1=NC(=O)C=C(O)N1	Cc1nc(=O)cc(O)[nH]1	
InChI=1S/C5H6N2O2/c1-3-6-4(8)2-5(9)7-3/h2H,1H3,(H2,6,7,8,9)	InChI=1S/C5H6N2O2/c1-3-6-4(8)2-5(9)7-3/h2H,1H3,(H2,6,7,8,9)
