17
gdb 24693	3.69315	1.5527	1.1237	2.946	79.86	-0.2441	-0.0339	0.2102	1051.0193	0.140751	-380.947907	-380.941279	-380.940335	-380.978942	26.246	
C	 0.1179417172	 1.4181569913	-0.3731323992	-0.213784
C	 1.409979642	 2.0008614299	 0.268227245	-0.340862
C	 2.1530563132	 0.7639651784	 0.7066355778	 0.249009
C	 3.4647636261	 0.5434584611	 1.0901552681	-0.100386
N	 3.8919623987	-0.6739138234	 1.4555747887	-0.253257
C	 2.9872679229	-1.6520310992	 1.4359478128	 0.056508
N	 1.6965749428	-1.5640730974	 1.087801974	-0.33485
C	 1.3041012029	-0.3474848816	 0.7238909112	 0.321051
C	-0.0911819585	 0.0345754932	 0.2930414212	-0.32216
H	-0.7424239293	 2.0804106447	-0.2564598918	 0.106797
H	 0.2806602559	 1.2809781506	-1.4470257888	 0.114692
H	 1.9783611912	 2.6286588891	-0.4243372841	 0.116783
H	 1.1690256678	 2.6281254238	 1.1367853731	 0.120261
H	 4.2045379954	 1.342086642	 1.1055430366	 0.11274
H	 3.3375802857	-2.6376491972	 1.7333642993	 0.115826
H	-0.7380294383	 0.105971244	 1.1775645861	 0.124976
H	-0.5420088358	-0.7098037994	-0.36793803	 0.126655
137.9774	172.4128	261.7136	398.0804	409.6771	526.8304	535.2849	612.0805	640.2321	758.4266	772.0564	858.1036	870.6699	899.9084	913.7385	946.1488	1007.6808	1009.7575	1061.2146	1116.2378	1149.0472	1169.7153	1211.9848	1227.2623	1244.9822	1272.3402	1291.9447	1328.4283	1331.938	1348.0676	1428.7774	1472.1665	1474.8219	1488.5605	1502.5929	1602.0182	1626.0076	3021.6099	3027.7367	3054.4704	3081.1189	3098.5589	3113.0613	3142.642	3164.2889
C1CC2=CN=CN=C2C1	C1Cc2cncnc2C1	
InChI=1S/C7H8N2/c1-2-6-4-8-5-9-7(6)3-1/h4-5H,1-3H2	InChI=1S/C7H8N2/c1-2-6-4-8-5-9-7(6)3-1/h4-5H,1-3H2
