17
gdb 108649	2.22411	1.57526	0.93823	4.0454	72.75	-0.2588	-0.0294	0.2294	1201.9878	0.13494	-459.01586	-459.006696	-459.005752	-459.051015	32.191	
C	 0.1952062333	 1.5376436012	-0.0251912914	-0.503435
C	 0.0043324163	 0.0567119772	-0.0365411983	 0.174329
C	-1.0983077698	-0.7024323438	 0.0199438975	 0.025298
C	-2.5580235395	-0.3978753302	 0.1152156882	-0.175666
O	-2.7869286034	 0.9993182085	 0.1515269438	-0.418052
C	-0.6953960464	-2.1292950756	-0.0273838315	 0.420116
O	-1.3911410845	-3.1079513764	 0.0004310903	-0.359137
O	 0.6705895649	-2.1917718454	-0.1130619758	-0.233703
C	 1.1930789794	-0.8680267561	-0.1247263044	-0.162992
H	 0.8273482862	 1.8355213685	 0.8209329341	 0.132195
H	 0.718626537	 1.8629747752	-0.933184366	 0.132192
H	-0.7571106904	 2.0585080497	 0.0419910571	 0.171936
H	-3.0644410256	-0.871019985	-0.741676836	 0.120541
H	-2.9557245412	-0.8988086532	 1.0127039058	 0.120547
H	-3.7354141005	 1.1423859967	 0.2125660225	 0.29485
H	 1.7695520152	-0.7166627853	-1.0468388316	 0.130489
H	 1.8793092188	-0.744386736	 0.7234038657	 0.13049
22.068	115.2457	136.6279	203.1648	226.8069	238.3737	276.4587	303.8303	354.1344	481.6755	527.5634	639.38	659.5715	765.2683	772.8995	941.9469	960.0441	1001.8939	1035.5183	1064.3518	1087.2071	1103.2935	1129.7427	1188.5774	1205.075	1251.1166	1251.871	1321.7985	1372.5695	1410.9145	1470.2095	1483.2195	1491.0995	1495.8071	1502.8078	1745.0863	1855.3097	2971.7346	2989.2694	3016.287	3024.8934	3049.3428	3066.7154	3180.8259	3840.0494
CC1=C(CO)C(=O)OC1	CC1=C(CO)C(=O)OC1	
InChI=1S/C6H8O3/c1-4-3-9-6(8)5(4)2-7/h7H,2-3H2,1H3	InChI=1S/C6H8O3/c1-4-3-9-6(8)5(4)2-7/h7H,2-3H2,1H3
