13
gdb 132320	2.07797	1.74341	0.94802	3.0509	67.52	-0.2105	-0.0338	0.1767	1106.3378	0.088542	-497.887921	-497.880612	-497.879668	-497.919767	28.116	
O	 0.0669548018	 1.3115917644	 0.0072995492	-0.394351
C	-0.0415702513	-0.0182352192	 0.001039568	 0.515876
C	-1.2244513561	-0.6720473262	 0.0037688245	-0.45917
C	-1.1434472743	-2.095213246	-0.0039562379	 0.365039
F	-2.2988398209	-2.7513618256	-0.0013796467	-0.064869
C	 0.0246573306	-2.7758300944	-0.0134571274	-0.345495
C	 1.2713326384	-2.0604883662	-0.0161894497	 0.398105
N	 2.4291013413	-2.5728693305	-0.0247904361	-0.534485
O	 1.1463066489	-0.6352336543	-0.0082393878	-0.285292
H	 1.0067824951	 1.5368041281	 0.0036287228	 0.315543
H	-2.1646929859	-0.1441938491	 0.0113166589	 0.134035
H	 0.0623938618	-3.8549361163	-0.0191938882	 0.134195
H	 3.1555769506	-1.8592214946	-0.0248673596	 0.220869
138.6303	189.904	214.9021	334.8601	349.785	396.8811	470.4517	524.7572	564.3922	621.0973	627.9072	662.6557	702.8671	766.468	799.2888	842.0652	854.9614	1001.3105	1014.2715	1082.1413	1165.395	1205.3603	1252.3142	1266.7188	1407.7598	1481.0938	1632.3271	1706.998	1768.5689	3249.6636	3263.2642	3513.6153	3792.5773
OC1=CC(F)=CC(=N)O1	O[C@H]1C=C(F)C=C([NH])O1	
InChI=1S/C5H4FNO2/c6-3-1-4(7)9-5(8)2-3/h1-2,7-8H	InChI=1S/C5H5FNO2/c6-3-1-4(7)9-5(8)2-3/h1-2,5,7-8H/t5-/m1/s1
