18
gdb 29508	3.07595	1.50166	1.02849	2.6321	79.54	-0.1957	0.0451	0.2408	1143.0987	0.149628	-401.978423	-401.970248	-401.969304	-402.011364	30.373	
C	-0.0071755876	 1.5360813758	-0.0054218143	-0.505875
C	-0.0057851542	 0.0374869381	 0.0234571015	 0.08828
C	-0.0058395404	-0.8026796939	-1.0734068968	-0.158051
N	-0.0030415427	-2.1185571293	-0.6423204012	-0.386593
C	-0.0022235247	-2.114069638	 0.7210892256	 0.256646
C	-0.0038400191	-0.8234054738	 1.1608609081	 0.186516
C	-0.0028657375	-0.83699831	 2.656035408	-0.183978
O	-0.0026258331	-2.2386077515	 3.0044664672	-0.281085
C	 0.0004493602	-3.0872402816	 1.8502215143	-0.170812
H	 0.8732246446	 1.9544035136	 0.4971283242	 0.123788
H	-0.0078882646	 1.9101940039	-1.0334026525	 0.119121
H	-0.8880054035	 1.9527975271	 0.4977221	 0.123783
H	-0.0069294604	-0.5683996638	-2.1267402777	 0.115565
H	-0.0056619851	-2.9233293727	-1.2433584928	 0.260262
H	 0.8836355994	-0.3632067149	 3.1036815442	 0.103019
H	-0.8886199036	-0.3633682673	 3.1051992323	 0.103172
H	-0.8848010975	-3.7426873392	 1.8750413685	 0.103144
H	 0.8896952499	-3.7373700625	 1.8749829713	 0.103098
93.4017	122.6725	151.3595	210.5473	228.8519	304.3976	421.8155	476.7114	583.4597	617.4769	627.7372	659.4314	704.401	781.902	852.7794	895.1757	1003.6936	1021.2994	1037.9332	1058.9212	1072.9412	1082.266	1104.2314	1155.5045	1193.788	1213.1069	1264.9825	1324.2476	1341.9011	1397.8806	1419.3147	1449.9892	1483.1235	1499.0568	1523.7026	1530.8477	1534.4954	1554.1817	1627.7518	2963.9018	2977.8956	2981.8566	2998.6197	3021.3303	3067.4566	3103.3603	3251.6239	3685.7401
CC1=CNC2=C1COC2	Cc1c[nH]c2c1COC2	
InChI=1S/C7H9NO/c1-5-2-8-7-4-9-3-6(5)7/h2,8H,3-4H2,1H3	InChI=1S/C7H9NO/c1-5-2-8-7-4-9-3-6(5)7/h2,8H,3-4H2,1H3
