16
gdb 35646	4.18769	0.92938	0.79951	4.0641	85.78	-0.2481	-0.0383	0.2098	1375.4613	0.124506	-363.61368	-363.605359	-363.604415	-363.646926	30.918	
C	 0.1057919528	-1.2515660489	-0.0440149261	-0.39147
C	 0.0358384954	-0.0490514591	-0.024277211	 0.194637
C	 0.0128070399	 1.3652026814	 0.013726073	 0.192259
C	-1.0321189042	 2.1514984409	-0.2796694755	-0.174876
C	-0.7110773484	 3.61756839	-0.0574149808	-0.173392
C	 0.8448932038	 3.6215623242	 0.0541555075	-0.233901
C	 1.2154728187	 2.1803516474	 0.466320494	-0.325114
C	-1.2202900056	 4.5022901431	-1.1065765933	 0.264503
N	-1.6199466438	 5.2014427281	-1.9355996962	-0.323165
H	 0.1496337864	-2.3124626607	-0.0666045878	 0.199697
H	-2.010405475	 1.8111238848	-0.5923420532	 0.12556
H	-1.1650928278	 3.9527241986	 0.8873127724	 0.136147
H	 1.2670170338	 3.8474332765	-0.9280475388	 0.136266
H	 1.2029792575	 4.3794050902	 0.7531717161	 0.120746
H	 1.3459361357	 2.0807689756	 1.5513857221	 0.124653
H	 2.1457154607	 1.8372570978	 0.0050376278	 0.12745
79.6268	122.3642	137.8407	193.1417	252.5902	367.4546	471.7192	508.7325	524.9984	549.8377	575.2741	617.7678	639.606	644.4724	835.6805	852.7045	887.0596	907.5522	975.8102	1014.2489	1030.3278	1074.8495	1152.1594	1178.0574	1233.8163	1265.7097	1278.8633	1300.5895	1331.5932	1357.7294	1485.7797	1501.0922	1672.9602	2225.4692	2358.1113	2994.2092	3031.8212	3074.6043	3089.1713	3127.4219	3226.7957	3502.0734
C#CC1=CC(CC1)C#N	C#CC1=C[C@@H](CC1)C#N	
InChI=1S/C8H7N/c1-2-7-3-4-8(5-7)6-9/h1,5,8H,3-4H2	InChI=1S/C8H7N/c1-2-7-3-4-8(5-7)6-9/h1,5,8H,3-4H2/t8-/m1/s1
