21
gdb 99286	5.54544	0.59573	0.56146	1.491	80.06	-0.2444	-0.0092	0.2352	2000.931	0.179493	-424.231221	-424.220737	-424.219793	-424.2692	36.165	
C	 0.1778605937	 1.447699823	-0.0802634756	-0.3748
C	-0.1068646967	-0.0430640741	-0.2447412877	-0.27556
C	-1.5344831561	-0.4362123236	 0.1145994627	 0.370697
O	-2.3693519861	 0.3862174331	 0.4183416142	-0.298822
C	-1.8529548461	-1.9258805088	 0.0724992433	-0.293043
C	-3.3347797075	-2.2418543673	 0.2888284619	-0.215583
C	-3.5994896961	-3.7263261611	 0.2756874469	 0.089097
C	-4.7929296339	-4.3103840953	-0.346504964	-0.179576
O	-3.5234327934	-4.3751750344	-0.9997698367	-0.240342
H	 1.2081649062	 1.6785207528	-0.36490298	 0.109579
H	-0.4962006466	 2.043029779	-0.7008566791	 0.133248
H	 0.02657553	 1.7626865421	 0.9555699218	 0.128706
H	 0.071364321	-0.3670908587	-1.2799222364	 0.12446
H	 0.5783539146	-0.6512178779	 0.3615620429	 0.117723
H	-1.5103787797	-2.3389295623	-0.8847494951	 0.135421
H	-1.2329859767	-2.4185201735	 0.8361423465	 0.119473
H	-3.6666910135	-1.8158620974	 1.2419702636	 0.117901
H	-3.9292660024	-1.7580792969	-0.4924623171	 0.115134
H	-3.1242480003	-4.2945625292	 1.0789585457	 0.087989
H	-5.1843862711	-5.2616897652	 0.0116501428	 0.113559
H	-5.5263908894	-3.6549388844	-0.8147837004	 0.114738
23.5026	44.1544	67.3481	96.7292	120.8665	196.4206	222.4733	271.7667	336.086	426.4103	474.1874	481.6304	644.824	707.7161	774.7808	811.9262	832.6838	880.9866	945.5306	964.8249	991.627	1017.3858	1044.5233	1074.8092	1108.4199	1129.5663	1140.4024	1160.7439	1171.5616	1210.8279	1280.1539	1284.7979	1298.864	1318.5739	1365.2337	1388.9835	1413.8759	1445.3863	1449.8472	1458.1572	1473.5582	1492.8382	1498.2555	1531.4496	1804.9026	3009.4378	3018.8894	3042.3253	3051.5443	3051.7033	3057.6612	3076.7334	3082.4951	3100.5341	3121.8851	3128.3918	3167.2859
CCC(=O)CCC1CO1	CCC(=O)CC[C@H]1CO1	
InChI=1S/C7H12O2/c1-2-6(8)3-4-7-5-9-7/h7H,2-5H2,1H3	InChI=1S/C7H12O2/c1-2-6(8)3-4-7-5-9-7/h7H,2-5H2,1H3/t7-/m0/s1
