19
gdb 66004	2.71291	1.30858	1.18434	1.988	76.04	-0.2417	-0.0284	0.2134	1144.1549	0.157648	-423.017016	-423.008043	-423.007098	-423.05093	33.744	
O	-0.325977906	 1.3298807664	 0.706104398	-0.483294
C	 0.0477134772	 0.0458942458	 0.2673724169	 0.292058
C	 0.8628837354	-0.0495273366	-1.0728172888	-0.281509
C	 1.9030755692	-0.9900342565	-0.3821600092	-0.341216
C	 1.3215950327	-0.4970810301	 0.9457269279	 0.339579
O	 1.7643910748	-0.298631049	 2.0429169478	-0.314542
C	-1.1278490611	-0.9163215903	 0.3042344817	-0.017788
C	-2.1367241453	-0.845239677	 1.418726758	-0.269265
C	-2.5195818054	-0.4063567001	 0.0264951311	-0.274885
H	 0.1480369703	 1.4921264051	 1.5316935988	 0.297085
H	 0.3230392469	-0.4568272449	-1.9281309691	 0.112625
H	 1.2919475404	 0.9204752856	-1.3287388193	 0.121908
H	 1.7018016331	-2.0509680777	-0.5584543682	 0.13473
H	 2.9671650056	-0.8013409158	-0.5358657634	 0.133018
H	-0.8941341914	-1.907547777	-0.0750917487	 0.081292
H	-2.5391217504	-1.7745952588	 1.8055801547	 0.110209
H	-2.0053165875	-0.0631706334	 2.1571467971	 0.118331
H	-2.6317861587	 0.658673078	-0.1370973271	 0.132622
H	-3.1853704098	-1.0342602535	-0.5548144881	 0.109044
71.0605	81.3894	148.2574	224.3926	232.9326	277.8986	290.1457	381.8756	455.653	491.3455	583.6434	687.8804	734.9556	760.1002	788.8969	821.9393	841.3974	907.7271	926.7107	953.6896	987.3877	1040.4286	1061.6628	1074.1338	1078.242	1088.7543	1130.4463	1136.122	1185.3139	1200.1018	1205.355	1227.0358	1238.8204	1282.5646	1356.1623	1400.6203	1446.7037	1456.3915	1482.7014	1498.5746	1873.0394	3065.6534	3084.8788	3125.6697	3138.5053	3140.7044	3145.9663	3150.4679	3224.4663	3238.1593	3772.6625
OC1(CCC1=O)C1CC1	O[C@]1(CCC1=O)C1CC1	
InChI=1S/C7H10O2/c8-6-3-4-7(6,9)5-1-2-5/h5,9H,1-4H2	InChI=1S/C7H10O2/c8-6-3-4-7(6,9)5-1-2-5/h5,9H,1-4H2/t7-/m1/s1
