14
gdb 24856	2.35601	1.82047	1.02695	3.9007	77.89	-0.2579	-0.0999	0.158	1072.3765	0.102127	-436.728959	-436.721482	-436.720537	-436.762795	27.188	
N	-0.1425942198	 1.3248373006	 0.412312639	-0.478432
C	-0.0610156587	 0.1447274775	-0.054235051	 0.354719
O	 1.186880675	-0.3285652873	-0.4103495215	-0.267936
C	 1.6774265165	-1.5077015665	-0.9336509139	 0.392401
O	 2.8646427694	-1.5499810221	-1.114566365	-0.300285
C	 0.8194928382	-2.6564209068	-1.2584515716	-0.19495
C	-0.508304594	-2.8116908596	-1.133911525	-0.071945
C	-1.4905228853	-1.8748845048	-0.6351001689	-0.113254
C	-1.2931669151	-0.6271943966	-0.1806070181	-0.081437
H	 0.7836627235	 1.7544372066	 0.449238168	 0.237941
H	 1.412137334	-3.4724072621	-1.6562175922	 0.137391
H	-0.9108231209	-3.7711688723	-1.4488590292	 0.123893
H	-2.5141116723	-2.2378106466	-0.6326694763	 0.120658
H	-2.1449608005	-0.05036124	 0.1609022657	 0.141237
20.0053	62.293	250.5576	323.19	382.7093	426.1267	442.0281	533.6097	595.5927	649.3063	738.3633	765.4344	817.1133	849.699	883.7644	921.3046	951.0713	985.0893	1021.153	1032.8892	1141.5841	1165.931	1254.7642	1280.0184	1363.5979	1418.4774	1459.5579	1661.7876	1675.5688	1719.734	1808.0261	3158.6858	3176.3051	3204.4255	3209.0849	3479.5254
N=C1OC(=O)C=CC=C1	[NH]C1=CC=C[CH]C(=O)O1	
InChI=1S/C6H5NO2/c7-5-3-1-2-4-6(8)9-5/h1-4,7H	InChI=1S/C6H5NO2/c7-5-3-1-2-4-6(8)9-5/h1-4,7H
