21
gdb 88862	3.50367	1.06062	0.90125	0.8212	79.55	-0.2514	0.0921	0.3434	1362.5036	0.182716	-424.215313	-424.206186	-424.205242	-424.250465	33.157	
C	 0.1963464143	 1.6051667278	-0.3030178885	-0.405379
C	-0.0482451007	 0.1338373947	-0.0424385069	 0.007048
C	 1.0719949976	-0.8728930282	-0.0802602162	-0.306573
C	 0.3841063713	-0.5620140393	 1.2288447235	-0.015954
C	 1.1186314759	 0.1613069684	 2.315474589	 0.207492
O	 0.2127135241	 0.9050845992	 3.1243393626	-0.272476
C	 0.6647122154	 0.8352900957	 4.4724492813	-0.087606
C	 1.9173334501	-0.0614010201	 4.4001960468	-0.110991
O	 1.7455586976	-0.7613659783	 3.1805505927	-0.249513
H	 1.1979489451	 1.9161317143	 0.0071748133	 0.115593
H	 0.1046794591	 1.8250235243	-1.3722809644	 0.113412
H	-0.5253411738	 2.2291048919	 0.2343305331	 0.128468
H	-1.0012627511	-0.2200808035	-0.4272223991	 0.086503
H	 0.9042420838	-1.8446132654	-0.5305470755	 0.112476
H	 2.0804992936	-0.4918074075	-0.212582589	 0.111572
H	-0.2919024941	-1.3121689085	 1.6272456199	 0.089436
H	 1.8793985329	 0.8505598124	 1.9040569276	 0.053033
H	 0.8930587987	 1.8369444623	 4.856350268	 0.101647
H	-0.1255179131	 0.3950811082	 5.0921657774	 0.107828
H	 2.8369622807	 0.5434337384	 4.3795738912	 0.096679
H	 1.9900132125	-0.7872874869	 5.212868263	 0.117307
44.3009	56.3043	111.3971	161.1989	198.5355	231.7675	342.3725	390.7075	417.1545	527.458	691.3333	737.8991	776.6526	847.5941	859.6636	882.483	906.1932	947.7906	969.0047	987.7664	1027.0942	1047.3076	1066.673	1070.7168	1109.3893	1125.9139	1148.64	1161.3755	1195.0206	1202.9156	1224.7576	1240.7113	1250.5431	1334.1318	1340.8877	1376.137	1388.3703	1402.3704	1421.9444	1467.1296	1492.5792	1493.9886	1507.2537	1516.8178	1533.0518	2925.2771	2986.376	3021.2499	3033.4645	3057.7363	3094.4965	3104.7963	3107.4656	3127.4645	3137.818	3160.4052	3213.0755
CC1CC1C1OCCO1	C[C@H]1C[C@H]1C1OCCO1	
InChI=1S/C7H12O2/c1-5-4-6(5)7-8-2-3-9-7/h5-7H,2-4H2,1H3	InChI=1S/C7H12O2/c1-5-4-6(5)7-8-2-3-9-7/h5-7H,2-4H2,1H3/t5-,6+/m0/s1
