16
gdb 26865	3.06925	1.42236	0.97874	5.7943	79.57	-0.2007	-0.0407	0.16	1152.3245	0.125483	-434.133569	-434.125281	-434.124337	-434.166198	31.424	
C	 0.0137052449	 1.5411556868	 0.0259931872	-0.506881
C	-0.0151010987	 0.0361623273	 0.0097116774	 0.254279
C	-1.2016660723	-0.6718306583	 0.0381447822	 0.360137
N	-2.4520536885	-0.0929284536	 0.1369537336	-0.579585
N	-1.1459243659	-2.033503661	 0.0277920597	-0.397301
C	 0.0424243555	-2.7931776729	-0.0086715633	 0.378548
O	-0.0016702713	-4.0111848618	-0.0099155054	-0.397192
C	 1.2143044834	-1.9348278584	-0.0382452811	-0.144613
N	 1.1679546586	-0.6319540064	-0.025694343	-0.265024
H	 1.0523649949	 1.8683911545	-0.0403402012	 0.150992
H	-0.5297411863	 1.9829853984	-0.8212123008	 0.114625
H	-0.415222712	 1.9610197116	 0.9452018287	 0.126807
H	-2.4766554145	 0.8901604254	-0.0882961255	 0.268601
H	-3.2152311309	-0.60102845	-0.2879974772	 0.258104
H	-1.9932761289	-2.5835908942	 0.0882842996	 0.255757
H	 2.181857692	-2.4269347274	-0.0700253608	 0.122745
119.1967	127.6743	200.0285	258.7379	296.4126	321.055	346.4753	460.6151	491.2783	505.5625	560.3566	584.3831	648.4512	718.6062	732.0437	777.6199	780.9896	895.3364	951.6061	983.2383	1059.713	1102.7432	1188.9651	1237.3546	1287.8046	1321.1135	1405.8705	1410.8416	1485.2085	1490.3558	1495.697	1573.6264	1632.4754	1661.7072	1783.3171	3002.1605	3047.2532	3139.0357	3175.2988	3564.2752	3585.6413	3670.55
CC1=C(N)NC(=O)C=N1	Cc1c(N)[nH]c(=O)cn1	
InChI=1S/C5H7N3O/c1-3-5(6)8-4(9)2-7-3/h2H,1H3,(H3,6,8,9)	InChI=1S/C5H7N3O/c1-3-5(6)8-4(9)2-7-3/h2H,1H3,(H3,6,8,9)
