21
gdb 95909	2.29496	1.48497	1.16294	1.0858	83.94	-0.2576	0.0388	0.2964	1169.7083	0.181272	-387.075843	-387.066096	-387.065152	-387.110116	37.103	
C	-0.5901924185	 1.2413436536	 0.1153428248	-0.417645
C	 0.0272985149	-0.1409680967	-0.071625654	 0.033742
C	 1.0793478437	-0.2444879511	-1.196784416	-0.227487
C	 1.9835402475	-1.4550545073	-0.8307457873	-0.219955
C	 1.5306689849	-1.909813357	 0.5781984422	-0.24558
C	 0.7929202587	-0.6836691369	 1.1627060123	 0.199262
O	 1.7342717183	 0.331913843	 1.5320083841	-0.471359
C	-0.0732814853	-1.0161224356	 2.2948334145	 0.258812
C	-0.7622129473	-1.2934202182	 3.2410520772	-0.429521
H	 0.1794926136	 1.9774174322	 0.3601774768	 0.132674
H	-1.0974725259	 1.5634816967	-0.7998339163	 0.106563
H	-1.3265364394	 1.2370448351	 0.9251803113	 0.119516
H	-0.7721639599	-0.8662019474	-0.2687213742	 0.078107
H	 0.6044241897	-0.3553200316	-2.1756004887	 0.092905
H	 1.6699507936	 0.6755810061	-1.2277070687	 0.110566
H	 1.8888298585	-2.2718851735	-1.5511333209	 0.097639
H	 3.0353587626	-1.1599919528	-0.8238413605	 0.106844
H	 0.8321639868	-2.7505479418	 0.5182938996	 0.107854
H	 2.356697976	-2.2196909767	 1.2250217218	 0.092572
H	 2.1617738414	 0.0491163933	 2.3470186997	 0.282508
H	-1.377358634	-1.5331077833	 4.0730326725	 0.191985
66.4462	118.7534	133.3303	197.3216	223.5305	254.9967	268.2206	323.2389	372.5121	465.4434	500.0738	556.341	577.7432	625.1188	636.1176	661.0549	720.2316	779.132	857.526	888.2207	922.1859	962.2371	1000.397	1031.1787	1044.3527	1059.9801	1094.1898	1137.3515	1165.1248	1204.7596	1234.1261	1264.3596	1292.6641	1325.0365	1327.7364	1335.9213	1362.2728	1390.1235	1408.7138	1480.4351	1486.9255	1494.5076	1504.6203	1510.5054	2228.331	3026.826	3039.4302	3049.1199	3053.9642	3067.5443	3084.0084	3094.832	3102.4831	3113.5849	3126.1141	3499.9756	3817.8373
CC1CCCC1(O)C#C	C[C@H]1CCC[C@]1(O)C#C	
InChI=1S/C8H12O/c1-3-8(9)6-4-5-7(8)2/h1,7,9H,4-6H2,2H3	InChI=1S/C8H12O/c1-3-8(9)6-4-5-7(8)2/h1,7,9H,4-6H2,2H3/t7-,8+/m0/s1
