21
gdb 122399	5.45013	0.62462	0.58631	3.2831	81.21	-0.2406	-0.0179	0.2227	1910.1708	0.179766	-424.231077	-424.221026	-424.220082	-424.267822	35.571	
C	-0.0637718203	 1.4249132699	-0.2444101675	-0.384385
C	-0.0321151187	-0.0823856441	-0.0581424294	-0.027776
O	-1.3624587592	-0.5568963526	 0.0097462919	-0.245231
C	-1.4541988673	-1.9519531407	 0.1837958895	-0.066908
C	-2.9192954302	-2.3359555816	 0.2249437118	 0.003329
C	-3.7238162514	-2.1484397149	-1.0994629272	-0.344997
C	-4.1665853792	-3.6150272817	-0.9833718406	 0.403632
O	-4.9703810629	-4.2898761575	-1.5568846734	-0.286996
C	-3.2281510687	-3.8660954065	 0.2120246088	-0.374576
H	 0.9534404025	 1.8236122478	-0.301106124	 0.115871
H	-0.5915727652	 1.6865580321	-1.165868819	 0.127259
H	-0.5788861164	 1.9041003572	 0.5929205619	 0.127388
H	 0.5008611937	-0.5654892664	-0.8948886674	 0.085796
H	 0.5125230412	-0.3478688208	 0.8639098373	 0.086156
H	-0.9490146695	-2.4796966736	-0.6463212706	 0.079267
H	-0.9494846414	-2.2630563409	 1.1153303813	 0.088209
H	-3.4023320955	-1.8277605877	 1.0629025694	 0.09002
H	-4.5293155427	-1.4101295666	-1.1061585753	 0.1326
H	-3.0908113956	-1.9702727028	-1.9758638334	 0.132036
H	-2.3698447788	-4.4901065279	-0.064074888	 0.128158
H	-3.6966404042	-4.3001331706	 1.0989036038	 0.131147
31.9305	53.7549	83.4386	112.8077	153.6355	244.3141	267.8552	303.1173	409.7307	419.4405	460.9909	501.5321	649.8543	674.6768	778.7222	822.226	896.2342	902.1588	917.1999	953.6685	1009.0855	1049.9019	1069.907	1110.5586	1129.5732	1150.0971	1164.3192	1184.5451	1191.5039	1213.4422	1236.9866	1255.5725	1283.5909	1298.3373	1351.0477	1390.4531	1408.2257	1425.1264	1445.5999	1452.6855	1483.4168	1499.2101	1512.4813	1536.1977	1894.7187	2931.6422	2955.251	2964.6872	2978.255	3044.6259	3045.4737	3054.8373	3081.2047	3110.7827	3115.252	3120.1085	3121.9481
CCOCC1CC(=O)C1	CCOCC1CC(=O)C1	
InChI=1S/C7H12O2/c1-2-9-5-6-3-7(8)4-6/h6H,2-5H2,1H3	InChI=1S/C7H12O2/c1-2-9-5-6-3-7(8)4-6/h6H,2-5H2,1H3
