17
gdb 18234	4.47218	1.61724	1.32564	4.1123	69.83	-0.2262	0.0324	0.2586	930.7036	0.144294	-363.883918	-363.876874	-363.87593	-363.91563	26.577	
O	-0.0983160666	 0.0246426009	 0.0503338127	-0.347623
C	 0.0023221103	 1.2358965157	 0.0325365161	 0.135723
N	 1.1727602085	 1.9151931815	 0.0947157218	-0.026774
C	 2.4731673784	 1.25128146	 0.2030770365	-0.182603
C	 3.4026180638	 2.3266570477	 0.8164426114	-0.234994
C	 2.7249518436	 3.6578586671	 0.5117434676	-0.055891
C	 2.2792184533	 3.9314238127	-0.9101331948	-0.310485
C	 1.3129963985	 3.3468487897	 0.0945129051	 0.018836
H	-0.870326296	 1.9171596225	-0.0240777269	 0.067259
H	 2.371917378	 0.3511479283	 0.8119279912	 0.141553
H	 2.8247729265	 0.9346925139	-0.7861465034	 0.119579
H	 3.4650312539	 2.2000350508	 1.9020533544	 0.115683
H	 4.4184596967	 2.2545791923	 0.4176783057	 0.11203
H	 2.9403219195	 4.5030874316	 1.1546074526	 0.096837
H	 2.1365125015	 4.9694403285	-1.1902433342	 0.120102
H	 2.6375819206	 3.2957083758	-1.7132116576	 0.121562
H	 0.4463245693	 3.9042993009	 0.4285300319	 0.109207
53.7678	176.7866	228.3427	300.1559	330.3109	425.784	502.4667	652.4784	709.6182	781.4145	810.2979	846.0858	870.8631	925.9282	956.2329	1002.9362	1016.0931	1028.3855	1055.0927	1074.9566	1105.2814	1127.1318	1197.9084	1204.1059	1220.5085	1261.8464	1304.5421	1317.9779	1358.4443	1377.6421	1424.9212	1458.0705	1484.9061	1497.297	1524.0208	1786.7875	2929.7213	3031.1002	3052.0523	3093.2248	3115.4146	3131.7136	3177.0222	3188.0881	3219.8043
O=CN1CCC2CC12	O=CN1CC[C@H]2C[C@@H]12	
InChI=1S/C6H9NO/c8-4-7-2-1-5-3-6(5)7/h4-6H,1-3H2	InChI=1S/C6H9NO/c8-4-7-2-1-5-3-6(5)7/h4-6H,1-3H2/t5-,6+/m0/s1
