18
gdb 104484	2.13259	1.92605	1.21272	2.606	72.62	-0.2298	-0.0457	0.1841	1049.9412	0.146576	-439.000047	-438.991625	-438.990681	-439.033279	31.304	
C	 0.7161517421	 1.3787399763	 0.2615817274	-0.26166
O	 0.0222139818	 0.196544103	-0.1037148862	-0.297906
C	 0.5688486775	-0.4628782839	-1.2193376637	 0.340555
C	 0.1764387585	 0.3062363626	-2.4697957184	 0.088975
O	 0.7299507418	 0.2804775972	-3.5421074567	-0.256863
C	 1.9709311812	-1.1622807626	-1.1177331007	-0.097308
C	 1.3617965732	-2.1317899266	-0.0697716438	-0.211929
C	 0.3589435199	-2.0240757995	-1.2462539194	-0.093044
N	 1.546840479	-2.1731312231	-2.1685516144	-0.332023
H	 1.7435298832	 1.1604211143	 0.583770163	 0.120022
H	 0.7591007129	 2.1055137159	-0.5630609393	 0.116751
H	 0.1686963721	 1.8252570602	 1.0940302311	 0.137415
H	-0.7332176855	 0.9259912286	-2.3037506581	 0.098235
H	 2.9563685074	-0.695754029	-1.1349211377	 0.090265
H	 1.8693115302	-3.0937312267	-0.003290674	 0.112875
H	 1.0547765244	-1.7223041991	 0.8893633155	 0.115784
H	-0.5796902406	-2.556578046	-1.4041986317	 0.092733
H	 1.3813601808	-1.6937307315	-3.0551193329	 0.237122
75.036	126.4681	174.2379	181.7299	251.6467	264.0512	371.2555	439.3074	469.1458	575.8986	618.6989	715.5892	763.9995	816.9242	877.7766	899.5099	915.7585	1016.6411	1035.2491	1049.1681	1071.7441	1083.2096	1104.8617	1157.388	1168.9722	1183.4096	1186.9528	1208.884	1219.4791	1232.4331	1251.909	1312.3216	1329.4055	1407.2802	1476.1593	1485.6371	1489.3681	1505.4085	1813.6822	2886.9823	2988.8447	3043.36	3099.1636	3110.1839	3117.2763	3127.065	3188.1371	3451.7217
COC1(C=O)C2CC1N2	CO[C@@]1(C=O)[C@H]2C[C@@H]1N2	
InChI=1S/C6H9NO2/c1-9-6(3-8)4-2-5(6)7-4/h3-5,7H,2H2,1H3	InChI=1S/C6H9NO2/c1-9-6(3-8)4-2-5(6)7-4/h3-5,7H,2H2,1H3/t4-,5+,6+
