12
gdb 128741	2.82624	1.61132	1.03294	3.7065	61.99	-0.2689	-0.1097	0.1591	1048.0998	0.074911	-505.846711	-505.83895	-505.838006	-505.879667	27.299	
C	-0.0401898605	 1.3880506021	 0.0550062127	-0.246041
O	 0.0149819967	-0.046678484	-0.0221977455	-0.21943
C	 0.6167119179	-0.5733244253	-1.0755421536	 0.360149
N	 1.1296593493	 0.1840174729	-1.9906953802	-0.154169
O	 1.7368097476	-0.4414915085	-3.0521974839	-0.227319
N	 1.8099226275	-1.8479546439	-3.1612706264	 0.091488
N	 1.3189113513	-2.5652827313	-2.285389874	-0.161793
C	 0.6575974012	-2.0426837553	-1.1266446844	 0.372339
O	 0.1962640746	-2.7842146926	-0.3025098912	-0.278272
H	 0.9685478462	 1.8086802109	 0.0752282549	 0.15438
H	-0.5806947821	 1.7963527218	-0.8029217963	 0.154372
H	-0.5677826996	 1.6031728434	 0.9827413979	 0.154296
59.1295	134.3983	182.2231	209.0761	307.2765	353.7323	434.6873	505.4194	560.6448	571.9575	597.8445	613.6553	752.9578	819.8584	924.6105	1001.7334	1034.6246	1152.4348	1174.5925	1226.0677	1407.3079	1481.3019	1488.3582	1495.3511	1592.267	1613.3397	1832.1034	3052.1657	3128.5135	3174.4039
COC1=NON=NC1=O	COc1nonnc1=O	
InChI=1S/C3H3N3O3/c1-8-3-2(7)4-6-9-5-3/h1H3	InChI=1S/C3H3N3O3/c1-8-3-2(7)4-6-9-5-3/h1H3
