19
gdb 98475	2.18961	1.4475	0.9705	1.7552	73.46	-0.2438	0.0182	0.262	1244.3439	0.15963	-456.349477	-456.33973	-456.338786	-456.384839	34.801	
C	-0.2203952313	 1.5204952536	-0.2879549865	-0.332554
N	-0.3171391013	 0.0986344852	-0.5607054748	-0.333798
C	 0.7715451723	-0.6307478111	-0.9168376357	 0.360182
O	 1.8872483168	-0.1545592116	-1.080480858	-0.400633
C	 0.5294356234	-2.1201418735	-1.0919467301	 0.186772
C	-0.8759708282	-2.6771677668	-1.0368044016	-0.17277
O	-1.5415165867	-2.3892691135	 0.1928996151	-0.416544
C	 1.550874272	-2.8375932993	-1.9024372676	-0.256202
N	 1.551036503	-2.984511595	-0.4444419453	-0.357164
H	 0.6447953408	 1.9120580119	-0.8232637689	 0.164853
H	-1.1251260784	 2.0300242314	-0.63102695	 0.126447
H	-0.0860128744	 1.7269588526	 0.7814524182	 0.12663
H	-1.11096218	-0.4171390543	-0.2025944726	 0.265138
H	-1.4964839725	-2.2316784796	-1.8208685605	 0.121696
H	-0.8313323184	-3.7598689802	-1.2090241469	 0.113371
H	-0.9956564481	-2.7612769911	 0.8961445615	 0.297469
H	 1.254838982	-3.7237875739	-2.4570661541	 0.115815
H	 2.3232899851	-2.2225491889	-2.350917456	 0.143995
H	 2.2762472139	-2.370629196	-0.0742589263	 0.247296
57.0897	62.5915	116.8302	143.7671	186.8516	261.8198	305.6169	326.4071	339.921	419.1172	455.8652	483.7875	625.334	671.0202	769.1681	796.2721	864.1945	920.2907	942.7096	990.727	1007.1644	1052.2152	1064.5418	1116.8971	1145.4496	1151.7456	1184.3806	1203.4722	1261.6606	1297.9126	1332.4309	1364.0117	1401.6507	1429.4749	1442.263	1486.1916	1492.0501	1492.824	1504.3558	1590.9835	1755.6432	3023.8543	3026.0685	3088.0804	3090.817	3117.6102	3156.4615	3220.4384	3475.6562	3560.7841	3793.0679
CNC(=O)C1(CO)CN1	CNC(=O)[C@@]1(CO)CN1	
InChI=1S/C5H10N2O2/c1-6-4(9)5(3-8)2-7-5/h7-8H,2-3H2,1H3,(H,6,9)	InChI=1S/C5H10N2O2/c1-6-4(9)5(3-8)2-7-5/h7-8H,2-3H2,1H3,(H,6,9)/t5-/m0/s1
