23
gdb 99270	4.2477	0.67003	0.61021	1.8885	83.71	-0.2651	0.021	0.2861	1939.1682	0.202561	-425.482535	-425.471107	-425.470163	-425.521184	39.682	
C	 0.1415619785	 1.4377105607	 0.0324185141	-0.369596
C	-0.0887332032	-0.0711042658	 0.00594016	-0.302603
C	-1.5581214497	-0.4419137653	 0.0477666713	 0.4452
O	-2.477176374	 0.3373247016	 0.0920035995	-0.354713
O	-1.7138742518	-1.781681717	 0.029583412	-0.252578
C	-3.0713507689	-2.2620126335	 0.0665678644	-0.0493
C	-3.0443437516	-3.7851539425	-0.0086547141	 0.01372
C	-4.4637902669	-4.3353676318	 0.1822239615	-0.393791
C	-2.4219802691	-4.2747655193	-1.3224996326	-0.382914
H	 1.2112464333	 1.6625217293	 0.0004769301	 0.110572
H	-0.3399151411	 1.9219161535	-0.8208440636	 0.132129
H	-0.2787817382	 1.8818591249	 0.9382414861	 0.131931
H	 0.3440574332	-0.5281117042	-0.8920355914	 0.130233
H	 0.4040566306	-0.5684198135	 0.8498120061	 0.130411
H	-3.5449623949	-1.9129058151	 0.9902007521	 0.114039
H	-3.627651521	-1.8282653162	-0.7725232838	 0.115815
H	-2.4202344288	-4.1392225524	 0.8228450832	 0.083469
H	-5.1309941388	-3.991167134	-0.616794888	 0.117578
H	-4.4611785695	-5.4293116173	 0.1614782327	 0.116856
H	-4.8948482282	-4.0183991623	 1.1376108276	 0.115298
H	-2.3604437401	-5.367433077	-1.3429690474	 0.111636
H	-3.0275797883	-3.9595884942	-2.180991165	 0.111312
H	-1.4143223115	-3.8731487286	-1.454916425	 0.125295
19.5968	44.9776	64.6085	105.6556	169.5739	211.8309	222.7112	228.7645	250.1341	273.709	328.4675	398.2925	424.9285	519.2199	580.8826	662.1417	810.1294	822.2843	904.7288	915.2996	931.6083	958.1347	977.0688	998.9048	1033.8471	1103.6429	1107.2619	1154.184	1188.502	1200.6022	1215.9641	1273.6507	1277.6187	1328.3975	1369.6086	1378.3556	1398.6317	1408.8844	1416.1499	1428.1668	1459.093	1488.7555	1490.6578	1493.4096	1499.8352	1503.4126	1507.9322	1514.6218	1817.5822	3017.0935	3027.5468	3030.6594	3039.2273	3041.6113	3052.0329	3070.5037	3082.2977	3092.3741	3098.4436	3106.5492	3120.8118	3123.3395	3128.9594
CCC(=O)OCC(C)C	CCC(=O)OCC(C)C	
InChI=1S/C7H14O2/c1-4-7(8)9-5-6(2)3/h6H,4-5H2,1-3H3	InChI=1S/C7H14O2/c1-4-7(8)9-5-6(2)3/h6H,4-5H2,1-3H3
