18
gdb 96953	3.90117	1.24947	1.20126	2.2966	77.8	-0.2459	0.0267	0.2726	1109.8103	0.148128	-401.897452	-401.88969	-401.888746	-401.930088	29.66	
C	-0.0894255293	 1.4203187461	 0.0219650646	-0.340616
N	-0.0387625401	-0.0346110617	 0.0648685891	-0.339598
C	-1.1016996106	-0.6876837519	-0.003946819	 0.455613
O	-2.428084226	-0.2450306942	-0.1125529288	-0.2906
C	-2.9233092375	-1.6227646477	-0.0398457956	 0.102756
C	-3.1587595231	-2.344955661	-1.3797426469	-0.066684
C	-2.1451455003	-1.9276090929	-2.4085292627	-0.297816
C	-1.7139313122	-2.873977025	-1.3312206385	-0.054127
C	-1.4836786785	-2.1538488605	 0.0292988995	-0.192743
H	 0.4794037891	 1.7726870685	-0.8458829321	 0.126747
H	-1.1035634598	 1.8330095901	-0.0311139307	 0.12664
H	 0.4088948247	 1.8205240463	 0.9116941972	 0.126698
H	-3.6645397141	-1.7462201008	 0.7480482268	 0.095932
H	-4.0748651337	-2.8569419541	-1.6458941647	 0.092327
H	-2.2854003079	-2.3839096392	-3.3829794012	 0.118101
H	-1.7806357893	-0.9064868926	-2.4435224177	 0.137722
H	-1.3449136292	-3.868112182	-1.546464235	 0.099309
H	-1.110025932	-2.7664294276	 0.8463736056	 0.100341
77.7487	100.5322	188.6859	208.9975	304.6485	383.8822	477.0708	548.4377	684.414	707.8192	743.6073	765.0749	792.5671	875.1533	895.5111	904.6026	942.5923	974.3862	984.3963	1026.401	1041.2085	1059.3828	1064.9329	1086.9983	1097.9624	1132.0011	1167.3356	1177.113	1188.5726	1228.9088	1258.0509	1296.4953	1309.6727	1356.5886	1438.6607	1494.2	1494.7572	1496.3615	1842.2114	3016.8736	3081.4039	3087.8443	3129.2754	3133.4898	3148.4166	3188.3568	3199.6876	3217.5428
CN=C1OC2C3CC3C12	CN=C1O[C@H]2[C@H]3C[C@H]3[C@@H]12	
InChI=1S/C7H9NO/c1-8-7-5-3-2-4(3)6(5)9-7/h3-6H,2H2,1H3	InChI=1S/C7H9NO/c1-8-7-5-3-2-4(3)6(5)9-7/h3-6H,2H2,1H3/t3-,4+,5-,6+/m1/s1
