19
gdb 38210	3.18061	1.65883	1.33986	2.3998	80.8	-0.228	0.0037	0.2317	996.0501	0.161587	-385.823588	-385.81679	-385.815845	-385.854416	28.782	
C	-0.0152725493	 1.6538527541	 0.2188735906	-0.272231
C	 1.4364936429	 1.1803408305	 0.0485507546	-0.012655
O	 1.1107569586	 0.0040148448	 0.9138316582	-0.365776
C	-0.0047264247	 0.1177423213	-0.0718896593	 0.451203
C	-1.1185157271	-0.8069670187	-0.3288315008	-0.245185
C	-1.3877655865	-1.0559315776	-1.6170584671	-0.036652
C	-0.603703665	-0.526530761	-2.8085432558	-0.25755
C	 0.3945038963	 0.6313369208	-2.5130286964	-0.283814
C	 1.0402643954	 0.3009022142	-1.1778235028	 0.01974
H	-0.2907399348	 1.924786024	 1.2384376947	 0.10551
H	-0.4514679333	 2.3208155729	-0.5271836985	 0.095881
H	 2.3689681075	 1.6993616403	 0.2720545089	 0.089109
H	-1.7278804122	-1.2053404617	 0.4763831569	 0.09993
H	-2.2303892649	-1.6969643064	-1.8682353503	 0.097319
H	-0.0594464674	-1.3748597937	-3.249726517	 0.120192
H	-1.312735175	-0.2120153917	-3.5839946022	 0.11028
H	 1.119842859	 0.7122752562	-3.3290831576	 0.098217
H	-0.150098186	 1.5796632786	-2.476612772	 0.105707
H	 1.6895232866	-0.5767724468	-1.2492496341	 0.080776
146.8054	227.0839	333.2916	382.4797	425.274	468.3845	556.7788	573.594	627.1385	683.9955	721.732	768.5997	831.2673	833.0913	880.3673	910.5259	924.0097	959.642	980.5023	998.6921	1006.0779	1016.8323	1084.5662	1097.5528	1124.4624	1155.5759	1180.7355	1194.4727	1201.4355	1222.3721	1247.9097	1253.318	1306.2539	1334.2227	1366.7847	1399.5209	1434.9412	1468.4908	1487.0876	1508.6868	1679.3052	3002.5533	3042.057	3051.9065	3066.1992	3073.9298	3094.1986	3115.3737	3146.9505	3151.0202	3180.5328
C1C2OC11C=CCCC21	C1[C@H]2O[C@]31C=CCC[C@@H]23	
InChI=1S/C8H10O/c1-2-4-8-5-7(9-8)6(8)3-1/h2,4,6-7H,1,3,5H2	InChI=1S/C8H10O/c1-2-4-8-5-7(9-8)6(8)3-1/h2,4,6-7H,1,3,5H2/t6-,7+,8-/m0/s1
