21
gdb 111883	2.55726	1.30393	1.18974	0.9605	77.94	-0.2276	0.0693	0.2968	1168.0106	0.184241	-424.201912	-424.193227	-424.192283	-424.235723	33.016	
O	 0.1756761134	 0.4509970972	-1.4446888863	-0.419275
C	-0.1504363306	 0.3475769865	-0.0595688256	-0.110967
C	-1.4359758615	-0.4208223177	 0.0743252489	-0.052826
C	-1.5154336961	-1.916505337	-0.1998769404	-0.071017
C	-0.2899822099	-2.7682957425	-0.50882015	-0.235481
C	 0.1261928594	-3.5250984487	 0.7595449589	-0.211384
C	 0.4033008326	-2.5396265066	 1.8882691374	-0.050526
O	-0.6688115758	-1.6369743483	 2.1725719596	-0.268062
C	-1.6543232154	-1.400661251	 1.2080694609	 0.078471
H	 0.9538835694	 1.0115304275	-1.5234482111	 0.283491
H	 0.6569614636	-0.1444517048	 0.4988659995	 0.094337
H	-0.2816584751	 1.3448953009	 0.387782246	 0.092771
H	-2.3134549141	 0.1429585021	-0.2303985413	 0.084282
H	-2.4349825775	-2.2500175854	-0.6705533661	 0.086245
H	-0.5243376292	-3.4704063415	-1.3137787933	 0.098941
H	 0.538172686	-2.1508357869	-0.8724724939	 0.116828
H	-0.6716935297	-4.2170884763	 1.0557634037	 0.102861
H	 1.0301829465	-4.1212251246	 0.5922239799	 0.095871
H	 0.607545562	-3.0647860237	 2.8278148837	 0.103188
H	 1.3046269013	-1.9565863968	 1.6388929809	 0.089203
H	-2.6366317093	-1.4107468026	 1.6725799485	 0.09305
64.5383	83.6289	135.6359	216.5013	282.1191	299.3561	337.7382	444.536	475.6366	554.1209	577.6682	685.3071	747.434	788.1395	803.4868	887.284	891.3985	926.8926	970.8388	1005.2253	1037.5881	1052.832	1064.0601	1074.7003	1104.7936	1132.5568	1157.4815	1174.9185	1220.3861	1229.3382	1251.781	1264.3275	1280.004	1296.4257	1344.2572	1369.0592	1371.9777	1383.6128	1414.1119	1441.8385	1468.4501	1484.4163	1503.6313	1515.2011	1528.6659	2970.0914	2984.3573	3027.1117	3029.1983	3050.1511	3057.5772	3075.814	3090.2447	3132.4664	3138.978	3154.4837	3818.2714
OCC1C2CCCOC12	OC[C@H]1[C@H]2CCCO[C@@H]12	
InChI=1S/C7H12O2/c8-4-6-5-2-1-3-9-7(5)6/h5-8H,1-4H2	InChI=1S/C7H12O2/c8-4-6-5-2-1-3-9-7(5)6/h5-8H,1-4H2/t5-,6+,7-/m1/s1
