15
gdb 49851	3.5419	1.28894	1.04496	2.4093	67.43	-0.2513	-0.0386	0.2127	1097.9324	0.112985	-453.933682	-453.926079	-453.925135	-453.966606	27.928	
N	-0.3559117803	 1.2347848211	 0.4278275988	-0.54436
C	-0.1536777285	 0.0465468004	 0.0637090677	 0.465867
O	 1.0816444343	-0.5082643618	-0.1842397825	-0.264983
C	 0.9736548616	-1.7774864784	-0.8478260717	 0.021214
C	 1.8652795592	-2.7926330052	-0.1404324896	 0.152873
O	 2.3063305591	-3.7629232903	-0.6955673626	-0.242838
C	-0.5012526661	-2.1546947647	-0.7745319439	-0.080436
N	-0.9635844732	-2.2062508656	 0.6206869386	-0.335114
C	-1.197041582	-0.9838735697	-0.1941696441	-0.12999
H	 0.5239061536	 1.7493937479	 0.4961333841	 0.230218
H	 1.2994882074	-1.6781829609	-1.8890885402	 0.118703
H	 2.0501723339	-2.5674231428	 0.9292783172	 0.110871
H	-0.9296544422	-2.7974031307	-1.533347015	 0.121448
H	-1.83286563	-2.7332025594	 0.6680873218	 0.248519
H	-2.2014136468	-0.6763702498	-0.4513251784	 0.128009
56.4171	99.0371	185.0232	238.3004	334.5336	393.6474	460.6647	511.7965	612.8273	715.3255	779.9833	823.5643	858.0148	876.3343	890.5275	915.4308	924.8887	1001.7989	1029.3579	1052.6478	1089.4941	1098.3569	1143.4479	1153.8472	1249.2093	1262.8187	1300.9304	1335.3153	1373.0898	1399.7724	1403.3381	1794.0935	1838.051	2938.6372	3058.3754	3197.0898	3219.8789	3475.9394	3503.0602
N=C1OC(C=O)C2NC12	[NH][C]1O[C@@H](C=O)[C@H]2N[C@@H]12	
InChI=1S/C5H6N2O2/c6-5-4-3(7-4)2(1-8)9-5/h1-4,6-7H	InChI=1S/C5H6N2O2/c6-5-4-3(7-4)2(1-8)9-5/h1-4,6-7H/t2-,3+,4+/m0/s1
