18
gdb 89035	4.40607	0.73403	0.66091	1.1169	69.83	-0.266	0.0541	0.3201	1675.1858	0.145808	-476.246476	-476.236642	-476.235698	-476.283105	34.468	
C	 0.1353446101	 1.4292636737	-0.2955654695	-0.422014
C	-0.0006432839	-0.0096575258	 0.1362328678	 0.075823
O	 1.192086667	-0.7950878104	 0.2258972382	-0.256985
C	 0.450522627	-0.5572818559	 1.4265027142	 0.043937
C	 1.1020733906	 0.2670603465	 2.4993961919	-0.08552
O	 1.9141937457	-0.6253351098	 3.2771327225	-0.263122
C	 2.4622441515	-0.0735288323	 4.3894594325	 0.501926
N	 3.1862584779	-1.0157163589	 5.0640962818	-0.563488
O	 2.3000747399	 1.0719326658	 4.7392790641	-0.397256
H	 0.9771155759	 1.9261869046	 0.1896891262	 0.132498
H	 0.291619826	 1.4801034371	-1.3780687754	 0.133055
H	-0.7801966066	 1.9843776971	-0.0644924473	 0.126287
H	-0.830691714	-0.5385020266	-0.3377316732	 0.090912
H	-0.0659375974	-1.4389734449	 1.8102348657	 0.096285
H	 1.7278547051	 1.0574466404	 2.079627096	 0.124748
H	 0.351033891	 0.7313626151	 3.1474492891	 0.127227
H	 3.449087872	-1.8585024686	 4.5818117744	 0.266608
H	 3.8021844924	-0.6704429272	 5.7797668411	 0.269079
21.8816	48.3944	106.6555	163.3047	178.9053	233.0299	263.2624	359.7336	371.2868	451.3443	464.1948	508.0683	561.2766	666.4614	766.5917	784.8185	840.4613	916.0279	934.8223	993.3317	1021.1541	1091.8784	1099.3525	1118.6819	1127.4288	1172.813	1189.7398	1267.5846	1306.1508	1331.9928	1383.7357	1413.9433	1426.5489	1471.4161	1491.3373	1498.1446	1518.0504	1613.1107	1835.0873	3041.5698	3054.8236	3079.5675	3097.5524	3102.1549	3116.3146	3141.1918	3613.9851	3743.1935
CC1OC1COC(N)=O	C[C@H]1O[C@H]1COC(=O)N	
InChI=1S/C5H9NO3/c1-3-4(9-3)2-8-5(6)7/h3-4H,2H2,1H3,(H2,6,7)	InChI=1S/C5H9NO3/c1-3-4(9-3)2-8-5(6)7/h3-4H,2H2,1H3,(H2,6,7)/t3-,4+/m1/s1
