18
gdb 35213	3.17575	1.23263	1.05125	4.2392	81.7	-0.2498	0.0167	0.2665	1170.6276	0.148918	-364.830466	-364.822529	-364.821584	-364.863488	30.391	
N	-0.0635308834	-1.1462918658	-0.0223335097	-0.348647
C	-0.0422644925	 0.0109204126	 0.0019629358	 0.2927
C	 0.0089244145	 1.443887991	 0.0227995509	-0.213276
C	 0.5673808912	 2.162577201	 1.2436481529	-0.335066
C	 1.3567369565	 2.1700184419	-0.0251301286	 0.340843
C	 2.662181668	 1.3726337479	-0.1753092306	-0.34868
C	 3.3489472911	 2.0656559926	-1.3264181906	-0.055701
C	 2.7110736133	 3.1675455067	-1.7149151541	-0.059025
C	 1.4706368139	 3.432441843	-0.8970807777	-0.338272
H	-0.8172980396	 1.9227743467	-0.4930483993	 0.128526
H	 0.0542186195	 3.0689005622	 1.547926442	 0.12518
H	 0.9165708583	 1.5421767554	 2.0619535693	 0.136448
H	 3.2714829557	 1.4208485966	 0.7380646197	 0.113646
H	 2.4803936387	 0.3088611388	-0.367813684	 0.138406
H	 4.2715016123	 1.6913508704	-1.7550548466	 0.100052
H	 3.0315113279	 3.8324548134	-2.508723025	 0.097978
H	 0.5807591704	 3.5940268105	-1.5181661342	 0.110862
H	 1.5851980342	 4.3371210452	-0.2826919803	 0.114025
49.5112	135.5541	140.6066	305.4331	330.327	385.1633	392.6535	496.5081	551.5508	597.3576	699.8582	774.6127	787.1221	799.4373	856.8501	904.5121	940.6696	976.8091	980.5644	986.4922	1005.1995	1036.3544	1047.9255	1086.7663	1125.751	1132.8119	1177.4221	1215.2139	1227.9703	1270.8397	1304.8249	1343.7479	1371.2248	1402.5264	1483.7004	1486.4092	1490.4971	1693.7446	2347.6563	3002.5718	3010.3209	3039.1142	3055.8443	3131.7219	3160.6525	3189.1163	3213.6743	3222.0372
N#CC1CC11CC=CC1	N#C[C@H]1C[C@]21CC=CC2	
InChI=1S/C8H9N/c9-6-7-5-8(7)3-1-2-4-8/h1-2,7H,3-5H2	InChI=1S/C8H9N/c9-6-7-5-8(7)3-1-2-4-8/h1-2,7H,3-5H2/t7-/m1/s1
