21
gdb 103170	2.05493	1.47897	1.10488	0.9724	74.16	-0.2519	0.0533	0.3052	1202.7811	0.181313	-461.352713	-461.342971	-461.342026	-461.387004	37.205	
C	 0.0280688312	 1.5895880597	-0.0249192641	-0.402257
C	 0.0391252034	 0.0698362271	 0.0043174796	-0.020825
C	 1.0472575875	-0.6884026159	-0.913571793	-0.273149
C	 1.3199611596	-1.6715078182	 0.2395781835	 0.07003
O	 2.6912650964	-1.949919161	 0.4606219416	-0.433826
C	 0.6806828943	-0.6495423196	 1.2341306068	 0.334294
O	 1.7054624273	 0.1119885906	 1.8594639011	-0.491347
C	-0.2136340588	-1.2028769174	 2.3294131921	-0.119648
O	 0.5609319024	-1.9559692084	 3.2502541562	-0.431534
H	 1.0180830294	 1.9838098016	 0.2182414342	 0.126625
H	-0.2603243276	 1.9578258636	-1.0153428345	 0.110767
H	-0.6808957843	 1.9983539393	 0.7030911624	 0.114701
H	-0.9740035308	-0.3204620002	-0.149065673	 0.067457
H	 0.6812297463	-1.1016609518	-1.8554703615	 0.101629
H	 1.9373828302	-0.0845930823	-1.1136706189	 0.112396
H	 0.7334721302	-2.5942973393	 0.1656184135	 0.079409
H	 2.7408078003	-2.609116089	 1.1630975226	 0.293872
H	 2.5412387452	-0.2710427257	 1.5486679435	 0.287118
H	-0.7488646517	-0.380234958	 2.8308649472	 0.092288
H	-0.9620493207	-1.8814980792	 1.9066112233	 0.100195
H	 1.2632191902	-1.3503433756	 3.5212110873	 0.281805
78.0251	97.3943	163.2351	194.6557	239.3565	288.5319	300.4177	318.1599	374.8769	427.0509	438.5567	483.5297	512.7307	601.1818	623.949	663.8013	766.0153	843.0015	897.4857	906.7466	944.1691	989.2916	1013.7821	1055.6171	1083.6547	1107.2533	1120.5174	1154.0126	1164.3716	1196.4322	1242.3246	1249.293	1260.1589	1277.6393	1311.12	1359.1023	1378.0457	1405.7581	1414.9125	1423.2713	1436.9895	1487.0706	1489.6534	1498.4118	1501.1046	2977.0408	3031.3486	3036.1583	3040.0583	3062.4685	3073.9374	3095.0779	3118.9762	3122.5469	3681.1586	3769.2411	3796.3288
CC1CC(O)C1(O)CO	C[C@H]1C[C@@H](O)[C@]1(O)CO	
InChI=1S/C6H12O3/c1-4-2-5(8)6(4,9)3-7/h4-5,7-9H,2-3H2,1H3	InChI=1S/C6H12O3/c1-4-2-5(8)6(4,9)3-7/h4-5,7-9H,2-3H2,1H3/t4-,5+,6-/m0/s1
