23
gdb 86618	3.11642	1.06445	0.90437	1.5946	86.31	-0.2371	0.0833	0.3204	1405.7118	0.2051	-388.269444	-388.259769	-388.258825	-388.304636	36.38	
C	 0.2113955098	 1.5715756535	-0.1197253199	-0.403452
C	 0.0986042062	 0.0716838387	 0.0664161636	 0.161078
O	 0.9415417979	-0.6636965576	-0.8510324446	-0.317463
C	 1.4094318703	-1.5403152703	 0.2022454833	 0.138771
C	 2.8928446012	-1.7497376326	 0.1728981088	 0.018827
C	 3.4810594207	-2.9807263013	 0.8240527844	-0.272312
C	 3.4652761424	-2.8588288974	-0.6760587522	-0.271958
C	 0.7460251756	-0.6421487805	 1.2873402392	-0.086641
C	 1.6643540496	 0.1716322012	 2.1916923048	-0.407638
H	 1.2407314984	 1.9175357315	 0.0034304004	 0.118197
H	-0.1171798893	 1.8423712425	-1.1282705606	 0.126254
H	-0.4263455387	 2.1002480914	 0.5971185225	 0.11297
H	-0.9523539884	-0.2303283595	-0.0625583159	 0.064819
H	 0.9131769907	-2.5220016315	 0.1302266271	 0.056656
H	 3.4828539509	-0.8407287785	 0.2306330728	 0.081832
H	 4.4269847593	-2.879426217	 1.3438210193	 0.112282
H	 2.7971960102	-3.6874288976	 1.2832430095	 0.111054
H	 2.7678313438	-3.4783875351	-1.2299195197	 0.117222
H	 4.4018688763	-2.6746484827	-1.1898146114	 0.11321
H	 0.0210866489	-1.1809467797	 1.9036568438	 0.069258
H	 2.4115265551	 0.7390104346	 1.6300213636	 0.122449
H	 1.0872980041	 0.8853894798	 2.7890122455	 0.113791
H	 2.200955645	-0.483888822	 2.8850143959	 0.120794
34.1112	73.441	157.6359	200.4022	222.3455	242.209	280.9871	297.9634	365.0109	426.1563	500.5485	506.3135	758.5535	762.5146	777.0289	828.0651	835.0338	893.6179	905.0164	932.3542	977.6504	1005.7739	1022.4614	1044.4335	1049.7017	1060.6371	1078.6965	1107.0187	1134.3013	1164.8512	1182.8904	1197.004	1214.4878	1228.0201	1259.2413	1277.5455	1322.8764	1331.7128	1376.6463	1385.7623	1407.1973	1414.8033	1452.2513	1469.6167	1478.9136	1490.1015	1501.0152	1505.4593	1509.9209	2960.2859	2974.8402	3035.8674	3039.5845	3063.5648	3099.5775	3104.7752	3111.6667	3124.714	3131.2007	3136.3028	3160.3993	3209.8505	3225.4311
CC1OC(C2CC2)C1C	C[C@H]1O[C@@H](C2CC2)[C@H]1C	
InChI=1S/C8H14O/c1-5-6(2)9-8(5)7-3-4-7/h5-8H,3-4H2,1-2H3	InChI=1S/C8H14O/c1-5-6(2)9-8(5)7-3-4-7/h5-8H,3-4H2,1-2H3/t5-,6+,8+/m0/s1
