12
gdb 21659	3.74273	1.93516	1.27704	4.1979	63.43	-0.2264	-0.017	0.2094	859.5566	0.086986	-373.742768	-373.736	-373.735056	-373.773642	25.171	
N	-0.0314367365	 1.3521973713	 0.1565426069	-0.591883
C	 0.0216687067	-0.0192041859	 0.0480798305	 0.319725
N	-1.0730743714	-0.7688763686	 0.0314902115	-0.297847
N	-0.6047330426	-2.046924366	-0.0088890937	-0.183462
C	 0.7315442048	-2.1313597675	-0.0263829817	-0.109887
C	 1.2043375514	-0.8257432616	 0.0086333675	 0.060891
C	 2.5388305431	-0.3714814748	-0.0013966722	 0.182973
N	 3.6207474421	 0.0457068029	-0.016291724	-0.35811
H	 0.7583280057	 1.8443584947	-0.2339970709	 0.267466
H	-0.9199434188	 1.7515902979	-0.1084548604	 0.262448
H	-1.2684597171	-2.8019247691	-0.0234184675	 0.286514
H	 1.2590058526	-3.0708016933	-0.062408046	 0.161174
133.3475	167.3329	295.0755	325.5889	385.4786	478.364	544.5183	549.2277	585.2844	603.9624	643.9491	746.0931	764.9873	813.7496	938.6324	1054.5384	1108.1312	1193.2263	1243.4396	1337.4063	1417.4907	1502.225	1543.7655	1608.4563	1653.1622	2337.0083	3272.8744	3572.3762	3677.5514	3685.1607
NC1=NNC=C1C#N	Nc1n[nH]cc1C#N	
InChI=1S/C4H4N4/c5-1-3-2-7-8-4(3)6/h2H,(H3,6,7,8)	InChI=1S/C4H4N4/c5-1-3-2-7-8-4(3)6/h2H,(H3,6,7,8)
