21
gdb 60213	3.74918	0.96078	0.84745	2.6919	79.44	-0.241	0.0767	0.3177	1431.4167	0.180147	-424.180711	-424.171349	-424.170405	-424.215604	34.874	
C	-0.0423554722	 1.5422598042	 0.0517608336	-0.388794
C	-0.0054114803	 0.019699886	-0.0131349048	 0.148943
C	 0.6102703513	-0.5971950505	 1.2457969448	-0.388645
O	-1.3526086239	-0.4034119217	-0.217464407	-0.265791
C	-1.5302838341	-1.7155095176	-0.6534043577	 0.139322
C	-1.7663434074	-2.8934172508	 0.3815120175	-0.292138
C	-3.0917046526	-3.1624304834	-0.3377985052	 0.022046
O	-3.875052959	-1.9768570479	-0.190795392	-0.236802
C	-2.9100670497	-2.0138350316	-1.2457346232	-0.008651
H	 0.9674994663	 1.948988011	 0.159678734	 0.110852
H	-0.4909638678	 1.9521117141	-0.856735875	 0.121357
H	-0.6415518808	 1.8703249019	 0.9069186441	 0.126242
H	 0.5935760096	-0.2886907702	-0.8875222839	 0.063309
H	 0.6625909568	-1.6873366761	 1.1773968131	 0.11794
H	 1.6284641145	-0.2227462752	 1.3936416523	 0.112584
H	 0.0141762493	-0.3355128162	 2.1259112774	 0.124512
H	-0.7428441236	-2.0048011541	-1.3664882991	 0.069931
H	-1.0232744222	-3.6901951514	 0.3009893749	 0.101159
H	-1.8843420343	-2.5852537677	 1.4216924475	 0.117649
H	-3.6159311656	-4.0967739534	-0.4974790395	 0.105409
H	-3.2700983643	-1.8273462694	-2.2512084516	 0.099566
41.6691	83.0637	111.1058	207.6747	237.1411	266.8478	304.962	324.5857	415.3365	467.2734	478.4646	589.6758	740.8655	805.3846	839.1151	847.6364	869.382	916.2475	925.9082	940.7522	948.2343	971.2879	1013.392	1023.013	1061.844	1125.0756	1147.571	1168.2283	1183.6159	1197.487	1212.4579	1241.3664	1243.3615	1287.1372	1352.3059	1367.758	1387.1987	1398.435	1411.1983	1421.9184	1464.7316	1479.4754	1485.9462	1494.7081	1509.5789	2950.1505	2985.011	3036.4294	3043.7465	3071.2006	3107.509	3114.3574	3117.8495	3123.8613	3136.0602	3179.8338	3198.9571
CC(C)OC1CC2OC12	CC(C)O[C@H]1C[C@H]2O[C@@H]12	
InChI=1S/C7H12O2/c1-4(2)8-5-3-6-7(5)9-6/h4-7H,3H2,1-2H3	InChI=1S/C7H12O2/c1-4(2)8-5-3-6-7(5)9-6/h4-7H,3H2,1-2H3/t5-,6+,7-/m0/s1
