18
gdb 37438	2.64788	2.0155	1.98916	2.6974	73.76	-0.2319	0.0088	0.2407	839.8467	0.151854	-401.91595	-401.909808	-401.908864	-401.94592	26.891	
C	-0.0122227193	 1.5553086093	 0.0399160759	-0.054984
O	 1.3090177863	 2.0923417037	 0.0219796744	-0.260997
C	 2.3202469675	 1.0792868002	-0.0343994465	 0.034579
C	 2.1239058173	 0.1338188167	 1.1396413687	-0.068038
C	 0.9107098207	-0.42600218	 1.1496502293	-0.074912
C	 0.0387465049	 0.0078988334	-0.0163749208	-0.113568
C	 0.7971267065	-0.3931659371	-1.2969722922	-0.033095
N	 1.102449153	 0.6896262674	-2.2603048855	-0.337754
C	 2.1323770419	 0.2286223847	-1.3076556156	-0.027637
H	-0.51526723	 1.874482508	 0.9621973057	 0.086114
H	-0.5552704254	 1.9467555001	-0.82563516	 0.114863
H	 3.2738507679	 1.6089059619	-0.0156511648	 0.075589
H	 2.8824009263	-0.0077983358	 1.9005484325	 0.095914
H	 0.5414882192	-1.0836829011	 1.9284902685	 0.093804
H	-0.9708206929	-0.406980366	 0.0230218678	 0.066513
H	 0.6519534891	-1.4036046439	-1.6673929313	 0.086153
H	 1.2845704509	 0.2842865047	-3.1757643997	 0.229356
H	 2.999022286	-0.3121430361	-1.6772331964	 0.0881
278.6752	315.99	360.1774	393.055	448.4624	551.1059	631.9067	643.0913	672.9932	722.3824	783.4562	827.6262	871.7006	889.24	893.4312	924.4344	954.6716	957.0939	969.3922	985.7404	1028.5925	1061.1683	1065.1567	1096.3859	1136.2085	1152.159	1172.3619	1217.3099	1237.1406	1285.7538	1293.5838	1309.0501	1336.6192	1353.6914	1373.4632	1404.6975	1433.5045	1505.3888	1662.3718	3011.6824	3076.3677	3085.1129	3101.4405	3144.2682	3155.1106	3181.521	3206.217	3495.3169
C1OC2C=CC1C1NC21	C1O[C@H]2C=C[C@@H]1[C@H]1N[C@@H]21	
InChI=1S/C7H9NO/c1-2-5-7-6(8-7)4(1)3-9-5/h1-2,4-8H,3H2	InChI=1S/C7H9NO/c1-2-5-7-6(8-7)4(1)3-9-5/h1-2,4-8H,3H2/t4-,5-,6+,7-/m0/s1
