20
gdb 103766	2.4071	1.4337	1.07475	3.6768	75.39	-0.2326	0.0545	0.2871	1181.3743	0.169461	-440.231137	-440.221621	-440.220677	-440.265312	34.949	
C	-0.2071992485	 1.8190492672	 0.4584014985	-0.457304
C	-0.1143385747	 0.3455161542	 0.1285849239	 0.233584
C	-1.3333285242	-0.2014569718	-0.594824805	-0.158686
O	-1.0660795248	-1.5317976647	-1.0146677644	-0.417814
N	 1.216655131	-0.1313171474	-0.3060227465	-0.420178
C	 0.6791813064	-0.568732108	 0.9789672725	 0.270248
C	 1.3689872258	-0.3574334575	 2.3229300064	-0.140708
O	 1.0212154048	-1.6995261468	 2.7297660811	-0.281555
C	 0.3886127052	-1.9879441588	 1.462466916	-0.141028
H	 0.7032160135	 2.1562253031	 0.9585331834	 0.134202
H	-0.3285119906	 2.4162044343	-0.4524699998	 0.120246
H	-1.0595809807	 2.0260065175	 1.1158498946	 0.115813
H	-2.2053109956	-0.1612163376	 0.0773249006	 0.099755
H	-1.5538894663	 0.4446177747	-1.4598999557	 0.098286
H	-1.8288102949	-1.8612721888	-1.4975135647	 0.297041
H	 1.088692493	-0.8796133809	-0.986706541	 0.239574
H	 2.4539144496	-0.2058782221	 2.2582554708	 0.10743
H	 0.9339874982	 0.3994118328	 2.9888179308	 0.097056
H	-0.6654071582	-2.2625702322	 1.5798817061	 0.101048
H	 0.9049586611	-2.7835968871	 0.9099383024	 0.102987
97.1056	125.0312	150.5482	174.5472	187.382	227.2296	248.981	284.7107	373.3684	446.638	453.2523	552.5512	563.5591	693.948	830.653	882.256	935.351	949.9897	984.2575	990.5134	1023.8298	1032.6723	1068.471	1099.9201	1117.5281	1133.2168	1142.4028	1144.8303	1160.155	1240.7752	1248.1969	1281.405	1302.0779	1316.217	1357.6159	1415.0164	1453.6867	1476.4669	1491.5875	1502.044	1507.5114	1523.8555	1528.6611	2965.9512	2995.053	3003.8227	3017.6429	3029.866	3051.5591	3063.0345	3089.162	3126.7784	3476.3732	3845.3982
CC1(CO)NC11COC1	C[C@@]1(CO)NC21COC2	
InChI=1S/C6H11NO2/c1-5(2-8)6(7-5)3-9-4-6/h7-8H,2-4H2,1H3	InChI=1S/C6H11NO2/c1-5(2-8)6(7-5)3-9-4-6/h7-8H,2-4H2,1H3/t5-/m0/s1
