17
gdb 115200	4.4846	0.96763	0.82503	5.8069	71.82	-0.2614	-0.0443	0.2171	1333.5161	0.136544	-458.99793	-458.989573	-458.988629	-459.031257	30.723	
O	-0.1485274212	 1.4774435642	-0.075966787	-0.417203
C	-0.0014084126	 0.0682255676	-0.1140337847	-0.093882
C	-1.3934038464	-0.5424066674	 0.0662895087	-0.071521
C	-1.3448251628	-2.0634019778	-0.058620532	-0.094177
O	-2.5939688047	-2.687597853	 0.2580138493	-0.241939
C	-3.2290437954	-2.3214379723	 1.4078956709	 0.418521
O	-4.1328862308	-2.9970220932	 1.8252910948	-0.337248
C	-2.7970914947	-1.0501805033	 2.0321797845	-0.217609
C	-1.9956081155	-0.1911225186	 1.3989159215	-0.038635
H	 0.725549966	 1.877147342	-0.1045281464	 0.294652
H	 0.4232287021	-0.2655556837	-1.0740117047	 0.097614
H	 0.6658128103	-0.2882795905	 0.6867398254	 0.096642
H	-2.0288880134	-0.1260487592	-0.729018973	 0.11862
H	-1.1144588946	-2.3796329962	-1.0786773487	 0.125127
H	-0.5688244168	-2.4645518978	 0.6088567503	 0.110711
H	-3.257596363	-0.8334880769	 2.9887079347	 0.122651
H	-1.7630357567	 0.784934936	 1.8135119362	 0.127674
75.8845	113.3706	194.9153	208.3822	259.8281	272.1579	358.9069	438.8978	463.06	518.6221	587.9777	713.74	753.6646	802.6194	849.9679	886.6879	964.8028	1021.8076	1039.1903	1084.4815	1099.3973	1100.992	1115.3299	1168.813	1231.5341	1236.8247	1252.0269	1289.7083	1310.9252	1366.1126	1396.4006	1429.3526	1459.7283	1505.3997	1523.7312	1690.5434	1830.274	2968.4375	2995.5618	3004.9002	3018.2908	3101.8192	3183.3614	3212.86	3834.7959
OCC1COC(=O)C=C1	OC[C@H]1COC(=O)C=C1	
InChI=1S/C6H8O3/c7-3-5-1-2-6(8)9-4-5/h1-2,5,7H,3-4H2	InChI=1S/C6H8O3/c7-3-5-1-2-6(8)9-4-5/h1-2,5,7H,3-4H2/t5-/m0/s1
