21
gdb 83346	2.16826	1.92813	1.55558	1.6171	81.59	-0.2451	0.0111	0.2562	999.0293	0.184548	-387.106361	-387.098473	-387.097529	-387.1379	32.928	
C	-0.0470080791	 1.5033297203	 0.0501205866	-0.491714
C	-0.0087296031	-0.0132212955	 0.030697782	 0.265255
C	 0.6466868585	-0.6724969152	-1.2289339124	-0.239057
C	 0.1363922718	-2.1469186776	-1.1816657103	-0.217273
C	-0.7532632792	-2.1673013759	 0.1025897258	-0.098786
C	 0.1862152284	-1.9662349081	 1.280922818	-0.113642
C	 0.6294067999	-0.7035378385	 1.232447244	-0.130463
C	-1.3843009283	-0.7528383646	 0.0136787212	 0.145707
O	-2.2838792956	-0.3977343398	 1.0324055604	-0.456627
H	 0.9571017149	 1.9309828169	 0.1470306739	 0.109498
H	-0.4884018376	 1.8978534775	-0.871654855	 0.112217
H	-0.6529466947	 1.8624183676	 0.8881048697	 0.122323
H	 0.3044293522	-0.163375712	-2.1361283245	 0.096467
H	 1.7366305145	-0.598412682	-1.2036646307	 0.097771
H	-0.4616738434	-2.389105787	-2.0654476398	 0.099527
H	 0.9486471877	-2.8747433839	-1.1239600479	 0.09993
H	-1.4454936871	-3.0070917734	 0.1673047776	 0.062806
H	 0.5102165468	-2.7491341212	 1.9561013542	 0.095033
H	 1.3838368597	-0.2472301266	 1.8634233838	 0.092345
H	-1.923681013	-0.5926555607	-0.9259423103	 0.075309
H	-1.8300854232	-0.5587172201	 1.8698272736	 0.273374
198.8404	217.9811	233.2475	249.7915	330.6267	359.4248	379.6293	452.7017	485.8509	559.6933	617.72	698.0233	754.1072	785.81	809.5498	821.6266	879.4707	882.6407	911.6432	936.0733	955.6344	962.2408	984.6206	1042.2976	1082.9789	1103.0827	1129.7723	1156.0444	1172.6754	1207.2705	1217.8005	1238.106	1264.2273	1283.2946	1298.2811	1303.404	1330.1415	1377.1055	1412.7994	1443.8349	1486.8457	1494.6391	1497.4438	1507.4944	1634.6233	3027.8311	3044.1484	3057.1402	3063.4148	3088.9145	3092.0643	3101.3754	3108.7198	3112.9151	3184.7051	3211.4259	3763.573
CC12CCC(C=C1)C2O	C[C@@]12CC[C@@H](C=C1)[C@H]2O	
InChI=1S/C8H12O/c1-8-4-2-6(3-5-8)7(8)9/h2,4,6-7,9H,3,5H2,1H3	InChI=1S/C8H12O/c1-8-4-2-6(3-5-8)7(8)9/h2,4,6-7,9H,3,5H2,1H3/t6-,7-,8+/m1/s1
