15
gdb 67873	2.63282	1.71297	1.40687	3.1275	66.	-0.257	-0.023	0.234	945.2244	0.112931	-457.794797	-457.787386	-457.786442	-457.826627	28.212	
O	 0.2073436621	 1.3571713923	-0.3682772919	-0.469235
C	 0.1322795898	-0.0101516018	-0.1119960861	 0.186099
C	 0.8459860473	-0.8249132487	-1.1563298757	-0.113519
C	 0.104769394	-1.8358888091	-1.6097353822	-0.055567
C	-1.2673170526	-1.8973324653	-0.9778410824	-0.290124
C	-1.2122058858	-0.795060346	 0.0755597237	 0.059953
O	-0.722844879	-1.2855545582	 1.3733654521	-0.260354
C	 0.3998448865	-0.4979700106	 1.3321642299	 0.37946
O	 1.1910209024	-0.2993251742	 2.1966935675	-0.32728
H	 0.0932377756	 1.8397344884	 0.4579272762	 0.297791
H	 1.8571620473	-0.5798091056	-1.4556445809	 0.1182
H	 0.4336789969	-2.5608413776	-2.3457455527	 0.111785
H	-2.0646294938	-1.7317733158	-1.7124957723	 0.122957
H	-1.4694032765	-2.8636151083	-0.5006173048	 0.137408
H	-2.1206516443	-0.2100769895	 0.2188060597	 0.102425
118.7609	168.777	202.1106	275.7253	314.399	342.6004	438.4923	534.7371	661.0321	693.0336	720.5423	753.9832	788.6508	841.1504	861.3187	939.0496	969.1376	974.9649	1006.5181	1024.5674	1096.6435	1120.783	1139.189	1172.7903	1213.2251	1274.2386	1319.6751	1334.9034	1348.9977	1400.4008	1460.3539	1676.3229	1928.5109	3034.6503	3070.7294	3119.41	3196.8755	3226.211	3807.6789
OC12C=CCC1OC2=O	O[C@]12C=CC[C@H]1OC2=O	
InChI=1S/C6H6O3/c7-5-6(8)3-1-2-4(6)9-5/h1,3-4,8H,2H2	InChI=1S/C6H6O3/c7-5-6(8)3-1-2-4(6)9-5/h1,3-4,8H,2H2/t4-,6-/m1/s1
