19
gdb 39485	2.48927	1.76371	1.24782	2.109	77.17	-0.2359	-0.0003	0.2356	1038.5281	0.161554	-422.991429	-422.983867	-422.982922	-423.023209	30.206	
C	-0.1190747361	 1.3108207385	-0.47230216	-0.310775
C	 1.2667646556	 0.9646026696	-0.0364596642	 0.090626
O	 1.7023526015	 1.4793572492	 1.1813265491	-0.247007
C	 2.1930643688	 0.557324164	 2.1355901511	 0.02406
O	 1.4127720924	 0.5778172142	 3.2940410917	-0.239326
C	-0.0000498276	 0.5370049693	 3.0532401086	-0.131862
C	-0.4703322933	-0.6791742292	 2.2949863229	-0.110375
C	-0.3679530185	-0.9212274206	 0.9822701783	-0.044695
C	 0.2245685695	-0.1412991102	-0.1350802061	-0.080427
H	-0.7245976858	 1.8440044027	 0.2511694724	 0.134668
H	-0.3095197455	 1.5697288987	-1.5078489393	 0.118011
H	 2.045484916	 0.9342304909	-0.7977858402	 0.095836
H	 2.2368856265	-0.4451139222	 1.6869343592	 0.093107
H	 3.1923398499	 0.8721598497	 2.4542463635	 0.110586
H	-0.4431488407	 0.5477781491	 4.0513653226	 0.109281
H	-0.2989457427	 1.4590707709	 2.5439171783	 0.111035
H	-0.9242712582	-1.4610380155	 2.8986041071	 0.09096
H	-0.7636168936	-1.8783086069	 0.6458065673	 0.092218
H	 0.3689750218	-0.7584610624	-1.0173413024	 0.094079
123.7553	200.2965	232.3948	271.0604	303.8722	364.0235	420.9175	551.4074	557.9701	605.6718	713.4	739.7451	777.8066	792.1966	859.8725	915.5175	943.3998	977.7395	1007.69	1027.7414	1032.9802	1051.2672	1090.3202	1105.201	1132.3486	1143.4341	1164.0308	1200.0294	1259.7012	1286.2709	1307.3236	1322.9796	1380.3649	1396.6331	1413.6276	1441.0149	1450.7616	1478.503	1504.5059	1518.4446	1710.3002	3000.8952	3048.9005	3074.1268	3102.1072	3104.6376	3124.5667	3140.6696	3145.7437	3161.4011	3234.2763
C1C2OCOCC=CC12	C1[C@H]2OCOCC=C[C@@H]12	
InChI=1S/C7H10O2/c1-2-6-4-7(6)9-5-8-3-1/h1-2,6-7H,3-5H2/b2-1-	InChI=1S/C7H10O2/c1-2-6-4-7(6)9-5-8-3-1/h1-2,6-7H,3-5H2/b2-1-/t6-,7+/m0/s1
