17
gdb 19141	3.36296	1.72631	1.3885	2.2588	69.79	-0.2292	-0.0278	0.2014	934.7353	0.140986	-363.819809	-363.812042	-363.811098	-363.851952	29.021	
O	-0.1128010392	 0.1215189078	 0.8414289274	-0.274313
C	 0.0543822855	 0.9638268789	-0.0112885696	 0.087671
C	 1.2320682483	 1.872866293	-0.0685460783	 0.257591
C	 1.8166889089	 2.2721527653	 1.284614392	-0.279253
C	 2.5419290306	 1.2796477632	 0.4459613121	-0.279245
N	 1.3805982865	 2.85989763	-1.1082797944	-0.134285
C	 0.9462443737	 2.5763319485	-2.4722974338	-0.236336
C	 0.2188812418	 3.5712981941	-1.6316608574	-0.23633
H	-0.6980358565	 1.095470849	-0.8187359536	 0.074894
H	 2.203708316	 3.2824490218	 1.3349860236	 0.129514
H	 1.2840400171	 1.910145856	 2.1560461983	 0.138783
H	 2.5057067566	 0.238299321	 0.7433444594	 0.138777
H	 3.4295583503	 1.604830171	-0.0826156608	 0.129518
H	 1.6232873318	 2.9085507745	-3.2548513284	 0.122125
H	 0.4472599064	 1.6325506938	-2.6818634377	 0.119382
H	-0.7717828843	 3.3000854338	-1.2729727034	 0.119381
H	 0.3601185464	 4.6364413886	-1.7949658054	 0.122126
87.6616	126.7024	202.606	255.8553	265.9729	318.7494	388.0594	504.7896	540.7634	703.9626	793.5851	810.4125	819.459	842.0705	895.3606	968.4146	973.1522	1020.8317	1045.6565	1049.0319	1066.5712	1099.8987	1116.9308	1121.91	1166.8702	1173.1094	1208.5595	1225.7671	1304.6917	1356.0446	1438.1477	1445.8307	1472.6908	1499.2877	1529.0785	1797.7586	2891.3148	3099.9991	3102.9348	3146.8527	3147.3518	3176.6791	3190.469	3240.129	3253.6206
O=CC1(CC1)N1CC1	O=CC1(CC1)N1CC1	
InChI=1S/C6H9NO/c8-5-6(1-2-6)7-3-4-7/h5H,1-4H2	InChI=1S/C6H9NO/c8-5-6(1-2-6)7-3-4-7/h5H,1-4H2
