16
gdb 78645	2.51346	1.72668	1.38035	2.9481	69.1	-0.2449	-0.0111	0.2338	979.0666	0.123324	-437.845597	-437.837551	-437.836607	-437.878088	30.092	
C	 0.0361856503	 1.4944315327	 0.0264968067	-0.51216
C	-0.1083036823	 0.0075144171	 0.0142770258	 0.18563
C	-0.0236211902	-0.8657560733	 1.230202908	-0.093096
C	-0.5546731584	-2.2517961015	 0.9243275529	 0.121862
O	-1.9426201622	-2.4238684764	 0.9996133776	-0.427726
C	 0.1266016424	-2.0492365219	-0.4518164024	-0.211461
N	 1.0620053467	-0.9765057297	 0.209014016	-0.191647
C	-0.6198663231	-0.8748181149	-1.083267817	 0.441762
O	-1.1417379821	-0.671233258	-2.1410196349	-0.334931
H	 0.7565862978	 1.8092920409	 0.7865889304	 0.136156
H	 0.3777512047	 1.8548566761	-0.9477201707	 0.146495
H	-0.9257682353	 1.9677235296	 0.2476242878	 0.142183
H	 0.1608175968	-0.4245409982	 2.2040939271	 0.107367
H	-0.0074318719	-2.9948639596	 1.5189949181	 0.092529
H	-2.1514783883	-3.3555917124	 0.8780958449	 0.292981
H	 0.5461636452	-2.8578323007	-1.0447272503	 0.104055
127.8253	139.0017	159.0407	220.6951	229.5471	322.4941	381.8291	447.9604	595.7927	629.9841	648.4402	684.6062	760.6976	794.9885	846.388	854.537	949.8519	975.277	1013.5226	1037.3205	1072.8745	1076.3253	1151.2358	1158.6831	1165.3397	1211.5167	1262.0289	1295.3782	1324.1363	1402.5278	1426.8038	1441.6826	1479.5751	1490.4503	1892.2969	3023.6206	3043.33	3112.8141	3122.6757	3163.3553	3174.7386	3821.7251
CC12C3C(O)C(N13)C2=O	C[C@]12[C@H]3[C@@H](O)[C@H](N13)C2=O	
InChI=1S/C6H7NO2/c1-6-4-3(8)2(5(6)9)7(4)6/h2-4,8H,1H3	InChI=1S/C6H7NO2/c1-6-4-3(8)2(5(6)9)7(4)6/h2-4,8H,1H3/t2-,3-,4+,6+,7?/m0/s1
