15
gdb 18322	3.59711	2.25769	1.60853	2.1439	61.6	-0.2628	0.015	0.2778	787.3659	0.121203	-399.795241	-399.788863	-399.787919	-399.826127	23.946	
N	-0.0129163941	 1.2609463121	-0.0412290995	-0.544574
C	 0.0056939081	 0.0077200123	 0.1058587243	 0.417731
O	 1.1123626517	-0.7211569025	 0.4481073096	-0.240648
C	 0.871142758	-2.1330935625	 0.3367864505	-0.109291
C	-0.6413079058	-2.3058400163	 0.2665003894	 0.105525
O	-1.2738426341	-2.3275045075	 1.5622467444	-0.291135
C	-1.9786046538	-1.0948172247	 1.2875462289	-0.075997
C	-1.193992759	-0.8986021878	-0.0300753639	-0.174367
H	 0.9168567316	 1.6554618316	 0.1120544586	 0.224954
H	 1.3618772843	-2.5065808928	-0.570415116	 0.112851
H	 1.2969660455	-2.6296984165	 1.2122583054	 0.134355
H	-0.9536376858	-3.1492007988	-0.3570567892	 0.088732
H	-3.0522005541	-1.265818134	 1.1456676511	 0.110442
H	-1.8249607378	-0.3394974465	 2.0641556388	 0.127342
H	-1.7683504147	-0.700278286	-0.9321065723	 0.114078
87.2309	157.3672	248.8024	363.5459	436.2188	595.119	679.6776	735.7221	790.8164	836.3889	876.687	896.9096	909.62	967.401	982.4882	1007.9863	1059.5657	1066.8195	1087.0836	1125.1584	1158.3548	1212.9428	1228.1094	1263.3233	1274.1173	1304.8564	1341.761	1360.2555	1406.4326	1502.2895	1524.801	1775.3906	3028.8593	3031.2685	3064.8063	3088.684	3107.5642	3145.0383	3472.627
N=C1OCC2OCC12	[NH][C]1OC[C@H]2OC[C@@H]12	
InChI=1S/C5H7NO2/c6-5-3-1-7-4(3)2-8-5/h3-4,6H,1-2H2	InChI=1S/C5H7NO2/c6-5-3-1-7-4(3)2-8-5/h3-4,6H,1-2H2/t3-,4-/m1/s1
