19
gdb 111341	2.43244	1.55466	1.13401	2.2456	76.35	-0.2415	0.0747	0.3162	1138.0515	0.157605	-422.950761	-422.942193	-422.941249	-422.984229	32.094	
C	 0.25043997	 1.3353269682	 0.169418907	-0.237443
O	-0.2407233153	 0.0662801269	-0.2024709579	-0.232359
C	 0.5134739863	-0.5513238942	-1.2006954677	 0.023867
C	 1.9046938457	-1.1464521371	-0.8527145838	-0.013822
O	 1.720447642	-2.1833036591	 0.113708818	-0.236307
C	 1.4523975942	-2.4897957726	-1.2612357985	-0.084658
C	 0.0578921838	-1.9822822088	-1.562123702	 0.336088
C	-1.2547143391	-2.6220446186	-1.2453125788	-0.306168
C	-0.8588968637	-2.3706204194	-2.6831244015	-0.346752
H	 1.2596637645	 1.2729755694	 0.6020558115	 0.113112
H	 0.2829130146	 2.0259661133	-0.6884272842	 0.102062
H	-0.4300962998	 1.7383637685	 0.9226736245	 0.130676
H	 0.5921751752	 0.0905457299	-2.0949382896	 0.065961
H	 2.884705937	-0.6876393093	-0.9172837339	 0.102839
H	 2.0055333081	-3.3039657162	-1.7147944931	 0.106618
H	-1.2525565628	-3.6428644462	-0.8784558754	 0.116693
H	-2.0111843133	-1.9828422659	-0.8039330522	 0.130811
H	-1.3619570095	-1.57711117	-3.2266325099	 0.115714
H	-0.582378478	-3.2235052888	-3.2951140426	 0.113068
73.8642	119.0297	158.8406	190.2258	243.6567	256.1941	298.6419	451.574	502.4209	565.417	676.8914	772.8115	780.6609	852.3251	858.9292	887.4008	895.8886	949.0948	974.099	997.6733	1009.8883	1039.8257	1052.7976	1060.1412	1077.9128	1161.3911	1183.1012	1186.4832	1205.9047	1218.4591	1231.6459	1243.9061	1272.1838	1359.0392	1374.4039	1410.1505	1464.3237	1481.6022	1489.3075	1506.4344	1507.9727	2956.1372	2975.335	3026.3783	3119.7099	3123.1234	3136.6998	3177.3399	3193.547	3203.9355	3226.0356
COC1C2OC2C11CC1	CO[C@H]1[C@H]2O[C@H]2C21CC2	
InChI=1S/C7H10O2/c1-8-5-4-6(9-4)7(5)2-3-7/h4-6H,2-3H2,1H3	InChI=1S/C7H10O2/c1-8-5-4-6(9-4)7(5)2-3-7/h4-6H,2-3H2,1H3/t4-,5+,6-/m1/s1
