17
gdb 81046	2.5398	1.49515	1.24485	1.9293	69.52	-0.2487	-0.0306	0.218	1059.5559	0.133605	-458.910574	-458.902132	-458.901187	-458.944176	31.663	
C	-0.0178053153	 1.1268375395	-0.7709357562	-0.497402
C	-0.0864717553	 0.0636744492	 0.299231389	 0.248635
O	 0.7767925987	-0.1307995081	 1.1244729539	-0.299102
C	-1.2932552576	-0.8274491797	 0.2559426133	 0.291119
C	-2.0412888841	-1.5569950155	 1.3836384746	-0.263866
C	-2.8513152505	-1.7297666891	 0.084999567	-0.018972
O	-2.599044267	-0.295150445	-0.247198115	-0.37545
C	-1.5466278908	-2.0773528055	-0.681848801	 0.153014
O	-1.5128222815	-1.8804286746	-2.0486496122	-0.435137
H	 0.8983949868	 1.708109339	-0.6633929967	 0.142708
H	-0.0454400813	 0.6442236858	-1.7555814737	 0.149578
H	-0.8962610979	 1.7778470047	-0.7132470457	 0.157217
H	-1.5680801718	-2.4376350154	 1.8214470185	 0.117425
H	-2.4965612393	-0.8995366399	 2.1229135571	 0.124162
H	-3.8674308744	-2.0949860047	-0.0631479147	 0.106625
H	-1.0220517961	-3.0014605129	-0.4339781869	 0.108191
H	-2.0387033027	-1.0804513479	-2.2015317912	 0.291255
42.237	126.9098	169.7161	179.2459	298.8368	341.4995	365.1282	469.9336	511.5298	564.999	602.7182	623.7245	704.3812	748.7832	783.9098	871.9852	901.7013	922.7664	942.4783	1016.8626	1028.05	1043.9958	1101.2925	1132.1004	1138.5164	1163.0725	1188.1883	1220.1755	1233.6833	1297.112	1346.1945	1384.0043	1441.1817	1462.5989	1467.2341	1492.9714	1804.8416	3035.1607	3084.5955	3100.2882	3114.733	3126.9429	3157.4251	3168.7872	3723.4329
CC(=O)C12CC(O1)C2O	CC(=O)[C@@]12C[C@@H](O1)[C@H]2O	
InChI=1S/C6H8O3/c1-3(7)6-2-4(9-6)5(6)8/h4-5,8H,2H2,1H3	InChI=1S/C6H8O3/c1-3(7)6-2-4(9-6)5(6)8/h4-5,8H,2H2,1H3/t4-,5-,6-/m1/s1
