14
gdb 133286	2.50613	1.62271	0.99111	1.4951	71.5	-0.235	-0.0704	0.1646	1103.7708	0.100713	-474.11612	-474.108398	-474.107454	-474.148593	28.156	
C	-0.0486756883	 1.4117857688	 0.0699234659	-0.348896
N	-0.0361451215	-0.0389172665	 0.0698611072	-0.317566
C	 0.5220275216	-0.636851964	-0.9068493153	 0.352727
N	 1.1462768531	-0.0404778717	-2.0180151614	-0.325605
N	 1.7488790251	-0.6391394515	-3.073774187	-0.039854
N	 1.7845994456	-1.9034684716	-3.1182916023	-0.20432
C	 1.2107077316	-2.6444757622	-2.0934122011	-0.08399
C	 0.6041535752	-2.0799949894	-1.0302632117	 0.196378
F	 0.0661339901	-2.8006898692	-0.0690607577	-0.026753
H	 0.9654304497	 1.8447916553	 0.0784702635	 0.115293
H	-0.5808382372	 1.8316704695	-0.7998528053	 0.115197
H	-0.5610841569	 1.7663978171	 0.9666961296	 0.138908
H	 1.1754768883	 0.9657664891	-2.084174269	 0.281559
H	 1.2800432136	-3.7197730137	-2.1999239855	 0.146924
108.009	169.94	196.935	206.1036	251.5965	318.3858	483.037	504.2103	553.7526	579.6474	603.672	686.108	756.7837	759.654	928.8313	931.0372	1045.3133	1063.2347	1104.6143	1142.0402	1176.321	1200.1379	1304.2177	1378.8491	1432.105	1454.7442	1499.7885	1508.7667	1552.3258	1658.6929	1734.7984	2955.5745	2999.6321	3109.6894	3216.9677	3632.3198
CN=C1NN=NC=C1F	CN=c1[nH]nncc1F	
InChI=1S/C4H5FN4/c1-6-4-3(5)2-7-9-8-4/h2H,1H3,(H,6,7,8)	InChI=1S/C4H5FN4/c1-6-4-3(5)2-7-9-8-4/h2H,1H3,(H,6,7,8)
