21
gdb 72089	2.78817	1.67307	1.54745	1.5222	81.06	-0.2284	0.0835	0.312	994.5751	0.185605	-387.10667	-387.099236	-387.098292	-387.138075	30.677	
C	-0.0286767937	 1.5082595569	 0.0384910534	-0.494122
C	 0.0346243921	 0.0023084033	 0.0247883134	 0.342294
C	 0.3044322495	-0.7327910331	-1.2845014864	-0.280731
C	 0.5378957743	-2.1775206343	-0.8044714969	 0.092211
C	 1.3910740061	-2.0062120892	 0.4688727435	-0.236951
C	 0.7148447907	-0.809400746	 1.1212238686	-0.1014
C	-0.7921830243	-0.8212429876	 0.9868830392	-0.102248
C	-1.4718467192	-2.0877199273	 0.4967209789	-0.094694
O	-0.7070390593	-2.7931651173	-0.4813032889	-0.279187
H	 0.8947448143	 1.9477958296	-0.357956582	 0.113483
H	-0.8593661615	 1.8800533838	-0.5733224966	 0.116443
H	-0.1703533801	 1.8916081212	 1.0544745126	 0.112917
H	-0.5229816387	-0.6841457705	-2.0002395922	 0.099227
H	 1.2006111381	-0.3284490573	-1.7726891772	 0.09136
H	 0.9924582726	-2.8246899094	-1.5568576326	 0.075287
H	 1.3763248161	-2.9174708167	 1.0749841047	 0.102308
H	 2.4341954751	-1.779363079	 0.2175742127	 0.094781
H	 1.1693667623	-0.3211153282	 1.976432745	 0.075055
H	-1.358661156	-0.2734736507	 1.7350753317	 0.079631
H	-1.6580313478	-2.7650419159	 1.3434083839	 0.0975
H	-2.4517382808	-1.8453414322	 0.0592475353	 0.096836
138.4403	203.7179	229.0388	294.5018	360.652	411.6462	464.6009	468.9941	587.0358	650.9977	687.8187	776.4976	824.71	858.6943	878.525	889.4733	907.046	927.2157	983.1007	1002.169	1019.9353	1038.5837	1072.6501	1085.7302	1100.5291	1120.8551	1136.6094	1179.0262	1193.1315	1231.1496	1252.2784	1267.9769	1294.3022	1308.3607	1328.4336	1350.2913	1366.4697	1411.3039	1421.6387	1455.5958	1479.5539	1489.1838	1495.2004	1504.8668	1529.2547	2982.9046	3003.6255	3017.1694	3023.1943	3033.3871	3074.6063	3076.477	3082.3984	3091.8421	3097.1023	3144.0124	3166.5003
CC12CC3CC1C2CO3	C[C@@]12C[C@H]3C[C@@H]1[C@@H]2CO3	
InChI=1S/C8H12O/c1-8-3-5-2-6(8)7(8)4-9-5/h5-7H,2-4H2,1H3	InChI=1S/C8H12O/c1-8-3-5-2-6(8)7(8)4-9-5/h5-7H,2-4H2,1H3/t5-,6-,7+,8-/m1/s1
