17
gdb 52477	4.62223	0.52337	0.48197	3.0163	99.61	-0.2341	-0.0369	0.1971	2242.8165	0.132021	-384.662326	-384.651581	-384.650636	-384.70056	35.654	
C	-0.0301007993	 1.5125272304	 0.0041353314	-0.518312
C	-0.0070728667	 0.0612773087	 0.0091993834	 0.24658
C	 0.0130985661	-1.1489347114	 0.0139484477	-0.19251
C	 0.0363647207	-2.5081946905	 0.0194339709	-0.253192
C	 0.0518288993	-3.7196048917	 0.0319501316	 0.327773
C	 0.0891445493	-5.1739736709	 0.0009307449	-0.256573
C	-1.3297625219	-5.7945858625	-0.0347022617	-0.397933
C	 0.8594014696	-5.6422626415	-1.241354795	 0.174559
O	 1.7259282559	-6.4724193445	-1.2200976345	-0.239309
H	 0.9851736289	 1.9248825194	 0.0037471361	 0.158841
H	-0.546960492	 1.8972149973	-0.8822783683	 0.158099
H	-0.548209938	 1.9027207877	 0.8874404733	 0.158384
H	 0.6323095361	-5.5615047714	 0.870534352	 0.129923
H	-1.9064511053	-5.4587904696	 0.8300193102	 0.141453
H	-1.8642979999	-5.4893964264	-0.9389791445	 0.134763
H	-1.262294295	-6.8857364998	-0.0149565532	 0.135508
H	 0.5266212822	-5.1573230131	-2.1857383942	 0.091946
26.6855	42.1812	69.6557	80.8813	160.6951	177.5419	224.007	293.0016	319.1998	335.36	429.4544	445.8663	478.1264	549.6433	567.3942	661.7898	868.7539	909.124	957.4664	1047.5976	1047.857	1070.4444	1085.0778	1133.239	1253.2762	1283.5325	1335.2164	1397.8294	1412.9101	1416.4381	1471.377	1471.8115	1491.4397	1496.9934	1838.9475	2275.153	2382.9705	2890.849	3024.8286	3045.6071	3048.852	3087.4454	3087.666	3123.8111	3132.4854
CC#CC#CC(C)C=O	CC#CC#C[C@@H](C)C=O	
InChI=1S/C8H8O/c1-3-4-5-6-8(2)7-9/h7-8H,1-2H3	InChI=1S/C8H8O/c1-3-4-5-6-8(2)7-9/h7-8H,1-2H3/t8-/m1/s1
