21
gdb 114100	3.12381	1.14985	0.98179	2.3142	78.23	-0.2402	0.0602	0.3004	1289.3295	0.18156	-424.193942	-424.184824	-424.18388	-424.227926	34.629	
C	-0.3600955013	 1.3775185191	-0.0061545436	-0.383074
C	-0.0040399215	-0.1122493849	-0.0031615652	-0.184515
C	 0.8366628668	-0.5248087897	 1.199047871	 0.027561
C	 0.1819147996	-0.4933525947	 2.623989797	-0.335043
C	 0.5660708907	-1.9824729209	 2.8406419762	 0.362362
O	 1.1750376024	-2.377506959	 4.027032404	-0.473443
C	-0.4601497665	-2.9894656047	 2.3117909056	-0.103913
O	 0.0652748768	-2.8919462236	 0.9672085061	-0.287974
C	 1.1486292577	-2.0327682513	 1.3818608914	 0.006955
H	 0.5396995748	 2.0025152095	-0.0354646925	 0.110507
H	-0.9728417731	 1.6362694687	-0.8752600736	 0.113582
H	-0.9243713473	 1.6555651993	 0.8909418281	 0.11512
H	-0.9144420442	-0.7207325986	-0.0240146082	 0.109373
H	 0.5445073962	-0.3611914143	-0.9210036577	 0.096956
H	 1.775067122	 0.0435728999	 1.207231141	 0.066706
H	 0.6799883885	 0.1849245142	 3.3243700108	 0.092681
H	-0.891828991	-0.2842970292	 2.6583846414	 0.10432
H	 1.7504921968	-1.6686920545	 4.3320258323	 0.28142
H	-0.3168545762	-3.9938588445	 2.7290414075	 0.109919
H	-1.5187578235	-2.709979888	 2.3734841104	 0.09906
H	 2.1259215223	-2.419118183	 1.0795320279	 0.071439
64.8081	101.8644	154.6802	213.5963	253.8398	292.5445	299.7616	363.0409	389.4174	421.1282	512.2697	643.8851	684.1074	769.6656	787.7823	868.845	905.3448	907.0506	937.823	954.809	993.4329	1005.6032	1030.2931	1057.6882	1109.5845	1112.0087	1128.4323	1150.346	1178.0388	1187.2509	1231.1375	1264.6366	1280.5845	1287.3325	1315.4046	1336.0497	1353.3588	1385.0388	1409.3051	1414.2694	1475.1735	1489.0966	1500.4291	1508.5328	1516.9723	3015.172	3021.8648	3026.1779	3028.9861	3041.0072	3066.7517	3069.125	3073.5832	3091.2892	3097.6225	3101.8327	3815.8406
CCC1CC2(O)COC12	CC[C@H]1C[C@@]2(O)CO[C@@H]12	
InChI=1S/C7H12O2/c1-2-5-3-7(8)4-9-6(5)7/h5-6,8H,2-4H2,1H3	InChI=1S/C7H12O2/c1-2-5-3-7(8)4-9-6(5)7/h5-6,8H,2-4H2,1H3/t5-,6-,7+/m0/s1
