19
gdb 119252	1.74522	1.31667	0.84467	2.6631	72.86	-0.2494	-0.0258	0.2236	1397.3751	0.155388	-460.133165	-460.123018	-460.122073	-460.170012	34.657	
C	-3.5773687925	 0.1379052553	 1.5348923796	-0.226388
O	-2.9060829048	-1.0317013265	 1.122115856	-0.237144
C	-2.0191925184	-0.8073400967	 0.050402422	-0.123143
C	-1.2640540596	-2.095419676	-0.2099892408	 0.374225
C	-0.361320435	-2.5700439288	 0.9159414016	-0.351207
C	 0.8545808125	-1.675278248	 1.0768561103	 0.154579
O	 1.2230611973	-1.2029191598	 2.1211750713	-0.24013
C	-1.7969316609	-3.0458651812	-1.1941533682	-0.223144
O	-0.7025046699	-2.1840576527	-1.5261859777	-0.282108
H	-4.2255486902	-0.1369308027	 2.3698937256	 0.132512
H	-2.871753098	 0.9136118592	 1.8694047286	 0.114434
H	-4.1953673283	 0.5585556737	 0.7264926307	 0.107706
H	-2.5541558007	-0.5070730668	-0.8641848854	 0.099702
H	-1.310031613	 0.0021227928	 0.2970410326	 0.100577
H	-0.9111745774	-2.6045291316	 1.8592388181	 0.141524
H	 0.0055299649	-3.5767368538	 0.6788934194	 0.123344
H	 1.4073920854	-1.4871379052	 0.1298674786	 0.095641
H	-1.5497630192	-4.1026342205	-1.1088355988	 0.118098
H	-2.7338632519	-2.8255142506	-1.7025907635	 0.12092
37.919	56.2368	90.1615	96.5121	166.695	203.793	225.8932	307.5556	363.9928	401.1902	406.0477	488.1345	543.6107	746.0778	811.4096	877.6958	934.2466	940.2353	993.0222	1013.1669	1064.9849	1087.9718	1130.853	1155.464	1164.7655	1182.2301	1198.1957	1229.1479	1234.9608	1281.1335	1314.2341	1402.862	1420.1275	1433.7269	1447.2717	1480.595	1485.9962	1503.7489	1521.5469	1534.0188	1832.3712	2892.7691	2954.3711	2977.6849	3000.5365	3024.5952	3037.1525	3089.0234	3121.4849	3122.176	3177.7993
COCC1(CC=O)CO1	COC[C@@]1(CC=O)CO1	
InChI=1S/C6H10O3/c1-8-4-6(2-3-7)5-9-6/h3H,2,4-5H2,1H3	InChI=1S/C6H10O3/c1-8-4-6(2-3-7)5-9-6/h3H,2,4-5H2,1H3/t6-/m0/s1
