18
gdb 29762	2.9607	1.23499	0.8812	2.8858	91.01	-0.1995	0.0177	0.2172	1313.4416	0.146472	-364.827663	-364.818151	-364.817207	-364.862197	34.516	
C	-0.013399843	 1.4627510229	 0.0098370304	-0.33438
N	-0.0485791275	 0.0156445104	 0.0064982801	 0.015992
C	-0.0408765488	-0.7788687625	-1.1198181441	-0.177606
C	 0.0172469122	-2.096752078	-0.7397528672	 0.152561
C	 0.0268348268	-3.3000815024	-1.6288652827	-0.511333
C	 0.0519859994	-2.1035723247	 0.6983988826	 0.061626
C	 0.0130797403	-0.7814023161	 1.1115145515	-0.219094
C	 0.1019363803	-3.2450658336	 1.5298511324	 0.265085
C	 0.1462541374	-4.2353817295	 2.2162894606	-0.478793
H	 1.005510821	 1.8448308812	-0.1229171554	 0.141027
H	-0.6403083524	 1.8509275362	-0.7970442212	 0.142226
H	-0.4048985357	 1.8341304139	 0.9592890497	 0.143615
H	-0.0796212484	-0.3356602021	-2.1028876157	 0.116853
H	 0.9244977638	-3.9084604546	-1.4707851033	 0.131978
H	-0.832723238	-3.9513241032	-1.4336103048	 0.131916
H	-0.0026813034	-3.0112694609	-2.6833532734	 0.114708
H	 0.024908342	-0.3623054639	 2.1047795314	 0.125421
H	 0.1847119139	-5.1026287032	 2.8265929091	 0.178197
78.3519	91.2213	126.8269	131.8523	187.2907	256.5422	274.4963	375.7567	466.8452	516.1535	526.7881	568.7914	610.8479	617.0362	646.359	662.9451	724.6081	768.6415	783.3798	1009.5911	1035.7253	1064.8618	1089.9696	1147.9237	1167.3937	1183.6129	1238.2839	1368.8191	1393.0263	1418.1876	1430.9214	1460.3974	1479.7505	1487.6888	1493.369	1515.2526	1567.5879	1603.7547	2224.4827	3028.5464	3030.6321	3078.6693	3099.0553	3108.1888	3133.135	3250.6785	3263.4667	3506.245
CN1C=C(C)C(=C1)C#C	Cn1cc(C)c(c1)C#C	
InChI=1S/C8H9N/c1-4-8-6-9(3)5-7(8)2/h1,5-6H,2-3H3	InChI=1S/C8H9N/c1-4-8-6-9(3)5-7(8)2/h1,5-6H,2-3H3
