23
gdb 95346	2.92217	1.33214	1.06388	1.2773	84.84	-0.2364	0.0799	0.3163	1232.5749	0.208345	-388.294924	-388.286653	-388.285709	-388.327377	33.457	
C	-0.0556849969	 1.5547354784	-0.0294785391	-0.404511
C	-0.0039454476	 0.0255814255	-0.0016731096	 0.017822
C	 0.7232391191	-0.523793188	-1.2341033021	-0.073031
O	 0.6974772601	-1.940429399	-1.3031412038	-0.265499
C	 1.1303811152	-2.6082426176	-0.1453028718	 0.16545
C	 2.6251380693	-2.639779313	 0.2857975692	-0.268362
C	 2.1207909741	-2.6199771667	 1.7581545765	-0.236939
C	 0.7645520358	-2.0433927973	 1.2566836115	-0.050474
C	 0.7011232772	-0.5072152355	 1.2554809488	-0.211893
H	 0.9533931925	 1.9841478475	-0.029858416	 0.113637
H	-0.5745578394	 1.9231293196	-0.9209743455	 0.112813
H	-0.5795973946	 1.9462821126	 0.8485564283	 0.11438
H	-1.030103134	-0.3675121118	-0.0267595365	 0.07653
H	 0.2460142708	-0.1792263242	-2.1569973129	 0.101184
H	 1.7614419833	-0.147590301	-1.2403890247	 0.081517
H	 0.7606322702	-3.6325278597	-0.252782354	 0.080574
H	 3.2271711442	-3.4879949361	-0.046742121	 0.096785
H	 3.1497110189	-1.7167185386	 0.0253922646	 0.105436
H	 2.0142357472	-3.6285999708	 2.1660422968	 0.100917
H	 2.6796720471	-2.0120541064	 2.4736899327	 0.097261
H	-0.1445809244	-2.4564963819	 1.7031412254	 0.06339
H	 1.7168046845	-0.0875574966	 1.2764603385	 0.090371
H	 0.2054178473	-0.1475346595	 2.1645678148	 0.092645
116.939	163.2836	220.9375	233.9292	277.5161	364.5305	383.9746	433.9358	448.1121	480.9453	625.1264	660.1601	759.6163	835.0639	861.628	871.7977	915.2051	921.452	942.2768	949.2658	977.6192	1004.8753	1025.5194	1069.5161	1092.1223	1130.3381	1144.9976	1171.5041	1182.5389	1199.5027	1225.539	1244.6976	1255.885	1263.683	1293.8908	1307.6382	1311.8953	1341.9434	1369.223	1379.836	1398.1809	1409.6083	1425.0937	1479.0723	1488.13	1497.3368	1499.165	1502.1768	1509.6948	2951.8713	3004.0306	3014.8036	3025.2293	3044.3733	3057.0546	3059.1908	3067.6956	3070.063	3073.0604	3090.559	3098.2326	3106.1375	3123.7121
CC1COC2CCC2C1	C[C@H]1CO[C@H]2CC[C@H]2C1	
InChI=1S/C8H14O/c1-6-4-7-2-3-8(7)9-5-6/h6-8H,2-5H2,1H3	InChI=1S/C8H14O/c1-6-4-7-2-3-8(7)9-5-6/h6-8H,2-5H2,1H3/t6-,7+,8+/m1/s1
