21
gdb 109713	2.28786	1.32521	1.07108	2.3647	79.45	-0.2287	0.0677	0.2965	1246.3918	0.18109	-424.177914	-424.168309	-424.167365	-424.212609	35.334	
C	 0.1071272823	 1.1163524421	-0.1323170221	-0.234149
O	-0.4192410966	-0.0296676372	 0.5110396322	-0.252142
C	 0.4658035241	-0.6312055392	 1.4097393169	-0.050459
C	 0.1469126241	-2.0741591258	 1.6769222165	 0.023757
O	-0.9278871157	-2.6479184372	 0.9993686934	-0.429651
C	 1.4002037969	-1.7084439508	 0.9089072344	 0.291733
C	 1.644058538	-2.1725676267	-0.5305667365	-0.290421
C	 3.0048394613	-2.7657158855	-0.0505663385	-0.199915
C	 2.8450117742	-2.0236518005	 1.3116585029	-0.306574
H	 1.0201336123	 0.884773812	-0.6954128165	 0.118316
H	-0.6593210938	 1.4794747742	-0.8208823635	 0.130208
H	 0.3365972022	 1.9080244422	 0.5957207595	 0.112263
H	 0.790252004	 0.0143942698	 2.2285002671	 0.08311
H	 0.2502485844	-2.4540599392	 2.6910065343	 0.095636
H	-1.3458652266	-1.9352068935	 0.4981626207	 0.298173
H	 0.9069631343	-2.8807320268	-0.9164157162	 0.114199
H	 1.7588219632	-1.35870084	-1.252398383	 0.095079
H	 2.9716140935	-3.8521487642	 0.0570146029	 0.109013
H	 3.8843320486	-2.5039558151	-0.6425535646	 0.097132
H	 3.4760347423	-1.1316204775	 1.3888504617	 0.096061
H	 2.9821512869	-2.6219961814	 2.2174077484	 0.098632
70.6323	107.0972	132.5971	146.0687	186.9416	210.4338	249.7241	352.5192	371.2214	434.5329	503.5888	624.5429	644.2503	723.458	787.0886	837.5378	845.1083	872.943	936.7934	952.3191	1000.8606	1026.936	1066.1739	1107.1965	1129.1726	1156.47	1160.2183	1181.0352	1181.5227	1213.2992	1224.3644	1235.7727	1248.4689	1264.3633	1276.3584	1317.9352	1326.0699	1384.4987	1453.3548	1477.039	1481.0502	1483.1819	1485.7539	1504.4949	1508.1659	2994.899	3036.8253	3049.7112	3056.5293	3068.8278	3076.7668	3082.3064	3101.96	3121.6138	3124.5126	3129.8288	3762.4069
COC1C(O)C11CCC1	CO[C@H]1[C@@H](O)C21CCC2	
InChI=1S/C7H12O2/c1-9-6-5(8)7(6)3-2-4-7/h5-6,8H,2-4H2,1H3	InChI=1S/C7H12O2/c1-9-6-5(8)7(6)3-2-4-7/h5-6,8H,2-4H2,1H3/t5-,6+/m1/s1
