20
gdb 97445	3.05767	1.05581	0.90531	2.2997	78.99	-0.2312	0.0137	0.2449	1368.6057	0.169518	-440.269614	-440.260168	-440.259223	-440.304098	35.141	
C	-0.0093236008	 0.0303079054	 0.5070271037	-0.323396
N	 0.5266786871	-0.8920027431	-0.4775428836	-0.244142
C	 0.2717496627	-0.6679846562	-1.6976216012	 0.156784
O	 0.6961590263	-1.3936117502	-2.7295668665	-0.222382
C	 1.6654590952	-2.453184795	-2.509339506	-0.165322
C	 1.1627282695	-3.6367467378	-1.7112815373	 0.42407
O	 1.3646147599	-3.5568595803	-0.3363182181	-0.477793
C	-0.0527378378	-4.3807743495	-2.2235660585	-0.312994
C	 1.3207062508	-5.0144133072	-2.2890896309	-0.30846
H	 0.8103618902	 0.4705370331	 1.0851984018	 0.134444
H	-0.5972791817	 0.8475696052	 0.0636614546	 0.107139
H	-0.6479092791	-0.5119119429	 1.2128843324	 0.135048
H	-0.3425242965	 0.1666014568	-2.0541524445	 0.108568
H	 1.9312193596	-2.7480738192	-3.5256893189	 0.117387
H	 2.5413788377	-2.0252615497	-2.0107251617	 0.126651
H	 1.0779586274	-2.6557560307	-0.0874560521	 0.282538
H	-0.7346917349	-4.7484651091	-1.4660958915	 0.11802
H	-0.5204470759	-4.0534123143	-3.1461393962	 0.110947
H	 1.7949578266	-5.1313048824	-3.2577488629	 0.107362
H	 1.5458352235	-5.7966116829	-1.5735692525	 0.125531
51.125	129.8805	150.9122	183.0642	219.7869	231.3768	325.3537	341.4121	387.1891	404.5775	431.282	548.3785	680.9171	690.9833	741.7448	779.7079	884.445	912.9731	942.841	957.2484	975.7404	1001.1821	1026.8315	1050.7071	1074.4942	1077.4763	1143.4393	1149.7423	1191.5949	1258.7997	1267.1667	1295.8829	1355.2635	1394.3652	1407.8248	1451.2286	1453.9254	1469.1836	1476.0459	1482.5307	1505.9365	1526.6424	1738.6657	2991.504	3055.6904	3069.1161	3070.8102	3085.9914	3126.2199	3133.0918	3136.8507	3219.9312	3234.124	3516.5363
CN=COCC1(O)CC1	CN=COCC1(O)CC1	
InChI=1S/C6H11NO2/c1-7-5-9-4-6(8)2-3-6/h5,8H,2-4H2,1H3	InChI=1S/C6H11NO2/c1-7-5-9-4-6(8)2-3-6/h5,8H,2-4H2,1H3
