17
gdb 119553	3.16505	1.12298	0.91215	3.4739	70.6	-0.2433	-0.0258	0.2175	1296.0189	0.133174	-458.919088	-458.910205	-458.909261	-458.953579	31.464	
C	-0.0121230997	 1.3934943982	-0.2001672454	-0.221146
O	-0.0253046396	-0.0146298913	-0.1537636093	-0.229573
C	-1.2998570103	-0.5372148163	 0.1333396853	-0.202385
C	-1.1920252062	-2.0212542296	 0.2321801864	 0.302106
O	-1.0540964505	-2.7958903137	-0.9823553478	-0.266196
C	-2.1277176267	-3.1276203997	-0.1150911769	-0.051948
C	-1.5487284499	-4.0909055587	 0.9301737739	-0.371902
C	-0.6018008149	-2.9144719947	 1.329655473	 0.380691
O	 0.1334066077	-2.7258079449	 2.2497854039	-0.287611
H	 1.0126499145	 1.6996901352	-0.4203607965	 0.13534
H	-0.6779995065	 1.7819713919	-0.9869571062	 0.105743
H	-0.31861258	 1.8358651126	 0.7607871866	 0.107875
H	-1.6824233257	-0.136778975	 1.0879493412	 0.100747
H	-2.0261622487	-0.2769750492	-0.6548750414	 0.100811
H	-3.1399982459	-3.0501967589	-0.4931197123	 0.122898
H	-2.2147413751	-4.3429935021	 1.7608626334	 0.133712
H	-1.0916771025	-4.9949802438	 0.5244983721	 0.140838
61.6296	84.1824	109.5501	159.0633	220.0366	259.4763	342.5836	366.4968	451.8389	512.874	572.5142	678.7366	755.7829	789.3108	873.6976	935.2045	950.7824	981.5593	999.3485	1028.8915	1044.7428	1133.5956	1162.3279	1173.3036	1190.2147	1218.4044	1229.828	1253.8116	1293.8005	1380.7666	1440.2605	1462.7966	1483.917	1486.3299	1494.1991	1516.2761	1901.9751	2953.1856	2973.0511	2986.6669	3017.3217	3069.2244	3123.9318	3134.5943	3198.6563
COCC12OC1CC2=O	COC[C@]12O[C@H]1CC2=O	
InChI=1S/C6H8O3/c1-8-3-6-4(7)2-5(6)9-6/h5H,2-3H2,1H3	InChI=1S/C6H8O3/c1-8-3-6-4(7)2-5(6)9-6/h5H,2-3H2,1H3/t5-,6+/m0/s1
