16
gdb 101980	1.99284	1.40951	1.25086	3.2071	67.82	-0.2463	-0.0731	0.1732	1112.0323	0.119272	-475.019378	-475.009299	-475.008354	-475.054789	34.053	
C	-0.2533108424	 1.3934459663	 0.3928491143	-0.340379
N	-0.0663094362	-0.0450192057	 0.1549708435	-0.334326
C	 0.4926853223	-0.4043349515	-1.1322037122	-0.037595
C	 1.9263206254	 0.1037016906	-1.4136730703	 0.146477
O	 2.6136426179	 0.5711175615	-0.5468662521	-0.250232
C	 0.5829829136	-1.9515442382	-1.2040919594	 0.13032
O	 1.064474842	-2.5596681216	-2.1161913851	-0.225237
C	-0.4361213123	 0.0123790377	-2.2792475376	 0.144421
O	-0.0904441629	 0.0663292422	-3.4274891492	-0.23534
H	 0.671225687	 1.9796320104	 0.3277443333	 0.137714
H	-0.9753017012	 1.8002892069	-0.3216400911	 0.128935
H	-0.6794510812	 1.5228959791	 1.390910602	 0.13372
H	 0.5419325227	-0.4096009718	 0.8819941027	 0.237921
H	 2.2605011251	-0.0172765158	-2.4603660496	 0.13967
H	 0.1521908578	-2.4349011791	-0.300877157	 0.108212
H	-1.4727971176	 0.2285640989	-1.9485985122	 0.115717
84.578	93.5324	107.3606	130.112	177.8424	194.2052	218.8771	253.8027	296.0979	306.4467	425.0267	507.7987	547.1247	671.6914	750.2134	775.5228	915.0354	923.8415	984.5247	1050.4757	1079.5143	1104.0284	1165.4556	1187.7064	1249.4093	1367.5738	1373.7995	1400.8673	1461.9942	1489.8266	1496.592	1529.4247	1800.7825	1816.0257	1859.4801	2903.4555	2922.5588	2977.1722	3027.0649	3092.1702	3117.5285	3517.6214
CNC(C=O)(C=O)C=O	CNC(C=O)(C=O)C=O	
InChI=1S/C5H7NO3/c1-6-5(2-7,3-8)4-9/h2-4,6H,1H3	InChI=1S/C5H7NO3/c1-6-5(2-7,3-8)4-9/h2-4,6H,1H3
