19
gdb 47444	2.70809	1.46079	1.0664	3.0612	76.35	-0.2344	0.0284	0.2628	1152.8745	0.161454	-419.219349	-419.211155	-419.21021	-419.252568	30.916	
O	 0.3062499084	 0.0625726627	-0.7866120534	-0.389312
C	 0.1560389646	 1.1966899236	-0.3862370167	 0.431724
N	-1.0093596929	 1.7642086905	 0.0430718165	-0.304711
C	-0.8675556846	 3.1007282088	 0.5990658753	-0.158159
C	 0.4679713843	 3.5684390403	-0.0190088575	-0.230255
C	 1.2567980029	 2.2681414603	-0.2275325888	-0.08485
N	 2.0223665017	 1.9275523761	 0.9702343997	-0.079988
C	 3.0107274912	 0.8640207942	 0.8144398099	-0.209304
C	 3.4419209686	 2.2814679076	 0.9557097377	-0.234277
H	-1.8263266485	 1.1905672863	 0.1827065567	 0.250414
H	-1.7070119812	 3.7411137164	 0.3117246324	 0.110588
H	-0.8123828602	 3.0772902491	 1.6949608114	 0.119712
H	 0.2788597601	 4.0441324413	-0.9859005451	 0.110222
H	 0.9972773522	 4.2782960933	 0.6190783582	 0.114184
H	 1.8830953159	 2.2851351275	-1.132658334	 0.076618
H	 3.0932824972	 0.1776015974	 1.6517033955	 0.118571
H	 3.099222302	 0.3992660674	-0.1638389832	 0.132521
H	 3.8329588018	 2.7764000039	 0.0680675264	 0.110053
H	 3.8455599463	 2.6475912035	 1.895211269	 0.116249
84.8648	87.3664	170.6204	183.7454	293.3021	317.5355	398.2056	504.2588	529.1887	654.7083	691.2765	708.4255	772.6147	820.7363	885.6289	901.5364	914.7929	940.5728	989.3209	1031.3456	1048.6067	1083.1468	1097.6906	1112.4812	1119.0679	1171.6158	1184.4892	1209.9775	1224.0589	1276.1711	1289.3188	1311.1695	1332.5916	1355.714	1371.8748	1447.4776	1482.345	1494.821	1521.0879	1530.2063	1828.8106	2980.502	3020.7661	3060.7905	3076.7748	3096.4207	3116.4831	3122.6953	3182.4502	3203.3642	3637.2208
O=C1NCCC1N1CC1	O=C1NCC[C@H]1N1CC1	
InChI=1S/C6H10N2O/c9-6-5(1-2-7-6)8-3-4-8/h5H,1-4H2,(H,7,9)	InChI=1S/C6H10N2O/c9-6-5(1-2-7-6)8-3-4-8/h5H,1-4H2,(H,7,9)/t5-/m1/s1
