19
gdb 40014	3.52889	1.35452	1.12929	2.1485	81.49	-0.2312	0.0034	0.2346	1112.9486	0.16082	-385.868884	-385.861402	-385.860458	-385.90111	30.128	
C	-0.2068693076	 1.4903685371	 0.0189354271	-0.307037
C	 1.2241375403	 1.0511040462	-0.0704841808	-0.300836
C	 0.1099699608	 0.0086854533	 0.0019128795	 0.337341
C	-0.0988713389	-0.7622817545	 1.3068224713	-0.3273
C	 0.1522333189	-2.2610288049	 1.1906652238	 0.024496
O	-0.9889317993	-3.0565283295	 0.8507687059	-0.25844
C	 0.0682665815	-2.913663284	-0.1227945117	 0.007336
C	-0.1953738973	-2.0753852642	-1.3173216606	-0.107764
C	-0.160665388	-0.7424654001	-1.2473790167	-0.113989
H	-0.5573621003	 1.9084579725	 0.9572131242	 0.11518
H	-0.6713589963	 1.9239207381	-0.8606444584	 0.115501
H	 1.7446568619	 1.1737802619	-1.0140060471	 0.116235
H	 1.856024602	 1.1637013152	 0.8042417778	 0.116329
H	 0.5383707383	-0.3416356519	 2.0914941958	 0.097863
H	-1.1362468885	-0.6384913824	 1.6397500906	 0.12335
H	 0.7854617976	-2.7078469435	 1.9566334947	 0.090529
H	 0.624786336	-3.8350707677	-0.2932891804	 0.08712
H	-0.3920414191	-2.5761666942	-2.260247442	 0.092334
H	-0.3137254117	-0.1481528573	-2.1460294331	 0.09175
48.6475	185.7868	286.6295	308.5062	353.0607	407.375	439.2635	540.7694	601.7322	673.823	743.1417	778.208	799.9846	817.3554	829.4219	917.4532	929.9843	936.0241	952.2475	984.4967	995.0186	1008.207	1045.4567	1060.1026	1080.0942	1083.4916	1145.7847	1191.5541	1193.4168	1237.2916	1280.763	1299.9342	1328.7007	1354.3624	1379.0862	1435.1348	1462.0365	1468.0769	1477.588	1498.9702	1703.1406	3032.0243	3074.3269	3104.0314	3115.6672	3125.225	3131.1794	3143.0019	3178.4627	3204.7234	3221.2213
C1CC11CC2OC2C=C1	C1CC21C[C@H]1O[C@H]1C=C2	
InChI=1S/C8H10O/c1-2-8(3-4-8)5-7-6(1)9-7/h1-2,6-7H,3-5H2	InChI=1S/C8H10O/c1-2-8(3-4-8)5-7-6(1)9-7/h1-2,6-7H,3-5H2/t6-,7+/m0/s1
