15
gdb 126347	2.57956	0.73927	0.64768	3.8264	69.24	-0.2497	-0.0517	0.198	1717.796	0.105637	-454.009531	-453.997546	-453.996602	-454.053627	35.319	
C	 0.1364818347	 1.812176245	 0.1991240472	-0.362924
C	-0.1955126044	 0.3151563474	 0.2649598752	-0.27945
C	 0.34308266	-0.4816900418	-0.9157907451	-0.204604
C	 1.7185120936	-0.9898782826	-0.9367933247	 0.122222
O	 2.2560814935	-1.5981554794	-1.8362541336	-0.294462
N	 2.5560012861	-2.0495545502	-5.2713127132	-0.004467
N	 1.7535248827	-1.3915642405	-4.9108050835	-0.000901
C	-0.414332248	-0.7370344001	-1.976201606	 0.515514
O	-1.0770771986	-0.970097416	-2.8927317937	-0.189295
H	 1.2171732633	 1.9737852085	 0.1379450466	 0.127501
H	-0.3191907917	 2.2771852785	-0.680412514	 0.126429
H	-0.2341601597	 2.3295277371	 1.0898458946	 0.121743
H	 0.236492559	-0.1226418631	 1.1731130876	 0.125424
H	-1.2775773885	 0.1753445162	 0.3498762772	 0.120763
H	 2.2568872179	-0.762911529	 0.0112043655	 0.076508
7.2677	12.6127	38.9907	45.333	47.7445	80.1085	131.376	153.6349	202.4723	221.289	292.1093	405.057	513.7046	611.8996	677.5874	768.844	813.2091	968.2606	1015.1264	1064.197	1085.1329	1207.8072	1279.2751	1347.3675	1393.5886	1413.0555	1432.4303	1479.7541	1494.3096	1501.5532	1763.5548	2221.5767	2432.3457	2873.8196	3035.0188	3036.7729	3076.927	3109.5331	3114.5117	7.268	12.6101	38.9904	45.3333	47.7444	80.1081	131.3759	153.6348	202.4723	221.2888	292.1093	405.0569	513.7046	611.8999	677.5875	768.844	813.2089	968.2606	1015.1262	1064.1969	1085.1328	1207.8072	1279.275	1347.3673	1393.5884	1413.0555	1432.43	1479.7538	1494.3096	1501.5531	1763.5541	2221.5768	2432.3457	2873.8195	3035.0188	3036.7729	3076.927	3109.5331	3114.5117
CCC1=CON=NC1=O	CC[C](C=O)[C][O].N#N	
InChI=1S/C5H6N2O2/c1-2-4-3-9-7-6-5(4)8/h3H,2H2,1H3	InChI=1S/C5H6O2.N2/c1-2-5(3-6)4-7;1-2/h3H,2H2,1H3;
