20
gdb 94376	3.03001	1.36563	1.18596	1.1453	77.79	-0.2359	0.0686	0.3045	1118.716	0.171049	-403.080216	-403.072016	-403.071072	-403.113231	31.597	
C	-0.3865158057	 1.4167681507	 0.026126122	-0.406843
C	 0.1126013379	-0.0120875791	-0.0566435878	 0.096782
O	 1.36087205	-0.1124603189	-0.7857281438	-0.297152
C	 2.0003771831	-0.8002870688	 0.3050958914	-0.137174
C	 0.7504592874	-0.6688586646	 1.1935547621	 0.275869
C	 0.8659698859	-0.0343458303	 2.6022181684	-0.247932
N	 0.3890449086	-1.2938449178	 3.2803603569	-0.123798
C	-0.9700051208	-1.5161573437	 2.7618588364	-0.24455
C	 0.1689801835	-1.8847733757	 1.895991391	-0.111038
H	 0.3444259231	 2.0621209871	 0.5227870589	 0.120852
H	-0.5580343021	 1.8082223717	-0.9814505986	 0.130804
H	-1.332451895	 1.4689857343	 0.5763326566	 0.115103
H	-0.6535864385	-0.6548939483	-0.5158282214	 0.071801
H	 2.2735458938	-1.8312414098	 0.0406338324	 0.100712
H	 2.8982950253	-0.2752319847	 0.6562997726	 0.102001
H	 1.8964757509	 0.1834825526	 2.8933909029	 0.114704
H	 0.2411745782	 0.8397187867	 2.8160718508	 0.106078
H	-1.4921923705	-2.3207458911	 3.2705173666	 0.12469
H	-1.5911192438	-0.6566121236	 2.5155526588	 0.111435
H	 0.4193823188	-2.9172129666	 1.6685285738	 0.097656
61.3312	125.9995	180.556	240.2665	268.2334	340.186	432.6336	440.3522	488.5199	520.9219	739.6138	773.2923	793.6173	843.5713	880.0924	898.4717	917.7073	966.2261	984.4426	1025.9858	1031.4707	1055.8596	1087.1324	1105.8498	1111.6058	1114.3205	1154.6876	1170.8259	1193.3064	1205.7716	1223.2944	1247.9108	1285.1927	1290.3016	1360.5485	1377.7029	1387.8406	1403.7262	1480.9451	1488.821	1492.9471	1505.9416	1521.6311	2984.6312	2998.6515	3033.2905	3039.525	3041.2453	3098.4165	3102.21	3106.1562	3113.3504	3149.6299	3195.0717
CC1OCC11CN2CC12	C[C@H]1OC[C@]21CN1C[C@@H]21	
InChI=1S/C7H11NO/c1-5-7(4-9-5)3-8-2-6(7)8/h5-6H,2-4H2,1H3	InChI=1S/C7H11NO/c1-5-7(4-9-5)3-8-2-6(7)8/h5-6H,2-4H2,1H3/t5-,6+,7+,8?/m1/s1
