20
gdb 10733	2.57925	1.82489	1.38283	0.4245	70.78	-0.2421	0.0704	0.3125	1003.2558	0.174441	-386.113725	-386.104285	-386.103341	-386.147431	34.882	
C	 0.6333264068	 0.1059066272	 1.1561827072	-0.251106
O	-0.060745466	 0.0188688907	-0.0752636634	-0.28836
C	-1.2285675013	-0.760657056	-0.0419913252	 0.430643
C	-1.4326726526	-1.6086339504	-1.2613004617	-0.321898
C	-1.0668743392	-2.253419303	 0.0620914611	-0.326767
C	-2.4213517195	-0.0622751641	 0.6198124201	 0.060024
C	-2.7401448303	 1.2694611817	-0.0579675038	-0.407505
O	-3.5618210267	-0.9131220768	 0.6759434903	-0.429129
H	 1.5735157779	 0.6236516686	 0.9508072934	 0.125718
H	 0.0794156111	 0.679098884	 1.9126068953	 0.110183
H	 0.8542661036	-0.8880783394	 1.5679362785	 0.110754
H	-2.4386695317	-1.7559994627	-1.6390771075	 0.094945
H	-0.6637390797	-1.5476412479	-2.0222892842	 0.121924
H	-0.0589678842	-2.6399912689	 0.1630895941	 0.112761
H	-1.8380171511	-2.8068672278	 0.5837107951	 0.128838
H	-2.1682431974	 0.1232279586	 1.6711662381	 0.085187
H	-3.0401043649	 1.1053373796	-1.1007293182	 0.109085
H	-3.5555806414	 1.778194847	 0.463419134	 0.117511
H	-1.8608428472	 1.9175844018	-0.069769899	 0.135127
H	-3.999956376	-0.8706483521	-0.180526964	 0.282067
70.8366	108.7415	183.027	227.9604	237.2893	252.1783	263.0591	288.0865	334.7187	415.9693	455.1949	478.0358	592.6647	672.7512	778.0529	862.4296	893.9621	917.2137	962.5356	984.7728	1050.1877	1064.5569	1076.8975	1081.4153	1099.7474	1137.3871	1182.2025	1193.2031	1213.7774	1259.4273	1304.0863	1334.9649	1366.2106	1397.5202	1422.0983	1441.6884	1473.8329	1488.9992	1494.2146	1495.1473	1497.7688	1510.5464	2995.6289	3026.4222	3033.2161	3050.132	3102.4866	3114.6621	3133.5167	3136.5951	3142.8178	3223.2274	3239.7439	3807.0322
COC1(CC1)C(C)O	COC1(CC1)[C@@H](C)O	
InChI=1S/C6H12O2/c1-5(7)6(8-2)3-4-6/h5,7H,3-4H2,1-2H3	InChI=1S/C6H12O2/c1-5(7)6(8-2)3-4-6/h5,7H,3-4H2,1-2H3/t5-/m1/s1
