13
gdb 24481	4.13806	1.67169	1.19068	3.9533	75.17	-0.2157	-0.0741	0.1415	930.1322	0.092917	-415.64179	-415.635914	-415.63497	-415.671995	23.328	
O	-0.0418331087	 1.3432282046	 0.0098055468	-0.18032
C	 1.1386235446	 2.0567311451	 0.0021314571	 0.08614
N	 2.3182501389	 1.5735726849	-0.0120179734	-0.310716
C	 2.4142600118	 0.2027492359	-0.020365588	 0.252653
C	 3.4663421971	-0.6669181336	-0.0353768984	-0.153113
N	 3.0154967262	-1.9878180794	-0.0381959008	-0.230928
C	 1.7006996231	-1.9816119582	-0.0251114013	-0.136092
C	 1.2049823192	-0.6336511598	-0.0130562931	 0.163274
C	 0.015163617	-0.0049617903	 0.0019470509	-0.036402
H	 0.9290447539	 3.1186510825	 0.0099259659	 0.151417
H	 4.5238539405	-0.4487852483	-0.0445749962	 0.115967
H	 1.1210031307	-2.8959489953	-0.024347278	 0.115533
H	-0.9717420442	-0.452951698	 0.0091942485	 0.162587
181.2946	249.5087	393.5075	421.578	545.737	561.8441	623.3543	642.4943	757.2986	757.9373	825.5996	863.2052	871.7167	884.5405	897.3787	934.5314	994.799	1079.6897	1145.7105	1215.5145	1274.478	1285.2474	1328.0294	1373.9386	1410.1365	1468.3939	1594.4329	1606.7586	1697.2892	3209.3913	3211.7585	3230.9173	3247.6827
O1C=NC2=CN=CC2=C1	o1cnc2cncc2c1	
InChI=1S/C6H4N2O/c1-5-3-9-4-8-6(5)2-7-1/h1-4H	InChI=1S/C6H4N2O/c1-5-3-9-4-8-6(5)2-7-1/h1-4H
