18
gdb 38918	3.1469	1.75112	1.25918	0.7919	78.78	-0.2322	0.006	0.2382	993.9442	0.150095	-401.907924	-401.901011	-401.900066	-401.939017	28.249	
C	-0.0228471996	 1.5192098345	-0.038232454	-0.271839
C	 1.5092556171	 1.576796534	 0.0687454657	-0.101876
N	 2.1649833824	 0.8341655697	-1.0041700283	-0.381847
C	 1.5913094644	 0.0632607662	 0.08730591	 0.341305
C	 2.3009399698	-0.941848964	 0.8765761346	-0.164225
C	 1.5726521242	-1.8405606952	 1.543136352	-0.097578
C	 0.0622534676	-1.8072890283	 1.5445678546	-0.133645
O	-0.4957316777	-0.5561295673	 1.1640746054	-0.263286
C	 0.064001763	-0.0344461986	-0.0220702885	 0.044982
H	-0.5363900697	 1.869144046	 0.8593052645	 0.125971
H	-0.4636615353	 1.9922763974	-0.9217337273	 0.097131
H	 2.0989240954	 2.3095434686	 0.6074516857	 0.099946
H	 1.6098310183	 0.788315184	-1.8585093624	 0.225321
H	 3.3860285054	-0.9415324628	 0.8876618127	 0.101727
H	 2.0397813606	-2.6364896854	 2.1160397451	 0.098524
H	-0.3295148435	-2.6159900946	 0.9010269409	 0.101939
H	-0.3166659724	-2.0003448388	 2.55439395	 0.120095
H	-0.3159386499	-0.5715594654	-0.9065148806	 0.057357
136.4219	193.9203	265.6866	392.201	420.0861	466.1633	476.7873	510.1936	644.7477	706.5756	749.765	819.9123	832.2675	891.8109	920.2761	931.815	943.8428	986.5808	996.675	1030.0203	1049.1301	1050.9593	1107.2481	1125.2263	1140.1921	1179.6573	1196.8806	1233.9835	1260.251	1270.0617	1288.6708	1302.9121	1353.255	1361.1335	1399.9998	1465.1173	1478.7224	1487.6834	1698.7088	2940.4961	2964.6938	3050.6738	3059.797	3124.3584	3166.2498	3180.5695	3190.294	3441.4567
C1C2NC22C=CCOC12	C1[C@@H]2N[C@]32C=CCO[C@@H]13	
InChI=1S/C7H9NO/c1-2-7-5(8-7)4-6(7)9-3-1/h1-2,5-6,8H,3-4H2	InChI=1S/C7H9NO/c1-2-7-5(8-7)4-6(7)9-3-1/h1-2,5-6,8H,3-4H2/t5-,6-,7-/m0/s1
