17
gdb 127857	3.82421	1.13195	0.87966	4.2484	86.29	-0.1903	-0.0279	0.1624	1291.0769	0.137569	-414.18937	-414.180745	-414.179801	-414.22255	32.236	
C	-0.0166869224	 1.4499096881	-0.0249135406	-0.320652
N	-0.0187661385	-0.0021168848	-0.0259682365	-0.32967
C	 0.550785535	-0.6267609008	 0.9481597715	 0.303912
C	 1.2254722787	-0.0121797833	 2.1066066605	-0.066893
N	 1.7936089126	-0.6511847697	 3.0774081064	-0.190791
N	 1.788800162	-1.9987926607	 3.0150078356	-0.285298
C	 1.1879575549	-2.7236727674	 2.0110981807	 0.434927
N	 1.2262464852	-4.1058343288	 2.2012295082	-0.59014
C	 0.5904202179	-2.0734175646	 0.9818674483	-0.280768
H	 0.9957296852	 1.8845853539	-0.0089931316	 0.103428
H	-0.5054610243	 1.8051182788	-0.9368163319	 0.113419
H	-0.5680087936	 1.8807729013	 0.8260977722	 0.105403
H	 1.2651524474	 1.0669209471	 2.1987933376	 0.122037
H	 2.0889091525	-2.4550904851	 3.8609199915	 0.268614
H	 2.1474737767	-4.4610224323	 2.4304571909	 0.252917
H	 0.8477118601	-4.6113591003	 1.4116857652	 0.261707
H	 0.1451586705	-2.6235647713	 0.1619951319	 0.097846
93.4128	122.684	171.6181	222.1382	273.2968	291.2581	354.1832	394.6408	467.7674	494.1418	546.1763	585.8604	620.429	728.7191	737.1537	751.9158	860.8392	930.1126	938.0222	1012.9519	1049.9794	1096.9241	1102.7012	1151.0097	1165.7344	1261.3527	1321.4053	1380.1985	1408.9245	1434.8315	1485.8686	1506.625	1509.5691	1630.3228	1640.697	1675.4741	1702.09	2959.522	3004.1295	3083.9175	3200.0437	3206.7385	3530.2311	3632.8031	3647.4413
CN=C1C=NNC(N)=C1	C[N]C1=C[C@@H](NN=C1)N	
InChI=1S/C5H8N4/c1-7-4-2-5(6)9-8-3-4/h2-3H,1H3,(H3,6,7,9)	InChI=1S/C5H9N4/c1-7-4-2-5(6)9-8-3-4/h2-3,5,9H,6H2,1H3/t5-/m1/s1
