19
gdb 80624	2.45635	1.85238	1.39483	2.1442	74.7	-0.2502	0.069	0.3192	986.1011	0.160635	-422.988238	-422.980783	-422.979839	-423.019796	30.367	
O	-0.040215988	 1.4563497518	 0.0949682254	-0.441958
C	-0.0090914083	 0.0387427261	 0.0773947278	 0.045163
C	 0.5061569154	-0.6198874726	 1.3771406196	-0.069714
C	-0.6814764853	-0.365679457	 2.3514721806	-0.23195
C	-1.4196151444	-1.3456846524	 1.3886165623	-0.106073
C	-0.0461817744	-2.0686647945	 1.233644169	-0.240747
C	-1.4433306545	-0.5231815983	 0.1121377137	 0.494962
C	-2.6015324917	 0.1215432636	-0.4969888055	-0.277182
O	-2.0151763833	-1.0580779578	-1.0765206408	-0.307282
H	 0.8676875503	 1.7741583642	 0.0587457796	 0.283898
H	 0.5209037457	-0.3307847945	-0.8113478383	 0.0788
H	 1.542847219	-0.4200608917	 1.6532225399	 0.056069
H	-0.5155101525	-0.800274725	 3.3394414607	 0.097695
H	-1.0556565508	 0.6569333019	 2.4349077133	 0.108825
H	-2.3359974224	-1.868345918	 1.6602195965	 0.06702
H	 0.1430115744	-2.6109412105	 0.3025707322	 0.105665
H	 0.2003409437	-2.6943541517	 2.0940605644	 0.10045
H	-3.5897929144	-0.0181936414	-0.0600085102	 0.109632
H	-2.4637165486	 1.0388150079	-1.0649144102	 0.126728
119.2882	234.7247	250.8794	279.9629	318.6644	380.9675	455.6818	486.8754	569.4785	589.7669	750.2559	815.9255	849.9844	853.9368	880.023	882.386	920.1852	944.9554	983.5012	1021.0819	1027.4834	1050.8354	1074.0523	1081.8174	1104.7556	1122.5515	1131.8569	1159.1029	1208.0495	1216.4143	1225.384	1248.1457	1252.5001	1276.8212	1304.99	1332.5846	1413.8522	1456.8073	1485.5255	1517.537	1538.3234	3010.5379	3056.9832	3068.0352	3086.5236	3100.2849	3119.6356	3125.7248	3130.8811	3179.4602	3814.7112
OC1C2CC(C2)C11CO1	O[C@H]1[C@H]2C[C@H](C2)[C@]21CO2	
InChI=1S/C7H10O2/c8-6-4-1-5(2-4)7(6)3-9-7/h4-6,8H,1-3H2	InChI=1S/C7H10O2/c8-6-4-1-5(2-4)7(6)3-9-7/h4-6,8H,1-3H2/t4-,5+,6-,7-/m0/s1
