21
gdb 81455	2.86226	1.55537	1.4224	1.702	80.54	-0.2595	0.0888	0.3483	1036.7585	0.185081	-387.074849	-387.067469	-387.066525	-387.106101	30.838	
C	-0.0901018962	 1.5198684983	 0.0186541485	-0.430885
C	 0.0034121386	-0.0019328571	-0.0021224756	 0.045419
C	 1.1559829061	-0.588506153	-0.8778248265	-0.018454
C	 2.0701069547	-0.5009816334	 0.3814319698	-0.237476
C	 0.7551866387	-0.6333045782	 1.2095224736	-0.06052
C	 0.4410405215	-2.1235461774	 1.2970023942	 0.043609
O	-0.748080547	-2.5975805011	 0.6551547024	-0.25526
C	 0.5167214878	-2.8623722647	 0.0272042738	 0.051482
C	 0.8705978663	-2.0626333019	-1.2217926187	-0.254135
H	 0.8751574213	 1.9998843669	 0.2101348962	 0.111938
H	-0.4592752225	 1.8952412696	-0.9422783496	 0.113728
H	-0.7863588883	 1.8565945038	 0.7946659751	 0.115262
H	-0.9828983353	-0.4303581477	-0.1898879057	 0.087142
H	 1.4545773256	-0.0273993404	-1.7680306802	 0.056067
H	 2.8316922554	-1.2756375424	 0.5161322068	 0.08794
H	 2.5381013106	 0.4789090275	 0.4888089894	 0.101261
H	 0.683511274	-0.1354030541	 2.179903334	 0.056602
H	 0.6766413224	-2.6257801665	 2.2345840901	 0.087814
H	 0.7871865737	-3.9174736967	 0.0267721173	 0.090192
H	 0.0622168085	-2.1431392835	-1.9592417314	 0.109472
H	 1.7620998443	-2.514205718	-1.6751192735	 0.098804
204.5883	215.9463	238.1373	280.1869	334.1002	403.6862	422.5707	473.323	568.5856	661.2646	769.6607	798.1368	814.4878	850.5586	869.8455	873.5235	896.8889	941.5042	961.7305	989.5448	1037.8494	1053.6459	1058.5622	1084.3751	1088.9526	1116.5268	1135.8727	1151.6976	1153.1476	1218.7241	1244.4649	1271.139	1282.0462	1285.7969	1304.2938	1314.3055	1355.2376	1365.0247	1394.0685	1412.8492	1452.1494	1472.7762	1493.3964	1498.8286	1505.5413	3021.5216	3028.2838	3050.4153	3060.4528	3062.4624	3070.4021	3082.4385	3091.0713	3104.55	3110.2099	3117.4089	3122.3997
CC1C2CC1C1OC1C2	C[C@H]1[C@H]2C[C@@H]1[C@H]1O[C@H]1C2	
InChI=1S/C8H12O/c1-4-5-2-6(4)8-7(3-5)9-8/h4-8H,2-3H2,1H3	InChI=1S/C8H12O/c1-4-5-2-6(4)8-7(3-5)9-8/h4-8H,2-3H2,1H3/t4-,5-,6-,7-,8+/m0/s1
