20
gdb 15862	2.40212	2.0618	1.30013	0.6764	80.77	-0.2527	0.0504	0.3031	1021.5443	0.175629	-311.836459	-311.827589	-311.826645	-311.869372	33.722	
C	-0.0939950967	 1.5897991252	-0.1105577372	-0.413748
C	 0.0619470053	 0.084954835	 0.0173283188	 0.045372
C	 1.0449788752	-0.664398161	-0.9183384095	-0.240006
C	 1.4131539925	-1.6070808675	 0.2560314651	 0.045379
C	 2.844509015	-2.0899888584	 0.4084529926	-0.413762
C	 0.8305981768	-0.5295099068	 1.2512067169	-0.2251
C	 1.8201984447	 0.3452234994	 1.8500187353	 0.36918
C	 2.6426858679	 1.0720871104	 2.3443454597	-0.502274
H	 0.8725609648	 2.0941256152	-0.021850249	 0.126749
H	-0.5274211301	 1.8492334407	-1.0829210024	 0.110641
H	-0.7524977192	 1.9921642228	 0.6670483569	 0.114581
H	-0.920835362	-0.397051324	-0.0259912188	 0.074629
H	 0.6423584488	-1.1144869912	-1.8294819706	 0.092386
H	 1.8929493853	-0.0253337252	-1.1886144197	 0.102861
H	 0.7279777568	-2.4617830448	 0.2653568933	 0.074624
H	 3.5411650289	-1.2477563885	 0.4503409566	 0.126756
H	 2.9745310141	-2.6760333254	 1.3248786821	 0.114569
H	 3.1268968309	-2.7259277637	-0.438010271	 0.11065
H	 0.1857683987	-0.9334260839	 2.0381493094	 0.092411
H	 3.3637075722	 1.7109853018	 2.7908044615	 0.194103
84.1369	140.5366	172.8853	217.2199	226.8007	283.02	342.8089	380.6829	398.1246	489.5715	595.016	616.1824	621.5345	631.941	760.3925	806.4957	890.0673	893.2522	935.4136	968.42	973.9747	1031.1749	1109.0387	1123.8436	1136.0519	1164.6071	1182.305	1236.6518	1257.0486	1275.9635	1276.0053	1350.2737	1354.0196	1386.86	1410.2461	1415.3552	1490.5404	1492.4151	1494.0854	1497.278	1499.809	2223.3192	3029.7468	3029.7989	3037.3254	3041.6439	3045.9821	3056.1098	3092.9098	3092.9527	3100.5011	3112.3181	3113.7881	3503.7638
CC1CC(C)C1C#C	C[C@H]1C[C@@H](C)[C@H]1C#C	
InChI=1S/C8H12/c1-4-8-6(2)5-7(8)3/h1,6-8H,5H2,2-3H3	InChI=1S/C8H12/c1-4-8-6(2)5-7(8)3/h1,6-8H,5H2,2-3H3/t6-,7+,8-
