18
gdb 117467	6.26577	0.65413	0.60933	4.8481	72.53	-0.2597	-0.0008	0.2589	1815.7974	0.145089	-476.249427	-476.239244	-476.2383	-476.28657	34.209	
C	-0.0524107435	 1.2339994648	 0.0394096888	-0.392395
C	-0.0248113562	-0.276393406	-0.0820448345	-0.045973
O	 0.613644444	-0.6035846428	-1.33849713	-0.241534
C	 0.7297318944	-1.9101443454	-1.6155378968	 0.434778
O	 0.3362051759	-2.8060174445	-0.916130508	-0.342396
C	 1.4750229136	-2.0957565478	-2.9355284631	-0.220514
O	 1.2995911431	-3.381559581	-3.4793236932	-0.165376
C	 1.9370708337	-4.4016637008	-2.8551933799	 0.152223
N	 1.7914833436	-5.5763308118	-3.2853483669	-0.442198
H	 0.9602071398	 1.646656881	 0.0275145718	 0.131762
H	-0.617633645	 1.6821767323	-0.7823694258	 0.134081
H	-0.5296027491	 1.5191325623	 0.9815301836	 0.128712
H	 0.5392032697	-0.7462306707	 0.7296144854	 0.126202
H	-1.0293723707	-0.7095661928	-0.0788266853	 0.131393
H	 1.0983195119	-1.3841506765	-3.6723864597	 0.154693
H	 2.536071868	-1.8614865734	-2.7645726674	 0.135461
H	 2.5559660614	-4.08091301	-2.0087268327	 0.090416
H	 2.3430165155	-6.2218958069	-2.7242923164	 0.230664
27.5825	58.7144	71.5413	130.2375	146.2192	163.6236	255.9174	282.4371	325.8856	359.7594	418.4352	573.8081	637.6607	751.4424	806.9506	814.8123	883.4505	934.5209	975.1702	1032.9567	1040.4852	1050.4941	1135.2841	1173.6286	1181.8493	1223.5298	1256.627	1292.8737	1323.0602	1385.8716	1405.5682	1422.2377	1428.6024	1474.1926	1485.8852	1495.9101	1518.8066	1751.4748	1834.253	3008.977	3048.2345	3048.2763	3056.481	3095.8393	3122.8267	3123.2916	3129.2282	3521.6122
CCOC(=O)COC=N	CCOC(=O)CO[CH][NH]	
InChI=1S/C5H9NO3/c1-2-9-5(7)3-8-4-6/h4,6H,2-3H2,1H3	InChI=1S/C5H9NO3/c1-2-9-5(7)3-8-4-6/h4,6H,2-3H2,1H3
