20
gdb 94661	3.34678	0.87714	0.82731	3.6374	76.38	-0.2454	0.0344	0.2797	1458.3195	0.170731	-440.294589	-440.284931	-440.283987	-440.330349	34.675	
O	 0.0349853462	 1.5057666453	 0.5090243263	-0.437525
C	-0.0599950294	 0.193503731	-0.0246100995	 0.098998
C	 0.1653328183	-0.9156341761	 1.0405444184	-0.243123
C	-1.367770089	-0.9421084742	 1.2898009738	-0.232982
C	-1.5543930691	-0.2256133774	-0.0783108091	 0.038042
C	-2.604520791	 0.8705714764	-0.2243891931	-0.198397
N	-3.9640936531	 0.3737974493	-0.0357016953	-0.264564
C	-4.6281621095	-0.3120641865	-0.9986775601	 0.151099
O	-4.1825628503	-0.5701382309	-2.0986714022	-0.329653
H	 0.9591773151	 1.6759762743	 0.7158045614	 0.285001
H	 0.5099060803	 0.1123937744	-0.9595443825	 0.064291
H	 0.5283112046	-1.8435321117	 0.5895035425	 0.104204
H	 0.8142700859	-0.6514245652	 1.8800745431	 0.091343
H	-1.841392959	-1.9174039549	 1.4177724236	 0.099394
H	-1.6514678024	-0.2984908454	 2.1277359201	 0.098057
H	-1.6992057892	-0.9606154345	-0.8744124284	 0.103025
H	-2.4252676818	 1.6635972935	 0.5039377726	 0.120757
H	-2.5426665267	 1.3108192692	-1.2243610874	 0.13294
H	-4.41243747	 0.4984762284	 0.8568831512	 0.248683
H	-5.6450872898	-0.6103804752	-0.6716536754	 0.07041
35.8294	66.6088	108.8581	139.033	204.5107	250.0667	286.8488	324.4185	388.9861	432.1004	503.1442	513.9837	705.5121	760.3578	762.004	862.7782	892.3766	919.3179	944.4711	952.2453	989.753	1031.7241	1044.0157	1107.2457	1125.352	1154.1828	1195.2052	1212.2647	1231.3687	1257.5248	1264.6138	1283.0414	1292.7364	1333.0787	1362.4331	1398.1202	1413.3224	1428.7371	1467.5846	1473.7168	1491.5036	1525.5017	1800.215	2926.1678	3007.9822	3052.9101	3059.0386	3063.4369	3080.937	3103.5463	3119.6243	3125.7741	3646.6309	3819.4017
OC1CCC1CNC=O	O[C@H]1CC[C@H]1CNC=O	
InChI=1S/C6H11NO2/c8-4-7-3-5-1-2-6(5)9/h4-6,9H,1-3H2,(H,7,8)	InChI=1S/C6H11NO2/c8-4-7-3-5-1-2-6(5)9/h4-6,9H,1-3H2,(H,7,8)/t5-,6-/m0/s1
