15
gdb 24368	3.74987	1.66274	1.16024	3.9769	75.12	-0.1811	-0.006	0.1751	982.79	0.116879	-416.850886	-416.844249	-416.843305	-416.88208	25.797	
C	 0.0006872656	 1.5280522571	 0.1811190906	-0.286922
N	 1.3347463259	 1.9610850348	-0.264207538	-0.295849
C	 2.3361240057	 1.1371334773	-0.682359448	 0.089307
N	 2.2942118038	-0.1519156645	-0.7613910576	-0.357443
C	 1.0763508941	-0.6403873525	-0.3615813159	 0.335087
C	-0.0259832074	 0.0327484191	 0.0816264082	 0.196298
C	-1.0144755616	-0.9596314128	 0.3626762341	-0.3244
C	-0.4308581119	-2.1543359988	 0.0668839457	-0.01651
O	 0.8469059479	-1.976699686	-0.3769844255	-0.178557
H	-0.1811161698	 1.8788657087	 1.2102293079	 0.113351
H	-0.7733191905	 1.999649855	-0.4463386937	 0.113348
H	 1.5248934173	 2.9491208277	-0.2601945101	 0.252221
H	 3.2481026428	 1.6561504813	-0.9705727432	 0.119473
H	-2.0185260317	-0.8158652791	 0.7321413884	 0.107009
H	-0.7697801001	-3.1753157774	 0.113602057	 0.133587
88.5483	225.2025	240.5226	421.9688	425.3379	507.6723	571.2942	615.62	626.3307	703.8399	752.0312	755.7394	812.4252	901.653	926.5087	934.3563	941.992	1062.0007	1063.9708	1141.4655	1173.242	1219.2121	1225.5362	1272.5832	1296.1963	1351.1986	1411.5184	1474.459	1522.0431	1532.5853	1551.0624	1643.3719	1665.5015	2950.7636	2954.8557	3155.4773	3246.5596	3289.1549	3650.0799
C1NC=NC2=C1C=CO2	C1NC=Nc2c1cco2	
InChI=1S/C6H6N2O/c1-2-9-6-5(1)3-7-4-8-6/h1-2,4H,3H2,(H,7,8)	InChI=1S/C6H6N2O/c1-2-9-6-5(1)3-7-4-8-6/h1-2,4H,3H2,(H,7,8)
