17
gdb 44738	2.99369	1.68765	1.4751	4.4107	71.58	-0.2581	-0.0109	0.2472	933.1699	0.139071	-421.875497	-421.868876	-421.867932	-421.906491	27.072	
O	 0.0235129503	 0.0426221028	 0.6134154593	-0.325791
C	-0.0123333964	 1.1262263388	 0.0986140045	 0.408413
C	-1.3412254058	 1.8584518702	-0.1465693237	-0.339189
C	-1.2098827439	 3.1633460954	-0.9633508483	-0.0726
C	 0.0253516013	 3.9008316164	-0.4072840468	-0.241581
C	 1.114155243	 2.9929096068	-0.9830231675	 0.078252
O	 1.1542276467	 1.741435881	-0.2311172663	-0.242602
C	 0.5942708702	 2.7199578404	-2.3836574822	-0.08158
C	-0.7356992426	 2.8197407079	-2.3676473029	-0.069189
H	-2.0129202348	 1.136299407	-0.6193795833	 0.137189
H	-1.7606429026	 2.0649175153	 0.8452717358	 0.137748
H	-2.1385281654	 3.7377005625	-0.9308635116	 0.076623
H	 0.1105737316	 4.9070235305	-0.8252639991	 0.112273
H	 0.0598134978	 3.9590824685	 0.6841803317	 0.109223
H	 2.1324360296	 3.3751516334	-0.9185642439	 0.092673
H	 1.2212247772	 2.3996728674	-3.2055369727	 0.111352
H	-1.4087017262	 2.6000485858	-3.1882511629	 0.108786
94.3603	247.2086	360.4712	395.9781	437.6787	459.4013	570.0869	593.9148	623.71	730.3016	771.4466	806.5529	860.7935	867.8002	890.333	935.5632	958.4732	973.9114	999.1519	1015.3125	1037.6472	1062.7072	1131.0412	1145.5886	1184.683	1200.6953	1246.5954	1297.8968	1305.2427	1330.1338	1346.3415	1371.7324	1385.7245	1458.2251	1487.9795	1661.1114	1844.5557	3046.9528	3062.4007	3084.0715	3096.846	3116.0535	3122.5485	3197.8106	3228.1488
O=C1CC2CC(O1)C=C2	O=C1C[C@H]2C[C@@H](O1)C=C2	
InChI=1S/C7H8O2/c8-7-4-5-1-2-6(3-5)9-7/h1-2,5-6H,3-4H2	InChI=1S/C7H8O2/c8-7-4-5-1-2-6(3-5)9-7/h1-2,5-6H,3-4H2/t5-,6+/m1/s1
