19
gdb 87289	2.61175	1.33261	1.12488	0.6066	76.79	-0.2396	-0.0448	0.1947	1160.0341	0.158269	-419.153472	-419.14441	-419.143466	-419.18724	33.357	
C	-0.1493254206	 1.5002121872	 0.2181860139	-0.33531
N	-0.0425976968	 0.0471903239	 0.3372493323	-0.124922
C	 1.1450648803	-0.6070948216	-0.1605731649	-0.270027
C	 0.8675159604	-0.5772421921	 1.319696012	 0.211563
C	 1.7776920249	 0.271120081	 2.1551909749	 0.09875
O	 2.4260972798	 1.2086155636	 1.7529325523	-0.264053
C	 0.3060934601	-1.7834655698	 2.0261181461	-0.093868
C	-0.9898360776	-1.6837888767	 2.7462379401	-0.238278
N	-0.8830220387	-2.4509020109	 1.4942667286	-0.321485
H	 0.8056810515	 2.0260143889	 0.3222465697	 0.149821
H	-0.5752832782	 1.7186808023	-0.7655622581	 0.13051
H	-0.8429666713	 1.8705018961	 0.9788849161	 0.125983
H	 0.9908229114	-1.5414200664	-0.6945020507	 0.131677
H	 1.9652394244	 0.0180911082	-0.507785007	 0.138279
H	 1.8134141117	-0.0282781029	 3.2256353132	 0.087248
H	 1.064440415	-2.4645469813	 2.4099582284	 0.099088
H	-1.1654072564	-2.2750156162	 3.6402143804	 0.120723
H	-1.5070076162	-0.7279874349	 2.7161490832	 0.113533
H	-1.2432921636	-1.8653930485	 0.7394686793	 0.240767
83.4369	136.4396	158.1472	191.8157	198.9448	238.4421	267.408	358.95	426.5711	445.1505	486.2222	615.387	744.8651	757.8385	839.4223	875.7084	922.7946	925.0338	981.9348	1007.0571	1051.2323	1060.0503	1101.1047	1119.6653	1141.0167	1156.6481	1160.2998	1205.9926	1221.6496	1225.5563	1294.1259	1318.8531	1356.38	1414.0172	1436.9117	1446.6075	1485.8515	1493.1859	1504.7456	1510.8038	1800.6705	2892.4125	3030.6941	3097.6419	3105.0924	3108.0232	3111.2182	3115.0925	3193.5644	3196.0935	3455.1735
CN1CC1(C=O)C1CN1	CN1C[C@]1(C=O)[C@H]1CN1	
InChI=1S/C6H10N2O/c1-8-3-6(8,4-9)5-2-7-5/h4-5,7H,2-3H2,1H3	InChI=1S/C6H10N2O/c1-8-3-6(8,4-9)5-2-7-5/h4-5,7H,2-3H2,1H3/t5-,6+,8?/m1/s1
