23
gdb 59789	2.98638	1.048	0.92318	0.4773	81.54	-0.2412	0.0677	0.3089	1383.1439	0.206681	-425.437557	-425.428143	-425.427199	-425.471614	36.248	
C	 0.0835817488	 1.5522742862	-0.0352852817	-0.422439
C	 0.0030880656	 0.028259646	 0.0715596662	 0.122429
O	 0.7713576373	-0.4513260979	 1.1775719569	-0.435077
C	-1.4378207073	-0.5266219921	 0.0819928257	 0.01249
C	-1.442125026	-2.0624556482	-0.007964932	-0.210013
C	-2.8682196009	-2.6185455232	 0.0941753116	-0.215313
C	-3.5688892913	-2.0431080269	 1.3248843754	-0.065273
O	-3.56111498	-0.6249942534	 1.3114813202	-0.247279
C	-2.2489753588	-0.0913577915	 1.3136792057	-0.090765
H	 1.1280620735	 1.867038655	-0.1098987585	 0.125189
H	-0.4522980034	 1.9163366795	-0.9176331033	 0.120225
H	-0.3525896478	 2.0430748992	 0.8429687238	 0.112774
H	 0.503720255	-0.402552669	-0.8053423153	 0.085356
H	 0.5287057817	 0.0637992633	 1.9538063778	 0.280103
H	-1.9503477304	-0.1232152959	-0.8029455229	 0.072318
H	-0.9680228725	-2.3848393477	-0.9426743563	 0.089338
H	-0.8251539975	-2.4575196898	 0.8083616085	 0.111282
H	-3.4432227619	-2.3424792883	-0.7985269687	 0.099963
H	-2.8584968298	-3.7132980262	 0.1501134207	 0.092429
H	-4.6211261469	-2.3399313908	 1.3644035135	 0.102762
H	-3.0779472499	-2.4131421157	 2.242611305	 0.08213
H	-1.7212062233	-0.4060728353	 2.2320945675	 0.074385
H	-2.3730930742	 0.9948190127	 1.3502479103	 0.102985
68.5013	111.196	202.01	232.9752	245.2341	267.3608	286.5829	322.424	374.9789	440.7763	456.2438	487.444	539.7744	626.2834	800.6362	856.7074	863.9775	888.5231	923.0148	950.8272	962.0873	1006.3239	1025.602	1044.1404	1071.086	1100.9243	1124.9336	1167.208	1181.6915	1206.2752	1239.1842	1277.6546	1300.2447	1315.8959	1324.4274	1342.0567	1357.0746	1375.0453	1388.8502	1403.1431	1408.761	1420.4637	1427.1255	1478.8991	1490.0249	1491.9714	1495.2008	1500.8893	1508.666	2941.8326	2951.2459	3007.5527	3022.0187	3024.8351	3028.7879	3031.5586	3063.0929	3075.8917	3080.9258	3084.1111	3098.2665	3117.611	3813.4292
CC(O)C1CCCOC1	C[C@@H](O)[C@H]1CCCOC1	
InChI=1S/C7H14O2/c1-6(8)7-3-2-4-9-5-7/h6-8H,2-5H2,1H3	InChI=1S/C7H14O2/c1-6(8)7-3-2-4-9-5-7/h6-8H,2-5H2,1H3/t6-,7+/m1/s1
