14
gdb 77206	3.74011	1.07341	0.90436	3.0763	67.6	-0.2811	-0.0403	0.2408	1210.3839	0.101129	-432.853405	-432.844959	-432.844015	-432.887176	29.877	
N	 0.3562437104	 1.2890008648	-0.1044753633	-0.503534
C	 0.0159998328	-0.0929784308	-0.1056153728	-0.05122
C	-0.1327190041	-0.7769263953	 1.2855757122	 0.007046
O	-1.3844340423	-1.3899720447	 0.9010480252	-0.276021
C	-1.4590447769	-0.6329654492	-0.3213103404	-0.053587
C	-2.4770283767	 0.4162384668	-0.2785721255	 0.288514
N	-3.2249181788	 1.2970837018	-0.2418672964	-0.312613
C	 0.8846526043	-1.7509487566	 1.6680800584	 0.279403
N	 1.7071076296	-2.5117967693	 1.9500407431	-0.306018
H	 0.5814404865	 1.630858288	-1.0306163908	 0.253215
H	-0.3788603277	 1.8732483164	 0.2817411865	 0.256264
H	 0.706399977	-0.6422545373	-0.7462987515	 0.13537
H	-0.2710497301	-0.0514327202	 2.0965557869	 0.141859
H	-1.6211942538	-1.2791546245	-1.1891210816	 0.14132
49.8369	118.4675	151.2216	190.503	251.826	293.2719	357.4716	413.7384	480.9958	506.4844	617.3718	626.0626	739.4489	791.2017	820.1723	942.1882	953.9109	1002.3614	1027.9574	1069.9756	1165.4017	1180.4702	1200.2721	1265.9921	1277.5845	1347.1042	1371.05	1438.1528	1671.9401	2350.868	2361.2379	3042.1608	3072.4579	3118.7519	3515.735	3606.6568
NC1C(OC1C#N)C#N	N[C@H]1[C@@H](O[C@H]1C#N)C#N	
InChI=1S/C5H5N3O/c6-1-3-5(8)4(2-7)9-3/h3-5H,8H2	InChI=1S/C5H5N3O/c6-1-3-5(8)4(2-7)9-3/h3-5H,8H2/t3-,4-/m0/s1
