19
gdb 102884	3.21909	0.74727	0.63338	4.5256	80.77	-0.3234	0.0126	0.336	1732.819	0.158415	-382.113491	-382.10331	-382.102365	-382.149602	35.298	
C	 0.0680182875	 1.5685403567	 0.0219461876	-0.400429
C	 0.0045359424	 0.0404948761	-0.0019301771	-0.187321
C	-1.4353532815	-0.5240520368	 0.0098046559	-0.141343
C	-1.4460094118	-2.0624090463	-0.1240038826	-0.195818
C	-2.8677607554	-2.6558168461	-0.1683477988	-0.358869
C	-2.8483369192	-4.105642013	-0.3451911439	 0.260759
N	-2.8104813792	-5.2513152319	-0.4896005615	-0.298159
C	-2.1512361092	-0.107625691	 1.2217891776	 0.288739
N	-2.7140338633	 0.2019705781	 2.1831278312	-0.332623
H	 1.106727259	 1.9095364011	 0.0023507042	 0.127162
H	-0.4416652142	 2.0012385201	-0.8457152936	 0.12129
H	-0.4014909009	 1.9725316873	 0.9238256922	 0.14715
H	 0.4956628761	-0.3419691574	-0.9039524499	 0.11195
H	 0.5500626021	-0.3737477868	 0.8535129575	 0.122549
H	-1.9801616827	-0.0954149067	-0.8431673103	 0.12794
H	-0.9112443448	-2.3270358237	-1.0411511042	 0.131484
H	-0.8929332345	-2.5054926254	 0.7099745844	 0.140885
H	-3.4074179602	-2.4192958885	 0.7554136111	 0.179962
H	-3.4410211204	-2.2134566257	-0.9919120799	 0.154691
59.9107	85.6498	97.1489	111.8519	162.3544	209.0307	226.1251	274.0688	341.7454	384.1814	399.1954	521.2663	562.4829	618.2249	751.0478	773.9481	849.2754	919.4224	957.912	1008.0049	1013.0766	1050.1188	1085.4562	1124.8373	1136.9117	1198.5498	1265.7959	1290.9145	1311.7028	1327.151	1366.9352	1375.9518	1390.2822	1420.6517	1470.0348	1484.5992	1494.5573	1499.7131	1507.0586	2352.2962	2365.4369	3016.0593	3037.6678	3040.2932	3041.5905	3059.1772	3076.3223	3081.2953	3108.4633	3110.5276	3119.8589
CCC(CCC#N)C#N	CC[C@@H](CCC#N)C#N	
InChI=1S/C7H10N2/c1-2-7(6-9)4-3-5-8/h7H,2-4H2,1H3	InChI=1S/C7H10N2/c1-2-7(6-9)4-3-5-8/h7H,2-4H2,1H3/t7-/m0/s1
