22
gdb 113943	4.3163	0.70659	0.67568	2.1208	83.23	-0.2296	0.0851	0.3146	1753.6791	0.192902	-404.292102	-404.282286	-404.281342	-404.327942	35.548	
C	-0.3728931627	-2.8642131132	 0.0326177971	-0.382237
C	-0.5128488843	-1.4211898941	-0.4673551851	-0.19779
C	 0.1872298375	-1.2214546297	-1.797576261	 0.032707
C	-0.5360515912	-1.395975921	-3.0912535925	-0.255015
N	-0.0557823536	-0.0801313481	-2.6794640773	-0.099379
C	-1.0400628162	 0.9314725226	-2.3183088803	-0.179763
C	-1.3055864065	 1.8187992331	-3.5139722983	 0.102155
C	-2.4763378507	 1.6267851112	-4.3778847011	-0.169319
O	-2.4384992154	 2.6814553844	-3.4138179405	-0.240098
H	-0.8320112631	-3.5695175877	-0.667733138	 0.120235
H	 0.6806899475	-3.1438442674	 0.1410683589	 0.118808
H	-0.8534918719	-2.9931135166	 1.0068880577	 0.1154
H	-1.5737451199	-1.1644373285	-0.55062237	 0.10117
H	-0.0833793437	-0.7348964302	 0.2744118152	 0.103788
H	 1.2398999854	-1.5065900598	-1.7741103832	 0.087237
H	-0.0503347496	-1.8367378132	-3.9580429498	 0.112901
H	-1.6082823035	-1.5849425443	-3.0293939517	 0.102355
H	-2.0020359299	 0.5283737203	-1.9633276289	 0.091483
H	-0.6240018853	 1.5427158999	-1.5076397868	 0.111756
H	-0.4172712667	 2.2784389038	-3.9475313381	 0.099589
H	-2.4422105491	 1.9431742745	-5.4193254894	 0.11551
H	-3.1782648771	 0.8221781041	-4.1601288869	 0.108507
49.8046	72.3704	96.2181	102.986	212.6262	232.2013	269.5787	317.0059	392.9965	414.481	456.5151	553.9419	749.575	795.9152	833.3845	847.2653	879.9096	901.9035	919.8975	961.5589	1003.4145	1013.1737	1050.9631	1069.3334	1110.0928	1115.7674	1134.9308	1151.0392	1155.5308	1176.2914	1181.5498	1195.4257	1257.6133	1282.0959	1292.0241	1336.945	1346.7358	1365.4133	1409.8299	1428.2377	1446.1821	1484.5509	1489.7431	1499.2007	1507.8716	1512.6703	1530.5447	2971.1393	3023.2016	3034.2625	3047.6539	3070.1237	3079.4802	3081.5077	3092.2195	3106.0207	3109.2794	3115.145	3167.198	3169.7496
CCC1CN1CC1CO1	CC[C@H]1CN1C[C@H]1CO1	
InChI=1S/C7H13NO/c1-2-6-3-8(6)4-7-5-9-7/h6-7H,2-5H2,1H3	InChI=1S/C7H13NO/c1-2-6-3-8(6)4-7-5-9-7/h6-7H,2-5H2,1H3/t6-,7-,8?/m0/s1
