18
gdb 33470	2.81775	1.29193	1.00713	3.9231	76.38	-0.2958	0.0054	0.3013	1199.0723	0.147587	-401.926524	-401.91811	-401.917166	-401.960039	31.224	
N	-0.4857636203	-1.1203444097	 0.7771095265	-0.329928
C	-0.2902538427	-0.023020861	 0.471496562	 0.261608
C	-0.0991562025	 1.3647297907	 0.0742447406	 0.230418
C	 0.7694450689	 2.2073263756	 0.9214227926	-0.211421
O	 1.2413475793	 1.6836141427	-0.3181299129	-0.247808
C	-1.2148712386	 1.9371608054	-0.7704517645	-0.049655
C	-1.0555745001	 3.3703282994	-1.347194632	-0.249244
C	-1.6905406685	 2.8602495187	-2.6696650447	-0.219328
C	-1.3692215954	 1.4076094313	-2.2268650055	-0.227805
H	 0.5878608066	 3.2802104652	 0.9383045189	 0.131878
H	 1.2259570171	 1.7842157397	 1.8134026943	 0.140578
H	-2.1550889393	 1.8331480679	-0.2193146325	 0.094107
H	-1.5540736531	 4.1852390844	-0.8178704128	 0.101395
H	 0.0006440757	 3.6180286645	-1.4814651288	 0.124404
H	-2.7675668972	 3.0460626301	-2.7001622405	 0.108396
H	-1.2491515204	 3.2106602015	-3.6043797106	 0.10717
H	-0.4075334706	 1.0690247746	-2.6219114713	 0.122085
H	-2.118776739	 0.634718279	-2.4050659488	 0.113151
66.803	118.5112	131.5663	212.4856	238.0332	269.9767	407.1403	449.2462	535.5819	585.128	616.276	719.4881	784.3207	815.851	858.9282	899.5406	934.8193	941.7058	957.6931	967.7799	1033.9132	1054.0949	1125.5742	1140.1895	1174.1101	1197.1115	1213.466	1248.8886	1257.6873	1262.8239	1283.7938	1286.9792	1362.7214	1375.095	1475.3298	1486.3161	1506.7218	1518.5311	2357.2296	3058.3953	3062.4885	3065.6357	3069.2816	3096.7448	3111.3806	3122.0673	3132.9917	3192.5928
N#CC1(CO1)C1CCC1	N#C[C@]1(CO1)C1CCC1	
InChI=1S/C7H9NO/c8-4-7(5-9-7)6-2-1-3-6/h6H,1-3,5H2	InChI=1S/C7H9NO/c8-4-7(5-9-7)6-2-1-3-6/h6H,1-3,5H2/t7-/m0/s1
