20
gdb 60583	3.65217	0.94245	0.85581	1.9671	75.43	-0.2303	0.0545	0.2848	1394.0217	0.170681	-440.227387	-440.218221	-440.217277	-440.261847	34.731	
O	 0.0775453157	 1.7621936908	 0.399702848	-0.439758
C	 0.0898878419	 0.3817982124	-0.0110036229	 0.05637
C	 0.9961387819	 0.1847953329	-1.2053699665	 0.000994
C	 0.5445541765	-0.630727664	-2.3609942868	-0.240518
N	 0.674292037	 0.8286971954	-2.4860829361	-0.32087
C	 0.4458493061	-0.5594425661	 1.1306408801	-0.0671
C	 1.426368711	-0.143893614	 2.2207920952	-0.347283
C	-0.0416320194	-0.3016004444	 2.5339832532	 0.133917
O	-0.8529258038	 0.7850817316	 2.8471700356	-0.435236
H	 0.9872977126	 2.0806057512	 0.4073206256	 0.293437
H	-0.9472362195	 0.1921433052	-0.3188604425	 0.092059
H	 2.0594025615	 0.1949301109	-0.9650981887	 0.09444
H	 1.2645299136	-1.2078052815	-2.9337575544	 0.123774
H	-0.4504295634	-1.0670383948	-2.3148812031	 0.115538
H	-0.240459579	 1.2709755968	-2.4228323104	 0.237977
H	 0.4887707932	-1.5982335921	 0.8125713295	 0.092603
H	 2.1402379144	-0.8737745971	 2.5870108082	 0.11355
H	 1.8022804963	 0.8743843461	 2.2002346356	 0.099451
H	-0.3330977624	-1.1652235432	 3.1238202667	 0.103538
H	-0.6881628345	 1.4651827938	 2.1772938239	 0.293118
56.05	67.3519	151.8566	235.2239	238.088	297.0516	318.8691	332.2989	420.1539	492.2795	548.5907	592.1276	653.8896	763.0028	801.6195	823.3182	866.6066	889.3457	929.2643	964.2767	966.8558	1010.6398	1029.4741	1049.5372	1067.2595	1116.6355	1123.6235	1133.3515	1144.7189	1162.1937	1189.5182	1231.8866	1247.0784	1279.1806	1291.7789	1323.8487	1355.9866	1374.619	1405.7544	1438.0097	1459.1239	1495.5178	1513.2817	3020.5271	3106.6187	3109.0501	3126.0823	3136.2737	3159.2662	3193.8104	3212.4476	3490.5061	3709.8903	3804.8276
OC(C1CN1)C1CC1O	O[C@@H]([C@H]1CN1)[C@H]1C[C@H]1O	
InChI=1S/C6H11NO2/c8-5-1-3(5)6(9)4-2-7-4/h3-9H,1-2H2	InChI=1S/C6H11NO2/c8-5-1-3(5)6(9)4-2-7-4/h3-9H,1-2H2/t3-,4+,5+,6+/m0/s1
