16
gdb 127446	3.89423	1.10237	0.86853	7.219	80.45	-0.255	-0.0214	0.2336	1286.0001	0.125095	-396.977612	-396.968902	-396.967957	-397.011428	30.704	
C	 0.0105607562	 1.4231939082	-0.0073374501	-0.331364
N	 0.015061809	-0.0258579711	 0.0469397022	-0.011466
N	 0.0026896923	-0.724831526	-1.0968816938	-0.316153
C	 0.0111287253	-2.0045449106	-0.7044428114	 0.251575
C	 0.0287531527	-2.1171692542	 0.7040173642	-0.394388
C	 0.0309699485	-0.815941998	 1.1612218532	 0.385951
C	 0.0465964457	-0.2609158345	 2.5465144076	-0.507247
C	 0.0022279104	-3.0621079254	-1.6555942157	 0.236136
N	-0.0045553355	-3.9509794971	-2.3967103233	-0.344931
H	 0.9062168552	 1.8328125257	 0.469275863	 0.146802
H	-0.0034639299	 1.7064530935	-1.058469491	 0.174936
H	-0.8749205385	 1.8280983566	 0.4917782121	 0.146796
H	 0.0384471511	-3.0188668698	 1.2934224823	 0.127385
H	 0.9303681891	 0.3616694987	 2.7273656469	 0.14306
H	-0.8363673292	 0.3559487083	 2.7495810062	 0.143076
H	 0.0583515975	-1.0764310143	 3.2717615276	 0.149832
76.6824	121.7097	135.9739	148.9877	211.6509	263.3433	286.9363	414.9182	523.8306	523.9438	596.5121	649.6389	652.303	724.8401	792.5166	821.8967	998.95	1031.4397	1063.7137	1072.0944	1149.1487	1161.4889	1206.6407	1332.6915	1392.7729	1419.1363	1441.1433	1454.4911	1465.1425	1478.4277	1490.2556	1498.0571	1511.5591	1590.5921	2355.1467	3031.3307	3045.4736	3081.4434	3106.719	3135.5516	3174.7164	3276.3526
CN1N=C(C=C1C)C#N	Cn1nc(cc1C)C#N	
InChI=1S/C6H7N3/c1-5-3-6(4-7)8-9(5)2/h3H,1-2H3	InChI=1S/C6H7N3/c1-5-3-6(4-7)8-9(5)2/h3H,1-2H3
