16
gdb 16817	3.58349	2.00607	1.48299	4.2656	64.94	-0.2319	0.0222	0.2542	855.9073	0.132596	-379.939646	-379.932626	-379.931682	-379.970734	27.052	
C	-0.0789055322	 1.5833481666	 0.0528197838	-0.396767
C	 0.0274808319	 0.0589488723	 0.0118925595	 0.043796
N	 0.8148871674	-0.430106058	-1.1166955045	-0.328158
C	 1.8241542311	-1.3123478047	-0.8282657466	 0.454986
O	 2.5223291341	-1.8983082096	-1.6255069812	-0.387122
C	 1.8640707983	-1.405748122	 0.6824919736	-0.170736
N	 2.1675501096	-0.0817613031	 1.292307721	-0.326845
C	 0.7747260259	-0.5478491851	 1.2021164541	-0.050978
H	 0.9145513268	 2.0227805201	 0.1651537125	 0.148786
H	-0.5379693007	 1.9689720609	-0.8633439409	 0.113504
H	-0.7039747575	 1.8980758596	 0.8948079953	 0.116878
H	-0.9827550529	-0.3754375098	-0.0217555195	 0.084415
H	 0.6549847485	-0.1319104971	-2.0656577843	 0.249688
H	 2.2149440735	-2.31687664	 1.1497914151	 0.11169
H	 2.5076542016	-0.2378750616	 2.2391939693	 0.238764
H	 0.2231550447	-0.7820637084	 2.1052827129	 0.0981
107.2032	203.1207	245.0122	268.0546	383.4681	469.1621	470.2101	524.4213	609.612	702.9885	766.61	819.7067	855.3052	882.0211	891.856	921.0345	972.9142	1045.4011	1053.4337	1115.4207	1128.7673	1130.6942	1177.8982	1253.0338	1263.6579	1331.7267	1357.5192	1382.9062	1401.371	1412.2838	1438.8703	1493.0856	1501.8877	1834.4582	2988.5467	3039.2067	3102.9433	3137.777	3179.1919	3204.5951	3490.119	3645.4197
CC1NC(=O)C2NC12	C[C@H]1NC(=O)[C@H]2N[C@@H]12	
InChI=1S/C5H8N2O/c1-2-3-4(7-3)5(8)6-2/h2-4,7H,1H3,(H,6,8)	InChI=1S/C5H8N2O/c1-2-3-4(7-3)5(8)6-2/h2-4,7H,1H3,(H,6,8)/t2-,3+,4+/m1/s1
