19
gdb 84560	2.94754	1.82868	1.4029	1.519	79.56	-0.2182	0.0195	0.2376	973.246	0.161134	-385.863505	-385.856403	-385.855459	-385.894628	29.401	
C	 0.0623649548	 1.5569691506	 0.0427106438	-0.397378
C	-0.0159253939	 0.0219953991	-0.0188220829	-0.039482
C	 0.5615742257	-0.5044660058	-1.3150893977	-0.076823
C	 1.3997692761	-1.5404759006	-1.3800581534	-0.050409
C	 1.8034559466	-2.3052580914	-0.1773495951	-0.116651
C	 2.4617974281	-1.6507194041	 1.0391725659	 0.091671
O	 2.147466415	-0.2699919461	 1.1248910604	-0.293799
C	 0.7172589005	-0.5957240849	 1.1681297217	 0.093119
C	 1.0349802619	-2.0991795653	 1.1111304206	-0.187874
H	 1.106303884	 1.8815140633	 0.0286974053	 0.141224
H	-0.4503844202	 2.0086229585	-0.8124047251	 0.110248
H	-0.4058707184	 1.9388639268	 0.9565051472	 0.107732
H	-1.0776433907	-0.2666525019	 0.0533642151	 0.079199
H	 0.2758327734	 0.0217868944	-2.222737165	 0.083879
H	 1.8086912018	-1.8554931626	-2.3358571433	 0.08685
H	 2.1419663041	-3.325374313	-0.3352234368	 0.089551
H	 3.375096541	-2.0008804534	 1.5063760642	 0.104517
H	 0.2961675154	-0.2707609369	 2.1259115265	 0.078712
H	 0.5476055447	-2.8836560567	 1.6734648486	 0.095717
132.6613	223.9474	257.6046	321.6827	372.5683	411.8187	522.8949	595.3293	624.6687	721.3108	739.7354	777.2852	796.8837	836.9733	890.5367	910.6718	928.3202	966.2535	979.5322	991.9137	1013.337	1029.2931	1044.7144	1061.6242	1091.5027	1106.405	1119.6062	1143.8178	1200.9477	1244.4525	1274.5254	1293.1128	1317.324	1341.996	1367.9732	1398.3071	1419.03	1429.3453	1493.1829	1505.176	1706.7383	2967.8554	3032.7337	3046.2501	3098.4489	3122.1121	3146.3106	3153.7892	3174.0452	3178.8529	3204.1496
CC1C=CC2C3OC1C23	C[C@H]1C=C[C@H]2[C@H]3O[C@@H]1[C@@H]23	
InChI=1S/C8H10O/c1-4-2-3-5-6-7(4)9-8(5)6/h2-8H,1H3	InChI=1S/C8H10O/c1-4-2-3-5-6-7(4)9-8(5)6/h2-8H,1H3/t4-,5+,6+,7-,8+/m0/s1
