16
gdb 77645	2.17545	1.44282	1.30814	3.4607	72.49	-0.227	0.0043	0.2313	1064.8857	0.124719	-434.015027	-434.006307	-434.005363	-434.048199	32.341	
N	-0.0715635633	 1.4540648233	 0.0478225628	-0.522538
C	-0.1169013839	 0.0228867768	-0.0129286468	-0.110191
C	-1.3740561869	-0.7767870832	 0.0422472333	 0.318111
O	-1.6624631405	-1.7446693543	 0.9686723163	-0.438992
C	-2.4793543923	-0.1618310377	-0.8096807918	-0.234978
N	-1.5391424817	 0.0085221218	-1.9707530047	-0.379251
C	-0.5049712023	-0.7828956197	-1.2655713657	 0.145556
C	 0.3059285062	-1.7622079908	-1.8885679617	 0.168139
N	 0.9683315209	-2.5714093723	-2.3900489344	-0.354696
H	 0.8693606531	 1.7714258531	-0.1681826512	 0.240597
H	-0.6697559643	 1.831485553	-0.6846511102	 0.254906
H	 0.6922224491	-0.4588849918	 0.5328856572	 0.116912
H	-1.1347807688	-1.5961056234	 1.7602570956	 0.301356
H	-3.2636500041	-0.8986280475	-1.0044639117	 0.132127
H	-2.9298547247	 0.7699654185	-0.4524429454	 0.120116
H	-1.8769137864	-0.479973436	-2.7931913917	 0.242827
104.1605	145.1083	169.2386	206.7958	239.3749	277.6981	295.668	378.7124	436.6007	516.9813	550.3694	599.6304	662.6081	704.4481	747.253	792.4089	826.7329	916.9052	997.3317	1008.3274	1045.9258	1085.669	1112.2117	1168.4704	1201.904	1214.6327	1252.3811	1284.78	1343.6074	1370.8859	1403.6757	1491.1211	1519.85	1669.7857	2324.5103	3047.1225	3103.4238	3143.1162	3478.8342	3535.8967	3554.3713	3816.8449
NC1C2(O)CNC12C#N	N[C@H]1[C@@]2(O)CN[C@@]12C#N	
InChI=1S/C5H7N3O/c6-1-4-3(7)5(4,9)2-8-4/h3,8-9H,2,7H2	InChI=1S/C5H7N3O/c6-1-4-3(7)5(4,9)2-8-4/h3,8-9H,2,7H2/t3-,4+,5+/m1/s1
