18
gdb 80340	2.14891	1.52482	1.3312	4.4349	76.21	-0.2559	-0.0018	0.2541	1084.5083	0.146218	-401.921019	-401.912122	-401.911178	-401.95437	32.882	
C	-0.0619042316	 1.5516821465	-0.0936070603	-0.427448
C	 0.0490950765	 0.0488262058	 0.0430006292	-0.07901
C	 1.3074569546	-0.7279372282	-0.1825418513	 0.036423
O	 2.4556107064	 0.0127619257	 0.2725354496	-0.287765
C	 1.982744099	-0.0784805239	 1.6350284153	-0.055258
C	 1.9586343051	 1.1939796758	 2.3633706806	 0.281764
N	 1.9355330412	 2.1737013091	 2.9760340356	-0.325212
C	 0.6662484527	-0.7363620058	 1.1956523087	 0.224748
C	-0.0451862345	-1.7874201276	 1.9949108582	-0.499672
H	 0.895956854	 2.0422129191	 0.0867867997	 0.150331
H	-0.38156583	 1.8099332917	-1.1084965365	 0.119894
H	-0.7947367105	 1.9640416613	 0.6063807962	 0.128705
H	-0.8180898105	-0.498308909	-0.3265465958	 0.095906
H	 1.4830272655	-1.5007993641	-0.9217848032	 0.112852
H	 2.6088787492	-0.7829182072	 2.1981626304	 0.129693
H	-0.5960362619	-1.3434613463	 2.8321418211	 0.138504
H	-0.7686179161	-2.3241149071	 1.3739647331	 0.130477
H	 0.6549906311	-2.5236268259	 2.4055938994	 0.125068
114.3351	124.9403	177.8959	186.646	207.7804	264.1326	293.6051	307.3512	426.7502	524.8415	553.6501	581.2603	671.4963	754.651	767.0916	905.2433	907.7553	952.0652	979.4897	1002.7258	1023.0478	1066.8265	1079.3438	1112.4571	1126.907	1156.8656	1216.5907	1248.6672	1285.4273	1332.2659	1357.7321	1414.9384	1420.6661	1468.8097	1486.216	1492.8299	1498.1852	1504.2062	2354.3819	3023.2803	3027.2431	3043.6117	3086.8202	3103.3268	3105.4268	3116.3395	3141.4498	3184.5825
CC1C2OC(C#N)C12C	C[C@H]1[C@H]2O[C@@H](C#N)[C@@]12C	
InChI=1S/C7H9NO/c1-4-6-7(4,2)5(3-8)9-6/h4-6H,1-2H3	InChI=1S/C7H9NO/c1-4-6-7(4,2)5(3-8)9-6/h4-6H,1-2H3/t4-,5-,6+,7+/m0/s1
