19
gdb 38252	3.20872	1.78059	1.45813	1.134	74.11	-0.2468	0.0906	0.3373	940.1728	0.162639	-423.002937	-422.996302	-422.995358	-423.033834	27.616	
C	-0.0153808504	 1.6555188801	-0.0110981732	-0.287821
C	 1.5055584252	 1.3589318557	 0.0107279461	-0.031151
C	 1.1457088905	 0.1150466474	 0.918472726	-0.308947
C	-0.0776243887	 0.1036188257	-0.025171622	 0.44669
O	-1.2808560899	-0.6042699903	-0.0145241089	-0.343633
C	-1.5936379411	-0.817027017	-1.4080666778	-0.009864
O	-0.5665045256	-0.2473251481	-2.2087390653	-0.284079
C	 0.5660358098	-0.2785736615	-1.3480037761	 0.107632
C	 1.6901085234	 0.7736760875	-1.4232692611	-0.271759
H	-0.3900683889	 2.0666540406	 0.9284552634	 0.099559
H	-0.4244663499	 2.197520966	-0.8668476468	 0.100375
H	 2.227455011	 2.0981395525	 0.3538561474	 0.071392
H	 1.8086618024	-0.7548034451	 0.9125220976	 0.096505
H	 0.9219881084	 0.421579647	 1.9417342017	 0.109419
H	-1.6696000565	-1.9030145723	-1.5692300479	 0.100564
H	-2.5379780957	-0.3267686162	-1.6673423898	 0.116256
H	 0.9681543549	-1.302432588	-1.3139209264	 0.070286
H	 1.5158141718	 1.5310467351	-2.191865058	 0.117857
H	 2.6688226293	 0.3202944309	-1.5980865789	 0.100719
112.9265	216.232	341.8603	402.6921	415.5463	495.7329	554.9809	625.6946	683.2737	748.4176	808.1249	842.712	858.4948	882.3053	923.9395	939.987	962.6237	997.036	1008.607	1046.2456	1061.594	1082.2289	1084.4155	1121.2056	1134.1271	1146.3277	1188.9376	1192.6328	1212.8053	1239.0618	1243.2302	1265.6088	1281.8085	1323.8898	1338.5315	1398.5102	1431.7932	1483.5828	1490.7091	1525.1169	1539.6421	2981.9647	2988.2166	3059.2323	3065.037	3067.6439	3069.3359	3114.2536	3127.6921	3129.6337	3134.0287
C1C2CC11OCOC1C2	C1[C@H]2C[C@]31OCO[C@H]3C2	
InChI=1S/C7H10O2/c1-5-2-7(3-5)6(1)8-4-9-7/h5-6H,1-4H2	InChI=1S/C7H10O2/c1-5-2-7(3-5)6(1)8-4-9-7/h5-6H,1-4H2/t5-,6-,7-/m0/s1
