17
gdb 20878	6.65564	1.03852	0.95704	2.8771	70.22	-0.2605	-0.0054	0.2551	1229.5144	0.142655	-363.868724	-363.860925	-363.859981	-363.901803	28.01	
C	-0.0511064771	 1.5715920154	 0.1412853754	-0.379928
C	-0.08928034	 0.050537617	 0.3042039681	-0.163868
C	-1.3614913617	-0.5741260155	-0.2977806772	-0.298401
C	-1.4192995502	-2.062257508	-0.1338458547	 0.38668
N	-1.3267914487	-2.8471909538	-1.1826809369	-0.20123
O	-1.3962917191	-4.1517651493	-0.6953885238	-0.163786
C	-1.5297788565	-4.1063079835	 0.636645963	 0.083581
C	-1.5521311524	-2.8222294733	 1.068955762	-0.32875
H	 0.8614485748	 1.9931017473	 0.5734389015	 0.115592
H	-0.0827280419	 1.8573336698	-0.9157520617	 0.120158
H	-0.9054081354	 2.0455405048	 0.6375074716	 0.114859
H	 0.7871619901	-0.4001362984	-0.1758846355	 0.112907
H	-0.0237406449	-0.2097892334	 1.3679575591	 0.099156
H	-2.2439483766	-0.1247811351	 0.1756300322	 0.110592
H	-1.4192612643	-0.3446772922	-1.3664201939	 0.125846
H	-1.5988976634	-5.0610045205	 1.135225872	 0.148952
H	-1.6511697724	-2.4623761415	 2.0795092789	 0.117638
52.6876	89.1618	122.6208	241.9487	309.8065	331.1428	378.3045	615.0267	674.1335	742.7172	761.1283	800.166	870.412	873.8478	898.5847	910.7934	943.49	1000.3398	1044.5155	1078.6372	1109.4649	1114.148	1160.9711	1253.1421	1289.9492	1316.3706	1325.0063	1385.0506	1412.9056	1448.8837	1477.5688	1485.7819	1494.2248	1498.5581	1509.8949	1610.9459	3024.5859	3029.7591	3033.0469	3060.3921	3088.1838	3101.4366	3106.1186	3258.7631	3283.7954
CCCC1=NOC=C1	CCCc1nocc1	
InChI=1S/C6H9NO/c1-2-3-6-4-5-8-7-6/h4-5H,2-3H2,1H3	InChI=1S/C6H9NO/c1-2-3-6-4-5-8-7-6/h4-5H,2-3H2,1H3
