17
gdb 125959	2.90646	1.62609	1.09566	4.523	73.46	-0.2861	-0.0406	0.2455	1078.98	0.137711	-417.984116	-417.976763	-417.975819	-418.015978	28.346	
C	-0.0673782228	 1.592791733	-0.0039107434	-0.397768
C	 0.038961835	 0.0678151085	 0.0474981757	-0.114078
C	 0.7844842322	-0.5700448416	-1.1772656154	-0.222315
C	 1.4911001602	-1.8762226918	-0.6851436958	-0.350091
C	 1.6589077408	-1.5814589811	 0.77355175	 0.324649
N	 2.3353415017	-2.0291247189	 1.7860431829	-0.203473
O	 1.9472802246	-1.2202702899	 2.841589026	-0.161697
N	 1.0201576672	-0.2691465254	 2.4482967505	-0.21517
C	 0.8460378662	-0.4938200857	 1.1823980386	 0.340429
H	 0.9257499525	 2.0514099371	-0.0415484565	 0.12705
H	-0.6243289815	 1.9104475405	-0.8907226007	 0.120208
H	-0.5834127261	 1.9791789891	 0.879204651	 0.138437
H	-0.9734889963	-0.3549536123	 0.1075301063	 0.108539
H	 0.110703672	-0.7526689597	-2.017454625	 0.112534
H	 1.5477172194	 0.137424244	-1.5198263703	 0.119359
H	 0.8497045648	-2.7543213224	-0.8243064733	 0.135622
H	 2.4291711502	-2.0733921836	-1.2085229904	 0.137763
114.4136	167.4353	219.4091	249.2171	297.7238	436.8644	498.4837	556.4402	621.1247	635.9383	712.617	749.6972	822.0243	827.8621	885.991	913.6588	948.0634	967.5009	1034.2754	1061.4701	1101.9781	1116.7978	1170.903	1192.3121	1227.4088	1301.3227	1310.2258	1325.0423	1359.4652	1414.3109	1420.2103	1479.6688	1492.5137	1495.0959	1500.8223	1563.1098	1660.0514	3010.9791	3040.3754	3045.4905	3051.125	3104.3836	3110.8648	3114.0418	3119.4156
CC1CCC2=NON=C12	C[C@H]1CCc2nonc12	
InChI=1S/C6H8N2O/c1-4-2-3-5-6(4)8-9-7-5/h4H,2-3H2,1H3	InChI=1S/C6H8N2O/c1-4-2-3-5-6(4)8-9-7-5/h4H,2-3H2,1H3/t4-/m0/s1
