21
gdb 121566	5.44273	0.41635	0.39944	1.6273	86.77	-0.2441	0.0416	0.2857	2740.0427	0.179174	-424.183675	-424.172158	-424.171214	-424.22322	38.497	
C	-0.6237501092	 1.262286622	-0.5450374495	-0.386297
C	 0.09184569	-0.0015266142	-0.1005584159	-0.015504
O	 0.7328122827	-0.5715330121	-1.2247352393	-0.240827
C	 1.4264302118	-1.7621362183	-0.9038094674	-0.207594
C	 2.0724106187	-2.3072052492	-2.0899629018	 0.013218
C	 2.6242134568	-2.77140246	-3.0537105591	 0.114504
C	 3.2621925839	-3.3382270554	-4.2338650243	-0.327556
C	 2.2714574355	-4.0636408693	-5.1510390276	-0.064123
O	 3.0166543741	-4.5673366047	-6.2465330862	-0.415337
H	 0.0887983756	 1.9786857804	-0.9632516171	 0.129316
H	-1.3675122036	 1.0314285805	-1.3127734921	 0.128387
H	-1.132063062	 1.7308258355	 0.3030173616	 0.114093
H	 0.8325324194	 0.2277195232	 0.6850906266	 0.085312
H	-0.6239106432	-0.7201492824	 0.33511047	 0.084535
H	 2.1833960516	-1.5662274025	-0.1237450151	 0.112601
H	 0.7304645917	-2.5077000683	-0.4798475672	 0.110565
H	 3.7607548005	-2.5519605183	-4.8136549758	 0.13969
H	 4.0454713389	-4.0476242027	-3.9396596152	 0.137656
H	 1.776354459	-4.8695431699	-4.5888841849	 0.097005
H	 1.492412281	-3.3584097766	-5.47613356	 0.101264
H	 2.4103811167	-5.0130156977	-6.8448604597	 0.289094
14.8111	59.112	64.6267	100.9139	112.9097	123.5585	232.7419	239.3655	245.5624	288.8374	313.5109	378.518	423.8393	488.1288	561.0997	792.2699	822.7201	822.779	909.1461	1001.4278	1029.5833	1032.0555	1080.3511	1086.7076	1129.8425	1149.2072	1179.1072	1189.1976	1220.8651	1238.9228	1255.692	1295.3208	1303.9913	1333.3507	1379.8946	1405.8171	1448.5873	1455.286	1475.3575	1483.3852	1496.9935	1501.9239	1527.9615	1532.1417	2375.3168	2938.6993	2952.2211	2956.606	2972.6485	2984.5268	3015.735	3031.3358	3045.8349	3068.5832	3119.8533	3123.5151	3835.9018
CCOCC#CCCO	CCOCC#CCCO	
InChI=1S/C7H12O2/c1-2-9-7-5-3-4-6-8/h8H,2,4,6-7H2,1H3	InChI=1S/C7H12O2/c1-2-9-7-5-3-4-6-8/h8H,2,4,6-7H2,1H3
