17
gdb 123409	4.80492	0.96282	0.88161	2.0345	73.6	-0.2822	-0.0213	0.2609	1320.3681	0.137325	-417.999916	-417.99208	-417.991136	-418.03407	28.401	
C	-0.0544383497	 1.5329429089	-0.3444272189	-0.346209
C	-0.1051985873	 0.0175546875	-0.2078846998	 0.024838
C	-0.1360392461	-0.6176836529	 1.1578895594	-0.250977
C	-1.3642719356	-0.6494045579	 0.2816247329	-0.276842
C	 1.330822317	 2.0631108295	-0.1827461288	 0.437787
N	 2.2120212821	 2.329076119	-1.1035377488	-0.313124
C	 3.289690148	 2.7309643384	-0.3542277504	 0.038206
N	 3.1087095575	 2.7238139451	 0.9370440613	-0.116351
O	 1.7872904305	 2.2735013888	 1.0605644856	-0.193596
H	-0.4155072792	 1.8411092952	-1.3296029117	 0.140782
H	-0.6981101569	 1.9934506961	 0.4123235861	 0.128625
H	 0.4574658251	-0.5081734485	-0.973571882	 0.103065
H	 0.4161893557	-1.5382783028	 1.3079457369	 0.119506
H	-0.1429428662	 0.0398505236	 2.0207093378	 0.124377
H	-2.2005567893	-0.0148930029	 0.5567099907	 0.115103
H	-1.6538611149	-1.5906595509	-0.1716713302	 0.118869
H	 4.2314651893	 3.039936364	-0.78422106	 0.145943
28.5529	67.488	111.6871	280.8344	310.2994	347.3656	407.1412	656.8639	691.0746	773.0509	786.8038	811.3782	845.8182	894.9092	916.9635	931.9475	958.8647	979.8767	990.5496	1029.9358	1059.8043	1081.2996	1115.4486	1141.7921	1191.6823	1196.8698	1221.8478	1237.4001	1269.8806	1320.1907	1346.9968	1406.1959	1465.2828	1473.2941	1507.4629	1515.6325	1620.111	3053.3693	3105.7639	3132.8471	3139.2381	3154.6215	3212.2998	3227.5601	3260.3603
C(C1CC1)C1=NC=NO1	C(C1CC1)c1ncno1	
InChI=1S/C6H8N2O/c1-2-5(1)3-6-7-4-8-9-6/h4-5H,1-3H2	InChI=1S/C6H8N2O/c1-2-5(1)3-6-7-4-8-9-6/h4-5H,1-3H2
