15
gdb 17373	4.11068	1.68595	1.5526	5.2278	60.03	-0.249	0.0155	0.2645	844.5985	0.120352	-399.784145	-399.777467	-399.776523	-399.815286	25.48	
O	-0.1396403488	-0.060238926	 0.1320835611	-0.373349
C	-0.0446106464	 1.2672952149	-0.0555432385	 0.438218
O	 0.9909140493	 1.8304924456	-0.2849633081	-0.341798
C	-1.3821192107	 1.9916126114	 0.0841547722	-0.136586
N	-2.5431489511	 1.065933002	 0.3342883399	-0.364672
H	-3.2438082279	 1.1582022912	-0.393605034	 0.237219
H	-1.0940471043	-0.2352680969	 0.2800684789	 0.303757
C	-2.8963791149	 1.8583113689	 1.5445901985	 0.002624
C	-1.7906506293	 1.7287308714	 2.5410027719	-0.279407
C	-1.6563068493	 2.7237079743	 1.4107390437	-0.074212
H	-1.5259238127	 2.647291559	-0.7775841437	 0.114078
H	-3.9239072491	 2.1000821072	 1.7845315592	 0.108372
H	-1.9814263227	 2.1821952938	 3.5080553091	 0.12531
H	-1.1870944853	 0.8261095385	 2.5728556396	 0.129802
H	-1.4968317769	 3.7803742046	 1.5729526002	 0.110642
93.0972	140.416	223.2717	375.6426	441.7158	491.0316	608.5042	709.9727	742.2628	767.9044	811.8641	816.8596	880.2718	919.2416	950.889	979.7514	996.3617	1026.6551	1042.4263	1050.0753	1089.7625	1098.7379	1176.4933	1213.4281	1231.5372	1279.1562	1289.2565	1351.9505	1385.3839	1426.894	1484.4235	1873.5464	3089.8745	3123.1263	3193.618	3209.0845	3218.4835	3492.8026	3532.7313
[O-]C(=O)C1[NH2+]C2CC12	OC(=O)[C@H]1N[C@H]2C[C@@H]12	
InChI=1S/C5H7NO2/c7-5(8)4-2-1-3(2)6-4/h2-4,6H,1H2,(H,7,8)	InChI=1S/C5H7NO2/c7-5(8)4-2-1-3(2)6-4/h2-4,6H,1H2,(H,7,8)/t2-,3+,4+/m1/s1
