18
gdb 15518	3.14595	1.77416	1.17227	0.8858	84.57	-0.215	-0.0088	0.2063	1033.9859	0.153292	-310.669635	-310.661349	-310.660405	-310.702076	31.045	
C	-0.1196333413	 1.5018096248	 0.1001581749	-0.513721
C	 0.0524757917	 0.0214229149	 0.0153621862	 0.228926
C	 0.0636102524	-0.7314553932	-1.1020062602	 0.12491
C	 0.3210321957	-2.1989540294	-0.794298191	-0.317152
C	 0.1195177066	-2.2765559213	 0.7374607729	-0.214925
C	 0.2988920338	-0.825921458	 1.2430180806	-0.286043
C	-0.0873916975	-0.2625017856	-2.4289336173	 0.188374
C	-0.215128786	 0.0949686411	-3.5738697965	-0.424265
H	 0.7568695499	 1.9718432921	 0.565401111	 0.1269
H	-0.2654277802	 1.9456654388	-0.8871875545	 0.138024
H	-0.9800315709	 1.7619682902	 0.7301279471	 0.126201
H	-0.3505958852	-2.8645756128	-1.3455753389	 0.110256
H	 1.3424930347	-2.4728110084	-1.0910123598	 0.110593
H	-0.8994928079	-2.6125318935	 0.9533465964	 0.107513
H	 0.8013116135	-2.9821809396	 1.2185040041	 0.098514
H	 1.315131694	-0.6449578508	 1.6249988384	 0.10768
H	-0.3805549242	-0.5760091221	 2.0668662205	 0.102318
H	-0.3267878791	 0.4195799928	-4.578340274	 0.185896
123.9109	143.9505	149.5797	167.3712	240.8228	314.5664	409.9115	497.1268	552.8224	560.073	606.7383	610.2882	637.4675	700.4983	848.2525	890.0575	919.752	937.0608	1001.1103	1022.6589	1071.5735	1088.7329	1154.8577	1175.7912	1220.246	1231.4982	1264.4325	1322.9179	1329.6003	1355.6022	1411.5146	1479.67	1481.2857	1482.4561	1489.2828	1507.0004	1690.9567	2214.2605	2993.7943	3014.9342	3016.9384	3040.223	3055.5111	3058.5529	3072.0989	3102.3905	3122.9873	3504.2684
CC1=C(CCC1)C#C	CC1=C(CCC1)C#C	
InChI=1S/C8H10/c1-3-8-6-4-5-7(8)2/h1H,4-6H2,2H3	InChI=1S/C8H10/c1-3-8-6-4-5-7(8)2/h1H,4-6H2,2H3
