16
gdb 11254	5.06532	1.39767	1.22187	1.6287	72.66	-0.2464	0.0068	0.2532	1006.3004	0.129072	-346.571037	-346.563208	-346.562263	-346.603376	29.171	
C	 0.2065528202	 1.6399824924	-0.0502783327	-0.391235
C	-0.0507003043	 0.1462259402	 0.1364198286	 0.095361
O	 0.3930482243	-0.5618204303	-1.0305345081	-0.273833
C	 1.2155163733	-1.6722297395	-0.6641330137	-0.099455
C	 1.4349322969	-1.5074502914	 0.8263789854	-0.091996
C	 0.7083151324	-0.491685794	 1.2700042452	-0.095115
C	 0.5843327693	-2.9556365512	-0.9994938489	 0.339956
C	 0.0827598733	-4.0140324538	-1.2686481215	-0.476333
H	 1.2784312645	 1.8352766518	-0.1469338991	 0.121429
H	-0.2960866925	 1.9968516607	-0.9533807904	 0.129639
H	-0.1793832821	 2.2057184371	 0.804251882	 0.112346
H	-1.1350602602	-0.0135400279	 0.2620038151	 0.088346
H	 2.1599871986	-1.5972540215	-1.2248203147	 0.113389
H	 2.0737031304	-2.1695034559	 1.3950934445	 0.11828
H	 0.6367507851	-0.1435178646	 2.2928140411	 0.109992
H	-0.3655020493	-4.9459037023	-1.5106591628	 0.199229
57.9272	133.0674	200.939	232.8519	287.8347	350.5697	466.8775	514.3435	562.1342	618.3024	666.8353	725.9209	753.1394	809.2097	850.2995	884.9483	935.1124	958.6866	1007.8552	1024.2403	1081.854	1108.9775	1132.3997	1138.263	1275.4909	1328.6031	1333.1787	1364.4376	1378.2639	1401.8564	1485.4964	1495.7961	1693.2652	2232.769	2956.5778	2981.6201	3038.7799	3112.5004	3123.3635	3210.1664	3238.6559	3502.7552
CC1OC(C=C1)C#C	C[C@H]1O[C@@H](C=C1)C#C	
InChI=1S/C7H8O/c1-3-7-5-4-6(2)8-7/h1,4-7H,2H3	InChI=1S/C7H8O/c1-3-7-5-4-6(2)8-7/h1,4-7H,2H3/t6-,7-/m1/s1
