15
gdb 93310	2.31763	1.88987	1.15344	4.9373	61.4	-0.2626	-0.012	0.2506	1009.6695	0.111999	-494.906754	-494.898721	-494.897777	-494.939672	29.163	
O	 0.1204040782	 1.3695086074	-0.266866431	-0.421312
C	 0.0249972423	-0.0132199046	-0.0031779546	-0.018883
C	 0.4621775104	-0.3961471787	 1.4287030728	-0.119744
O	-0.3723363402	-1.4975873546	 1.8338547728	-0.224431
C	-1.5017243018	-1.5584652647	 1.0748062409	 0.399023
O	-2.3851224558	-2.3364452725	 1.2736495697	-0.337868
C	-1.4063009369	-0.5013259973	-0.0007716016	 0.269606
C	-2.5778455895	 0.3128068405	-0.3609538339	-0.226581
O	-2.0989117328	-0.7252280483	-1.2143066453	-0.265641
H	 0.9755798421	 1.5510471731	-0.6664461788	 0.298757
H	 0.5862225969	-0.599145082	-0.7435557431	 0.106202
H	 1.5019220597	-0.7196883559	 1.5070112439	 0.12551
H	 0.2946877842	 0.4559114985	 2.0962543973	 0.131365
H	-3.5269720739	 0.1074907589	 0.1295737865	 0.140781
H	-2.4044896527	 1.3270545402	-0.7107088154	 0.143218
71.899	154.7469	175.2186	234.0811	258.6449	285.0117	323.057	491.1803	517.3865	604.6376	648.443	711.9695	751.8247	867.7532	919.5768	935.6776	1023.5328	1054.6036	1067.3266	1096.5061	1122.8576	1134.9977	1174.4576	1219.6637	1246.0353	1253.3327	1312.8719	1369.8708	1409.1146	1460.0838	1510.2475	1519.4071	1897.1068	3017.4494	3052.5024	3102.6613	3118.2348	3206.5096	3841.4578
OC1COC(=O)C11CO1	O[C@H]1COC(=O)[C@]21CO2	
InChI=1S/C5H6O4/c6-3-1-8-4(7)5(3)2-9-5/h3,6H,1-2H2	InChI=1S/C5H6O4/c6-3-1-8-4(7)5(3)2-9-5/h3,6H,1-2H2/t3-,5+/m0/s1
