19
gdb 124844	3.40579	1.32687	1.21365	3.1741	82.27	-0.2326	0.0339	0.2665	1112.8062	0.160711	-382.06547	-382.057266	-382.056322	-382.098168	31.388	
C	-0.1294987192	 1.5767356745	 0.0121075338	-0.436854
C	-0.0200128431	 0.0518397777	 0.0064874776	 0.128245
C	-1.3685727717	-0.6196537283	 0.2666670741	-0.436816
C	 0.7651262636	-0.5373863859	-1.2558715932	-0.213239
N	 1.7617151081	-0.9879745624	-0.2819481681	 0.084089
N	 2.9254628156	-1.6200937887	-0.0845412768	-0.309997
C	 3.0457011125	-1.5315637663	 1.2521709497	 0.01596
C	 1.968688438	-0.8505016838	 1.8867441803	-0.419253
C	 1.1573337663	-0.5185601487	 0.816078992	 0.379294
H	 0.8376746851	 2.0469764726	-0.1873236416	 0.12731
H	-0.8429692082	 1.9177970529	-0.7461641892	 0.118016
H	-0.4816976016	 1.9322458617	 0.9858756903	 0.125593
H	-2.1046885523	-0.3176418151	-0.4865083373	 0.117986
H	-1.2818701506	-1.7098051863	 0.247256868	 0.127306
H	-1.7576059342	-0.3308547629	 1.2484568726	 0.125591
H	 0.2616919525	-1.3495033557	-1.7877087057	 0.12756
H	 1.1395779828	 0.2048261841	-1.9663402018	 0.127604
H	 3.9134770112	-1.9653170173	 1.7286780845	 0.108495
H	 1.8436979651	-0.6565306921	 2.9386230608	 0.103107
79.9045	128.0227	224.4341	236.8331	292.4777	293.6506	329.563	434.5558	516.6549	605.1823	651.7606	721.6808	724.9269	779.975	838.9686	872.2636	920.9666	937.3267	959.7631	979.4224	1032.6116	1033.6066	1071.8812	1136.8005	1172.9459	1193.5661	1234.4749	1245.4913	1281.9158	1301.7812	1364.8259	1403.6821	1410.2823	1422.0554	1480.9357	1485.9284	1487.1134	1501.5998	1504.6236	1522.0838	1558.1073	3029.7687	3034.0169	3054.0493	3097.4457	3102.4176	3108.6224	3112.78	3113.2836	3239.2451	3277.6047
CC1(C)CN2N=CC=C12	CC1(C)Cn2nccc12	
InChI=1S/C7H10N2/c1-7(2)5-9-6(7)3-4-8-9/h3-4H,5H2,1-2H3	InChI=1S/C7H10N2/c1-7(2)5-9-6(7)3-4-8-9/h3-4H,5H2,1-2H3
