17
gdb 81577	2.76175	1.57477	1.30692	3.4035	69.45	-0.2343	0.0278	0.2621	1009.3101	0.136837	-455.108383	-455.100574	-455.09963	-455.14053	30.898	
N	-0.1041820229	 1.335269133	 0.0780877251	-0.53197
C	-0.1485520018	-0.0289967009	 0.1821635932	 0.408856
O	 0.6925315952	-0.6784131804	 0.7950187867	-0.412495
N	-1.2141525506	-0.59911121	-0.5166897997	-0.153781
C	-2.6732363719	-0.4766767744	-0.0879501508	-0.089226
C	-2.939798044	-1.6753229506	-1.0296008479	-0.226143
C	-1.6552582678	-2.0200555104	-0.2290868114	-0.07824
C	-2.4056935395	-1.5373769841	 1.0525184927	 0.187252
O	-1.717914448	-1.2060324471	 2.2059393013	-0.448978
H	 0.7414062802	 1.7706674324	 0.4088200002	 0.26643
H	-0.5806274385	 1.7797164175	-0.6887799314	 0.262432
H	-3.1755502065	 0.4895062206	-0.0442349857	 0.092679
H	-3.8242426615	-2.2795983607	-0.8267963233	 0.107883
H	-2.7868634025	-1.4772229795	-2.0890516538	 0.11501
H	-0.9713807194	-2.8577081402	-0.3543245435	 0.107091
H	-3.2883749351	-2.1241197899	 1.329387152	 0.085194
H	-0.7689167854	-1.1615517152	 2.0076925864	 0.308005
89.757	174.3791	196.6868	305.8959	357.7418	404.2214	409.0516	503.7673	524.0622	572.4737	603.161	677.6469	710.1713	743.4116	805.466	851.2406	885.6827	905.6779	924.2691	1009.8175	1034.4127	1085.0838	1098.8995	1121.0328	1135.7058	1165.1291	1181.4118	1194.4631	1214.9183	1242.4914	1284.548	1355.3362	1402.686	1460.0495	1499.7254	1610.224	1744.386	3051.5818	3093.5273	3123.7169	3141.4205	3172.9842	3600.4209	3669.063	3726.8044
NC(=O)N1C2CC1C2O	NC(=O)N1[C@H]2C[C@@H]1[C@H]2O	
InChI=1S/C5H8N2O2/c6-5(9)7-2-1-3(7)4(2)8/h2-4,8H,1H2,(H2,6,9)	InChI=1S/C5H8N2O2/c6-5(9)7-2-1-3(7)4(2)8/h2-4,8H,1H2,(H2,6,9)/t2-,3+,4-
