14
gdb 123714	3.18825	2.29653	1.54182	3.1281	66.08	-0.2531	-0.0698	0.1833	803.6633	0.103083	-432.74756	-432.741561	-432.740616	-432.777794	23.819	
C	-0.0998593916	 1.5540300903	-0.0607601859	-0.182972
C	 1.466262487	 1.6970058757	 0.0222112287	 0.058778
O	 2.0812923528	 2.164254138	 1.2251120847	-0.29254
C	 2.4371430691	 1.0277085213	 2.0888307293	-0.141586
C	 1.6516225532	-0.1119838905	 1.4865360873	 0.124454
C	 1.3670692125	 0.2258687879	 0.2101472483	 0.08762
N	 0.0193203753	-0.0098279463	-0.013790622	-0.084787
N	-0.4325986678	-0.6954901569	 1.1478737885	-0.110547
N	 0.5353116715	-0.7745656843	 1.9906614695	-0.15951
H	-0.6166655372	 1.9030923652	 0.8313015463	 0.166159
H	-0.5784052411	 1.8768988715	-0.9837450862	 0.151246
H	 1.9367285242	 2.1699278401	-0.8400410556	 0.11325
H	 3.5251708904	 0.905429681	 2.071927678	 0.129088
H	 2.1170123917	 1.250970277	 3.1098085292	 0.141346
159.0531	270.1412	322.3016	372.1892	478.5186	623.2034	671.3346	708.7862	720.5949	776.7553	844.4345	854.9333	880.6373	913.0698	984.8189	1009.2352	1041.5525	1048.4475	1119.2275	1139.9237	1170.4174	1197.9216	1217.7901	1253.3173	1311.7309	1334.7875	1355.7066	1368.3607	1455.6226	1512.2673	1573.7472	3045.4915	3102.6922	3103.6604	3111.5205	3193.9849
C1C2OCC3=C2N1N=N3	C1[C@H]2OC[C]3[C]2N1N=N3	
InChI=1S/C5H5N3O/c1-4-5-3(2-9-4)6-7-8(1)5/h4H,1-2H2	InChI=1S/C5H5N3O/c1-4-5-3(2-9-4)6-7-8(1)5/h4H,1-2H2/t4-/m1/s1
