25
gdb 86079	2.2813	1.30704	1.03868	0.2951	95.29	-0.2251	0.034	0.2591	1343.6476	0.227418	-352.39115	-352.380768	-352.379824	-352.425472	40.291	
C	-0.8036586317	 1.1397483911	 0.0163272153	-0.416206
C	 0.1374504929	-0.0588670335	-0.0980817461	 0.011409
C	 1.3219136879	 0.1414054827	-1.0730017992	-0.320705
C	 2.3840526947	-0.7953612002	-0.5357565185	 0.308112
C	 3.6012154563	-1.1507180454	-1.3299754087	-0.491273
C	 2.0790434928	-1.1844254472	 0.7033006233	-0.18813
C	 0.7937992776	-0.57352612	 1.2320934052	 0.263945
C	 1.1374909605	 0.5638019858	 2.2184172339	-0.418352
C	-0.0994135988	-1.6039318396	 1.9408979331	-0.433096
H	-0.2790485185	 2.0399673766	 0.3524405686	 0.114749
H	-1.2560483109	 1.3674050918	-0.955036087	 0.109401
H	-1.6213867691	 0.9464266359	 0.7194083138	 0.11127
H	-0.4454085198	-0.9046184072	-0.4859723976	 0.069216
H	 1.0459650783	-0.0747853308	-2.1128845166	 0.093632
H	 1.6853811662	 1.1809903934	-1.0671107477	 0.095829
H	 4.172780191	-0.2535774198	-1.6020802173	 0.12232
H	 4.2652955848	-1.8200459815	-0.775953908	 0.120269
H	 3.3310063305	-1.6417011583	-2.2738655949	 0.121668
H	 2.7001434821	-1.8284656067	 1.3203659431	 0.075208
H	 1.7295383907	 1.3484526538	 1.737130039	 0.110972
H	 0.2346633706	 1.0234351603	 2.6353099597	 0.108213
H	 1.7266151048	 0.1749226286	 3.0562237618	 0.106449
H	 0.3774263759	-1.9806245344	 2.8530318872	 0.106125
H	-1.0592006405	-1.1613035492	 2.2323382349	 0.108616
H	-0.3050556083	-2.4611283462	 1.2916281528	 0.110362
95.2746	134.1394	189.6645	216.3865	230.5663	244.0476	256.1239	273.2804	289.7187	339.1981	383.4093	435.7121	469.9305	501.8231	570.0471	580.8385	707.4139	849.7622	881.1859	886.8912	914.8259	937.1491	940.5596	956.9628	1006.6392	1017.1984	1034.8793	1061.0289	1107.1796	1134.5579	1151.4284	1159.7078	1219.9345	1236.6446	1255.6092	1299.1636	1335.0522	1354.9334	1369.0443	1392.0917	1407.4872	1413.1402	1418.2029	1479.3339	1481.0082	1484.3765	1487.5606	1490.0498	1496.6197	1497.6139	1505.3461	1509.5004	1723.8029	2985.5358	3009.0173	3013.7234	3019.5612	3025.0055	3029.5442	3040.1124	3057.8557	3082.7917	3088.4024	3092.0148	3095.9014	3099.3602	3102.2445	3107.1856	3162.5514
CC1CC(C)=CC1(C)C	C[C@H]1CC(=CC1(C)C)C	
InChI=1S/C9H16/c1-7-5-8(2)9(3,4)6-7/h6,8H,5H2,1-4H3	InChI=1S/C9H16/c1-7-5-8(2)9(3,4)6-7/h6,8H,5H2,1-4H3/t8-/m0/s1
