14
gdb 7015	4.20262	1.27985	1.00857	4.3303	65.78	-0.2555	-0.027	0.2284	1089.9999	0.106156	-378.719458	-378.711246	-378.710301	-378.752772	28.938	
N	 0.4927906946	 0.9054872729	-1.7281189202	-0.495454
C	-0.0194747605	 0.3177046982	-0.7312657714	 0.378414
C	-1.4793583016	-0.1340886882	-0.798000172	-0.409669
C	-2.1856595801	-0.1274781437	 0.477173829	 0.268525
C	-2.7324170313	-0.1386379374	 1.5482944611	-0.4321
N	 0.6246793327	-0.0346807848	 0.4705165124	-0.337622
C	 1.944744881	 0.1764681672	 0.7815335741	 0.166734
O	 2.7746911135	 0.6673441401	 0.0500612223	-0.296786
H	 1.48073007	 1.1020720597	-1.5625911805	 0.255286
H	-1.972631451	 0.5108318577	-1.5294313946	 0.173944
H	-1.4981402028	-1.1499845401	-1.215791354	 0.160933
H	-3.2434105766	-0.1340519408	 2.4797451988	 0.209357
H	 0.0333986378	-0.408172364	 1.2013234259	 0.261709
H	 2.1770948444	-0.1667322668	 1.8077213292	 0.096729
54.7731	90.6647	141.3657	240.6038	261.1491	332.9492	344.8536	463.9756	513.0866	606.9742	629.9917	648.1955	668.5005	770.7869	912.7114	936.7087	982.8039	991.2243	1026.7155	1076.7943	1196.9496	1213.8309	1309.648	1340.2488	1439.1348	1452.1204	1520.1773	1734.4735	1813.3907	2234.7474	2953.7358	3025.4073	3104.0096	3484.5381	3500.7129	3579.2146
N=C(CC#C)NC=O	N=C(CC#C)NC=O	
InChI=1S/C5H6N2O/c1-2-3-5(6)7-4-8/h1,4H,3H2,(H2,6,7,8)	InChI=1S/C5H6N2O/c1-2-3-5(6)7-4-8/h1,4H,3H2,(H2,6,7,8)
