20
gdb 79744	2.33625	1.7341	1.3316	2.5435	77.6	-0.2189	0.0716	0.2905	1046.5746	0.171704	-403.09848	-403.090264	-403.08932	-403.130662	32.894	
C	-0.0715441609	 1.5559126559	 0.082556243	-0.431561
C	 0.088757223	 0.0498536011	-0.0332961755	-0.080924
C	 0.6598452489	-0.7917315218	-1.1821498907	-0.125061
C	 1.646399755	-0.3067329044	-2.2122265938	-0.022764
C	 2.1745989914	 1.0824800235	-2.2272572479	-0.261688
N	 2.9382578892	 0.0203870978	-1.5596836406	-0.091601
C	 2.7311154909	-0.1186503154	-0.099222497	-0.253122
C	 1.3491732233	-0.7528666953	 0.1607660232	 0.3543
O	 1.3226687513	-1.8728642901	 0.9985798284	-0.459878
H	 0.8792580008	 2.0853271947	 0.1784728731	 0.127239
H	-0.6072790336	 1.9789220813	-0.7734083228	 0.128752
H	-0.6539006517	 1.7905719872	 0.9796895904	 0.11523
H	-0.7614394068	-0.4811219121	 0.3924716338	 0.092161
H	 0.0723716045	-1.6615413074	-1.4527755408	 0.096417
H	 1.7064957049	-0.9022303578	-3.1196121992	 0.090346
H	 2.6459230496	 1.4633995898	-3.1303893928	 0.11166
H	 1.6866253736	 1.844805286	-1.6339703602	 0.109769
H	 3.4783308105	-0.8165563904	 0.2892511253	 0.120201
H	 2.8812353971	 0.8440033787	 0.4046134454	 0.099002
H	 1.1836884988	-1.5690901813	 1.9018098483	 0.281521
141.2336	179.9815	205.1402	250.6663	275.653	314.8241	383.3301	403.6213	465.9404	566.6345	622.8124	675.079	689.9208	753.3018	800.7223	823.3933	888.9503	917.1334	965.4403	986.8973	1004.6982	1029.9012	1049.5905	1089.8447	1104.0977	1117.7887	1129.1157	1144.0886	1155.333	1212.1971	1236.2274	1272.5871	1285.732	1310.4169	1340.8651	1364.6225	1384.1486	1414.9497	1459.0388	1492.2559	1497.6906	1504.3734	1523.1133	3030.8395	3036.8249	3085.2843	3092.3584	3107.3651	3117.043	3121.7876	3136.3003	3179.9505	3227.3689	3800.6541
CC1C2C3CN3CC12O	C[C@H]1[C@H]2[C@H]3CN3C[C@@]12O	
InChI=1S/C7H11NO/c1-4-6-5-2-8(5)3-7(4,6)9/h4-6,9H,2-3H2,1H3	InChI=1S/C7H11NO/c1-4-6-5-2-8(5)3-7(4,6)9/h4-6,9H,2-3H2,1H3/t4-,5+,6-,7+,8?/m0/s1
