17
gdb 52984	4.5606	0.91935	0.84634	1.9992	83.69	-0.2345	-0.0014	0.233	1405.6817	0.134848	-384.655321	-384.64678	-384.645836	-384.689841	31.24	
C	 0.0289219668	 1.4662501678	 0.0947589251	-0.510108
C	-0.0186977136	 0.0149636493	 0.0071679363	 0.276617
C	-0.0684599464	-1.1871407653	-0.0547497104	-0.154735
C	-0.079259083	-2.6170678293	-0.1526470836	 0.240712
C	 0.9562362694	-3.3457000533	-1.0181352107	-0.349054
C	 0.2411224907	-4.6155474303	-1.4272022363	-0.082028
C	-1.012108136	-4.6637899498	-0.9689011823	-0.078933
C	-1.300280071	-3.4656799374	-0.1278397927	-0.07071
O	-0.4449413969	-3.3571798836	 1.0274317147	-0.293741
H	 0.9756619886	 1.856616281	-0.2944196888	 0.150739
H	-0.7828108364	 1.9288184848	-0.4776417884	 0.150265
H	-0.0650778399	 1.7998290983	 1.1340301847	 0.155128
H	 1.2388550068	-2.7357686803	-1.8843107877	 0.122097
H	 1.8728682337	-3.5441578933	-0.450823549	 0.1308
H	 0.7285014399	-5.3901744042	-2.0083371611	 0.104711
H	-1.72649456	-5.4598404357	-1.1368774437	 0.104709
H	-2.2993699127	-3.0606173887	 0.0002753838	 0.10353
25.7784	91.7841	97.6869	246.5752	295.721	345.7659	364.7246	432.1135	504.9664	525.3276	569.3251	710.2004	732.7901	799.6304	859.4954	896.68	942.0869	949.5038	954.0648	991.8546	1005.7691	1052.0542	1054.3665	1086.2018	1139.664	1176.1274	1221.7026	1270.2298	1311.7914	1365.2299	1408.6162	1418.6392	1458.545	1475.8237	1477.4235	1661.9166	2370.0505	3027.5664	3038.6266	3074.7567	3088.1876	3090.9892	3166.2364	3193.4647	3221.5195
CC#CC12CC=CC1O2	CC#C[C@]12CC=C[C@H]1O2	
InChI=1S/C8H8O/c1-2-5-8-6-3-4-7(8)9-8/h3-4,7H,6H2,1H3	InChI=1S/C8H8O/c1-2-5-8-6-3-4-7(8)9-8/h3-4,7H,6H2,1H3/t7-,8+/m1/s1
