17
gdb 57717	3.65753	0.87454	0.86082	1.3691	70.73	-0.283	0.0006	0.2836	1368.1256	0.134043	-455.171582	-455.16174	-455.160796	-455.206587	34.789	
C	-0.1582630134	 1.5496065308	 0.0173096643	-0.408218
C	-0.1678826097	 0.0122431166	 0.0109678471	 0.072329
N	 0.2399337013	-0.4809025944	 1.3290975314	-0.517365
C	-1.5914084902	-0.5282137453	-0.2862113269	-0.088241
O	-2.5393174897	 0.0395109226	 0.6014045374	-0.182456
C	-2.8183515117	-0.6336504087	 1.7451384991	 0.192593
O	-3.5184727582	-0.178085461	 2.5943794698	-0.269961
C	 0.7189450395	-0.4877919035	-1.0671921494	 0.250526
N	 1.4165482746	-0.9169217302	-1.8835356665	-0.329219
H	 0.8526688478	 1.9225007243	 0.2036611412	 0.133437
H	-0.4942335145	 1.9429849408	-0.9447627151	 0.141919
H	-0.8261798491	 1.9070093916	 0.8022409689	 0.163398
H	 0.4900276798	-1.4645897728	 1.2870417173	 0.246048
H	 1.0592730275	 0.0195092676	 1.6585366253	 0.248728
H	-1.8963793297	-0.2507462205	-1.297507255	 0.143451
H	-1.5911846512	-1.6234135304	-0.2135049573	 0.123312
H	-2.356100103	-1.6363374373	 1.7740729784	 0.079719
69.8525	74.8054	150.6091	189.6964	197.5158	230.106	273.6029	300.4987	319.558	388.9158	400.9671	445.302	565.1921	584.76	680.838	748.0169	859.2363	890.777	972.9291	1012.0197	1027.6422	1045.6075	1069.4612	1139.6472	1174.7588	1222.2959	1313.3014	1349.9416	1393.5319	1412.1312	1430.3213	1485.6772	1490.7702	1496.5761	1663.0884	1875.0364	2343.1824	2980.4027	3028.9171	3056.6461	3115.1728	3130.2044	3155.69	3500.8685	3582.206
CC(N)(COC=O)C#N	C[C@@](N)(COC=O)C#N	
InChI=1S/C5H8N2O2/c1-5(7,2-6)3-9-4-8/h4H,3,7H2,1H3	InChI=1S/C5H8N2O2/c1-5(7,2-6)3-9-4-8/h4H,3,7H2,1H3/t5-/m0/s1
