20
gdb 103449	2.50921	1.57406	1.2721	1.5266	77.84	-0.2356	0.0153	0.2509	1088.7415	0.171154	-403.150527	-403.141903	-403.140959	-403.183698	32.913	
C	-0.492014727	 1.3193396597	 0.0987341746	-0.383125
C	 0.2793037605	 0.0079146224	-0.1021565399	-0.254963
C	 0.8537717742	-0.5620396384	 1.1850473649	 0.275122
C	 2.0948917218	 0.1438682912	 1.7068198295	-0.45716
C	-0.039137799	-1.0964278996	 2.2742988021	 0.01373
O	-1.3720729556	-1.4508386791	 1.9141873209	-0.209573
C	-1.2424593815	-2.4792604561	 1.0341670803	 0.087122
N	-0.0781937837	-2.905617871	 0.7509970558	-0.256623
C	 0.8377034338	-2.0643671465	 1.4845631948	-0.095067
H	 0.1384709486	 2.1014393178	 0.5341999356	 0.113559
H	-0.8700728066	 1.6967313959	-0.8564401496	 0.112297
H	-1.3474874236	 1.167948086	 0.763913205	 0.128815
H	-0.3735199594	-0.7260267678	-0.5823574075	 0.115579
H	 1.109967183	 0.1679183304	-0.8013305575	 0.096847
H	 1.9031155632	 1.207853402	 1.8817379567	 0.124001
H	 2.4399896275	-0.2874499844	 2.6520653612	 0.116221
H	 2.9158362862	 0.0619401023	 0.9857206945	 0.124856
H	 0.0480278923	-0.8064008518	 3.3144949344	 0.106766
H	-2.1772133666	-2.8611665489	 0.6422809696	 0.143679
H	 1.7385637921	-2.5410948842	 1.8537786146	 0.097917
67.8825	153.4697	196.3149	209.5982	255.1241	261.7682	331.7203	364.0161	430.9583	547.5023	629.4441	685.2225	749.6018	783.616	838.7368	869.7836	883.9409	935.4303	955.2217	999.5965	1021.8751	1028.0913	1054.7052	1068.8692	1072.6996	1089.6225	1118.7756	1137.069	1218.4763	1282.9241	1300.0576	1306.5964	1338.5202	1370.9052	1401.3812	1409.3994	1422.0631	1487.0211	1495.8839	1501.4613	1504.5507	1510.5155	1664.2852	3026.9222	3029.9436	3037.4593	3082.963	3093.5714	3098.3766	3105.9028	3113.593	3171.0199	3183.0056	3230.5665
CCC1(C)C2OC=NC12	CC[C@@]1(C)[C@H]2OC=N[C@@H]12	
InChI=1S/C7H11NO/c1-3-7(2)5-6(7)9-4-8-5/h4-6H,3H2,1-2H3	InChI=1S/C7H11NO/c1-3-7(2)5-6(7)9-4-8-5/h4-6H,3H2,1-2H3/t5-,6+,7-/m1/s1
