23
gdb 123077	6.89164	0.41041	0.39302	0.7334	93.79	-0.2408	0.0432	0.284	2835.7959	0.202094	-388.26337	-388.251335	-388.250391	-388.303825	39.956	
C	-0.0017438493	 1.556638264	 0.010636344	-0.379507
C	-0.0150134194	 0.0257038155	 0.0024395788	-0.165791
C	-1.4314296608	-0.5581852439	 0.0127661832	-0.179868
C	-1.4431524438	-2.0799209855	 0.004758796	-0.037139
O	-2.785519737	-2.522091025	 0.0149995596	-0.24632
C	-2.8894556964	-3.9332538523	 0.0086026735	-0.207185
C	-4.288675817	-4.3377350115	 0.0194046251	 0.00046
C	-5.4375879267	-4.6947925497	 0.0283709205	 0.13633
C	-6.8291403761	-5.1209602113	 0.0397161932	-0.498663
H	 1.0207592541	 1.9468206323	 0.0030060348	 0.111077
H	-0.5198215868	 1.9614487882	-0.8657392356	 0.11574
H	-0.5029719524	 1.951838038	 0.9010835728	 0.115739
H	 0.5242145075	-0.3393003852	-0.881827661	 0.095855
H	 0.5409367942	-0.3488314339	 0.8722495296	 0.095852
H	-1.9763524648	-0.2095847553	 0.898571837	 0.105611
H	-1.9930320761	-0.2002184334	-0.8587710037	 0.105617
H	-0.9198782826	-2.4648179832	-0.8888288211	 0.082147
H	-0.9032429587	-2.4742667427	 0.8842199169	 0.082145
H	-2.3857389548	-4.3491527096	-0.8821240098	 0.109999
H	-2.3693888728	-4.3583843319	 0.885465741	 0.110012
H	-6.9059432945	-6.2139178519	 0.0345556226	 0.148707
H	-7.3506516165	-4.7568539619	 0.931644803	 0.149594
H	-7.3679524194	-4.7472996998	-0.8378607505	 0.149586
19.6413	35.3557	55.0257	65.7655	122.4343	135.2821	138.4197	211.2347	250.8887	272.4804	282.7301	378.3857	383.6862	459.9187	539.0687	742.6177	795.9853	813.007	905.9943	951.2716	1019.3211	1029.673	1031.3452	1052.7451	1054.1406	1073.125	1134.5172	1146.4156	1180.8585	1194.7688	1247.9218	1259.5928	1292.8421	1309.4534	1323.2517	1379.3083	1396.7675	1411.3901	1414.6835	1449.7835	1476.5163	1479.8289	1486.2216	1493.7912	1499.9275	1500.1423	1510.3344	1529.7624	2380.5611	2933.7167	2945.5526	2955.1481	2961.9004	3012.5125	3027.9474	3028.7643	3032.9817	3038.7533	3074.5883	3089.1343	3089.556	3097.6953	3102.4343
CCCCOCC#CC	CCCCOCC#CC	
InChI=1S/C8H14O/c1-3-5-7-9-8-6-4-2/h3,5,7-8H2,1-2H3	InChI=1S/C8H14O/c1-3-5-7-9-8-6-4-2/h3,5,7-8H2,1-2H3
