15
gdb 18893	4.48088	2.38103	2.00979	1.1744	62.07	-0.2242	0.0628	0.287	690.2535	0.120513	-362.59198	-362.586268	-362.585324	-362.621289	24.048	
O	-0.1215944146	 1.3210650679	-0.1048510766	-0.474054
C	 0.0343052129	-0.0555490052	-0.065434932	 0.376729
C	 1.1108548725	-0.7886428379	-0.8474758987	-0.306498
C	 0.7382321624	-2.1931685664	-0.4453945357	-0.045358
C	-0.7282287462	-2.3174822918	-0.2239705768	-0.049269
C	-1.2327663422	-0.8897549909	 0.0205831214	-0.140995
C	-0.278483288	-0.8395844282	 1.1902112229	-0.094047
N	 0.1944457786	-2.2541593072	 0.9581685683	-0.165308
H	 0.5899223424	 1.7203118384	 0.4084165257	 0.287981
H	 1.0270373178	-0.6272834176	-1.9271046354	 0.114634
H	 2.1210100648	-0.5114342245	-0.5243296163	 0.100929
H	 1.33623919	-3.0514092271	-0.7286401108	 0.098915
H	-1.3289846821	-3.1951059993	-0.4331765627	 0.096389
H	-2.2267937788	-0.4845858406	-0.0992840195	 0.101854
H	-0.3686415695	-0.4344630997	 2.1895908064	 0.098097
272.6112	315.7489	355.8489	428.4742	533.8981	588.2653	698.9955	746.5301	753.4688	788.4182	802.8505	863.9893	895.5039	919.2222	943.8746	963.9593	993.9148	1024.3995	1038.9817	1057.5827	1065.7787	1151.4836	1154.605	1166.4245	1222.4743	1236.7861	1286.0181	1309.6714	1331.1542	1366.1476	1425.8554	1489.4544	3040.4097	3088.9608	3173.1219	3189.3403	3198.0026	3226.9854	3789.7909
OC12CC3C4C1C2N34	O[C@]12C[C@@H]3[C@@H]4[C@H]1[C@H]2N34	
InChI=1S/C6H7NO/c8-6-1-2-4-3(6)5(6)7(2)4/h2-5,8H,1H2	InChI=1S/C6H7NO/c8-6-1-2-4-3(6)5(6)7(2)4/h2-5,8H,1H2/t2-,3+,4-,5-,6-,7?/m1/s1
