14
gdb 26921	3.15878	1.45331	0.99536	2.6482	73.66	-0.1808	-0.0476	0.1332	1093.8836	0.101989	-470.038526	-470.030675	-470.029731	-470.070715	29.947	
O	-0.1046644883	 1.3300818006	 0.008876254	-0.41221
C	 0.034291841	-0.0065448439	-0.000274011	 0.404
C	 1.2246734509	-0.6791231385	-0.0144942037	 0.249445
O	 2.3862038298	 0.0545845449	-0.0199144597	-0.466738
N	 1.2684737395	-2.0216016745	-0.0229619175	-0.290342
C	 0.1613797108	-2.7119128524	-0.0176328799	-0.113222
C	-1.1722245534	-2.1224672075	-0.00262069	 0.340121
N	-2.3285295244	-2.6844514412	 0.0038906084	-0.57155
N	-1.1185816222	-0.7205431433	 0.0054672142	-0.37391
H	 0.7837014516	 1.7116417693	 0.0033665196	 0.326117
H	 3.1121899123	-0.5801119224	-0.0310184705	 0.302392
H	 0.2340057941	-3.7957862683	-0.0247840652	 0.117672
H	-2.2243645622	-3.69688405	-0.003073408	 0.212212
H	-2.0030048095	-0.2305515829	 0.0158058994	 0.276013
108.6918	164.0166	244.7531	275.6531	331.9503	344.0698	430.929	471.0135	495.5481	513.619	608.4434	610.6231	670.3761	728.2857	745.2364	762.5867	814.3577	878.5886	961.9004	1094.4138	1148.15	1214.073	1282.7976	1324.2546	1347.1276	1384.7686	1437.3088	1518.0581	1586.1169	1674.1372	1714.0308	3168.6249	3508.7696	3607.7409	3783.8276	3813.0176
OC1=C(O)N=CC(=N)N1	O[C@H]1C(=NC=C([NH])N1)O	
InChI=1S/C4H5N3O2/c5-2-1-6-3(8)4(9)7-2/h1H,(H,6,8)(H3,5,7,9)	InChI=1S/C4H6N3O2/c5-2-1-6-3(8)4(9)7-2/h1,4-5,7,9H,(H,6,8)/t4-/m0/s1
