21
gdb 63984	2.94144	1.48338	1.29804	0.7313	77.61	-0.2432	0.0836	0.3268	1086.7332	0.182597	-424.230507	-424.221931	-424.220987	-424.263245	33.433	
C	 0.2491596448	 1.4971282464	 0.1683698601	-0.436365
C	 0.0757225856	-0.0086481778	 0.1025740489	 0.380433
C	-1.3495695161	-0.4109621951	-0.2644393446	-0.427448
O	 1.0216210461	-0.6319228305	-0.8308247278	-0.353011
C	 1.4192480071	-1.6173273908	 0.1479909572	 0.10127
C	 2.887446538	-1.5353196846	 0.5395260544	-0.2511
C	 2.9147557804	-0.299200768	 1.4499529394	-0.08732
O	 1.6335989321	-0.2500418739	 2.088232203	-0.265595
C	 0.6648675145	-0.8645106463	 1.2638435466	 0.026806
H	 1.2470097089	 1.7743674962	 0.5096184791	 0.128084
H	 0.0843421612	 1.9312679649	-0.8232103506	 0.121368
H	-0.4782296731	 1.9354949332	 0.8589978978	 0.118701
H	-1.6077882159	-0.0218358727	-1.2541085549	 0.124761
H	-1.4574996329	-1.499765898	-0.2913521099	 0.115045
H	-2.0664407395	-0.013096608	 0.4618518887	 0.11541
H	 1.0840890178	-2.6234277027	-0.1233784578	 0.07351
H	 3.1667673111	-2.4378345991	 1.0937144813	 0.10666
H	 3.5420992792	-1.4406042611	-0.3299530959	 0.11701
H	 3.6724025816	-0.3474781793	 2.2366284371	 0.109499
H	 3.0872582226	 0.609657855	 0.858941436	 0.103787
H	-0.0565723934	-1.3804722279	 1.9013219419	 0.078495
114.4994	158.6126	182.4673	225.6262	241.1056	289.5425	332.1546	386.6286	408.4954	525.9312	586.2146	675.6936	749.8268	828.7034	849.9073	865.2687	909.1167	916.6658	937.8421	964.1327	978.305	982.3294	1000.7895	1044.1862	1099.7883	1121.7167	1177.7851	1190.4764	1208.5488	1230.9011	1253.3782	1269.5836	1305.8148	1315.9955	1338.8234	1365.4021	1395.7443	1402.4803	1414.92	1469.7263	1474.419	1476.3957	1495.8468	1500.3611	1523.8703	3017.7061	3032.3009	3044.7024	3046.5178	3060.3924	3085.7798	3092.6134	3102.9789	3108.2132	3112.2514	3116.4902	3144.6719
CC1(C)OC2CCOC12	CC1(C)O[C@H]2CCO[C@@H]12	
InChI=1S/C7H12O2/c1-7(2)6-5(9-7)3-4-8-6/h5-6H,3-4H2,1-2H3	InChI=1S/C7H12O2/c1-7(2)6-5(9-7)3-4-8-6/h5-6H,3-4H2,1-2H3/t5-,6+/m0/s1
