15
gdb 102912	2.53729	1.04345	0.87197	2.7228	66.17	-0.2989	-0.0227	0.2762	1316.3655	0.110941	-453.941153	-453.931691	-453.930747	-453.976694	32.156	
O	-0.0191232608	 1.4339109031	-0.4264042762	-0.402915
C	 0.0039299491	 0.2195093359	 0.2763656115	-0.075738
C	-1.4015267196	-0.373454392	 0.4498885513	-0.057694
O	-2.1377778673	 0.5899661972	 1.1982528994	-0.246384
C	-3.4466767054	 0.2065824377	 1.5711609528	-0.203551
C	-3.4467460755	-0.893968757	 2.5512352734	 0.258268
N	-3.4214744748	-1.7645557364	 3.3100109375	-0.293276
C	-2.0569461846	-0.6365903379	-0.8464404343	 0.286995
N	-2.6041661158	-0.8558058321	-1.8398736644	-0.313782
H	-0.5859235738	 2.0398651057	 0.064219517	 0.299258
H	 0.6201034283	-0.4785618557	-0.2968251407	 0.139363
H	 0.4365056246	 0.3209882041	 1.2824815283	 0.117533
H	-1.3346404367	-1.3218166133	 1.0029223068	 0.143684
H	-3.9099771527	 1.0893838874	 2.0191819343	 0.173771
H	-4.045367535	-0.0903611969	 0.6992579135	 0.174467
41.1624	82.0062	102.7431	142.3155	180.9131	252.5123	294.1164	340.0227	376.1951	407.6025	428.5595	595.7139	608.1957	701.405	849.4067	872.4357	915.4776	997.3503	1035.9044	1068.4868	1102.8222	1132.6133	1235.3825	1285.2465	1322.5354	1353.9507	1393.6498	1401.0838	1424.6112	1474.0403	1490.0086	2358.8045	2361.5527	3004.1261	3016.9984	3028.5966	3103.094	3107.5433	3808.1191
OCC(OCC#N)C#N	OC[C@@H](OCC#N)C#N	
InChI=1S/C5H6N2O2/c6-1-2-9-5(3-7)4-8/h5,8H,2,4H2	InChI=1S/C5H6N2O2/c6-1-2-9-5(3-7)4-8/h5,8H,2,4H2/t5-/m0/s1
