12
gdb 5445	3.77617	1.957	1.29079	3.3031	66.18	-0.2022	0.0046	0.2067	862.3223	0.084092	-377.519384	-377.512342	-377.511398	-377.550438	26.29	
N	 0.1105472784	 1.3644295607	 0.1863890207	-0.604215
C	-0.0198972585	 0.005954042	 0.0578564822	 0.291999
C	-1.0985330276	-0.8417004557	 0.0127826242	 0.066363
N	-0.6104870946	-2.1580443038	-0.0287029772	-0.297689
C	 0.6654565612	-2.0346854853	-0.0159946402	 0.048831
O	 1.1123608722	-0.7346964353	 0.039531531	-0.170005
C	-2.4595818689	-0.4795997718	 0.0045247917	 0.208507
C	-3.6106589046	-0.1212087785	-0.0076055061	-0.421004
H	 0.9114914212	 1.7609241315	-0.2860308529	 0.266537
H	-0.7462375736	 1.8624840528	-0.0118561644	 0.2723
H	 1.4267393937	-2.7965788162	-0.0478174734	 0.151449
H	-4.6302910089	 0.1739788396	-0.0101973556	 0.186926
133.0442	165.0742	253.7254	293.0981	364.8485	459.7369	512.9078	536.6802	598.4515	616.1355	664.8722	684.2027	740.4985	758.8597	783.979	943.8138	1027.3081	1085.5237	1162.0974	1267.6314	1313.2989	1452.9959	1579.2806	1608.8389	1673.4084	2225.8557	3287.8523	3503.9037	3554.9586	3659.1564
NC1=C(N=CO1)C#C	Nc1c(nco1)C#C	
InChI=1S/C5H4N2O/c1-2-4-5(6)8-3-7-4/h1,3H,6H2	InChI=1S/C5H4N2O/c1-2-4-5(6)8-3-7-4/h1,3H,6H2
