15
gdb 46817	2.73427	1.61958	1.15728	2.9697	72.37	-0.2458	-0.0373	0.2085	1038.9491	0.111265	-420.600175	-420.592357	-420.591413	-420.632572	29.676	
O	-0.2489514687	 0.3364714332	-0.9384297285	-0.291191
C	-0.1365649676	 1.3076683675	-0.2428335328	 0.343779
C	-1.2116299713	 1.9234317963	 0.6614798408	-0.335177
C	-0.8269629676	 3.4106136048	 0.81908708	-0.254043
C	 0.6637112476	 3.4470566293	 0.5308532537	-0.017267
O	 1.3934410882	 2.4655280918	 1.2515701125	-0.287756
C	 1.0982494016	 2.1990655574	-0.1486160253	 0.138704
C	 2.1881346263	 2.0767809551	-1.0621423179	 0.20117
C	 3.0826802863	 1.9463894355	-1.853232977	-0.34869
H	-2.1969162102	 1.7655406463	 0.2201304252	 0.136811
H	-1.1920046094	 1.3987238321	 1.6216560049	 0.15114
H	-1.3521647112	 4.0349167481	 0.0884917818	 0.122043
H	-1.0484213427	 3.8074214437	 1.8139366446	 0.125113
H	 1.1851208888	 4.3832635314	 0.3492061201	 0.117626
H	 3.87753447	 1.8291018674	-2.5481020319	 0.197739
95.7841	130.984	163.7963	244.1731	367.4275	388.8228	475.6591	515.024	561.8168	611.2241	624.7805	653.6295	677.1563	682.8606	814.4594	843.7527	886.4976	921.4677	998.5274	1018.4477	1059.1161	1086.0212	1169.8096	1225.9459	1245.6747	1271.9754	1302.1528	1331.327	1421.6293	1452.6494	1486.769	1854.666	2247.6158	3053.6394	3069.225	3097.4835	3129.7037	3157.2431	3500.7322
O=C1CCC2OC12C#C	O=C1CC[C@H]2O[C@@]12C#C	
InChI=1S/C7H6O2/c1-2-7-5(8)3-4-6(7)9-7/h1,6H,3-4H2	InChI=1S/C7H6O2/c1-2-7-5(8)3-4-6(7)9-7/h1,6H,3-4H2/t6-,7+/m1/s1
