24
gdb 9548	2.59462	1.54074	1.44205	0.0893	84.81	-0.275	0.0808	0.3558	1099.1373	0.222766	-314.27514	-314.265628	-314.264684	-314.308431	36.656	
C	 0.2552463953	 1.5565852464	 0.2078789033	-0.395442
C	 0.3057718141	 0.0320019907	 0.0447434961	-0.216621
C	 0.7322387458	-0.4608879806	-1.3503426377	 0.345104
C	-0.1968995038	 0.0601562446	-2.4450446723	-0.464664
C	 2.2655316636	-0.2660641836	-1.5953200891	-0.255776
C	 2.5057697898	-1.7368074649	-1.169706764	-0.235633
C	 0.996119855	-2.0148231482	-1.3915173647	 0.021264
C	 0.2660019322	-2.9733060183	-0.4607599694	-0.418492
H	 1.2083595629	 2.0232624112	-0.0634173128	 0.116346
H	-0.523441059	 2.0084696931	-0.4135666085	 0.117702
H	 0.0414499051	 1.8254799278	 1.2471307712	 0.110012
H	 0.9939647911	-0.3756525696	 0.7956087139	 0.091337
H	-0.6813210621	-0.385198639	 0.2834395363	 0.091657
H	-0.1687885083	 1.1520764177	-2.5224787202	 0.113808
H	 0.0890145533	-0.3438839484	-3.4220446161	 0.105733
H	-1.2376246581	-0.2313289863	-2.2556842389	 0.10752
H	 2.4891521772	-0.1022708907	-2.6538329915	 0.092228
H	 2.7687711878	 0.512822018	-1.0159362521	 0.090514
H	 3.2167413716	-2.324680049	-1.7558630123	 0.090155
H	 2.7850991364	-1.8203844779	-0.1145476019	 0.096136
H	 0.847337145	-2.3487701921	-2.4258785507	 0.062717
H	 0.4025936729	-2.7075275286	 0.592256646	 0.112457
H	-0.8109986526	-2.9936437798	-0.6634619833	 0.11138
H	 0.642563515	-3.9942361926	-0.5919689111	 0.11056
116.6851	134.6205	186.6129	198.1691	224.4147	241.5801	272.8907	315.9218	357.2415	368.8121	452.329	503.3893	598.41	689.2129	768.481	795.3318	863.3355	892.2528	895.1331	930.8098	955.8946	1003.5845	1021.3635	1030.8262	1040.0377	1087.8391	1120.0412	1165.0163	1173.8239	1211.8404	1221.8217	1251.5788	1267.1482	1273.4619	1305.6593	1341.2124	1369.7915	1383.4243	1406.4527	1413.4639	1414.7089	1480.1306	1483.2463	1492.7685	1495.3814	1498.0298	1501.918	1503.7113	1509.1265	1513.9552	3015.2247	3018.1529	3021.309	3026.8482	3037.0441	3047.1994	3050.0157	3053.6699	3083.11	3085.7424	3090.2939	3093.3641	3098.5572	3100.5351	3107.5975	3111.196
CCC1(C)CCC1C	CC[C@@]1(C)CC[C@H]1C	
InChI=1S/C8H16/c1-4-8(3)6-5-7(8)2/h7H,4-6H2,1-3H3	InChI=1S/C8H16/c1-4-8(3)6-5-7(8)2/h7H,4-6H2,1-3H3/t7-,8+/m1/s1
