14
gdb 128498	2.83445	1.31999	0.90578	4.3818	68.74	-0.2524	-0.0415	0.2109	1200.8455	0.10007	-473.821572	-473.813412	-473.812468	-473.854989	28.26	
C	 0.0094600884	 1.4202806668	-0.0338736314	-0.257571
O	 0.0154599355	-0.0194038907	-0.0269117288	-0.254279
C	 0.5927900968	-0.6325245824	-1.0379365027	 0.519902
C	 0.7363518864	-1.9852022689	-1.2743336845	-0.110299
C	 0.2868632869	-3.1050361509	-0.4671526638	 0.063655
O	 0.4619273375	-4.2688615289	-0.7614195345	-0.28833
C	 1.4390198851	-1.9973698266	-2.5139242314	-0.004018
N	 1.6956928177	-0.808024268	-2.9821531096	-0.149803
O	 1.139386122	 0.0869023876	-2.0114897403	-0.23331
H	 1.0314914398	 1.8067566148	-0.0308047657	 0.157409
H	-0.5228248848	 1.7960046449	-0.9110466487	 0.157403
H	-0.509426995	 1.7088191195	 0.8788294039	 0.155953
H	-0.2438885041	-2.8184094259	 0.465716831	 0.077073
H	 1.7611926079	-2.8656495015	-3.0715183234	 0.166213
82.3908	140.2852	150.6712	163.6574	241.6083	247.7335	327.8857	398.2467	586.4405	634.3754	667.0541	738.0465	798.4535	855.2446	936.6223	944.2169	1023.6485	1037.148	1175.0332	1189.3033	1204.5859	1209.038	1324.6781	1427.0353	1441.9603	1477.5842	1486.6624	1495.4772	1573.5326	1649.3196	1780.9842	2901.4535	3054.9674	3134.6457	3174.1692	3251.4655
COC1=C(C=O)C=NO1	COc1c(C=O)cno1	
InChI=1S/C5H5NO3/c1-8-5-4(3-7)2-6-9-5/h2-3H,1H3	InChI=1S/C5H5NO3/c1-8-5-4(3-7)2-6-9-5/h2-3H,1H3
