14
gdb 21281	7.32578	1.3716	1.17243	1.1102	60.95	-0.2492	-0.0202	0.229	992.2835	0.108	-412.019782	-412.012218	-412.011274	-412.052076	25.697	
C	-0.0015965981	 1.3455156215	-0.0201852627	-0.236783
O	-0.0258397537	-0.0839262779	-0.0782194157	-0.245739
C	 0.6105987624	-0.6263685774	-1.108679074	 0.509263
N	 0.661041455	-1.9454413093	-1.2757224208	-0.355123
N	 1.3767137995	-2.0194704608	-2.3979601465	 0.163686
C	 1.7248804302	-3.27649743	-3.0263347396	-0.314999
N	 1.742435623	-0.8521850283	-2.8921557091	-0.139341
N	 1.2596716718	 0.0609340235	-2.0761867985	-0.300623
H	 1.0252708055	 1.7155631251	 0.0519814793	 0.143423
H	-0.4724400602	 1.7798906459	-0.9068795256	 0.143421
H	-0.56350278	 1.6108638735	 0.8752873264	 0.13805
H	 0.8162690712	-3.816986504	-3.3003611043	 0.161754
H	 2.3087248306	-3.0423365694	-3.9155292155	 0.171173
H	 2.3127038128	-3.8845394525	-2.3353559234	 0.161837
88.8833	114.953	155.2557	201.338	218.0936	349.6032	379.5045	533.0506	675.2574	688.2777	776.7518	780.6149	1035.7504	1046.536	1060.3227	1135.5133	1152.0745	1182.0358	1211.847	1246.3995	1328.2975	1420.9351	1434.8136	1448.912	1472.0554	1474.3599	1482.7278	1499.6395	1512.4113	1607.132	3042.8572	3064.5278	3114.7578	3136.7361	3156.6772	3177.6952
COC1=NN(C)N=N1	COc1nn(C)nn1	
InChI=1S/C3H6N4O/c1-7-5-3(8-2)4-6-7/h1-2H3	InChI=1S/C3H6N4O/c1-7-5-3(8-2)4-6-7/h1-2H3
