17
gdb 125975	3.7589	1.23543	1.053	1.7067	74.74	-0.2154	0.0019	0.2173	1145.9986	0.138134	-414.162753	-414.154872	-414.153928	-414.19565	29.34	
C	 0.2400730541	 1.4727911565	-0.5377848956	-0.405961
C	-0.0642679762	 0.0793046971	-0.0432687249	 0.021097
C	 1.0068135194	-0.9583262549	 0.0357130762	-0.261247
N	 0.4233422855	-0.4037135511	 1.2526516171	-0.155987
C	 1.184106446	 0.3943110459	 2.0996859813	 0.348409
N	 0.7062185321	 1.5185219021	 2.6433223997	-0.292996
N	 1.6972074169	 1.9009509478	 3.449297897	-0.069917
N	 2.7705310789	 1.1309335278	 3.4845704272	-0.191311
C	 2.471990888	 0.1544797173	 2.6270638492	-0.131817
H	 1.2894081353	 1.7370713296	-0.3829967134	 0.125094
H	 0.0244356995	 1.539614748	-1.609165106	 0.120179
H	-0.3715736948	 2.2144420643	-0.0157925577	 0.14346
H	-1.0757746393	-0.2639884328	-0.2520170098	 0.09939
H	 0.7890166702	-2.005988743	-0.152271684	 0.121412
H	 2.0148061433	-0.6438255084	-0.2299319363	 0.119253
H	 1.6266517811	 2.7364926958	 4.0056421701	 0.291198
H	 3.1586156	-0.653301712	 2.43385498	 0.119744
60.5529	125.68	173.1312	220.794	306.8508	382.6064	435.3112	468.0265	533.6185	587.78	712.2842	746.0678	808.1078	854.7616	880.742	913.353	986.3594	1003.3504	1035.1122	1050.2286	1125.7527	1132.6626	1160.2651	1170.5703	1190.2666	1203.2421	1254.6968	1290.4601	1383.0926	1395.8074	1409.5271	1424.0599	1486.6415	1493.1088	1504.3192	1513.2694	1578.7746	3042.009	3096.5173	3109.0213	3114.5023	3131.9516	3185.7209	3274.9655	3678.0804
CC1CN1C1=NNN=C1	C[C@H]1CN1c1n[nH]nc1	
InChI=1S/C5H8N4/c1-4-3-9(4)5-2-6-8-7-5/h2,4H,3H2,1H3,(H,6,7,8)	InChI=1S/C5H8N4/c1-4-3-9(4)5-2-6-8-7-5/h2,4H,3H2,1H3,(H,6,7,8)/t4-,9?/m0/s1
