14
gdb 125457	3.05831	1.49799	1.01168	0.3729	69.38	-0.2451	-0.0855	0.1595	1093.7777	0.100403	-469.994593	-469.986743	-469.985799	-470.027234	29.095	
C	 0.0797600577	 1.4650406636	 0.0084449884	-0.46435
C	 0.0423208203	-0.0261606127	-0.0196000349	 0.290669
N	-0.0054709484	-0.6565192081	-1.1412792967	-0.316313
C	-0.0372903853	-2.0355634552	-1.0629274972	 0.476255
O	-0.0859914206	-2.6252695532	-2.265566704	-0.383578
N	-0.0256967369	-2.7905234815	-0.0184056796	-0.211878
O	 0.0266356847	-2.107867695	 1.213669117	-0.27387
C	 0.0617969204	-0.7450381595	 1.2723521755	 0.375152
N	 0.1089388978	-0.1176333617	 2.376255712	-0.517445
H	 0.9766769942	 1.8053274185	 0.5352856822	 0.163523
H	 0.0609640916	 1.8560785408	-1.0085565667	 0.146252
H	-0.7687920229	 1.8481541676	 0.5838153007	 0.163507
H	-0.1051969758	-3.581766404	-2.1185443954	 0.316544
H	 0.1156456233	-0.7670762097	 3.1653290388	 0.235531
69.5099	141.797	202.1397	298.3257	306.4677	371.2879	381.9278	500.2875	520.2104	541.4986	572.6169	673.8897	681.743	780.3004	813.866	880.9541	924.4649	992.2199	1051.7139	1070.3388	1072.3534	1213.3179	1269.5475	1371.4578	1407.6028	1449.6712	1456.4879	1460.623	1626.2854	1681.4118	1715.5892	3052.7249	3109.9619	3164.8841	3472.4208	3772.1036
CC1=NC(O)=NOC1=N	CC1=C(ON=C([N]1)O)[NH]	
InChI=1S/C4H5N3O2/c1-2-3(5)9-7-4(8)6-2/h5H,1H3,(H,7,8)	InChI=1S/C4H5N3O2/c1-2-3(5)9-7-4(8)6-2/h5H,1H3,(H,7,8)
