14
gdb 127197	2.40725	2.04515	1.11343	4.3298	67.66	-0.2656	-0.0826	0.183	999.7512	0.102087	-466.185303	-466.177439	-466.176495	-466.218188	28.381	
C	-0.0557488385	 1.4635682793	 0.0088385422	-0.339548
N	-0.0312504723	-0.0002590268	 0.0007879317	-0.193195
C	-1.246180893	-0.6647964783	 0.0045219879	 0.515014
N	-2.3509758285	-0.0349728198	 0.0146941004	-0.557481
N	-1.0807240624	-2.0517970724	-0.0040760095	-0.312916
N	 0.0822712223	-2.7284081375	-0.0145049298	-0.001374
N	 1.1716132724	-2.1032258122	-0.0174407686	-0.248369
C	 1.1938723068	-0.6668843212	-0.0097570207	 0.491265
O	 2.2509641081	-0.0894093818	-0.0126158446	-0.343137
H	 0.9771683418	 1.8025291917	 0.0026668898	 0.172899
H	-0.592086222	 1.8281205636	-0.8697577869	 0.155047
H	-0.5781951891	 1.8188326233	 0.8995658507	 0.154966
H	-3.1528479065	-0.6609033472	 0.0160635554	 0.223049
H	-1.8941333589	-2.6474392607	-0.002405928	 0.283779
78.9212	106.9768	137.6844	218.8733	342.9071	399.913	419.3148	517.5785	554.6592	585.9837	592.8885	693.3452	716.2003	770.9336	801.5865	904.1392	976.3637	1065.5754	1081.914	1157.5849	1160.8016	1207.4317	1316.0661	1395.9785	1433.9073	1467.4062	1488.195	1503.8691	1596.6379	1736.3363	1819.5405	3068.0132	3133.3135	3195.1289	3522.1901	3642.9279
CN1C(=N)NN=NC1=O	CN1[C]([NH])NN=NC1=O	
InChI=1S/C3H5N5O/c1-8-2(4)5-7-6-3(8)9/h1H3,(H2,4,5,6,9)	InChI=1S/C3H5N5O/c1-8-2(4)5-7-6-3(8)9/h1H3,(H2,4,5,6,9)
