23
gdb 104451	2.33744	1.36232	1.29673	1.6371	81.36	-0.2528	0.0839	0.3367	1187.6378	0.205617	-425.445066	-425.435646	-425.434702	-425.47871	36.595	
C	-0.1136786799	 1.5732016342	 0.0116662155	-0.38756
C	-0.064475609	 0.0444891151	 0.0028725764	-0.19292
C	-1.4440785951	-0.6235952358	 0.0125076702	 0.44419
C	-1.307727376	-2.1548634724	 0.0029701127	-0.433017
O	-2.0899374344	-0.1738781528	 1.1974206362	-0.285591
C	-3.4836219222	-0.4362742533	 1.2709425641	-0.084718
C	-4.2002989874	 0.1220913091	 0.0429420832	-0.205658
C	-3.5073582527	-0.4229593096	-1.204509743	-0.084718
O	-2.1124913961	-0.1612365146	-1.1549066406	-0.285593
H	 0.8988349833	 1.988151698	 0.0041403677	 0.101538
H	-0.6452535218	 1.9480103713	-0.8661256813	 0.124678
H	-0.6281552746	 1.9383850652	 0.9035896105	 0.12468
H	 0.4668490543	-0.3130721859	-0.8857282891	 0.099968
H	 0.4838023837	-0.3226624219	 0.8771488174	 0.099965
H	-0.7508517736	-2.4799697742	 0.8854698815	 0.123671
H	-2.2732131975	-2.6656674339	 0.0094369367	 0.113822
H	-0.7678302064	-2.4704056736	-0.8934415836	 0.123671
H	-3.6780042928	-1.5167037763	 1.3646966253	 0.088861
H	-3.82740847	 0.0393202369	 2.1938087509	 0.108761
H	-5.2595194889	-0.158141513	 0.0515910709	 0.095524
H	-4.1318657976	 1.2151216205	 0.0481664355	 0.112822
H	-3.7036232586	-1.5023360266	-1.3061403137	 0.088861
H	-3.8687236365	 0.0625047736	-2.1154440134	 0.108761
95.7784	126.8164	177.8043	207.6525	243.7692	253.5045	314.5252	346.7137	388.3855	418.1965	480.481	481.7972	566.2893	620.0999	728.0479	766.2666	864.786	871.4554	898.4874	901.617	962.2965	984.2228	1003.4562	1047.9189	1048.6548	1075.5233	1134.3633	1150.6074	1179.1955	1184.9225	1239.3813	1267.6015	1271.0224	1311.1682	1315.1316	1373.8388	1383.3982	1398.7838	1398.984	1403.2984	1418.6594	1467.1836	1470.2658	1485.9887	1487.4032	1493.3091	1513.7741	1514.8538	1519.8343	2977.6809	2980.7638	3040.8479	3042.8308	3049.4045	3055.2053	3082.3659	3082.6205	3083.514	3094.0328	3117.0183	3127.4566	3128.926	3135.1181
CCC1(C)OCCCO1	CCC1(C)OCCCO1	
InChI=1S/C7H14O2/c1-3-7(2)8-5-4-6-9-7/h3-6H2,1-2H3	InChI=1S/C7H14O2/c1-3-7(2)8-5-4-6-9-7/h3-6H2,1-2H3
