16
gdb 45345	2.46476	1.79408	1.17189	5.7573	69.84	-0.2448	-0.0311	0.2137	1019.2881	0.125806	-437.93788	-437.930467	-437.929522	-437.970327	28.14	
O	 0.1190509341	 0.2732498949	-1.0444094116	-0.279745
C	 0.0651125667	 1.2297878681	-0.3338202702	 0.414818
C	-1.056061819	 1.8988834875	 0.4800911774	-0.361364
C	-0.1219737401	 3.1348260912	 0.6705813965	-0.025393
C	 0.3138917648	 3.4498934498	 2.112640547	-0.187093
N	 1.4260069375	 2.5412689498	 2.3236741409	-0.303816
C	 1.9841389056	 1.9893314802	 1.1984497685	 0.396943
O	 2.9960658332	 1.3321400556	 1.1511535061	-0.361442
C	 1.061847257	 2.3534715619	 0.0208767408	-0.26984
H	-1.9838785221	 2.0626434726	-0.0737915893	 0.136921
H	-1.2937332928	 1.3631018644	 1.4054290653	 0.13679
H	-0.4618254786	 4.0201788257	 0.1353951176	 0.093113
H	 0.6233605818	 4.4984648448	 2.2193162436	 0.113362
H	-0.494198295	 3.2662901007	 2.8305042742	 0.117857
H	 1.9284547401	 2.4842991138	 3.1959151856	 0.256484
H	 1.6435622566	 2.765499949	-0.8044759721	 0.122406
62.9819	131.496	160.2312	319.9154	423.9519	456.0057	474.0391	540.9516	569.5086	670.236	716.6446	743.1432	752.2186	834.4164	883.3875	936.4341	958.7243	1016.6527	1039.4142	1057.2959	1091.7107	1133.3936	1174.5159	1180.1395	1216.309	1232.4276	1241.8764	1278.0537	1304.8353	1368.0885	1434.2086	1450.0117	1533.5395	1829.5943	1902.1761	3007.0914	3050.2904	3054.3067	3110.3606	3117.6134	3127.9113	3636.29
O=C1CC2CNC(=O)C12	O=C1C[C@H]2CNC(=O)[C@@H]12	
InChI=1S/C6H7NO2/c8-4-1-3-2-7-6(9)5(3)4/h3,5H,1-2H2,(H,7,9)	InChI=1S/C6H7NO2/c8-4-1-3-2-7-6(9)5(3)4/h3,5H,1-2H2,(H,7,9)/t3-,5+/m0/s1
