21
gdb 62612	3.76669	1.45285	1.21322	0.2302	86.65	-0.2159	0.0096	0.2254	1090.6953	0.183051	-349.900888	-349.893047	-349.892103	-349.932547	32.547	
C	-0.1214683125	 1.5416645914	 0.0073345992	-0.462673
C	-0.0257504296	 0.0128560306	-0.0002305302	 0.335647
C	-1.4075738521	-0.5546685071	-0.3393150699	-0.462702
C	 1.2190451908	-0.6375234392	-0.6849716252	-0.077659
C	 2.1430046274	-0.1813345249	 0.5104860361	-0.065841
C	 3.1692752024	-1.2780525	 0.732408994	-0.118689
C	 2.4791842372	-2.4034947825	 0.5460474965	-0.118669
C	 1.0764441136	-1.9205706822	 0.222962515	-0.06588
C	 0.7847131721	-0.6737935057	 1.1456502504	-0.07766
H	 0.8201861612	 2.0413521033	 0.2411278963	 0.113209
H	-0.455242286	 1.9082304841	-0.9705896177	 0.111948
H	-0.8627678844	 1.8742303232	 0.7435304467	 0.111941
H	-1.7418150595	-0.1874817219	-1.3168453862	 0.111941
H	-1.441298856	-1.6450836792	-0.3693621205	 0.113203
H	-2.1482665509	-0.2221415123	 0.3975095462	 0.111947
H	 1.4836639153	-0.6241269855	-1.7476479017	 0.059389
H	 2.4534425986	 0.8566016765	 0.6047128324	 0.06117
H	 4.211176998	-1.134733677	 0.9825872858	 0.099412
H	 2.8013714107	-3.433912403	 0.6019366926	 0.099411
H	 0.2998254514	-2.6553364132	 0.0241355826	 0.061166
H	 0.5438061022	-0.7026170654	 2.2136466678	 0.059389
141.6379	199.4493	208.8604	273.7078	286.6969	393.6692	460.3915	505.5683	514.035	581.2956	674.6905	756.6122	771.0135	771.8333	808.4983	866.9539	908.4324	911.3582	922.8292	949.0664	958.828	963.0973	1003.1288	1007.4904	1028.1357	1068.6709	1128.6837	1137.0329	1149.675	1163.0256	1175.8752	1176.8754	1200.6765	1222.4038	1266.8232	1324.3354	1326.3816	1332.2618	1410.6002	1428.4146	1483.619	1490.1759	1509.9569	1511.0915	1641.6545	3025.9468	3031.6661	3054.0203	3059.9326	3077.098	3082.7893	3121.9405	3124.3172	3146.1174	3148.1918	3217.3934	3245.1194
CC1(C)C2C3C=CC2C13	CC1(C)[C@H]2[C@@H]3C=C[C@H]2[C@H]13	
InChI=1S/C9H12/c1-9(2)7-5-3-4-6(7)8(5)9/h3-8H,1-2H3	InChI=1S/C9H12/c1-9(2)7-5-3-4-6(7)8(5)9/h3-8H,1-2H3/t5-,6+,7-,8+
