16
gdb 15605	2.92425	2.06785	1.49339	1.9742	60.12	-0.2508	-0.0456	0.2052	861.2282	0.1304	-420.881986	-420.874402	-420.873458	-420.914483	27.535	
O	 0.3763595762	 1.1873155868	-0.4647283812	-0.442729
C	 0.0500822423	-0.0687869085	 0.0591117899	 0.124872
C	 0.1941223522	-0.2546621433	 1.5828466291	-0.274251
C	-0.6165512533	-1.5291229569	 1.8209418724	-0.071929
O	-1.6379442653	-1.5693217451	 0.7989703808	-0.277785
C	-1.4143390631	-0.5299428329	-0.1443056686	-0.019572
C	-2.4632506282	 0.5479316257	 0.1213848431	 0.150965
O	-2.2811503757	 1.7427850325	 0.0774036374	-0.259583
H	-0.3577010383	 1.7845664602	-0.256473741	 0.297808
H	 0.7003964444	-0.7931626522	-0.4457088331	 0.097495
H	 1.2341611781	-0.3443838022	 1.9014377881	 0.115288
H	-0.2496063508	 0.6050203714	 2.0970703254	 0.114731
H	 0.0064822627	-2.4269633671	 1.7191754496	 0.109536
H	-1.1046138349	-1.5630867668	 2.7997976284	 0.113987
H	-1.5883186593	-0.9221211028	-1.1563841589	 0.11114
H	-3.451475567	 0.1270973913	 0.4052820385	 0.110029
56.9962	104.9852	168.4315	254.6828	346.0476	355.166	461.0073	551.9998	568.4347	676.9468	681.0144	784.9034	842.6051	913.0681	961.0109	990.6135	1006.0073	1084.8602	1100.5274	1136.4923	1148.6537	1186.9658	1223.1312	1264.3736	1295.6747	1302.0036	1353.4778	1371.2047	1388.259	1409.3016	1477.5991	1492.6232	1528.7228	1805.9462	2915.7276	3010.3986	3021.3935	3038.1362	3054.3898	3077.4215	3123.116	3704.6096
OC1CCOC1C=O	O[C@H]1CCO[C@H]1C=O	
InChI=1S/C5H8O3/c6-3-5-4(7)1-2-8-5/h3-5,7H,1-2H2	InChI=1S/C5H8O3/c6-3-5-4(7)1-2-8-5/h3-5,7H,1-2H2/t4-,5-/m0/s1
