19
gdb 85278	2.54342	1.52617	1.13217	3.2709	75.34	-0.2384	-0.0264	0.212	1126.8845	0.158028	-423.051001	-423.04232	-423.041376	-423.084085	33.114	
C	 0.0664689045	 1.5546562899	 0.0257019708	-0.409243
C	-0.0167433815	 0.026612819	 0.0049896484	-0.043112
C	 0.6784217383	-0.6254625006	-1.2161824957	-0.355894
C	 1.2294218338	-1.9622737636	-0.7123176577	 0.417365
O	 1.4056223438	-2.9651084831	-1.3557728205	-0.317711
C	 1.4205067763	-1.8207987521	 0.7741078619	-0.154527
O	 2.082027139	-0.5818184009	 1.1091168967	-0.289934
C	 0.6558834543	-0.6339109781	 1.2167498353	 0.411331
C	 0.0782345589	-0.4895579278	 2.5979397108	-0.490577
H	 1.1107356985	 1.8772887895	 0.0874632019	 0.134134
H	-0.367869381	 1.9802332135	-0.8840353389	 0.120424
H	-0.4725777915	 1.9782024487	 0.8790384461	 0.11688
H	-1.0719082837	-0.2770085266	 0.012585699	 0.083618
H	 0.0175129477	-0.7831260638	-2.0703585822	 0.127897
H	 1.5203396974	-0.0118235839	-1.5563776489	 0.1398
H	 1.6467458499	-2.6797718469	 1.3982709316	 0.108523
H	 0.0512209187	 0.5627396683	 2.8993037719	 0.135498
H	-0.9456876214	-0.8757148384	 2.6304816019	 0.128737
H	 0.6832230081	-1.0347601431	 3.3260785277	 0.136793
95.3372	126.8809	199.3898	227.1997	249.2873	289.4107	312.5706	397.431	481.3062	504.7315	539.9071	565.2532	667.6184	676.534	825.3489	829.1483	862.2347	916.305	931.3343	1008.873	1019.8232	1047.0017	1078.8602	1099.8313	1135.5388	1178.8323	1209.7972	1240.1543	1257.9068	1281.2201	1330.1042	1360.2362	1404.4337	1408.1659	1434.7409	1452.638	1481.5626	1494.4701	1501.1344	1502.6395	1844.7899	3021.7033	3035.7085	3041.2271	3054.3836	3102.5634	3106.4066	3111.2746	3122.3031	3128.567	3172.1582
CC1CC(=O)C2OC12C	C[C@H]1CC(=O)[C@H]2O[C@@]12C	
InChI=1S/C7H10O2/c1-4-3-5(8)6-7(4,2)9-6/h4,6H,3H2,1-2H3	InChI=1S/C7H10O2/c1-4-3-5(8)6-7(4,2)9-6/h4,6H,3H2,1-2H3/t4-,6+,7-/m0/s1
