20
gdb 14148	4.00705	1.49488	1.31068	1.5617	74.68	-0.2463	0.0908	0.3372	1017.9998	0.178045	-348.998396	-348.990448	-348.989504	-349.031031	30.173	
C	-0.0711403516	 1.5129492117	-0.1475645817	-0.409397
C	 0.0456888766	 0.0118343627	-0.0050969509	-0.041001
C	 1.3810542261	-0.6821960939	-0.1457795148	-0.342043
C	 0.6879986387	-0.6432756728	 1.1931965905	 0.338957
C	 1.2652658326	 0.1230825081	 2.3901003281	-0.314561
C	 0.7430739368	-0.6921626984	 3.5869349179	-0.07663
O	 0.6051303979	-2.0212308318	 3.1068041309	-0.243069
C	 0.0697823966	-1.91128134	 1.7978110265	-0.147126
H	 0.8251936112	 2.0232842113	 0.2188463954	 0.116585
H	-0.2018610078	 1.7953354628	-1.19798554	 0.118217
H	-0.9289448262	 1.906249015	 0.4103356227	 0.115397
H	-0.8041577079	-0.5339873599	-0.413001909	 0.079428
H	 1.4280119565	-1.6277228026	-0.67797883	 0.107044
H	 2.2593722859	-0.055479405	-0.2759604234	 0.105992
H	 2.3594710335	 0.111202231	 2.3686553808	 0.107813
H	 0.9423327847	 1.1667353778	 2.4345914036	 0.101798
H	 1.4228077846	-0.7111862206	 4.4423584078	 0.107319
H	-0.2309932797	-0.3008933205	 3.9261290595	 0.085814
H	-1.0301090232	-1.8234071393	 1.838625232	 0.083481
H	 0.3208609347	-2.8260162055	 1.252354854	 0.105981
43.9526	167.4434	199.7507	223.7766	268.7222	338.9826	422.7429	437.0222	512.5163	650.3275	756.664	783.8809	860.5811	884.9851	916.295	930.3036	968.4178	976.5437	995.7084	1046.3123	1065.8584	1090.3851	1108.4456	1132.7283	1137.54	1186.8602	1211.0018	1220.3149	1252.0322	1276.3557	1297.4591	1324.0182	1359.809	1402.554	1410.8199	1429.3101	1488.9332	1490.3495	1493.7835	1503.6111	1509.1747	1522.5261	2946.3896	2962.0119	3026.1261	3049.6688	3074.3008	3085.6158	3091.6497	3094.8206	3101.6854	3110.9936	3115.2389	3195.4586
CC1CC11CCOC1	C[C@H]1C[C@]21CCOC2	
InChI=1S/C7H12O/c1-6-4-7(6)2-3-8-5-7/h6H,2-5H2,1H3	InChI=1S/C7H12O/c1-6-4-7(6)2-3-8-5-7/h6H,2-5H2,1H3/t6-,7+/m0/s1
