19
gdb 83155	3.20408	1.2871	1.12568	2.4529	75.24	-0.2282	-0.0162	0.212	1139.3413	0.159437	-423.033282	-423.025042	-423.024098	-423.066306	31.574	
C	-0.6286064798	 1.2208337333	 0.3557294895	-0.41051
C	-0.0742661837	-0.151404113	 0.0473864052	-0.049256
C	 0.7319851051	-0.4642733778	-1.2056695734	-0.098072
C	 1.2144112314	 0.6245046743	-2.159360552	-0.333926
C	 2.7220232823	 0.8085700304	-2.0342055925	 0.363758
O	 3.4584955481	 1.0073998043	-2.9694626841	-0.303828
C	 3.2665223571	 0.7114897936	-0.6054092686	-0.173691
O	 2.2438248343	 0.6383558198	 0.3744197436	-0.2463
C	 1.394071985	-0.4529764409	 0.1543362514	 0.075726
H	 0.125373709	 1.9983632231	 0.2205390511	 0.133244
H	-1.4910547332	 1.4535960533	-0.2781383338	 0.11768
H	-0.9583948364	 1.2695680119	 1.3985123501	 0.123182
H	-0.716016564	-0.9705924518	 0.3614295297	 0.090548
H	 0.5578705061	-1.4313632651	-1.6657071096	 0.097552
H	 0.9828303755	 0.3935997129	-3.201006512	 0.129825
H	 0.7430125103	 1.5893559024	-1.9348970048	 0.133409
H	 3.9465371721	-0.1533542247	-0.5501272535	 0.121983
H	 3.8562045164	 1.6076911037	-0.3917016127	 0.141172
H	 1.7303085143	-1.38191493	 0.6146765965	 0.087504
63.7211	146.9672	158.7723	211.5976	292.5298	376.5963	421.2752	458.6321	507.5314	540.5931	581.1201	667.9059	760.6996	765.3675	796.9793	874.8848	914.5502	964.258	987.4759	1007.5222	1064.7536	1081.5508	1108.3614	1121.5381	1144.99	1170.6781	1182.9038	1235.7472	1245.1083	1271.2402	1289.7895	1341.5921	1362.7001	1373.1761	1414.5051	1433.2454	1456.4337	1462.4692	1493.3869	1504.9619	1826.2021	2988.161	3037.7637	3039.4535	3095.146	3096.2495	3098.6288	3113.1929	3127.2258	3142.8585	3161.5696
CC1C2CC(=O)COC12	C[C@H]1[C@H]2CC(=O)CO[C@@H]12	
InChI=1S/C7H10O2/c1-4-6-2-5(8)3-9-7(4)6/h4,6-7H,2-3H2,1H3	InChI=1S/C7H10O2/c1-4-6-2-5(8)3-9-7(4)6/h4,6-7H,2-3H2,1H3/t4-,6+,7-/m0/s1
