15
gdb 25787	4.40645	1.05017	0.84894	3.7277	72.37	-0.2069	-0.0237	0.1832	1279.479	0.113378	-454.004405	-453.995777	-453.994833	-454.037846	31.621	
N	-0.1565360452	 1.321537851	 0.0501246086	-0.542492
C	 0.0384023544	-0.0282517761	-0.002833675	 0.307933
O	 1.1389891176	-0.5521621532	-0.033947254	-0.369707
C	-1.1967274953	-0.8336843676	-0.0066057269	 0.315335
C	-1.3672969473	-2.1852372835	-0.0453450196	-0.330109
C	-2.7789277325	-2.4195307614	-0.0278845521	 0.233307
N	-3.403216258	-3.6662546321	-0.1285442331	-0.606327
C	-3.3597494792	-1.1808559538	 0.0197785237	-0.094913
O	-2.4032397297	-0.2053127755	 0.0287975101	-0.203208
H	 0.6503131732	 1.9181115354	-0.0159269548	 0.262263
H	-1.077756686	 1.7191391296	-0.0067515201	 0.268331
H	-0.5740632599	-2.91456531	-0.0855389942	 0.133608
H	-2.8816595803	-4.4060082057	 0.3220088333	 0.251269
H	-4.3572894466	-3.6694838712	 0.2061169329	 0.246611
H	-4.3824484551	-0.8436192459	 0.0422950311	 0.1281
77.748	134.8282	161.6072	166.1214	224.2088	338.4181	345.235	403.4121	516.2984	542.2551	621.6966	628.6653	644.1692	680.4944	714.0142	740.3648	779.4808	856.2212	955.1009	999.7631	1083.8458	1101.6025	1124.9104	1154.9281	1258.1389	1311.2042	1378.0858	1448.5855	1561.4511	1608.9351	1653.3713	1678.4191	1777.095	3268.8582	3278.3161	3548.559	3611.287	3639.1086	3750.2052
NC(=O)C1=CC(N)=CO1	NC(=O)c1cc(N)co1	
InChI=1S/C5H6N2O2/c6-3-1-4(5(7)8)9-2-3/h1-2H,6H2,(H2,7,8)	InChI=1S/C5H6N2O2/c6-3-1-4(5(7)8)9-2-3/h1-2H,6H2,(H2,7,8)
