18
gdb 22274	4.64754	0.81237	0.74795	2.6679	77.6	-0.2438	-0.0189	0.2249	1512.1002	0.144716	-439.05397	-439.044412	-439.043468	-439.0896	34.119	
C	-0.5508574931	 1.6428216107	-0.231867611	-0.482049
C	 0.0487835865	 0.2958196128	 0.1262694645	 0.375349
O	 1.2133529534	 0.1705092207	 0.430524871	-0.296401
C	-0.8890866801	-0.894978614	 0.0474021791	-0.094458
C	-0.9716198425	-1.5617590027	-1.385363992	-0.330474
C	-0.688290429	-2.8811554047	-0.6993705647	 0.421359
C	-0.3661282388	-2.2393472492	 0.6310595769	-0.333859
N	-0.8190265297	-4.0588019644	-1.1431827797	-0.230709
O	-0.5154560248	-5.0064062783	-0.1476191109	-0.392689
H	 0.2326821459	 2.3985708833	-0.2952923361	 0.144705
H	-1.0983277449	 1.5867666579	-1.179194454	 0.140265
H	-1.2772390497	 1.9357698865	 0.5356649684	 0.144136
H	-1.8851329126	-0.6224333264	 0.4048293602	 0.088281
H	-1.9228290445	-1.4754341973	-1.914957525	 0.127652
H	-0.1638036262	-1.239683002	-2.0511065155	 0.132987
H	 0.7067127534	-2.1889487581	 0.8416148169	 0.15201
H	-0.8844352861	-2.6478198089	 1.5011558134	 0.126891
H	-0.6619467772	-5.8387229157	-0.6095462917	 0.307002
36.4087	51.9156	127.6781	150.6469	211.0093	253.0993	284.5263	357.8185	373.808	467.4184	522.7443	581.9201	601.0774	663.185	756.1723	794.5364	896.137	926.6275	938.9878	969.8603	1003.4396	1016.5875	1069.0629	1078.7344	1168.2979	1181.8585	1193.4646	1220.0998	1248.3201	1253.0043	1356.7826	1383.5061	1405.0573	1450.1612	1462.5147	1467.8525	1475.4249	1788.7399	1808.4806	3034.2537	3049.711	3064.1993	3077.8867	3094.5765	3112.699	3120.1815	3153.2563	3819.2558
CC(=O)C1CC(C1)=NO	CC(=O)[C@H]1CC(=NO)C1	
InChI=1S/C6H9NO2/c1-4(8)5-2-6(3-5)7-9/h5,9H,2-3H2,1H3	InChI=1S/C6H9NO2/c1-4(8)5-2-6(3-5)7-9/h5,9H,2-3H2,1H3/t5-
