17
gdb 45248	3.11304	1.71575	1.38049	3.8398	72.22	-0.2476	0.0362	0.2838	950.1849	0.139046	-417.98933	-417.982592	-417.981647	-418.020449	27.252	
N	 0.0746027346	 1.1577296507	 0.3376880964	-0.556107
C	 0.0246784005	-0.0549754408	 0.0305691127	 0.464957
O	 0.9990072099	-0.902939331	-0.4590263317	-0.268157
C	 0.02961499	-1.986670033	-0.6482756088	 0.108798
C	 0.2618339431	-3.2349465901	 0.2145975053	-0.242679
C	-0.5726660015	-3.0289230714	 1.4714594366	-0.036251
N	-0.1854706063	-1.8345771672	 2.2371600337	-0.319103
C	-1.365853212	-1.770056994	 1.3533721184	-0.046761
C	-1.0688686213	-1.1090502505	 0.0150488488	-0.180118
H	 1.0155786143	 1.5335763964	 0.2078761019	 0.225681
H	-0.0648147487	-2.2005722203	-1.7151483321	 0.094886
H	-0.0858537707	-4.123566217	-0.3234450215	 0.105158
H	 1.3258592284	-3.3651371492	 0.4326110054	 0.130751
H	-0.9549818642	-3.8945464867	 2.0041117307	 0.090258
H	-0.4868592734	-1.9238065912	 3.2039766609	 0.235731
H	-2.3504986543	-1.6636742538	 1.7943241693	 0.093973
H	-1.9641870584	-0.8672371908	-0.5571449763	 0.098984
121.9782	162.1491	291.7253	366.7205	424.3044	463.1513	616.3419	679.0082	688.0998	767.7655	803.3457	829.3139	857.2775	866.0126	885.8511	907.0103	937.2557	975.9702	997.0525	1008.1366	1038.4834	1052.4466	1086.2183	1124.1384	1164.0206	1197.5093	1201.2585	1226.8549	1235.9824	1289.404	1302.5172	1337.4045	1356.619	1381.8371	1424.549	1463.962	1829.1101	3049.2839	3085.9522	3102.0814	3122.5589	3154.1427	3177.2523	3474.6844	3507.1944
N=C1OC2CC3NC3C12	[NH][C]1O[C@H]2C[C@H]3N[C@H]3[C@@H]12	
InChI=1S/C6H8N2O/c7-6-4-3(9-6)1-2-5(4)8-2/h2-5,7-8H,1H2	InChI=1S/C6H8N2O/c7-6-4-3(9-6)1-2-5(4)8-2/h2-5,7-8H,1H2/t2-,3+,4+,5-/m1/s1
