19
gdb 113763	3.7941	0.80755	0.74964	1.847	73.57	-0.2708	-0.0422	0.2287	1561.2231	0.156152	-460.150011	-460.140169	-460.139225	-460.185914	34.851	
C	 0.6385106152	 1.4851765599	 0.2103113809	-0.378898
C	-0.2325915071	 0.262824856	-0.1074464848	-0.215685
C	 0.2177406526	-0.4299790195	-1.3689029334	 0.085135
O	 1.4221094652	-1.2148573114	-1.3076620717	-0.269135
C	 0.194360051	-1.8802650965	-1.6146467374	 0.015076
C	-0.2869339822	-2.9178221788	-0.6090836557	 0.01309
O	-1.593345207	-3.318023031	-0.9111481016	-0.430684
C	 0.6534987429	-4.1114017359	-0.6303757345	 0.133291
O	 0.246038506	-5.2246735249	-0.8606170379	-0.261354
H	 1.6819577557	 1.1884477503	 0.351959627	 0.134151
H	 0.6056584209	 2.217634225	-0.6033979936	 0.118843
H	 0.2976607117	 1.982766635	 1.122563384	 0.117956
H	-0.2095311065	-0.4332577967	 0.7361856018	 0.1068
H	-1.2782791495	 0.5678916773	-0.2396133246	 0.113519
H	 0.1709011698	 0.1986053547	-2.2616354912	 0.0952
H	 0.0998357714	-2.2199405313	-2.6478812112	 0.103569
H	-0.2206101423	-2.4920205686	 0.4056444142	 0.099186
H	-1.5480611992	-4.2814683771	-1.0272750792	 0.297371
H	 1.7198937513	-3.8995956665	-0.4269272413	 0.122567
38.7886	72.1835	94.7337	163.2558	175.6325	229.2102	264.6843	323.8906	386.4313	417.6646	471.5724	500.3545	546.6601	744.0812	769.8215	813.8526	835.2785	875.6231	946.8467	1005.1901	1019.1675	1036.2865	1110.4895	1115.6486	1154.9224	1172.4646	1182.6088	1254.2076	1286.1266	1294.5131	1301.9167	1345.2208	1383.1455	1398.8817	1411.1456	1437.1372	1471.949	1489.1412	1499.1545	1509.2866	1810.535	2965.4417	2982.1262	3035.9029	3038.6141	3073.7676	3086.3591	3098.262	3110.6256	3118.2539	3673.9607
CCC1OC1C(O)C=O	CC[C@H]1O[C@H]1[C@@H](O)C=O	
InChI=1S/C6H10O3/c1-2-5-6(9-5)4(8)3-7/h3-6,8H,2H2,1H3	InChI=1S/C6H10O3/c1-2-5-6(9-5)4(8)3-7/h3-6,8H,2H2,1H3/t4-,5+,6-/m0/s1
