18
gdb 46400	4.03937	0.90166	0.78231	4.482	72.56	-0.2307	0.004	0.2347	1438.2913	0.147645	-439.073615	-439.065056	-439.064111	-439.108084	31.271	
O	-0.870030012	 0.3147061608	-0.009426604	-0.314181
C	-0.2830235445	 1.3450390456	 0.0353020884	 0.428528
O	-0.7681679427	 2.5761214892	 0.4075276207	-0.23809
C	 0.5509646288	 3.2005627385	 0.3286829026	-0.101367
C	 1.1456432872	 1.867730705	-0.2212163536	-0.137315
N	 2.2212763669	 1.1537769529	 0.3959778809	-0.297455
C	 3.5460760052	 1.6364829498	 0.1099785283	 0.067886
C	 4.1547719584	 2.8555686423	 0.7797317704	-0.27548
C	 4.6348486936	 1.4594931636	 1.1204361813	-0.292333
H	 0.5348471718	 4.0624953424	-0.3412484006	 0.12359
H	 0.9013946239	 3.4879211618	 1.3230370598	 0.117121
H	 1.3375005201	 1.9363368975	-1.297639153	 0.124777
H	 2.0712450271	 1.0073734602	 1.3869872742	 0.227327
H	 3.8188377137	 1.4777394592	-0.9310237409	 0.101869
H	 4.8050166643	 3.501338925	 0.1992415399	 0.11636
H	 3.563352329	 3.3712155321	 1.5290996245	 0.108389
H	 4.360633183	 1.0586499764	 2.0915845104	 0.116576
H	 5.6125668863	 1.1416117877	 0.7772214406	 0.123799
46.3662	76.3116	118.6588	152.3941	241.7465	350.6795	376.0724	433.3358	558.5922	614.3235	689.065	751.209	763.8363	808.2461	849.4631	868.7248	910.9196	959.3425	975.9619	991.2195	1044.3626	1048.6339	1077.06	1112.1003	1128.105	1158.6293	1181.5447	1192.417	1213.6009	1232.425	1255.1729	1315.4952	1344.9798	1404.6507	1462.7691	1495.8315	1511.3293	1518.0379	1943.3305	3060.6825	3065.758	3128.0712	3130.1799	3131.1301	3134.0734	3208.7554	3223.558	3549.4027
O=C1OCC1NC1CC1	O=C1OC[C@H]1NC1CC1	
InChI=1S/C6H9NO2/c8-6-5(3-9-6)7-4-1-2-4/h4-5,7H,1-3H2	InChI=1S/C6H9NO2/c8-6-5(3-9-6)7-4-1-2-4/h4-5,7H,1-3H2/t5-/m1/s1
