20
gdb 61245	3.39045	0.8335	0.7798	2.6146	81.95	-0.245	0.0506	0.2957	1541.6575	0.168003	-403.08526	-403.074803	-403.073859	-403.121443	37.737	
C	 0.2443898985	 1.6234113912	-0.3652215281	-0.395412
C	 0.1598793908	 0.143827434	-0.0787419585	-0.002535
N	 1.4264459399	-0.6076080104	 0.0129052837	-0.342138
C	 0.5658766687	-0.4936487209	 1.2020806983	-0.049725
C	 1.1326517994	 0.2596618162	 2.3897042249	 0.139034
O	 0.0980217058	 0.7069142171	 3.2507829396	-0.424412
C	 2.1779332315	-0.6108611234	 3.1229663819	-0.391512
C	 2.804966417	 0.0593130494	 4.2534491899	 0.308801
C	 3.3251570861	 0.6210240855	 5.1796561225	-0.437976
H	 1.1237716143	 2.0712038779	 0.1017085242	 0.131582
H	 0.3178103168	 1.7979079409	-1.4439090022	 0.1183
H	-0.6468448083	 2.1412344624	 0.0038906537	 0.125892
H	-0.6604241851	-0.3579738002	-0.5918862352	 0.082573
H	 1.3376490415	-1.5264545768	-0.4112707818	 0.231328
H	-0.0024381128	-1.3804387151	 1.4930085655	 0.069048
H	 1.6320882389	 1.1674175782	 2.0431219817	 0.106779
H	-0.2987186706	-0.0638333877	 3.6716236535	 0.277812
H	 1.6926998881	-1.5384596659	 3.4630048543	 0.110379
H	 2.9370469196	-0.9118090778	 2.3909622045	 0.149546
H	 3.7824593399	 1.1174173154	 5.9990429975	 0.192636
42.5762	67.1589	96.9504	152.6271	198.4761	205.7462	230.6911	337.3262	346.9881	384.1917	392.2445	439.1307	529.1211	590.874	615.5584	635.7716	787.8594	840.4235	861.4064	926.5721	957.4618	977.7382	1005.1221	1019.684	1056.1469	1093.9614	1103.4447	1155.0759	1180.6222	1194.804	1248.9389	1272.1749	1293.1723	1313.9843	1358.963	1400.0812	1413.6498	1429.4349	1466.9906	1469.8263	1492.0769	1503.1302	2241.2183	2994.6161	3040.123	3058.0124	3069.7668	3097.0184	3100.5416	3103.6609	3135.7531	3507.5367	3508.681	3799.6977
CC1NC1C(O)CC#C	C[C@H]1N[C@H]1[C@@H](O)CC#C	
InChI=1S/C7H11NO/c1-3-4-6(9)7-5(2)8-7/h1,5-9H,4H2,2H3	InChI=1S/C7H11NO/c1-3-4-6(9)7-5(2)8-7/h1,5-9H,4H2,2H3/t5-,6+,7-/m1/s1
