19
gdb 34410	2.55636	1.56721	1.29986	4.8846	78.86	-0.2348	0.0199	0.2547	1055.1741	0.162069	-382.075038	-382.067315	-382.066371	-382.107265	30.215	
N	 0.0021806081	-1.1476408694	-0.4572572021	-0.349102
C	 0.0065786124	-0.0165657387	-0.2181371567	 0.260511
C	-0.0231249844	 1.416886897	 0.0760249774	 0.183642
C	-0.4504536195	 2.3232832721	-1.1186134957	-0.29309
C	 0.8795849252	 3.0838224251	-0.9126608012	-0.169409
N	 1.3310636634	 2.0723247642	 0.0851389996	-0.107028
C	 1.5646819367	 2.5706752002	 1.4435128531	-0.178576
C	 0.1700909305	 2.8467460114	 2.0441013041	-0.228203
C	-0.683125746	 1.7071675447	 1.4552552621	-0.277496
H	-0.5297614481	 1.7904408981	-2.0661073063	 0.133463
H	-1.3655185331	 2.8933534275	-0.9496560784	 0.116464
H	 1.5407289798	 3.1445398337	-1.7816031302	 0.116811
H	 0.7561166572	 4.0921068038	-0.4986533739	 0.10112
H	 2.0842971121	 1.7969588987	 2.0217009877	 0.115636
H	 2.2127397097	 3.4510545694	 1.4120447558	 0.112284
H	 0.1653499441	 2.8492105496	 3.1368807214	 0.109615
H	-0.2037738483	 3.8218528217	 1.7135388751	 0.107503
H	-1.7411756327	 1.9582423803	 1.3494208176	 0.117631
H	-0.6175401671	 0.8164078706	 2.0862889904	 0.128224
92.6053	159.0446	186.7753	223.6534	345.1978	371.0467	506.2007	548.2355	557.4167	597.5863	642.9121	756.7326	781.474	844.2226	873.601	904.9408	922.8489	961.8389	968.0238	995.714	1002.5856	1055.3921	1083.2565	1153.2927	1183.1074	1198.3105	1210.1314	1231.4508	1237.7474	1266.4989	1285.3175	1319.9504	1327.6743	1342.678	1355.1407	1483.2855	1491.3052	1493.5081	1504.0545	1524.3674	2351.6658	3024.3416	3034.087	3050.1697	3064.7055	3080.0382	3084.482	3095.7597	3103.2706	3117.0857	3145.3792
N#CC12CCN1CCC2	N#C[C@]12CCN1CCC2	
InChI=1S/C7H10N2/c8-6-7-2-1-4-9(7)5-3-7/h1-5H2	InChI=1S/C7H10N2/c8-6-7-2-1-4-9(7)5-3-7/h1-5H2/t7-/m0/s1
