17
gdb 64591	3.75914	1.18872	1.1714	2.7262	71.26	-0.2292	-0.0331	0.196	1098.2949	0.135688	-458.955477	-458.947466	-458.946522	-458.988098	30.226	
O	-0.1889197389	 1.3548687118	-0.1040189249	-0.47294
C	-0.1102358006	-0.0223358407	 0.0056126941	 0.31979
C	 1.0586287452	-0.4892684388	 0.7652221681	 0.09152
O	 1.8840221028	 0.2881787235	 1.1986238542	-0.299142
C	-1.3945501242	-0.8505206093	 0.0592439269	-0.186811
C	-2.6627485206	-0.1224470166	-0.3645314712	-0.24819
C	-2.3241744666	 0.4226102053	-1.7730977062	-0.079228
O	-1.1823642715	-0.3136782807	-2.2477811393	-0.25168
C	-0.5572836725	-0.9269449602	-1.1752797507	 0.039721
H	 0.6299368024	 1.6786955017	 0.3064671506	 0.298676
H	 1.1581804502	-1.5853144021	 0.9007876215	 0.089621
H	-1.4676862227	-1.6623392476	 0.7745280594	 0.101372
H	-3.4868469107	-0.8413488226	-0.3951981026	 0.114327
H	-2.9381134711	 0.6853740323	 0.3172165262	 0.127009
H	-3.1316016315	 0.2782672376	-2.496380614	 0.109036
H	-2.0679553536	 1.4832112998	-1.7242151809	 0.133438
H	 0.0473622741	-1.7778970536	-1.4681486812	 0.113481
90.5914	165.6623	180.7817	187.8331	302.2046	320.8276	381.1424	425.2338	558.4369	624.2786	693.0979	720.1068	778.7529	836.2169	844.6505	892.0777	927.9274	958.7927	1013.56	1028.6101	1048.7961	1069.6826	1116.5021	1143.4183	1173.0556	1223.5637	1242.6161	1283.9772	1303.6782	1330.7957	1360.8568	1388.8664	1407.4521	1460.7637	1488.2432	1518.3048	1775.7352	2928.3737	3057.4826	3064.394	3101.3801	3120.3117	3165.1918	3177.5116	3678.6013
OC1(C=O)C2CCOC12	O[C@@]1(C=O)[C@H]2CCO[C@@H]12	
InChI=1S/C6H8O3/c7-3-6(8)4-1-2-9-5(4)6/h3-5,8H,1-2H2	InChI=1S/C6H8O3/c7-3-6(8)4-1-2-9-5(4)6/h3-5,8H,1-2H2/t4-,5+,6-/m0/s1
