18
gdb 126860	2.16324	1.59243	0.98851	1.0825	76.99	-0.2072	-0.0129	0.1942	1219.0262	0.147117	-431.419471	-431.409864	-431.40892	-431.454992	33.052	
C	-0.0679083994	 1.5517847973	 0.1309637507	-0.385588
C	 0.0957237016	 0.0337387078	 0.0447136055	-0.141838
N	 0.7269068537	-0.5295163852	 1.2235514085	-0.085107
N	 2.0469934234	-0.8420072299	 1.2638172968	-0.1077
N	 2.3355388246	-1.2834622953	 2.4159959027	-0.085705
N	 1.1900032701	-1.2620331544	 3.164188119	-0.330418
C	 0.1121317745	-0.7707015674	 2.4434503646	 0.549636
N	-1.1143024429	-0.566249447	 2.7195799842	-0.376114
C	-1.5427006068	-0.9149279741	 4.0619002666	-0.333855
H	 0.9041967514	 2.0446674886	 0.2224423019	 0.130118
H	-0.5610169876	 1.9243777765	-0.7717776129	 0.122223
H	-0.6829079553	 1.814688694	 0.9949069687	 0.151242
H	-0.8811493453	-0.4493760559	-0.0513024728	 0.142769
H	 0.7152628692	-0.2560265605	-0.8069884953	 0.135298
H	 1.2141584882	-1.5631660149	 4.1213895994	 0.287045
H	-1.027076201	-0.3287207231	 4.8414967629	 0.100424
H	-2.6120579292	-0.7135661076	 4.1637457849	 0.127572
H	-1.3892504092	-1.981554229	 4.2986346147	 0.1
39.5738	89.9815	97.3701	165.0683	173.7173	207.958	231.1185	305.2424	340.4565	422.156	535.9382	652.8079	686.2481	721.5571	764.0767	788.0305	971.9751	976.76	1026.1042	1065.9734	1095.7371	1109.8912	1121.0074	1170.9849	1199.6109	1250.2212	1354.6502	1378.5906	1393.8096	1407.1661	1418.1643	1447.0236	1468.888	1489.2075	1490.7055	1504.7739	1505.5741	1508.5394	1770.3177	2946.6847	2984.8735	3046.8108	3065.5277	3098.0382	3114.3227	3121.9965	3140.4452	3711.3966
CCN1N=NNC1=NC	CCn1nn[nH]c1=NC	
InChI=1S/C4H9N5/c1-3-9-4(5-2)6-7-8-9/h3H2,1-2H3,(H,5,6,8)	InChI=1S/C4H9N5/c1-3-9-4(5-2)6-7-8-9/h3H2,1-2H3,(H,5,6,8)
