13
gdb 23879	3.01113	1.58235	1.31794	1.9131	47.54	-0.2686	-0.0414	0.2272	910.1644	0.089749	-530.122663	-530.114458	-530.113514	-530.156174	28.08	
C	 0.0591951113	 1.5027522882	 0.048898424	-0.42285
C	-0.0028725508	-0.0348620118	 0.0024112276	-0.201302
C	 0.7486350702	-0.6160526226	 1.1962366057	 0.156859
O	 1.8684261581	-1.0452417044	 1.12919949	-0.239313
C	-1.4422000375	-0.5273287961	 0.0002601836	 0.274526
F	-2.1132483037	-0.0933490851	-1.074802041	-0.07425
F	-1.4908936388	-1.8681985116	-0.0024454497	-0.075498
F	-2.108464596	-0.1055889383	 1.0898742461	-0.082906
H	 1.097268995	 1.8343604045	-0.0212417843	 0.144974
H	-0.5023806384	 1.9273774562	-0.7864303735	 0.147256
H	-0.368455545	 1.8857487538	 0.979550104	 0.142313
H	 0.4749078594	-0.4097626069	-0.9066309519	 0.130141
H	 0.1951733162	-0.5730991459	 2.1592641695	 0.100049
60.9555	72.7678	192.6696	213.6312	228.6285	289.1069	379.6129	422.7207	441.0381	554.8058	570.6533	683.6772	828.5649	906.3593	951.5631	1040.1928	1088.2058	1153.4784	1170.5663	1215.0168	1267.0592	1295.2345	1367.0791	1407.5217	1429.8358	1496.6084	1504.219	1842.4189	2904.1537	3054.5107	3091.4945	3131.6939	3139.2741
CC(C=O)C(F)(F)F	C[C@@H](C=O)C(F)(F)F	
InChI=1S/C4H5F3O/c1-3(2-8)4(5,6)7/h2-3H,1H3	InChI=1S/C4H5F3O/c1-3(2-8)4(5,6)7/h2-3H,1H3/t3-/m0/s1
