20
gdb 92251	2.68673	1.71459	1.32393	1.3075	78.94	-0.2059	0.0633	0.2692	1038.4011	0.171491	-403.08244	-403.07459	-403.073646	-403.114576	31.01	
C	-0.2960725196	 1.4549554907	-0.1062728469	-0.338167
N	 0.0924847254	 0.063964093	-0.008119289	-0.155595
C	 1.2224985246	-0.4481700917	-0.830655359	-0.200954
C	 1.6990586944	-1.2856867475	 0.3886529664	 0.038601
O	 2.8465622358	-0.7634716722	 1.0836937284	-0.304314
C	 1.9940092153	 0.0524319707	 1.9195840301	 0.039784
C	 1.4665397697	-0.6487032576	 3.2061027752	-0.237158
C	 0.0699753307	-0.8783755513	 2.530415496	-0.335879
C	 0.6900649411	-0.4487370706	 1.2034963023	 0.354715
H	 0.5415067165	 2.1568972482	 0.0583529636	 0.096593
H	-0.7142605745	 1.6537676581	-1.0985123158	 0.12328
H	-1.074831919	 1.6725333967	 0.6323477053	 0.122091
H	 0.90307124	-0.9883547586	-1.728486826	 0.103122
H	 1.968601643	 0.3108786458	-1.1046522069	 0.101695
H	 1.7030628083	-2.3737123149	 0.2984140797	 0.083948
H	 2.3473002917	 1.0822987014	 2.0070163659	 0.077219
H	 2.019231313	-1.5638728274	 3.4265073907	 0.116531
H	 1.4476253713	-0.0196057505	 4.0983344379	 0.104598
H	-0.3651314728	-1.8804202498	 2.576162457	 0.103188
H	-0.6760680747	-0.1623840625	 2.8900777951	 0.106703
121.8126	145.3989	196.8252	217.0873	310.4651	388.2655	416.6642	466.2022	549.0547	624.7344	682.6913	747.9073	833.0396	845.6154	863.4694	901.7809	919.1035	932.96	998.921	1025.0558	1051.3079	1076.1755	1094.7492	1114.4729	1125.8634	1163.9566	1173.816	1183.7603	1206.6007	1220.9192	1235.6104	1255.1494	1272.6412	1293.0685	1314.5109	1351.8243	1357.2577	1449.8863	1465.2129	1484.4962	1488.5563	1500.9383	1510.7841	2941.7527	3003.8107	3048.2497	3058.7097	3061.9135	3072.1717	3086.1148	3094.6444	3096.7083	3099.2099	3133.8873
CN1CC2OC3CCC123	CN1C[C@H]2O[C@@H]3CC[C@]123	
InChI=1S/C7H11NO/c1-8-4-6-7(8)3-2-5(7)9-6/h5-6H,2-4H2,1H3	InChI=1S/C7H11NO/c1-8-4-6-7(8)3-2-5(7)9-6/h5-6H,2-4H2,1H3/t5-,6-,7-/m1/s1
