17
gdb 47665	2.44035	1.666	1.12	4.4906	70.06	-0.2508	-0.0334	0.2174	1069.4289	0.136849	-458.958567	-458.950539	-458.949594	-458.991969	29.72	
O	 0.0371074853	 0.0074282643	-0.7204700707	-0.287383
C	 0.0320008	 1.0817182019	-0.1849681265	 0.35207
C	-1.2953483229	 1.8177389102	 0.1050305624	-0.167025
O	-1.8019368042	 1.7686618845	 1.4233136755	-0.252773
C	-1.0307540254	 2.3929167589	 2.4538138921	-0.108006
C	-0.4486550948	 3.7100751812	 2.0206488353	-0.071864
C	 0.695922914	 3.7875081485	 1.340389372	-0.078057
C	 1.583754657	 2.5959654652	 1.0747891406	-0.113163
O	 1.2273125726	 1.7156252078	-0.0121742779	-0.232753
H	-1.2041880637	 2.848564203	-0.2585340535	 0.11071
H	-2.0372304572	 1.2907228519	-0.4958045399	 0.142283
H	-1.7257344899	 2.5166105407	 3.2879151126	 0.120682
H	-0.236280614	 1.7080537843	 2.7849725642	 0.104065
H	-1.0466154902	 4.6031674089	 2.1815907084	 0.109554
H	 1.0376607882	 4.7458012984	 0.9588582701	 0.109932
H	 2.5840911886	 2.9334676804	 0.798621899	 0.131883
H	 1.6853467366	 1.98531038	 1.9784484063	 0.129844
36.7686	119.3259	211.3692	242.6778	285.4052	313.6586	449.5866	471.5569	508.5309	560.1472	627.5833	689.3043	799.1973	837.5447	918.9159	928.2282	980.0392	994.7325	1008.0292	1021.9229	1054.812	1122.7984	1136.0108	1194.6644	1246.4867	1281.6421	1291.5527	1318.2429	1382.2192	1397.8906	1416.6507	1427.5759	1482.6381	1499.3849	1525.1872	1711.4101	1828.5818	2994.0388	3030.5905	3045.9014	3095.1723	3114.1062	3132.2293	3156.6652	3178.768
O=C1COCC=CCO1	O=C1COCC=CCO1	
InChI=1S/C6H8O3/c7-6-5-8-3-1-2-4-9-6/h1-2H,3-5H2/b2-1-	InChI=1S/C6H8O3/c7-6-5-8-3-1-2-4-9-6/h1-2H,3-5H2/b2-1-
