20
gdb 87245	4.71896	0.72433	0.69946	3.0712	79.08	-0.2585	0.0249	0.2834	1643.8164	0.16845	-440.261514	-440.251227	-440.250283	-440.297932	36.509	
C	-0.207821319	 1.593437571	 0.154633842	-0.462093
C	-0.0915814485	 0.0870294867	 0.0378049963	 0.316976
C	-1.3269774575	-0.608335889	-0.4761773132	-0.143901
O	-1.549222268	-0.2137180643	-1.8352786381	-0.184333
C	-2.811763997	-0.275084049	-2.2946199825	 0.132998
N	-3.0527695233	-0.0773096027	-3.5180637929	-0.441089
C	 1.2508850777	-0.5118778512	-0.347928956	-0.354104
C	 0.7229461914	-0.6705905746	 1.0556626925	 0.054778
O	 1.2759538396	 0.0687282444	 2.1042543077	-0.420983
H	 0.6991807981	 2.0225174883	 0.5826153252	 0.129292
H	-0.3827548602	 2.03814835	-0.8291258996	 0.135157
H	-1.0440764039	 1.8709490334	 0.8071827956	 0.112402
H	-1.2076027359	-1.6991425605	-0.437536818	 0.103078
H	-2.2008127667	-0.3396994567	 0.1349107775	 0.105388
H	-3.5534720285	-0.4918779803	-1.5120058014	 0.081341
H	-4.0551884869	-0.1334338838	-3.6856544865	 0.22732
H	 1.2730919757	-1.3766935721	-1.0024088968	 0.117383
H	 2.069001865	 0.1863902019	-0.4883327454	 0.117222
H	 0.3627395535	-1.6591345488	 1.3448782347	 0.082486
H	 2.1598595246	-0.2730295329	 2.2736874086	 0.290684
30.8386	65.8987	93.9845	168.0067	181.6726	230.37	256.0805	277.2989	322.2778	352.6397	381.5544	468.8384	573.3051	641.3435	726.1767	822.3614	828.0718	896.9072	933.5816	971.1738	981.1624	1018.3727	1042.1607	1046.0396	1067.4354	1115.5967	1119.7529	1133.925	1191.0536	1249.2946	1277.0616	1302.3181	1312.974	1360.9915	1397.3597	1415.14	1428.2887	1433.3246	1486.7444	1490.804	1507.1156	1509.1371	1746.2708	2991.0683	3012.7088	3035.6371	3039.9217	3083.5279	3100.9833	3132.1987	3142.4733	3221.3702	3516.9491	3809.4106
CC1(COC=N)CC1O	C[C@@]1(CO[CH][NH])C[C@H]1O	
InChI=1S/C6H11NO2/c1-6(2-5(6)8)3-9-4-7/h4-5,7-8H,2-3H2,1H3	InChI=1S/C6H11NO2/c1-6(2-5(6)8)3-9-4-7/h4-5,7-8H,2-3H2,1H3/t5-,6+/m1/s1
