18
gdb 36779	6.78959	0.58793	0.56359	2.3395	73.51	-0.2589	0.0268	0.2857	1877.5038	0.146661	-439.062745	-439.053425	-439.05248	-439.098775	31.745	
N	-0.0214844772	-1.096635934	-0.4027300189	-0.298515
C	 0.0201665321	 0.0200528445	-0.10967871	 0.247892
C	 0.0977343189	 1.4314849927	 0.2525421393	-0.340029
C	 1.4776761128	 2.0277241515	-0.0502040938	-0.065384
O	 1.4276480363	 3.3810902226	 0.3417410937	-0.251522
C	 2.639175048	 4.0674764584	 0.1614194291	 0.085053
C	 2.96273167	 4.6062647745	-1.2544838445	-0.09341
O	 3.0121137299	 5.9590733225	-0.7580241204	-0.26932
C	 2.553133797	 5.5510141721	 0.5472844555	-0.097983
H	-0.6669856753	 1.9910562019	-0.2959602066	 0.165411
H	-0.1206315382	 1.547182352	 1.3191885119	 0.164789
H	 2.2571904723	 1.4845089773	 0.5057839124	 0.115685
H	 1.7031185898	 1.927813388	-1.1223433427	 0.117591
H	 3.4674382411	 3.5181955881	 0.6288830515	 0.083845
H	 3.9124871097	 4.2993623333	-1.7064636171	 0.108354
H	 2.1450035664	 4.4544003708	-1.9719430988	 0.103955
H	 1.5241557628	 5.8723378865	 0.7511238164	 0.113406
H	 3.2154412935	 5.8987470971	 1.347057833	 0.110181
42.9809	64.9403	84.4881	102.6024	142.5898	218.7733	315.439	399.0879	407.0877	461.4077	559.616	742.1641	798.3261	872.8083	887.9511	955.3338	988.3783	1024.7173	1040.1196	1067.5676	1074.9012	1093.8989	1139.6999	1157.7484	1166.3223	1208.7171	1229.9516	1275.2093	1302.3367	1303.3341	1306.8913	1349.2324	1396.3647	1445.1989	1471.4225	1499.1656	1525.0338	1527.6972	2367.5119	2984.3053	3008.1215	3012.3258	3020.8389	3026.5552	3058.0763	3068.5955	3079.2936	3101.5687
N#CCCOC1COC1	N#CCCOC1COC1	
InChI=1S/C6H9NO2/c7-2-1-3-9-6-4-8-5-6/h6H,1,3-5H2	InChI=1S/C6H9NO2/c7-2-1-3-9-6-4-8-5-6/h6H,1,3-5H2
