20
gdb 90048	3.11568	1.39364	1.17401	1.1451	81.81	-0.2103	0.0747	0.285	1123.3202	0.170331	-403.013308	-403.005146	-403.004202	-403.045427	32.809	
C	-0.0821438125	 1.5690359203	 0.006590402	-0.322582
N	 0.0236955121	 0.1272777999	 0.0465769975	-0.107025
C	-1.1889759834	-0.6620108439	 0.4711561956	-0.269976
C	-0.1976600168	-1.6592259672	 1.1139324314	 0.23277
C	 0.557250846	-2.2957850339	 2.3050677528	-0.375816
C	 1.666065223	-1.7502317065	 1.2428444831	 0.352125
O	 3.0412916355	-1.7752360673	 1.3817880999	-0.470828
C	 0.7987812666	-2.3814062037	 0.1412157115	-0.309278
C	 0.7766757392	-0.480034792	 1.1816163623	-0.000107
H	 0.8946580632	 2.0008862969	-0.2340422789	 0.126507
H	-0.7854474763	 1.8689640744	-0.7775835876	 0.119254
H	-0.4282623705	 2.0104446751	 0.9609092947	 0.088546
H	-1.8020553959	-0.1244581543	 1.2108773425	 0.096302
H	-1.8190696683	-1.0162988885	-0.3506677732	 0.10735
H	 0.5045155037	-1.7742429611	 3.2630379964	 0.102879
H	 0.512708224	-3.3822636521	 2.426253484	 0.09154
H	 3.3553764255	-2.6639845257	 1.1812339566	 0.282237
H	 0.7396043182	-3.474021684	 0.1320039179	 0.077798
H	 0.8896648899	-1.9560817268	-0.8569178341	 0.115797
H	 0.7532081467	 0.1399139202	 2.0890193955	 0.062505
169.4695	176.6832	198.2634	223.6179	284.2231	349.4702	388.491	417.3954	503.686	519.1489	596.1714	627.3071	690.098	768.9227	814.7202	877.4912	913.6928	943.4377	960.4764	990.9729	1021.6342	1032.6804	1062.49	1099.2014	1106.6114	1112.8049	1138.2419	1160.4458	1169.497	1181.9273	1206.1344	1221.2712	1257.243	1282.5859	1299.0763	1341.071	1382.3601	1449.4699	1484.1978	1485.2856	1498.741	1503.6048	1526.5872	2922.7939	2985.0322	3002.1236	3048.7253	3055.1069	3056.9319	3075.8271	3100.7624	3127.6286	3153.5202	3801.4852
CN1CC23CC(O)(C2)C13	CN1C[C@@]23C[C@@](O)(C2)[C@@H]13	
InChI=1S/C7H11NO/c1-8-4-6-2-7(9,3-6)5(6)8/h5,9H,2-4H2,1H3	InChI=1S/C7H11NO/c1-8-4-6-2-7(9,3-6)5(6)8/h5,9H,2-4H2,1H3/t5-,6-,7-/m0/s1
