23
gdb 118153	2.30388	1.06586	0.84666	2.911	82.4	-0.2353	0.0737	0.3091	1488.9186	0.204003	-425.401261	-425.390822	-425.389877	-425.437894	37.015	
C	-0.0264086349	 1.4819788155	-0.1919373099	-0.383744
C	 0.0013607247	-0.0012949238	 0.1384381677	-0.036036
O	-1.2855768063	-0.5339863537	-0.1089993972	-0.25354
C	-1.4036054009	-1.9441923972	 0.0112262334	 0.109964
C	-1.4498944961	-2.3944217041	 1.4760068733	-0.405896
C	-2.6610764543	-2.3603504541	-0.7447021682	-0.037042
C	-3.971477336	-1.5828914148	-0.4730214016	-0.076212
O	-4.1193475483	-1.2612484883	-1.8708101281	-0.274367
C	-2.8446343027	-1.8535806104	-2.1918159641	-0.08858
H	 0.9547040281	 1.9311997887	-0.010850472	 0.113909
H	-0.2939282951	 1.6370323426	-1.2408866889	 0.128308
H	-0.7644406554	 1.998383175	 0.4283179785	 0.128226
H	 0.7494817707	-0.5227147779	-0.4820707865	 0.085213
H	 0.2948401817	-0.1488691828	 1.1894306778	 0.089534
H	-0.5346757638	-2.418093026	-0.4794758289	 0.063862
H	-2.3087445019	-1.9468942177	 1.9863828663	 0.126793
H	-1.5383710571	-3.4836911553	 1.539649928	 0.116037
H	-0.5442345771	-2.1036720475	 2.0150296457	 0.119012
H	-2.7831016209	-3.4428491704	-0.6551498834	 0.077072
H	-4.8185992244	-2.167630101	-0.0950014704	 0.093449
H	-3.844330093	-0.6838752156	 0.1410921567	 0.109094
H	-2.1100558592	-1.0996572091	-2.4980994442	 0.102405
H	-2.9324812281	-2.6200100521	-2.9714217539	 0.092538
47.7184	66.7678	86.6741	105.09	168.9488	202.3581	238.3362	261.0414	298.2528	345.2498	429.4172	485.7888	588.726	718.6693	820.3464	841.5429	877.7159	892.4568	937.8889	964.8136	983.6717	1022.1	1041.8231	1054.0318	1105.8581	1128.5695	1132.7115	1158.2925	1169.2302	1179.1949	1182.4062	1191.5636	1264.297	1296.9774	1313.2262	1336.7538	1361.2796	1370.9256	1398.509	1404.1795	1405.9778	1437.2177	1483.2507	1491.1074	1496.8735	1499.9272	1503.3072	1527.9451	1533.894	2941.67	2962.5698	2994.6153	3012.8556	3023.0446	3039.6706	3045.154	3058.8822	3064.2255	3081.901	3110.6993	3116.3869	3119.4668	3122.8296
CCOC(C)C1COC1	CCO[C@@H](C)C1COC1	
InChI=1S/C7H14O2/c1-3-9-6(2)7-4-8-5-7/h6-7H,3-5H2,1-2H3	InChI=1S/C7H14O2/c1-3-9-6(2)7-4-8-5-7/h6-7H,3-5H2,1-2H3/t6-/m0/s1
