19
gdb 43694	6.40629	0.61554	0.59289	2.2506	82.69	-0.2441	-0.0209	0.2231	1822.2717	0.15646	-385.86858	-385.859101	-385.858156	-385.904029	34.658	
O	 0.0880705135	 0.0356522097	 0.2689184572	-0.286581
C	 0.0162869266	 1.2025498962	 0.0175208954	 0.404074
C	-1.1512032051	 2.1890540587	-0.1422533017	-0.374431
C	-0.1447814463	 3.1983090533	-0.782855619	 0.025458
C	-0.1585151471	 4.6236390199	-0.2458554611	-0.201654
C	 0.9437164981	 5.5056732096	-0.8684663659	-0.357047
C	 0.9423751749	 6.8677147823	-0.3497225502	 0.291042
C	 0.9174622404	 7.9835521755	 0.0963438264	-0.431457
C	 1.0487805423	 2.2748798487	-0.3672417271	-0.357123
H	-1.9951621225	 1.8443216152	-0.7450182087	 0.130294
H	-1.5330452232	 2.5218499799	 0.8301843618	 0.130916
H	-0.2560395025	 3.209042356	-1.8721173707	 0.082647
H	-1.1340657097	 5.0844786226	-0.4396122799	 0.115175
H	-0.0331500432	 4.6102967962	 0.8440897216	 0.108313
H	 1.9247644232	 5.0468489003	-0.6880186674	 0.133991
H	 0.8174508883	 5.5288427914	-1.9590860263	 0.130625
H	 0.906041076	 8.972666608	 0.4820166061	 0.195515
H	 1.5907529798	 2.640440034	 0.5135273688	 0.130241
H	 1.7794656067	 1.9879075625	-1.1275501692	 0.130001
38.6353	71.5522	96.3777	123.9241	216.4126	323.4564	342.4226	379.1637	417.3189	486.1153	510.7401	620.0756	639.8926	657.2153	670.2207	760.4041	774.9269	905.0138	924.4566	944.0676	961.7875	1006.3839	1044.9551	1068.6111	1111.1247	1124.2351	1160.0808	1193.0847	1235.113	1239.1747	1260.8471	1293.1101	1319.4152	1360.8946	1391.5931	1425.3038	1445.7708	1472.7938	1494.2909	1895.7173	2239.8986	3014.3551	3029.6162	3040.7142	3042.4228	3047.0685	3051.8862	3077.2075	3109.8852	3111.2374	3507.2152
O=C1CC(CCC#C)C1	O=C1CC(CCC#C)C1	
InChI=1S/C8H10O/c1-2-3-4-7-5-8(9)6-7/h1,7H,3-6H2	InChI=1S/C8H10O/c1-2-3-4-7-5-8(9)6-7/h1,7H,3-6H2
