17
gdb 34259	4.09897	1.33719	1.20865	5.3068	76.96	-0.2646	0.0123	0.2769	1039.9067	0.13888	-380.852516	-380.845625	-380.844681	-380.88373	27.547	
N	 0.0741191194	-1.1426652569	-0.063520407	-0.348026
C	 0.0383591139	 0.0133540707	-0.0485284817	 0.194841
C	-0.0593927779	 1.4418229298	-0.0181984828	 0.229534
C	-1.2894571501	 2.2412176452	 0.4496426997	-0.302541
C	-0.7732295777	 3.4426161822	-0.4053185219	-0.05389
C	 0.1001392953	 4.3591275825	 0.4558917161	-0.22166
C	 1.2000513461	 3.3815665462	 0.9479949706	-0.168225
N	 1.1909561587	 2.2303944696	 0.0105194788	-0.12535
C	 0.2537828667	 2.4770600352	-1.0656479671	-0.106555
H	-2.2032175867	 1.8057450062	 0.041142821	 0.129014
H	-1.4118408054	 2.3968516617	 1.5260500497	 0.109165
H	-1.508829511	 3.9384387004	-1.0359207143	 0.086074
H	 0.530179732	 5.1676196269	-0.1446389319	 0.109427
H	-0.4584711402	 4.8119289535	 1.2801596838	 0.110435
H	 2.1971808401	 3.8272227771	 0.9204524766	 0.12208
H	 1.0258440486	 3.0247031363	 1.9665073915	 0.120227
H	 0.5423078381	 2.3635364835	-2.103218191	 0.115448
136.5619	158.9408	234.8019	379.013	388.7574	490.3387	550.6405	570.8001	675.8018	729.298	740.8156	820.3326	858.1241	867.7381	874.1377	935.1538	952.2948	974.8286	1003.4585	1040.3193	1048.1058	1088.2857	1133.6026	1154.6326	1180.0656	1212.6612	1231.8521	1235.655	1276.7058	1284.5793	1334.4593	1335.0788	1382.6692	1489.5568	1490.4421	1513.7671	2354.3528	3048.0962	3054.1329	3068.2424	3093.5777	3114.0559	3120.86	3136.2026	3197.5443
N#CC12CC3CCN1C23	N#C[C@@]12C[C@H]3CCN1[C@@H]23	
InChI=1S/C7H8N2/c8-4-7-3-5-1-2-9(7)6(5)7/h5-6H,1-3H2	InChI=1S/C7H8N2/c8-4-7-3-5-1-2-9(7)6(5)7/h5-6H,1-3H2/t5-,6-,7-,9?/m1/s1
