26
gdb 14788	10.72567	0.48609	0.47592	0.	90.68	-0.2954	0.0904	0.3858	2445.4419	0.24536	-315.494806	-315.483695	-315.48275	-315.531757	39.147	
C	-0.0531033661	 1.610869342	-0.0457882155	-0.378835
C	-0.0113702435	 0.0806025875	-0.0185484306	-0.162613
C	 0.7200787713	-0.4819683927	 1.2052535706	-0.157814
C	 0.7671983902	-2.0132362495	 1.2408404808	-0.178202
C	 1.4984406351	-2.5750772933	 2.464943158	-0.178202
C	 1.5455588055	-4.1063448372	 2.500530583	-0.157814
C	 2.277011337	-4.6689168984	 3.7243299344	-0.162613
C	 2.3187385727	-6.199183066	 3.7515719997	-0.378835
H	 0.9576094355	 2.0340651069	-0.0602404155	 0.112212
H	-0.5816664782	 1.9826896394	-0.9293263251	 0.10925
H	-0.5631922529	 2.0085575413	 0.8388084224	 0.112204
H	-1.0356592118	-0.3147914923	-0.0405526989	 0.092621
H	 0.4742408644	-0.2894523804	-0.9313662601	 0.092618
H	 1.7451768132	-0.0859082626	 1.2281993076	 0.089383
H	 0.234473552	-0.1117000957	 2.1192030543	 0.089385
H	-0.258108382	-2.4084273101	 1.2175014969	 0.089895
H	 1.2528860579	-2.3826409668	 0.3267202067	 0.089897
H	 2.5237476141	-2.1798866289	 2.4882819925	 0.089895
H	 1.0127533604	-2.2056715382	 3.3790632871	 0.089897
H	 0.5204601972	-4.5024039947	 2.4775881312	 0.089383
H	 2.0311603008	-4.4766141556	 1.5865794752	 0.089385
H	 3.3013018686	-4.2735262707	 3.7463288672	 0.09262
H	 1.7914062642	-4.2988579863	 4.6371494749	 0.092618
H	 1.308024452	-6.6223755163	 3.7660365301	 0.112212
H	 2.82881552	-6.596875322	 2.8669701592	 0.112204
H	 2.8473103124	-6.5710046994	 4.635104464	 0.10925
52.0357	75.6664	77.5165	115.3743	143.2379	166.3934	191.389	242.0208	245.8055	273.5214	333.6216	467.3662	467.6961	732.7849	735.2223	754.9715	806.3893	880.2501	889.3135	905.9083	962.4856	1003.9102	1015.0842	1035.676	1055.2912	1067.8349	1071.1374	1099.2105	1154.04	1209.9277	1237.4622	1250.8892	1282.1062	1304.3151	1320.064	1327.0237	1339.2927	1339.9649	1352.5128	1388.1389	1401.1283	1402.7427	1412.3333	1413.1962	1482.8543	1483.7135	1486.3564	1490.6611	1498.1317	1499.0313	1499.0531	1505.844	1512.7068	1517.4811	2998.6788	3000.1015	3002.1582	3008.7527	3015.7527	3018.7148	3019.3332	3022.6398	3028.0093	3028.082	3031.5028	3043.3311	3054.5708	3064.2235	3094.0983	3094.2981	3099.1871	3099.207
CCCCCCCC	CCCCCCCC	
InChI=1S/C8H18/c1-3-5-7-8-6-4-2/h3-8H2,1-2H3	InChI=1S/C8H18/c1-3-5-7-8-6-4-2/h3-8H2,1-2H3
