18
gdb 94776	3.86737	1.16531	1.02157	3.0342	74.79	-0.2552	-0.0368	0.2184	1186.3869	0.147414	-439.077114	-439.068841	-439.067897	-439.109998	31.04	
C	 0.2093900509	 1.5825239809	-0.0437552258	-0.404588
C	 0.074108592	 0.0697340822	 0.0341470853	 0.153596
O	 0.7066004265	-0.5020807998	-1.109397217	-0.27243
C	 1.2032286055	-1.7996019524	-0.8006532875	-0.13196
C	 1.4571130342	-1.7925248885	 0.6921773613	 0.219727
N	 2.2053794156	-0.591657186	 1.1454514605	-0.351312
C	 0.752338192	-0.5848114036	 1.2320312447	-0.131508
C	 1.5232739813	-3.0322209284	 1.4895196533	 0.074417
O	 1.3829134645	-4.1447495875	 1.0448807572	-0.259759
H	 1.2639923992	 1.8638577614	 0.0034829996	 0.141952
H	-0.2106340302	 1.9465086968	-0.9849908154	 0.131545
H	-0.3281757509	 2.0612979436	 0.7808757858	 0.111509
H	-0.9921193188	-0.2143351152	 0.0640641754	 0.073732
H	 0.4765634414	-2.5899847218	-1.0367572261	 0.114511
H	 2.1065707143	-1.9612540301	-1.3952186751	 0.123359
H	 2.6076789375	-0.7694645879	 2.065871037	 0.238141
H	 0.2594012164	-0.5922411966	 2.1996541202	 0.105237
H	 1.7244310685	-2.8571587671	 2.5746460366	 0.063828
90.0674	156.1362	172.3354	217.4091	243.6496	293.0614	371.5303	404.5754	477.1078	551.1651	635.825	711.3265	783.5314	825.6018	836.5622	895.4072	960.5136	980.1219	1021.384	1042.9262	1074.1671	1084.5218	1106.3604	1116.815	1145.6979	1173.4573	1229.2924	1267.6835	1314.4797	1360.3983	1372.176	1391.4557	1405.9712	1422.0891	1444.7717	1485.4977	1498.5358	1509.5586	1811.517	2834.5216	2954.1398	3012.0129	3046.4187	3091.5251	3118.404	3136.6238	3160.9723	3467.8191
CC1OCC2(NC12)C=O	C[C@H]1OC[C@]2(N[C@@H]12)C=O	
InChI=1S/C6H9NO2/c1-4-5-6(2-8,7-5)3-9-4/h2,4-5,7H,3H2,1H3	InChI=1S/C6H9NO2/c1-4-5-6(2-8,7-5)3-9-4/h2,4-5,7H,3H2,1H3/t4-,5+,6-/m1/s1
