18
gdb 95470	2.81767	1.2155	0.87931	2.5882	77.08	-0.22	-0.0054	0.2147	1287.1451	0.148819	-439.127981	-439.119462	-439.118517	-439.161521	31.801	
O	 0.3198799211	 1.3448235646	 0.143223001	-0.437662
C	 0.1342646184	-0.062447799	 0.0175093675	 0.036022
C	-1.323567506	-0.5592705443	 0.0823186308	-0.239873
C	-1.3781677241	-1.7779000775	-0.8732478803	-0.251313
C	-0.2019951725	-1.5574475553	-1.7967002246	-0.190689
C	 0.6120850715	-0.6140016444	-1.3114558262	 0.355298
N	 1.8112268458	-0.1003167023	-1.8011219004	-0.386734
C	 2.4770905245	-0.5012647956	-2.9264587696	 0.145307
O	 2.1351648171	-1.4015144957	-3.6601582143	-0.303934
H	-0.2630424038	 1.7715148289	-0.4963470345	 0.279634
H	 0.7381562109	-0.4760100938	 0.8363532579	 0.102647
H	-1.6503557998	-0.7823343514	 1.1002290642	 0.106953
H	-1.9713135513	 0.238855421	-0.3012298281	 0.097459
H	-1.2734017934	-2.7201118894	-0.3171291651	 0.111744
H	-2.3311793776	-1.8468694307	-1.409694985	 0.10653
H	-0.028713923	-2.1189067793	-2.7022904078	 0.130992
H	 2.1627718886	 0.7048763432	-1.3006276799	 0.25626
H	 3.3893131937	 0.1045857211	-3.0918111656	 0.08136
73.8946	112.1336	162.4931	203.6259	246.3844	319.5125	377.9087	414.1317	448.984	545.0764	623.8908	646.9535	667.8085	806.8263	835.3626	881.2494	890.764	937.5598	966.097	1017.1906	1022.1877	1044.4596	1096.9328	1128.8232	1154.462	1220.6027	1244.0701	1261.9355	1274.5113	1319.7982	1331.3087	1341.7135	1426.2266	1434.0202	1483.6562	1501.9413	1539.7778	1717.5233	1803.1329	2943.6901	3008.6358	3019.877	3033.4456	3055.9393	3107.8407	3254.6522	3590.8529	3783.9362
OC1CCC=C1NC=O	O[C@H]1CCC=C1NC=O	
InChI=1S/C6H9NO2/c8-4-7-5-2-1-3-6(5)9/h2,4,6,9H,1,3H2,(H,7,8)	InChI=1S/C6H9NO2/c8-4-7-5-2-1-3-6(5)9/h2,4,6,9H,1,3H2,(H,7,8)/t6-/m0/s1
