13
gdb 48338	2.28476	1.4943	1.06621	1.177	65.95	-0.2904	-0.0826	0.2079	1090.047	0.0872	-452.748351	-452.740154	-452.73921	-452.781937	28.829	
N	-0.1483675931	 0.9553690525	 0.9114425885	-0.519136
C	-0.1122296585	-0.0507491563	 0.1783772995	 0.450592
C	-1.1334683923	-1.0147236183	-0.3850409162	-0.411029
C	 0.0966213048	-1.6899401138	-1.031208039	 0.180703
O	 0.9791677386	-0.6831502552	-0.4332292404	-0.280686
C	 0.4930167655	-3.0606693405	-0.4483599625	 0.129348
O	-0.2214001797	-3.6904512099	 0.2775560399	-0.214557
C	 0.186157251	-1.700889389	-2.4868843081	 0.245936
N	 0.255234479	-1.7604510216	-3.6388963735	-0.303665
H	 0.7755873184	 1.3574466956	 1.073635945	 0.245941
H	-1.6373066051	-1.6481399334	 0.345486076	 0.178788
H	-1.851965539	-0.5754016985	-1.0759692202	 0.167042
H	 1.5134429404	-3.3868053115	-0.7297035989	 0.130722
64.3147	85.5551	169.1903	189.3577	242.6219	322.8095	433.0546	482.7706	496.5711	523.3287	570.8628	686.8606	778.2989	864.8008	890.9901	926.1866	955.4601	978.0798	1031.5808	1079.5511	1169.6103	1208.2318	1232.1541	1253.0403	1404.703	1458.3931	1843.2907	1855.8958	2356.2758	2952.4718	3106.4691	3169.4079	3494.0422
N=C1CC(O1)(C=O)C#N	[NH][C]1C[C@@](O1)(C=O)C#N	
InChI=1S/C5H4N2O2/c6-2-5(3-8)1-4(7)9-5/h3,7H,1H2	InChI=1S/C5H4N2O2/c6-2-5(3-8)1-4(7)9-5/h3,7H,1H2/t5-/m0/s1
