19
gdb 106454	2.06195	1.73539	1.15671	3.9408	76.94	-0.2378	-0.0149	0.2228	1107.9395	0.158498	-422.975718	-422.96707	-422.966126	-423.009354	32.225	
O	-0.1347352102	 0.4210935259	-1.2926283033	-0.417647
C	-0.7051043326	 0.6446787107	-0.0103906109	-0.226114
C	-1.8493293101	-0.3141284143	 0.141604547	 0.348919
C	-2.7194764191	-0.586341698	 1.4016172513	-0.283656
C	-3.2399652064	-1.5734365598	 0.3131738816	-0.057754
C	-3.1658876287	-0.3825970295	-0.6896300008	-0.259265
C	-1.7508308485	-1.8859562872	-0.0068545787	-0.087977
C	-1.3329285055	-2.4793404544	-1.3224167367	 0.130526
O	-2.0806975686	-2.8169560509	-2.2079271095	-0.257762
H	 0.5973313919	 1.0326351407	-1.4144507951	 0.292834
H	 0.0308418186	 0.4742763738	 0.7924557303	 0.088995
H	-1.0747762525	 1.6776123738	 0.0939537894	 0.09424
H	-2.2117218534	-1.020830978	 2.2678688756	 0.090245
H	-3.4046973213	 0.2137260504	 1.6948903106	 0.093893
H	-4.0437183855	-2.30136751	 0.4125805464	 0.083094
H	-3.872583729	 0.4336320124	-0.5153838961	 0.086296
H	-3.0831486446	-0.6298682871	-1.7455589777	 0.132222
H	-1.1702405134	-2.3545696971	 0.7988573633	 0.073114
H	-0.2321568511	-2.6083787515	-1.4268247168	 0.075796
77.8544	90.0168	150.8081	217.9013	229.8539	272.4924	335.6401	380.3199	473.9604	553.4214	653.5004	720.4643	769.804	809.2151	844.8911	911.4867	938.807	965.0901	990.5153	1021.1466	1023.8987	1051.0763	1070.8655	1099.6608	1106.7767	1145.8024	1147.3628	1173.0816	1208.0573	1216.4416	1233.1303	1250.0356	1273.2034	1313.0472	1386.5517	1427.4232	1460.9164	1500.7407	1511.4772	1543.2655	1815.509	2878.1487	2962.3615	2992.6088	3023.8736	3045.7634	3065.7824	3111.9007	3126.964	3167.4111	3832.2569
OCC12CC(C1)C2C=O	OC[C@@]12C[C@@H](C1)[C@H]2C=O	
InChI=1S/C7H10O2/c8-3-6-5-1-7(6,2-5)4-9/h3,5-6,9H,1-2,4H2	InChI=1S/C7H10O2/c8-3-6-5-1-7(6,2-5)4-9/h3,5-6,9H,1-2,4H2/t5-,6-,7+/m1/s1
