15
gdb 125753	4.05777	0.97812	0.79589	0.9998	72.02	-0.2696	-0.0214	0.2482	1362.4246	0.112294	-416.827465	-416.819092	-416.818148	-416.861619	29.434	
C	-0.0942777583	 1.5042779777	 0.0579510026	-0.494858
C	 0.0766725208	 0.0195932552	 0.0537113532	 0.390344
N	 0.8101928627	-0.5577049953	-0.8683032711	-0.194387
O	 0.7641062721	-1.9273014189	-0.5914190326	-0.219506
C	-0.0007490732	-2.1229875855	 0.4941379386	 0.452043
C	-0.1524943022	-3.5508025736	 0.9255700333	-0.463527
C	-0.9960838456	-3.6862155769	 2.1103052825	 0.282963
N	-1.6633127133	-3.7897282169	 3.0468091983	-0.300662
C	-0.4714337189	-0.9402481312	 0.9592883969	-0.404733
H	 0.2675107278	 1.9353080817	 0.9968846844	 0.143144
H	 0.4619827483	 1.94799329	-0.7695551244	 0.153913
H	-1.1502059906	 1.7750289815	-0.0424778497	 0.143277
H	-0.582580836	-4.1449239225	 0.1097308579	 0.184742
H	 0.8327378417	-3.9852276076	 1.1356580355	 0.18474
H	-1.1082490852	-0.7717938278	 1.8116289548	 0.142509
38.4757	104.8112	132.0639	168.0078	268.4688	332.2529	380.4518	387.5324	465.551	632.7239	645.1317	674.0104	764.8477	826.1735	929.5185	958.8715	963.5701	983.3628	1030.0958	1046.944	1067.3467	1153.2737	1220.0926	1244.5858	1357.6245	1408.759	1449.3533	1456.7741	1479.5692	1481.6701	1535.7456	1652.5636	2375.1368	3036.5587	3045.2611	3067.6466	3102.7008	3142.9887	3280.6448
CC1=NOC(CC#N)=C1	Cc1noc(CC#N)c1	
InChI=1S/C6H6N2O/c1-5-4-6(2-3-7)9-8-5/h4H,2H2,1H3	InChI=1S/C6H6N2O/c1-5-4-6(2-3-7)9-8-5/h4H,2H2,1H3
