14
gdb 128381	2.7996	1.28952	0.88863	5.4241	67.65	-0.2535	-0.0886	0.1649	1223.5375	0.099896	-469.959505	-469.951096	-469.950151	-469.993122	29.041	
C	-0.0093129377	 1.403821917	-0.0221556917	-0.328217
N	-0.0161746345	-0.0457568193	 0.1269312867	-0.387368
C	-1.1943777653	-0.7247436015	 0.041602584	 0.344656
N	-2.3658750465	-0.1289856066	 0.011698167	-0.180766
O	-3.2891399806	-1.1665676146	-0.0088528314	-0.14252
N	-2.6997532236	-2.3685483204	-0.0086230902	-0.104301
C	-1.4055243067	-2.1503666275	 0.0250607925	 0.175055
C	-0.4044017648	-3.232510236	 0.0569142861	 0.09467
O	-0.6528916327	-4.4100382805	 0.0099329472	-0.23659
H	 1.0070895508	 1.7665462264	 0.1396899265	 0.133934
H	-0.3583250738	 1.7279409199	-1.0110805276	 0.138728
H	-0.6659689208	 1.8474471535	 0.7299141526	 0.163548
H	 0.7942287891	-0.5307423199	-0.222213133	 0.256755
H	 0.6445016572	-2.8682042904	 0.1366849114	 0.072416
93.6333	129.015	143.6225	155.1821	223.5118	235.5031	358.3757	383.5606	433.1811	560.5809	628.6207	718.267	754.9617	826.71	904.7972	976.5214	1024.1843	1060.465	1108.5	1150.1326	1182.8668	1248.7047	1375.4949	1447.6908	1455.0746	1477.9331	1482.2956	1512.6431	1568.4926	1632.341	1814.395	2872.7408	3022.832	3102.7201	3144.0046	3639.7464
CNC1=NON=C1C=O	CNc1nonc1C=O	
InChI=1S/C4H5N3O2/c1-5-4-3(2-8)6-9-7-4/h2H,1H3,(H,5,7)	InChI=1S/C4H5N3O2/c1-5-4-3(2-8)6-9-7-4/h2H,1H3,(H,5,7)
