18
gdb 11860	6.37393	1.10809	1.05139	2.4399	69.07	-0.2526	0.0702	0.3228	1152.3766	0.152323	-384.895107	-384.887059	-384.886115	-384.927818	29.699	
C	 0.3089100519	 1.5543808648	-0.3615256384	-0.240455
O	-0.324101912	 0.2946172654	-0.3936766223	-0.238183
C	 0.4617032947	-0.703885424	-0.981559512	 0.156209
C	 1.6534137062	-1.2916815114	-0.1536380242	-0.351554
C	 1.1306344826	-2.6768580151	-0.540037751	 0.460878
C	 1.8671850211	-3.8129190956	-1.0948396533	-0.266338
O	 1.2992462115	-3.853482328	 0.2238163829	-0.26774
C	-0.2138327442	-2.0957895009	-0.9812387264	-0.350669
H	 1.2319589322	 1.536173749	 0.2371787065	 0.109473
H	 0.5618950491	 1.9075846139	-1.3737410185	 0.104546
H	-0.3914431394	 2.2585409006	 0.0935972214	 0.129125
H	 0.7873354426	-0.3979078942	-1.9873369248	 0.066969
H	 2.6739514358	-1.027579678	-0.4389625463	 0.103101
H	 1.5056251113	-1.0996780469	 0.9136989015	 0.121128
H	 1.3907555485	-4.4643414418	-1.826969679	 0.114772
H	 2.9559506263	-3.7892594633	-1.1322735195	 0.114009
H	-0.9518086224	-2.1491258214	-0.1755670745	 0.127733
H	-0.6593147058	-2.4538170233	-1.9113205422	 0.106997
66.3347	105.7604	184.2786	233.999	312.9951	336.9424	346.8405	434.237	469.1561	555.433	725.6496	815.5138	846.1442	875.4282	893.2547	968.4784	993.4063	1024.4557	1044.0134	1114.9336	1126.5069	1148.4904	1171.9111	1183.0044	1187.5805	1203.9165	1206.02	1241.7848	1260.6026	1290.9584	1387.2842	1437.0759	1457.1852	1479.0541	1486.0967	1492.0978	1508.8545	1539.1191	2973.5673	2986.9189	3022.8295	3056.7155	3066.6324	3076.3857	3116.9173	3118.5769	3125.7928	3162.8342
COC1CC2(CO2)C1	CO[C@H]1C[C@]2(CO2)C1	
InChI=1S/C6H10O2/c1-7-5-2-6(3-5)4-8-6/h5H,2-4H2,1H3	InChI=1S/C6H10O2/c1-7-5-2-6(3-5)4-8-6/h5H,2-4H2,1H3/t5-,6+
