18
gdb 51352	5.89529	0.93323	0.89613	3.7828	79.03	-0.2458	0.0315	0.2773	1308.9561	0.148872	-401.89537	-401.887843	-401.886899	-401.92841	28.832	
O	-0.195878348	-0.0635199776	 0.3899373364	-0.323454
C	-0.1133027854	 1.1157202861	 0.1201062293	 0.152641
N	 1.0386365784	 1.7850828661	-0.1605521265	-0.305429
C	 2.3419857296	 1.1657538856	-0.174455739	 0.055957
C	 3.3060532761	 1.4872672606	-1.3359656212	-0.070873
C	 3.7325081874	 2.868266364	-0.7126389386	-0.058007
C	 5.2318475578	 2.5296462186	-0.8113273927	-0.266499
C	 4.557674093	 1.1950785965	-0.4376341208	-0.036736
C	 3.5194441327	 1.8952694855	 0.5061563661	-0.070953
H	-0.9949884388	 1.7865924238	 0.0740335132	 0.06998
H	 0.969390957	 2.7689472264	-0.369717794	 0.245611
H	 2.2041416109	 0.1128224076	 0.0746764776	 0.116321
H	 3.206717428	 1.2606695095	-2.3986426868	 0.076304
H	 3.2431559682	 3.8317177581	-0.8693533855	 0.066848
H	 5.6864489213	 2.5914745595	-1.8050782792	 0.096503
H	 5.8886931559	 2.9781336726	-0.0593701816	 0.096498
H	 5.0036698938	 0.2138196893	-0.2719555912	 0.078989
H	 3.6652960423	 2.1374545476	 1.5599946947	 0.076297
32.3511	132.5934	183.3786	244.4858	347.0951	470.6886	495.6273	540.9951	717.0238	724.5415	810.8035	841.6083	848.0522	876.4356	911.1749	916.7073	966.8532	968.419	1011.1439	1026.4434	1030.0618	1059.7574	1068.5839	1125.4253	1139.9063	1147.7733	1155.9192	1180.6815	1189.1324	1210.6992	1241.4835	1244.5895	1287.6295	1315.4313	1373.9287	1434.8749	1510.3439	1538.0056	1806.7	2927.5271	3039.8648	3086.0134	3097.3537	3101.9853	3102.8895	3114.4061	3123.3417	3626.4977
O=CNC1C2C3CC2C13	O=CN[C@H]1[C@H]2[C@@H]3C[C@H]2[C@H]13	
InChI=1S/C7H9NO/c9-2-8-7-5-3-1-4(5)6(3)7/h2-7H,1H2,(H,8,9)	InChI=1S/C7H9NO/c9-2-8-7-5-3-1-4(5)6(3)7/h2-7H,1H2,(H,8,9)/t3-,4+,5-,6+,7-
