17
gdb 124669	3.28829	1.05469	0.94959	4.4892	75.28	-0.2369	-0.0187	0.2182	1267.8916	0.136326	-418.040056	-418.031398	-418.030453	-418.074853	30.885	
C	 0.2204036481	 1.5239058026	-0.1844659226	-0.412787
C	 0.0256439044	 0.0161628041	 0.0752932769	-0.155467
C	 0.448237793	-0.749993096	-1.1749640016	 0.167492
O	-0.306856006	-1.2849029193	-1.9419016651	-0.24706
C	 0.8081738447	-0.4726620587	 1.2623784815	 0.320628
N	 0.2307093285	-1.282248619	 2.1511337712	-0.287019
N	 1.1987631912	-1.5485930342	 3.0464774255	-0.180012
C	 2.3733799341	-0.9403093142	 2.7598012962	-0.013428
C	 2.163419586	-0.2271764652	 1.5995250407	-0.28532
H	 1.260579716	 1.7558658895	-0.4377099106	 0.121298
H	-0.410201824	 1.8554872651	-1.01422279	 0.132331
H	-0.0436798683	 2.0986122652	 0.7071570795	 0.13379
H	-1.0319221406	-0.2027844879	 0.2422885267	 0.112705
H	 1.5513134815	-0.7626714921	-1.344161853	 0.070408
H	 0.9854340914	-2.1425603645	 3.8297220123	 0.278623
H	 3.2425415144	-1.0565425898	 3.3876813832	 0.136954
H	 2.8811991354	 0.3863306444	 1.0801167692	 0.106865
33.9084	53.4878	145.6754	197.0884	223.7747	293.8625	379.6922	431.9817	461.86	526.5128	665.7704	724.4726	743.2817	772.0654	843.3651	891.5868	935.2355	951.5484	984.4811	1048.449	1071.299	1089.9542	1118.1189	1147.0401	1199.727	1278.8074	1295.9411	1319.077	1400.9893	1405.8437	1424.5701	1467.7795	1488.6301	1497.9286	1499.346	1569.1369	1837.7049	2850.1209	3038.1275	3087.9736	3110.3511	3122.7908	3258.3106	3277.5582	3675.1474
CC(C=O)C1=NNC=C1	C[C@@H](C=O)c1n[nH]cc1	
InChI=1S/C6H8N2O/c1-5(4-9)6-2-3-7-8-6/h2-5H,1H3,(H,7,8)	InChI=1S/C6H8N2O/c1-5(4-9)6-2-3-7-8-6/h2-5H,1H3,(H,7,8)/t5-/m0/s1
