20
gdb 80303	2.38834	1.51602	1.24978	2.2316	78.64	-0.2236	-0.0218	0.2019	1111.3793	0.169943	-403.160667	-403.151859	-403.150915	-403.193819	33.942	
C	-0.4148756935	 1.4241324048	-0.1982791376	-0.441096
C	-0.0499947371	-0.0347347287	-0.0265093173	-0.026988
N	 1.2999855795	-0.5872670166	-0.2811959556	-0.156183
C	 2.3761405261	 0.3988487374	-0.3402299917	-0.276299
C	 2.4736572653	 1.1008123096	 1.0238696161	 0.38694
O	 3.1804293695	 2.0348609301	 1.2936137587	-0.30719
C	 1.5082324463	 0.3817089814	 1.9777264611	-0.410734
C	 0.7385024507	-0.5963273264	 1.1089323456	 0.3112
C	 0.3950436238	-1.9449617315	 1.6937846605	-0.473737
H	-0.4654548085	 1.6846697927	-1.2613927485	 0.13143
H	-1.4062644142	 1.6055775818	 0.2299523306	 0.128848
H	 0.2779439253	 2.1200352896	 0.2800449489	 0.136013
H	-0.8145200245	-0.698241239	-0.4299924068	 0.089732
H	 3.3256248678	-0.1134668131	-0.5401007623	 0.136092
H	 2.237032613	 1.1346347245	-1.1389563105	 0.135272
H	 2.0989251236	-0.145141789	 2.7371037163	 0.134378
H	 0.8917136266	 1.1132120977	 2.5080916122	 0.137088
H	-0.3176737455	-1.8440667645	 2.5203584717	 0.117884
H	-0.0484919147	-2.5927675671	 0.9334480836	 0.129178
H	 1.2907356804	-2.4432469737	 2.0820977552	 0.118172
77.332	166.6191	191.8905	217.163	242.7416	272.2663	313.1341	444.2871	456.3081	482.4828	519.9088	558.5798	646.3656	708.5752	749.1332	791.0221	815.279	828.9329	957.417	996.1956	1007.3374	1043.6002	1076.908	1104.989	1133.4953	1150.8576	1165.1131	1187.8395	1219.1281	1237.2742	1291.9934	1322.9511	1349.8234	1415.3605	1417.6033	1436.8382	1453.5851	1465.8654	1488.6972	1492.4185	1495.3136	1506.3185	1848.8695	3027.4791	3033.8211	3038.0624	3044.1872	3081.7916	3088.1554	3092.3792	3094.759	3100.2331	3118.9657	3128.6562
CC1N2CC(=O)CC12C	C[C@H]1N2CC(=O)C[C@@]12C	
InChI=1S/C7H11NO/c1-5-7(2)3-6(9)4-8(5)7/h5H,3-4H2,1-2H3	InChI=1S/C7H11NO/c1-5-7(2)3-6(9)4-8(5)7/h5H,3-4H2,1-2H3/t5-,7+,8?/m1/s1
