19
gdb 107010	2.87912	1.21455	1.09445	1.7878	71.42	-0.2462	0.0566	0.3028	1196.8294	0.157281	-460.118292	-460.108848	-460.107904	-460.152594	34.709	
C	-0.0896997841	 1.6082258839	 0.0060864904	-0.407723
C	-0.0228094583	 0.091938307	-0.0904328457	-0.053163
C	 0.772928455	-0.5274674729	-1.2451417439	-0.050479
O	 2.1558141528	-0.1531594497	-1.0592195504	-0.314177
C	 1.6458655141	-1.2862713377	-0.3345795667	 0.395164
C	 2.3657365937	-2.588111452	-0.4741603078	-0.219716
O	 1.4739685475	-3.6119277362	-0.0564587017	-0.418908
C	 0.9501361076	-0.6865549929	 0.8987749243	 0.061437
O	 1.7630746586	 0.0579872226	 1.7642946869	-0.434534
H	 0.894068324	 2.0565704321	-0.1578750359	 0.11991
H	-0.7735577768	 2.0190454257	-0.7440662444	 0.113688
H	-0.442125646	 1.9192266272	 0.9940116397	 0.127014
H	-1.0232127169	-0.3498632472	-0.0365709306	 0.081083
H	 0.4671074756	-0.7563049506	-2.2598547157	 0.10539
H	 2.6824712427	-2.711322696	-1.5208300355	 0.102576
H	 3.2733023765	-2.5669560567	 0.1492674816	 0.103297
H	 1.9816813846	-4.4184280117	 0.0696753265	 0.294224
H	 0.4245142222	-1.4301554262	 1.4997927327	 0.105873
H	 2.339683987	 0.5896450912	 1.2009787863	 0.289045
70.7577	112.3067	162.8664	187.9094	197.2039	230.7669	236.9158	279.1021	432.9837	491.7037	511.9687	541.7373	630.6547	700.6684	726.4183	803.5337	854.435	880.7151	925.1586	1001.4313	1021.52	1046.1393	1067.0245	1079.4777	1133.2233	1140.0695	1175.2037	1195.6131	1214.8179	1250.1334	1269.5284	1303.3679	1308.4024	1359.0662	1403.7399	1418.506	1445.266	1488.672	1501.8851	1504.8253	1513.4333	2977.2744	3012.0365	3038.8226	3056.6765	3104.7886	3111.5115	3117.6478	3185.085	3777.152	3838.0527
CC1C2OC2(CO)C1O	C[C@H]1[C@H]2O[C@@]2(CO)[C@H]1O	
InChI=1S/C6H10O3/c1-3-4(8)6(2-7)5(3)9-6/h3-5,7-8H,2H2,1H3	InChI=1S/C6H10O3/c1-3-4(8)6(2-7)5(3)9-6/h3-5,7-8H,2H2,1H3/t3-,4+,5-,6+/m1/s1
