16
gdb 95936	2.19271	1.54684	1.24151	3.5695	64.89	-0.2752	0.0001	0.2753	1051.8963	0.123923	-475.023135	-475.014489	-475.013545	-475.056972	31.568	
O	 0.1659050961	 1.2822193071	-0.3806726441	-0.422288
C	 0.0595012667	-0.0552763243	 0.0250822052	 0.060284
C	 0.5233586222	-0.3550189776	 1.4614174501	-0.124651
O	-0.170271488	-1.530656316	 1.8257923806	-0.235567
C	-1.5039819554	-1.3730743891	 1.3798417531	-0.110106
C	-1.4407679217	-0.561915288	 0.0557529615	 0.188423
O	-2.3334430404	 0.5320116	 0.1620533353	-0.45157
C	-1.7618481179	-1.3756617558	-1.1257007771	 0.232508
N	-2.0057261156	-1.9983306584	-2.0687955709	-0.334925
H	-0.3113955066	 1.8166786906	 0.2661578217	 0.28817
H	 0.6343979481	-0.6437614719	-0.6923183137	 0.129352
H	 1.5946061812	-0.545775237	 1.5441897981	 0.131083
H	 0.262267265	 0.4932425673	 2.1193748859	 0.091402
H	-1.9469895941	-2.3632297981	 1.2685239404	 0.140295
H	-2.1038790504	-0.7801773193	 2.0852885788	 0.120753
H	-2.2469049692	 1.0524045105	-0.647680465	 0.296838
40.9022	151.0388	158.2825	186.3428	247.0103	296.8376	371.179	405.2602	481.2009	522.2203	565.1214	592.2862	599.082	668.7122	741.6225	924.5627	963.6451	973.3323	1029.7126	1060.2958	1090.8754	1128.2749	1140.217	1158.2742	1223.0901	1275.7873	1295.1061	1321.3244	1352.9401	1378.9592	1395.7163	1433.8064	1495.3388	1509.1911	2348.9837	2949.1119	3008.1721	3102.8183	3122.0061	3129.2446	3774.2729	3783.7632
OC1COCC1(O)C#N	O[C@H]1COC[C@]1(O)C#N	
InChI=1S/C5H7NO3/c6-2-5(8)3-9-1-4(5)7/h4,7-8H,1,3H2	InChI=1S/C5H7NO3/c6-2-5(8)3-9-1-4(5)7/h4,7-8H,1,3H2/t4-,5+/m0/s1
