14
gdb 27223	3.46309	1.65377	1.126	2.5832	70.07	-0.1965	0.0011	0.1976	993.074	0.104758	-432.892715	-432.885821	-432.884877	-432.923892	26.78	
N	 0.1733170252	 1.4334091351	 0.0080340087	-0.617147
C	-0.0229818409	 0.0383585491	 0.0106055311	 0.083102
C	-1.0879682011	-0.83167898	-0.0150657827	 0.282413
O	-2.4573959988	-0.8444354754	-0.0546769852	-0.237223
C	-2.7406834535	-2.197182089	-0.0547326254	 0.034983
N	-1.7456771773	-3.0141192241	-0.0211158144	-0.345499
C	-0.6346121461	-2.1652941559	 0.006025166	 0.223012
C	 0.7459736619	-2.141075214	 0.0458528682	-0.215738
N	 1.0809331832	-0.8068569603	 0.0477125647	-0.243528
H	-0.2079310371	 1.8714070637	-0.8242458105	 0.248009
H	-0.2568031388	 1.8812447632	 0.8107202068	 0.248016
H	-3.7919525906	-2.4417587894	-0.0837258041	 0.143471
H	 1.4957531783	-2.9128375868	 0.0721165724	 0.131087
H	 2.0170687658	-0.4384280763	 0.0727834044	 0.265042
152.4563	188.9152	263.6898	278.8724	376.8966	510.1787	559.5885	612.7202	617.2012	637.722	688.8292	704.819	768.3029	797.3144	829.1934	849.1659	920.6576	1055.7364	1082.4802	1103.031	1186.4948	1214.294	1280.9893	1317.1214	1325.6769	1440.536	1466.4823	1543.2954	1585.7196	1657.5499	1687.5447	3267.0081	3280.6119	3499.2918	3561.2555	3671.8194
NC1=C2OC=NC2=CN1	Nc1c2ocnc2c[nH]1	
InChI=1S/C5H5N3O/c6-5-4-3(1-7-5)8-2-9-4/h1-2,7H,6H2	InChI=1S/C5H5N3O/c6-5-4-3(1-7-5)8-2-9-4/h1-2,7H,6H2
