14
gdb 129649	3.38792	1.30343	0.94659	3.6394	74.41	-0.214	-0.0234	0.1907	1155.1719	0.100717	-432.821583	-432.813035	-432.812091	-432.854534	31.747	
N	 0.052916721	 1.3915468941	 0.0990456729	-0.602385
C	-0.0238869701	 0.0265990045	 0.038825899	 0.469336
C	-1.1064587145	-0.8124671501	 0.0199996506	-0.105583
N	-2.45915123	-0.3953650663	-0.0297374076	-0.62677
C	-0.5017449359	-2.1081414866	 0.0298714074	 0.234764
N	 0.8190743361	-2.0523294493	 0.0439315883	-0.244063
O	 1.1140672589	-0.6731079819	 0.0638544903	-0.212516
C	-1.1849933119	-3.3502339916	 0.006171848	 0.23879
C	-1.820912698	-4.3711940785	-0.0162054529	-0.382239
H	 0.8801344079	 1.7937192448	-0.31854315	 0.266827
H	-0.8075732939	 1.8370029774	-0.1910363233	 0.270524
H	-2.9239619529	-0.5124878893	 0.8663030118	 0.247255
H	-2.9858898358	-0.9395881704	-0.7055525641	 0.246961
H	-2.360412121	-5.2859061768	-0.0339769502	 0.199097
111.8514	128.1803	157.891	241.8167	269.8937	306.2617	347.7064	397.4251	482.3945	528.6396	593.5896	611.6917	618.7565	669.8691	701.8925	722.0502	760.3208	784.7843	847.6758	928.6028	1052.9852	1097.0292	1227.3201	1308.0995	1356.8525	1465.9194	1506.2177	1616.2245	1652.5366	1708.2762	2241.2289	3489.1174	3501.4483	3554.1455	3557.8983	3663.114
NC1=C(N)C(=NO1)C#C	Nc1c(N)c(no1)C#C	
InChI=1S/C5H5N3O/c1-2-3-4(6)5(7)9-8-3/h1H,6-7H2	InChI=1S/C5H5N3O/c1-2-3-4(6)5(7)9-8-3/h1H,6-7H2
