19
gdb 73960	2.33167	1.43944	0.92406	3.0586	81.64	-0.2455	-0.0535	0.192	1251.3275	0.159036	-423.053103	-423.044281	-423.043337	-423.086767	32.468	
C	 0.1285602787	 1.5336951138	-0.0104182854	-0.489866
C	-0.0471652937	 0.0400766451	 0.0371389825	 0.185426
C	-1.2107843615	-0.6425538175	 0.0056312504	 0.105618
C	-1.2251762696	-2.1557338857	 0.0102794159	-0.290077
C	 0.1427298262	-2.7087649753	-0.3685233956	-0.102707
O	 1.1608456704	-2.0810077557	 0.3984131875	-0.242742
C	 1.2649280945	-0.7099673091	 0.1134437188	-0.137815
C	-2.5299579417	 0.0111519886	-0.0314086603	 0.082174
O	-3.5761082962	-0.60211572	-0.0779727672	-0.274534
H	 0.8678237249	 1.7984754359	-0.7766775922	 0.136792
H	-0.7857066294	 2.0832534689	-0.2282363938	 0.141507
H	 0.5278302198	 1.9007043666	 0.9435427199	 0.141464
H	-1.5172052653	-2.5205925677	 1.0028523883	 0.123847
H	-1.9968412709	-2.5106234184	-0.6804859981	 0.126085
H	 0.2175853141	-3.7787221784	-0.1588267859	 0.112771
H	 0.3318980063	-2.5580405218	-1.4444862041	 0.08953
H	 1.8083724219	-0.5432313598	-0.8377715122	 0.10232
H	 1.8883128051	-0.2738743737	 0.9045581143	 0.123459
H	-2.5367391537	 1.118899494	-0.0056632126	 0.066749
96.1023	120.5119	143.8174	170.3161	234.1385	314.0585	328.6878	352.0977	433.3745	466.6886	522.6696	600.9716	643.7231	754.7387	853.1121	918.0028	944.2552	949.3934	1024.0382	1024.5165	1075.193	1083.0317	1130.1283	1148.4911	1167.6452	1220.905	1249.2018	1286.6826	1319.8184	1369.8394	1390.5831	1406.7642	1417.5915	1442.6206	1468.922	1473.8701	1479.9992	1491.049	1503.028	1698.7927	1771.0389	2912.8485	2926.5386	2969.7717	3026.023	3035.5262	3042.2219	3069.7588	3083.4028	3096.3284	3155.6918
CC1=C(CCOC1)C=O	CC1=C(CCOC1)C=O	
InChI=1S/C7H10O2/c1-6-5-9-3-2-7(6)4-8/h4H,2-3,5H2,1H3	InChI=1S/C7H10O2/c1-6-5-9-3-2-7(6)4-8/h4H,2-3,5H2,1H3
