19
gdb 97272	2.56085	0.98473	0.73756	7.9035	77.03	-0.2378	0.0057	0.2435	1505.8865	0.158511	-456.395388	-456.385588	-456.384643	-456.430464	35.676	
C	 0.0772009284	 1.3866289698	-0.3610421251	-0.41403
C	 0.1055472921	-0.1310580854	-0.1598928306	 0.045556
C	 0.5463368148	-0.4864526431	 1.2778580647	-0.323742
C	 0.773493756	-1.9760369346	 1.569541848	 0.390145
O	-0.0722980308	-2.8236143635	 0.9708403606	-0.372776
O	 1.6405125373	-2.3569692221	 2.3131951254	-0.337715
N	-1.1423721215	-0.8472303476	-0.4367183693	-0.245389
H	-0.6767132921	-2.2961506308	 0.3844945938	 0.294251
C	-2.1473244999	-0.290523555	-0.9830624643	 0.107071
N	-3.2860127458	-0.9710145954	-1.2981230092	-0.501606
H	 1.0573838326	 1.8077829013	-0.1220645926	 0.127915
H	-0.1505271531	 1.6592422999	-1.3965214714	 0.119605
H	-0.6608908393	 1.8638731037	 0.2938229289	 0.119618
H	 0.8587998191	-0.5480578398	-0.8447066321	 0.104265
H	 1.4777888727	 0.0253840229	 1.5276948934	 0.127014
H	-0.2202586352	-0.12621005	 1.9772470005	 0.122003
H	-2.1735683123	 0.7604007232	-1.2835915132	 0.105676
H	-4.1311824211	-0.4511508879	-1.4601832947	 0.26553
H	-3.3940891819	-1.9007097958	-0.9222925927	 0.266609
59.6321	102.0882	133.0503	165.5161	196.6091	258.9459	303.5387	339.9625	354.4292	370.5532	443.6345	497.7725	572.0685	599.5294	608.3892	701.2593	841.0646	874.3968	914.7317	930.201	948.7758	1005.3077	1053.4784	1108.2712	1118.5898	1176.9486	1215.5201	1288.0332	1300.767	1306.7815	1356.0578	1371.5448	1399.264	1422.5922	1457.9183	1494.8584	1505.0242	1516.5292	1634.1128	1763.115	1855.9488	2993.7504	3029.4048	3033.4154	3092.7446	3099.5045	3112.6102	3119.1983	3216.603	3592.9877	3721.2475
CC(CC([O-])=O)[NH+]=CN	C[C@@H](CC(=O)O)N=CN	
InChI=1S/C5H10N2O2/c1-4(7-3-6)2-5(8)9/h3-4H,2H2,1H3,(H2,6,7)(H,8,9)	InChI=1S/C5H10N2O2/c1-4(7-3-6)2-5(8)9/h3-4H,2H2,1H3,(H2,6,7)(H,8,9)/t4-/m0/s1
