19
gdb 38358	2.28401	2.1292	1.38205	0.778	76.34	-0.2389	-0.0005	0.2384	975.9793	0.161682	-423.002086	-422.994832	-422.993888	-423.033468	29.281	
C	 0.1609133403	 1.4772089196	-0.3748366723	-0.299869
C	 1.6567531729	 1.2856014971	-0.0469155217	 0.123882
C	 2.1502179736	 1.9128388113	 1.2476754786	-0.099935
O	 1.2246651759	 1.829663989	 2.3097212547	-0.250459
C	 1.0449178473	 0.5460231596	 2.910694153	-0.124178
C	-0.2438799749	-0.1412665298	 2.5081601476	-0.067121
C	-0.6859896598	-0.3647178883	 1.2687611691	-0.046227
C	 0.0383175406	-0.0284431995	-0.0003022944	 0.075892
O	 1.4795505914	-0.1418749687	 0.1147497461	-0.301937
H	-0.378227091	 2.1662596322	 0.2735849162	 0.126541
H	-0.0463968329	 1.6954478332	-1.4231405556	 0.106761
H	 2.362821731	 1.5102608587	-0.857303781	 0.073082
H	 3.1058390373	 1.4361546755	 1.522118204	 0.09874
H	 2.3365387636	 2.9822229342	 1.0907723008	 0.104676
H	 1.9082318013	-0.0965333383	 2.6967331978	 0.120165
H	 1.020418095	 0.723935153	 3.9920623792	 0.100134
H	-0.8735645948	-0.4608780318	 3.335526587	 0.092094
H	-1.6612135411	-0.8298942676	 1.1406359032	 0.088004
H	-0.3260219657	-0.6656227394	-0.8147443423	 0.079755
142.4072	206.9145	250.9594	286.5866	320.2393	407.0199	440.4357	558.8032	605.1063	704.2341	739.7691	751.4867	812.7945	871.9324	898.2833	906.0384	960.5554	973.1468	990.9825	1014.7749	1047.8988	1066.8631	1084.0339	1104.1195	1131.6952	1169.1573	1246.1731	1259.4637	1262.8653	1271.4501	1309.4799	1341.6426	1360.7584	1381.0325	1397.9557	1414.0512	1424.9725	1468.3905	1476.8496	1485.5397	1714.9088	2974.0466	3017.4885	3019.0121	3030.6915	3059.2437	3061.2161	3090.4108	3137.7286	3157.1789	3161.4675
C1C2COCC=CC1O2	C1[C@H]2COCC=C[C@@H]1O2	
InChI=1S/C7H10O2/c1-2-6-4-7(9-6)5-8-3-1/h1-2,6-7H,3-5H2/b2-1-	InChI=1S/C7H10O2/c1-2-6-4-7(9-6)5-8-3-1/h1-2,6-7H,3-5H2/b2-1-/t6-,7-/m0/s1
