21
gdb 74438	2.87628	1.51486	1.29206	1.6229	83.64	-0.2276	0.0197	0.2473	1097.4118	0.183181	-387.107102	-387.098866	-387.097921	-387.139226	33.201	
C	 0.0247533884	 1.5007077376	 0.0740494771	-0.511733
C	-0.0709382282	 0.0138268164	-0.0137475198	 0.340104
C	-0.1214497199	-0.7771690741	-1.0940352017	-0.230757
C	-0.0602936606	-2.2184569599	-0.603438628	 0.40297
C	-0.3742818073	-3.327621663	-1.5768057312	-0.486384
C	-0.8507161231	-2.1004252578	 0.7138321034	-0.251349
C	 0.0228118665	-0.9161200101	 1.1925586481	-0.152901
C	 1.418464782	-1.6022466771	 1.0733725234	-0.073825
O	 1.3019815072	-2.4245878867	-0.0882802854	-0.308906
H	 0.9590187461	 1.812290272	 0.5589967952	 0.128342
H	-0.0120697284	 1.9645353286	-0.9155603831	 0.12605
H	-0.7913097677	 1.9174805738	 0.6782450285	 0.125459
H	-0.0801110494	-0.4748978322	-2.134015381	 0.08924
H	 0.3261173919	-3.3095033285	-2.4174277272	 0.126002
H	-0.2929920815	-4.3027540559	-1.0885527105	 0.121851
H	-1.388363944	-3.214435848	-1.9717150468	 0.116736
H	-1.8972892886	-1.8264336545	 0.5705628715	 0.097639
H	-0.770240948	-2.9988083203	 1.3341507378	 0.092967
H	-0.1872821257	-0.4784430112	 2.1692282029	 0.062137
H	 2.234003169	-0.87876987	 0.9506612901	 0.092578
H	 1.6333363712	-2.2286974889	 1.9490810667	 0.09378
155.8764	179.3624	207.3949	236.869	270.6841	298.2237	369.518	463.5832	498.1331	550.2643	572.5844	633.6483	733.7734	797.8515	811.6561	844.9627	866.9487	895.0648	918.4255	954.4111	985.6036	1011.9634	1024.6759	1037.8522	1072.1907	1101.4405	1134.2143	1146.073	1175.3447	1211.5734	1223.4431	1253.5143	1272.4171	1316.3721	1353.033	1362.1111	1411.357	1416.759	1478.4102	1482.1123	1485.5508	1488.5324	1495.1314	1524.7356	1688.5201	3007.723	3014.6643	3041.5244	3046.1108	3055.393	3059.7196	3108.0339	3109.7498	3112.2282	3118.2984	3125.6171	3196.0081
CC1=CC2(C)CC1CO2	CC1=C[C@]2(C)C[C@H]1CO2	
InChI=1S/C8H12O/c1-6-3-8(2)4-7(6)5-9-8/h3,7H,4-5H2,1-2H3	InChI=1S/C8H12O/c1-6-3-8(2)4-7(6)5-9-8/h3,7H,4-5H2,1-2H3/t7-,8+/m0/s1
