16
gdb 9796	3.03229	1.65215	1.40327	3.8609	64.87	-0.2717	0.0249	0.2966	939.9197	0.130109	-379.906246	-379.897806	-379.896862	-379.939165	31.008	
N	-0.0965535754	 1.4358163837	 0.0947509214	-0.52049
C	 0.0611478155	-0.0177906307	-0.0219748907	-0.188418
C	 0.7895086213	-0.4203248054	-1.2476005777	 0.267586
N	 1.3493014553	-0.6987138405	-2.2201472885	-0.326956
C	 0.7593621144	-0.5504720508	 1.229815408	 0.454492
O	 1.9049005097	 0.1771809605	 1.5692028638	-0.469412
C	-0.0668788187	-1.1425979854	 2.3399485507	-0.335629
C	 0.8202470486	-2.0221973039	 1.4780930708	-0.297666
H	 0.8091622979	 1.8725828609	-0.0530616321	 0.246104
H	-0.7020246547	 1.7806675887	-0.6438070521	 0.247169
H	-0.9368800882	-0.4650322997	-0.0763378501	 0.129799
H	 1.6052620185	 0.9931087112	 1.987515106	 0.291088
H	 0.2672639748	-0.9419457776	 3.3516547726	 0.122896
H	-1.1429275924	-1.2057716561	 2.2195442705	 0.118291
H	 0.3551857397	-2.6886532782	 0.7596821064	 0.125961
H	 1.7371240038	-2.3954881967	 1.9180295309	 0.135185
59.7161	133.6083	194.2299	213.5796	247.1157	332.6532	342.6875	386.3879	472.9239	507.7933	545.5263	612.1349	765.4963	789.2003	856.3005	908.2391	917.2005	949.46	989.9505	1004.4336	1052.6616	1080.3375	1097.8219	1177.9763	1184.4018	1262.952	1297.807	1325.2289	1380.3931	1402.5536	1455.7811	1500.503	1655.6074	2346.3126	3063.3174	3135.2776	3142.7693	3221.2098	3236.8629	3498.809	3575.9681	3788.1745
NC(C#N)C1(O)CC1	N[C@@H](C#N)C1(O)CC1	
InChI=1S/C5H8N2O/c6-3-4(7)5(8)1-2-5/h4,8H,1-2,7H2	InChI=1S/C5H8N2O/c6-3-4(7)5(8)1-2-5/h4,8H,1-2,7H2/t4-/m0/s1
