21
gdb 113080	2.12522	1.22297	0.94161	2.8246	74.82	-0.245	0.052	0.2969	1348.2024	0.180956	-461.340218	-461.330068	-461.329124	-461.376074	36.666	
C	 0.6318628289	 1.3349501148	 0.1593086417	-0.387017
C	 0.2587235879	-0.1443382916	 0.0231707543	-0.182186
C	 0.5816513899	-0.6813519492	-1.3605538095	 0.138317
O	 2.0028097655	-0.6437908205	-1.6737066813	-0.328726
C	 2.0571104156	-2.080727458	-1.8754551212	 0.083446
C	 3.0406786131	-2.7057683236	-0.89810742	-0.070589
O	 4.3087939722	-2.0922725876	-1.0363816136	-0.425504
C	 0.5386581521	-2.2111491244	-1.5847358445	 0.004572
O	 0.1473851042	-2.9311811583	-0.4373409648	-0.417026
H	 1.6961277215	 1.4832280905	-0.0452847687	 0.130332
H	 0.0666652882	 1.9551679877	-0.5454436039	 0.112288
H	 0.4245847848	 1.7014561878	 1.1688442754	 0.113324
H	 0.7838146136	-0.7415012603	 0.7745776352	 0.11293
H	-0.8135241281	-0.289061303	 0.2036184359	 0.103256
H	 0.0227316001	-0.1173924035	-2.1201483999	 0.075648
H	 2.3545748725	-2.3084630981	-2.9071808714	 0.076326
H	 2.6529467937	-2.6165846617	 0.1260250189	 0.099628
H	 3.1724674605	-3.7719931542	-1.1161996017	 0.098021
H	 4.142219549	-1.1423643989	-0.9878952484	 0.291473
H	-0.052026514	-2.5113928081	-2.4576950002	 0.079035
H	 0.0614033588	-3.8598826399	-0.6719639225	 0.292453
39.6726	89.9002	104.0852	171.126	176.1694	222.3116	251.3437	278.2678	311.334	435.6988	465.9486	482.3124	521.02	572.7021	759.6515	815.2965	838.5178	852.9419	918.4585	958.8852	976.5767	1037.3969	1056.0817	1082.2411	1104.0532	1122.59	1134.9287	1176.072	1211.1397	1221.6635	1262.5633	1278.3193	1294.2592	1322.5	1327.9701	1353.1997	1387.0203	1406.0971	1417.0503	1433.4427	1442.32	1474.3958	1497.761	1503.4247	1509.5889	3003.2732	3008.4433	3020.2654	3035.4705	3039.5012	3040.5738	3067.6562	3084.2889	3106.4709	3117.2567	3777.7561	3831.2761
CCC1OC(CO)C1O	CC[C@H]1O[C@@H](CO)[C@H]1O	
InChI=1S/C6H12O3/c1-2-4-6(8)5(3-7)9-4/h4-8H,2-3H2,1H3	InChI=1S/C6H12O3/c1-2-4-6(8)5(3-7)9-4/h4-8H,2-3H2,1H3/t4-,5+,6+/m1/s1
