21
gdb 83001	2.50253	1.73315	1.49782	1.7686	80.41	-0.2407	0.0693	0.31	1008.624	0.185107	-387.066328	-387.058643	-387.057699	-387.098287	30.878	
C	-0.0641265833	 1.614519059	-0.1184479797	-0.407589
C	 0.0642188158	 0.1140044162	 0.0407178817	 0.00244
C	 1.3164679848	-0.6888155537	-0.20426527	-0.065932
C	 2.6868195421	 0.000543924	-0.172535949	-0.264055
C	 2.99527792	 0.3372328708	 1.3083773258	-0.061441
C	 2.7903417784	 1.7746661925	 1.8253482493	-0.090456
O	 1.5271635913	 1.43209873	 2.4312088376	-0.293554
C	 1.7112664081	 0.021834524	 2.1175557175	 0.118668
C	 0.7049221588	-0.6336049166	 1.1949624243	-0.082451
H	 0.874869137	 2.1473476436	 0.0234947287	 0.122597
H	-0.4247903162	 1.8435069001	-1.1280101691	 0.104515
H	-0.7807868964	 2.0263060511	 0.5978387635	 0.1268
H	-0.8301923061	-0.4018117315	-0.3046276542	 0.083579
H	 1.2322859591	-1.5879770914	-0.8056941928	 0.08029
H	 3.4429220862	-0.6797688561	-0.574565143	 0.102745
H	 2.7151565409	 0.898292023	-0.8014823387	 0.103855
H	 3.9151986863	-0.1397709172	 1.6504369761	 0.0764
H	 3.5223034551	 2.0955941034	 2.5778186564	 0.096249
H	 2.6939796593	 2.56620425	 1.0708020906	 0.098024
H	 1.8360010518	-0.5567820345	 3.0402771176	 0.072014
H	 0.1563990271	-1.4812877166	 1.5915152876	 0.077304
118.6768	153.5769	189.5567	236.9878	313.6092	374.3875	463.0785	565.5178	647.5855	684.0503	717.7501	748.3895	812.7434	852.9561	870.3712	890.2375	912.8938	955.2008	977.514	1006.3941	1016.7718	1040.5249	1045.8295	1083.8547	1106.2965	1118.7603	1134.5922	1141.4284	1168.5382	1203.461	1222.0199	1248.3895	1263.5045	1306.9923	1324.5541	1346.6697	1355.8278	1366.1327	1375.743	1422.2545	1441.8977	1483.6778	1497.1525	1498.7275	1530.2181	3006.3458	3032.8924	3036.2256	3038.7159	3044.6485	3075.5479	3096.8466	3099.08	3112.0819	3153.4213	3156.138	3165.3035
CC1C2CC3COC3C12	C[C@H]1[C@H]2C[C@H]3CO[C@H]3[C@@H]12	
InChI=1S/C8H12O/c1-4-6-2-5-3-9-8(5)7(4)6/h4-8H,2-3H2,1H3	InChI=1S/C8H12O/c1-4-6-2-5-3-9-8(5)7(4)6/h4-8H,2-3H2,1H3/t4-,5-,6+,7-,8+/m0/s1
