16
gdb 34106	3.48138	1.54478	1.3247	4.8167	71.7	-0.2258	0.0145	0.2403	958.3704	0.127643	-396.884713	-396.877936	-396.876991	-396.915766	27.231	
N	 0.0560904673	-1.1193039766	 0.0621215357	-0.338416
C	 0.0195248361	 0.0349628187	 0.0280982103	 0.217959
C	-0.0605604009	 1.4865613387	-0.0134695752	 0.180417
C	-1.0271231736	 2.1072464067	 1.0124557366	-0.205034
N	-1.0262680237	 3.5352908094	 0.62611452	-0.324864
C	-0.613749198	 3.5740005071	-0.7746666446	-0.032659
C	 0.7923876207	 3.0781686424	-1.0669154192	-0.013428
N	 1.2655262598	 2.1927656724	 0.0021289984	-0.342994
C	-0.4060562283	 2.2008075766	-1.3543601911	-0.162998
H	-2.0150646674	 1.6303717223	 0.9335507126	 0.113008
H	-0.6603901797	 1.9727262512	 2.0359482086	 0.123875
H	-1.9520109144	 3.9326253816	 0.7294986649	 0.231415
H	-1.0148179932	 4.3737488894	-1.3853518548	 0.104873
H	 1.4854568963	 3.5604395294	-1.7464311423	 0.104879
H	 1.4322349446	 2.675913126	 0.8850726949	 0.229906
H	-0.7928822256	 1.7554532647	-2.2590488648	 0.114061
152.5573	157.933	240.0415	385.8729	475.0175	514.7569	537.0407	577.6527	648.7709	698.505	752.1518	783.9006	797.6885	876.7016	893.2817	943.0122	990.6249	996.8661	1032.1543	1039.2615	1055.3713	1068.3877	1102.7384	1117.7657	1144.9276	1192.983	1229.5939	1230.5532	1293.929	1330.0003	1387.8668	1405.3132	1437.2896	1508.7278	2363.3244	2997.5766	3066.5765	3178.1547	3195.4247	3225.5222	3451.0349	3551.7651
N#CC12CNC3C(N1)C23	N#C[C@@]12CN[C@H]3[C@@H](N1)[C@@H]23	
InChI=1S/C6H7N3/c7-1-6-2-8-4-3(6)5(4)9-6/h3-5,8-9H,2H2	InChI=1S/C6H7N3/c7-1-6-2-8-4-3(6)5(4)9-6/h3-5,8-9H,2H2/t3-,4+,5-,6-/m0/s1
