23
gdb 72403	2.71931	1.49544	1.40435	1.2289	84.19	-0.2474	0.075	0.3224	1101.504	0.207169	-388.331833	-388.323314	-388.32237	-388.364116	34.882	
C	-0.1000112229	 1.4547462568	 0.022709206	-0.481481
C	 0.0331651589	-0.0519313209	 0.0004262237	 0.403139
C	 0.6463250801	-0.6608261252	-1.2881449344	-0.250811
C	 0.0295451437	-2.0866676713	-1.2837304174	-0.250758
C	-0.8310373882	-2.0500948251	 0.0066737081	 0.403137
C	-2.0200919033	-2.9847462416	 0.0364322485	-0.48148
C	 0.1157039727	-2.1160405321	 1.234066226	-0.250806
C	 0.7323145036	-0.6901348511	 1.2296540863	-0.250756
O	-1.2627490557	-0.6773085265	 0.0374361164	-0.318682
H	 0.8876945186	 1.9260809061	-0.003652797	 0.115936
H	-0.6702351945	 1.8057914121	-0.8424715861	 0.121217
H	-0.6126547047	 1.7843044238	 0.9312908165	 0.121283
H	 0.3248427044	-0.0909189792	-2.1639692132	 0.097323
H	 1.7395768851	-0.658696121	-1.2712804868	 0.093086
H	-0.6080536339	-2.247072484	-2.1572079138	 0.097323
H	 0.7766013107	-2.8848043602	-1.2645703235	 0.093082
H	-1.6872535901	-4.0273709934	 0.0126455488	 0.115936
H	-2.6083504877	-2.8336741813	 0.9464088936	 0.121246
H	-2.6692166717	-2.8126367918	-0.8272492607	 0.121255
H	-0.4607412565	-2.2974967175	 2.1451095837	 0.097322
H	 0.8591861914	-2.9127931977	 1.1451393533	 0.093086
H	 1.8218774865	-0.6865602432	 1.1384221733	 0.093082
H	 0.4715749434	-0.1410632357	 2.1383680989	 0.09732
131.779	207.2365	215.5578	233.3459	281.7851	291.3888	360.2457	406.7337	424.8637	565.1199	583.8569	597.8183	608.144	757.701	812.534	849.836	860.1222	880.0416	904.7023	908.7385	909.7245	973.6125	982.9252	987.8042	1026.7377	1074.2103	1105.233	1143.847	1180.8791	1195.9181	1209.1013	1227.4723	1255.8657	1261.8906	1283.3867	1284.5652	1305.6486	1355.3854	1363.2548	1409.9147	1417.1578	1473.6197	1484.4315	1487.7172	1490.6292	1496.3569	1496.6189	1496.997	1515.94	3038.0089	3038.436	3050.0379	3054.2299	3059.6736	3066.2858	3087.9464	3093.6671	3106.0505	3109.4789	3110.2082	3113.7213	3114.8081	3115.7812
CC12CCC(C)(CC1)O2	C[C@@]12CC[C@@](C)(CC1)O2	
InChI=1S/C8H14O/c1-7-3-5-8(2,9-7)6-4-7/h3-6H2,1-2H3	InChI=1S/C8H14O/c1-7-3-5-8(2,9-7)6-4-7/h3-6H2,1-2H3/t7-,8+
