21
gdb 99197	6.43889	0.49961	0.4703	2.5896	89.1	-0.2366	-0.0105	0.2261	2362.029	0.178368	-387.099982	-387.088305	-387.087361	-387.140692	38.705	
C	 0.1301699454	 1.5275083776	-0.0228651234	-0.374404
C	-0.0493015216	 0.0128994575	-0.0899542119	-0.276852
C	-1.498228963	-0.4369814313	 0.053009633	 0.372665
O	-2.403411828	 0.3527268551	 0.2044777844	-0.296194
C	-1.7462151442	-1.9390104869	-0.0052416776	-0.288204
C	-3.2302234057	-2.310434315	 0.1462755601	-0.360266
C	-3.4529844079	-3.7507725057	 0.0887070402	 0.010972
C	-3.612710834	-4.9433193391	 0.0381668183	 0.121135
C	-3.8233060724	-6.383108592	-0.020781786	-0.497466
H	 1.1845374117	 1.7968685669	-0.1302938699	 0.109695
H	-0.4368847978	 2.022835679	-0.8150076845	 0.131512
H	-0.2332195353	 1.9214282706	 0.9295877588	 0.131508
H	 0.3354385872	-0.3915107532	-1.0364864528	 0.121053
H	 0.5370096231	-0.491892976	 0.6903775522	 0.121049
H	-1.348544048	-2.3244587153	-0.9528302813	 0.129399
H	-1.1469837425	-2.4247523877	 0.7755365571	 0.129404
H	-3.6050713428	-1.9027607814	 1.0920267341	 0.139231
H	-3.806529097	-1.8025593787	-0.6354467591	 0.139227
H	-4.4875966687	-6.6560639892	-0.8483980543	 0.146229
H	-2.8789236064	-6.9197186881	-0.165945317	 0.144091
H	-4.2766103319	-6.7586588772	 0.9034547695	 0.146216
16.0412	20.8676	58.7854	63.8994	68.1206	171.2375	191.7722	212.7076	274.0531	281.1994	377.8482	386.932	470.3257	508.3051	637.3785	704.1429	752.586	802.2821	856.6084	966.1421	976.6915	1011.2587	1053.0135	1053.8199	1076.6305	1095.4719	1128.2204	1169.5526	1184.1354	1277.7431	1294.3766	1311.1458	1366.4058	1386.5083	1413.8799	1415.7573	1444.8774	1457.3994	1472.0622	1479.3507	1479.91	1492.6446	1497.8621	1803.347	2374.1319	3015.6251	3024.3209	3030.8802	3041.6773	3042.0379	3051.4209	3056.4064	3076.8854	3083.4518	3084.2804	3122.5503	3127.5911	16.0229	20.8636	58.7838	63.8989	68.1199	171.2372	191.7732	212.7076	274.0537	281.2	377.8494	386.9388	470.3259	508.3062	637.3786	704.1427	752.586	802.2824	856.6083	966.1426	976.6917	1011.259	1053.0142	1053.8205	1076.6309	1095.4723	1128.2209	1169.553	1184.1361	1277.7438	1294.3772	1311.1467	1366.4065	1386.5091	1413.8798	1415.7576	1444.8787	1457.4006	1472.0619	1479.3513	1479.9106	1492.6445	1497.8619	1803.3492	2374.1327	3015.6252	3024.3208	3030.8802	3041.6773	3042.0377	3051.4208	3056.4064	3076.8854	3083.4517	3084.2803	3122.5503	3127.5911
CCC(=O)CCC#CC	CCC(=O)CCC#CC	
InChI=1S/C8H12O/c1-3-5-6-7-8(9)4-2/h4,6-7H2,1-2H3	InChI=1S/C8H12O/c1-3-5-6-7-8(9)4-2/h4,6-7H2,1-2H3
