22
gdb 8436	2.61968	2.03284	1.72816	0.2841	81.59	-0.2419	0.0841	0.326	937.8001	0.199433	-313.056042	-313.047415	-313.046471	-313.088012	34.367	
C	-0.1038128861	 1.5452828518	 0.0661754722	-0.50337
C	 0.0363022801	 0.0479413204	 0.0260867318	 0.350438
C	-0.8151221921	-0.8437519575	 0.8934724355	-0.339594
C	 0.6802000989	-0.9141578272	 1.0300490598	-0.088598
C	 1.2478562464	-1.769655876	-0.1049662295	-0.279765
C	 0.6461427799	-0.7622670035	-1.1544842373	 0.284896
C	-0.3313120033	-1.332497266	-2.1829369824	-0.449893
C	 1.7619552048	 0.0116723429	-1.8610551983	-0.443629
H	 0.8172395255	 2.0542183376	-0.2367522359	 0.115854
H	-0.9061293289	 1.8911959959	-0.5978399378	 0.11624
H	-0.3514504333	 1.8846484256	 1.0775973796	 0.114415
H	-1.3371939324	-0.3279606942	 1.6940539587	 0.103489
H	-1.366843755	-1.687532859	 0.4855049112	 0.099668
H	 1.1822887038	-0.6896553402	 1.9642633498	 0.077802
H	 2.3397268569	-1.7993803856	-0.1402977015	 0.094808
H	 0.8712475225	-2.7979172143	-0.1504701522	 0.087452
H	-1.139435768	-1.900248087	-1.7133461924	 0.110725
H	-0.7874880334	-0.5325117693	-2.777938556	 0.109335
H	 0.1847368829	-2.0057961803	-2.8775366922	 0.109382
H	 2.3166855104	-0.6498501552	-2.5360297974	 0.108942
H	 1.3627363255	 0.8381288503	-2.4601144979	 0.109774
H	 2.475030365	 0.4310399409	-1.143421438	 0.111629
149.7804	195.0488	211.3082	235.8779	267.9858	293.4999	339.1293	356.8129	413.7234	447.7066	469.9469	607.3671	638.1129	781.9745	821.1713	859.8707	879.7329	923.1569	951.1707	964.8424	980.1092	996.4467	1021.4311	1037.904	1049.0008	1087.9618	1109.5844	1164.545	1175.7133	1233.339	1238.3728	1255.1749	1280.5642	1314.0892	1378.7872	1403.1207	1414.0613	1424.1085	1480.3838	1483.1505	1488.0936	1490.3662	1497.7683	1504.9143	1509.3913	1510.1007	3018.6205	3020.3993	3025.3699	3035.3035	3077.1541	3081.5717	3088.2286	3091.9339	3095.1603	3097.7763	3102.8866	3108.6556	3170.3556	3190.9766
CC12CC1CC2(C)C	C[C@]12C[C@H]1CC2(C)C	
InChI=1S/C8H14/c1-7(2)4-6-5-8(6,7)3/h6H,4-5H2,1-3H3	InChI=1S/C8H14/c1-7(2)4-6-5-8(6,7)3/h6H,4-5H2,1-3H3/t6-,8+/m1/s1
