17
gdb 14111	3.86798	1.74492	1.36856	2.6607	69.34	-0.2389	-0.0171	0.2218	927.4506	0.141816	-363.846124	-363.838331	-363.837387	-363.878553	28.713	
C	 0.5756128865	 0.4963815366	-0.9921127732	-0.480244
C	-0.1655459877	 0.3477537233	 0.3204419109	 0.298159
O	 0.2372516952	 0.8309623899	 1.3584096023	-0.312982
C	-1.4327414294	-0.4319694086	 0.310656236	 0.245448
C	-2.3487397931	-0.641290846	 1.5245907041	-0.300797
C	-2.6094709922	-2.1096813321	 1.0539660029	-0.238625
C	-1.6901146684	-1.8649628734	-0.1499100573	-0.076701
N	-2.1134288202	-0.7366451565	-0.9491402853	-0.353889
H	 1.5348147267	 0.9825938451	-0.8110901567	 0.134612
H	 0.7269404224	-0.474952431	-1.4729729228	 0.137976
H	-0.0228359185	 1.0922225518	-1.6885323656	 0.150716
H	-1.7972772202	-0.5882492768	 2.4633702399	 0.1364
H	-3.2112844117	 0.0300102435	 1.580944635	 0.100404
H	-2.2135061228	-2.8478064934	 1.7543503721	 0.117837
H	-3.6392914847	-2.3832698584	 0.8020382716	 0.103604
H	-0.997413113	-2.5706738721	-0.5952007832	 0.105841
H	-3.115417699	-0.560149842	-0.8928779106	 0.23224
70.7707	111.7429	162.3062	197.9497	307.0824	362.6035	478.7627	496.2639	590.4267	630.7471	757.391	780.7187	799.2606	885.891	930.2572	946.222	967.1087	1015.5443	1039.4902	1068.2192	1090.6694	1096.191	1162.6232	1172.1867	1213.2969	1228.4003	1256.0045	1298.553	1316.2572	1382.9308	1430.7397	1456.5925	1469.0136	1480.3168	1498.3524	1785.1443	3048.2632	3049.713	3060.0783	3110.2811	3112.4522	3140.9393	3155.7918	3175.9134	3460.5221
CC(=O)C12CCC1N2	CC(=O)[C@]12CC[C@H]1N2	
InChI=1S/C6H9NO/c1-4(8)6-3-2-5(6)7-6/h5,7H,2-3H2,1H3	InChI=1S/C6H9NO/c1-4(8)6-3-2-5(6)7-6/h5,7H,2-3H2,1H3/t5-,6-/m1/s1
