19
gdb 64206	2.51294	1.43046	1.33799	3.6316	70.83	-0.2448	0.0579	0.3027	1072.3682	0.157177	-460.119182	-460.11021	-460.109266	-460.152956	33.473	
C	-0.1777250369	 1.535333644	-0.0284610085	-0.46609
C	-0.0163224217	 0.0231489297	-0.0695508837	 0.267205
O	-1.2215937438	-0.627744868	-0.4047571867	-0.467839
C	 1.2575648436	-0.4740845457	-0.8016127476	-0.123938
O	 1.8674925107	-0.8343482762	 0.4566820508	-0.309849
C	 0.6505612877	-0.6143846478	 1.1778929162	 0.335867
C	 0.7373290737	 0.0252026595	 2.5715971421	-0.136369
O	-0.0127650898	-1.0545133878	 3.1588012097	-0.275823
C	-0.0000295011	-1.7978977487	 1.9191411151	-0.131102
H	 0.7478804286	 2.0236100002	 0.2898654678	 0.135236
H	-0.4272643954	 1.9196230004	-1.0255450312	 0.113584
H	-0.9786157212	 1.8207129945	 0.6602592288	 0.135049
H	-1.6638984811	-0.1221598344	-1.0942733175	 0.282966
H	 1.0712608363	-1.3479005758	-1.4372402255	 0.104417
H	 1.8513240702	 0.2679768553	-1.3475114481	 0.098709
H	 1.7690342968	 0.0765738642	 2.9445153087	 0.109092
H	 0.249297041	 0.9969239007	 2.7138460553	 0.099864
H	-1.0041452899	-2.0837179016	 1.5940345898	 0.123869
H	 0.6533011025	-2.6783959127	 1.9655048945	 0.105151
64.3116	91.5923	199.3638	221.7831	266.5812	274.8187	291.8803	346.8067	400.2349	452.688	502.4924	547.1423	663.7001	817.6054	887.097	895.8956	914.0241	930.7091	980.201	993.0872	1022.4432	1031.8127	1077.9516	1109.8532	1149.3384	1152.4619	1160.3815	1190.9629	1203.4605	1239.2551	1256.3987	1296.6124	1327.4783	1373.746	1402.1932	1407.6131	1488.9396	1491.6713	1496.3938	1516.9143	1520.3138	3006.9386	3019.0155	3024.6022	3026.0851	3057.2784	3073.7926	3093.473	3097.8561	3119.0131	3816.514
CC1(O)COC11COC1	C[C@@]1(O)COC21COC2	
InChI=1S/C6H10O3/c1-5(7)2-9-6(5)3-8-4-6/h7H,2-4H2,1H3	InChI=1S/C6H10O3/c1-5(7)2-9-6(5)3-8-4-6/h7H,2-4H2,1H3/t5-/m1/s1
