17
gdb 9660	4.70156	1.11593	1.04252	1.3228	67.22	-0.2616	-0.0342	0.2274	1141.2349	0.140337	-400.981634	-400.972784	-400.97184	-401.015454	31.338	
C	 0.061406164	 1.5716650891	-0.173817482	-0.460318
C	 0.0096053357	 0.0819619852	 0.0673328656	 0.21108
N	 1.288205754	-0.6720563364	 0.0646519096	-0.367929
C	 0.5233375439	-0.6011754071	 1.3060591784	-0.071943
C	 1.1820452523	 0.1286880666	 2.4557530062	-0.074314
O	 2.1795741319	-0.6802811135	 3.0546568419	-0.414199
C	-1.1410414871	-0.6358357727	-0.5577140452	 0.121484
O	-2.0367437301	-0.106530268	-1.1636005899	-0.255785
H	 1.0013643442	 1.9959648184	 0.1797506746	 0.130034
H	-0.0294666023	 1.7759228852	-1.2442098278	 0.138983
H	-0.7713000719	 2.0732965895	 0.3271927785	 0.134385
H	 1.1737871635	-1.5786083787	-0.3871863548	 0.237828
H	-0.0046973818	-1.5046375427	 1.612712126	 0.098404
H	 1.5939594542	 1.0868503759	 2.1150063294	 0.099134
H	 0.4441359191	 0.3363979901	 3.2372422161	 0.118679
H	 2.8397326097	-0.8530597471	 2.3736843896	 0.291702
H	-1.1003219392	-1.7456168437	-0.4266303963	 0.062776
60.7481	107.4142	120.5374	170.771	246.2359	268.2694	332.0057	390.8622	406.987	447.7334	500.9796	608.3265	757.5608	812.8079	869.5458	953.4782	991.8245	994.0261	1050.6138	1063.807	1094.355	1108.6074	1129.5721	1190.9075	1260.3656	1274.8452	1357.5203	1368.1068	1413.038	1415.0195	1435.7999	1460.0117	1484.7222	1493.4393	1499.4877	1823.6828	2827.8553	3025.2376	3055.9875	3083.6477	3108.4	3119.6786	3149.2146	3466.5437	3800.3789
CC1(NC1CO)C=O	C[C@]1(N[C@H]1CO)C=O	
InChI=1S/C5H9NO2/c1-5(3-8)4(2-7)6-5/h3-4,6-7H,2H2,1H3	InChI=1S/C5H9NO2/c1-5(3-8)4(2-7)6-5/h3-4,6-7H,2H2,1H3/t4-,5-/m0/s1
