19
gdb 84825	3.04944	1.05293	0.86011	2.4936	77.21	-0.2484	-0.0193	0.2291	1338.3789	0.158523	-423.042609	-423.033594	-423.032649	-423.077544	32.827	
O	 0.0612861962	 1.4609351703	 0.602936732	-0.422836
C	-0.0350191312	 0.1451713358	 0.0570811849	 0.073028
C	 0.9201192013	-0.8094619473	 0.7317753313	-0.110989
C	 0.2835763759	-1.6862400552	 1.5087864334	-0.061338
C	-1.2161635801	-1.5401262431	 1.440345951	-0.272761
C	-1.4211069831	-0.5487227522	 0.2632574656	-0.039251
C	-2.585301304	 0.4374183457	 0.443871895	-0.277219
C	-3.9111146233	-0.2849948599	 0.4389398033	 0.159784
O	-4.6681252412	-0.3532125161	 1.3733874562	-0.244627
H	 0.1421799879	 1.3716594863	 1.5592795983	 0.277991
H	 0.169292164	 0.2864385373	-1.0093048335	 0.088561
H	 1.9950137406	-0.7059838661	 0.635993575	 0.101892
H	 0.765733076	-2.4265934907	 2.1385798818	 0.102867
H	-1.7223097853	-2.4965144103	 1.2667523728	 0.115835
H	-1.6230318882	-1.1551239963	 2.38578006	 0.119983
H	-1.6043325419	-1.1431433659	-0.6407758284	 0.084915
H	-2.4895580705	 0.9991431513	 1.376045598	 0.114137
H	-2.5795029846	 1.1543922545	-0.3878699369	 0.121885
H	-4.1507544588	-0.7926364179	-0.5265800898	 0.068142
46.685	76.3858	78.755	173.6588	260.5311	285.6295	350.9268	378.4073	458.4776	504.9022	548.1199	710.05	747.2812	781.0613	794.5131	848.8472	922.22	946.8558	970.2389	985.5501	1009.0145	1025.1728	1072.4365	1107.392	1118.9915	1138.5469	1172.4014	1216.0824	1242.121	1275.5211	1289.127	1317.0747	1337.9963	1366.7709	1378.7576	1427.7526	1431.0513	1460.355	1486.9895	1678.8771	1832.485	2841.0969	3015.6668	3021.8914	3031.0373	3056.2583	3062.1457	3111.7811	3182.542	3209.2897	3797.9833
OC1C=CCC1CC=O	O[C@H]1C=CC[C@H]1CC=O	
InChI=1S/C7H10O2/c8-5-4-6-2-1-3-7(6)9/h1,3,5-7,9H,2,4H2	InChI=1S/C7H10O2/c8-5-4-6-2-1-3-7(6)9/h1,3,5-7,9H,2,4H2/t6-,7-/m0/s1
