15
gdb 20675	3.19963	1.88148	1.27678	2.0634	62.75	-0.255	-0.01	0.245	927.3174	0.118885	-399.79395	-399.786194	-399.78525	-399.826409	27.626	
C	 0.105634754	 1.5002805725	 0.1074037469	-0.512828
C	 0.0528343206	 0.0064487704	 0.0486872189	 0.083772
C	 0.0423847996	-0.8234206981	-1.0252737677	-0.002516
O	-0.00777769	-2.1118962835	-0.6428542252	-0.169342
N	-0.0260310265	-2.1612611198	 0.7439817695	-0.20059
C	 0.0036429075	-0.9129287079	 1.1467424182	 0.286927
C	 0.0301349922	-0.5949449653	 2.6129599997	-0.175712
O	 1.1983778626	 0.1318292042	 2.9781896178	-0.410267
H	 0.866949259	 1.8278624187	 0.8204805386	 0.153144
H	 0.3336227752	 1.9287477641	-0.8718538822	 0.126995
H	-0.8499613952	 1.9227498511	 0.439730842	 0.135087
H	 0.0672034053	-0.6519451035	-2.0907890579	 0.147974
H	-0.8107220552	 0.0555034618	 2.8750923395	 0.124109
H	-0.0745407012	-1.5272295436	 3.182535558	 0.122556
H	 1.9572345522	-0.4314400811	 2.7918077439	 0.290692
79.4642	117.0034	160.8325	232.2741	266.9525	360.2273	389.1497	439.3763	615.3379	638.9252	695.5371	773.7918	838.2274	911.3803	949.4776	980.8311	1020.2635	1062.8654	1071.6386	1145.5477	1196.9073	1211.5967	1294.8368	1369.5261	1412.07	1421.1085	1438.1065	1481.422	1496.8424	1505.5859	1514.6835	1657.0042	3027.2065	3035.1951	3081.558	3094.583	3126.5249	3259.8098	3810.7882
CC1=CON=C1CO	Cc1conc1CO	
InChI=1S/C5H7NO2/c1-4-3-8-6-5(4)2-7/h3,7H,2H2,1H3	InChI=1S/C5H7NO2/c1-4-3-8-6-5(4)2-7/h3,7H,2H2,1H3
