18
gdb 22544	2.17847	1.10982	0.8234	2.5706	72.72	-0.2448	-0.0366	0.2082	1394.9673	0.143488	-476.18357	-476.172959	-476.172014	-476.220207	36.619	
C	-1.1995177066	 0.74164622	 0.2886370552	-0.487357
C	 0.0793544049	 0.0070802003	-0.0027084032	 0.32976
N	 1.0359805402	-0.1841961968	 0.8244177302	-0.165876
O	 0.7875018346	 0.3966138002	 2.0724263311	-0.393327
C	 0.2607317352	-0.5860064684	-1.3878790316	-0.17536
C	 1.7092511792	-0.9295693561	-1.75037678	-0.086632
O	 1.7814612262	-1.5588804381	-3.020841786	-0.418498
C	-0.6028819857	-1.8480049946	-1.4654072221	 0.174284
O	-1.7318876012	-1.8746324981	-1.8778653752	-0.250779
H	-1.4549637115	 0.6753533251	 1.3468038633	 0.155532
H	-1.0905297994	 1.8039751307	 0.0378316265	 0.142572
H	-2.014252208	 0.338046889	-0.3178222134	 0.151174
H	 1.5702263934	 0.1440258609	 2.573753855	 0.309056
H	-0.1564359834	 0.1218930943	-2.1163007944	 0.094431
H	 2.3347489217	-0.0290675113	-1.6924806019	 0.105364
H	 2.1141347767	-1.646588801	-1.0326415704	 0.134406
H	 1.4980819527	-0.9257765509	-3.6885748504	 0.286717
H	-0.1053620189	-2.7561078651	-1.0591874229	 0.094533
43.9719	73.6143	105.2148	109.5936	154.1752	197.4899	251.9575	298.8964	339.0805	347.412	389.7659	402.3388	431.8985	548.1122	566.456	671.3384	829.011	883.8775	974.4502	993.3194	1035.6217	1049.1979	1056.1147	1096.7855	1101.2619	1189.569	1219.3212	1276.096	1332.597	1385.522	1395.0206	1403.3741	1405.8699	1417.7078	1482.292	1486.9828	1502.5024	1721.7018	1829.4066	2894.5757	3021.2912	3029.4431	3038.4589	3105.5565	3112.5053	3152.1836	3813.2251	3817.9016
CC(=NO)C(CO)C=O	CC(=NO)[C@@H](CO)C=O	
InChI=1S/C5H9NO3/c1-4(6-9)5(2-7)3-8/h2,5,8-9H,3H2,1H3	InChI=1S/C5H9NO3/c1-4(6-9)5(2-7)3-8/h2,5,8-9H,3H2,1H3/t5-/m1/s1
