12
gdb 42259	3.10939	1.10704	0.97451	5.9375	66.4	-0.3065	-0.1113	0.1952	1168.8182	0.07669	-431.652651	-431.644403	-431.643459	-431.686754	28.133	
O	 0.3520835079	 0.3635808583	 0.9694612157	-0.251359
C	 0.1549959392	 1.3014083387	 0.2447738279	 0.346395
C	 1.2007404941	 1.8034653802	-0.6686471501	 0.218316
N	 2.0001039501	 2.2101328542	-1.398510092	-0.289166
C	-1.1260132641	 2.0830344922	 0.1889276027	-0.153193
N	-2.3218164207	 1.3867493737	 0.6569953633	-0.281977
C	-1.8220057509	 2.4872470931	 1.4716600411	-0.189469
C	-1.2845774578	 2.1668599041	 2.773175633	 0.360429
N	-0.8678892717	 1.9766472699	 3.8335844949	-0.314044
H	-1.2025993644	 2.7942936835	-0.6295778983	 0.135076
H	-3.1379530199	 1.6758478548	 0.1239746934	 0.264968
H	-2.3330004618	 3.4465373672	 1.4373321984	 0.154024
35.053	103.0121	147.0272	202.8908	244.2316	282.679	323.9131	462.0233	544.1039	576.1586	602.8889	739.7716	783.7307	858.5035	886.2265	924.7201	975.2924	1074.1587	1099.8025	1181.892	1192.5071	1234.9512	1404.6558	1453.6441	1804.6573	2338.6256	2369.4285	3143.7233	3153.7808	3518.9733
O=C(C#N)C1NC1C#N	O=C(C#N)[C@H]1N[C@H]1C#N	
InChI=1S/C5H3N3O/c6-1-3-5(8-3)4(9)2-7/h3,5,8H	InChI=1S/C5H3N3O/c6-1-3-5(8-3)4(9)2-7/h3,5,8H/t3-,5-/m0/s1
