19
gdb 17138	5.92509	1.13708	1.05543	2.4568	72.42	-0.2332	0.0809	0.3141	1146.9752	0.16547	-365.012804	-365.004867	-365.003923	-365.045276	30.236	
O	 0.8009557288	 0.4208071188	-0.7091032813	-0.431572
C	-0.0464869504	-0.3015827199	 0.1455774538	 0.183134
C	-0.03342493	-0.0280984087	 1.6749538925	-0.279688
C	-1.5669130075	-0.2756301769	 1.6808327703	 0.044172
C	-1.5755339478	-0.0259706517	 0.1477025875	-0.279691
N	-1.8713437602	-1.6656798742	 1.9862869736	-0.057782
C	-2.1988440572	-1.9654875594	 3.3753088369	-0.223131
C	-3.2575460795	-1.9640264189	 2.3268095364	-0.223132
H	 0.6499709565	 1.3595505894	-0.5554629252	 0.273851
H	 0.1532256103	-1.3556001769	-0.0575453639	 0.107575
H	 0.5818835611	-0.6650714179	 2.3137176351	 0.105969
H	 0.196860309	 1.0229891681	 1.8818361875	 0.086652
H	-2.1678107651	 0.4199127999	 2.2885439001	 0.049731
H	-1.7831715323	 1.0257228742	-0.0791138751	 0.086651
H	-2.2211134348	-0.6611995635	-0.462272631	 0.105969
H	-1.8073529743	-2.9005093217	 3.7655651765	 0.116756
H	-2.205677987	-1.141066347	 4.0870121089	 0.108892
H	-3.9680005151	-1.1386342973	 2.3416735997	 0.108892
H	-3.6528773044	-2.8979623565	 1.9378263277	 0.116755
81.8411	91.4561	205.0497	293.0418	293.1301	320.1934	387.1146	460.0086	488.8137	669.2176	724.0211	806.6725	824.6896	899.6652	907.0208	933.5328	954.1391	982.9967	1012.962	1038.1387	1082.4359	1089.6045	1110.425	1116.4506	1135.2655	1156.291	1172.1325	1199.1643	1219.7361	1263.1792	1266.4961	1289.947	1318.9883	1335.4633	1379.5648	1431.5381	1458.1101	1486.0682	1491.5064	1519.307	2956.2645	3042.5234	3049.8336	3092.5069	3094.4003	3097.2489	3115.2957	3120.6844	3176.0976	3190.4027	3802.1034
OC1CC(C1)N1CC1	O[C@H]1C[C@@H](C1)N1CC1	
InChI=1S/C6H11NO/c8-6-3-5(4-6)7-1-2-7/h5-6,8H,1-4H2	InChI=1S/C6H11NO/c8-6-3-5(4-6)7-1-2-7/h5-6,8H,1-4H2/t5-,6-
