18
gdb 68450	2.85442	1.72725	1.30925	1.506	71.76	-0.2418	0.0281	0.2699	980.3314	0.149116	-439.080884	-439.073422	-439.072478	-439.112296	30.16	
O	-0.2461280646	 1.4140084779	-0.1425843426	-0.474411
C	 0.0295148575	 0.0444631745	 0.0382923926	 0.371666
C	 0.2039635085	-0.4884239826	 1.4922389413	-0.311563
C	-0.6761731798	-1.6938225353	 1.078883826	 0.116267
C	-1.2234984439	-0.8486580641	-0.097548401	-0.28313
O	 0.0628712509	-2.846516933	 0.6802307601	-0.23374
C	 1.072526954	-2.7525691136	-0.2238188819	 0.12631
N	 1.5688821184	-1.8007967768	-0.8863566886	-0.26702
C	 1.165646104	-0.4124153588	-0.8828624334	-0.213864
H	 0.5799619469	 1.9052436502	-0.0700489743	 0.278517
H	 1.2103311224	-0.7041982348	 1.8596427774	 0.108451
H	-0.3237752079	 0.1533860084	 2.2016241614	 0.112919
H	-1.3923999087	-2.0730572745	 1.8067301556	 0.09484
H	-2.1181821827	-0.2980390446	 0.2017988574	 0.118505
H	-1.4009550075	-1.3566707103	-1.0480490217	 0.113694
H	 1.4913518167	-3.7512043293	-0.3490804403	 0.121574
H	 0.8926781168	-0.1410756939	-1.9117381131	 0.122569
H	 2.0631841793	 0.1815001907	-0.6460078646	 0.098414
153.637	240.6363	258.2858	287.8081	360.7369	390.1827	413.8621	431.6016	511.9471	514.6137	641.4129	783.7828	822.4079	834.5903	874.9828	896.1665	954.455	957.2376	972.1437	979.4757	1014.727	1070.2036	1093.4829	1126.7531	1176.4524	1193.2772	1204.7992	1246.7292	1258.4191	1271.2479	1293.9856	1363.6522	1386.3494	1400.6873	1442.3844	1455.0966	1469.0426	1488.5486	1759.1671	2979.4262	3031.5587	3063.462	3071.6267	3117.992	3127.563	3132.6246	3138.0589	3796.98
OC12CC(C1)OC=NC2	O[C@@]12C[C@@H](C1)OC=NC2	
InChI=1S/C6H9NO2/c8-6-1-5(2-6)9-4-7-3-6/h4-5,8H,1-3H2	InChI=1S/C6H9NO2/c8-6-1-5(2-6)9-4-7-3-6/h4-5,8H,1-3H2/t5-,6-
