13
gdb 129010	4.17814	1.6828	1.19963	2.2637	72.1	-0.2554	-0.0618	0.1936	923.0288	0.094267	-411.830191	-411.824434	-411.82349	-411.860233	22.945	
N	-0.0210111069	 1.3329953877	 0.0099070109	-0.335862
N	 1.248530235	 1.8125790927	 0.0003064528	-0.081508
N	 2.0754711595	 0.8222593627	-0.0133898166	-0.27656
C	 1.3477141654	-0.3499905453	-0.012981633	 0.325125
C	-0.0200851427	-0.0293098399	 0.002144751	 0.295259
C	-0.9877440373	-1.0414952153	 0.0057895992	-0.075303
N	-0.6171307408	-2.3114486104	-0.0050459259	-0.270743
C	 0.7016030321	-2.6190493938	-0.0196201549	 0.010852
C	 1.7314129093	-1.6940300836	-0.0243659396	-0.238181
H	-0.7869285795	 1.9863061604	 0.0210803016	 0.286381
H	-2.053594365	-0.827696947	 0.0173712886	 0.118104
H	 0.927323973	-3.6813127709	-0.0278662033	 0.117911
H	 2.7718951581	-1.9938280673	-0.0361914509	 0.124525
223.4123	260.8731	411.2991	438.246	489.666	554.8453	625.5298	645.5743	704.4371	812.4584	817.6634	854.0674	910.3079	938.6782	986.947	1009.4891	1036.4306	1051.3351	1193.9631	1250.445	1276.4493	1303.0486	1335.1827	1367.6106	1417.9451	1474.2337	1513.2401	1616.769	1642.7656	3156.3171	3173.6129	3216.9741	3668.7017
N1N=NC2=C1C=NC=C2	[nH]1nnc2c1cncc2	
InChI=1S/C5H4N4/c1-2-6-3-5-4(1)7-9-8-5/h1-3H,(H,7,8,9)	InChI=1S/C5H4N4/c1-2-6-3-5-4(1)7-9-8-5/h1-3H,(H,7,8,9)
