17
gdb 14684	8.44067	0.67365	0.64086	2.9406	70.31	-0.2566	-0.0386	0.218	1702.4255	0.138473	-400.994617	-400.985098	-400.984154	-401.031086	31.477	
C	 0.5272609444	 0.9504618462	 0.5311228051	-0.397818
C	-0.3064082781	 0.0428790286	-0.3788779449	-0.111876
N	 0.3761628866	-0.7868289178	-1.3579712768	-0.220503
C	 1.6251617599	-0.7763553608	-1.4539208042	 0.129109
O	 2.2374273295	-1.5870131308	-2.3569047428	-0.206605
C	 3.6321513171	-1.4294364147	-2.5261986124	-0.166545
C	 4.237965262	-2.7872436948	-2.8501982599	 0.141474
O	 5.3610428299	-2.9263609001	-3.2523067365	-0.229889
H	 1.2231471636	 0.3779444762	 1.1539094174	 0.119568
H	 1.1052262734	 1.6838108901	-0.0416280553	 0.120005
H	-0.1366732638	 1.5041604361	 1.201496498	 0.119623
H	-0.9138357114	-0.6314067413	 0.2390725456	 0.117389
H	-1.0318269356	 0.6527775394	-0.9330426434	 0.117559
H	 2.326662464	-0.1734527444	-0.8629691949	 0.081295
H	 3.8603701605	-0.7278720537	-3.3388363305	 0.144768
H	 4.1128961594	-1.0500052424	-1.6116798231	 0.135821
H	 3.5478159285	-3.6396434959	-2.6693989412	 0.106625
18.8619	63.5204	70.8739	134.8716	170.3679	231.8044	244.1451	323.8105	393.3822	400.2486	521.1534	641.1864	735.848	779.2104	897.3797	976.5109	1030.3548	1053.8315	1090.0421	1101.9568	1123.9594	1147.4844	1222.0618	1274.358	1315.0389	1343.4188	1378.6217	1395.9852	1402.9795	1422.2521	1470.2506	1484.5036	1495.3393	1506.8859	1785.6888	1845.6974	2909.8367	2996.4802	3017.9194	3028.6957	3036.8889	3039.1776	3051.8324	3099.2627	3108.5737
CCN=COCC=O	CCN=COCC=O	
InChI=1S/C5H9NO2/c1-2-6-5-8-4-3-7/h3,5H,2,4H2,1H3	InChI=1S/C5H9NO2/c1-2-6-5-8-4-3-7/h3,5H,2,4H2,1H3
