17
gdb 9887	4.64228	1.16213	1.07723	2.3971	65.87	-0.2541	0.0277	0.2818	1117.1983	0.140891	-401.008236	-400.999567	-400.998623	-401.042614	30.496	
C	-0.8838703414	 1.445866695	-0.1686086224	-0.456027
C	-0.2431521677	 0.078475762	-0.1242238245	 0.405175
C	-1.0226134454	-1.0196862972	 0.57875247	-0.221954
N	-1.1190930258	-0.7684721624	 2.0064138724	-0.269099
C	-2.3012237956	-0.6259143536	 2.6633229836	 0.154918
O	-3.3996097386	-0.7021651723	 2.1544008462	-0.323733
C	 0.7698538956	-0.3030729712	-1.1175549971	-0.226674
O	 1.1595461623	 0.0655902999	 0.2086265915	-0.283362
H	-0.1993768826	 2.1737525356	-0.6100245764	 0.127801
H	-1.8047614761	 1.4216544937	-0.7602495697	 0.131768
H	-1.1435776507	 1.7829519991	 0.8393407174	 0.133812
H	-2.0468514259	-1.080455882	 0.2027637176	 0.150387
H	-0.5308076152	-1.9831062307	 0.4027569108	 0.110372
H	-0.2587912806	-0.665568899	 2.5219946674	 0.258721
H	-2.147386009	-0.4303756799	 3.7429668427	 0.077085
H	 0.9157827015	-1.3517633668	-1.3743499745	 0.113751
H	 1.0455822851	 0.4046531498	-1.8980097349	 0.117061
33.469	54.631	176.675	192.4441	234.6637	295.5389	354.1691	372.73	410.096	527.8166	571.3731	716.333	771.8289	841.1863	905.8347	926.0327	956.8221	1016.0134	1033.7886	1065.7647	1111.6787	1134.3717	1171.8764	1207.7187	1244.4433	1306.2194	1360.8231	1405.3868	1428.3582	1431.0874	1473.9121	1484.9091	1497.4763	1525.4733	1537.1083	1804.3159	2939.7123	3038.6053	3043.8825	3081.9838	3109.8966	3117.6534	3130.1027	3167.4403	3632.3906
CC1(CNC=O)CO1	C[C@@]1(CNC=O)CO1	
InChI=1S/C5H9NO2/c1-5(3-8-5)2-6-4-7/h4H,2-3H2,1H3,(H,6,7)	InChI=1S/C5H9NO2/c1-5(3-8-5)2-6-4-7/h4H,2-3H2,1H3,(H,6,7)/t5-/m1/s1
