18
gdb 116751	5.63286	0.62523	0.5687	2.3531	74.46	-0.2668	-0.0266	0.2402	1916.5768	0.144469	-476.248251	-476.238012	-476.237067	-476.284775	35.036	
C	 0.5582330989	 0.9966082287	 0.4461853281	-0.401598
C	-0.2628718646	 0.1320905091	-0.513124166	-0.117199
N	 0.4295354876	-0.8424725383	-1.3441958772	-0.207728
C	 1.6709820641	-0.966408125	-1.2705574755	 0.107845
O	 2.2664193301	-1.9142538325	-2.0908030008	-0.214713
C	 3.6096348748	-2.0637645955	-2.0249436767	 0.418788
O	 4.3495158329	-1.4384977031	-1.30699056	-0.356375
C	 4.0939214956	-3.1341057902	-2.9804597876	-0.147236
O	 5.4818232419	-3.2824022097	-2.9057100341	-0.417713
H	 1.0936445382	 0.3908020806	 1.1847606935	 0.127184
H	 1.2904414312	 1.6133203196	-0.0855113299	 0.127179
H	-0.1090702369	 1.6704190056	 0.9913036838	 0.122034
H	-1.0225348759	-0.4264541568	 0.0484767962	 0.124644
H	-0.8295028058	 0.7745918258	-1.199099672	 0.124636
H	 2.3868227929	-0.4346750469	-0.6471618505	 0.1419
H	 3.5728653225	-4.0713666195	-2.7331105889	 0.134791
H	 3.7706108355	-2.8555566477	-3.9948717139	 0.134779
H	 5.7846908972	-2.6442740443	-2.2438230587	 0.298782
46.0089	61.4954	99.0224	102.3047	178.7803	212.8424	251.9834	316.6001	332.7997	343.0061	373.4186	453.6555	569.7859	599.4514	724.5356	777.6481	878.8987	957.1056	985.2285	1036.3014	1066.6553	1086.1169	1122.4947	1147.2489	1149.847	1233.3367	1242.6829	1313.0979	1314.943	1369.107	1384.3024	1411.9924	1462.3782	1477.6601	1493.1118	1496.2845	1504.4072	1779.6536	1818.8709	2997.8435	3018.567	3027.0814	3035.9433	3048.862	3105.1884	3112.1367	3159.4667	3734.5761
CCN=COC(=O)CO	CCN=COC(=O)CO	
InChI=1S/C5H9NO3/c1-2-6-4-9-5(8)3-7/h4,7H,2-3H2,1H3	InChI=1S/C5H9NO3/c1-2-6-4-9-5(8)3-7/h4,7H,2-3H2,1H3
