19
gdb 76846	2.34868	1.68788	1.36054	3.3945	75.66	-0.2058	0.0204	0.2262	1034.4611	0.159432	-419.196774	-419.188174	-419.18723	-419.22986	32.48	
C	-0.3302547783	 1.6190509114	 0.3008747526	-0.420878
C	-0.0940749398	 0.1172602302	 0.2108238746	 0.036579
C	 0.2572301555	-0.4854064643	-1.1865969944	-0.022769
N	 1.0334751026	 0.3776829785	-2.0740174011	-0.319446
C	 2.2636832312	 0.0934576779	-1.4974001179	 0.41108
O	 3.3559750241	 0.5725091872	-1.6432997827	-0.361721
C	 1.603681295	-0.962489796	-0.5620913595	-0.159537
N	 1.1790736563	-0.4427214722	 0.7440012961	-0.077975
C	 2.0943455045	 0.3027358562	 1.5841936859	-0.334597
H	 0.4620785078	 2.1941943363	-0.1856220754	 0.125012
H	-1.2844063505	 1.8776876679	-0.1713021089	 0.1192
H	-0.3850205461	 1.9400680167	 1.3458289669	 0.128228
H	-0.9477079175	-0.4052669209	 0.6638087388	 0.080125
H	-0.4649136807	-1.1369869476	-1.6761979188	 0.091405
H	 0.7492366483	 1.2196925028	-2.5578600087	 0.245026
H	 1.9986184619	-1.9805794164	-0.5749004386	 0.094363
H	 2.4970910845	 1.2217961804	 1.1299896757	 0.116613
H	 1.5959797309	 0.568310746	 2.5222562506	 0.119377
H	 2.9450508604	-0.3406961339	 1.8325964149	 0.129914
85.5202	128.4438	186.14	221.6658	230.2801	267.9937	336.6563	440.001	444.8539	536.3186	549.5528	633.5279	715.483	772.4837	788.7382	849.692	877.258	941.4555	980.8652	994.3581	1069.3086	1086.7018	1123.5851	1133.1248	1150.7621	1169.6331	1213.9956	1231.3781	1258.014	1286.8589	1299.817	1340.3753	1358.5661	1376.6285	1404.4178	1452.42	1485.7853	1494.7932	1497.8584	1508.9913	1878.8871	2976.6693	2999.9529	3037.0878	3061.0776	3086.974	3098.0693	3102.5208	3117.8236	3124.9988	3574.3192
CC1C2NC(=O)C2N1C	C[C@H]1[C@H]2NC(=O)[C@H]2N1C	
InChI=1S/C6H10N2O/c1-3-4-5(8(3)2)6(9)7-4/h3-5H,1-2H3,(H,7,9)	InChI=1S/C6H10N2O/c1-3-4-5(8(3)2)6(9)7-4/h3-5H,1-2H3,(H,7,9)/t3-,4+,5-/m0/s1
