18
gdb 16643	2.82154	2.22409	1.58717	3.0372	70.94	-0.2326	-0.0101	0.2225	871.8385	0.155033	-347.830494	-347.823133	-347.822189	-347.862092	28.405	
C	 0.6105088211	 1.5086116581	-0.0182162251	-0.403127
C	 0.0602703808	 0.0753388948	-0.0160900941	-0.085732
C	 0.4371052715	-0.8053101604	-1.2361418095	-0.254387
C	 1.3129566275	-1.9445298269	-0.7069448986	-0.034125
C	 2.5721636686	-1.5503693853	-0.00995928	-0.286153
C	 1.3301900885	-1.8900117416	 0.8103277844	-0.141464
C	 0.5134898098	-0.7131788224	 1.2330265039	 0.405587
O	 0.2049084946	-0.4296821876	 2.3651423798	-0.342611
H	 1.6988962413	 1.5265457556	-0.1374049003	 0.118584
H	 0.1777436287	 2.090335648	-0.8379340232	 0.117069
H	 0.365083198	 2.004651344	 0.9249270541	 0.139715
H	-1.0299437814	 0.1429395949	 0.0696381136	 0.107636
H	-0.4637126002	-1.2211501471	-1.6971792793	 0.107235
H	 0.955270093	-0.2315313531	-2.012594199	 0.104068
H	 1.2809373503	-2.9007946705	-1.2162878119	 0.093356
H	 3.3762547151	-2.2755689082	 0.0458879009	 0.125106
H	 2.9083765382	-0.5196620942	-0.0539256533	 0.124281
H	 1.3559124246	-2.7593533283	 1.4549365776	 0.10496
74.1298	191.2274	226.0641	244.1735	353.7033	367.5295	461.8972	574.2809	624.1459	691.7364	771.9251	795.108	834.3821	879.9529	909.6144	926.9798	961.0322	975.2335	1046.5005	1062.8976	1080.3009	1105.0389	1129.5739	1133.242	1182.3429	1203.0673	1245.4562	1255.6355	1318.3349	1327.2336	1341.9497	1379.8814	1407.6295	1485.603	1497.1861	1501.4236	1505.8356	1825.2625	3035.706	3040.6889	3046.1301	3082.9489	3103.6528	3119.32	3133.8053	3175.093	3197.4618	3219.4363
CC1CC2CC2C1=O	C[C@H]1C[C@H]2C[C@H]2C1=O	
InChI=1S/C7H10O/c1-4-2-5-3-6(5)7(4)8/h4-6H,2-3H2,1H3	InChI=1S/C7H10O/c1-4-2-5-3-6(5)7(4)8/h4-6H,2-3H2,1H3/t4-,5-,6+/m0/s1
