18
gdb 118386	3.20641	0.78915	0.66522	3.0463	78.21	-0.2748	0.0276	0.3023	1644.4239	0.145025	-401.923321	-401.912923	-401.911979	-401.959573	36.163	
O	-0.121909003	 1.4800870392	 0.0644242288	-0.419032
C	 0.0293750579	 0.0755920607	-0.0517323983	-0.095852
C	-1.3688907579	-0.5290285216	 0.0104369865	-0.178395
C	-1.3805204703	-2.0706376878	-0.0168690139	-0.157396
C	-2.8261930076	-2.6219015909	 0.1346782172	-0.369753
C	-2.8828031571	-4.0714101279	 0.2558196603	 0.292052
C	-2.9041945099	-5.2674592263	 0.3636877689	-0.414389
C	-0.7581365482	-2.581358622	-1.2436851004	 0.29573
N	-0.2656833882	-2.9554695801	-2.2200702426	-0.33012
H	 0.7374987023	 1.8887049948	-0.0730930012	 0.291602
H	 0.5151173375	-0.202783079	-0.998182729	 0.117237
H	 0.6464417104	-0.3307962539	 0.7672740452	 0.089198
H	-1.8514879104	-0.1973517131	 0.9362128424	 0.118392
H	-1.9634731645	-0.1377027298	-0.8220923129	 0.126395
H	-0.7887607111	-2.448831931	 0.8258644613	 0.138239
H	-3.2663499721	-2.1555096653	 1.0240090196	 0.141457
H	-3.4251340389	-2.2902294781	-0.7216563839	 0.15053
H	-2.9309661888	-6.3258087378	 0.4475038621	 0.204102
56.189	86.8079	94.9053	105.5847	161.0085	219.6424	249.8959	253.9661	341.7018	342.3477	393.0793	481.2553	560.0389	631.6471	642.2495	660.3297	776.2547	827.7003	941.2781	954.3102	1020.9962	1049.9546	1071.1387	1097.489	1110.9422	1207.3536	1226.9539	1245.7934	1291.78	1315.2326	1349.1074	1352.858	1370.5933	1468.9498	1470.4967	1491.9055	1529.883	2245.4734	2356.8917	2962.3512	3015.1233	3031.9397	3039.0146	3048.0853	3071.6447	3095.4991	3506.1682	3834.9633
OCCC(CC#C)C#N	OCC[C@@H](CC#C)C#N	
InChI=1S/C7H9NO/c1-2-3-7(6-8)4-5-9/h1,7,9H,3-5H2	InChI=1S/C7H9NO/c1-2-3-7(6-8)4-5-9/h1,7,9H,3-5H2/t7-/m1/s1
