14
gdb 49840	2.22052	1.45188	0.94388	2.0552	70.9	-0.2603	-0.054	0.2063	1173.5745	0.098246	-436.66342	-436.654822	-436.653878	-436.697709	30.146	
O	-0.0259391427	 0.0386881835	 0.1276854113	-0.315827
C	 0.0497171854	 1.2399728628	 0.2644194643	 0.139931
N	 1.2138763157	 1.9357900216	 0.1724897636	-0.056917
C	 2.492977356	 1.455507633	-0.3601373297	-0.287265
C	 2.8740235923	 2.929253933	-0.5731054974	 0.386602
O	 3.8202549309	 3.5131669692	-0.9855841454	-0.251281
C	 1.47194078	 3.383024203	-0.0077447402	-0.301326
C	 0.6070967797	 4.1049482412	-0.9175153584	 0.337147
C	-0.0960038868	 4.7018952356	-1.6878334204	-0.428027
H	-0.8128400883	 1.8932629894	 0.4942714454	 0.092167
H	 3.1205038428	 0.9125609773	 0.3547797493	 0.157158
H	 2.403258807	 0.8637344076	-1.2786578274	 0.165338
H	 1.5779563521	 3.9208905891	 0.9438373461	 0.146045
H	-0.719721074	 5.2300126537	-2.3669110711	 0.216255
46.6844	90.3928	121.5578	177.2008	239.3197	310.8291	368.1487	435.8194	460.8897	546.612	596.1355	632.3863	682.7751	746.3566	778.3253	869.277	996.6345	1019.7593	1034.0964	1040.8946	1125.826	1136.8251	1203.0883	1271.9512	1318.195	1382.6912	1435.2788	1473.7674	1792.0701	1944.2111	2236.3231	2963.8364	3019.5836	3040.828	3086.918	3499.3405
O=CN1CC(=O)C1C#C	O=CN1CC(=O)[C@H]1C#C	
InChI=1S/C6H5NO2/c1-2-5-6(9)3-7(5)4-8/h1,4-5H,3H2	InChI=1S/C6H5NO2/c1-2-5-6(9)3-7(5)4-8/h1,4-5H,3H2/t5-/m1/s1
