16
gdb 5767	5.96203	1.39996	1.22521	3.2071	72.6	-0.1915	0.0423	0.2338	981.4739	0.133388	-342.789384	-342.782445	-342.781501	-342.821102	26.365	
C	 0.0509811952	 1.564671341	 0.0136046001	-0.22756
N	 1.2347324547	 0.7012591827	-0.077558649	-0.297289
C	-0.0869345079	 0.0744712939	 0.0582003874	-0.160621
C	-0.3349608164	-0.6674295114	 1.3103100947	 0.345458
C	 0.4649606491	-0.8852133381	 2.4108180571	-0.221701
C	-0.2889044683	-1.6450905039	 3.3482286805	-0.140717
C	-1.5272618363	-1.8716379444	 2.7957904106	-0.098163
N	-1.5449692083	-1.2754256826	 1.5581407571	-0.305516
H	-0.0284344788	 2.126130415	 0.9396594778	 0.125536
H	-0.2913439337	 2.0873396013	-0.8766404307	 0.107766
H	 1.5549126416	 0.6376533428	-1.0394376934	 0.234603
H	-0.5178856094	-0.3766953225	-0.836551039	 0.0794
H	 1.4810244602	-0.5378971043	 2.5082152666	 0.104186
H	 0.0443011295	-1.9927929258	 4.3141126619	 0.089509
H	-2.387386588	-2.4055172477	 3.166657942	 0.111245
H	-2.3331293933	-1.2626344758	 0.9345912365	 0.253863
49.5003	147.2615	188.0404	372.8249	442.5878	470.2378	628.2218	637.1076	682.0721	709.8228	804.4185	854.3484	865.1086	882.1012	905.2412	908.8304	961.918	986.9854	1046.6936	1090.5624	1112.6788	1119.3886	1140.2229	1183.9866	1219.7909	1248.6536	1277.6458	1290.6064	1410.7046	1447.0594	1471.0403	1501.9195	1508.7131	1620.4979	3089.432	3104.058	3197.7789	3243.3257	3264.8824	3272.2158	3514.4441	3677.6119
C1NC1C1=CC=CN1	C1N[C@H]1c1ccc[nH]1	
InChI=1S/C6H8N2/c1-2-5(7-3-1)6-4-8-6/h1-3,6-8H,4H2	InChI=1S/C6H8N2/c1-2-5(7-3-1)6-4-8-6/h1-3,6-8H,4H2/t6-/m1/s1
