19
gdb 40594	4.5398	1.23872	1.1858	2.1872	79.86	-0.2228	0.074	0.2969	1101.9693	0.161208	-381.934734	-381.927619	-381.926674	-381.96652	28.511	
C	 0.2995263517	 1.5395931941	 0.2312917758	-0.234283
N	 1.1456149358	 0.5032584418	-0.389525437	-0.31773
C	-0.2329955307	 0.1704894061	 0.0076800181	-0.041875
C	-0.4563389701	-0.7878819224	 1.1456258468	 0.040817
C	 0.1064244563	-2.211664175	 1.1679887112	-0.091545
C	 1.4906079109	-1.6687366994	 1.6440923342	 0.011871
C	 1.5430105628	-2.5733879308	 2.878154644	-0.266094
C	 0.080551998	-2.1545634824	 2.7241200676	 0.004226
N	 0.4850002463	-0.7013063998	 2.3469846932	-0.181423
H	 0.6063435143	 1.8232703688	 1.2328535628	 0.140493
H	-0.0773343715	 2.3490751763	-0.3878777702	 0.107466
H	 1.1894035304	 0.6450345424	-1.3948404297	 0.229821
H	-0.9646770845	 0.0646235106	-0.7934378804	 0.081247
H	-1.5049659536	-0.7032364521	 1.465913141	 0.068246
H	-0.0982480231	-3.0721917278	 0.5209393193	 0.058912
H	 2.2918031029	-1.2666325626	 1.0314173621	 0.110913
H	 1.7751930349	-3.6281785956	 2.7098732338	 0.095665
H	 2.0711766188	-2.1747538175	 3.7486275196	 0.10625
H	-0.7775192698	-2.3269830348	 3.377848468	 0.077025
77.402	162.5201	187.6709	325.3424	368.6549	475.0904	587.029	703.3938	779.5382	812.6974	823.2333	851.011	862.3023	883.9015	893.5512	917.1762	920.8385	951.594	979.7256	1021.9822	1027.2991	1030.556	1057.9616	1114.6284	1120.6178	1126.126	1139.4809	1149.9455	1176.4618	1181.4373	1201.795	1228.0204	1249.2076	1256.8301	1268.4641	1288.397	1311.4174	1402.7219	1442.45	1490.5666	1507.2407	3002.8015	3036.3373	3054.4237	3089.6812	3103.5257	3115.9831	3119.2264	3170.052	3208.7762	3504.8862
C1NC1C1C2C3CC2N13	C1N[C@H]1[C@H]1[C@H]2[C@@H]3C[C@H]2N13	
InChI=1S/C7H10N2/c1-4-6-5(1)9(4)7(6)3-2-8-3/h3-8H,1-2H2	InChI=1S/C7H10N2/c1-4-6-5(1)9(4)7(6)3-2-8-3/h3-8H,1-2H2/t3-,4-,5+,6-,7+/m1/s1
