21
gdb 99812	1.80406	1.38974	1.29907	2.8088	84.3	-0.242	-0.0143	0.2276	1213.8188	0.177552	-387.081394	-387.07027	-387.069326	-387.11758	40.332	
C	 0.0132713168	 1.6014196294	-0.1547957301	-0.394529
C	 0.017779387	 0.07834191	-0.0160474777	-0.197155
C	 0.7211979288	-0.4720273738	 1.2690993791	-0.088257
C	 0.6987079264	-2.0196367725	 1.2323114048	-0.430359
C	 2.1122507672	-0.0193646538	 1.305674836	 0.3845
C	 3.2696920127	 0.3031947364	 1.3010231454	-0.481506
C	-0.0440975612	 0.0770646027	 2.5064175962	 0.39915
C	-1.3503178311	-0.6046729951	 2.8845768467	-0.491118
O	 0.3662925561	 1.0235386709	 3.1314902039	-0.297672
H	 1.033620256	 1.9934719895	-0.16359533	 0.139989
H	-0.474365282	 1.8936326429	-1.0896304677	 0.111324
H	-0.518866685	 2.0856761387	 0.6690527954	 0.129118
H	-1.0086534939	-0.3070638671	-0.0347470751	 0.097843
H	 0.5311148736	-0.3699761668	-0.8742055321	 0.111911
H	 1.2753294602	-2.3729688754	 0.3737493191	 0.13345
H	 1.1475067855	-2.443010396	 2.1350631792	 0.13047
H	-0.3220152406	-2.3992180977	 1.1361891767	 0.116805
H	 4.2874153064	 0.6059249966	 1.3176720439	 0.194832
H	-1.983506143	-0.8046357428	 2.0156295566	 0.137077
H	-1.1414872464	-1.5703183334	 3.3582786735	 0.149098
H	-1.8815240835	 0.0285207674	 3.5959431763	 0.145028
38.9059	89.6438	138.7785	159.148	166.0886	187.228	241.5799	259.1665	284.6677	297.4828	388.1168	411.6137	439.4745	531.859	594.493	624.0478	635.4394	639.3639	640.2105	768.6482	856.4581	895.1368	956.6928	1011.283	1016.3536	1049.0231	1075.6281	1127.2514	1141.0468	1194.0911	1248.6999	1323.1801	1354.0981	1382.2645	1405.6691	1418.7911	1460.7155	1473.3842	1482.4944	1495.4412	1495.7589	1500.2806	1505.3268	1810.5511	2236.685	3030.5888	3042.793	3046.0256	3046.9688	3068.3908	3109.0401	3113.3406	3121.3676	3123.3622	3125.6591	3154.0009	3502.3513
CCC(C)(C#C)C(C)=O	CC[C@@](C)(C#C)C(=O)C	
InChI=1S/C8H12O/c1-5-8(4,6-2)7(3)9/h1H,6H2,2-4H3	InChI=1S/C8H12O/c1-5-8(4,6-2)7(3)9/h1H,6H2,2-4H3/t8-/m1/s1
