17
gdb 70264	2.92095	1.49438	1.22601	1.5098	73.17	-0.25	0.0289	0.2789	1054.7029	0.133796	-421.766899	-421.758574	-421.757629	-421.799689	31.921	
C	-0.1846059907	 1.5014360471	 0.0579538272	-0.468475
C	-0.0470971703	 0.0066449581	 0.0645150233	 0.392855
C	-0.9152193527	-0.9299463717	 0.8804715102	-0.351403
C	 0.5767689243	-0.8362944758	 1.1279543909	 0.018117
O	 1.360631382	-1.8133741555	 0.4745406532	-0.248604
C	 1.5529845619	-1.3200850368	-0.8449528325	-0.040017
O	 0.3977128084	-0.5613854855	-1.1635806807	-0.278577
C	 2.782194949	-0.5138604651	-0.947076743	 0.362184
C	 3.790678	 0.1328825458	-1.0393242213	-0.450801
H	 0.7653950347	 1.9739712523	-0.2082444212	 0.136041
H	-0.9417776125	 1.8152984533	-0.66790537	 0.132511
H	-0.4918588996	 1.862297083	 1.0439070299	 0.119445
H	-1.5764846924	-0.491175649	 1.621274997	 0.114681
H	-1.2771777087	-1.8276638093	 0.3934019562	 0.12739
H	 0.9932843595	-0.4531185319	 2.0528016944	 0.109762
H	 1.5985230369	-2.1762767682	-1.5244603259	 0.122081
H	 4.6835954001	 0.7025410892	-1.1223234476	 0.202809
78.7643	133.5832	206.0436	233.4604	258.5918	320.0041	391.825	419.1488	529.1084	554.0345	639.1297	661.2136	665.664	764.4087	790.4621	844.7841	848.7597	913.5785	947.0466	963.0155	989.9448	1024.8465	1045.4758	1069.237	1098.7058	1125.4414	1138.1506	1233.7992	1272.0927	1329.8372	1367.5808	1390.9172	1421.872	1468.505	1479.8859	1501.1108	2233.2628	3038.6245	3075.8889	3107.3582	3118.36	3130.7859	3172.9529	3231.6483	3500.5586
CC12CC1OC(O2)C#C	C[C@]12C[C@H]1O[C@@H](O2)C#C	
InChI=1S/C7H8O2/c1-3-6-8-5-4-7(5,2)9-6/h1,5-6H,4H2,2H3	InChI=1S/C7H8O2/c1-3-6-8-5-4-7(5,2)9-6/h1,5-6H,4H2,2H3/t5-,6+,7+/m1/s1
