18
gdb 99631	2.76598	1.1207	0.89436	3.4337	72.35	-0.281	0.0206	0.3016	1318.257	0.145691	-439.071005	-439.061239	-439.060295	-439.106533	34.407	
C	-0.0824218939	 1.4850596377	-0.2872821978	-0.446239
C	-0.0862037023	 0.0344834396	 0.1182227246	 0.066276
O	 1.1472495624	-0.7041102117	 0.0634676856	-0.247605
C	 0.5166066885	-0.5480948766	 1.329071297	 0.0549
C	 1.2786290897	 0.1626661946	 2.4416916751	-0.20725
C	 2.1475141309	-0.8641603099	 3.2284078206	-0.062806
O	 2.8071570026	-0.2873949442	 4.3265064413	-0.418279
C	 2.1619063181	 1.2432848881	 2.002885443	 0.287119
N	 2.9248106091	 2.0718904868	 1.7418770318	-0.341489
H	 0.7750836283	 2.0306243682	 0.1046116164	 0.165046
H	-0.0632383211	 1.5595031776	-1.379415903	 0.136705
H	-1.0012656502	 1.9694193458	 0.0611336815	 0.125719
H	-0.928138961	-0.5320030759	-0.2869593345	 0.097938
H	 0.0490790643	-1.4608908847	 1.7088070249	 0.098459
H	 0.5562610511	 0.5877319166	 3.1507034201	 0.141539
H	 1.4809699802	-1.6316886815	 3.6329508532	 0.122735
H	 2.8401300699	-1.349308215	 2.5263193407	 0.126138
H	 3.4781524035	 0.3193240646	 3.9923679295	 0.301094
31.6988	109.7219	136.9392	150.5249	171.37	214.4476	243.6547	345.7016	383.7811	394.7573	423.4357	494.9722	589.2113	685.7483	771.3691	816.4366	841.9386	933.9763	998.7516	1016.7431	1041.0183	1082.7971	1096.1778	1121.7403	1173.9663	1186.6328	1197.7332	1266.4329	1306.0096	1358.7024	1389.2762	1398.7843	1417.3552	1430.2054	1468.8938	1494.9754	1504.3775	1511.9032	2353.1345	3010.0268	3038.3129	3043.8185	3064.694	3082.7434	3091.6187	3101.1885	3165.8403	3797.5793
CC1OC1C(CO)C#N	C[C@H]1O[C@H]1[C@@H](CO)C#N	
InChI=1S/C6H9NO2/c1-4-6(9-4)5(2-7)3-8/h4-6,8H,3H2,1H3	InChI=1S/C6H9NO2/c1-4-6(9-4)5(2-7)3-8/h4-6,8H,3H2,1H3/t4-,5-,6-/m1/s1
