19
gdb 114848	3.2904	1.2423	1.17597	2.4371	69.55	-0.2501	0.0708	0.3209	1114.1609	0.161523	-460.159856	-460.152142	-460.151198	-460.192326	29.93	
O	-0.149967048	 1.5229479836	 0.1952701578	-0.420687
C	 0.0459314756	 0.124620488	 0.0357960928	-0.11319
C	-1.3326961844	-0.5092838775	-0.0664389648	 0.049414
C	-2.1167238332	-0.1799773055	-1.376579008	-0.249685
C	-2.4906555513	-1.6014234907	-1.8293957067	 0.185399
O	-1.3321685394	-2.2242182699	-2.3924217078	-0.276841
C	-0.5574481859	-2.6289900071	-1.2522842764	-0.087545
C	-1.391139608	-2.0582810006	-0.0907418476	-0.00595
O	-2.7122953175	-2.2904350846	-0.611796964	-0.250662
H	 0.711582166	 1.9502200261	 0.1949456171	 0.287756
H	 0.6355258178	-0.086746724	-0.8693572676	 0.093369
H	 0.5941697315	-0.2987116672	 0.8944452945	 0.084114
H	-1.9071126447	-0.1702368311	 0.8004408645	 0.093741
H	-3.0032707964	 0.4278845823	-1.1833090121	 0.109237
H	-1.502881043	 0.3280152593	-2.1231485003	 0.112918
H	-3.3346446544	-1.7206090146	-2.5080178206	 0.091333
H	-0.5034967339	-3.7232031785	-1.2070801082	 0.106006
H	 0.4575805054	-2.2253202201	-1.3198662339	 0.10336
H	-1.2686494363	-2.5580212678	 0.8694215913	 0.087913
98.3069	108.3594	205.7436	269.985	318.7899	367.8382	433.2218	470.3461	581.0268	641.1306	790.3041	811.0857	828.3515	866.2067	886.6095	942.134	967.8042	978.8886	1002.7845	1029.8068	1046.516	1077.2129	1091.523	1097.7013	1111.0775	1185.3974	1192.9838	1222.6866	1263.5275	1266.9905	1271.3191	1308.7195	1312.7818	1330.3929	1344.542	1375.0947	1380.5764	1462.4421	1485.8052	1522.6952	1526.3779	2956.894	2996.8899	3029.9363	3066.1439	3075.372	3078.4624	3125.197	3131.0685	3136.8544	3828.4352
OCC1CC2OCC1O2	OC[C@H]1C[C@H]2OC[C@@H]1O2	
InChI=1S/C6H10O3/c7-2-4-1-6-8-3-5(4)9-6/h4-7H,1-3H2	InChI=1S/C6H10O3/c7-2-4-1-6-8-3-5(4)9-6/h4-7H,1-3H2/t4-,5+,6+/m1/s1
