20
gdb 104683	2.50026	1.59061	1.22216	3.5045	74.81	-0.2429	0.054	0.2969	1079.8958	0.172673	-440.177578	-440.169379	-440.168434	-440.210472	32.337	
O	 0.3836101972	 1.1831180702	-0.1359110444	-0.429174
C	 0.1053015983	-0.1929578054	-0.2829239806	-0.116414
C	-1.3764265169	-0.5508364287	-0.062655575	 0.297733
C	-2.1848065	 0.1408072422	-1.1750881767	-0.154421
O	-2.3003584481	 1.5341185029	-0.872520867	-0.426558
C	-1.7535839944	-1.9647272504	 0.4876321078	-0.128124
C	-1.182070277	-1.4608264565	 1.8367141286	-0.179835
N	-1.9878572409	-0.2403730854	 1.3520069432	-0.184216
C	-3.0499320552	-1.3057074582	 1.0018154371	-0.183664
H	-0.3612783021	 1.6697400691	-0.5185464757	 0.290169
H	 0.358927513	-0.5525985573	-1.2970859797	 0.080528
H	 0.7779250304	-0.7176407123	 0.3970443943	 0.102534
H	-1.6449101807	 0.0760488803	-2.1245283013	 0.116634
H	-3.1732537752	-0.2986841239	-1.3434136147	 0.103767
H	-2.5284612261	 1.5830141234	 0.0675244763	 0.30371
H	-1.6213486963	-2.9398709924	 0.0061434648	 0.070217
H	-1.5983139108	-1.9009695123	 2.7457220313	 0.105748
H	-0.1160427568	-1.2862515325	 1.9537745885	 0.117958
H	-3.8185234377	-0.9844639663	 0.3021249124	 0.106728
H	-3.5101000508	-1.7416622665	 1.8912710308	 0.10668
72.9014	127.3141	148.3284	245.7215	350.7131	411.1829	445.5662	469.9435	481.8628	555.94	627.7239	668.1449	686.8522	785.5439	788.1064	899.4776	906.2989	916.6165	939.6212	996.5625	1009.6059	1039.9417	1058.5635	1064.179	1089.8066	1100.6228	1148.613	1174.4386	1183.7084	1197.1451	1221.2217	1232.0124	1259.6119	1271.7235	1293.8046	1348.2783	1387.3724	1437.5461	1478.386	1502.4434	1525.5798	1544.3548	1577.7232	2933.2824	3036.2444	3041.8415	3076.8233	3081.068	3086.234	3102.8769	3155.3379	3171.6267	3704.6155	3733.8322
OCC1(CO)C2CN1C2	OCC1(CO)[C@H]2CN1C2	
InChI=1S/C6H11NO2/c8-3-6(4-9)5-1-7(6)2-5/h5,8-9H,1-4H2	InChI=1S/C6H11NO2/c8-3-6(4-9)5-1-7(6)2-5/h5,8-9H,1-4H2
