20
gdb 85041	2.25243	1.5049	1.14108	2.3973	75.12	-0.2157	-0.0316	0.1841	1158.0013	0.169443	-440.296178	-440.286655	-440.285711	-440.331099	35.137	
C	 0.8468312844	 1.5962120973	 0.0500603628	-0.381426
C	 0.1048755489	 0.2597932403	 0.0868877562	-0.023698
C	 0.4880356571	-0.6596295725	-1.0949246124	 0.053125
O	 0.7170323909	-0.0468023086	-2.3296353192	-0.437704
C	 1.7327320571	-1.3412330898	-0.5457445409	 0.353819
O	 2.6874411458	-1.6404022196	-1.2183134062	-0.328505
C	 1.5548836485	-1.4533092157	 0.9621997161	-0.278297
N	 0.4590651321	-0.537295486	 1.2903884687	-0.066138
C	-0.6566581959	-1.1463494214	 1.9938873252	-0.33401
H	 1.9323795104	 1.4471809535	 0.0601456593	 0.115886
H	 0.5955523525	 2.1497118911	-0.8578747208	 0.132197
H	 0.5822956381	 2.1941542235	 0.9258708024	 0.115524
H	-0.972571716	 0.4451677262	 0.099376187	 0.082202
H	-0.2879324829	-1.4431023475	-1.1802630759	 0.09504
H	 1.5594703052	-0.4052292913	-2.6496630241	 0.292831
H	 1.3176863683	-2.495893303	 1.2185584754	 0.127255
H	 2.4963478686	-1.2055214251	 1.4691155609	 0.135238
H	-0.3042461482	-1.5887587507	 2.9312276915	 0.125204
H	-1.3920995563	-0.3787478896	 2.2518189789	 0.126853
H	-1.1772585886	-1.9393082712	 1.4236923254	 0.094603
27.3486	93.997	189.3837	218.0692	239.5145	252.8312	264.7612	330.7934	391.7478	413.2262	456.3754	519.2074	569.3368	621.3823	703.2917	756.4732	788.3202	892.8753	958.4759	1009.3033	1061.565	1070.1173	1112.6383	1123.4539	1139.1352	1152.0406	1184.0737	1215.023	1248.0608	1260.9836	1315.5883	1341.5285	1356.2906	1384.518	1409.5918	1415.7605	1461.8263	1478.2229	1488.6324	1493.1157	1498.0727	1505.4598	1846.4298	2920.8102	2934.2528	3005.0071	3037.3458	3040.5374	3060.9009	3068.038	3105.571	3110.9192	3133.6836	3701.1022
CC1C(O)C(=O)CN1C	C[C@H]1[C@@H](O)C(=O)CN1C	
InChI=1S/C6H11NO2/c1-4-6(9)5(8)3-7(4)2/h4,6,9H,3H2,1-2H3	InChI=1S/C6H11NO2/c1-4-6(9)5(8)3-7(4)2/h4,6,9H,3H2,1-2H3/t4-,6+/m0/s1
