21
gdb 39674	4.36791	0.95287	0.82028	2.011	83.73	-0.2415	0.0214	0.2628	1415.2106	0.184214	-387.078141	-387.069724	-387.06878	-387.11238	31.288	
C	-0.0117111952	 1.4883712938	-0.1572650819	-0.087306
O	 1.3527518425	 1.673165062	 0.2699677525	-0.273232
C	 1.5012652294	 0.268310826	 0.5575816962	-0.092147
C	 0.0844275263	-0.0455178753	 0.0217535245	-0.024884
C	-0.9093597528	-0.7179231675	 0.9637971961	-0.031542
C	-2.3589775841	-0.7800781131	 0.4033006695	-0.228287
C	-2.9374417457	-2.1405596815	 0.8687374845	-0.255426
C	-1.6978835666	-2.9401651313	 1.193836451	-0.071195
C	-0.6095106801	-2.1756417944	 1.251063593	-0.07162
H	-0.7226838369	 1.9867826202	 0.5169399893	 0.094283
H	-0.1762572666	 1.8556362461	-1.1772900959	 0.099215
H	 2.3424084353	-0.1761263927	 0.0121099567	 0.100137
H	 1.6397633737	 0.0831673033	 1.6323912307	 0.094358
H	 0.1062668793	-0.580689033	-0.9323441757	 0.077145
H	-0.8949222305	-0.1552170217	 1.9118035294	 0.076024
H	-2.9689432779	 0.0714367898	 0.7151163021	 0.098989
H	-2.3158427946	-0.7626347352	-0.6918100924	 0.101333
H	-3.5710149954	-2.0328497375	 1.7606529517	 0.106976
H	-3.5656469575	-2.6127293535	 0.105013468	 0.103436
H	-1.7250204917	-4.005399994	 1.3967983337	 0.092462
H	 0.3862410391	-2.5230517006	 1.5070653566	 0.091282
53.237	78.6828	95.1312	153.1329	277.3569	320.4233	406.1273	458.8095	603.7632	742.4835	770.8879	802.1458	850.7189	863.8404	895.0672	920.6146	924.3772	973.2643	977.8548	997.8038	1006.4336	1033.282	1045.2255	1090.3644	1096.2752	1125.3362	1156.864	1164.4331	1165.6453	1203.8034	1228.7363	1268.8045	1281.1609	1295.6955	1312.874	1319.5449	1327.7197	1369.3126	1384.1672	1404.8032	1483.793	1500.2268	1511.6139	1537.4082	1686.67	2962.4949	2992.6231	3004.3144	3007.5426	3036.7571	3042.0923	3047.175	3057.5106	3068.6845	3098.1038	3175.4886	3201.8495
C1OCC1C1CCC=C1	C1OCC1[C@H]1CCC=C1	
InChI=1S/C8H12O/c1-2-4-7(3-1)8-5-9-6-8/h1,3,7-8H,2,4-6H2	InChI=1S/C8H12O/c1-2-4-7(3-1)8-5-9-6-8/h1,3,7-8H,2,4-6H2/t7-/m1/s1
