20
gdb 73510	3.00484	1.65568	1.3247	2.0234	85.48	-0.2083	0.018	0.2263	1027.9998	0.172464	-365.955418	-365.947836	-365.946892	-365.986813	31.396	
C	-0.0565641959	 1.5859573066	-0.1988984076	-0.45295
C	-0.0411537114	 0.0664548773	-0.0267453398	 0.298656
C	 1.0665054363	-0.5997738522	-0.8772568184	-0.29201
C	 2.2594019385	-0.7144219043	 0.1257785512	-0.241944
C	 1.5351559312	-0.9847115269	 1.4454639615	-0.22136
C	 0.2901804872	-0.5251135399	 1.3512054274	 0.288634
C	-1.1059806037	-0.9558177409	 1.6201684731	-0.175434
N	-2.0498662545	 0.1539099419	 1.3174246064	-0.331244
C	-1.4438665803	-0.585301134	 0.1901127947	-0.130534
H	 0.9489101233	 1.9979513102	-0.0627374648	 0.112058
H	-0.3886230417	 1.8522838085	-1.2095107886	 0.103813
H	-0.7253145264	 2.0580866223	 0.5215554057	 0.141461
H	 0.7664416697	-1.6107026325	-1.1769856425	 0.095025
H	 1.310537221	-0.0383808539	-1.7855793308	 0.087592
H	 2.9363358571	-1.5338756193	-0.1377975343	 0.099422
H	 2.8708001658	 0.1985197733	 0.1420627163	 0.105203
H	 1.938538069	-1.6175732372	 2.2274075996	 0.088244
H	-1.4287957377	-1.8046792962	 2.2101938452	 0.099276
H	-2.9880835019	-0.2218748759	 1.4573382381	 0.230514
H	-2.0539414057	-1.135106397	-0.5182279625	 0.095579
179.4308	217.3506	227.9478	261.9307	316.6538	350.9502	434.259	510.797	591.9972	667.1659	681.6339	749.1541	796.7692	811.7912	850.8629	851.1493	887.1735	896.7898	902.6389	942.7695	966.5913	996.9611	1015.1667	1065.6122	1088.0463	1104.4612	1121.5547	1157.0611	1203.1635	1211.5022	1224.17	1259.6157	1280.7729	1295.7603	1323.7011	1325.2706	1362.573	1402.3104	1479.1241	1488.4672	1494.6492	1508.7787	1725.5527	3009.5456	3028.1993	3031.9157	3066.283	3081.0568	3088.8515	3142.3514	3171.4859	3193.8633	3194.3078	3464.8632
CC12CCC=C1C1NC21	C[C@@]12CC[CH][C]1[C@H]1N[C@@H]21	
InChI=1S/C8H11N/c1-8-4-2-3-5(8)6-7(8)9-6/h3,6-7,9H,2,4H2,1H3	InChI=1S/C8H11N/c1-8-4-2-3-5(8)6-7(8)9-6/h3,6-7,9H,2,4H2,1H3/t6-,7-,8-/m1/s1
