14
gdb 10665	2.753	2.13741	1.34336	2.8215	63.32	-0.2826	-0.0499	0.2327	888.6375	0.106091	-378.727723	-378.719775	-378.718831	-378.760274	28.083	
C	 0.2142437062	 1.1355733503	-0.7904571442	-0.503508
C	-0.0818538103	 0.0892737988	 0.2509526976	 0.349726
O	 0.6160507256	-0.1103044722	 1.2196854039	-0.31197
C	-1.3270940546	-0.7667018987	 0.0701485259	 0.06485
C	-1.1034806353	-2.2513724343	 0.2563721338	-0.238474
N	-1.799311952	-1.4878606475	 1.2690039384	-0.316921
C	-2.3404949191	-0.3087528109	-0.8486398438	 0.244071
N	-3.1203153121	 0.0767145499	-1.6101955864	-0.335597
H	 1.1702116109	 1.6105883313	-0.5710761097	 0.152748
H	 0.2307256927	 0.6889283783	-1.7904119168	 0.160069
H	-0.5831082908	 1.8869273436	-0.8006737782	 0.172534
H	-1.716963884	-2.9340299721	-0.3231021456	 0.152947
H	-0.075321718	-2.5537848467	 0.4340209622	 0.147876
H	-1.139476479	-1.2451089	 2.0111942829	 0.261649
71.7591	142.9868	151.2224	221.3226	268.1474	283.0625	379.8782	514.7678	543.3569	570.5515	619.3743	645.4642	850.0752	874.0193	946.1567	983.7376	1015.5147	1039.4327	1099.4059	1134.2271	1187.6653	1273.1021	1325.889	1361.2167	1391.2713	1455.5682	1469.1808	1494.1072	1799.1591	2357.3034	3043.88	3104.2287	3119.1756	3163.3249	3219.7586	3449.4459
CC(=O)C1(CN1)C#N	CC(=O)[C@]1(CN1)C#N	
InChI=1S/C5H6N2O/c1-4(8)5(2-6)3-7-5/h7H,3H2,1H3	InChI=1S/C5H6N2O/c1-4(8)5(2-6)3-7-5/h7H,3H2,1H3/t5-/m1/s1
