16
gdb 91683	3.36739	1.289	1.13546	5.7835	68.7	-0.2712	0.0271	0.2984	1077.1723	0.125345	-437.868037	-437.860513	-437.859569	-437.900055	28.894	
O	-0.1385363264	 1.4192340269	 0.0198625799	-0.433757
C	-0.0111580373	 0.0119882566	 0.0347309565	 0.098592
C	 0.4927728953	-0.5960924368	 1.3894901565	-0.27275
C	-0.7976413262	-1.3507119437	 1.7499668785	 0.074865
O	-1.1329458927	-1.9834553421	 0.4747710742	-0.294608
C	-1.4168275771	-0.6256164619	 0.0439786454	 0.070894
C	-1.9195938155	-0.2993618584	 1.479716155	-0.171479
C	-3.2628064653	-0.765509118	 1.7703311454	 0.280629
N	-4.3376687238	-1.1084842048	 2.0210350643	-0.322466
H	 0.7382724835	 1.8080676028	-0.0508025446	 0.294617
H	 0.5653935781	-0.3511172667	-0.8234586435	 0.090249
H	 1.3267908339	-1.2893971606	 1.2669988232	 0.120126
H	 0.7663312788	 0.1833892204	 2.1052997705	 0.110733
H	-0.8226026148	-2.0210108926	 2.6070498349	 0.107582
H	-2.0464933399	-0.5414347378	-0.839018084	 0.109462
H	-1.7678614807	 0.7193284866	 1.8405684777	 0.137311
123.5171	153.5889	192.5761	259.4348	312.5652	417.0357	451.5165	511.973	543.3489	563.7284	698.2425	825.1898	863.4888	884.5246	912.7235	924.3721	942.9117	966.445	1014.1406	1038.7389	1070.0498	1088.2769	1156.0626	1168.3401	1176.5126	1219.5269	1235.9841	1255.1073	1299.094	1307.3958	1326.184	1373.6802	1418.5149	1476.7492	2361.9696	3042.5998	3071.9873	3107.7645	3129.8165	3146.8451	3156.6495	3830.8439
OC1CC2OC1C2C#N	O[C@H]1C[C@@H]2O[C@H]1[C@H]2C#N	
InChI=1S/C6H7NO2/c7-2-3-5-1-4(8)6(3)9-5/h3-6,8H,1H2	InChI=1S/C6H7NO2/c7-2-3-5-1-4(8)6(3)9-5/h3-6,8H,1H2/t3-,4-,5-,6-/m0/s1
