23
gdb 96368	2.24185	1.70186	1.13044	1.0906	85.49	-0.2415	0.0866	0.3281	1173.5661	0.207416	-388.29494	-388.286377	-388.285433	-388.327594	34.674	
C	-0.1497282556	 1.5081268433	-0.1092045285	-0.426184
C	 0.0503011406	 0.0055824667	 0.0321758768	 0.060974
O	 0.7570056854	-0.4082053273	-1.1384544488	-0.25652
C	 0.88340409	-1.814042504	-1.2481055514	-0.061927
C	 1.6533858349	-2.406198594	-0.0668716254	-0.202613
C	 0.9754875916	-1.9926398602	 1.2463583515	-0.282802
C	 0.7765259124	-0.4829153033	 1.2866717644	 0.383107
C	 1.8623233288	 0.3461649827	 1.9271278481	-0.298047
C	 0.5365378725	 0.1574614727	 2.6285187877	-0.334078
H	 0.8102965334	 2.0284901612	-0.1624315896	 0.127511
H	-0.6892962893	 1.7096263221	-1.0379793588	 0.124986
H	-0.7318731056	 1.9175205419	 0.7201423948	 0.116032
H	-0.9435068795	-0.4813597895	 0.0256467939	 0.057823
H	-0.1170419699	-2.2791688982	-1.3108047042	 0.078958
H	 1.3977110443	-2.0009837472	-2.1957350369	 0.101123
H	 1.6997327765	-3.497393406	-0.1603886949	 0.089306
H	 2.6821759058	-2.0279098825	-0.088358149	 0.104572
H	-0.0030417106	-2.4892618356	 1.3216813661	 0.092237
H	 1.5616259089	-2.3223117372	 2.111480796	 0.089857
H	 2.7297577278	-0.1742930705	 2.3202967756	 0.106687
H	 2.0856222842	 1.3261523484	 1.5220976841	 0.113055
H	-0.1268218765	 1.0124283736	 2.6952235309	 0.110271
H	 0.501147	-0.4944825772	 3.4959158676	 0.105674
93.8856	176.298	221.0417	275.2258	293.0721	318.5869	350.9646	383.4775	430.5684	466.1809	537.4077	582.0897	698.4387	781.4304	832.386	852.7678	878.0524	905.8705	925.6827	942.8556	948.601	984.1621	1037.1125	1053.9446	1063.6671	1080.9263	1094.7787	1114.1258	1126.3438	1159.9093	1186.0706	1214.2167	1232.9731	1276.2074	1299.6798	1350.2478	1364.1223	1375.5115	1379.4193	1388.4538	1413.8616	1417.4334	1466.2338	1475.8327	1485.7076	1487.3292	1500.5801	1505.9728	1512.0521	2917.2731	2944.8539	3001.9576	3030.6083	3051.877	3058.5646	3075.063	3080.4613	3123.9361	3125.7167	3131.3131	3133.8987	3206.4413	3221.2771
CC1OCCCC11CC1	C[C@H]1OCCCC21CC2	
InChI=1S/C8H14O/c1-7-8(4-5-8)3-2-6-9-7/h7H,2-6H2,1H3	InChI=1S/C8H14O/c1-7-8(4-5-8)3-2-6-9-7/h7H,2-6H2,1H3/t7-/m1/s1
