18
gdb 39979	3.6251	1.57717	1.4265	1.196	74.16	-0.2284	0.0662	0.2945	953.8347	0.150021	-401.881001	-401.874355	-401.873411	-401.911878	27.699	
C	-0.0198727652	 1.4966027628	-0.0363432487	-0.301654
N	 1.2336831007	 0.7147427963	 0.0338759177	-0.36652
C	-0.064468923	 0.0214907014	 0.0148465726	 0.38968
C	-0.4597345628	-0.8171025933	 1.2394640543	-0.302591
C	-0.6683425267	-2.2176656831	 0.6588443386	-0.094064
C	-1.6381446489	-2.3446706369	-0.5004768893	 0.099892
O	-1.9139301661	-1.0602217134	-1.0665605135	-0.304077
C	-0.4694370893	-0.8211432341	-1.172638295	-0.01843
C	-0.1696886004	-2.2860059275	-0.7762257132	-0.158345
H	-0.2442144827	 2.0739679335	 0.8563646398	 0.120884
H	-0.2800559825	 1.9904594171	-0.9695855751	 0.113057
H	 1.6711621973	 0.6793285468	-0.8851888399	 0.227274
H	 0.3459139776	-0.8054781849	 1.9780014345	 0.117242
H	-1.3680634049	-0.432318111	 1.7131717675	 0.111998
H	-0.5485510631	-3.0926158467	 1.2879480574	 0.090869
H	-2.3844081771	-3.1215588836	-0.6166053405	 0.102903
H	-0.190951746	-0.4455304657	-2.1600654196	 0.073117
H	 0.537055133	-2.9819052977	-1.2048447276	 0.098766
109.6305	253.9573	300.6488	356.4581	425.475	514.4021	543.6082	716.1071	739.8568	794.5213	803.5493	819.5199	844.5635	885.6426	897.5391	925.8194	942.422	970.6874	982.4524	1002.739	1023.724	1032.5388	1057.8716	1066.0727	1088.6026	1108.0869	1135.5539	1203.666	1218.3175	1238.1296	1252.4313	1267.6924	1286.0951	1302.0275	1332.4689	1387.8205	1424.1397	1484.5635	1514.4232	3055.5685	3087.2022	3104.4675	3104.8588	3178.4224	3187.4152	3188.7734	3215.1353	3476.1289
C1NC11CC2C3OC1C23	C1N[C@]21C[C@H]1[C@H]3O[C@@H]2[C@@H]13	
InChI=1S/C7H9NO/c1-3-4-5(3)9-6(4)7(1)2-8-7/h3-6,8H,1-2H2	InChI=1S/C7H9NO/c1-3-4-5(3)9-6(4)7(1)2-8-7/h3-6,8H,1-2H2/t3-,4+,5-,6-,7+/m1/s1
