18
gdb 92384	2.17327	1.59587	1.26207	3.328	76.23	-0.2655	0.0085	0.274	1080.1546	0.147925	-401.931907	-401.923617	-401.922673	-401.965122	31.062	
C	-0.579329445	 1.3713679497	 0.0239687344	-0.420909
C	 0.0424084589	-0.0131578988	-0.0680151907	-0.03288
C	 1.349292486	-0.1992731329	-0.9070406018	-0.257304
C	 2.0624411861	-0.7976169967	 0.320746152	 0.075948
O	 2.7692533481	 0.1902055329	 1.0883558757	-0.281218
C	 1.6659530629	 0.3653956538	 1.9999475685	-0.124373
C	 0.7712998843	-0.6075374137	 1.1952505412	 0.126442
C	 0.0948111702	-1.6526663292	 1.9199303929	 0.194151
N	-0.4568611289	-2.493670574	 2.4922499864	-0.344123
H	 0.1577951501	 2.1359589425	 0.2886490417	 0.127792
H	-1.0068681995	 1.6536744152	-0.9437256874	 0.128968
H	-1.3846734578	 1.3996634212	 0.7655191599	 0.13016
H	-0.7174144061	-0.7302766661	-0.3887103154	 0.102121
H	 1.2409735092	-0.8850709895	-1.7502823017	 0.114562
H	 1.8220617422	 0.7230468509	-1.252078164	 0.119347
H	 2.6102453239	-1.7375550759	 0.2270408749	 0.099297
H	 1.9094700184	-0.000035641	 3.0037655725	 0.125817
H	 1.3279242967	 1.4048303018	 2.063628731	 0.116202
57.2606	134.0965	167.0363	216.932	275.1971	327.4976	374.7474	442.8653	520.31	556.8937	580.1186	633.5977	772.5562	843.5565	875.5481	910.8025	942.1441	971.503	1010.3654	1023.1482	1063.5966	1110.8236	1116.8823	1138.0402	1165.0771	1180.6755	1202.1731	1233.3879	1270.6279	1291.015	1327.5776	1350.9981	1382.4376	1412.1904	1469.2286	1491.5502	1496.2806	1527.2219	2345.4735	3031.4845	3034.9716	3067.2285	3071.8686	3082.5886	3093.7266	3102.5394	3107.2423	3128.3875
CC1CC2OCC12C#N	C[C@H]1C[C@H]2OC[C@@]12C#N	
InChI=1S/C7H9NO/c1-5-2-6-7(5,3-8)4-9-6/h5-6H,2,4H2,1H3	InChI=1S/C7H9NO/c1-5-2-6-7(5,3-8)4-9-6/h5-6H,2,4H2,1H3/t5-,6+,7-/m0/s1
