14
gdb 82270	3.29636	1.40147	1.08894	4.6752	68.99	-0.2761	-0.0703	0.2058	1046.6511	0.101612	-436.677096	-436.669723	-436.668779	-436.709139	27.739	
O	 0.0917252246	 1.3855388988	 0.1211613888	-0.414225
C	 0.0566829068	-0.0188323483	 0.0424167691	 0.02131
C	-1.3654055905	-0.5828234368	-0.0464992498	-0.008673
O	-2.0804799778	-0.0214364659	-1.1529842581	-0.258695
C	-1.49164748	-1.341317298	-1.2947324253	 0.006193
C	-0.1606663813	-1.2997351647	-1.9713975244	-0.174482
C	 0.6975196184	-0.5641961898	-1.2487052432	 0.1312
C	 2.0251101632	-0.2217864528	-1.6165706118	 0.234321
N	 3.1163302996	 0.0563405199	-1.8876799224	-0.32701
H	-0.5050656397	 1.7117990662	-0.5660583451	 0.297384
H	 0.5836545379	-0.3902791292	 0.9271179847	 0.116281
H	-1.9472404238	-0.778147821	 0.848605498	 0.118047
H	-2.197786989	-2.149313089	-1.4497232792	 0.119783
H	 0.0520643917	-1.7655457395	-2.9249766714	 0.138566
101.4032	142.3869	186.4387	271.8125	387.3705	468.5854	473.1145	483.2347	559.9636	645.6118	674.8836	709.9202	815.4545	859.0173	882.2752	905.4386	924.3115	993.2649	1053.6274	1097.7645	1111.3646	1167.4835	1245.9597	1273.6267	1278.0186	1297.8363	1330.8173	1411.5899	1430.5816	1664.3816	2339.0132	3070.2834	3169.4334	3188.0433	3224.0264	3764.2972
OC1C2OC2C=C1C#N	O[C@H]1[C@H]2O[C@H]2C=C1C#N	
InChI=1S/C6H5NO2/c7-2-3-1-4-6(9-4)5(3)8/h1,4-6,8H	InChI=1S/C6H5NO2/c7-2-3-1-4-6(9-4)5(3)8/h1,4-6,8H/t4-,5+,6-/m0/s1
