19
gdb 73153	2.6242	1.61631	1.38161	1.6357	74.89	-0.2391	0.059	0.2981	1024.0454	0.15807	-422.974855	-422.9666	-422.965656	-423.007654	31.706	
C	 0.2288259376	 1.6221316531	 0.0974472857	-0.478025
C	 0.0983991188	 0.1257172448	 0.1291054992	 0.343322
O	-1.2648544733	-0.3460162205	-0.0219082982	-0.32346
C	-1.1343788424	-1.2382644345	 1.1103252888	-0.084811
C	 0.3340030668	-0.8445091854	 1.3377046929	-0.138029
C	 1.3669902636	-1.6491404877	 0.5017509323	-0.343508
C	 1.0701207274	-0.736987805	-0.6976458132	 0.41536
C	 1.0467944951	-0.9979778365	-2.1337482889	-0.258424
O	 2.0801597218	-0.1982899893	-1.5328357988	-0.269892
H	 1.2704812361	 1.923157933	 0.2403665419	 0.131076
H	-0.0999964989	 2.0053938326	-0.8747232138	 0.133192
H	-0.3900150522	 2.0817251978	 0.8732281222	 0.12119
H	-1.8200737903	-0.9530245876	 1.9174905914	 0.104
H	-1.3187468135	-2.2860696657	 0.8401966055	 0.099064
H	 0.6274917731	-0.5172089251	 2.3337403445	 0.082142
H	 2.3931294961	-1.5180870819	 0.8559610477	 0.121604
H	 1.1698499684	-2.7176340347	 0.3766788654	 0.106775
H	 1.3714140426	-1.9666711318	-2.5113121713	 0.115267
H	 0.3457704831	-0.4585828255	-2.7685601433	 0.123158
66.1	179.5923	187.3655	220.3527	255.6335	320.5597	370.1808	419.3372	475.1443	547.3929	644.2101	762.3565	808.0816	847.1979	854.8651	881.569	917.4045	921.7196	941.704	1004.7783	1035.4577	1085.3191	1106.8039	1123.5498	1126.6883	1151.4223	1154.4593	1161.3468	1181.5178	1201.7638	1250.6756	1297.937	1321.616	1352.9291	1409.4473	1431.8447	1469.5607	1475.9811	1485.71	1521.1403	1534.8143	3010.1165	3038.6026	3052.6154	3055.4076	3084.8977	3106.9752	3107.9926	3123.0625	3125.7878	3173.532
CC12OCC1CC21CO1	C[C@]12OC[C@H]1C[C@]12CO1	
InChI=1S/C7H10O2/c1-6-5(3-8-6)2-7(6)4-9-7/h5H,2-4H2,1H3	InChI=1S/C7H10O2/c1-6-5(3-8-6)2-7(6)4-9-7/h5H,2-4H2,1H3/t5-,6+,7-/m1/s1
