27
gdb 104729	1.89993	1.33673	1.00295	0.0688	96.24	-0.2497	0.076	0.3257	1414.0761	0.249809	-353.560007	-353.548475	-353.547531	-353.596271	43.449	
C	-0.2583094712	 1.5095267177	-0.9205538848	-0.383402
C	-0.0884444197	 0.2167130781	-0.109748801	-0.250292
C	-1.4024243659	-0.4909797768	 0.2263183001	 0.340474
C	-2.3844379484	 0.3691176394	 1.0217288833	-0.252228
C	-1.9018105983	 0.7545588775	 2.4265911703	-0.385194
C	-1.9866222886	-1.410050277	-0.8306076142	-0.385444
C	-1.4015977641	-2.0095008449	 0.431912325	 0.291119
C	-0.1076345597	-2.8042228597	 0.3239675794	-0.452137
C	-2.3514603529	-2.6537219487	 1.4317046052	-0.452842
H	 0.7174032829	 1.9078320429	-1.2166346497	 0.107684
H	-0.8372278806	 1.3280541937	-1.8326615794	 0.116506
H	-0.769972207	 2.2921200189	-0.3525483511	 0.117646
H	 0.5544974528	-0.4563042664	-0.6818280926	 0.092586
H	 0.4621269574	 0.4387369958	 0.8134957099	 0.094596
H	-2.5959757669	 1.2810571679	 0.4499026999	 0.095428
H	-3.3469377852	-0.1433091327	 1.1025950624	 0.091468
H	-0.9850453886	 1.351710498	 2.3927240128	 0.117291
H	-2.6589754266	 1.3482858225	 2.9487973599	 0.10888
H	-1.6952616709	-0.1329431446	 3.0333540481	 0.11742
H	-3.0657183073	-1.4268483449	-0.9553418088	 0.098118
H	-1.4372206954	-1.537998254	-1.7592420833	 0.098404
H	 0.5424528965	-2.4632616964	-0.4833584217	 0.114803
H	 0.4663940461	-2.7618412048	 1.2577486325	 0.111359
H	-0.3349737178	-3.8592296633	 0.1295380499	 0.110457
H	-2.554491619	-3.6904601524	 1.1371525965	 0.110959
H	-1.9127274627	-2.6832500163	 2.4364744027	 0.11205
H	-3.3140389889	-2.1449771396	 1.5022315985	 0.114291
50.3587	102.3928	113.0993	164.7447	181.1936	208.4467	226.0566	239.5147	285.5805	336.1213	344.8171	381.6993	401.9495	428.745	455.7068	539.3648	656.5237	707.4545	782.225	791.2149	884.1007	885.2304	921.7209	952.2744	967.4974	987.6077	1005.493	1040.3416	1046.7961	1060.8258	1078.5447	1083.1223	1129.0149	1151.6571	1206.1263	1226.3827	1284.7294	1302.1636	1321.0642	1352.9538	1360.5599	1403.93	1407.7045	1409.299	1412.4597	1427.2296	1475.3073	1482.9582	1485.5783	1492.841	1494.7241	1501.2129	1502.0955	1504.7883	1509.9713	1512.2987	1522.8385	3020.5467	3024.5617	3027.8566	3032.1261	3036.969	3037.6207	3071.7704	3074.0499	3076.3736	3083.4581	3100.1387	3102.5319	3106.4677	3109.4625	3110.9164	3127.5371	3129.3376	3191.1887
CCC1(CC)CC1(C)C	CCC1(CC)CC1(C)C	
InChI=1S/C9H18/c1-5-9(6-2)7-8(9,3)4/h5-7H2,1-4H3	InChI=1S/C9H18/c1-5-9(6-2)7-8(9,3)4/h5-7H2,1-4H3
