22
gdb 85040	2.24195	1.5268	1.02105	2.8109	82.81	-0.2218	-0.0156	0.2062	1239.4616	0.193213	-404.375111	-404.365493	-404.364549	-404.40919	36.378	
C	-0.3008872119	 1.4767340245	 0.0486618748	-0.418875
C	-0.0018578564	-0.0159811491	-0.0546125989	 0.061491
C	 0.8721930088	-0.4437704718	-1.2556117685	-0.117553
C	 2.015407986	 0.5188164154	-1.6216352109	-0.40015
C	 1.4691541831	-1.7686396229	-0.771307605	 0.397967
O	 2.0465440327	-2.5810764552	-1.4456675137	-0.321724
C	 1.2047794924	-1.8690134985	 0.7277770856	-0.269577
N	 0.7534641972	-0.5364404348	 1.0994103831	-0.074451
C	 0.0620879562	-0.4954919716	 2.3726308203	-0.322856
H	 0.610116911	 2.0494515329	 0.240831853	 0.127836
H	-0.7487796345	 1.8365961657	-0.8830411313	 0.118929
H	-1.0123036431	 1.6876441981	 0.851809216	 0.118639
H	-0.9708717551	-0.550969955	-0.1427444023	 0.051665
H	 0.2648376799	-0.6320902014	-2.1462249896	 0.095501
H	 2.6239859013	 0.7575330745	-0.7445811147	 0.131158
H	 2.6600119695	 0.0515189546	-2.3708219773	 0.135568
H	 1.6279093104	 1.4535910592	-2.0357949534	 0.118465
H	 0.4317826528	-2.6510786963	 0.8821875746	 0.100976
H	 2.0979802937	-2.1817107976	 1.2780325721	 0.12923
H	 0.7124153679	-0.8972995213	 3.1559902895	 0.1225
H	-0.1856042495	 0.5336310233	 2.6441129953	 0.123529
H	-0.8736794724	-1.0884263926	 2.3725830913	 0.09173
70.1832	117.3405	216.9329	222.7624	245.1011	256.734	269.5381	299.6401	325.8765	331.2733	490.7011	514.7132	545.3477	595.5132	657.7357	754.4297	799.2888	860.6409	942.5571	978.0129	1016.281	1024.4007	1053.6701	1080.3715	1124.9878	1141.7613	1157.9658	1182.4989	1199.4832	1230.3273	1246.9767	1277.7976	1331.6737	1339.005	1360.7189	1388.4008	1400.6138	1412.4902	1455.9651	1476.9573	1484.6582	1498.4006	1499.9616	1502.0748	1504.6652	1512.7181	1853.8099	2869.6495	2888.6995	2918.5564	3042.2001	3045.4102	3064.9397	3068.8653	3070.6131	3107.3192	3115.6561	3117.042	3122.4481	3126.417
CC1C(C)C(=O)CN1C	C[C@H]1[C@@H](C)C(=O)CN1C	
InChI=1S/C7H13NO/c1-5-6(2)8(3)4-7(5)9/h5-6H,4H2,1-3H3	InChI=1S/C7H13NO/c1-5-6(2)8(3)4-7(5)9/h5-6H,4H2,1-3H3/t5-,6+/m1/s1
