18
gdb 52076	2.75939	0.91227	0.75053	3.1353	74.03	-0.2539	-0.0359	0.218	1488.4695	0.144971	-439.076121	-439.066562	-439.065618	-439.111947	33.267	
O	-0.9485929896	 0.9487833882	 0.4763588786	-0.235518
C	 0.0427962514	 0.9728611542	-0.2058672702	 0.15561
C	 1.1920763252	 1.9386307714	-0.0314973386	-0.277435
C	 1.4390451376	 2.7548149774	-1.3172950443	-0.312066
C	 2.643396854	 3.6680441823	-1.2170015237	 0.228127
C	 2.6134534058	 5.0184078703	-1.8714143704	-0.279694
N	 2.5952054675	 4.9168786042	-0.4173725649	-0.341148
C	 3.9835469361	 3.0092301106	-1.1497974872	 0.147153
O	 4.1705783734	 1.8318983902	-1.3342602579	-0.267708
H	 0.1751475507	 0.2551943089	-1.0497749878	 0.077165
H	 0.9790346889	 2.5836659977	 0.8258481561	 0.11834
H	 2.092966778	 1.3506895748	 0.1839812374	 0.147933
H	 1.5967238803	 2.0666508185	-2.1556469658	 0.131077
H	 0.5507179232	 3.3523886266	-1.5533132649	 0.108031
H	 3.5208506654	 5.4428227762	-2.293035285	 0.132479
H	 1.7013334777	 5.2734005529	-2.4047197221	 0.130028
H	 1.6512945669	 5.0497577143	-0.0610658842	 0.245132
H	 4.8128250777	 3.7118713615	-0.9165001552	 0.092493
50.1157	63.536	97.4567	132.3357	155.6379	242.6565	294.4667	332.1275	379.6472	434.1237	531.7157	543.2642	751.0805	800.1913	810.2486	855.9955	895.2951	966.4078	972.8268	1006.4175	1048.761	1057.6287	1087.943	1106.7419	1138.7894	1196.6314	1243.9084	1276.7558	1297.5883	1332.5654	1366.1234	1390.648	1427.1634	1431.2076	1461.8478	1477.6341	1507.6353	1817.3142	1837.1789	2856.7583	2905.4337	3030.6888	3042.4274	3074.9515	3106.5133	3107.1471	3193.6969	3497.8911
O=CCCC1(CN1)C=O	O=CCC[C@]1(CN1)C=O	
InChI=1S/C6H9NO2/c8-3-1-2-6(5-9)4-7-6/h3,5,7H,1-2,4H2	InChI=1S/C6H9NO2/c8-3-1-2-6(5-9)4-7-6/h3,5,7H,1-2,4H2/t6-/m0/s1
