23
gdb 120227	4.08213	0.84352	0.82206	1.3085	85.48	-0.2619	0.0808	0.3428	1512.656	0.207981	-388.276005	-388.267273	-388.266329	-388.309891	33.958	
O	-0.0227417921	 1.4308028842	-0.2484665071	-0.420929
C	 0.032186267	 0.0228111556	-0.0698700676	-0.071363
C	-1.3918900861	-0.51560822	-0.1588155436	-0.226592
C	-1.4561604902	-2.0341663611	-0.0299312823	 0.049508
C	-1.2903928288	-2.6746511287	 1.391262029	-0.018137
C	-2.8033301972	-2.3847362633	 1.6092656581	-0.230646
C	-2.8722532618	-2.6882265663	 0.0842501865	-0.02687
C	-2.5197501981	-4.1886432636	 0.0511069352	-0.216091
C	-1.3093685625	-4.1781419289	 1.0495315632	-0.213574
H	 0.8720276558	 1.7769678984	-0.1855871285	 0.284076
H	 0.6586158377	-0.4522802542	-0.8432081757	 0.081634
H	 0.4707611693	-0.2372806577	 0.906886165	 0.085619
H	-1.9940338707	-0.0114588493	 0.6035682346	 0.106337
H	-1.8073331724	-0.2147055846	-1.1289334263	 0.10259
H	-0.8151870476	-2.4806032055	-0.8026324533	 0.052036
H	-0.5305509382	-2.3335272318	 2.0963056224	 0.053453
H	-3.3546014326	-3.0464147259	 2.2849497318	 0.083713
H	-3.0198964204	-1.3462865937	 1.8593858625	 0.100062
H	-3.7063830195	-2.3531123354	-0.5345155066	 0.054114
H	-3.3450481568	-4.8174046176	 0.3975666736	 0.093168
H	-2.236670212	-4.527699888	-0.9497234912	 0.092901
H	-0.377090596	-4.5110581016	 0.5836550241	 0.092068
H	-1.4850435069	-4.8020330409	 1.9307239761	 0.092924
70.7707	84.3696	124.3108	266.0275	281.2777	300.2553	321.2967	357.6186	479.7325	575.5434	647.2382	764.6696	825.214	834.1235	840.7756	870.9513	888.4642	905.9619	941.8619	964.0342	992.2184	1010.3267	1020.1588	1044.4003	1077.7098	1080.303	1086.0815	1108.1101	1138.0738	1172.3202	1201.0388	1213.0048	1229.8406	1244.586	1254.8619	1260.1614	1270.6631	1289.1664	1309.9686	1312.4573	1323.0512	1340.5682	1410.7873	1459.9468	1488.4792	1492.9159	1503.8987	1522.8577	1528.2147	2958.5862	2985.5829	3002.1189	3032.3008	3045.9334	3052.9007	3056.4658	3081.6036	3082.663	3097.4841	3101.2202	3102.2697	3133.0837	3830.4197
OCCC1C2CC1CC2	OCC[C@H]1[C@H]2C[C@@H]1CC2	
InChI=1S/C8H14O/c9-4-3-8-6-1-2-7(8)5-6/h6-9H,1-5H2	InChI=1S/C8H14O/c9-4-3-8-6-1-2-7(8)5-6/h6-9H,1-5H2/t6-,7+,8+
