18
gdb 85158	2.01207	1.71296	1.02053	2.7824	73.91	-0.2472	-0.0191	0.2281	1174.858	0.145565	-439.133688	-439.124213	-439.123268	-439.168708	33.972	
C	 0.0969967076	 1.638262546	-0.4229957891	-0.379597
C	 0.0651345678	 0.158551676	-0.0725234018	 0.036758
N	 1.0782015426	-0.6639013652	-0.763977926	-0.328868
C	 1.704939225	-1.1309174615	 0.3527404488	 0.43536
O	 2.6544425063	-1.8445223894	 0.5417262112	-0.363138
C	 0.6917231513	-0.3646945709	 1.264051863	-0.281635
C	 1.3086380159	 0.5487058233	 2.309690786	 0.366644
C	 2.1006376716	-0.1857991534	 3.372104625	-0.483479
O	 1.187131983	 1.7517373826	 2.2940353206	-0.300778
H	 1.0948981054	 2.0597593609	-0.2966295138	 0.136588
H	-0.2153809261	 1.7723787543	-1.4651172307	 0.105427
H	-0.5876600408	 2.1997967529	 0.2160663383	 0.138061
H	-0.9464436488	-0.2381383786	-0.2208522362	 0.090192
H	 1.2669313711	-0.8229482953	-1.7429719778	 0.253602
H	 0.049279013	-1.0897982027	 1.7756426531	 0.12239
H	 2.8051739153	-0.878046789	 2.8978114408	 0.175273
H	 2.6222048532	 0.5306913122	 4.0075562368	 0.139034
H	 1.4250962563	-0.7924378522	 3.9871253318	 0.138165
39.5541	76.3937	152.2175	165.0829	197.2109	246.0777	302.2362	372.178	389.7507	416.9028	474.7655	557.1507	610.8576	673.9495	727.0042	800.2393	849.7117	899.9929	961.4222	1008.4884	1039.7805	1070.684	1083.4373	1132.4275	1146.9766	1185.5397	1207.1006	1277.6572	1336.8915	1384.0344	1387.7346	1397.8584	1419.3124	1467.634	1474.9149	1480.0646	1491.344	1809.7736	1884.9503	3027.8969	3033.2442	3041.322	3063.4191	3096.8762	3118.7318	3151.4363	3154.6464	3608.5616
CC1NC(=O)C1C(C)=O	C[C@H]1NC(=O)[C@H]1C(=O)C	
InChI=1S/C6H9NO2/c1-3-5(4(2)8)6(9)7-3/h3,5H,1-2H3,(H,7,9)	InChI=1S/C6H9NO2/c1-3-5(4(2)8)6(9)7-3/h3,5H,1-2H3,(H,7,9)/t3-,5-/m1/s1
