23
gdb 103626	2.16064	1.24072	1.14337	2.483	80.89	-0.2526	0.0637	0.3163	1267.8799	0.203929	-425.418716	-425.40838	-425.407436	-425.45323	39.509	
C	 0.756898421	 1.4855116239	-0.2769996947	-0.402904
C	 0.0938126965	 0.131883681	-0.0352498118	 0.007343
C	 0.5872883476	-1.0270472318	-0.9541066791	-0.305355
C	 1.3656014466	-1.6375231628	 0.2440760646	 0.365283
O	 1.2313219063	-3.039257169	 0.4595355757	-0.497339
C	 2.8772903327	-1.4311494229	 0.1749163607	-0.079533
O	 3.4379166747	-2.1719033855	-0.8912854135	-0.43056
C	 0.5740805019	-0.6975232514	 1.2075008806	-0.030166
C	 1.2612569392	-0.0219106895	 2.3879025072	-0.423534
H	 1.8489444325	 1.4192328096	-0.3102850649	 0.121005
H	 0.4290489802	 1.9017327141	-1.2357266717	 0.116388
H	 0.4925382788	 2.2051396652	 0.5052171121	 0.114906
H	-0.9908475988	 0.2734539327	-0.0538400909	 0.067229
H	-0.2285969578	-1.6776437149	-1.2869271536	 0.083198
H	 1.1895335276	-0.7596262526	-1.8260002208	 0.115503
H	 0.3147728907	-3.2847280435	 0.3010936258	 0.278575
H	 3.1223320098	-0.3812314031	-0.0035301653	 0.105172
H	 3.3182160185	-1.7215360376	 1.1417179725	 0.091028
H	 3.0691659277	-3.0594168405	-0.8029687333	 0.286785
H	-0.2782438924	-1.2766093284	 1.5847508809	 0.061575
H	 2.1174218148	 0.5858604312	 2.0808119526	 0.118784
H	 0.565072397	 0.6375020873	 2.9177730296	 0.113992
H	 1.621163065	-0.7653647617	 3.1069802671	 0.122625
87.1021	138.5183	163.7146	212.6	224.7542	235.7075	248.0689	271.9249	318.0336	346.9162	368.8462	439.3671	479.1878	519.026	529.5853	675.2466	759.6925	780.476	845.8621	886.9196	926.842	944.5192	985.9276	1025.9027	1041.5867	1069.0106	1082.0072	1103.4129	1140.1704	1149.3277	1169.7681	1197.1501	1224.5921	1240.9059	1274.1173	1294.3668	1353.0161	1371.235	1373.5255	1398.4174	1410.4651	1416.4886	1443.3698	1482.3333	1487.6069	1492.5247	1503.3799	1504.2285	1505.4132	2982.4925	3017.094	3029.9863	3033.8576	3039.6906	3054.7169	3093.0409	3094.6058	3096.5069	3101.7267	3106.4257	3111.2664	3786.011	3823.7349
CC1CC(O)(CO)C1C	C[C@H]1C[C@@](O)(CO)[C@H]1C	
InChI=1S/C7H14O2/c1-5-3-7(9,4-8)6(5)2/h5-6,8-9H,3-4H2,1-2H3	InChI=1S/C7H14O2/c1-5-3-7(9,4-8)6(5)2/h5-6,8-9H,3-4H2,1-2H3/t5-,6-,7+/m0/s1
