17
gdb 15692	3.03465	1.9855	1.38297	2.8153	65.24	-0.2273	0.023	0.2503	921.382	0.143407	-401.033398	-401.025471	-401.024527	-401.065951	28.579	
C	-0.4524555569	 1.0490033478	 0.0609360426	-0.244295
O	 0.0910962735	-0.2578691766	-0.0378608256	-0.259758
C	 0.8985600505	-0.4630683671	-1.1856903793	 0.021695
C	 1.5682057004	-1.832253153	-1.0694552297	-0.241645
C	 0.5666264625	-2.8048611232	-1.7306426217	-0.162695
N	-0.1104497084	-1.9435703963	-2.6871284707	-0.299665
C	-0.0117477699	-0.6058170422	-2.4289079047	 0.398862
O	-0.5767419399	 0.287748624	-3.0257649964	-0.386718
H	 0.3462941776	 1.8051089999	 0.1092552219	 0.104319
H	-1.1053298417	 1.2873971044	-0.7855301123	 0.143694
H	-1.0262485812	 1.0783843431	 0.9902405309	 0.122077
H	 1.6051998951	 0.3674928619	-1.3143901677	 0.082353
H	 2.5061299207	-1.8297548387	-1.6317307303	 0.115536
H	 1.7828743916	-2.0844194061	-0.0300811241	 0.121987
H	 1.0661317762	-3.6397031368	-2.2315539546	 0.112941
H	-0.1348353538	-3.2189639659	-0.9948645657	 0.120169
H	-0.7972834262	-2.2798930751	-3.3441042426	 0.251143
80.5119	121.7319	177.8997	185.2472	250.8927	318.8662	396.8525	477.7284	531.9301	667.8653	697.7664	743.5249	826.198	896.0335	927.8465	954.4288	1014.746	1079.2741	1104.2235	1132.0746	1187.6696	1206.9456	1214.7978	1233.842	1276.1548	1294.543	1329.2425	1356.5523	1377.0719	1447.3073	1475.7908	1477.5472	1483.8256	1515.8545	1532.6045	1818.7028	2988.4967	3018.9153	3020.2309	3065.754	3072.7769	3078.725	3123.1819	3132.4881	3633.7486
COC1CCNC1=O	CO[C@H]1CCNC1=O	
InChI=1S/C5H9NO2/c1-8-4-2-3-6-5(4)7/h4H,2-3H2,1H3,(H,6,7)	InChI=1S/C5H9NO2/c1-8-4-2-3-6-5(4)7/h4H,2-3H2,1H3,(H,6,7)/t4-/m0/s1
