21
gdb 113092	2.32781	1.31343	0.9585	0.7131	81.02	-0.2504	0.0095	0.2598	1317.8973	0.181386	-424.232387	-424.222816	-424.221871	-424.267351	34.841	
C	 0.3499381952	 1.4903836761	 0.1218796768	-0.383306
C	 0.3446903817	-0.0389678281	 0.0685311689	-0.174097
C	 0.5954968437	-0.5822883109	-1.3445997218	 0.07344
O	 1.8825258956	-0.1825661842	-1.8388170135	-0.274387
C	 2.736670349	-1.3089675413	-1.959375104	 0.176721
O	 3.7265269873	-1.3497878601	-0.9622850349	-0.240023
C	 4.7007646496	-0.3309551891	-1.0930023173	-0.240549
C	 1.8315917608	-2.4991837552	-1.787996651	-0.12596
C	 0.6250645681	-2.0848257115	-1.4244594578	-0.091049
H	 1.3016718461	 1.8823992119	-0.2465409418	 0.133345
H	-0.4489453396	 1.9114053978	-0.4991509714	 0.110591
H	 0.2029886311	 1.8503174773	 1.1445423266	 0.1101
H	 1.1175714613	-0.448739115	 0.7283964203	 0.110733
H	-0.6200053333	-0.426045451	 0.4221184877	 0.090379
H	-0.1564370929	-0.1585424598	-2.0283235829	 0.082018
H	 3.2277869582	-1.2397892128	-2.9446796844	 0.067195
H	 5.2072410033	-0.3826722144	-2.0693350034	 0.103056
H	 4.2576982195	 0.66609381	-0.9815959992	 0.124016
H	 5.4382878386	-0.4889371427	-0.302962017	 0.124498
H	 2.1813176849	-3.5160413999	-1.901547511	 0.113429
H	-0.2323276284	-2.700886727	-1.1840362188	 0.109849
58.4627	102.601	109.9339	163.3614	174.8648	217.9453	258.5361	331.2869	404.0896	451.3131	511.9941	556.87	715.7684	760.0404	809.7387	828.4209	875.5295	931.5946	956.1923	974.5451	991.6703	1024.0975	1026.1291	1071.8457	1107.7364	1119.2465	1141.8504	1151.985	1178.2231	1213.7557	1282.2316	1290.0953	1331.7809	1360.8102	1378.8263	1385.8819	1401.3018	1408.6139	1474.9104	1477.0377	1483.4402	1497.6275	1507.4342	1511.9813	1691.9185	2961.1431	2984.0718	2986.5375	3024.1815	3035.4578	3057.5694	3071.8744	3102.1998	3121.1927	3121.5232	3210.4232	3239.5973
CCC1OC(OC)C=C1	CC[C@H]1O[C@@H](OC)C=C1	
InChI=1S/C7H12O2/c1-3-6-4-5-7(8-2)9-6/h4-7H,3H2,1-2H3	InChI=1S/C7H12O2/c1-3-6-4-5-7(8-2)9-6/h4-7H,3H2,1-2H3/t6-,7-/m1/s1
