17
gdb 45056	2.62459	1.82155	1.26438	1.8207	72.8	-0.2348	-0.038	0.1968	992.9055	0.137474	-417.97711	-417.969792	-417.968848	-418.00898	28.66	
O	 0.060028335	 0.1868820285	-0.7393895418	-0.325732
C	-0.0073485414	 1.2495445564	-0.1721876116	 0.321566
C	-1.2668652286	 1.9376900654	 0.3667126992	-0.287052
N	-0.882645596	 3.2565627177	 0.8858173161	-0.104197
C	-0.0093128117	 3.2051435745	 2.0620905074	-0.245984
C	 0.5931435527	 3.4092481284	 0.7195379821	-0.135357
C	 1.1490514223	 2.1909478876	 0.0537857411	 0.254897
C	 2.5096189076	 1.6063684016	 0.2384141995	-0.270758
N	 2.1690572304	 2.2952372424	-1.0031288143	-0.356244
H	-1.9784676657	 2.0587727442	-0.4582721414	 0.145779
H	-1.754603774	 1.3202847282	 1.1285915331	 0.139573
H	-0.1162464188	 4.0419747865	 2.7460057805	 0.124816
H	 0.1547942627	 2.2422364098	 2.54564691	 0.111674
H	 0.9521157112	 4.3816841687	 0.3989836918	 0.11464
H	 3.214172286	 2.1288326895	 0.8793192202	 0.130009
H	 2.5840855475	 0.5220166138	 0.2283986996	 0.134209
H	 1.9520032906	 1.5999624667	-1.7180125215	 0.248159
77.8707	187.3078	247.828	259.8296	369.5963	436.5393	465.6192	556.1624	585.2455	655.0498	701.1221	781.303	833.4951	859.4806	867.7327	952.8707	981.7081	994.883	1012.9759	1048.5807	1072.3697	1088.8173	1117.5689	1118.7007	1155.3171	1163.2397	1216.9412	1264.2428	1276.7135	1288.7873	1315.0218	1331.7466	1427.1747	1456.2181	1496.4134	1507.0626	1829.4923	3042.4616	3083.7445	3088.9913	3108.3473	3166.9717	3185.0457	3204.2354	3463.2575
O=C1CN2CC2C11CN1	O=C1CN2C[C@H]2[C@]21CN2	
InChI=1S/C6H8N2O/c9-5-2-8-1-4(8)6(5)3-7-6/h4,7H,1-3H2	InChI=1S/C6H8N2O/c9-5-2-8-1-4(8)6(5)3-7-6/h4,7H,1-3H2/t4-,6-,8?/m0/s1
