21
gdb 58899	3.12618	1.23845	1.04928	2.5269	77.46	-0.2258	0.0678	0.2936	1215.0821	0.182453	-424.214434	-424.205514	-424.204569	-424.247811	34.603	
C	-0.0444602767	 1.5869171704	 0.4033014841	-0.41145
C	 0.0022296467	 0.0961852365	 0.0642500184	 0.020396
O	 0.7569240462	-0.6271942552	 1.0340598421	-0.428766
C	-1.3803709606	-0.5061619146	-0.130647838	 0.322381
C	-2.1717833803	-1.0522831691	 1.0509480346	-0.391741
C	-1.6478043764	-1.9782657781	-0.0227276146	 0.085642
O	-2.5157977895	-2.4098007393	-1.0365745224	-0.258565
C	-3.1552419273	-1.2572679028	-1.5810184326	-0.092407
C	-2.2080224537	-0.0608293541	-1.3316134097	-0.314815
H	 0.9679166442	 1.975626782	 0.5454472558	 0.122732
H	-0.5272487739	 2.1612737771	-0.393164132	 0.123107
H	-0.6162446261	 1.753950404	 1.3247575935	 0.111612
H	 0.5586295219	-0.0364217545	-0.873848458	 0.087525
H	 0.4953858687	-0.3110958326	 1.9053261402	 0.280736
H	-1.6642848284	-1.1024909829	 2.0084344412	 0.098695
H	-3.2365276552	-0.8561491676	 1.1201663456	 0.1117
H	-0.8795985221	-2.7044643766	 0.2098424925	 0.114237
H	-3.3492261804	-1.4466661614	-2.64043436	 0.110502
H	-4.1232896209	-1.0921684045	-1.0874020503	 0.098371
H	-2.767114693	 0.8666296222	-1.1739614817	 0.103983
H	-1.5390958833	 0.0933652011	-2.1870473788	 0.106126
71.8325	149.3231	187.4304	241.3206	261.0006	293.3205	301.4157	323.2467	446.5412	457.9332	482.8851	639.6638	690.2886	702.5829	830.9876	855.5589	891.9265	902.6298	928.5624	956.7712	1000.4179	1006.7253	1023.8703	1050.6401	1054.4519	1092.5213	1104.1108	1130.4263	1163.8425	1209.9757	1233.007	1245.2176	1277.74	1300.3165	1314.2722	1365.1148	1376.7587	1400.5588	1405.701	1416.0821	1476.3138	1492.5145	1494.7727	1496.7392	1528.1484	3001.1438	3013.4502	3027.3186	3032.4148	3078.1005	3088.8271	3097.3184	3117.2981	3130.0444	3201.2036	3215.7412	3809.1305
CC(O)C12CC1OCC2	C[C@@H](O)[C@]12C[C@H]1OCC2	
InChI=1S/C7H12O2/c1-5(8)7-2-3-9-6(7)4-7/h5-6,8H,2-4H2,1H3	InChI=1S/C7H12O2/c1-5(8)7-2-3-9-6(7)4-7/h5-6,8H,2-4H2,1H3/t5-,6-,7+/m1/s1
