17
gdb 87298	2.05989	1.33586	0.95986	6.2022	77.7	-0.2994	0.01	0.3094	1257.1895	0.135153	-380.890287	-380.881002	-380.880058	-380.924897	33.134	
C	 0.0679720198	 1.5022105238	-0.0946022461	-0.423989
C	 0.1398832248	-0.005608691	-0.0026418621	-0.043104
C	 1.4440131224	-0.7440943818	 0.0124723016	-0.307275
C	 0.583212278	-0.7396492651	 1.2693407468	 0.148856
C	 1.0521243059	 0.0344972625	 2.5038377907	-0.429631
C	 2.148925838	-0.6345027698	 3.2062906654	 0.282796
N	 3.0249221878	-1.1557811439	 3.7492319771	-0.294533
C	-0.1335042644	-1.9525842863	 1.5770579524	 0.257939
N	-0.7259790845	-2.9149203091	 1.8243055741	-0.333685
H	 0.9405661307	 1.9926300081	 0.3456990762	 0.125962
H	 0.030987501	 1.8025927327	-1.1466388566	 0.140118
H	-0.8298123487	 1.8934938949	 0.3945631324	 0.136099
H	-0.6707044394	-0.5144168829	-0.515848873	 0.125044
H	 1.5364098918	-1.6764938828	-0.5306985897	 0.149654
H	 2.3580993685	-0.1612814442	 0.0680937029	 0.136495
H	 1.3935688327	 1.0311463831	 2.2127904716	 0.157773
H	 0.2189806856	 0.1747867019	 3.2007028263	 0.17148
49.7286	113.8611	137.6037	170.55	184.5727	247.0109	307.723	377.0949	385.7351	431.6113	503.6234	567.4952	579.2773	708.2984	802.7245	885.6736	901.2987	926.6973	953.5739	960.0606	1033.192	1083.8071	1091.4787	1130.3638	1188.2832	1210.4528	1288.4128	1308.781	1340.741	1408.7609	1427.4749	1458.4015	1489.27	1491.4826	1503.345	2351.6926	2367.8257	3039.2894	3060.1925	3103.6925	3106.1831	3113.7416	3140.4694	3159.7274	3233.8607
CC1CC1(CC#N)C#N	C[C@H]1C[C@]1(CC#N)C#N	
InChI=1S/C7H8N2/c1-6-4-7(6,5-9)2-3-8/h6H,2,4H2,1H3	InChI=1S/C7H8N2/c1-6-4-7(6,5-9)2-3-8/h6H,2,4H2,1H3/t6-,7+/m0/s1
