17
gdb 85648	2.00396	1.67489	1.17986	5.7729	72.71	-0.2618	0.0017	0.2635	1095.921	0.137457	-418.073859	-418.06542	-418.064476	-418.107285	31.153	
C	 0.6728270477	 1.4256416969	-0.2085570851	-0.397185
C	 0.0139493293	 0.0549278657	-0.0236066261	 0.026233
C	 0.3071930959	-0.9457732937	-1.1727343776	-0.242816
C	 1.4982404569	-1.7955809679	-0.6678386858	-0.266889
C	 2.794776854	-1.3042945263	-1.125514753	 0.290948
N	 3.8072232893	-0.8905475696	-1.5002250852	-0.328698
C	 1.4015391785	-1.6809073757	 0.8855423971	 0.410715
O	 1.9869123258	-2.3629695984	 1.6892470218	-0.360495
N	 0.526924995	-0.666986054	 1.1348681317	-0.298374
H	 1.7498950146	 1.3265543707	-0.3733232704	 0.151524
H	 0.2367848944	 1.9435307461	-1.068715284	 0.126229
H	 0.5184371064	 2.0535711602	 0.6748205765	 0.12074
H	-1.0682608377	 0.1895318592	 0.0827767486	 0.095975
H	-0.552752001	-1.6032310496	-1.3198217899	 0.125598
H	 0.5146156571	-0.4390474124	-2.1157361267	 0.135084
H	 1.4125431872	-2.8494031607	-0.9432416369	 0.151545
H	 0.3900672966	-0.3510192804	 2.0828125552	 0.259865
71.6002	98.5297	146.9392	227.7514	256.8618	336.9585	417.8422	433.2083	470.0577	508.6703	553.4074	662.2491	710.318	730.5662	784.3733	870.7991	896.6422	947.3429	1009.5873	1034.3813	1058.4623	1124.5346	1138.7832	1184.1493	1236.4762	1260.5814	1292.2234	1330.8863	1356.1189	1395.0476	1416.651	1440.4859	1488.3442	1497.2616	1499.6313	1848.6665	2354.8715	3036.9742	3037.9839	3077.765	3092.8975	3108.1869	3121.2627	3135.9024	3634.3042
CC1CC(C#N)C(=O)N1	C[C@H]1C[C@@H](C#N)C(=O)N1	
InChI=1S/C6H8N2O/c1-4-2-5(3-7)6(9)8-4/h4-5H,2H2,1H3,(H,8,9)	InChI=1S/C6H8N2O/c1-4-2-5(3-7)6(9)8-4/h4-5H,2H2,1H3,(H,8,9)/t4-,5-/m0/s1
