16
gdb 67580	3.02811	2.02336	1.51437	2.7521	66.38	-0.2463	0.0631	0.3094	861.2737	0.126097	-437.784773	-437.778607	-437.777663	-437.814903	26.435	
O	 0.1305979088	 1.3545999246	 0.1134146747	-0.503112
C	 0.0702251395	-0.0181971507	 0.0711452198	 0.482205
C	 0.9476612119	-0.7894781833	 1.039705678	-0.051114
O	 0.2036642948	-1.6067661809	 1.9612460546	-0.253301
C	 0.6206270963	-2.1758724373	 0.705641224	 0.017531
C	-0.403384537	-2.0038303216	-0.4120536683	-0.082389
C	-1.2929366851	-0.7767748504	-0.0521685895	-0.095097
N	-1.3619283604	-0.3037666699	-1.4903110505	-0.377761
C	 0.0498206553	-0.8001021198	-1.3104798657	-0.114443
H	-0.4882756711	 1.6622995318	-0.5658191492	 0.293039
H	 1.9114728392	-0.421185255	 1.3723502942	 0.110145
H	 1.3172973957	-3.0055286542	 0.7592694151	 0.105281
H	-0.8671864799	-2.8692458634	-0.8848338544	 0.076614
H	-2.1478800531	-0.7351153658	 0.6210906271	 0.095207
H	-1.9014516601	-0.9650023085	-2.0548847151	 0.213031
H	 0.7792150952	-0.7831281254	-2.1231605948	 0.084164
269.7251	286.9034	315.4274	418.3244	487.8985	527.3499	555.2406	672.1459	710.5574	726.4966	790.6215	837.1341	857.488	879.0708	889.0314	914.7566	929.2621	971.4527	978.1725	1039.7545	1065.2725	1087.0737	1120.2383	1125.3613	1127.3065	1154.0226	1214.4975	1234.1278	1243.3473	1278.0701	1292.7019	1309.4555	1340.0777	1413.6526	1438.3228	3094.1219	3122.1663	3133.6203	3172.9911	3189.1629	3408.5882	3729.1378
OC12C3OC3C3C1NC23	O[C@@]12[C@H]3O[C@H]3[C@H]3[C@@H]1N[C@@H]23	
InChI=1S/C6H7NO2/c8-6-3-1(4(6)7-3)2-5(6)9-2/h1-5,7-8H	InChI=1S/C6H7NO2/c8-6-3-1(4(6)7-3)2-5(6)9-2/h1-5,7-8H/t1-,2-,3-,4+,5-,6-/m0/s1
