23
gdb 104045	3.25891	1.15953	1.05495	1.4131	85.06	-0.2584	0.0731	0.3315	1259.2946	0.205692	-388.262432	-388.253131	-388.252187	-388.296363	36.086	
C	 0.1170518328	 1.5351358111	-0.0757373566	-0.464238
C	 0.0231608244	 0.0143428636	-0.0163754626	 0.350149
C	-1.4282856566	-0.43633464	-0.1763886968	-0.122818
O	-1.8894971818	-0.0471386138	-1.4630927869	-0.426782
C	 0.9576596787	-0.8034345856	-0.9702049259	-0.279324
C	 1.4199990046	-1.6893440829	 0.2198559679	-0.004025
C	 2.7617657242	-1.2639391063	 0.8638704678	-0.220759
C	 2.0056553753	-0.2290503031	 1.7521721197	-0.24879
C	 0.6423213957	-0.7387693145	 1.2015288538	-0.063049
H	 1.1540346988	 1.8815850543	-0.0460314187	 0.107399
H	-0.3344193513	 1.9026124614	-1.0015906944	 0.13367
H	-0.4156614046	 1.9976058767	 0.7644787397	 0.103893
H	-1.4895261791	-1.5296154093	-0.0523118328	 0.081164
H	-2.0393969052	 0.02043155	 0.6203125895	 0.080754
H	-2.7944964039	-0.3544651392	-1.5654344376	 0.286761
H	 0.4274968059	-1.3151330325	-1.7761168836	 0.105883
H	 1.7656885743	-0.2159310343	-1.4172527489	 0.088012
H	 1.217440615	-2.7580283841	 0.1361211139	 0.057114
H	 3.2273789633	-2.0601294291	 1.4511672251	 0.095738
H	 3.5139589342	-0.8654213099	 0.1758660274	 0.092225
H	 2.1312180024	-0.3926773156	 2.8251366465	 0.098672
H	 2.2309867424	 0.8209245045	 1.5504909162	 0.098639
H	-0.0649446195	-1.0962824715	 1.9550060373	 0.049712
56.9889	123.9338	176.2749	207.8322	242.3767	274.6504	309.1416	348.9692	362.2635	398.5169	504.8557	621.0773	729.0331	746.8139	771.1077	834.2862	843.2417	893.2263	917.7917	941.1278	965.3364	969.8744	994.5911	1004.6902	1042.4167	1072.0484	1092.0008	1131.9655	1159.0263	1171.1531	1194.1337	1207.4395	1234.0577	1239.7249	1248.5329	1261.8998	1280.0884	1287.1615	1306.2649	1321.5619	1337.1703	1402.4824	1449.8885	1475.8713	1486.1833	1489.903	1495.3767	1509.3996	1517.1565	2953.6643	2986.4828	3026.1949	3045.149	3050.6217	3056.7713	3066.9882	3085.9205	3092.3077	3094.8107	3111.2879	3114.0585	3117.606	3835.5066
CC1(CO)CC2CCC12	C[C@@]1(CO)C[C@H]2CC[C@@H]12	
InChI=1S/C8H14O/c1-8(5-9)4-6-2-3-7(6)8/h6-7,9H,2-5H2,1H3	InChI=1S/C8H14O/c1-8(5-9)4-6-2-3-7(6)8/h6-7,9H,2-5H2,1H3/t6-,7-,8+/m1/s1
