17
gdb 114411	3.62462	1.1188	1.07418	4.8796	68.78	-0.2653	0.0087	0.2741	1180.0302	0.135644	-458.955689	-458.947619	-458.946674	-458.988995	29.493	
C	 0.2269532907	 0.9920018767	-0.3474374478	-0.240302
O	-0.0232665879	-0.2684861887	 0.2395986422	-0.233005
C	-1.3602382451	-0.64669612	 0.1927866271	 0.152414
C	-1.981627324	-1.1550802261	-1.154257817	-0.295607
C	-2.4353070423	-2.4613455552	-0.4181102075	-0.236404
C	-1.6632923886	-2.006285702	 0.8488505109	 0.060828
O	-0.6446595128	-3.0166668413	 0.5870881848	-0.243173
C	-1.3435182528	-3.5225883665	-0.4894765805	 0.461002
O	-1.0590818151	-4.459257457	-1.1615479267	-0.323046
H	 1.2946078286	 1.1913413635	-0.236193016	 0.138081
H	-0.0265111467	 1.0043801183	-1.4175529014	 0.113358
H	-0.3415784138	 1.7908613281	 0.1535402183	 0.107988
H	-2.0106214279	 0.1257302418	 0.6365994296	 0.074922
H	-2.8038556405	-0.5468194736	-1.533221155	 0.117591
H	-1.2617383792	-1.3247230141	-1.9571555604	 0.133136
H	-3.476510443	-2.7689119515	-0.4631638612	 0.110935
H	-2.0112964195	-2.0595559527	 1.8788523207	 0.101283
63.5359	106.1284	174.1975	195.9118	237.1574	319.9724	430.8916	443.7087	552.0829	650.9041	739.4482	791.7424	819.6578	853.0212	903.8	909.3475	988.6164	1019.3767	1030.0252	1063.7008	1104.1237	1112.9564	1156.3315	1178.609	1184.4791	1217.0265	1231.1774	1250.6076	1279.3561	1300.3259	1333.243	1386.3112	1480.0693	1484.5532	1491.0602	1507.0659	1939.6673	2961.2029	2980.5144	3030.9362	3079.8442	3126.5076	3134.1731	3137.0441	3160.2553
COC1CC2C1OC2=O	CO[C@H]1C[C@@H]2[C@H]1OC2=O	
InChI=1S/C6H8O3/c1-8-4-2-3-5(4)9-6(3)7/h3-5H,2H2,1H3	InChI=1S/C6H8O3/c1-8-4-2-3-5(4)9-6(3)7/h3-5H,2H2,1H3/t3-,4+,5-/m1/s1
