15
gdb 23490	3.70846	1.48518	1.26541	1.3589	73.16	-0.2207	-0.0198	0.2009	975.3272	0.113753	-416.713479	-416.70669	-416.705746	-416.744593	27.132	
O	-0.1708492382	 1.3153956314	 0.0663224247	-0.397044
N	 0.0087008127	-0.0838582743	 0.0744570055	-0.2809
C	-1.109342422	-0.6762925697	 0.1210000728	 0.494338
C	-1.4512091475	-2.1027004652	-0.0093973371	-0.167955
C	-2.7489683246	-2.4347592279	 0.7054981118	-0.066192
C	-3.2406784657	-1.5440501014	 1.7982007063	-0.079268
C	-3.2051896186	-0.2853794785	 1.3607723689	-0.081274
C	-2.5820036984	-0.2901005663	-0.0164216091	-0.165212
N	-2.8230145066	-1.7121583711	-0.5723743205	-0.129477
H	 0.7341795766	 1.6332982354	-0.0199157692	 0.308319
H	-0.8265777121	-2.8707392449	-0.4504052595	 0.11661
H	-3.0461745285	-3.4787693046	 0.6619574428	 0.103166
H	-3.5457767151	-1.8990964379	 2.7729643037	 0.114578
H	-3.4348648526	 0.6160113188	 1.9122097309	 0.122533
H	-2.8247687494	 0.5196112663	-0.701232742	 0.107779
118.6327	188.1852	278.241	382.9803	401.6337	477.3374	540.8823	643.1095	682.0401	716.4439	756.442	766.4842	796.8353	816.0289	873.5483	925.0084	949.4921	971.5805	989.0077	1009.884	1036.4815	1079.286	1118.0488	1144.905	1176.1161	1193.1595	1260.2002	1305.3427	1327.0698	1370.2435	1420.878	1654.7296	1787.5921	3145.2328	3154.919	3189.2357	3220.1242	3244.0337	3820.391
ON=C1C2C3C=CC1N23	ON=C1[C@H]2[C@H]3C=C[C@@H]1N23	
InChI=1S/C6H6N2O/c9-7-5-3-1-2-4-6(5)8(3)4/h1-4,6,9H	InChI=1S/C6H6N2O/c9-7-5-3-1-2-4-6(5)8(3)4/h1-4,6,9H/t3-,4+,6+,8?/m0/s1
