19
gdb 57201	2.66652	1.20647	1.12588	1.9455	71.84	-0.2425	-0.0296	0.2129	1202.7379	0.15646	-460.164611	-460.154954	-460.15401	-460.1992	35.907	
C	 1.0115620857	 1.1307148969	 0.2715955265	-0.481592
C	-0.2394119254	 0.4029991459	-0.1572268317	 0.393051
O	-1.2800612556	 0.4699932258	 0.4666789312	-0.324398
C	-0.0991773932	-0.5108004499	-1.3950486195	-0.043423
O	 0.63494756	-1.6531425065	-0.9592823497	-0.439651
C	-1.4451418597	-0.9124260447	-1.9545759385	 0.424533
O	-2.1716959191	-1.6938212674	-1.0409762474	-0.488221
C	-2.1883173918	 0.0009596113	-2.8918594823	-0.323359
C	-1.5880333355	-1.2999834061	-3.3915082784	-0.322759
H	 1.8489390637	 0.4271960281	 0.304401641	 0.163759
H	 1.2633302219	 1.8971185646	-0.4715641997	 0.142944
H	 0.8656766002	 1.6011432168	 1.244460322	 0.142344
H	 0.5082910705	-0.0112854133	-2.1583789495	 0.086607
H	-0.0351081232	-2.2487770884	-0.5928361896	 0.293993
H	-2.3580861405	-1.0969089949	-0.2985227149	 0.294888
H	-3.2648488222	 0.0415243896	-2.7735933488	 0.124481
H	-1.7273421941	 0.9365296298	-3.1921047024	 0.109674
H	-0.7123208527	-1.2617911307	-4.0299316067	 0.118253
H	-2.2715054092	-2.1148133969	-3.5997817415	 0.128877
58.749	93.6294	154.2441	173.7448	215.8611	243.8851	311.5425	330.3488	355.262	440.8319	489.5536	522.4046	599.3447	611.0208	672.1049	766.9687	818.6209	838.1366	899.795	938.2847	963.1779	980.0275	993.1095	1035.3439	1050.1271	1065.9063	1077.1657	1184.916	1186.8963	1239.3632	1289.2085	1309.7739	1348.2263	1378.4227	1399.6047	1447.8632	1455.2153	1461.9372	1473.8774	1507.2214	1790.0475	3037.2848	3049.8833	3105.8714	3132.0479	3140.4322	3156.5929	3219.5243	3234.1754	3693.3268	3737.0036
CC(=O)C(O)C1(O)CC1	CC(=O)[C@@H](O)C1(O)CC1	
InChI=1S/C6H10O3/c1-4(7)5(8)6(9)2-3-6/h5,8-9H,2-3H2,1H3	InChI=1S/C6H10O3/c1-4(7)5(8)6(9)2-3-6/h5,8-9H,2-3H2,1H3/t5-/m1/s1
