12
gdb 24927	5.35913	1.39437	1.10804	1.519	63.05	-0.204	-0.0126	0.1913	977.9952	0.079695	-468.810432	-468.803949	-468.803005	-468.841392	24.744	
N	-0.0451113382	 1.2600073715	 0.0224728075	-0.569674
C	-0.0257851726	 0.0029050285	 0.0325046849	 0.450693
N	-1.1338971779	-0.8484599605	 0.0683642067	-0.44669
C	-0.6546365669	-2.153143475	-0.0920645881	 0.262647
C	 0.6777029092	-2.061978014	-0.1118224412	 0.359313
O	 1.2372242474	-3.2778880455	-0.0290091456	-0.192689
C	 0.1136041483	-4.0930971714	 0.0063568601	 0.038039
N	-1.032304813	-3.4708337973	-0.0060980376	-0.334551
O	 1.1564914629	-0.8029992724	-0.0016230957	-0.257771
H	 0.8898701846	 1.6547981899	-0.0118091139	 0.241385
H	-2.0322320437	-0.490117453	-0.2101309718	 0.285563
H	 0.3058380999	-5.1521230409	-0.0047825854	 0.163736
106.0553	217.1014	334.6994	341.9637	388.0268	555.8563	593.3148	626.2408	700.7157	707.5662	733.0174	744.3092	775.0321	817.5081	866.2377	941.707	1017.8322	1039.6987	1146.018	1232.2483	1289.781	1319.4974	1454.3122	1476.5036	1513.1441	1703.2368	1809.9276	3303.7864	3559.173	3667.6125
N=C1NC2=C(OC=N2)O1	[NH][C@H]1Nc2c(ocn2)O1	
InChI=1S/C4H3N3O2/c5-4-7-2-3(9-4)8-1-6-2/h1H,(H2,5,7)	InChI=1S/C4H4N3O2/c5-4-7-2-3(9-4)8-1-6-2/h1,4-5,7H/t4-/m0/s1
