20
gdb 89040	3.22877	0.97914	0.86225	1.5149	76.74	-0.2292	0.0148	0.244	1415.2486	0.168579	-440.287419	-440.277277	-440.276333	-440.324388	35.371	
C	-0.0429523204	 1.6543291243	 0.5668004208	-0.31585
N	-0.0166769321	 0.2045958445	 0.4217843218	-0.073361
C	 1.1701665442	-0.3894146746	-0.1730820276	-0.255721
C	 0.8476831641	-0.6206828026	 1.2656912316	 0.002473
C	 1.7705684758	-0.0884855999	 2.3332589929	-0.113808
O	 1.094635661	-0.0700933095	 3.6098640258	-0.245011
C	 0.8019664396	 1.1338031892	 4.150436621	 0.437687
C	 0.0702416193	 0.9540635927	 5.4586501732	-0.476637
O	 1.0873466194	 2.1933629413	 3.6514789981	-0.354927
H	 0.9361052425	 2.1182666892	 0.7549172099	 0.11435
H	-0.4475838639	 2.0792398251	-0.3572988931	 0.120326
H	-0.7060482475	 1.9292570294	 1.391177378	 0.130868
H	 1.0107542811	-1.1721778041	-0.9103036587	 0.116654
H	 2.0123643774	 0.2698980784	-0.3877550689	 0.105913
H	 0.3879648162	-1.5685388588	 1.5423596072	 0.097563
H	 2.6150727092	-0.7731636751	 2.460017128	 0.118539
H	 2.1479634369	 0.9098796182	 2.1127416522	 0.140601
H	-0.8886372392	 0.4584740883	 5.2802912219	 0.153023
H	 0.6471671189	 0.3122948687	 6.1297568365	 0.149403
H	-0.0967708123	 1.9272607452	 5.9183293295	 0.147916
25.7733	56.1424	76.1189	95.1819	171.3565	220.884	277.446	322.8537	350.4692	388.9051	469.5976	530.5153	606.0604	644.906	746.6283	793.1519	865.601	911.0708	981.8295	1020.1309	1039.6691	1053.352	1064.0313	1083.0889	1119.0277	1127.2784	1164.2248	1197.4759	1203.9038	1251.4411	1287.9324	1339.4891	1370.5851	1394.3818	1431.2542	1454.4731	1469.0264	1475.7583	1482.0257	1484.3538	1505.85	1516.8207	1820.8448	2996.6509	3057.815	3060.7769	3075.3531	3079.2993	3113.6161	3115.5571	3123.2253	3145.1553	3169.2256	3170.1207
CN1CC1COC(C)=O	CN1C[C@H]1COC(=O)C	
InChI=1S/C6H11NO2/c1-5(8)9-4-6-3-7(6)2/h6H,3-4H2,1-2H3	InChI=1S/C6H11NO2/c1-5(8)9-4-6-3-7(6)2/h6H,3-4H2,1-2H3/t6-,7?/m0/s1
