15
gdb 18565	3.8796	2.04365	1.66896	3.813	60.85	-0.2489	0.027	0.2759	783.9955	0.121324	-399.823098	-399.816725	-399.815781	-399.853688	24.381	
O	-0.0456615509	 0.0020217816	 0.0507031501	-0.359244
C	-0.02696267	 1.2007707649	 0.0008686829	 0.433296
N	-1.0176563597	 2.1552217894	-0.0597606649	-0.320781
C	-0.1197203244	 3.3123168975	 0.0357532828	 0.00862
C	-0.0077738726	 3.9594435569	 1.4194253135	-0.096166
O	 0.7180960672	 3.0373813317	 2.219172844	-0.244978
C	 1.731205145	 2.4810638622	 1.3864691119	-0.095756
C	 1.0717205681	 2.2969335382	 0.0173986494	-0.209651
H	-2.0084407832	 2.0734139473	 0.1214748813	 0.249737
H	-0.2161654644	 4.0250755059	-0.786008465	 0.090915
H	 0.5308466335	 4.9179473311	 1.3292301466	 0.094453
H	-0.9700308918	 4.1440896241	 1.904977993	 0.113178
H	 2.5938106866	 3.1624810322	 1.3095136283	 0.09526
H	 2.0604827055	 1.5428130405	 1.839046075	 0.135981
H	 1.7536434611	 2.3041596565	-0.8319013788	 0.105135
108.8336	202.8742	271.4394	378.8036	423.0197	490.8312	608.3924	676.508	761.8363	780.771	859.634	881.9107	901.3379	943.6882	998.4107	1027.9533	1049.1905	1085.0353	1110.1835	1163.5888	1176.4752	1201.4544	1262.8218	1266.249	1286.0119	1347.3669	1354.6625	1372.0977	1402.957	1494.4539	1508.5596	1899.3872	2965.5693	2976.4409	3089.834	3092.3222	3106.2923	3132.4264	3595.5176
O=C1NC2COCC12	O=C1N[C@H]2COC[C@@H]12	
InChI=1S/C5H7NO2/c7-5-3-1-8-2-4(3)6-5/h3-4H,1-2H2,(H,6,7)	InChI=1S/C5H7NO2/c7-5-3-1-8-2-4(3)6-5/h3-4H,1-2H2,(H,6,7)/t3-,4+/m1/s1
