21
gdb 53147	3.26563	0.96687	0.8651	0.3653	93.67	-0.2346	0.0528	0.2874	1463.3181	0.18163	-349.893095	-349.883614	-349.88267	-349.929538	34.996	
C	 0.0588153858	 1.5384360138	-0.0547692943	-0.502156
C	 0.0327775255	 0.0837097466	 0.0019719917	 0.128247
C	 0.0163102795	-1.1208753798	 0.0531342155	 0.009609
C	 0.0130331861	-2.5693614858	 0.0823999484	-0.202029
C	-0.1047149476	-3.3388629623	 1.4433321115	-0.046787
C	-1.5921428897	-2.8979118427	 1.5051916762	-0.263905
C	-1.357797544	-3.3528542779	 0.029336454	 0.343395
C	-2.3458033717	-3.3432215444	-1.1047416716	-0.514073
C	-0.5751617697	-4.5669833	 0.6183673215	-0.26725
H	 0.7379561938	 1.8941813397	-0.8377264045	 0.146589
H	-0.934577635	 1.948715046	-0.2686906441	 0.1456
H	 0.395913126	 1.9693044721	 0.8948326598	 0.146478
H	 0.7761173086	-2.9748894153	-0.5918554336	 0.081377
H	 0.6261666985	-3.3231072082	 2.2520513601	 0.073485
H	-2.2602224929	-3.5268014559	 2.1006081357	 0.083858
H	-1.7857501994	-1.8358576687	 1.6665767523	 0.103893
H	-2.6811570335	-2.3223185807	-1.3167167018	 0.127037
H	-1.901886904	-3.7492264496	-2.020456498	 0.117083
H	-3.2278688139	-3.9462351818	-0.8625157734	 0.117661
H	 0.1648501597	-5.0405941373	-0.0342766479	 0.084861
H	-1.1713117321	-5.3106766077	 1.1536722724	 0.087029
7.8568	80.7929	103.7268	199.8181	226.1329	278.7816	304.6555	335.5813	438.0137	460.1127	502.5659	571.6888	637.1504	754.9708	806.0391	836.5616	893.3484	905.5852	911.5795	971.0451	1012.6835	1019.2972	1034.9742	1052.5776	1054.1778	1077.1129	1100.1267	1138.7517	1182.0458	1196.0252	1200.3098	1222.0536	1228.0486	1240.2253	1316.9524	1379.2786	1408.2053	1414.7863	1478.4715	1478.9871	1487.6922	1489.718	1495.9128	1537.5558	2360.3091	3024.0832	3026.1013	3036.2592	3044.401	3056.1819	3083.1752	3084.3688	3093.1712	3097.6631	3110.0541	3112.0684	3126.6646
CC#CC1C2CC1(C)C2	CC#C[C@H]1[C@H]2C[C@]1(C)C2	
InChI=1S/C9H12/c1-3-4-8-7-5-9(8,2)6-7/h7-8H,5-6H2,1-2H3	InChI=1S/C9H12/c1-3-4-8-7-5-9(8,2)6-7/h7-8H,5-6H2,1-2H3/t7-,8-,9+/m0/s1
