15
gdb 37844	3.23499	2.36852	1.7554	3.2886	69.38	-0.218	-0.0602	0.1578	769.1063	0.113917	-416.611413	-416.60578	-416.604836	-416.640947	24.547	
C	-0.0154829781	 1.5694914419	 0.0399788765	-0.265771
N	 1.4685524842	 1.7699747822	 0.1235254754	-0.219885
C	 1.9492984751	 0.7168722573	-0.4401780343	 0.208487
O	 2.5315069886	-0.2597222797	 0.3891557359	-0.26259
C	 1.2312425118	-0.9186029465	 0.4841386901	 0.106842
C	 0.8294225454	-1.5132291288	-0.8744134162	-0.092085
N	-0.6459166406	-1.2398754588	-0.5380428666	-0.402515
C	 0.0811611242	 0.022482349	-0.1873854888	 0.25339
C	 1.072023206	-0.0670124142	-1.3930115677	-0.118788
H	-0.442634419	 1.9130602125	 0.9866743684	 0.132894
H	-0.5646870659	 2.0510070007	-0.7823304711	 0.113452
H	 1.0900377388	-1.4336092894	 1.4304556104	 0.121597
H	 1.1312733482	-2.4650293681	-1.3090594959	 0.102202
H	-1.1667908585	-1.1010582842	-1.4083539907	 0.22102
H	 0.7631399999	 0.3040809261	-2.3657813954	 0.101749
312.9908	375.3125	418.1205	462.6496	556.5058	596.3705	618.6233	640.9139	743.118	771.3157	807.4875	851.4486	867.156	896.123	914.817	953.16	964.8738	991.049	1026.0237	1070.5537	1083.6046	1091.8232	1122.7927	1143.9886	1184.6899	1199.3513	1231.9054	1265.7835	1270.0073	1281.6087	1316.0707	1486.4549	1526.799	2993.3577	3080.8583	3130.6757	3167.7724	3176.8857	3410.8605
C1N=C2OC3C4NC13C24	C1[N][C]2O[C@@H]3[C@H]4N[C@@]13[C@@H]24	
InChI=1S/C6H6N2O/c1-6-2-3(8-6)4(6)9-5(2)7-1/h2-4,8H,1H2	InChI=1S/C6H6N2O/c1-6-2-3(8-6)4(6)9-5(2)7-1/h2-4,8H,1H2/t2-,3+,4-,6-/m1/s1
