20
gdb 54789	2.92736	1.42639	1.31583	3.4925	79.03	-0.2317	0.022	0.2537	1077.5858	0.172304	-403.165636	-403.157377	-403.156433	-403.199052	31.438	
C	-0.2154651886	 1.4303976386	-0.0792791688	-0.488701
C	-0.1273550516	-0.0874137586	-0.054059981	 0.362836
O	-0.4486397028	-0.756703563	 0.9103099612	-0.361698
N	 0.4164098502	-0.6582744706	-1.1833404232	-0.071005
C	 0.188671107	-0.3264340161	-2.6219624955	-0.022739
C	 0.931260863	-1.6558490636	-2.9217912311	-0.227411
C	 0.2076817302	-2.0697566249	-1.61085879	 0.001519
C	-1.2812302356	-2.0768534975	-2.0382829487	-0.218988
C	-1.2954963504	-0.7270841974	-2.8340455976	-0.221033
H	 0.7107050602	 1.8784339042	-0.4499214011	 0.136947
H	-1.0278154671	 1.7553135428	-0.7391548789	 0.136835
H	-0.4225474107	 1.78553347	 0.9301575361	 0.146375
H	 0.5327415669	 0.639119703	-2.9907778173	 0.080643
H	 0.6704278056	-2.1878851356	-3.8386297602	 0.098707
H	 2.0103470269	-1.5688763517	-2.79632074	 0.113629
H	 0.5688183683	-2.8553111647	-0.9516834945	 0.094998
H	-1.5317173764	-2.9424735093	-2.6566617424	 0.099946
H	-1.9416884694	-2.065288897	-1.1698131263	 0.129116
H	-1.985955931	 0.0072933017	-2.4116319112	 0.10683
H	-1.5406499946	-0.8502106503	-3.8923886596	 0.103193
56.873	105.6991	123.0141	170.335	304.3347	375.0642	450.8972	503.783	554.7086	637.7575	665.6617	713.6146	833.5952	835.5367	846.3882	884.3025	907.5713	938.6271	952.6692	1003.607	1020.0936	1027.5202	1051.6349	1060.8192	1099.2524	1119.2356	1140.1074	1196.5054	1220.5476	1223.2137	1251.0721	1264.1472	1296.7757	1304.4635	1330.2303	1363.107	1398.2208	1469.5456	1480.0597	1486.1294	1488.982	1510.6998	1769.5106	3042.3038	3061.7222	3073.6216	3081.2764	3104.1537	3108.0387	3127.3858	3129.9657	3152.1629	3157.3184	3158.9408
CC(=O)N1C2CC1CC2	CC(=O)N1[C@H]2C[C@@H]1CC2	
InChI=1S/C7H11NO/c1-5(9)8-6-2-3-7(8)4-6/h6-7H,2-4H2,1H3	InChI=1S/C7H11NO/c1-5(9)8-6-2-3-7(8)4-6/h6-7H,2-4H2,1H3/t6-,7+
