20
gdb 39398	2.45175	2.14999	1.46966	1.9576	79.31	-0.2225	0.0798	0.3023	951.5518	0.173406	-403.08119	-403.074144	-403.0732	-403.112096	29.755	
C	 0.0149951057	 1.5226100806	-0.0726457815	-0.362317
N	 1.210634692	 0.6763830985	-0.0598952029	-0.07907
C	 2.0212852511	 0.4868711798	 1.1296234671	-0.200172
C	 2.3265229427	-1.0466358124	 1.3089432451	-0.062786
O	 1.6509474577	-1.940481018	 0.434318756	-0.268921
C	 0.2266447279	-1.9588900009	 0.3609143139	 0.133172
C	-0.4419016375	-0.8431145186	 1.1999360052	-0.31591
C	-0.1013915089	 0.0473149205	-0.0056523805	 0.326437
C	-0.2334980903	-1.1784239438	-0.9175039909	-0.279655
H	-0.2513991653	 2.0652706729	 0.8362974408	 0.1044
H	-0.1505729859	 2.0767476993	-0.993238762	 0.118968
H	 2.9609298866	 1.0374244011	 1.0126951825	 0.105796
H	 1.5357793241	 0.8774005326	 2.0389470638	 0.085597
H	 3.3819222275	-1.2352333066	 1.0975944302	 0.116551
H	 2.1528460777	-1.3235845496	 2.3592848059	 0.09296
H	-0.1079802735	-2.9926166348	 0.4906522929	 0.070487
H	-1.519573681	-1.01342961	 1.2727395301	 0.104796
H	-0.0536488739	-0.6144521361	 2.1926573381	 0.103774
H	 0.4327415748	-1.2209858838	-1.7793271238	 0.113852
H	-1.2634632011	-1.4240673207	-1.19392025	 0.092042
171.9419	229.1633	327.0928	361.6977	380.2773	391.5483	458.3133	516.6217	563.0621	673.1226	778.8163	800.4056	815.5837	841.1056	857.4237	888.8469	914.546	940.7512	965.8894	976.409	1055.591	1062.4001	1079.6009	1112.698	1122.124	1149.217	1162.0595	1191.8585	1196.2021	1205.371	1250.8872	1255.992	1274.7285	1304.8333	1349.7995	1368.7267	1407.0636	1420.9431	1462.3192	1493.1762	1499.2993	1510.6034	1529.1678	2957.4847	2992.0834	3052.9358	3053.0048	3060.46	3071.9219	3075.7153	3094.2964	3131.8102	3143.2592	3166.1764
C1N2CCOC3CC12C3	C1N2CCO[C@H]3C[C@@]12C3	
InChI=1S/C7H11NO/c1-2-9-6-3-7(4-6)5-8(1)7/h6H,1-5H2	InChI=1S/C7H11NO/c1-2-9-6-3-7(4-6)5-8(1)7/h6H,1-5H2/t6-,7+,8?
