22
gdb 26313	3.78148	0.95325	0.81608	1.8294	90.81	-0.1905	0.051	0.2415	1504.4244	0.194066	-367.267454	-367.257488	-367.256544	-367.30255	37.176	
C	 0.0444740727	 1.6046503118	 0.5275148406	-0.389139
C	-0.0491922755	 0.1737122223	-0.0178137834	-0.076134
C	 0.8457759922	-0.7774229694	 0.8010325092	-0.372636
C	-1.4689565998	-0.3327898292	-0.0813241028	 0.301109
C	-2.5908638742	 0.231519435	 0.4831685496	-0.196076
N	-3.6692334068	-0.5723700163	 0.1918012545	-0.308941
C	-3.2669091735	-1.6519755506	-0.5578841303	 0.331651
C	-4.2287713599	-2.6937435974	-1.0262829704	-0.500854
C	-1.9085331514	-1.5251417317	-0.7385732877	-0.340154
H	 1.0801943714	 1.9585697329	 0.5115221223	 0.104059
H	-0.5613447637	 2.2981903511	-0.0637509478	 0.111448
H	-0.3032200832	 1.6526115434	 1.5660788355	 0.110786
H	 0.3462906207	 0.1845448959	-1.0440169165	 0.0743
H	 0.5158315164	-0.8108526765	 1.845312933	 0.1114
H	 0.8059370287	-1.7976272191	 0.4083162598	 0.112226
H	 1.8903066516	-0.4463146352	 0.7835076755	 0.100679
H	-2.7161900237	 1.1331909548	 1.059962198	 0.109883
H	-4.6159701426	-0.3910348992	 0.4759211623	 0.251491
H	-5.0161005018	-2.2756083862	-1.6665730277	 0.123225
H	-3.7000760605	-3.4518843358	-1.6085139538	 0.136335
H	-4.7259363472	-3.20589152	-0.1924449296	 0.123745
H	-1.28849586	-2.2157394906	-1.2923429203	 0.081598
42.2888	95.5244	131.5859	174.567	235.9773	247.486	276.0748	304.8131	342.4549	418.238	455.7016	460.6034	596.0575	644.2222	679.0586	700.7992	728.5066	810.831	879.9028	928.1411	961.6558	974.521	983.52	1013.684	1061.8843	1097.4113	1115.3153	1142.4668	1151.9119	1200.9629	1262.0245	1297.1955	1340.2827	1357.7702	1393.758	1415.3361	1417.0051	1423.9016	1450.9818	1480.6309	1486.897	1491.836	1501.4613	1502.9	1512.0481	1551.9175	1634.9324	2991.3763	3013.2525	3024.619	3029.4567	3055.7326	3090.2469	3096.2214	3104.4948	3106.6163	3121.3651	3230.2423	3266.3166	3678.2652
CC(C)C1=CNC(C)=C1	CC(C)c1c[nH]c(C)c1	
InChI=1S/C8H13N/c1-6(2)8-4-7(3)9-5-8/h4-6,9H,1-3H3	InChI=1S/C8H13N/c1-6(2)8-4-7(3)9-5-8/h4-6,9H,1-3H3
