14
gdb 18469	4.24898	1.4635	1.38405	3.3391	57.37	-0.2755	-0.0063	0.2693	905.9634	0.10685	-419.660501	-419.653387	-419.652443	-419.692441	25.977	
O	 0.122066953	 1.2776452778	-0.2923313623	-0.410989
C	 0.0473470486	-0.0378882471	 0.2283299143	-0.103025
C	-1.3583347849	-0.59512499	 0.1231170363	-0.059908
C	-1.9132658688	-1.2368995752	-1.0965536639	 0.070404
O	-0.8642055611	-1.9340033507	-1.8224513723	-0.265777
C	-0.7094050138	-2.8181734744	-0.7518761662	 0.463526
O	-0.0315811592	-3.7903354864	-0.7178280579	-0.316975
C	-1.7010269446	-2.0987984447	 0.1260219081	-0.29859
H	 0.0169657988	 1.2182676183	-1.2477516075	 0.290949
H	 0.7655986286	-0.709444903	-0.2581327286	 0.12055
H	 0.3284337115	 0.0363327966	 1.2832935847	 0.123282
H	-2.0995422724	-0.0200523199	 0.6755682241	 0.118721
H	-2.8107577971	-0.9907324303	-1.6458712714	 0.134203
H	-2.3875393789	-2.551670671	 0.8258604225	 0.133628
64.9371	117.0068	221.3097	294.5883	340.5167	431.4098	488.404	591.4264	710.5816	747.817	802.2035	829.7495	894.9024	905.5333	941.2668	1004.2034	1026.4621	1051.8387	1069.3453	1076.5714	1106.411	1156.7934	1240.8829	1265.255	1305.3332	1384.9689	1413.6774	1441.0369	1495.6934	1947.8199	3031.4186	3088.1359	3139.5887	3224.102	3236.4016	3814.0963
OCC1C2OC(=O)C12	OC[C@H]1[C@H]2OC(=O)[C@@H]12	
InChI=1S/C5H6O3/c6-1-2-3-4(2)8-5(3)7/h2-4,6H,1H2	InChI=1S/C5H6O3/c6-1-2-3-4(2)8-5(3)7/h2-4,6H,1H2/t2-,3+,4-/m1/s1
