18
gdb 128159	1.97963	1.8501	1.02147	1.7157	76.05	-0.1954	0.0309	0.2263	1167.3356	0.148027	-435.267264	-435.257657	-435.256712	-435.302091	33.821	
C	-1.2222144767	-0.2146257928	-0.3233561482	-0.331012
N	 0.242164219	-0.2541285187	-0.1906752935	-0.397416
C	 0.7318643231	-0.6884663382	 1.0492488587	 0.294548
C	 1.1529812226	-1.9329770589	 1.4897611103	 0.151728
O	 1.1154423594	-3.0596798388	 0.7140451723	-0.459417
C	 1.5843928619	-1.7339500211	 2.8121336644	-0.113139
N	 1.4369936622	-0.4577487741	 3.1804136435	-0.278759
N	 0.9333454894	 0.1629462338	 2.100924944	 0.013077
C	 0.6397454752	 1.5769864831	 2.1387848898	-0.324929
H	-1.6336012027	 0.5127745753	 0.3822627589	 0.129044
H	-1.4763433188	 0.118689131	-1.3334872193	 0.121559
H	-1.7057604408	-1.1841108867	-0.1361567354	 0.120654
H	 0.6384732482	-0.8326615931	-0.922518206	 0.241964
H	 1.6078965849	-3.7555455319	 1.1584067265	 0.298765
H	 1.9911173948	-2.4540519567	 3.5083041562	 0.100009
H	 1.3725916791	 2.0631839588	 2.7838110421	 0.150382
H	 0.7078905115	 1.9729037747	 1.1235965679	 0.151317
H	-0.3641291021	 1.7719183343	 2.5339633779	 0.131624
54.1434	125.9707	134.308	167.2767	175.9331	182.5328	264.3562	287.7375	328.2976	424.6915	529.6913	590.0204	659.4526	698.2825	709.4315	778.2373	809.6645	825.5168	1015.515	1043.7352	1084.5198	1144.7402	1152.4913	1154.732	1202.194	1231.0146	1301.6019	1361.1012	1397.6879	1423.9672	1442.319	1452.3204	1482.5857	1490.6108	1494.9221	1508.6886	1517.3997	1555.6372	1657.9143	2999.3513	3032.3429	3081.6987	3111.7727	3116.2305	3156.8099	3228.4639	3543.9225	3844.5131
CNC1=C(O)C=NN1C	CNc1c(O)cnn1C	
InChI=1S/C5H9N3O/c1-6-5-4(9)3-7-8(5)2/h3,6,9H,1-2H3	InChI=1S/C5H9N3O/c1-6-5-4(9)3-7-8(5)2/h3,6,9H,1-2H3
