15
gdb 133203	2.44361	1.74257	1.02353	4.0438	74.67	-0.2069	-0.027	0.1799	1079.9264	0.113307	-458.102689	-458.094861	-458.093917	-458.134941	29.707	
C	 0.1416194882	 1.4346091327	 0.0033634882	-0.448989
C	 0.009309602	-0.056167782	 0.0109903278	 0.310856
N	-0.051862347	-0.6624992011	-1.1385691924	-0.25305
N	-0.1709245212	-2.0034013801	-1.1400498605	-0.244157
C	-0.2319100019	-2.7714721006	-0.0140337913	-0.109895
C	-0.1708213185	-2.1702758828	 1.1924177148	 0.193734
F	-0.2281915304	-2.897190118	 2.3124205438	-0.076885
C	-0.0426347088	-0.7355392608	 1.3209104231	 0.127809
N	 0.0247215573	-0.0555006037	 2.4142142593	-0.562318
H	 1.0484420347	 1.735279399	 0.5378854329	 0.146904
H	 0.1685377559	 1.8078623252	-1.021135574	 0.126251
H	-0.6915886439	 1.8897648894	 0.5483918867	 0.146889
H	-0.2134443773	-2.416808808	-2.055360089	 0.280491
H	-0.3277696523	-3.8419591748	-0.1426700177	 0.147347
H	-0.0261243168	-0.6861031044	 3.2165923182	 0.215013
97.7552	172.0201	271.6682	296.8543	313.6804	315.9403	378.0151	463.7152	491.6954	532.7096	564.4976	583.9146	702.3475	764.7838	859.6453	884.7353	886.6523	939.6213	1002.6992	1056.6618	1081.6504	1240.0661	1262.5014	1311.0379	1337.1478	1407.6225	1437.3741	1464.7512	1467.7462	1524.8909	1625.0626	1651.315	1698.605	3046.5526	3100.6315	3150.547	3219.0696	3457.7313	3672.2055
CC1=NNC=C(F)C1=N	CC1=NNCC(=C1[NH])F	
InChI=1S/C5H6FN3/c1-3-5(7)4(6)2-8-9-3/h2H,1H3,(H2,7,8)	InChI=1S/C5H7FN3/c1-3-5(7)4(6)2-8-9-3/h7-8H,2H2,1H3
