17
gdb 61783	2.09677	1.30316	0.84492	4.2141	71.41	-0.2707	-0.0024	0.2683	1323.4695	0.133188	-455.145474	-455.135326	-455.134382	-455.181593	34.964	
C	 0.1242762138	 1.770889625	-0.0224788233	-0.399635
C	-0.0385184287	 0.2633530179	 0.1021794724	 0.070637
O	-1.4278662034	-0.0381600416	 0.1696858702	-0.190971
C	-1.8607051891	-0.9222529396	 1.1016168268	 0.132183
N	-3.0868626405	-1.1970437312	 1.1721937257	-0.436261
C	 0.5537242978	-0.4756526894	-1.1286996895	-0.007267
O	 1.8964821437	-0.1183442688	-1.3861987689	-0.405358
C	 0.414496069	-1.9354641469	-0.9661835704	 0.257135
N	 0.3580880123	-3.0758504726	-0.7878625651	-0.315788
H	 1.1760062954	 2.0305984685	-0.1554470852	 0.137909
H	-0.4395897513	 2.1401897841	-0.8841313311	 0.140622
H	-0.2591187495	 2.2621520024	 0.8748667232	 0.133434
H	 0.4703226145	-0.1028207843	 1.0058018049	 0.090893
H	-1.0557169193	-1.320637131	 1.7325245947	 0.098447
H	-3.2522190666	-1.8685939892	 1.9186731839	 0.236041
H	-0.021264323	-0.1667025326	-2.0079094109	 0.157161
H	 2.4602156248	-0.5323312108	-0.7222338474	 0.300817
45.4989	58.2782	113.3146	140.4812	202.4864	214.864	257.4878	279.1854	314.9875	359.1413	387.2718	486.8012	548.974	597.003	650.9919	814.8603	858.365	909.5609	968.992	1034.6547	1061.3754	1079.1901	1126.6877	1135.2247	1147.3032	1249.4114	1284.7625	1299.716	1363.9636	1369.0842	1407.9196	1415.5866	1425.053	1486.1198	1493.8879	1747.7953	2355.18	3001.6652	3036.4776	3054.8779	3075.7261	3128.9226	3147.4593	3524.677	3801.4088
CC(OC=N)C(O)C#N	C[C@@H](O[CH][NH])[C@@H](O)C#N	
InChI=1S/C5H8N2O2/c1-4(9-3-7)5(8)2-6/h3-5,7-8H,1H3	InChI=1S/C5H8N2O2/c1-4(9-3-7)5(8)2-6/h3-5,7-8H,1H3/t4-,5+/m1/s1
