19
gdb 121696	6.00592	0.59702	0.57415	2.4198	77.46	-0.2642	0.006	0.2702	1963.9042	0.158175	-456.395782	-456.385438	-456.384494	-456.433132	35.24	
C	-0.3369469454	 1.3277657779	-0.0403881854	-0.379107
C	-0.029589376	-0.1602055076	-0.2241523152	-0.168969
C	 1.2561088464	-0.388743504	-1.0276052001	-0.152628
N	 1.5851375822	-1.7939315302	-1.1990903746	-0.363257
C	 1.3814063215	-2.4527923701	-2.3601207559	 0.538651
O	 0.9771127625	-1.9887830377	-3.3996693441	-0.401078
O	 1.7268813796	-3.7824731531	-2.1748041505	-0.233417
C	 1.6039034626	-4.614056306	-3.25272506	 0.120444
N	 1.9100226952	-5.8260889602	-3.1044651527	-0.433226
H	 0.4739383645	 1.8395631832	 0.489849035	 0.117154
H	-0.468409255	 1.8271309354	-1.006333388	 0.124473
H	-1.254509523	 1.4725375348	 0.5367344911	 0.120825
H	 0.0652826623	-0.6454693857	 0.7559677195	 0.0955
H	-0.8583831345	-0.6586547382	-0.7399455091	 0.115533
H	 1.1576264202	 0.0325043428	-2.0310187392	 0.148725
H	 2.0999121859	 0.1144237297	-0.5393827818	 0.110429
H	 1.8862323166	-2.3419595638	-0.4092231394	 0.261454
H	 1.2406610958	-4.0973259587	-4.1416226446	 0.142613
H	 1.7707532586	-6.3223199788	-3.9832773151	 0.235881
27.896	48.2226	85.2986	120.769	133.3545	191.0181	235.5928	270.8148	327.11	357.2086	495.4269	499.8523	575.7508	730.1202	770.1124	772.6339	847.8253	883.1122	898.7317	976.868	1022.7841	1051.2659	1071.5506	1123.3709	1153.0551	1185.2011	1234.6873	1278.2105	1287.7015	1334.0079	1340.7959	1387.7811	1408.6853	1415.8947	1480.0627	1492.1903	1500.0383	1510.2113	1546.8986	1749.2585	1838.4174	3023.8354	3030.7858	3034.7748	3065.1373	3099.2383	3111.0721	3116.7449	3136.3753	3508.9823	3644.1073
CCCNC(=O)OC=N	CCCNC(=O)O[CH][NH]	
InChI=1S/C5H10N2O2/c1-2-3-7-5(8)9-4-6/h4,6H,2-3H2,1H3,(H,7,8)	InChI=1S/C5H10N2O2/c1-2-3-7-5(8)9-4-6/h4,6H,2-3H2,1H3,(H,7,8)
