17
gdb 28894	2.27245	1.80061	1.01153	2.5973	79.08	-0.2072	0.0087	0.2159	1125.7562	0.136208	-421.900921	-421.892472	-421.891528	-421.933607	32.536	
C	 0.0583157862	 1.5089837595	 0.009948623	-0.56298
C	 0.0673800153	-0.0022323202	 0.0017981412	 0.019076
C	 0.0560960413	-0.7239087738	-1.2034717702	 0.331767
O	 0.0809593116	-0.1040294362	-2.4206988172	-0.441822
C	 0.0053051615	-2.1166938055	-1.2176771453	-0.210683
C	-0.0186289064	-2.8080397395	-0.0131332077	-0.095406
C	 0.0195552381	-2.1299627452	 1.1985561733	-0.210662
C	 0.0703148513	-0.7370895195	 1.1991058923	 0.331709
O	 0.1094892417	-0.1306978428	 2.422737559	-0.441839
H	 1.0627962254	 1.9527147573	 0.0049303847	 0.139412
H	-0.4845887397	 1.9152299187	-0.8514141559	 0.130968
H	-0.4718022978	 1.9060746726	 0.8834338805	 0.130863
H	 0.2329175237	 0.8377766869	-2.3021685107	 0.293139
H	-0.0080226591	-2.627795412	-2.1724132179	 0.098347
H	-0.0560441793	-3.8923258391	-0.0188647076	 0.096645
H	 0.0174570225	-2.6515277313	 2.1477080969	 0.098344
H	 0.2606264737	 0.81229145	 2.3128727415	 0.293123
103.3214	140.9898	236.8144	263.1392	279.0136	321.547	356.6014	381.079	492.3271	508.3006	512.2562	552.4367	628.8669	690.6137	726.9401	798.3236	819.9371	865.9696	925.8177	947.9189	1046.75	1078.665	1093.8282	1171.2636	1173.2542	1200.6089	1260.0587	1315.805	1344.6594	1376.9141	1416.1649	1485.1824	1508.3721	1517.1634	1519.8624	1630.7657	1667.8106	3009.2545	3063.9276	3073.3199	3180.885	3206.623	3212.0979	3840.3782	3842.4399
CC1=C(O)C=CC=C1O	Cc1c(O)cccc1O	
InChI=1S/C7H8O2/c1-5-6(8)3-2-4-7(5)9/h2-4,8-9H,1H3	InChI=1S/C7H8O2/c1-5-6(8)3-2-4-7(5)9/h2-4,8-9H,1H3
