21
gdb 98261	2.5833	1.01814	0.8481	4.2397	75.51	-0.2591	-0.0209	0.2382	1443.4358	0.17875	-461.381172	-461.370204	-461.36926	-461.417557	39.31	
C	 0.112159146	 1.4482956505	 0.1833984727	-0.427439
C	-0.0637391756	-0.0680218809	 0.1743376027	 0.15417
O	 0.3280897547	-0.6331570113	 1.4254003366	-0.436882
C	-1.497713438	-0.5316254846	-0.1909444401	-0.105474
C	-1.9700505348	-0.0292521652	-1.5642838235	-0.407031
C	-1.5127831174	-2.0561594121	-0.1716150029	 0.391207
O	-0.9858039321	-2.7150249696	-1.04453789	-0.350472
C	-2.1964513504	-2.7629158046	 0.9832638865	-0.13826
O	-2.1446477982	-4.1497890098	 0.8463375833	-0.421469
H	 1.1207996934	 1.6934854998	 0.5272025955	 0.132933
H	-0.0252085867	 1.8837314391	-0.8092971497	 0.13003
H	-0.6079157146	 1.9238926934	 0.8621706319	 0.109495
H	 0.6209728678	-0.5130973867	-0.5565028328	 0.11339
H	-0.1000939451	-0.1274755554	 2.1253577895	 0.278997
H	-2.1758770795	-0.1625029489	 0.5917367175	 0.068586
H	-2.0171213109	 1.0616919236	-1.593776624	 0.119941
H	-1.2925844909	-0.3780369873	-2.3480944944	 0.144144
H	-2.9686352625	-0.4118866727	-1.7955494333	 0.124424
H	-1.6956292245	-2.4182438755	 1.9038116545	 0.117522
H	-3.2390721272	-2.4060566302	 1.0406600856	 0.108582
H	-1.6199821536	-4.3008244417	 0.0433240044	 0.293605
50.5112	66.7117	106.4921	177.1184	198.8055	203.6121	237.8148	285.6992	305.3532	322.1341	338.2469	399.9074	432.717	448.2198	487.1059	569.8823	703.4598	812.4348	845.4179	921.2605	966.563	991.5535	1026.2746	1066.9598	1079.5	1114.4661	1133.0971	1151.1746	1159.2578	1248.879	1265.0872	1302.6184	1322.53	1357.5136	1372.9717	1400.1206	1407.7606	1424.7904	1445.8012	1488.8532	1489.9453	1491.5694	1498.0875	1506.4044	1791.477	2966.3411	2987.1367	3007.0978	3024.7595	3048.2736	3057.3088	3102.1782	3114.7701	3126.3467	3133.8427	3679.1914	3798.8583
CC(O)C(C)C(=O)CO	C[C@@H](O)[C@@H](C)C(=O)CO	
InChI=1S/C6H12O3/c1-4(5(2)8)6(9)3-7/h4-5,7-8H,3H2,1-2H3	InChI=1S/C6H12O3/c1-4(5(2)8)6(9)3-7/h4-5,7-8H,3H2,1-2H3/t4-,5-/m1/s1
