20
gdb 51566	2.18408	1.31777	0.89871	2.2832	80.51	-0.2339	-0.0224	0.2114	1318.0506	0.169039	-403.105324	-403.096039	-403.095095	-403.140834	33.723	
O	-0.2232803272	 0.1343444803	 0.6346220558	-0.241632
C	-0.0773295202	 1.2843117194	 0.3123224827	 0.179213
C	 1.2620563129	 1.9426378265	 0.0416845647	-0.314851
C	 1.2425747997	 2.8026765649	-1.2107036368	 0.001678
C	 2.4685190636	 2.9726573798	-2.0437491975	-0.264883
N	 1.3187983595	 2.2400365194	-2.5611012008	-0.080427
C	 1.4407548907	 0.8184925056	-2.7413108321	 0.068728
C	 0.2035868312	 0.0763968723	-3.1688250674	-0.271379
C	 1.3286036065	 0.3026304896	-4.1507866558	-0.281083
H	-0.9537463018	 1.9651961124	 0.1997567156	 0.074223
H	 1.4751652052	 2.5990649853	 0.8988516369	 0.127928
H	 2.0334860449	 1.1701586878	 0.0231237131	 0.124968
H	 0.5530961078	 3.6445036522	-1.1464661604	 0.094927
H	 2.6916488884	 3.922354994	-2.5233362555	 0.11732
H	 3.3456625019	 2.3975869713	-1.7479594755	 0.110544
H	 2.1318261035	 0.2867778681	-2.0857090513	 0.079754
H	 0.0422087411	-0.9190214268	-2.7719337013	 0.12241
H	-0.6953572815	 0.6670649034	-3.3017425901	 0.119563
H	 1.1704496342	 1.0433758052	-4.925666291	 0.121321
H	 1.9466793995	-0.5403782306	-4.4385508433	 0.111677
41.9738	62.3039	72.2497	170.609	190.7617	267.4389	344.055	371.1529	457.336	485.8205	562.4351	704.3607	729.8778	784.3509	824.7378	856.1583	888.8831	930.2787	964.9551	1001.7628	1036.1765	1047.9045	1058.0897	1077.3365	1088.306	1117.266	1127.1951	1131.5111	1166.0174	1195.5584	1198.2727	1216.4028	1234.3862	1283.2091	1334.9018	1399.8312	1419.0129	1429.5589	1453.2993	1456.7762	1496.2104	1512.6925	1836.7687	2856.2415	3010.0521	3077.9099	3087.06	3098.626	3119.0607	3140.09	3145.1763	3173.3818	3225.1329	3238.736
O=CCC1CN1C1CC1	O=CC[C@H]1CN1C1CC1	
InChI=1S/C7H11NO/c9-4-3-7-5-8(7)6-1-2-6/h4,6-7H,1-3,5H2	InChI=1S/C7H11NO/c9-4-3-7-5-8(7)6-1-2-6/h4,6-7H,1-3,5H2/t7-,8?/m0/s1
