12
gdb 24823	3.02843	1.52181	1.01284	6.6095	69.44	-0.2654	-0.0693	0.1961	1051.0363	0.079231	-435.539541	-435.532574	-435.53163	-435.571289	25.54	
O	 0.0103099939	-0.0698608636	 0.0033625663	-0.336066
C	-0.0113476891	 1.1450775024	 0.0099444378	 0.331763
C	-1.23694976	 1.9508010222	 0.0300125945	-0.244083
C	-1.1975329178	 3.2899892666	 0.0363499611	 0.072582
O	-0.0417448272	 4.0064618281	 0.024945392	-0.18147
C	 1.1206409556	 3.3384400061	 0.0063595554	 0.041389
C	 1.2130161765	 1.9878840226	-0.0017560616	-0.093271
C	 2.4991143614	 1.3741581362	-0.0216939997	 0.246339
N	 3.549015282	 0.8881616929	-0.0378927876	-0.31844
H	-2.188781858	 1.4348274721	 0.0397690634	 0.144056
H	-2.0571467205	 3.9470483762	 0.0509101812	 0.162114
H	 1.9713171332	 4.0080735081	-0.0013228227	 0.175088
106.3232	147.3658	205.7115	384.1938	386.7302	452.2617	452.5695	573.2496	575.0327	595.3301	711.0371	776.3134	865.901	870.0297	940.0134	975.0066	979.497	1126.8764	1163.0695	1243.8429	1346.5993	1385.1262	1417.3733	1609.731	1682.3324	1771.0053	2351.7641	3218.1223	3227.4477	3238.5057
O=C1C=COC=C1C#N	O=c1ccocc1C#N	
InChI=1S/C6H3NO2/c7-3-5-4-9-2-1-6(5)8/h1-2,4H	InChI=1S/C6H3NO2/c7-3-5-4-9-2-1-6(5)8/h1-2,4H
