12
gdb 128631	3.15827	1.4381	0.99436	4.368	60.23	-0.2855	-0.1156	0.1699	1082.9686	0.07606	-505.916082	-505.908442	-505.907497	-505.948957	26.591	
C	-0.0350880166	 1.3995785509	 0.0445029217	-0.241323
O	 0.0282379958	-0.0372844064	-0.0479767307	-0.214739
C	 0.6296282297	-0.5378937679	-1.1000545766	 0.522746
N	 1.1500416635	 0.1874917401	-2.0257645378	-0.415073
C	 1.7530633065	-0.4683757175	-3.0782223743	 0.484078
O	 2.282306792	 0.0373109223	-4.0163729715	-0.311411
O	 1.7356340025	-1.8815252422	-3.0284654229	-0.238497
N	 1.1419479939	-2.5787283416	-1.974181814	 0.097637
N	 0.6115525493	-1.9481537716	-1.0491447923	-0.165828
H	 0.9726223811	 1.8191181887	 0.0664637588	 0.163252
H	-0.575498064	 1.8073989234	-0.8120175497	 0.163233
H	-0.5642884938	 1.5998888918	 0.9743802493	 0.155924
74.8388	132.6148	162.5388	214.0359	219.9208	428.5664	451.3941	507.5603	565.4578	593.1339	742.2558	749.8812	767.8866	811.5553	921.6883	1019.4117	1040.1132	1173.8223	1178.0483	1247.337	1369.934	1478.5701	1480.6746	1489.3268	1594.5918	1674.3459	1902.9551	3064.5982	3147.4694	3181.8274
COC1=NC(=O)ON=N1	COc1nc(=O)onn1	
InChI=1S/C3H3N3O3/c1-8-2-4-3(7)9-6-5-2/h1H3	InChI=1S/C3H3N3O3/c1-8-2-4-3(7)9-6-5-2/h1H3
