22
gdb 105054	2.61245	1.25805	1.09372	2.3625	81.55	-0.2371	0.0718	0.3089	1246.6663	0.192872	-404.306963	-404.297134	-404.29619	-404.341799	37.533	
C	-0.4625031437	 1.5000096534	-0.170897144	-0.413742
C	-0.3053216558	-0.0167973492	-0.3078761729	-0.267208
C	 0.7872879575	-0.5275947498	-1.2429184594	 0.272843
C	 1.2362316561	 0.2664057825	-2.4147366512	-0.274496
N	 2.1217862863	 0.0932537431	-1.243610795	-0.353176
C	 0.8142984763	-2.0378236944	-1.3467725515	 0.35984
O	-0.3786161534	-2.5891560207	-1.8552630943	-0.469001
C	 2.0594344744	-2.7543399939	-1.7627841172	-0.307233
C	 1.5780510141	-2.8456619157	-0.3272252633	-0.326947
H	 0.4569926635	 1.9870384669	 0.1726477011	 0.115225
H	-0.7606902414	 1.9674993909	-1.1137329473	 0.127118
H	-1.2369514793	 1.730158081	 0.5666159479	 0.12138
H	-0.1232392865	-0.4505362761	 0.6852416227	 0.102818
H	-1.2580632401	-0.4355720218	-0.6541327744	 0.103556
H	 1.5640984681	-0.2505653061	-3.3118662971	 0.120622
H	 0.8010390592	 1.2456356024	-2.5883310803	 0.10896
H	 2.1144236408	 0.940848093	-0.6823915318	 0.226178
H	-1.0035633009	-2.6704673612	-1.1275896947	 0.281053
H	 1.9159236237	-3.6245333634	-2.3923376989	 0.114048
H	 2.944243416	-2.1604626444	-1.9543830184	 0.136183
H	 2.1452613054	-2.3102430101	 0.4263293618	 0.116419
H	 1.1377404897	-3.7820275965	-0.0013662317	 0.10556
47.6435	65.3629	184.0505	198.0321	257.5679	274.0393	287.5129	324.022	357.0554	360.8983	467.6505	492.3619	542.2535	613.7277	776.1155	784.8948	800.0221	877.5481	906.8396	916.9964	932.0708	942.2452	974.2319	993.5301	1009.3823	1032.8296	1050.2614	1084.6344	1088.6109	1122.9098	1145.2022	1197.1201	1217.0941	1254.2461	1266.7649	1310.3594	1328.4333	1355.9946	1366.0481	1405.2622	1424.4608	1439.8032	1487.2764	1491.6536	1498.0751	1502.3508	1518.3049	3012.0866	3035.9564	3050.5866	3098.9984	3111.38	3119.0568	3129.8161	3147.7347	3202.7696	3219.3269	3246.3196	3504.2244	3808.9094
CCC1(CN1)C1(O)CC1	CC[C@]1(CN1)C1(O)CC1	
InChI=1S/C7H13NO/c1-2-6(5-8-6)7(9)3-4-7/h8-9H,2-5H2,1H3	InChI=1S/C7H13NO/c1-2-6(5-8-6)7(9)3-4-7/h8-9H,2-5H2,1H3/t6-/m0/s1
