18
gdb 22289	3.81177	1.00903	0.98097	0.8171	77.36	-0.2248	0.0125	0.2374	1259.2376	0.145283	-439.00922	-439.000303	-438.999358	-439.04237	34.438	
C	-0.0223508548	 1.5656580742	-0.0055953328	-0.465128
C	 0.0888162923	 0.0595569875	-0.0620182469	 0.407666
O	-1.0498625937	-0.6056940514	 0.4236096012	-0.468235
C	 0.6994449462	-0.7254993666	-1.1714223222	-0.095986
C	 1.926287033	-0.02502354	-1.7816234926	-0.347833
C	 2.5490194756	-0.0431205296	-0.3871848914	 0.428998
N	 3.6861653844	 0.2372838819	 0.0991250642	-0.268271
O	 4.5183238419	 0.8117983579	-0.8858078471	-0.396196
C	 1.3798247615	-0.7124227822	 0.2331254647	-0.225621
H	 0.8755122057	 2.0615340318	-0.3796506785	 0.136472
H	-0.8833771541	 1.904149707	-0.5907036843	 0.128391
H	-0.1659385221	 1.8946367807	 1.030958862	 0.112446
H	-1.1671937517	-0.3540789898	 1.3465434555	 0.283975
H	 0.1524145118	-1.5422519718	-1.6234999719	 0.106812
H	 2.4899942471	-0.6709315852	-2.4608584341	 0.135002
H	 1.7754958375	 0.9434169673	-2.2660756439	 0.120232
H	 5.3394438625	 0.9443355478	-0.4007710387	 0.305219
H	 1.3928298267	-1.4689276696	 1.0072158469	 0.102056
85.7765	171.5584	201.606	229.2963	285.0202	300.4987	335.5571	366.853	405.6946	434.7152	459.1178	504.1678	602.586	666.3583	703.49	822.3468	835.1782	901.8382	930.6762	963.6444	973.9007	1000.5047	1017.6493	1036.4504	1088.4105	1107.9363	1160.262	1178.7757	1231.1294	1246.052	1276.8624	1302.1359	1407.4842	1417.0174	1437.8417	1467.7764	1491.4844	1499.808	1777.9176	3029.899	3060.5141	3092.2469	3106.7539	3131.264	3198.7465	3208.7604	3796.2948	3821.9697
CC1(O)C2CC(=NO)C12	C[C@@]1(O)[C@H]2CC(=NO)[C@@H]12	
InChI=1S/C6H9NO2/c1-6(8)3-2-4(7-9)5(3)6/h3,5,8-9H,2H2,1H3	InChI=1S/C6H9NO2/c1-6(8)3-2-4(7-9)5(3)6/h3,5,8-9H,2H2,1H3/t3-,5-,6+/m0/s1
