22
gdb 78784	2.59149	1.72195	1.32867	0.6219	85.7	-0.196	0.0838	0.2798	1073.0183	0.193079	-367.13892	-367.130073	-367.129129	-367.171713	35.168	
C	 0.0529435939	 1.5169628797	-0.9554738526	-0.331697
N	 0.3616640266	 0.1007929938	-0.8427932803	-0.071814
C	 1.2975545256	-0.5815635983	-1.7218553727	-0.049765
C	 1.5871220314	-1.6317890255	-0.7082378827	-0.098886
C	 2.7076924929	-0.6734105105	-1.0448510622	-0.127784
C	 2.5998876643	 0.0059363898	 0.3242100678	 0.320787
C	 3.3533385356	-0.782053742	 1.4059929539	-0.422345
C	 2.9395837069	 1.4930570797	 0.4655344759	-0.47129
C	 1.0984219622	-0.5053394102	 0.2913526949	-0.076738
H	 0.9033011201	 2.181179965	-1.1572874133	 0.10209
H	-0.6725865836	 1.6521685521	-1.7663444374	 0.115373
H	-0.4269355662	 1.8496375255	-0.028987752	 0.117632
H	 1.157739779	-0.6711258253	-2.7928185741	 0.093013
H	 1.4867815431	-2.7067067862	-0.7218158494	 0.092623
H	 3.6038345515	-0.8795728053	-1.6198436565	 0.075232
H	 4.4375475763	-0.6882631556	 1.2776608305	 0.109505
H	 3.107665454	-0.3963780078	 2.402853451	 0.107571
H	 3.1034270713	-1.8467719953	 1.3850129961	 0.11429
H	 2.4160701925	 1.9440318522	 1.3166143066	 0.110457
H	 4.013732561	 1.6159176097	 0.6482213775	 0.107322
H	 2.6974253905	 2.0700587566	-0.4268955107	 0.119329
H	 0.5491102008	-0.6308319323	 1.22605848	 0.065094
118.6541	151.5076	163.4277	235.811	242.5595	297.2374	341.6577	351.8338	380.9468	565.3193	587.7828	633.6059	665.3897	746.7868	786.1457	799.1531	853.9367	860.7781	897.2822	944.5046	955.6227	975.7807	1005.8777	1021.6972	1041.9223	1050.0383	1069.9441	1126.8203	1148.6229	1157.1995	1184.0701	1186.6547	1213.6355	1229.1765	1253.4571	1263.9974	1339.7618	1362.5617	1398.975	1418.8255	1445.8552	1474.2323	1482.2627	1490.6328	1498.982	1505.1812	1528.4735	3005.2334	3021.2936	3029.381	3057.5646	3078.7983	3082.6968	3093.2242	3100.3458	3105.4865	3140.0966	3173.3417	3184.1066	3225.6604
CN1C2C3C2C(C)(C)C13	CN1[C@@H]2[C@H]3[C@@H]2C(C)(C)[C@@H]13	
InChI=1S/C8H13N/c1-8(2)5-4-6(5)9(3)7(4)8/h4-7H,1-3H3	InChI=1S/C8H13N/c1-8(2)5-4-6(5)9(3)7(4)8/h4-7H,1-3H3/t4-,5+,6-,7+/m1/s1
