16
gdb 98039	5.65878	0.58221	0.53138	4.0345	83.44	-0.2538	-0.0187	0.235	2006.2953	0.121241	-400.710578	-400.700084	-400.69914	-400.749977	35.064	
C	-0.079311346	 1.4545940493	-0.0812053158	-0.339194
N	-0.0179684879	 0.0161295956	 0.0811622325	-0.310587
C	 0.7417419012	-0.581640616	 1.0461897973	 0.261902
O	 1.4284867594	 0.0247949419	 1.8488586834	-0.355791
C	 0.655123471	-2.0362743348	 1.0286749578	-0.03184
C	 0.6172817625	-3.2396828179	 1.0555247358	 0.166541
C	 0.5689105614	-4.701828032	 1.0852255681	-0.506181
C	 1.3975330888	-5.2973506191	 2.1340323359	 0.317952
C	 2.0731114689	-5.7979981615	 2.990044704	-0.429686
H	 0.5651734046	 1.895608867	 0.6797501857	 0.174989
H	 0.2765518938	 1.7589825659	-1.0718287317	 0.128479
H	-1.1006293066	 1.8274399238	 0.0548939902	 0.128479
H	-0.5500984785	-0.5776738044	-0.5332507784	 0.252581
H	-0.4736986703	-5.0247536072	 1.2132717131	 0.168116
H	 0.8795230522	-5.092017805	 0.1059491353	 0.168115
H	 2.6739555155	-6.2318126356	 3.7506677768	 0.206127
3.2715	58.0839	73.3001	93.2277	131.6833	186.2357	292.361	315.598	333.0804	368.0746	415.6898	480.7141	556.0494	622.7284	631.7741	659.1892	760.8763	825.9279	929.5338	936.5234	1005.6782	1135.454	1151.809	1172.4108	1230.9766	1256.618	1333.8232	1439.269	1446.0078	1489.9541	1498.8856	1556.4269	1759.7915	2250.9971	2356.6081	3008.4499	3027.536	3033.3115	3079.4701	3156.0202	3506.2723	3649.04	3.2714	58.0839	73.3003	93.2277	131.6831	186.2354	292.3612	315.599	333.0805	368.0757	415.6897	480.7142	556.0491	622.7287	631.7748	659.1897	760.8764	825.9279	929.5341	936.5234	1005.6782	1135.4541	1151.8089	1172.4107	1230.9774	1256.6179	1333.8234	1439.2689	1446.0086	1489.9539	1498.8854	1556.4267	1759.7917	2250.9972	2356.6084	3008.4499	3027.536	3033.3114	3079.4701	3156.0202	3506.2724	3649.0401
CNC(=O)C#CCC#C	CNC(=O)C#CCC#C	
InChI=1S/C7H7NO/c1-3-4-5-6-7(9)8-2/h1H,4H2,2H3,(H,8,9)	InChI=1S/C7H7NO/c1-3-4-5-6-7(9)8-2/h1H,4H2,2H3,(H,8,9)
