16
gdb 46756	2.88648	1.91702	1.43712	5.0928	66.81	-0.2555	0.0279	0.2834	904.9269	0.126905	-437.882457	-437.875791	-437.874847	-437.913746	26.004	
O	-0.0589430876	 0.0131206358	 0.3018028398	-0.365012
C	-0.0288654258	 1.1881426423	 0.0855149766	 0.45656
O	-1.1563709999	 1.9396084312	-0.1247935774	-0.246783
C	-0.8673845255	 3.3481475366	-0.0926053758	-0.112772
C	 0.6701827405	 3.4322096948	-0.0324479062	-0.00773
C	 1.4520101199	 3.7004185078	 1.2646901435	-0.090171
C	 1.0660499236	 2.7258453217	 2.35157794	-0.300248
C	 1.9155178229	 2.2475675642	 1.213306367	-0.011583
N	 1.1007704097	 2.0164113449	-0.0019396918	-0.164509
H	-1.2782003275	 3.8012922126	-0.9979884799	 0.127531
H	-1.3572632229	 3.7908115065	 0.7810357597	 0.123759
H	 1.0915161449	 3.9689287934	-0.8866550106	 0.102257
H	 2.0385364148	 4.5882566894	 1.4566226445	 0.106482
H	 1.5977359327	 2.8690539545	 3.2866722174	 0.127467
H	 0.0453404182	 2.3722899198	 2.4705315761	 0.137116
H	 2.8987389422	 1.8081780445	 1.3097876471	 0.117637
116.8194	133.8772	222.3181	349.1895	508.4947	515.9763	642.2567	690.9996	710.2239	766.103	796.4176	819.5774	836.1168	920.7951	945.5251	984.2216	1013.5901	1045.8086	1053.9107	1059.6841	1086.0641	1100.8068	1109.2563	1126.3929	1192.6057	1215.5711	1222.0571	1257.6623	1287.3991	1339.0917	1370.9906	1397.1765	1486.7621	1522.615	1888.2908	3048.1984	3064.9625	3103.3551	3121.3321	3206.2498	3206.7513	3219.2263
O=C1OCC2C3CC3N12	O=C1OC[C@H]2[C@H]3C[C@H]3N12	
InChI=1S/C6H7NO2/c8-6-7-4-1-3(4)5(7)2-9-6/h3-5H,1-2H2	InChI=1S/C6H7NO2/c8-6-7-4-1-3(4)5(7)2-9-6/h3-5H,1-2H2/t3-,4+,5-/m0/s1
