15
gdb 13849	4.70495	1.60161	1.22035	1.9387	64.28	-0.2353	-0.0045	0.2308	939.5201	0.1214	-396.033202	-396.025776	-396.024831	-396.065426	26.707	
N	-0.0362223779	 1.3752768339	-0.0187645358	-0.563827
C	 0.0473757144	-0.0091043489	-0.0057578385	 0.447442
O	 1.0978884689	-0.6134137917	 0.0745435243	-0.382089
N	-1.1703010112	-0.6704457078	-0.0532003767	-0.135002
C	-1.2518231126	-2.1389363949	-0.056137153	-0.179006
C	-2.7907431826	-2.352980577	-0.0188738002	-0.177191
N	-3.3991840975	-1.0285876417	 0.2241413127	-0.260776
C	-2.4534413784	-0.1801532303	 0.1798348137	 0.080441
H	 0.8691271259	 1.8043635964	-0.1404829426	 0.266546
H	-0.7679292246	 1.8032201725	-0.5654660128	 0.256813
H	-0.7705127371	-2.5481712311	-0.9465758827	 0.131336
H	-0.7368212195	-2.5430300959	 0.8201655762	 0.134509
H	-3.1742824438	-2.7504988319	-0.9652948966	 0.121339
H	-3.0958574659	-3.0481287907	 0.7680959416	 0.124147
H	-2.596607728	 0.8842256592	 0.3303874305	 0.135319
86.0076	92.9669	152.6008	217.2128	401.632	422.5619	501.0787	537.4126	567.5887	659.3408	772.0406	775.086	834.3437	915.896	942.9805	954.2957	974.5856	1086.7464	1112.8915	1173.6358	1214.1919	1233.3498	1259.3715	1321.3837	1335.5202	1392.3592	1435.0515	1496.8854	1526.6439	1626.0868	1697.1862	1798.8279	3043.5729	3061.9491	3084.7335	3112.211	3203.5826	3576.6884	3688.0071
NC(=O)N1CCN=C1	NC(=O)N1CCN=C1	
InChI=1S/C4H7N3O/c5-4(8)7-2-1-6-3-7/h3H,1-2H2,(H2,5,8)	InChI=1S/C4H7N3O/c5-4(8)7-2-1-6-3-7/h3H,1-2H2,(H2,5,8)
