23
gdb 119355	4.91605	0.84018	0.82478	1.0509	87.95	-0.2436	0.0933	0.3369	1547.0241	0.204651	-388.251295	-388.241741	-388.240796	-388.285966	36.355	
C	-0.1418750486	 1.4825109845	 0.0121233864	-0.38581
C	-0.0161494916	-0.0310432106	 0.0027932918	-0.063642
O	-1.3240870013	-0.585584722	 0.0105800554	-0.297576
C	-1.3662296508	-1.9605866353	 0.0042486349	 0.452215
C	-0.82132766	-2.9591168029	 1.0766015625	-0.322073
C	-1.5438106161	-3.8238046918	-0.0033646272	 0.327911
C	-1.6969595788	-5.3200193892	-0.0093959886	-0.504632
C	-2.6864388484	-2.7570719093	 0.0108668557	-0.312943
C	-0.8384955028	-2.9486418306	-1.0862370197	-0.322076
H	 0.8486724217	 1.9473831639	 0.0062959838	 0.113226
H	-0.6930847041	 1.8270189532	-0.8674234999	 0.12687
H	-0.6781444363	 1.8173597708	 0.9045405758	 0.126862
H	 0.531151333	-0.3699488456	-0.890191233	 0.093417
H	 0.5458347191	-0.3796652997	 0.8828152762	 0.093417
H	 0.2635927446	-3.0800770982	 1.1471776685	 0.084282
H	-1.2898473087	-2.9195055076	 2.0642526178	 0.087471
H	-2.2370455209	-5.6646667677	 0.8791550664	 0.118703
H	-2.2538102391	-5.6558078175	-0.890963626	 0.118705
H	-0.7203411903	-5.8163319074	-0.021130385	 0.117606
H	-3.2889422364	-2.6969439171	 0.9216758978	 0.088159
H	-3.3032975477	-2.6882055947	-0.8896573404	 0.088157
H	-1.3226036195	-2.899478036	-2.0659077745	 0.087472
H	 0.2451607528	-3.0688405893	-1.1751640987	 0.084278
58.7415	70.3184	125.9218	210.7942	236.8015	264.5553	273.8549	337.5027	417.0144	429.8982	552.643	553.982	619.2212	678.6701	755.843	783.9028	819.8775	908.2428	938.296	954.1015	961.3543	979.4042	983.4969	1061.9627	1080.1525	1086.6834	1125.9996	1130.7544	1133.1331	1142.254	1157.7427	1185.2555	1187.3665	1209.9906	1223.0109	1295.5838	1302.888	1350.8942	1401.0022	1413.2209	1430.0992	1483.8916	1490.5526	1490.9009	1493.4276	1495.5627	1500.3057	1526.9104	1563.9332	2978.6552	3008.7444	3026.2069	3040.3394	3042.1463	3044.6387	3053.1025	3092.9055	3093.8882	3105.979	3111.791	3114.3581	3118.75	3122.1996
CCOC12CC(C)(C1)C2	CCO[C@@]12C[C@@](C)(C1)C2	
InChI=1S/C8H14O/c1-3-9-8-4-7(2,5-8)6-8/h3-6H2,1-2H3	InChI=1S/C8H14O/c1-3-9-8-4-7(2,5-8)6-8/h3-6H2,1-2H3/t7-,8-
