23
gdb 102692	1.80707	0.99263	0.68097	2.9991	83.19	-0.2545	-0.0267	0.2279	1704.5313	0.201186	-425.434176	-425.422496	-425.421552	-425.473989	39.702	
C	-0.5397345972	 1.7561445689	-0.5759206459	-0.39308
C	-0.2430282934	 0.2607887941	-0.4453640672	-0.16782
C	-1.4934353532	-0.6072080003	-0.2714159334	 0.13154
C	-1.1528756683	-2.0984205242	-0.1853152951	-0.16787
C	-2.3769342763	-3.0067653015	-0.0521426316	-0.393013
O	-2.1702961771	-0.213960966	 0.932794295	-0.271025
C	-3.4769419661	 0.2767069925	 0.7790229948	-0.150742
C	-4.0119129251	 0.6304920014	 2.1570866081	 0.136021
O	-5.1101603541	 1.0797614418	 2.3505273655	-0.23847
H	 0.383589158	 2.3313583656	-0.6921774981	 0.115304
H	-1.1711308893	 1.964888583	-1.4472153717	 0.110762
H	-1.0548129309	 2.128836795	 0.3139234311	 0.125741
H	 0.2998599225	-0.0924563296	-1.3306781751	 0.095321
H	 0.414588194	 0.0874726711	 0.4155553801	 0.104881
H	-2.1660003889	-0.4422439372	-1.127528881	 0.069178
H	-0.5784290682	-2.3717956192	-1.0789345729	 0.095316
H	-0.4863574926	-2.2467101905	 0.6734309337	 0.104896
H	-3.047940573	-2.9037244909	-0.9126804054	 0.11073
H	-2.0811797205	-4.058133461	 0.011596662	 0.115292
H	-2.9435642724	-2.7644423036	 0.8513095365	 0.125685
H	-3.5180624815	 1.1805757613	 0.1498640875	 0.123044
H	-4.1555899421	-0.463259272	 0.3245946496	 0.123022
H	-3.2890906843	 0.4344666313	 2.9796299036	 0.095286
15.3854	36.2321	68.6592	89.5747	118.9541	147.779	174.153	238.867	246.8759	283.9429	352.4439	409.3566	433.3828	492.6366	565.956	737.0295	766.517	780.9015	874.5518	936.1745	946.4582	1015.2072	1039.3998	1046.1514	1060.5902	1114.3742	1126.3236	1142.0722	1151.2257	1196.5278	1236.0958	1278.8808	1302.9414	1311.6688	1346.5923	1374.345	1393.5922	1395.6642	1404.1034	1407.4449	1423.8996	1470.2514	1482.2112	1483.1616	1498.0818	1498.4957	1509.9112	1512.2115	1843.0003	2897.5372	2968.1391	2985.0642	3001.1288	3022.2022	3030.2316	3033.1216	3034.1575	3058.4026	3068.9318	3099.5648	3100.4113	3115.1313	3116.0811
CCC(CC)OCC=O	CCC(CC)OCC=O	
InChI=1S/C7H14O2/c1-3-7(4-2)9-6-5-8/h5,7H,3-4,6H2,1-2H3	InChI=1S/C7H14O2/c1-3-7(4-2)9-6-5-8/h5,7H,3-4,6H2,1-2H3
