19
gdb 121077	3.2401	0.8928	0.78446	3.7904	72.07	-0.2456	0.0599	0.3055	1467.437	0.161043	-456.388108	-456.379018	-456.378074	-456.422611	33.249	
O	-0.1510977953	 1.4627119347	-0.1057634409	-0.416531
C	 0.0023949841	 0.0541732133	-0.0563743122	-0.082695
C	-1.3926536959	-0.5587341935	-0.0305569087	-0.172886
C	-1.394246869	-2.0875649897	 0.1157522661	 0.010366
C	-2.827033978	-2.6834788023	 0.0929164628	-0.181714
N	-2.9924430694	-3.001686384	-1.3163698121	-0.337484
C	-1.7615727101	-3.2168255632	-1.9248531124	 0.428054
O	-1.5649209589	-3.6723810403	-3.0285479924	-0.409719
N	-0.7997754147	-2.8028085266	-1.0103999377	-0.340701
H	 0.7217898947	 1.8605276401	-0.1732350826	 0.288365
H	 0.5637122847	-0.3108091081	-0.9319717113	 0.083163
H	 0.5616456586	-0.256486595	 0.8427194699	 0.085427
H	-1.9351843914	-0.1230368558	 0.8172094541	 0.109604
H	-1.9303175107	-0.273071852	-0.9415338323	 0.124321
H	-0.8863429952	-2.3612119876	 1.0479389341	 0.08654
H	-2.8845244249	-3.5755045234	 0.7325857606	 0.107017
H	-3.5711390259	-1.960440393	 0.4391313058	 0.115964
H	-3.7609336382	-3.5695223246	-1.6351424717	 0.252806
H	 0.1011898955	-2.5489345991	-1.3819069391	 0.250103
65.9408	93.88	139.4943	152.7306	215.9808	267.6706	335.3124	370.335	472.1587	503.408	519.3136	524.8858	703.8047	754.1893	768.2333	820.7386	878.8203	963.2908	983.0075	996.2928	1041.8928	1079.0202	1088.5905	1130.9851	1145.5082	1220.6264	1227.7859	1239.5203	1267.7533	1284.6649	1317.18	1330.9338	1367.7068	1400.644	1421.876	1441.6829	1466.8234	1487.0229	1526.9004	1527.7381	1851.7933	2952.5802	2980.1144	2997.9469	3033.5792	3035.9671	3077.3813	3088.0976	3647.7728	3649.9633	3830.1219
OCCC1CNC(=O)N1	OCC[C@H]1CNC(=O)N1	
InChI=1S/C5H10N2O2/c8-2-1-4-3-6-5(9)7-4/h4,8H,1-3H2,(H2,6,7,9)	InChI=1S/C5H10N2O2/c8-2-1-4-3-6-5(9)7-4/h4,8H,1-3H2,(H2,6,7,9)/t4-/m0/s1
