21
gdb 110533	3.57524	1.18554	1.11733	1.301	83.14	-0.2348	0.0892	0.324	1214.4591	0.182379	-387.03787	-387.02921	-387.028266	-387.071115	33.131	
C	-0.2673920715	 1.2575022618	-0.0333643102	-0.241473
O	 0.1843767978	-0.0680181386	 0.1287987626	-0.252382
C	 0.7230902155	-0.6179595317	-1.0463566431	 0.187856
C	 1.2569741328	-2.0288202004	-0.9512909968	-0.176746
C	 0.0856173741	-2.9872424203	-1.2215371416	-0.11195
C	-1.1643786695	-2.1353385828	-1.4283068145	-0.2269
C	-0.2301876489	-1.1411589443	-2.166204972	-0.175764
C	 0.8082222718	-2.326241756	-2.3712612739	 0.353331
C	 1.540151694	-2.8439507084	-3.5646461996	-0.528911
H	 0.5438621718	 1.9251255535	-0.3652890758	 0.101734
H	-1.0893056022	 1.3297772555	-0.7616021596	 0.105864
H	-0.6299297588	 1.6014379907	 0.9383757279	 0.125134
H	 1.4785825487	 0.0596601077	-1.4746023111	 0.058589
H	 2.1595229286	-2.3658569082	-0.4573819342	 0.081873
H	 0.1512676738	-4.022589474	-0.9101042853	 0.080323
H	-1.8647343933	-2.6148219634	-2.1177058244	 0.091682
H	-1.69408808	-1.758828726	-0.5479132823	 0.100039
H	-0.6058940714	-0.4756638718	-2.9412612261	 0.063903
H	 2.1808517679	-2.0754771664	-4.0130858966	 0.11999
H	 2.1819600005	-3.6874013489	-3.2870356647	 0.122977
H	 0.8508844983	-3.1948391479	-4.3416859589	 0.120832
82.2854	133.0419	166.9855	206.8493	221.0831	288.0861	297.6046	376.2072	523.07	534.6376	636.2925	726.5362	743.0071	801.3238	855.7551	905.569	913.9018	952.0737	974.0459	999.338	1020.4916	1022.1613	1035.755	1063.1099	1098.4006	1128.1038	1138.5234	1159.6784	1166.884	1183.3166	1210.833	1226.5746	1231.8101	1252.7506	1298.474	1332.7154	1392.4875	1412.4037	1459.0645	1480.1165	1484.1371	1487.3068	1491.929	1498.8361	1508.7789	2969.2725	2981.3098	3018.1246	3018.6239	3048.457	3075.6322	3088.9022	3104.2446	3112.511	3130.2243	3186.8152	3198.602
COC1C2C3CC1C23C	CO[C@H]1[C@H]2[C@H]3C[C@@H]1[C@@]23C	
InChI=1S/C8H12O/c1-8-4-3-5(8)7(9-2)6(4)8/h4-7H,3H2,1-2H3	InChI=1S/C8H12O/c1-8-4-3-5(8)7(9-2)6(4)8/h4-7H,3H2,1-2H3/t4-,5+,6-,7-,8+/m1/s1
