17
gdb 56961	2.18667	1.36243	1.15997	6.0604	73.7	-0.2584	-0.0071	0.2513	1147.871	0.134677	-418.01133	-418.002106	-418.001161	-418.045871	32.411	
C	-0.2446385774	 1.5079461425	-0.335012945	-0.394528
C	-0.0684528287	-0.0077098472	-0.1013261758	-0.161165
C	-1.3693229972	-0.6691004837	 0.0361981491	 0.275033
N	-2.3988325476	-1.1800712515	 0.156130726	-0.317525
C	 0.820027898	-0.6542549644	-1.1658017235	-0.014294
C	 0.7147449646	-2.1067686614	-1.549334485	-0.261878
N	 0.3501573372	-1.0591030367	-2.4680774326	-0.055686
C	-0.8639851407	-0.8949213284	-3.1122121534	 0.144883
O	-1.5028390601	-1.7930569524	-3.5969454126	-0.280745
H	 0.7363440884	 1.9858125396	-0.4053189895	 0.132872
H	-0.7913552794	 1.7011229122	-1.2611683738	 0.146716
H	-0.7954549388	 1.9643911836	 0.4903573208	 0.146439
H	 0.4553422492	-0.1465973862	 0.8543450112	 0.144006
H	 1.8119902718	-0.2025918745	-1.1749944467	 0.113642
H	 1.617213427	-2.6654122045	-1.7819361337	 0.134115
H	-0.1002746494	-2.6868772007	-1.1233573404	 0.161808
H	-1.1360876071	 0.1730287638	-3.2132971753	 0.086307
57.2411	92.7084	141.4097	189.4397	212.0567	222.5726	250.2765	308.1945	388.1791	442.6484	563.631	586.3257	681.2294	738.116	832.6051	894.4107	969.7788	1012.794	1025.0173	1031.1896	1080.6437	1098.4748	1129.843	1148.5155	1167.851	1172.8147	1306.2804	1328.515	1387.7968	1413.1971	1416.8038	1436.16	1492.4182	1499.8732	1513.5696	1807.0048	2359.5153	2951.8207	3024.0175	3052.6622	3107.9562	3111.5422	3129.8898	3137.2321	3202.2005
CC(C#N)C1CN1C=O	C[C@@H](C#N)[C@H]1CN1C=O	
InChI=1S/C6H8N2O/c1-5(2-7)6-3-8(6)4-9/h4-6H,3H2,1H3	InChI=1S/C6H8N2O/c1-5(2-7)6-3-8(6)4-9/h4-6H,3H2,1H3/t5-,6+,8?/m0/s1
