15
gdb 48593	3.20904	1.58586	1.34774	3.1363	64.37	-0.2569	-0.0446	0.2123	942.1818	0.111705	-457.696833	-457.689869	-457.688925	-457.728846	26.696	
O	-0.8443244242	 1.1118207003	 0.026906956	-0.255954
C	 0.3099470431	 0.7852544808	-0.0881181328	 0.039525
C	 1.4390973427	 1.7658220406	-0.0244338143	 0.296313
C	 1.9905894775	 2.3701885394	 1.3116787243	-0.265076
C	 3.2236160531	 2.4480706641	 0.3681508148	 0.008091
O	 2.7611408102	 1.2283386362	-0.2717504679	-0.292873
C	 2.7604323017	 3.5458317556	-0.6361528469	 0.024171
O	 2.4320258625	 3.0263713082	-1.9265035911	-0.21792
C	 1.4185765492	 3.0454515626	-0.9273882637	-0.023135
H	 0.6238822126	-0.2701097744	-0.2390398174	 0.104178
H	 1.5421063812	 3.2943952012	 1.6843764207	 0.116599
H	 2.1007283048	 1.6219238293	 2.0980050846	 0.124346
H	 4.2572738185	 2.4169062473	 0.7074872264	 0.099085
H	 3.0600737119	 4.5852366557	-0.5688967196	 0.114635
H	 0.5158875353	 3.6156959132	-1.1086435731	 0.128016
49.8325	178.5492	202.0622	375.1405	401.4221	477.3751	512.3884	658.143	688.5842	747.1466	794.281	831.2052	870.214	880.4408	891.7591	910.0401	974.8956	997.7299	1019.9113	1051.0237	1056.1542	1080.8943	1139.256	1205.4039	1216.9724	1230.9698	1261.9555	1279.2558	1297.3966	1385.2199	1405.8908	1482.9899	1822.6642	2907.2463	3069.8733	3142.2663	3147.3859	3185.9633	3202.9652
O=CC12CC(O1)C1OC21	O=C[C@@]12C[C@@H](O1)[C@H]1O[C@@H]21	
InChI=1S/C6H6O3/c7-2-6-1-3(9-6)4-5(6)8-4/h2-5H,1H2	InChI=1S/C6H6O3/c7-2-6-1-3(9-6)4-5(6)8-4/h2-5H,1H2/t3-,4-,5-,6-/m1/s1
