22
gdb 58496	2.01407	1.38545	1.11328	3.8625	83.69	-0.2454	0.0088	0.2542	1249.1055	0.191836	-404.353301	-404.342989	-404.342045	-404.388267	38.092	
C	-0.1935624711	 1.4556434204	 0.6921310642	-0.397041
C	-0.1325978712	 0.0222646552	 0.1311469237	-0.01968
C	 0.8228879022	-0.8388083668	 0.9703483773	-0.426225
C	-1.5362045952	-0.5710532792	-0.0781254003	 0.288887
C	-2.3305788106	 0.0650827557	-1.2069832151	-0.450016
C	-1.8139416935	-2.0287722974	 0.2150688719	-0.289263
N	-2.3538145971	-0.9927839324	 1.0579406255	-0.07889
C	-2.1860962531	-0.8842350268	 2.4191748716	 0.136321
O	-2.1177074658	-1.8174905704	 3.185762442	-0.306814
H	 0.8019958781	 1.9096825858	 0.6759093392	 0.119022
H	-0.8601426821	 2.1014669697	 0.1147140981	 0.118853
H	-0.5382713819	 1.4598247805	 1.7313692538	 0.122174
H	 0.2942092224	 0.0888369924	-0.8793897757	 0.083728
H	 1.7761612946	-0.3153059457	 1.0923832708	 0.116392
H	 0.4311834543	-1.0388720752	 1.9727023913	 0.145067
H	 1.035416502	-1.7980650716	 0.4914005892	 0.120461
H	-1.8022788607	-0.0546296921	-2.158744566	 0.122188
H	-3.3134227296	-0.4037433537	-1.2933384552	 0.129355
H	-2.4857281059	 1.1349566361	-1.0401856419	 0.127843
H	-2.5306773447	-2.5626265794	-0.4048122212	 0.118694
H	-1.031829396	-2.6463845592	 0.6439695766	 0.135382
H	-2.207953255	 0.169563764	 2.7551494301	 0.083562
67.7614	95.4941	154.2985	203.4672	217.3447	236.3947	242.7594	289.0549	311.3368	328.3858	381.7386	413.5505	458.8217	539.9483	589.1402	707.3038	821.7405	884.9361	922.0613	941.3755	957.9638	969.7162	995.2348	1037.8344	1062.8476	1109.2804	1129.0201	1137.2548	1147.4908	1181.1757	1221.0144	1270.8686	1340.9067	1372.2554	1400.7169	1411.8139	1415.3368	1419.0431	1435.1614	1481.8484	1489.3211	1495.9038	1501.2603	1507.6608	1511.3101	1522.1477	1783.3774	2953.849	3007.0984	3039.3373	3041.9622	3044.4606	3104.3561	3107.2406	3109.0381	3111.745	3118.0896	3119.3552	3126.9666	3208.0258
CC(C)C1(C)CN1C=O	CC(C)[C@@]1(C)CN1C=O	
InChI=1S/C7H13NO/c1-6(2)7(3)4-8(7)5-9/h5-6H,4H2,1-3H3	InChI=1S/C7H13NO/c1-6(2)7(3)4-8(7)5-9/h5-6H,4H2,1-3H3/t7-,8?/m1/s1
