19
gdb 100207	2.35003	1.19545	1.02644	1.4801	83.34	-0.2543	0.0405	0.2948	1259.5024	0.154462	-385.817977	-385.807199	-385.806254	-385.853317	39.457	
C	 0.0621854478	 1.5374458705	 0.026104624	-0.424117
C	 0.0448912241	-0.0056602397	 0.019921487	 0.009976
C	 0.8232685829	-0.5200330675	 1.247556712	-0.082438
O	 0.7772752333	-1.9353863915	 1.2544748837	-0.419972
C	-1.4237543997	-0.5466124532	 0.0602055126	-0.361992
C	-2.1842971127	-0.1017751187	 1.2209766358	 0.315462
C	-2.8069317562	 0.2679797661	 2.1813063968	-0.466477
C	 0.6720277457	-0.4955191199	-1.210997526	 0.366426
C	 1.1708055674	-0.870057678	-2.2383479367	-0.485222
H	 1.0896423521	 1.9110466312	 0.0059137794	 0.123334
H	-0.4553356793	 1.9274574088	-0.8542019525	 0.127166
H	-0.4381134098	 1.9198133335	 0.9199131395	 0.130746
H	 1.8581427197	-0.1513252178	 1.189237861	 0.093393
H	 0.3556353012	-0.0986056121	 2.1488428621	 0.102114
H	 1.1536250411	-2.2465227856	 2.0822134814	 0.291581
H	-1.9325167016	-0.2331007961	-0.858118582	 0.133921
H	-1.3784380901	-1.6391704147	 0.0478613821	 0.159097
H	-3.3697228401	 0.5862182382	 3.0235708897	 0.194209
H	 1.620199734	-1.2123725236	-3.1374666398	 0.192791
67.8436	119.4681	121.765	173.0996	190.132	203.2102	225.5185	259.3197	327.5444	354.7078	362.7644	433.035	489.57	550.7465	592.9851	611.1968	626.105	643.2447	644.8018	743.4494	875.8484	885.3169	950.7055	975.0314	1039.8528	1083.511	1119.9275	1161.3042	1191.501	1267.3486	1280.1085	1291.4541	1345.8517	1405.2277	1451.6678	1463.66	1492.5755	1496.5303	1514.8843	2231.3215	2235.6064	2985.5874	3027.5401	3045.5734	3047.8634	3097.4635	3121.305	3126.2496	3502.4165	3505.3215	3841.8062
CC(CO)(CC#C)C#C	C[C@@](CO)(CC#C)C#C	
InChI=1S/C8H10O/c1-4-6-8(3,5-2)7-9/h1-2,9H,6-7H2,3H3	InChI=1S/C8H10O/c1-4-6-8(3,5-2)7-9/h1-2,9H,6-7H2,3H3/t8-/m0/s1
