21
gdb 38322	3.6747	1.4299	1.4299	0.	87.03	-0.2812	0.1069	0.3881	1031.1231	0.185503	-349.848858	-349.842209	-349.841265	-349.879495	28.969	
C	-0.0643717634	 1.5976699633	 0.0444489376	-0.224651
C	 1.459217618	 1.267223035	 0.057483387	-0.16173
C	 1.1342442891	 0.1937934591	 1.1404628017	-0.224652
C	 0.0154431691	 0.0407880318	 0.0654887046	-0.161729
C	 1.1399286945	 0.1731694453	-0.9946977163	 0.568659
C	 1.0136766136	 0.311743216	-2.534454989	-0.161728
C	 2.5629916504	 0.1455405655	-2.5863938696	-0.224652
C	 2.0713607513	-0.9270650373	-1.5673200489	-0.161731
C	 0.9268312652	-1.2443133029	-2.5773218158	-0.224651
H	-0.460466051	 2.0697874297	 0.94786334	 0.086319
H	-0.4649145732	 2.0634237057	-0.8589501587	 0.090941
H	 2.2863059606	 1.978834362	 0.0645435484	 0.066955
H	 1.8384124318	-0.6345912684	 1.2473138924	 0.090942
H	 0.8148927337	 0.5761594817	 2.1139889768	 0.08632
H	-0.8205241271	-0.6602187398	 0.0817273338	 0.066955
H	 0.4089988151	 1.0199267063	-3.1030990796	 0.066955
H	 2.9730236602	-0.2372171227	-3.5251765745	 0.086319
H	 3.1652936566	 0.9673558948	-2.192258133	 0.090942
H	 2.6849187618	-1.6458547181	-1.0219724913	 0.066955
H	 0.0209042585	-1.7034979538	-2.1749080748	 0.090941
H	 1.232244644	-1.716039052	-3.5154797681	 0.086319
203.0785	219.6199	219.62	407.5408	531.6521	531.6523	551.847	610.1181	792.5649	808.9709	808.971	812.7866	896.7974	896.7976	897.7167	900.1419	939.9136	939.9138	1010.5817	1011.8551	1019.2828	1026.3309	1026.331	1078.7517	1086.7928	1088.0054	1088.0054	1097.9523	1111.712	1124.3311	1181.7319	1181.732	1186.3252	1193.2649	1195.3531	1242.198	1242.1981	1250.617	1250.6172	1251.2202	1367.4121	1496.7014	1496.7014	1532.4915	1536.1672	3051.2546	3051.2546	3052.6788	3053.4488	3096.5539	3096.554	3101.0806	3104.5407	3117.4033	3117.4033	3119.8784	3119.9498
C1C2CC1C21C2CC1C2	C1[C@H]2C[C@@H]1[C@]12[C@H]2C[C@@H]1C2	
InChI=1S/C9H12/c1-5-2-6(1)9(5)7-3-8(9)4-7/h5-8H,1-4H2	InChI=1S/C9H12/c1-5-2-6(1)9(5)7-3-8(9)4-7/h5-8H,1-4H2/t5-,6+,7-,8+,9-
