21
gdb 95227	3.11406	1.31331	1.03513	2.1009	83.	-0.2497	0.0055	0.2552	1208.4487	0.183938	-387.082596	-387.074377	-387.073433	-387.114976	32.822	
C	 0.1446505174	 1.6715662533	-0.0160581045	-0.411085
C	-0.0312084374	 0.1497520734	 0.0495937587	-0.012767
C	 0.3882237245	-0.5093713806	-1.2932613482	-0.19857
C	 0.583450035	-2.0378235991	-1.2330024943	-0.241574
C	-0.4654285831	-2.7663840691	-0.4137913121	 0.05557
O	 0.0201337072	-3.7998229181	 0.4531513209	-0.263629
C	-0.4993888107	-2.5992424243	 1.0489717388	 0.011005
C	 0.4670348339	-1.6760335289	 1.7095928678	-0.118713
C	 0.6839658542	-0.442440738	 1.2512321467	-0.031643
H	 1.2024716915	 1.9374896021	-0.1273401816	 0.116025
H	-0.3960280318	 2.0949597629	-0.8686299704	 0.112377
H	-0.2280463824	 2.1549805673	 0.8927563951	 0.115205
H	-1.1015588207	-0.0541267145	 0.1781851356	 0.088617
H	-0.3706194143	-0.2492973253	-2.0414650167	 0.098016
H	 1.3250464799	-0.0592248819	-1.6445702152	 0.099125
H	 0.6136399537	-2.4454455132	-2.2497233134	 0.09763
H	 1.5490133409	-2.2646788769	-0.7747385771	 0.121592
H	-1.3992573262	-3.0174464871	-0.9190181059	 0.085421
H	-1.4453523071	-2.7613640464	 1.5707947737	 0.093256
H	 0.9908259878	-2.0469688335	 2.5873833749	 0.096955
H	 1.4063996979	 0.1948502182	 1.758636707	 0.087187
106.5912	192.1269	234.5423	249.5759	301.2271	310.7883	347.6949	394.3326	453.2147	565.9946	580.1874	695.9761	740.3346	807.1179	829.738	839.1783	870.9179	904.0024	974.2566	988.8088	996.9088	1012.6051	1040.7387	1075.6468	1104.7895	1119.5038	1142.1881	1166.5091	1216.0147	1238.5881	1258.8746	1289.35	1327.2494	1331.9656	1353.1133	1362.1937	1390.7564	1408.3261	1421.7985	1467.2379	1485.887	1494.5529	1499.3264	1500.3688	1705.3343	3016.1249	3020.5407	3027.4368	3048.0114	3058.3331	3074.4066	3093.6861	3094.4058	3102.9145	3110.0733	3134.6635	3162.5099
CC1CCC2OC2C=C1	C[C@H]1CC[C@H]2O[C@H]2C=C1	
InChI=1S/C8H12O/c1-6-2-4-7-8(9-7)5-3-6/h2,4,6-8H,3,5H2,1H3	InChI=1S/C8H12O/c1-6-2-4-7-8(9-7)5-3-6/h2,4,6-8H,3,5H2,1H3/t6-,7+,8-/m1/s1
