15
gdb 30627	4.62029	1.03518	0.85022	1.4754	69.36	-0.2409	-0.0263	0.2146	1289.3419	0.112924	-457.823417	-457.815314	-457.814369	-457.856907	28.588	
C	-0.0446975007	 1.3327131977	 0.0578746405	-0.242118
O	 0.0218835941	-0.0942149063	-0.033340432	-0.241377
C	 0.6491014452	-0.570015301	-1.1334265837	 0.370807
O	 1.1258778476	 0.136320979	-1.9897384332	-0.381664
C	 0.6734463729	-2.0372734679	-1.1493354772	 0.117811
C	 0.1599843825	-2.9022827713	-0.2260769504	-0.066558
O	 0.3848342393	-4.178044394	-0.5999996788	-0.143527
C	 1.0577473288	-4.1363018978	-1.7901728573	 0.010788
C	 1.2620269917	-2.8546364503	-2.1744935656	-0.281644
H	 0.9584228871	 1.7665531203	 0.076845091	 0.141354
H	-0.589475522	 1.7498989486	-0.7930517545	 0.14123
H	-0.570271699	 1.546430069	 0.988761013	 0.1314
H	-0.3664739236	-2.7565588972	 0.7016544729	 0.160068
H	 1.3078379939	-5.0938617114	-2.2146629128	 0.146031
H	 1.7603905922	-2.5003171675	-3.0617101619	 0.137399
77.8252	107.6963	131.3618	144.8184	239.3934	314.351	393.0626	498.8986	615.5861	624.2942	752.4008	777.8028	802.7238	828.203	871.6947	892.1116	954.4976	1010.0991	1043.0643	1107.2376	1172.1501	1179.4642	1201.0499	1215.8651	1254.8852	1339.5629	1415.9155	1474.8285	1481.3032	1498.4678	1543.1006	1609.6888	1804.1167	3050.283	3123.8723	3156.8053	3272.6043	3290.5543	3296.3596
COC(=O)C1=COC=C1	COC(=O)c1cocc1	
InChI=1S/C6H6O3/c1-8-6(7)5-2-3-9-4-5/h2-4H,1H3	InChI=1S/C6H6O3/c1-8-6(7)5-2-3-9-4-5/h2-4H,1H3
