18
gdb 127591	4.8436	0.78505	0.71809	1.7984	75.75	-0.2466	-0.0019	0.2447	1572.5538	0.148558	-435.271122	-435.261852	-435.260907	-435.306941	31.925	
C	-0.1481172038	 1.4443597758	-0.0847457899	-0.310584
N	-0.0294284837	 0.0031859833	-0.0063452869	 0.159139
N	 0.0501466498	-0.757855688	-1.0906322091	-0.2257
C	 0.0702871906	-1.9976933963	-0.5976723086	-0.138036
C	-0.0076701717	-1.9373349247	 0.8040043261	 0.296564
C	 0.0254411926	-3.0316132705	 1.82219459	-0.323966
C	 1.4475710075	-3.3067658207	 2.3444351207	-0.054828
O	 1.4870061215	-4.3762412596	 3.2716767628	-0.414261
N	-0.0723043816	-0.6455967377	 1.1517918802	-0.304734
H	 0.4491054463	 1.8943024209	 0.7093500439	 0.156054
H	 0.2196336364	 1.756718159	-1.0612355825	 0.162069
H	-1.1915828616	 1.7533446093	 0.0305014866	 0.149494
H	 0.1389203912	-2.853537294	-1.2506392162	 0.122099
H	-0.61695088	-2.7563938671	 2.6669785321	 0.109091
H	-0.3739208958	-3.9572072547	 1.3955680119	 0.116592
H	 2.094830293	-3.6056111055	 1.5133355336	 0.115619
H	 1.8656890526	-2.3811801046	 2.7674510199	 0.102465
H	 1.0043207967	-4.1028767847	 4.0583226453	 0.282924
38.3471	56.3105	95.9858	102.8629	200.9731	277.1688	304.2659	358.1994	383.2076	430.4565	674.5055	684.7843	734.7557	780.3992	806.8325	873.8405	1011.0625	1017.9953	1033.7792	1045.5269	1076.3302	1093.7578	1143.6923	1152.3187	1209.8446	1294.3418	1313.4447	1346.8997	1355.2021	1395.4689	1415.3704	1425.8912	1445.3021	1447.8579	1481.2947	1483.0182	1506.7502	1511.508	1551.7257	2997.5758	3037.6486	3054.6504	3072.8857	3096.22	3131.8095	3176.3856	3265.3119	3815.5176
CN1N=CC(CCO)=N1	Cn1ncc(CCO)n1	
InChI=1S/C5H9N3O/c1-8-6-4-5(7-8)2-3-9/h4,9H,2-3H2,1H3	InChI=1S/C5H9N3O/c1-8-6-4-5(7-8)2-3-9/h4,9H,2-3H2,1H3
