16
gdb 24143	5.56256	0.99186	0.89412	0.3358	70.84	-0.2212	0.0238	0.245	1284.1443	0.125099	-437.892133	-437.884572	-437.883628	-437.925274	28.037	
C	-0.3393546759	 1.1669203482	-0.069656484	-0.277299
C	 1.1317861768	 1.0368980262	 0.2802841298	-0.296976
C	 0.3184754853	-0.1765559811	-0.0163732168	 0.153635
O	 0.0533865242	-1.0058782162	 1.1029857876	-0.258148
C	-0.9420176515	-1.8679261595	 0.9418609036	 0.499762
N	-1.6824707875	-2.0982886823	-0.0945299444	-0.378801
C	-2.5272350439	-3.1213639334	 0.3420999865	-0.112028
C	-2.2357473072	-3.4375622917	 1.6198571004	-0.04623
O	-1.196167539	-2.6219879816	 2.0260962275	-0.188912
H	-1.0181732235	 1.4137365917	 0.7382977076	 0.129346
H	-0.6228917192	 1.556648256	-1.0404295462	 0.125919
H	 1.8788810699	 1.3404251928	-0.4438442098	 0.123386
H	 1.4089019126	 1.1961184004	 1.3159572603	 0.1329
H	 0.4689835487	-0.7384261066	-0.9310224547	 0.124371
H	-3.278840666	-3.5446621341	-0.3049821325	 0.124093
H	-2.6061684937	-4.135187779	 2.3493941351	 0.144984
52.4933	73.198	152.9176	285.2396	357.5004	396.4887	492.4263	620.1814	708.0088	730.8604	760.0622	765.775	827.1192	850.1147	859.5739	927.2414	962.8614	988.8022	1025.2685	1060.3143	1077.0079	1090.7806	1117.717	1139.5902	1181.6562	1184.957	1190.829	1241.8901	1285.59	1384.1669	1434.2282	1455.0559	1498.8794	1582.6988	1638.3014	3143.5031	3146.2337	3180.1161	3227.1342	3240.803	3264.6134	3310.061
C1CC1OC1=NC=CO1	C1CC1Oc1ncco1	
InChI=1S/C6H7NO2/c1-2-5(1)9-6-7-3-4-8-6/h3-5H,1-2H2	InChI=1S/C6H7NO2/c1-2-5(1)9-6-7-3-4-8-6/h3-5H,1-2H2
