17
gdb 18774	3.95463	2.44605	2.12835	1.6768	70.55	-0.2226	0.0847	0.3073	725.1164	0.143663	-326.645302	-326.639233	-326.638288	-326.675017	25.136	
C	-0.0304000712	 1.4533433123	 0.0147731646	-0.511483
C	 0.0805571043	-0.0367202855	 0.0377549361	 0.358599
C	 0.2577124417	-1.0345390543	-1.0472863171	-0.114447
C	 0.6115153765	-2.0872208514	 0.0307505184	-0.072613
C	-0.8859547063	-2.0904520431	 0.466964517	 0.017164
C	-0.5175762756	-1.5772142154	 1.8677133444	-0.247304
C	 0.689853843	-0.9496840511	 1.1289086393	-0.116387
N	-1.0932448856	-0.8655868106	-0.4168255551	-0.19329
H	 0.9586238558	 1.9243674065	 0.0175159351	 0.116792
H	-0.5667613706	 1.7808255883	-0.8804363366	 0.133057
H	-0.5826250717	 1.8181323385	 0.8887358688	 0.122371
H	 0.4301378555	-0.9423424164	-2.1135596372	 0.090247
H	 1.2804555566	-2.9420803462	-0.022725271	 0.070985
H	-1.6099680683	-2.8820788187	 0.2781638353	 0.073626
H	-1.2225258018	-0.9199478092	 2.3854417005	 0.101604
H	-0.2110976306	-2.3973937315	 2.5246573093	 0.101178
H	 1.6094277686	-0.6411720722	 1.6235681082	 0.069899
193.5119	226.8511	292.1347	415.246	549.6836	602.9083	722.595	739.526	771.2637	809.1553	826.247	853.0331	874.6792	909.9585	935.6175	957.6285	984.9177	997.8089	1025.2958	1051.183	1073.0311	1083.505	1108.8837	1164.2921	1171.7296	1189.4123	1208.7871	1247.958	1255.3912	1281.2087	1286.3485	1399.4479	1440.8552	1478.1868	1483.6015	1491.1779	3027.4554	3046.5633	3088.534	3105.4932	3112.554	3121.7842	3129.9282	3149.0367	3176.3037
CC12C3C4C(CC14)N23	C[C@@]12[C@H]3[C@@H]4[C@@H](C[C@H]14)N23	
InChI=1S/C7H9N/c1-7-3-2-4-5(3)6(7)8(4)7/h3-6H,2H2,1H3	InChI=1S/C7H9N/c1-7-3-2-4-5(3)6(7)8(4)7/h3-6H,2H2,1H3/t3-,4+,5-,6+,7-,8?/m0/s1
