16
gdb 29130	3.14618	1.42271	0.98584	1.6968	78.69	-0.1947	-0.0267	0.1681	1152.9201	0.12603	-434.149884	-434.141604	-434.14066	-434.182412	31.513	
C	 0.0138620975	 1.537120098	 0.0188359205	-0.467221
C	-0.025069094	 0.0362406937	-0.0054033981	 0.294807
C	-1.1832398281	-0.6585064034	-0.1244482371	-0.102464
N	-1.140027209	-2.0426169949	-0.1440143744	-0.349471
C	 0.0137063207	-2.7736988107	-0.0458135493	 0.388526
O	 0.0565842198	-3.998327724	-0.0780671027	-0.413306
C	 1.2135594015	-1.9086085412	 0.0935644679	 0.28128
N	 2.3655436133	-2.606560857	 0.2296276885	-0.543729
N	 1.1895295779	-0.6051898715	 0.1007745627	-0.393392
H	 0.6321333911	 1.9199989336	-0.80039649	 0.132942
H	-0.9869706304	 1.9672814414	-0.0720788419	 0.114333
H	 0.4629140134	 1.8964651926	 0.9511306203	 0.133743
H	-2.1610435574	-0.2058150964	-0.2097781689	 0.121186
H	-1.9890430631	-2.5810773113	-0.2434056125	 0.263298
H	 2.3145918721	-3.6002390551	 0.0732776305	 0.276621
H	 3.2437751547	-2.1213601437	 0.1741941145	 0.262846
115.8723	157.4163	201.3153	243.0258	288.4263	337.4525	345.1176	449.9155	488.1471	517.2362	572.1733	590.4186	620.8166	701.6009	704.7987	776.0352	804.1594	817.3775	975.291	1000.5001	1063.9279	1110.9171	1164.1185	1242.1967	1331.4067	1380.9419	1403.1283	1416.2718	1466.1641	1471.5546	1493.9454	1562.7788	1647.5155	1669.9467	1765.0426	3033.351	3088.6875	3118.5918	3227.6131	3600.9562	3612.323	3742.4035
CC1=CNC(=O)C(N)=N1	Cc1c[nH]c(=O)c(N)n1	
InChI=1S/C5H7N3O/c1-3-2-7-5(9)4(6)8-3/h2H,1H3,(H2,6,8)(H,7,9)	InChI=1S/C5H7N3O/c1-3-2-7-5(9)4(6)8-3/h2H,1H3,(H2,6,8)(H,7,9)
