18
gdb 54268	2.64948	1.38495	1.25241	2.6073	67.26	-0.2402	0.0294	0.2696	1079.3134	0.14743	-476.260471	-476.251446	-476.250502	-476.294933	33.038	
C	-0.0300392327	 1.6282474408	-0.0890615453	-0.42656
C	-0.0099387953	 0.102456794	-0.0175626648	 0.271854
C	 0.8183504541	-0.5481650909	-1.1633967177	-0.14486
O	 2.0662245767	-0.8367559817	-0.5486232809	-0.231739
C	 1.7329072233	-1.1865837821	 0.7628955055	 0.009129
O	 0.700915436	-0.3011812631	 1.1683290836	-0.306016
C	-1.4480993244	-0.4403358055	-0.0332367482	 0.348878
N	-1.8264393147	-1.085934099	 1.0960731644	-0.524581
O	-2.1551798806	-0.2837270496	-1.0122143239	-0.383287
H	 0.9890102856	 2.0051648739	-0.2120073941	 0.125925
H	-0.6459528198	 1.949551688	-0.9320010856	 0.145516
H	-0.4467625531	 2.0474680997	 0.8311469071	 0.126174
H	 0.3351941984	-1.4625126467	-1.533203005	 0.114664
H	 0.9923660101	 0.1280530067	-2.0008993587	 0.131207
H	 1.3757485487	-2.2316770306	 0.8165622578	 0.085015
H	 2.6042064023	-1.0486284381	 1.4088092858	 0.124625
H	-1.1954856685	-1.130532931	 1.8779467222	 0.271431
H	-2.768292496	-1.4325934151	 1.1692190678	 0.262626
37.1444	66.3247	205.2007	232.0336	262.8312	277.8139	321.2018	334.6816	372.361	465.5622	499.3427	633.4299	650.8331	738.6851	778.8311	785.5989	896.5776	938.1036	971.0208	985.6521	1033.7469	1092.1639	1110.9217	1151.2936	1169.4319	1183.7695	1212.666	1231.7043	1274.3149	1358.7195	1375.9559	1398.4791	1430.172	1486.6199	1495.7726	1511.3865	1540.4383	1589.5594	1793.2208	2932.1637	3019.219	3046.6136	3093.4648	3120.6467	3127.8774	3139.4236	3599.6688	3741.6942
CC1(COCO1)C(N)=O	C[C@]1(COCO1)C(=O)N	
InChI=1S/C5H9NO3/c1-5(4(6)7)2-8-3-9-5/h2-3H2,1H3,(H2,6,7)	InChI=1S/C5H9NO3/c1-5(4(6)7)2-8-3-9-5/h2-3H2,1H3,(H2,6,7)/t5-/m0/s1
