14
gdb 124720	4.80058	1.04492	0.87247	6.2551	70.77	-0.2404	-0.0525	0.1879	1239.5172	0.099836	-466.146205	-466.137702	-466.136758	-466.180817	29.609	
C	 0.1040005861	 1.5405967832	 0.2524345182	-0.46274
C	-0.0136547322	 0.0541104165	 0.0045078983	 0.405205
N	-0.0758410291	-0.7121613238	 1.1174987846	-0.515228
N	-0.0604573416	-0.5647548882	-1.1317678053	-0.376941
C	-0.0865600382	 0.068145317	-2.3303402807	 0.482253
N	 0.1646853181	-0.5588545975	-3.4603537922	-0.185378
O	-0.0037437207	 0.3804006528	-4.4206833797	-0.140312
N	-0.3714321759	 1.5825126864	-3.8297184883	 0.03119
N	-0.4228033753	 1.4037955877	-2.5888611879	-0.238201
H	 0.8723511218	 1.9758303008	-0.3884758972	 0.166293
H	-0.8340116005	 2.0394511701	-0.0018996893	 0.176419
H	 0.347913383	 1.7505349111	 1.296669744	 0.115194
H	 0.0168981341	-0.3217214636	 2.0365355201	 0.269094
H	-0.1410213995	-1.7112137024	 1.0090316854	 0.273153
22.4799	117.0296	145.9293	157.8444	174.0075	355.6951	397.3359	414.733	525.629	553.1336	651.2461	663.067	723.5958	748.4621	792.7319	884.8022	938.6221	1020.87	1054.3629	1059.1746	1079.565	1153.5193	1296.1425	1394.3131	1411.6334	1465.5469	1480.8853	1511.2127	1577.0607	1641.669	1700.7394	3058.8263	3134.5133	3145.0665	3613.7643	3757.8647
CC(N)=NC1=NON=N1	CC(=Nc1nonn1)N	
InChI=1S/C3H5N5O/c1-2(4)5-3-6-8-9-7-3/h1H3,(H2,4,5,7)	InChI=1S/C3H5N5O/c1-2(4)5-3-6-8-9-7-3/h1H3,(H2,4,5,7)
