21
gdb 97545	2.81715	0.7449	0.71402	2.8075	89.77	-0.2404	-0.0234	0.217	1754.6917	0.178373	-387.087289	-387.075971	-387.075027	-387.124944	39.418	
C	 0.0295028846	 1.5626047844	 0.1799166231	-0.36478
C	 0.0012367141	 0.0494402044	-0.1027776595	-0.314432
C	-1.3433963198	-0.5168467809	-0.0601930506	 0.023394
C	-2.4584359032	-0.972622395	-0.0073662278	 0.08389
C	-3.8218553415	-1.5099728128	 0.0072004867	-0.008923
C	-3.8290384889	-3.0434371833	 0.1190116699	-0.401806
C	-4.635567374	-0.861777437	 1.1569559553	-0.412647
C	-4.4755493082	-1.0615546705	-1.3119278828	 0.16191
O	-4.9983016949	-1.7969346914	-2.1046346494	-0.248411
H	 1.0559316716	 1.9386044279	 0.1381898713	 0.116732
H	-0.5668709172	 2.1069050086	-0.5573553248	 0.128292
H	-0.3779300945	 1.7806509816	 1.1707974876	 0.127977
H	 0.4478974304	-0.1489856598	-1.0854535296	 0.132356
H	 0.6353621784	-0.4719806807	 0.6257460436	 0.131705
H	-3.3794720837	-3.3547285644	 1.0653880803	 0.117056
H	-4.8544265259	-3.4186176881	 0.0702686814	 0.125822
H	-3.2658105604	-3.4943160688	-0.700494398	 0.133526
H	-4.6820807277	 0.2253318228	 1.0444042285	 0.126287
H	-5.6557167869	-1.258040827	 1.1708688545	 0.12588
H	-4.1604318733	-1.0817454823	 2.1164136008	 0.133073
H	-4.429031879	 0.0385141022	-1.4749213904	 0.083099
31.6917	60.4965	81.7716	117.2546	183.5582	203.589	216.5368	247.4985	273.705	315.1234	326.5688	343.8303	465.7641	487.7221	527.7612	577.7383	710.6813	786.1121	814.8178	898.2852	947.0378	956.7318	1018.4674	1043.8406	1067.3604	1099.6254	1104.137	1166.6333	1226.4299	1264.0477	1286.485	1351.5937	1392.8953	1404.4363	1410.0175	1425.4441	1474.9698	1478.0274	1483.2682	1494.6457	1495.2149	1504.5489	1505.6958	1835.4798	2354.0854	2883.9618	3021.3868	3038.5048	3045.2793	3048.6871	3052.5528	3114.9201	3119.0238	3121.9564	3123.9923	3128.9385	3136.054
CCC#CC(C)(C)C=O	CCC#CC(C)(C)C=O	
InChI=1S/C8H12O/c1-4-5-6-8(2,3)7-9/h7H,4H2,1-3H3	InChI=1S/C8H12O/c1-4-5-6-8(2,3)7-9/h7H,4H2,1-3H3
