19
gdb 33514	2.66799	1.15849	0.95587	5.1275	80.78	-0.2461	0.0401	0.2862	1293.7201	0.159275	-382.03693	-382.028106	-382.027162	-382.071052	32.724	
N	 0.3563748751	-1.1712847614	-0.0291479484	-0.348849
C	 0.1681143317	-0.0300930437	-0.0427010769	 0.254277
C	-0.0330807889	 1.3987293994	-0.0586309308	 0.182399
C	-1.0895141579	 1.8927100121	-1.0371333426	-0.232724
N	-2.3900703673	 1.3129072693	-0.7483234873	-0.048589
C	-3.2888705477	 2.075157587	 0.1108839654	-0.217517
C	-3.5442420988	 1.9642134046	-1.352658642	-0.220234
C	 0.1716599843	 2.1338838582	 1.2586294425	-0.281125
C	 1.2000769979	 2.2592396365	 0.1761744163	-0.301829
H	-1.0979501206	 2.9980510727	-1.0086823572	 0.08136
H	-0.8078502439	 1.5953495859	-2.053863172	 0.124193
H	-3.8695207632	 1.4951076513	 0.8216861017	 0.126116
H	-2.9503586003	 3.0427491768	 0.4794604519	 0.106088
H	-3.3724366046	 2.8565758614	-1.953464355	 0.109819
H	-4.3144477164	 1.3001943715	-1.7336695922	 0.125874
H	-0.4830449599	 2.9762247898	 1.4506554679	 0.126483
H	 0.4126265434	 1.5390647184	 2.1310282422	 0.143178
H	 2.1468811436	 1.7489001646	 0.3026436702	 0.143617
H	 1.2555295235	 3.1867538356	-0.3831316637	 0.127462
59.1226	90.2495	130.5651	198.2312	228.0984	304.6263	345.3139	358.7505	440.2912	572.6009	584.9284	710.3789	767.948	788.036	835.1328	880.4425	901.9954	945.6136	954.341	970.8241	1023.7702	1040.3981	1064.6596	1075.8322	1097.3392	1115.9839	1121.2727	1171.7849	1177.4957	1194.7296	1260.126	1294.9803	1329.8495	1347.4951	1392.3283	1467.0358	1482.8841	1492.9974	1500.4029	1523.5537	2353.5753	2930.5939	3057.7689	3092.4164	3097.3843	3143.7059	3148.6055	3180.1189	3193.8748	3229.83	3243.3781
N#CC1(CN2CC2)CC1	N#CC1(CN2CC2)CC1	
InChI=1S/C7H10N2/c8-5-7(1-2-7)6-9-3-4-9/h1-4,6H2	InChI=1S/C7H10N2/c8-5-7(1-2-7)6-9-3-4-9/h1-4,6H2
