17
gdb 19732	4.0092	2.45514	2.2753	1.286	65.9	-0.222	0.0925	0.3145	691.4085	0.146868	-363.822734	-363.817428	-363.816484	-363.851787	22.88	
C	-0.0374897085	 1.4831021972	-0.0318973984	-0.191099
C	 1.4963165618	 1.3842987401	-0.0125654204	-0.062308
C	 1.2499843416	 0.1070581776	 0.8287096485	 0.000862
C	 2.3750294198	-0.8622673099	 0.4937401241	-0.11664
O	 2.8825509067	-0.380649885	-0.7599730563	-0.271637
C	 1.875908948	 0.5153650814	-1.241410587	 0.100515
C	 0.5426175487	-0.276893223	-1.3597492525	-0.193203
N	-0.0446799027	-0.0338890709	-0.0024385972	-0.143546
H	-0.4553478947	 1.881786687	 0.8959572667	 0.108948
H	-0.5469835764	 1.929152529	-0.8910075509	 0.099573
H	 2.1795424001	 2.185225951	 0.2713237002	 0.071022
H	 1.0096616469	 0.2280721801	 1.884391795	 0.085934
H	 3.1771427164	-0.8319272977	 1.2398874372	 0.108544
H	 2.0222516529	-1.8992134548	 0.4084900983	 0.107787
H	 2.2564859787	 1.0118690573	-2.1331308163	 0.079466
H	-0.1427321865	 0.0931849797	-2.1264171657	 0.102622
H	 0.7262776372	-1.338263409	-1.5374501953	 0.11316
283.3767	368.6742	423.786	528.05	591.452	697.5087	745.2765	796.1392	824.2305	856.6462	876.4468	913.4239	924.1194	954.1316	964.2911	986.3603	1009.312	1041.6761	1060.6403	1068.8843	1106.0076	1149.0652	1168.9378	1208.8785	1227.2599	1229.5772	1237.3408	1258.4355	1275.7168	1307.9796	1329.618	1336.3594	1378.3116	1500.227	1517.3033	1530.9139	3010.2732	3052.1647	3058.3936	3068.5562	3109.5392	3111.3479	3121.2489	3126.0179	3133.7341
C1C2C3COC2CN13	C1[C@H]2[C@@H]3CO[C@H]2CN13	
InChI=1S/C6H9NO/c1-4-5-3-8-6(4)2-7(1)5/h4-6H,1-3H2	InChI=1S/C6H9NO/c1-4-5-3-8-6(4)2-7(1)5/h4-6H,1-3H2/t4-,5-,6-/m0/s1
