13
gdb 27963	4.01921	1.22683	0.93992	5.0605	68.6	-0.2613	-0.0862	0.1751	1138.8047	0.090879	-448.996833	-448.98912	-448.988175	-449.029554	27.176	
N	-0.0512155999	 1.317314767	 0.0086008116	-0.552702
C	-0.0034941675	-0.0269508654	 0.0007533356	 0.460983
N	-1.1749478311	-0.6934588942	 0.0032163102	-0.327454
C	-1.0503250664	-2.0162869789	-0.0049156499	 0.238547
C	-2.3612640062	-2.7678156312	-0.002161476	 0.125528
O	-2.4565072179	-3.9643030749	-0.0090083041	-0.224146
N	 0.0903342014	-2.7102053296	-0.0148808231	-0.279305
C	 1.1777342875	-1.9354965368	-0.0162903483	 0.072466
N	 1.2109807935	-0.6094707251	-0.0089859351	-0.297266
H	 0.8053872787	 1.8418349784	 0.0069456693	 0.277351
H	-0.9413682052	 1.7823611862	 0.0158923785	 0.276708
H	-3.237815899	-2.087301071	 0.0057183615	 0.095703
H	 2.139868292	-2.4435915945	-0.0242505603	 0.133587
81.8084	143.2961	177.0161	201.6814	225.6893	377.8653	436.4882	478.6664	582.6503	594.1537	667.7787	717.494	847.9469	848.9086	969.935	1004.3414	1019.7998	1049.8027	1057.5196	1243.9629	1306.2909	1358.3009	1391.4479	1438.9099	1503.4835	1578.2784	1607.9116	1653.2242	1838.7301	2929.0919	3162.5805	3628.4316	3767.7544
NC1=NC(C=O)=NC=N1	Nc1nc(C=O)ncn1	
InChI=1S/C4H4N4O/c5-4-7-2-6-3(1-9)8-4/h1-2H,(H2,5,6,7,8)	InChI=1S/C4H4N4O/c5-4-7-2-6-3(1-9)8-4/h1-2H,(H2,5,6,7,8)
