14
gdb 31335	2.03449	1.74146	0.95416	2.821	67.31	-0.2575	-0.0682	0.1893	1137.6268	0.101116	-473.855532	-473.847564	-473.84662	-473.888743	28.053	
O	 0.40543077	 0.9271337965	 0.7377883969	-0.397678
C	-0.0332182079	 0.0890334596	-0.3153615858	-0.177391
C	-1.3958708575	-0.5000317288	-0.0960332719	 0.158981
C	-2.1138262141	-0.6839590499	 1.0597558923	 0.169994
O	-3.3059237525	-1.2740786924	 0.7032802896	-0.150749
C	-3.2303920851	-1.4126715989	-0.6244709536	 0.084314
N	-2.1341485059	-0.9755049524	-1.1656300609	-0.307456
C	-1.8647854267	-0.4112872284	 2.472545032	 0.049205
O	-2.6460175206	-0.6657419933	 3.3617821242	-0.275236
H	-0.1358428527	 1.7238804322	 0.7300621194	 0.291923
H	-0.0329301615	 0.6003424895	-1.2878718557	 0.129201
H	 0.7058645023	-0.7177387064	-0.385952782	 0.147222
H	-4.0776075785	-1.8634282762	-1.1187411019	 0.166531
H	-0.8782789994	 0.0535640589	 2.6533179076	 0.111137
69.9223	138.5731	164.4297	207.8653	244.7867	316.6497	358.8486	406.9087	541.603	656.3728	669.6122	718.0377	809.945	883.209	958.0721	975.6616	1044.1985	1080.842	1091.4451	1180.988	1203.5611	1238.6252	1293.2388	1354.6501	1394.989	1412.0358	1412.5976	1487.6159	1535.8036	1615.6309	1781.1383	2973.0585	3016.1883	3063.4693	3272.5959	3811.4134
OCC1=C(OC=N1)C=O	OCc1c(ocn1)C=O	
InChI=1S/C5H5NO3/c7-1-4-5(2-8)9-3-6-4/h2-3,7H,1H2	InChI=1S/C5H5NO3/c7-1-4-5(2-8)9-3-6-4/h2-3,7H,1H2
