16
gdb 51962	3.12329	0.90468	0.74568	3.1023	67.52	-0.2544	-0.0471	0.2073	1461.4914	0.122397	-475.034681	-475.025606	-475.024661	-475.070458	31.132	
O	 0.7363728549	 1.1123480638	 2.0339524051	-0.325274
C	 0.4019155806	 1.6126761674	 0.9801199647	 0.154423
N	 1.1955719675	 1.7009358027	-0.1168843952	-0.286126
C	 2.5747950284	 1.2884062105	-0.0959221339	-0.241735
C	 3.3329196009	 1.9880701025	-1.2107357193	 0.349128
O	 2.7734743974	 2.6741191011	-2.038085144	-0.316853
C	 4.8145525941	 1.7689575339	-1.2784673106	-0.017663
C	 5.6764405854	 2.0625109745	-0.1124580721	-0.173589
O	 5.3604592006	 0.7263077112	-0.4706602881	-0.209449
H	-0.6004254124	 2.0488207138	 0.8030159372	 0.080964
H	 0.903210644	 2.2270595563	-0.9285238983	 0.26277
H	 3.019195171	 1.4952662237	 0.8844430359	 0.158501
H	 2.6944942201	 0.204478229	-0.2399594867	 0.159747
H	 5.2363767398	 1.8769789567	-2.2760238187	 0.128435
H	 6.7029597321	 2.3734216745	-0.2969679545	 0.14036
H	 5.2328785556	 2.4223748683	 0.8138480284	 0.136362
25.3444	76.7295	105.3176	129.1296	238.4632	258.7848	270.1963	325.304	489.0575	563.043	568.1337	577.0126	743.5353	864.7421	876.8025	909.6571	928.7056	1000.3181	1035.4484	1073.7647	1087.8876	1151.2582	1163.5111	1199.6354	1223.2392	1237.1158	1263.1289	1366.5985	1392.9698	1424.5507	1465.8863	1517.6652	1523.2325	1791.3555	1808.3114	2947.1127	3012.9355	3064.8616	3095.0789	3140.6859	3188.213	3601.4355
O=CNCC(=O)C1CO1	O=CNCC(=O)[C@H]1CO1	
InChI=1S/C5H7NO3/c7-3-6-1-4(8)5-2-9-5/h3,5H,1-2H2,(H,6,7)	InChI=1S/C5H7NO3/c7-3-6-1-4(8)5-2-9-5/h3,5H,1-2H2,(H,6,7)/t5-/m1/s1
