19
gdb 31970	4.82652	0.87665	0.78493	0.3066	81.11	-0.1689	0.0622	0.2311	1496.8524	0.159693	-419.219023	-419.209527	-419.208583	-419.253922	34.366	
C	-0.529098388	 1.042766533	 0.2845174518	-0.322303
N	 0.8226912252	 0.5131093281	 0.0632164829	-0.387574
C	 0.9466714063	-0.4127520534	-0.9906306848	 0.282923
C	 1.2331061815	-0.2949067315	-2.327414973	-0.21747
C	 1.2566970732	-1.6112179858	-2.8974056093	-0.294403
C	 0.9660750739	-2.4808841206	-1.8733268996	 0.411563
N	 0.7763573405	-1.7639902824	-0.7243767724	-0.355907
O	 0.8420476054	-3.8255847052	-1.7911061457	-0.263108
C	 1.0433670073	-4.5135680425	-3.0122453601	-0.24323
H	-0.9501344913	 1.5601315989	-0.5913661588	 0.107323
H	-1.2026556167	 0.2200747564	 0.5419272294	 0.124965
H	-0.5091397862	 1.7376534662	 1.1297848156	 0.114082
H	 1.4770085115	 1.2742181149	-0.0682936165	 0.230953
H	 1.4018652034	 0.6320027292	-2.85478872	 0.081236
H	 1.4502388746	-1.8693626224	-3.9253069134	 0.08981
H	 0.6535141543	-2.1598929533	 0.1916238857	 0.259662
H	 2.0543222912	-4.338543077	-3.4024388456	 0.124746
H	 0.9130277068	-5.5750667175	-2.7967362575	 0.132205
H	 0.312450817	-4.1988094851	-3.7683126486	 0.124526
52.1398	69.6952	146.1043	173.1236	205.3396	223.3313	285.968	357.5083	404.7014	439.2074	508.2733	629.8773	643.6589	679.704	685.6415	735.4889	763.7584	796.7535	976.4073	1002.4062	1050.7294	1060.4798	1091.9545	1139.9371	1159.7948	1183.7973	1209.898	1248.8794	1256.4832	1296.0822	1403.7792	1450.732	1465.0573	1473.9999	1482.1996	1485.8046	1493.3673	1511.3114	1515.3326	1584.8001	1639.4241	2982.9568	3005.7932	3063.0206	3072.3501	3110.2713	3137.6209	3240.3219	3265.4231	3555.4994	3681.0131
CNC1=CC=C(N1)OC	CNc1ccc([nH]1)OC	
InChI=1S/C6H10N2O/c1-7-5-3-4-6(8-5)9-2/h3-4,7-8H,1-2H3	InChI=1S/C6H10N2O/c1-7-5-3-4-6(8-5)9-2/h3-4,7-8H,1-2H3
