16
gdb 42777	2.5163	1.98085	1.64401	2.4192	68.26	-0.2153	-0.0212	0.1941	876.8472	0.125839	-437.798913	-437.792219	-437.791275	-437.829789	27.07	
O	-0.0415730034	-0.0110038216	 0.000931156	-0.324332
C	-0.0461760347	 1.1827495381	-0.0107205554	 0.374726
C	-1.0551135083	 2.3360406756	 0.0856103498	-0.135591
C	 0.0462697987	 3.0339624325	 0.990622881	-0.322275
C	 0.9859418624	 2.3412550993	-0.0485247102	 0.315381
O	 2.3294915056	 2.1460523038	-0.4774104161	-0.347191
C	 1.8249493064	 2.234712584	-1.8636612381	-0.160683
C	 0.5991054813	 3.0416645249	-1.324006558	-0.013149
N	-0.8903925577	 2.932432371	-1.2922512926	-0.343727
H	-2.0843128435	 2.2404040449	 0.4193381394	 0.104138
H	 0.0687913994	 4.1240833772	 0.9908949479	 0.129028
H	 0.0301516386	 2.6249235445	 2.0023409873	 0.13103
H	 2.5255622528	 2.7675807033	-2.5084181892	 0.123993
H	 1.6039839271	 1.2359303185	-2.2549550887	 0.130284
H	 0.8821204507	 4.098684059	-1.3272905693	 0.102615
H	-1.2734708455	 2.3015073449	-1.9916490737	 0.235753
144.4022	205.2874	288.2344	365.972	404.1207	490.1297	538.7084	608.99	684.5164	720.1882	769.2393	785.8496	818.7399	847.6868	900.2414	923.9202	980.3407	992.21	1014.0202	1040.9586	1066.8715	1128.1286	1135.0803	1150.1099	1187.2728	1197.5338	1231.0491	1240.3278	1271.3615	1317.7293	1349.6509	1402.4093	1486.981	1501.1604	1902.8397	3046.8079	3051.0304	3082.1728	3130.9789	3156.7967	3172.0431	3504.6928
O=C1C2CC11OCC1N2	O=C1[C@H]2C[C@]31OC[C@H]3N2	
InChI=1S/C6H7NO2/c8-5-3-1-6(5)4(7-3)2-9-6/h3-4,7H,1-2H2	InChI=1S/C6H7NO2/c8-5-3-1-6(5)4(7-3)2-9-6/h3-4,7H,1-2H2/t3-,4-,6+/m1/s1
