23
gdb 59066	1.97948	1.34656	1.00494	0.7438	92.16	-0.2375	0.05	0.2875	1337.0357	0.202851	-351.123459	-351.112685	-351.111741	-351.158907	40.233	
C	-0.7436910924	 0.8081337668	 0.1330939048	-0.391043
C	 0.0326245139	-0.5095114018	 0.2807120312	 0.017825
C	-0.8907014988	-1.6507830109	 0.7334747623	-0.389408
C	 0.7227141729	-0.8716539632	-1.022947707	-0.003448
C	 2.0506793336	-0.3125287381	-1.4604124079	-0.044778
C	 2.8622697033	 0.6642719709	-0.6391859931	-0.412483
C	 1.9471107638	-1.7883550632	-1.0655857701	-0.241645
C	 2.5491526748	-2.2680101162	 0.1433446779	 0.352042
C	 3.06037285	-2.6866526438	 1.1501097573	-0.486919
H	-0.0847017899	 1.6330300192	-0.1544378837	 0.114642
H	-1.5216552332	 0.719998413	-0.6348332753	 0.109653
H	-1.2363815024	 1.0796426882	 1.0726135288	 0.10954
H	 0.79528681	-0.3749846666	 1.0554995897	 0.083862
H	-1.6678071476	-1.8465147476	-0.0153323968	 0.105783
H	-0.3257139717	-2.5745604018	 0.8860175221	 0.127015
H	-1.3925685738	-1.3992839096	 1.673727958	 0.106439
H	 0.0181719645	-1.0582234384	-1.8322439093	 0.082538
H	 2.1483173456	-0.1615745645	-2.5327066034	 0.08799
H	 2.8222419663	 0.4383393822	 0.4282898607	 0.134029
H	 3.915264597	 0.6309529849	-0.9383955421	 0.120573
H	 2.507102934	 1.6899623156	-0.7861202041	 0.116748
H	 1.9774681429	-2.5014088868	-1.8846764368	 0.108011
H	 3.5122123674	-3.0577658585	 2.0361734566	 0.193035
65.9667	101.0929	134.7513	157.1282	177.7831	224.5222	240.7393	250.8743	325.4397	342.4268	355.0034	428.5872	517.5182	569.1734	606.6248	623.1938	647.3198	751.2702	784.0936	811.2485	897.6838	928.3109	951.9231	962.2993	981.6812	1024.325	1041.0609	1102.7505	1136.7173	1146.471	1151.6457	1187.3431	1205.1502	1260.8783	1310.9606	1338.92	1364.1419	1395.6258	1396.5911	1417.4865	1421.7002	1442.2479	1486.0733	1490.9757	1491.2754	1500.467	1505.253	1510.9093	2227.2718	3023.8287	3027.909	3036.244	3046.5644	3087.2617	3092.5901	3094.985	3105.3508	3111.8551	3113.7273	3121.6171	3135.6487	3145.9396	3504.667
CC(C)C1C(C)C1C#C	CC(C)[C@H]1[C@@H](C)[C@H]1C#C	
InChI=1S/C9H14/c1-5-8-7(4)9(8)6(2)3/h1,6-9H,2-4H3	InChI=1S/C9H14/c1-5-8-7(4)9(8)6(2)3/h1,6-9H,2-4H3/t7-,8+,9-/m0/s1
