17
gdb 67793	3.1453	2.01096	1.49065	1.3617	75.15	-0.2138	0.0212	0.235	884.2277	0.13716	-384.634106	-384.627598	-384.626653	-384.664309	28.429	
O	-0.081147357	 1.3184205158	-0.0611442459	-0.490838
C	 0.0511540477	-0.0763097492	-0.0490880653	 0.38973
C	 1.1638287881	-0.6523930278	-0.8110140226	-0.167188
C	 1.2700628935	-1.9847569003	-0.8435291911	-0.079485
C	 0.2558793684	-2.7593581563	-0.1205599225	-0.09375
C	-0.344435961	-2.2692449987	 1.205414699	-0.106667
C	-1.2032414444	-2.2899214902	-0.0345862961	-0.106482
C	-1.3133285768	-0.7541113241	 0.0137406975	-0.113423
C	-0.4481916095	-0.7347400563	 1.2534611626	-0.157773
H	 0.6474732731	 1.6866097093	 0.450566269	 0.283568
H	 1.8410416722	 0.0226464226	-1.3229333606	 0.089859
H	 2.0593669806	-2.4979975974	-1.3817004793	 0.091719
H	 0.3428712282	-3.8406592077	-0.1625987784	 0.086493
H	-0.3649575974	-2.9116246001	 2.0757147543	 0.091548
H	-2.0160559201	-2.9500356066	-0.3059946014	 0.092287
H	-2.1996603424	-0.1795969524	-0.216766882	 0.10063
H	-0.5466806032	-0.1370123407	 2.1495075328	 0.089772
252.516	287.9307	370.3363	376.9851	413.5815	501.8147	549.6526	625.6681	660.1745	675.3883	728.0789	755.0231	812.1781	832.0586	858.411	865.4744	914.6961	922.1107	947.675	965.3446	979.0986	987.8972	1023.0866	1030.688	1072.5632	1128.7921	1140.1768	1170.0842	1200.1757	1244.5207	1255.3305	1274.0889	1321.6179	1374.8109	1402.9389	1451.6462	1685.0032	3158.5486	3176.9862	3191.4771	3197.9498	3202.6392	3205.4227	3217.8914	3797.7608
OC12C=CC3C4C3C1C24	O[C@]12C=C[C@H]3[C@@H]4[C@H]3[C@H]1[C@H]24	
InChI=1S/C8H8O/c9-8-2-1-3-4-5(3)7(8)6(4)8/h1-7,9H	InChI=1S/C8H8O/c9-8-2-1-3-4-5(3)7(8)6(4)8/h1-7,9H/t3-,4+,5-,6+,7-,8-
