16
gdb 127987	3.96096	1.30217	1.00914	4.0791	75.01	-0.2173	-0.0006	0.2167	1155.9006	0.124745	-434.014567	-434.006558	-434.005614	-434.047691	28.809	
C	 0.0029633837	 1.533506255	 0.02739026	-0.325192
N	-0.1050916121	 0.0824023256	 0.0269882346	-0.375302
C	 0.4833460987	-0.5641772198	 0.9287461311	 0.513103
O	 1.2876687723	-0.0705813058	 1.9559116492	-0.275386
N	 1.5794784435	-1.1119862094	 2.9352086919	-0.235463
C	 1.0991649717	-2.1473909519	 2.3494073433	 0.387186
C	 0.5455818888	-3.5532982039	 2.4906372062	-0.351518
C	-0.2923304442	-3.1785989757	 1.2059855428	-0.171272
N	 0.5259397808	-1.9404598508	 1.1304234633	-0.13799
H	 0.8775710775	 1.856149411	-0.5524150797	 0.125097
H	-0.8825598525	 1.953866995	-0.4575105292	 0.119979
H	 0.0939291548	 1.9636638951	 1.0328386427	 0.124933
H	 1.2720852512	-4.3521648173	 2.3379433739	 0.153302
H	-0.0266348608	-3.7368084376	 3.3995182236	 0.156095
H	-0.1843057602	-3.827154541	 0.3362441203	 0.143701
H	-1.3476368533	-2.9803063488	 1.4072518861	 0.148726
78.0723	96.6319	163.1926	190.2225	257.8348	302.1389	355.8735	574.6077	618.2401	671.9883	701.2703	725.5652	791.5683	815.2583	835.3637	899.8494	1028.9272	1044.555	1062.0577	1120.6368	1129.3347	1140.2876	1168.8807	1185.4	1226.146	1258.1358	1325.5381	1415.0396	1446.131	1469.8478	1492.1947	1501.2149	1513.7526	1694.4878	1811.8307	3006.7708	3060.3038	3077.3607	3096.6416	3100.8398	3139.8323	3162.7635
CN=C1ON=C2CCN12	CN=C1O[N][C]2CCN12	
InChI=1S/C5H7N3O/c1-6-5-8-3-2-4(8)7-9-5/h2-3H2,1H3	InChI=1S/C5H7N3O/c1-6-5-8-3-2-4(8)7-9-5/h2-3H2,1H3
