20
gdb 61525	3.21827	0.88315	0.85438	5.4654	79.35	-0.2588	0.0216	0.2804	1438.7018	0.170807	-399.308853	-399.298984	-399.29804	-399.343866	36.323	
C	 1.1497065427	 0.4942838777	 0.9398526987	-0.475028
C	 0.0096179695	 0.1654162348	-0.0049938644	 0.321834
C	-1.1211443177	-0.6699935133	 0.5760154798	-0.241613
C	-1.9078018522	 0.0310313378	 1.7147593878	-0.143122
N	-2.6039062812	 1.2740288744	 1.3673563632	-0.504575
C	-2.8829306868	-0.9150201139	 2.2821276932	 0.301224
N	-3.6394269841	-1.6808483034	 2.701330793	-0.318283
C	-0.2667069068	 1.0985478252	-1.1347864438	-0.282901
N	 0.3489730164	-0.2153948118	-1.3881811224	-0.350567
H	 1.9247669254	 1.0754498511	 0.4301371232	 0.11909
H	 0.8175515135	 1.0828233812	 1.8023875512	 0.126688
H	 1.6108607373	-0.4222578079	 1.3259241103	 0.131387
H	-1.8142189585	-0.9369529666	-0.2279128466	 0.122404
H	-0.7090973058	-1.6115658494	 0.960592228	 0.119068
H	-1.2102408142	 0.2750478444	 2.5261192247	 0.133776
H	-1.9274744962	 1.9461089973	 1.0195392503	 0.243066
H	-3.2611249044	 1.1011845842	 0.6115754374	 0.239511
H	-1.2749381519	 1.209317852	-1.5247290749	 0.114348
H	 0.348004268	 1.9910400507	-1.2236445446	 0.113347
H	 1.348050137	-0.1040314046	-1.5442706141	 0.230347
52.1867	95.74	128.365	191.5308	218.8039	243.6043	298.805	318.5751	363.6972	378.8584	386.4929	481.9002	557.279	583.3491	729.2154	818.1023	856.8887	867.7449	909.2923	922.8918	933.572	985.3431	1010.1774	1038.5523	1067.5885	1102.3306	1134.0269	1150.7093	1171.1809	1243.082	1272.7839	1299.2201	1339.7701	1359.5732	1390.3172	1415.0003	1422.603	1474.8336	1490.2047	1501.1781	1516.9185	1658.8121	2363.1252	3025.0539	3033.3641	3035.4426	3087.6943	3089.8505	3100.1417	3103.5613	3186.0825	3494.0267	3495.6823	3580.5835
CC1(CC(N)C#N)CN1	C[C@@]1(C[C@@H](N)C#N)CN1	
InChI=1S/C6H11N3/c1-6(4-9-6)2-5(8)3-7/h5,9H,2,4,8H2,1H3	InChI=1S/C6H11N3/c1-6(4-9-6)2-5(8)3-7/h5,9H,2,4,8H2,1H3/t5-,6-/m1/s1
