15
gdb 5536	3.38239	1.90642	1.26252	1.6274	64.97	-0.1901	0.0225	0.2126	935.8353	0.120543	-395.997351	-395.989509	-395.988565	-396.029795	27.968	
C	 0.2268415023	 1.4550929506	 0.0504747184	-0.332735
N	-0.2893632057	 0.1229792464	-0.2577684443	-0.39081
C	 0.4192039431	-0.6737151349	-1.1272852407	 0.396713
C	 0.6809402755	-2.0111694588	-1.1568963629	 0.084729
N	 0.3139655797	-2.9370289708	-0.1547376054	-0.609238
N	 1.3618334659	-2.3023977698	-2.3412546063	-0.283699
C	 1.4837947858	-1.167369139	-2.9350975981	 0.048022
O	 0.9246883144	-0.1138897296	-2.2609457182	-0.184329
H	 1.2137034204	 1.4425586757	 0.537263429	 0.115793
H	 0.3074466172	 2.0335270076	-0.8721896791	 0.149185
H	-0.483417626	 1.9615175738	 0.7078070994	 0.128487
H	-0.5338892974	-0.4201096051	 0.5612348379	 0.251943
H	-0.381638926	-3.5940994696	-0.4985546573	 0.24184
H	 1.1153053951	-3.4932252826	 0.1298688667	 0.241935
H	 1.9702587059	-0.9307018741	-3.8671992092	 0.142164
74.0331	153.1536	178.0078	186.7731	268.7422	294.3809	358.7372	516.0219	627.4375	663.1531	703.3146	727.7397	768.5616	793.8046	868.7366	948.342	1044.4368	1091.0788	1098.286	1151.0671	1179.9171	1225.6794	1258.1884	1309.7832	1423.9532	1471.8556	1475.9869	1494.3044	1518.249	1566.8057	1653.2759	1719.0264	2990.4482	3095.785	3136.8644	3281.4309	3481.0386	3542.609	3571.133
CNC1=C(N)N=CO1	CNc1c(N)nco1	
InChI=1S/C4H7N3O/c1-6-4-3(5)7-2-8-4/h2,6H,5H2,1H3	InChI=1S/C4H7N3O/c1-6-4-3(5)7-2-8-4/h2,6H,5H2,1H3
