16
gdb 96737	1.88457	1.42423	0.90232	2.2266	74.04	-0.2726	-0.017	0.2555	1283.495	0.119912	-437.869077	-437.858993	-437.858049	-437.905478	34.114	
C	 2.5962978403	 0.8086678586	-0.4778771197	-0.345512
N	 1.9167307701	-0.4731645058	-0.433906716	-0.23263
C	 1.1668365624	-0.79450506	 0.5185041828	 0.36274
C	 0.4964820584	-2.1496786031	 0.6016961818	-0.387687
C	-0.9584764695	-2.0434853744	 0.6498871698	 0.282341
C	-2.1536917859	-1.9270318019	 0.6878718711	-0.441214
O	 0.9167141225	-0.0009042017	 1.6453896452	-0.209598
C	-0.0664594514	 0.9454544568	 1.572237107	 0.167488
O	-0.3258932878	 1.6525147574	 2.4931854408	-0.258194
H	 2.5005610306	 1.4117698255	 0.4314058589	 0.135121
H	 3.6575247038	 0.625980639	-0.673685239	 0.144288
H	 2.2128490815	 1.3802740193	-1.3299243932	 0.142362
H	 0.8203871555	-2.7338503112	-0.2631284375	 0.162807
H	 0.8568500311	-2.6579945207	 1.5058112625	 0.159858
H	-3.2117443934	-1.8405456524	 0.7255435548	 0.210116
H	-0.5594054381	 0.9656639744	 0.5866603205	 0.107714
40.1308	56.4867	101.6853	124.1895	151.4436	215.6731	262.505	272.2893	336.2702	369.0803	439.5336	557.8185	613.2021	629.8453	665.5536	729.9607	903.8467	926.7985	958.8983	1028.718	1053.851	1104.2313	1126.5506	1137.1409	1192.4969	1240.8138	1325.2071	1421.48	1436.7134	1451.1645	1487.0045	1501.1944	1783.2318	1874.7427	2241.2163	3010.7944	3026.8226	3030.5791	3095.4027	3101.9378	3106.2953	3502.5099
CN=C(CC#C)OC=O	CN=C(CC#C)OC=O	
InChI=1S/C6H7NO2/c1-3-4-6(7-2)9-5-8/h1,5H,4H2,2H3	InChI=1S/C6H7NO2/c1-3-4-6(7-2)9-5-8/h1,5H,4H2,2H3
