17
gdb 40910	3.73123	1.2659	1.23553	1.1508	67.17	-0.2357	0.0653	0.301	1052.2292	0.1366	-458.897825	-458.890366	-458.889422	-458.930253	27.657	
C	-0.1957181864	 1.4326148045	-0.1824099291	-0.14386
O	 1.1511340648	 1.6127609601	 0.3107421627	-0.276398
C	 1.3578110136	 0.1895263077	 0.4349930652	-0.147385
C	-0.0531682018	-0.0804691648	-0.0789290112	 0.195908
C	-1.0209143791	-1.1366086825	 0.3964938487	-0.015497
O	-2.3975939601	-0.8622931998	 0.3043412704	-0.25675
C	-2.6424815427	-0.4389744913	-1.0266368373	 0.018721
O	-1.5993088172	-0.9343862615	-1.8494554932	-0.25675
C	-0.5008375733	-1.1835741942	-1.006692276	-0.015495
H	-0.9427534406	 1.885590263	 0.4817657117	 0.114146
H	-0.3201743746	 1.8293641801	-1.198026945	 0.114146
H	 2.1768629087	-0.1659642489	-0.2045430616	 0.106023
H	 1.5550523339	-0.1097967446	 1.473129841	 0.106023
H	-0.7817096622	-1.8313137508	 1.1930703582	 0.115695
H	-3.5990414542	-0.8477799624	-1.3674938989	 0.125448
H	-2.6681838804	 0.6616920712	-1.0730056319	 0.100329
H	 0.1841616313	-1.9185346158	-1.4128663636	 0.115695
89.9295	148.4865	156.4591	185.7998	268.4458	417.0082	474.281	632.3011	733.1106	747.5648	842.3943	847.9865	873.9131	946.0059	972.4799	981.7646	1007.5987	1032.4857	1047.4947	1075.0406	1084.5254	1136.1324	1138.9958	1153.0757	1165.3883	1169.4324	1187.4891	1215.9502	1276.2975	1291.7005	1308.9157	1375.0073	1433.0296	1438.5808	1510.4036	1534.5871	1550.4888	2966.8254	2996.8744	3011.4331	3039.8306	3052.1142	3073.3668	3180.3422	3188.9155
C1OCC11C2OCOC12	C1OCC21[C@H]1OCO[C@@H]21	
InChI=1S/C6H8O3/c1-6(2-7-1)4-5(6)9-3-8-4/h4-5H,1-3H2	InChI=1S/C6H8O3/c1-6(2-7-1)4-5(6)9-3-8-4/h4-5H,1-3H2/t4-,5+
