19
gdb 76037	2.32877	1.2099	1.12204	2.5315	84.76	-0.2474	-0.0328	0.2146	1221.9274	0.155447	-385.86671	-385.856563	-385.855619	-385.901519	36.765	
C	-0.1933392888	 1.3766012318	-0.1076952447	-0.425637
C	 0.1027801897	-0.0948157737	 0.0586773401	-0.041954
C	 1.4892372719	-0.6622045068	-0.1125950184	-0.266392
C	 2.620075677	 0.1739346673	-0.3730747889	 0.331555
C	 3.5749744754	 0.8706359025	-0.6006106477	-0.43068
C	 0.8153127415	-0.6399418861	 1.2902111661	 0.191398
C	 1.3322232944	 0.2683651177	 2.3854500049	-0.489027
C	 0.3549735352	-1.9882222051	 1.7302775701	 0.095468
O	-0.1071434367	-2.830515877	 0.996373114	-0.27235
H	 0.6532559611	 2.0026633581	 0.1808467804	 0.132723
H	-0.4217430313	 1.5957474187	-1.1558285108	 0.130716
H	-1.0613334577	 1.670689718	 0.491339521	 0.123075
H	-0.6722927677	-0.7669062041	-0.2997339185	 0.116465
H	 1.5305619588	-1.6558812975	-0.5494065247	 0.133811
H	 4.4208366952	 1.4774636687	-0.8098154846	 0.198728
H	 1.9204335394	 1.0939304826	 1.9825174991	 0.142911
H	 0.5102812278	 0.6884896737	 2.9752364457	 0.124916
H	 1.9824414405	-0.2886974568	 3.0688727478	 0.126192
H	 0.4712969542	-2.183695192	 2.8197905194	 0.07808
93.7966	121.8711	128.2547	156.0557	166.1054	205.789	219.7373	274.288	345.2729	372.7088	435.5832	523.7847	587.3009	599.0658	651.5985	653.2478	715.9134	737.4366	831.9441	950.3063	984.7731	999.7302	1021.1731	1064.5287	1107.6098	1121.4558	1147.7804	1163.7874	1245.7599	1301.3058	1358.4599	1408.6386	1422.924	1425.9286	1435.0945	1487.1593	1492.4335	1501.245	1510.0851	1800.4006	2230.5314	2881.2702	3036.2938	3042.0806	3092.4551	3100.1078	3129.0893	3140.9328	3150.4404	3156.3091	3503.2875
CC1C(C#C)C1(C)C=O	C[C@H]1[C@@H](C#C)[C@]1(C)C=O	
InChI=1S/C8H10O/c1-4-7-6(2)8(7,3)5-9/h1,5-7H,2-3H3	InChI=1S/C8H10O/c1-4-7-6(2)8(7,3)5-9/h1,5-7H,2-3H3/t6-,7+,8+/m0/s1
