21
gdb 102185	2.96958	1.02746	0.83458	0.9193	85.	-0.2419	0.0518	0.2937	1430.1752	0.179717	-387.03105	-387.020697	-387.019753	-387.067128	37.371	
C	-0.2893911255	 1.3155580863	-1.0333082412	-0.242696
O	-0.2215782297	 0.3677714179	 0.0142802552	-0.249587
C	-1.3341643857	-0.5060840801	 0.1176271373	 0.085113
C	-0.9582953691	-1.9090362158	-0.4185150816	-0.350471
C	-0.6865511474	-1.9510299443	-1.8499350654	 0.299922
C	-0.4798730348	-1.9936654345	-3.0338477709	-0.44439
C	-1.7664773761	-0.5966881692	 1.5714956017	 0.009451
C	-0.7454496831	-0.5496702889	 2.6806483685	-0.255524
C	-1.6957106805	 0.6046110687	 2.4745080863	-0.283759
H	 0.6202755049	 1.9187724454	-0.9722387018	 0.124151
H	-0.3333612214	 0.8340283591	-2.0171707549	 0.127569
H	-1.1598465098	 1.9795921187	-0.9227591155	 0.104136
H	-2.170347209	-0.1157473975	-0.4811690927	 0.078194
H	-0.0801660882	-2.2526977563	 0.1404967663	 0.140334
H	-1.7736403183	-2.6055237608	-0.1842467067	 0.123796
H	-0.2904212348	-2.0362163656	-4.0776370725	 0.193551
H	-2.6119154512	-1.2627079254	 1.7228442389	 0.080709
H	-0.8885741206	-1.1959857134	 3.539318621	 0.105865
H	 0.2875882023	-0.3874921401	 2.3965702629	 0.128081
H	-1.2760180637	 1.5129579438	 2.0589063256	 0.119487
H	-2.4970183384	 0.7551608319	 3.1894050492	 0.106067
48.8496	72.1878	88.324	133.3399	163.2967	218.5994	229.1301	341.4696	348.6935	366.0246	403.1541	544.9416	584.1972	612.5021	631.9268	787.6956	808.2264	834.5425	842.6645	911.3118	976.357	991.6783	1027.1611	1054.2965	1063.8034	1088.5202	1128.3566	1138.329	1153.5959	1181.619	1200.1182	1210.2313	1232.0726	1250.0545	1292.9548	1358.718	1394.7649	1402.414	1455.2434	1458.1805	1480.7797	1487.9734	1501.6658	1512.0547	2234.5873	2985.8035	2996.8124	3025.5314	3063.5102	3068.7736	3113.912	3137.5166	3138.9175	3145.1105	3222.4813	3235.9108	3505.7849
COC(CC#C)C1CC1	CO[C@@H](CC#C)C1CC1	
InChI=1S/C8H12O/c1-3-4-8(9-2)7-5-6-7/h1,7-8H,4-6H2,2H3	InChI=1S/C8H12O/c1-3-4-8(9-2)7-5-6-7/h1,7-8H,4-6H2,2H3/t8-/m0/s1
