18
gdb 63500	1.96952	1.6982	1.08075	3.0992	78.83	-0.2734	-0.0495	0.2239	1148.8798	0.145057	-401.972801	-401.963278	-401.962334	-402.006621	34.941	
C	 0.08186106	 1.5030180269	 0.0594549681	-0.469033
C	 0.0630596591	-0.0114737651	 0.0014520824	 0.281572
C	-1.2212260936	-0.5922132431	-0.5597733715	-0.453239
C	 1.3280883846	-0.754451295	-0.216623991	-0.338909
C	 0.7215796011	-0.8146453887	 1.1931442458	 0.03066
C	 1.4359149657	-0.0830247124	 2.2872342674	 0.09961
O	 2.2473686119	 0.7904289978	 2.102153495	-0.262171
C	 0.0730631283	-2.0214906985	 1.6263518958	 0.226151
N	-0.4414451258	-2.9856116025	 2.0077047893	-0.344487
H	 1.0051502936	 1.8904550634	 0.488936824	 0.162279
H	-0.0159135513	 1.8959118346	-0.9587042269	 0.128111
H	-0.7637376845	 1.8823751973	 0.6425625651	 0.126528
H	-1.364815388	-0.2253340624	-1.5818976094	 0.129704
H	-1.2085864972	-1.6836745713	-0.5887538415	 0.144592
H	-2.0864144139	-0.278900388	 0.032964931	 0.13553
H	 1.307615368	-1.6768025491	-0.7860993052	 0.141801
H	 2.2550435231	-0.1918841186	-0.2573153916	 0.152886
H	 1.1609114188	-0.4125644152	 3.309448743	 0.108413
119.9641	141.6955	161.2502	183.6319	211.2118	214.8624	263.2104	318.8657	368.3178	395.6851	429.1968	535.3628	556.1933	574.8887	672.553	718.5492	821.2681	929.4375	946.1717	978.9121	1011.0522	1034.1164	1052.5636	1090.0737	1136.0659	1170.0166	1215.3386	1307.791	1358.1192	1414.3885	1428.3929	1431.6058	1473.5913	1483.8696	1485.8229	1508.7127	1512.1771	1804.4811	2345.1631	2931.2813	3037.1337	3041.7898	3096.0328	3103.2883	3130.9777	3136.9812	3157.2525	3233.5086
CC1(C)CC1(C=O)C#N	CC1(C)C[C@]1(C=O)C#N	
InChI=1S/C7H9NO/c1-6(2)3-7(6,4-8)5-9/h5H,3H2,1-2H3	InChI=1S/C7H9NO/c1-6(2)3-7(6,4-8)5-9/h5H,3H2,1-2H3/t7-/m1/s1
