15
gdb 130645	4.76465	1.32049	1.04744	1.5521	71.7	-0.2452	-0.0411	0.2042	1063.022	0.115474	-416.85538	-416.848662	-416.847718	-416.886863	25.794	
O	-0.0576110417	 0.068925294	 0.0057095692	-0.282559
C	-0.0294757061	 1.2663548233	 0.0114732585	 0.394941
C	-1.2771841311	 2.1792302764	 0.0326492808	-0.273969
N	-0.6781967869	 3.4899022817	 0.0310851272	 0.034786
N	-1.2605517728	 4.6976557978	 0.0443061739	-0.291361
C	-0.2226994512	 5.5388934363	 0.0345990005	 0.015409
C	 1.0226964723	 4.8683668837	 0.0147893583	-0.382763
C	 0.6804558583	 3.5316425432	 0.0132327556	 0.414702
C	 1.2413480483	 2.1485547911	-0.0007757089	-0.486842
H	-1.9033097163	 2.0001628666	-0.8480208389	 0.158753
H	-1.8795068452	 1.9913884487	 0.927981527	 0.15874
H	-0.4037416953	 6.6037770729	 0.0420040066	 0.115941
H	 2.0095238521	 5.3006879131	 0.0036682811	 0.109258
H	 1.8606501338	 1.9047178433	 0.86996523	 0.157481
H	 1.8379439519	 1.913247308	-0.8895111209	 0.157484
74.8254	188.698	238.3629	353.494	476.3748	525.3916	530.4798	641.9619	662.3269	735.3974	765.993	789.8629	824.3923	838.8939	889.7309	955.2901	1022.4012	1055.7983	1071.0817	1149.6201	1180.7693	1194.0749	1201.8419	1234.9452	1277.3298	1347.3186	1363.7181	1430.2862	1449.2929	1473.6613	1504.1935	1590.7099	1872.847	3043.5248	3047.61	3076.0631	3087.2335	3246.3907	3275.0463
O=C1CN2N=CC=C2C1	O=C1Cn2nccc2C1	
InChI=1S/C6H6N2O/c9-6-3-5-1-2-7-8(5)4-6/h1-2H,3-4H2	InChI=1S/C6H6N2O/c9-6-3-5-1-2-7-8(5)4-6/h1-2H,3-4H2
