16
gdb 77781	2.75338	1.37056	1.07358	3.4934	77.86	-0.2428	-0.0082	0.2346	1130.5181	0.122697	-400.710553	-400.702144	-400.7012	-400.743355	32.034	
C	 0.0800897003	 1.5729451889	 0.0446267462	-0.424722
C	 0.0920823919	 0.0623741001	 0.08853782	-0.049082
C	 1.3099398923	-0.8059326469	-0.2206767844	-0.304138
C	 2.5357038545	-0.147079841	 0.3999100935	 0.432897
O	 3.5817632677	 0.2790703463	 0.0030663126	-0.342822
N	 1.9685785135	-0.1831197749	 1.6846585326	-0.394447
C	 0.7089625178	-0.7652733095	 1.1968809672	 0.161207
C	 0.0276426082	-1.779511471	 1.9265612764	 0.230639
C	-0.5754185646	-2.6124048711	 2.5505018761	-0.390337
H	 0.9943104061	 2.0054344959	 0.458692454	 0.132191
H	-0.0109845583	 1.9214853109	-0.9888703266	 0.135954
H	-0.7707574992	 1.9669879409	 0.6096867534	 0.129059
H	-0.8185228363	-0.3974404897	-0.2921791311	 0.11162
H	 1.2904426721	-1.6145906249	-0.9372853734	 0.128803
H	 2.0267478679	 0.5747250915	 2.3555240224	 0.246817
H	-1.0949163139	-3.3583039755	 3.0996574411	 0.19636
113.8697	150.9036	155.0448	184.95	262.0589	358.225	428.2189	496.9019	501.2999	525.2826	536.865	588.6136	670.475	677.7562	723.4271	735.2548	825.9862	893.813	918.017	970.692	1003.0621	1050.6578	1093.9851	1114.1799	1131.7076	1219.2199	1240.6551	1295.6713	1330.5493	1411.2303	1439.7294	1488.6732	1499.1959	1901.7911	2239.2069	3041.57	3105.538	3117.2197	3136.4803	3228.0672	3501.2967	3550.6035
CC1C2C(=O)NC12C#C	C[C@H]1[C@H]2C(=O)N[C@@]12C#C	
InChI=1S/C7H7NO/c1-3-7-4(2)5(7)6(9)8-7/h1,4-5H,2H3,(H,8,9)	InChI=1S/C7H7NO/c1-3-7-4(2)5(7)6(9)8-7/h1,4-5H,2H3,(H,8,9)/t4-,5-,7-/m0/s1
