18
gdb 18288	3.19376	2.04395	1.7453	1.5869	72.3	-0.2278	0.0102	0.238	837.8447	0.156067	-347.799169	-347.792152	-347.791207	-347.83013	28.024	
O	-0.049259675	 1.4385487518	 0.083306224	-0.418812
C	-0.0160274161	 0.0454636219	 0.0350631303	 0.112046
C	-1.3014383968	-0.7575842614	 0.0248595137	-0.091074
C	-2.6248228151	 0.002297173	-0.00330041	-0.235965
C	-3.2389104173	 0.1253302094	-1.412186296	-0.244917
C	-2.2105174776	 0.4508020398	-2.4690694805	-0.06194
C	-0.9366206309	 0.0560059049	-2.3808650435	-0.092436
C	-0.4213652189	-0.7061224424	-1.2168035946	-0.130571
H	-0.4065516127	 1.7542818519	-0.7566206927	 0.28267
H	 0.8228493472	-0.3387872981	 0.6071634583	 0.098625
H	-1.293379369	-1.6881481978	 0.5831553551	 0.08213
H	-3.3400029459	-0.48071631	 0.668889549	 0.097229
H	-2.4549535405	 1.010054472	 0.3933585838	 0.115521
H	-3.7388100506	-0.8143000834	-1.6906328038	 0.113823
H	-4.0264582933	 0.8873541263	-1.4075477526	 0.101791
H	-2.5476627717	 0.9933657181	-3.348897924	 0.091251
H	-0.2350869528	 0.2874832647	-3.1794206717	 0.09116
H	 0.1697901969	-1.5854166407	-1.4586399848	 0.089469
107.5756	183.1772	256.161	339.5491	382.9657	480.2593	503.6654	568.952	600.6897	732.7338	741.774	773.9301	791.6151	843.6956	906.8775	957.8647	980.2445	1000.7657	1009.8343	1041.7617	1065.012	1089.8375	1117.0206	1124.2737	1196.2382	1212.6211	1221.9488	1271.462	1327.3439	1333.7591	1352.6414	1376.2881	1387.7076	1421.7016	1443.8799	1478.5956	1496.5662	1700.8699	2999.7547	3036.0787	3057.107	3082.5932	3132.8935	3142.6507	3148.9301	3161.521	3166.6997	3755.5136
OC1C2CCC=CC12	O[C@H]1[C@H]2CCC=C[C@@H]12	
InChI=1S/C7H10O/c8-7-5-3-1-2-4-6(5)7/h1,3,5-8H,2,4H2	InChI=1S/C7H10O/c8-7-5-3-1-2-4-6(5)7/h1,3,5-8H,2,4H2/t5-,6+,7-/m1/s1
