16
gdb 33416	2.47617	1.31217	0.94505	2.6864	68.88	-0.2858	0.0202	0.3059	1215.1968	0.123069	-437.84184	-437.833269	-437.832324	-437.876102	30.158	
N	 0.1669064556	-1.3046447491	 0.2142875677	-0.327912
C	 0.0536240025	-0.156573091	 0.1547423681	 0.292084
C	-0.1092639763	 1.2973811088	 0.0794973839	-0.230816
C	 1.204462961	 2.0454472848	 0.2941457487	 0.083046
C	 2.378692921	 1.4613514001	 0.9485772418	-0.190951
O	 2.314426153	 1.6052794477	-0.4763745481	-0.226967
C	-0.7170336515	 1.6963127647	-1.2634283724	 0.09207
C	-2.1656160989	 1.8133426176	-1.4435871494	-0.175409
O	-1.3424397591	 2.9741608745	-1.2745549777	-0.237225
H	-0.8092494732	 1.6052359104	 0.8666756683	 0.137446
H	 1.0639147829	 3.1259946273	 0.3216279426	 0.124002
H	 3.0877157306	 2.1171510498	 1.4501585795	 0.126719
H	 2.3405097376	 0.4364119419	 1.3105223559	 0.144062
H	-0.0856774862	 1.4807438925	-2.1242146307	 0.132468
H	-2.5959629009	 1.6865031885	-2.4345797076	 0.132429
H	-2.8309991778	 1.5878160415	-0.6116208906	 0.124951
67.1856	73.0471	135.2915	161.4338	180.9744	316.2867	361.3304	401.0426	479.3415	529.2862	656.8868	786.0345	852.1991	869.7384	892.3347	929.964	968.7765	981.9548	1069.8072	1095.2121	1112.5771	1136.5616	1160.1297	1169.1067	1173.4252	1178.1013	1252.59	1282.7238	1290.5428	1323.8974	1421.7339	1431.9037	1526.5716	1529.7281	2363.5789	3041.342	3093.2677	3097.9227	3119.1315	3131.9573	3184.406	3191.9289
N#CC(C1CO1)C1CO1	N#C[C@@H]([C@H]1CO1)[C@H]1CO1	
InChI=1S/C6H7NO2/c7-1-4(5-2-8-5)6-3-9-6/h4-6H,2-3H2	InChI=1S/C6H7NO2/c7-1-4(5-2-8-5)6-3-9-6/h4-6H,2-3H2/t5-,6-/m1/s1
