15
gdb 15975	2.94363	2.00462	1.35504	2.8493	61.99	-0.243	-0.032	0.211	892.3603	0.117589	-399.750645	-399.74309	-399.742146	-399.783654	26.858	
O	-0.5118202313	 1.3502043185	 1.0322128447	-0.249887
C	 0.2268692889	 0.9689303299	 0.1604953875	 0.147621
C	 1.5207030923	 1.6615196261	-0.2115764439	-0.14464
N	 2.333666629	 0.9409390557	-1.2185454656	-0.333753
C	 2.4808849036	 2.1538031406	-2.0689282353	-0.251377
C	 1.393576352	 2.8235277487	-1.2277593539	 0.416803
C	 0.2331658836	 3.6321994163	-1.594551207	-0.257507
O	 1.3602704593	 4.179448978	-0.8816044592	-0.250388
H	-0.0053915323	 0.0889346207	-0.4807275661	 0.087437
H	 2.0396416719	 1.9945090934	 0.6964986204	 0.107138
H	 3.2044797144	 0.5602315762	-0.8684860821	 0.230716
H	 3.440659529	 2.6773915076	-1.9721262296	 0.11565
H	 2.269483144	 1.9848066777	-3.1300039815	 0.117263
H	 0.1203167122	 3.9789260073	-2.6203029946	 0.123375
H	-0.6836279066	 3.5533692534	-1.0138085838	 0.14155
31.8838	98.2903	181.4279	248.8352	326.107	385.0142	453.6589	482.8371	584.4174	684.1244	856.4738	876.3509	904.7635	929.6652	984.5758	1009.5846	1024.8224	1080.6274	1120.8095	1130.1705	1137.7741	1159.962	1180.9111	1213.6939	1281.2418	1328.8162	1376.0373	1395.9922	1439.1153	1510.0564	1535.7683	1823.7212	2886.334	3019.6147	3031.9362	3071.8938	3091.9853	3185.784	3550.5501
O=CC1NCC11CO1	O=C[C@H]1NC[C@]21CO2	
InChI=1S/C5H7NO2/c7-1-4-5(2-6-4)3-8-5/h1,4,6H,2-3H2	InChI=1S/C5H7NO2/c7-1-4-5(2-6-4)3-8-5/h1,4,6H,2-3H2/t4-,5-/m1/s1
