17
gdb 32692	4.6033	0.99273	0.85802	6.2382	83.33	-0.2197	-0.035	0.1847	1353.4278	0.137562	-414.217426	-414.208978	-414.208034	-414.252226	30.352	
C	-0.0685496424	 1.6295958817	-0.0859564468	-0.357309
C	-0.0560856078	 0.097295362	-0.0660124128	-0.133336
N	-1.4139046733	-0.4108109326	-0.1188823984	-0.291708
C	-1.7693499025	-1.2091653335	-1.0418773583	 0.372248
N	-0.8949124179	-1.6712799224	-2.0675408398	-0.285372
C	-1.3516746006	-2.4959161699	-2.9253545886	 0.093535
N	-2.6459462856	-2.9641563707	-2.9201123121	-0.303328
C	-3.4842724749	-2.4791586188	-1.9322544609	 0.086871
N	-3.1175095378	-1.6543425593	-1.0344771043	-0.262725
H	 0.9446323125	 2.0248707827	 0.0415953468	 0.101148
H	-0.4630756089	 2.001456001	-1.037087491	 0.111412
H	-0.7014618319	 2.0200528112	 0.7159676821	 0.12293
H	 0.5809298904	-0.2875394213	-0.8713554216	 0.105149
H	 0.3785068195	-0.2363238293	 0.8867238034	 0.097157
H	-0.7176414546	-2.8760969786	-3.7259585905	 0.134586
H	-2.9734772215	-3.611438054	-3.6178154998	 0.272574
H	-4.5075875328	-2.8496258382	-1.9637741575	 0.136168
25.6897	46.8228	149.826	202.3976	285.9662	348.1211	404.5702	464.8884	506.3725	542.6217	598.6881	654.2589	773.8006	803.1179	822.9354	920.5247	953.9596	960.7816	997.2548	1046.71	1062.8407	1079.9217	1125.6409	1167.2919	1210.7127	1297.4858	1373.093	1400.9722	1404.7826	1428.5708	1467.8059	1487.7602	1493.3878	1509.6119	1651.4284	1715.6821	1751.0634	3003.475	3034.964	3050.3511	3104.0787	3117.0375	3135.0441	3147.9126	3652.4842
CCN=C1N=CNC=N1	CC[N]C1=NCNC=N1	
InChI=1S/C5H8N4/c1-2-7-5-8-3-6-4-9-5/h3-4H,2H2,1H3,(H,6,7,8,9)	InChI=1S/C5H9N4/c1-2-7-5-8-3-6-4-9-5/h3H,2,4H2,1H3,(H,6,8,9)
