17
gdb 70467	3.72245	1.01363	0.91518	2.5523	74.35	-0.2356	0.0511	0.2867	1287.7495	0.133155	-421.736751	-421.72798	-421.727035	-421.770355	33.17	
O	-0.1032039947	 1.4306702003	-0.1189185669	-0.453014
C	-0.0486984517	 0.0551787306	-0.039770593	 0.288829
C	-0.4103857801	-0.8767475589	-1.1795909961	-0.369614
C	-1.1540942023	-0.9528341637	 0.1271720218	 0.053889
O	-0.4099742838	-1.7141958794	 1.0811425173	-0.297209
C	 0.6462074479	-0.7104838944	 1.0905407056	 0.082286
C	 2.0514957084	-1.2775980105	 0.8935853995	-0.379857
C	 2.5034709111	-2.0870936857	 2.0182659858	 0.304232
C	 2.8616275222	-2.743225439	 2.9587920285	-0.437934
H	 0.4980498744	 1.7220288341	-0.8128761274	 0.291553
H	-0.956274455	-0.3757525337	-1.9740857398	 0.120056
H	 0.2286522439	-1.6966950698	-1.4947967303	 0.11755
H	-2.2259695451	-0.8674879846	 0.2540370501	 0.116962
H	 0.5952459105	-0.1375188383	 2.0241573105	 0.102808
H	 2.0801283126	-1.8692683657	-0.0282615011	 0.132262
H	 2.7356999652	-0.4296104964	 0.7499490454	 0.130562
H	 3.1782183965	-3.3302663849	 3.7847946503	 0.196641
60.0272	112.703	180.6459	217.5792	267.1909	336.8231	354.6026	375.0336	448.8914	499.2474	536.087	620.5923	640.1682	647.4742	752.9055	831.2051	862.9311	907.0111	955.0976	979.2223	1003.769	1015.5156	1036.9957	1056.4855	1081.0833	1127.0718	1202.0558	1228.1423	1235.75	1272.7284	1314.1522	1336.9374	1386.3989	1421.8607	1454.1336	1493.3422	2242.504	3016.18	3041.0061	3069.0126	3115.6172	3196.8039	3209.7122	3507.6273	3798.0737
OC12CC1OC2CC#C	O[C@]12C[C@H]1O[C@H]2CC#C	
InChI=1S/C7H8O2/c1-2-3-5-7(8)4-6(7)9-5/h1,5-6,8H,3-4H2	InChI=1S/C7H8O2/c1-2-3-5-7(8)4-6(7)9-5/h1,5-6,8H,3-4H2/t5-,6+,7-/m0/s1
