19
gdb 95850	2.41462	1.43698	1.14831	1.9073	76.59	-0.2595	0.0364	0.2959	1152.3957	0.158756	-422.996341	-422.987689	-422.986745	-423.029336	33.344	
C	 0.0220573844	 1.5467591546	 0.0591097155	-0.402761
C	 0.0289793305	 0.0324446882	-0.0598150538	 0.132719
C	 0.7873732711	-0.4904448961	-1.2849406535	-0.20455
C	 0.9171930516	-2.0110855987	-1.1915291926	-0.100401
O	 1.4869391877	-2.383135652	 0.063047664	-0.234135
C	 0.7621253803	-1.8749856091	 1.1565970309	-0.004333
O	 0.654009313	-0.4735190756	 1.1301646551	-0.250812
C	-0.5612512406	-2.5273151749	 1.2863265072	 0.321169
C	-1.6246127877	-3.0713303651	 1.4208449006	-0.450645
H	 1.0451207653	 1.9308250728	 0.1160728803	 0.125748
H	-0.4706296329	 1.9940894378	-0.8095757748	 0.114783
H	-0.5122230401	 1.8563357266	 0.9612623124	 0.127219
H	-1.0069038076	-0.3402222768	-0.094038405	 0.080173
H	 0.264480259	-0.2091213787	-2.2059593618	 0.098196
H	 1.785750663	-0.038788214	-1.3070407241	 0.109417
H	-0.065527891	-2.4908092381	-1.3120342073	 0.104246
H	 1.5891112099	-2.4113610231	-1.954344626	 0.113189
H	 1.3656714098	-2.1057367328	 2.0392528202	 0.121134
H	-2.5625463557	-3.5545700551	 1.5454272326	 0.199644
109.8977	123.9833	197.8219	222.7415	268.2345	303.1599	327.6568	426.3064	433.0452	498.9341	566.9492	595.2522	659.6301	668.8843	744.8396	800.3682	858.9741	877.363	959.8049	963.6266	990.7365	1004.5688	1049.8481	1085.3855	1139.4216	1173.2108	1184.6386	1243.2137	1280.8832	1338.5297	1357.2835	1372.2702	1382.2463	1400.954	1411.0879	1413.2341	1467.6347	1483.274	1500.0491	1503.7813	2228.1992	2985.1065	3002.4509	3036.1038	3043.0127	3075.5749	3085.8493	3101.0149	3116.7145	3122.4675	3499.4908
CC1CCOC(O1)C#C	C[C@H]1CCO[C@@H](O1)C#C	
InChI=1S/C7H10O2/c1-3-7-8-5-4-6(2)9-7/h1,6-7H,4-5H2,2H3	InChI=1S/C7H10O2/c1-3-7-8-5-4-6(2)9-7/h1,6-7H,4-5H2,2H3/t6-,7-/m0/s1
