17
gdb 126030	3.006	1.75307	1.16014	2.6802	74.17	-0.2129	0.034	0.247	1032.6603	0.138971	-418.026853	-418.019503	-418.018559	-418.058892	27.983	
C	 0.0071908839	 1.5765127018	 0.0201144817	-0.406332
C	 0.0441286309	 0.0549832291	 0.0809856064	 0.011981
C	 0.7913678306	-0.6224859993	-1.1079036561	-0.111688
O	 1.5596473391	-1.7278918398	-0.562354425	-0.28359
C	 1.6376664823	-1.4981535008	 0.7668341137	 0.486597
C	 2.238112675	-2.0298504762	 1.8845626328	-0.407727
C	 1.7065062568	-1.2195820635	 2.9266349082	 0.024129
N	 0.859975341	-0.2822430759	 2.4991526582	-0.312398
N	 0.8622992394	-0.4708906627	 1.1573865506	 0.010149
H	 1.0169837129	 1.9846985177	-0.0827948513	 0.130064
H	-0.5970920412	 1.9101428484	-0.8291074503	 0.123562
H	-0.4342038339	 1.9768737954	 0.9359067003	 0.15359
H	-0.9785327271	-0.3359626157	 0.1711301656	 0.104872
H	 0.1207972698	-1.022996264	-1.8690811381	 0.132415
H	 1.4892219444	 0.0844884072	-1.5716898312	 0.122725
H	 2.9347436943	-2.8467181636	 1.9525000383	 0.111306
H	 1.9256983618	-1.2904714981	 3.982703146	 0.110345
89.9485	133.9401	212.2711	264.2094	314.8241	428.1846	502.6099	614.3213	650.1419	685.7884	713.8698	748.2161	755.0266	881.7409	905.6457	942.6673	950.0026	985.4	1041.6105	1059.789	1111.0775	1140.8297	1156.9169	1218.3236	1242.9441	1309.493	1333.3768	1349.5341	1358.0087	1397.9847	1411.4663	1445.4669	1487.1468	1498.5215	1506.949	1537.0153	1618.5607	3008.8985	3039.2156	3044.9173	3117.9222	3128.1789	3132.0842	3237.9501	3288.0157
CC1COC2=CC=NN12	C[C@H]1COc2ccnn12	
InChI=1S/C6H8N2O/c1-5-4-9-6-2-3-7-8(5)6/h2-3,5H,4H2,1H3	InChI=1S/C6H8N2O/c1-5-4-9-6-2-3-7-8(5)6/h2-3,5H,4H2,1H3/t5-/m0/s1
