21
gdb 89275	2.24428	1.77834	1.3148	1.1774	82.58	-0.2429	0.0187	0.2616	1071.1044	0.182811	-387.094167	-387.085614	-387.08467	-387.126887	33.996	
C	 0.5668221985	 1.5664899851	-0.1722138218	-0.405592
C	 0.0437582941	 0.1461169217	 0.0115712823	 0.03031
C	 0.5889447247	-0.9097461174	-1.0007622498	-0.312286
C	 1.3274612048	-1.628025048	 0.1663410093	 0.393887
O	 1.0614520144	-3.0116971895	 0.3254028628	-0.482088
C	 2.7842933408	-1.2776707645	 0.3521080503	-0.156639
C	 2.9848887426	-0.4861686906	 1.4055092017	-0.052313
C	 1.7010134678	-0.1178990413	 2.1162539633	-0.286994
C	 0.6132385632	-0.7131136347	 1.2015416794	-0.064142
H	 1.6605279129	 1.5958919554	-0.2092403935	 0.119985
H	 0.1946010278	 1.9856162301	-1.1136887274	 0.111246
H	 0.2364545005	 2.2293574092	 0.635206544	 0.111562
H	-1.0493597293	 0.1750519568	 0.0294489303	 0.07145
H	-0.1925656689	-1.5440870841	-1.4268323114	 0.097363
H	 1.2162126921	-0.5212293963	-1.8093899939	 0.086925
H	 1.5752107786	-3.4937870965	-0.3319180514	 0.271863
H	 3.560454665	-1.6638455466	-0.3028056658	 0.084057
H	 3.9550332383	-0.1334978881	 1.7416020513	 0.093346
H	 1.6751675271	-0.5428449273	 3.1284584023	 0.106892
H	 1.5969693244	 0.9664843918	 2.240310434	 0.105488
H	-0.1773862192	-1.2251449652	 1.7514538638	 0.07568
79.7297	190.8665	208.8338	251.9345	259.7875	284.4366	338.5897	397.4123	461.7093	482.5804	623.5967	645.1691	746.6225	755.2803	784.6438	833.7979	861.0404	891.369	931.9773	956.729	973.362	994.351	1002.2542	1028.4661	1077.0767	1096.8276	1120.0003	1137.2725	1157.7029	1170.4372	1209.7263	1237.3283	1263.6954	1275.5782	1304.3813	1317.935	1353.2872	1371.4336	1383.955	1406.2248	1473.0582	1479.1071	1497.3886	1502.5198	1677.6381	3019.1197	3026.4831	3044.3953	3052.4217	3053.7668	3088.9667	3100.3248	3102.2996	3107.7161	3162.5499	3190.6372	3799.1466
CC1CC2(O)C=CCC12	C[C@H]1C[C@@]2(O)C=CC[C@@H]12	
InChI=1S/C8H12O/c1-6-5-8(9)4-2-3-7(6)8/h2,4,6-7,9H,3,5H2,1H3	InChI=1S/C8H12O/c1-6-5-8(9)4-2-3-7(6)8/h2,4,6-7,9H,3,5H2,1H3/t6-,7-,8-/m0/s1
