21
gdb 98836	3.06107	1.02652	0.92862	3.192	78.77	-0.2459	-0.0209	0.2251	1378.5681	0.180218	-424.234302	-424.224172	-424.223228	-424.270828	35.739	
C	-0.2182062476	 1.903502083	 1.0187415873	-0.37896
C	-0.2410354282	 0.3780098514	 1.0017702233	-0.285557
C	 1.0885494925	-0.2620751672	 1.3721996345	 0.378053
O	 2.0875809608	 0.3957521659	 1.5666505405	-0.307586
C	 1.0897684156	-1.7729787331	 1.5118356173	-0.178443
C	 2.4610242434	-2.47127777	 1.483385004	-0.083592
O	 2.3132974557	-2.958604463	 2.8324081576	-0.285986
C	 1.0204678548	-2.3385655722	 2.9783645858	 0.159388
C	 0.9747091607	-1.3814555119	 4.1532839288	-0.414121
H	 0.5424250522	 2.2872162467	 0.3345618714	 0.135213
H	-1.1896117005	 2.3093144601	 0.7232327431	 0.111079
H	 0.0247905551	 2.2795706859	 2.016048409	 0.130621
H	-1.0098611107	-0.0227433636	 1.6777849884	 0.121876
H	-0.5182932545	-0.0045375506	 0.0084452054	 0.125087
H	 0.3319577032	-2.215726246	 0.862337371	 0.082134
H	 2.5560750978	-3.2881416316	 0.7587664422	 0.098446
H	 3.3054829471	-1.7816122261	 1.3872117591	 0.125088
H	 0.2351053063	-3.100097347	 3.0809890575	 0.079355
H	 1.7173716923	-0.5875026056	 4.0441184399	 0.146545
H	-0.0193059289	-0.930987142	 4.2548245727	 0.111034
H	 1.1905568528	-1.9336533433	 5.0731961911	 0.130324
33.1108	59.6107	68.3631	148.5281	193.192	195.0354	247.3	306.1332	339.7929	364.1067	441.4028	563.8427	638.6606	743.0372	756.5674	809.8441	880.7016	890.1628	944.1448	982.4043	1009.784	1029.7884	1057.8428	1094.4932	1104.229	1110.4486	1136.8807	1146.0815	1180.1526	1223.6007	1277.596	1285.1849	1348.6987	1359.7921	1373.3642	1392.8073	1407.2835	1413.3533	1447.5768	1483.2189	1491.7847	1495.4079	1497.1878	1515.5106	1796.9252	3000.8939	3010.0935	3027.7623	3034.767	3036.6094	3051.8786	3080.9521	3093.0221	3104.3221	3122.1898	3128.7704	3130.2874
CCC(=O)C1COC1C	CCC(=O)[C@H]1CO[C@H]1C	
InChI=1S/C7H12O2/c1-3-7(8)6-4-9-5(6)2/h5-6H,3-4H2,1-2H3	InChI=1S/C7H12O2/c1-3-7(8)6-4-9-5(6)2/h5-6H,3-4H2,1-2H3/t5-,6-/m0/s1
