17
gdb 42447	4.3389	0.82418	0.79899	1.527	76.1	-0.2715	0.0096	0.2811	1478.8871	0.133912	-421.810181	-421.800968	-421.800024	-421.845934	32.806	
O	 0.3432371931	 0.3275994485	-0.8489517761	-0.377858
C	 0.0963275282	 1.2119177121	-0.065153938	 0.472496
O	 0.9953695374	 1.7148976745	 0.8192564096	-0.248497
C	 2.3217983557	 1.1536320191	 0.7580979725	-0.22263
C	 3.2009628222	 1.9365996315	-0.0995704262	 0.326279
C	 3.938357121	 2.580168078	-0.7954088114	-0.462206
C	-1.2133453281	 1.8905345645	 0.0790162929	-0.132709
C	-2.0381731466	 2.0694194027	-1.1854306495	-0.249091
C	-2.4568913748	 1.0545938624	-0.1763982276	-0.251425
H	 2.684911863	 1.1584677162	 1.7894453781	 0.142829
H	 2.2573111192	 0.1227551102	 0.4000197319	 0.164104
H	 4.5885363788	 3.1436595797	-1.4180609245	 0.206734
H	-1.2575569059	 2.6628618601	 0.8354248868	 0.106366
H	-2.6039724331	 2.9894303225	-1.2733531694	 0.12186
H	-1.5853068845	 1.7085589221	-2.1011334612	 0.141984
H	-2.2873114561	 0.0112659472	-0.4145645786	 0.14028
H	-3.3187524797	 1.2577734488	 0.4483595809	 0.121485
25.3644	51.0023	90.4758	198.7733	221.0523	293.6399	308.3539	344.092	380.2302	589.6472	614.047	658.4598	682.763	757.2578	785.8911	834.5111	843.2238	913.4854	920.3887	956.9387	1020.9284	1046.3547	1064.8858	1094.4752	1117.5253	1130.0203	1179.9434	1208.8365	1223.9271	1295.7891	1382.1404	1423.045	1456.5641	1467.2054	1490.7467	1810.2871	2244.6501	3063.4286	3111.7447	3144.9399	3147.613	3201.2936	3232.4111	3247.0119	3505.0843
O=C(OCC#C)C1CC1	O=C(OCC#C)C1CC1	
InChI=1S/C7H8O2/c1-2-5-9-7(8)6-3-4-6/h1,6H,3-5H2	InChI=1S/C7H8O2/c1-2-5-9-7(8)6-3-4-6/h1,6H,3-5H2
