12
gdb 50798	5.12839	0.60302	0.55224	2.0919	72.03	-0.294	-0.1016	0.1924	1828.9279	0.074235	-472.612743	-472.60352	-472.602576	-472.649445	29.318	
N	-0.0457357474	 1.4237216196	 0.2737560255	-0.50084
C	 0.0216362741	 0.1978273415	-0.0380209728	 0.246287
O	-1.0732714557	-0.5089199372	-0.4563563602	-0.197192
C	-2.3355774222	-0.0399898371	-0.1307195512	 0.178297
O	-3.3005145683	-0.5538993339	-0.5929874835	-0.237532
C	 1.2005683912	-0.616635034	-0.0476308754	 0.087673
C	 2.2269497292	-1.2536472243	-0.0400250584	 0.086869
C	 3.4489258613	-2.0298268116	-0.057355346	 0.019208
O	 4.1302103184	-2.2241130051	 0.9196881904	-0.20744
H	 0.859073917	 1.7790725705	 0.5756832034	 0.256004
H	-2.3026505217	 0.7958172873	 0.5781771241	 0.146658
H	 3.7116494841	-2.4382625558	-1.0522751161	 0.122007
23.7176	67.6933	75.6517	109.4621	143.0824	218.9241	288.5167	326.834	407.6214	511.9922	624.0399	678.9479	725.1164	856.5556	866.5619	1017.2081	1020.5132	1044.9869	1071.551	1120.2942	1339.2714	1401.1311	1416.8773	1693.6929	1772.5946	1882.4442	2322.6827	2944.965	3085.681	3526.8312
N=C(OC=O)C#CC=O	[NH][C](OC=O)C#CC=O	
InChI=1S/C5H3NO3/c6-5(9-4-8)2-1-3-7/h3-4,6H	InChI=1S/C5H3NO3/c6-5(9-4-8)2-1-3-7/h3-4,6H
