20
gdb 33074	4.67363	0.7505	0.67866	0.9903	82.74	-0.1786	0.0651	0.2437	1687.9746	0.170862	-403.190816	-403.181149	-403.180204	-403.225851	35.671	
C	 0.0278171526	 1.5845184471	-0.0417491806	-0.378246
C	 0.1029674653	 0.0560124732	-0.0572732913	-0.146387
C	 0.6262541833	-0.5336531223	 1.2660152657	-0.305901
C	 0.7134237583	-2.0316258866	 1.2680528684	 0.309862
C	-0.0745511029	-2.8930965709	 1.9881649403	-0.202633
N	 0.3143143848	-4.188681042	 1.6843757518	-0.296241
C	 1.3390898673	-4.1458199106	 0.7876627241	 0.395926
O	 1.8616255137	-5.3302571015	 0.3751610432	-0.436645
C	 1.6226813765	-2.834159356	 0.4965184801	-0.40346
H	 1.0135477057	 2.0288405497	 0.1379385117	 0.110558
H	-0.3453771074	 1.9772456286	-0.9929852704	 0.107867
H	-0.6412323062	 1.9404022755	 0.7501283106	 0.110828
H	-0.887795254	-0.3663849013	-0.2648281193	 0.095963
H	 0.7500542514	-0.275110566	-0.8789603753	 0.094753
H	 1.6137959509	-0.099112305	 1.4766482885	 0.094328
H	-0.0278917136	-0.2081974127	 2.0849002131	 0.090792
H	-0.8724712635	-2.7037478001	 2.6874198024	 0.109528
H	-0.0634724163	-5.0358351852	 2.0700896168	 0.262731
H	 2.567062624	-5.1441117022	-0.2512392856	 0.306318
H	 2.3857723402	-2.4814644319	-0.1811578541	 0.080058
53.4073	83.5507	98.737	222.2462	243.7331	247.0414	286.106	309.1494	356.7503	440.4225	446.0307	617.4557	636.8382	676.6016	684.3201	740.2515	745.393	772.3733	873.8854	895.7657	984.9754	1012.9051	1043.8559	1083.7455	1111.6034	1115.6914	1169.8259	1188.3914	1247.9771	1283.063	1315.3014	1321.2047	1345.0239	1383.9135	1410.8371	1420.385	1479.3244	1492.0391	1499.7214	1510.1587	1542.2428	1576.5623	1638.3992	3001.9426	3025.7553	3027.6589	3039.2153	3063.0668	3093.7623	3098.3549	3235.5735	3265.464	3690.26	3851.5357
CCCC1=CNC(O)=C1	CCCc1c[nH]c(O)c1	
InChI=1S/C7H11NO/c1-2-3-6-4-7(9)8-5-6/h4-5,8-9H,2-3H2,1H3	InChI=1S/C7H11NO/c1-2-3-6-4-7(9)8-5-6/h4-5,8-9H,2-3H2,1H3
