18
gdb 8517	4.20566	1.82823	1.59845	1.0947	71.59	-0.2336	0.0779	0.3115	865.5559	0.153335	-347.758399	-347.751008	-347.750064	-347.789366	29.503	
C	-0.0846488839	 1.46016017	-0.0056047053	-0.50285
C	 0.0402257662	-0.0339826257	-0.0162507445	 0.358168
C	 0.9625573736	-0.8781703525	-0.9003531944	-0.348242
C	 0.0941407467	-2.088203159	-0.4497167252	 0.390552
O	-0.1254377148	-3.1833453182	-1.2707024896	-0.480259
C	 0.4170917831	-2.2400169251	 1.0659272106	-0.300295
C	-0.2895209476	-0.8940062033	 1.2193443796	-0.103055
C	-1.0556832753	-1.0738493956	-0.0729775635	-0.174493
H	 0.8246310777	 1.9347432288	 0.3823673023	 0.117993
H	-0.2610105827	 1.8532448305	-1.0133361125	 0.117666
H	-0.9199166493	 1.7808127479	 0.6267291855	 0.117353
H	 0.7993941503	-0.6578069267	-1.9597792328	 0.097208
H	 2.0379219797	-0.9045668222	-0.6804496757	 0.076861
H	 0.7086826081	-3.65452845	-1.3777649225	 0.2795
H	-0.1709002589	-3.0500932903	 1.5066312074	 0.101514
H	 1.4699611022	-2.3312383469	 1.3613275984	 0.07972
H	-0.6447789778	-0.4311907285	 2.1315284676	 0.082305
H	-2.1073707572	-1.0228266531	-0.3140065154	 0.090355
171.2903	205.9593	211.3983	269.3566	333.1016	384.4923	448.3481	460.8844	572.5518	633.2834	739.1093	753.0736	816.9876	867.9892	892.5422	900.5758	946.4962	957.7734	982.9308	1031.0867	1051.3977	1068.0347	1100.138	1115.9617	1154.791	1161.9502	1193.6556	1226.5669	1250.6622	1268.8783	1317.5468	1377.9379	1405.1931	1427.3328	1486.2351	1490.1627	1498.7122	1510.7717	3011.8963	3019.3463	3022.9862	3079.3254	3088.9608	3090.4597	3096.2698	3190.6237	3225.8107	3795.5171
CC12CC3(O)CC1C23	C[C@@]12C[C@@]3(O)C[C@@H]1[C@@H]23	
InChI=1S/C7H10O/c1-6-3-7(8)2-4(6)5(6)7/h4-5,8H,2-3H2,1H3	InChI=1S/C7H10O/c1-6-3-7(8)2-4(6)5(6)7/h4-5,8H,2-3H2,1H3/t4-,5+,6-,7+/m1/s1
