14
gdb 14594	5.67746	0.854	0.78107	5.2082	65.39	-0.2455	-0.0339	0.2116	1371.5644	0.104811	-415.879687	-415.871116	-415.870172	-415.91439	28.203	
O	 0.9146331429	-0.1191333293	 0.5231306465	-0.235731
C	 0.5227051563	 0.775222583	-0.1783998488	 0.154667
C	 0.5921434298	 2.2483810493	 0.2112278256	-0.231648
N	 0.6514723692	 3.0800322361	-0.9672015135	-0.18028
C	 1.594944768	 3.9150951339	-1.0436728659	 0.107007
N	 1.7980867758	 4.7804222163	-2.1156317929	-0.322507
C	 1.0568572916	 4.9193159945	-3.2816762802	 0.16691
O	 0.0774433947	 4.2967672483	-3.5872152464	-0.256024
H	 0.0584213168	 0.596128747	-1.1717608644	 0.103424
H	-0.347098742	 2.4613001476	 0.7461682287	 0.142118
H	 1.4182406363	 2.3889411898	 0.9266413356	 0.109341
H	 2.3604575725	 4.0512218444	-0.265666806	 0.097661
H	 2.5953594843	 5.3927719858	-2.0340589607	 0.260232
H	 1.5042342237	 5.7100895832	-3.9180353976	 0.08483
49.9161	54.3673	115.1341	149.3456	185.0725	267.2467	357.1804	410.0323	442.4148	587.9632	592.7757	737.304	877.9068	975.2928	988.6372	1024.0696	1043.7274	1083.6872	1115.6564	1215.0296	1242.5675	1320.2858	1402.23	1418.2861	1449.9869	1457.7207	1530.3013	1761.0946	1838.3292	1852.3343	2913.6414	2925.1321	2971.0807	3008.0916	3015.8993	3627.0491
O=CCN=CNC=O	O=CCN=CNC=O	
InChI=1S/C4H6N2O2/c7-2-1-5-3-6-4-8/h2-4H,1H2,(H,5,6,8)	InChI=1S/C4H6N2O2/c7-2-1-5-3-6-4-8/h2-4H,1H2,(H,5,6,8)
