21
gdb 122744	4.18635	0.4866	0.46472	2.3449	86.37	-0.2493	0.0342	0.2835	2431.1593	0.179817	-424.185898	-424.17468	-424.173736	-424.226226	37.989	
C	 0.5332427476	 1.0811693031	 0.4023580269	-0.365318
C	-0.4169728363	 0.207199496	-0.4361503818	-0.316747
C	 0.2218735048	-0.3755544043	-1.6109930457	 0.159682
C	 0.7711985744	-0.8503324929	-2.5712976974	-0.02408
C	 1.42023859	-1.4073698196	-3.7490254997	-0.204012
O	 1.9412840942	-2.6942961344	-3.4589187697	-0.258052
C	 2.5601143484	-3.309649035	-4.5753315739	-0.05969
C	 2.9032823583	-4.7281501388	-4.1478906197	-0.059568
O	 1.7462132994	-5.4417874069	-3.7631548425	-0.421411
H	 1.3851356411	 0.4960521281	 0.7588365166	 0.130933
H	 0.9207666817	 1.9137214214	-0.1910363106	 0.127879
H	 0.0081393602	 1.4911414691	 1.2701832526	 0.115391
H	-0.8226296489	-0.599402487	 0.1878667699	 0.133777
H	-1.2822687903	 0.8029902474	-0.7540137038	 0.131087
H	 0.7011336449	-1.4705380428	-4.5836395593	 0.117704
H	 2.2321404279	-0.7395123797	-4.0839712152	 0.116055
H	 1.8667291953	-3.3323537536	-5.4316538517	 0.095441
H	 3.4656322981	-2.7586804053	-4.8793539702	 0.087782
H	 3.3568444379	-5.2675831202	-4.9859492703	 0.107351
H	 3.6427411869	-4.6861495154	-3.3322222124	 0.09468
H	 1.2792139445	-4.8648827093	-3.1466775321	 0.291116
4.7221	43.6604	67.9338	91.504	132.2229	166.0652	204.9725	253.9206	291.9856	340.8644	351.2423	438.3043	470.1334	523.922	563.5977	758.78	783.0869	875.2155	910.3969	966.2759	1026.945	1045.2688	1079.1165	1085.2801	1103.2269	1134.0574	1139.5142	1176.2779	1238.9574	1251.0066	1266.2213	1286.4528	1350.7855	1375.6867	1387.3679	1409.4074	1433.8222	1445.3171	1471.9191	1494.2249	1494.8117	1499.8397	1505.2414	1516.26	2372.9033	2951.7067	2965.4797	2971.5915	2978.3192	3006.4016	3021.8544	3045.0635	3049.3267	3078.414	3118.3243	3124.9122	3790.5064
CCC#CCOCCO	CCC#CCOCCO	
InChI=1S/C7H12O2/c1-2-3-4-6-9-7-5-8/h8H,2,5-7H2,1H3	InChI=1S/C7H12O2/c1-2-3-4-6-9-7-5-8/h8H,2,5-7H2,1H3
