18
gdb 55374	3.15238	1.32251	1.17919	5.1944	70.87	-0.2451	0.024	0.2691	1088.9595	0.150543	-439.113212	-439.105678	-439.104734	-439.145499	29.364	
O	-0.1646818238	-0.0058044732	 0.1168198936	-0.369156
C	-0.0381804483	 1.3181542692	-0.0684620246	 0.431301
O	 1.0197358429	 1.8675534282	-0.2132438245	-0.347482
C	-1.3785011193	 2.0709104463	-0.0325402307	-0.148243
N	-2.507130452	 1.1324318084	-0.1885946497	-0.342769
H	-2.7235452227	 0.9600694391	-1.163314005	 0.239327
H	-1.1346531577	-0.1573279799	 0.1603036274	 0.300168
C	-3.6772771025	 1.6525579139	 0.5498002466	-0.179446
C	-3.0706920004	 2.4452300818	 1.6922076195	-0.039023
C	-1.9600227969	 1.7921886512	 2.4736523717	-0.290395
C	-1.6301087712	 2.7170257959	 1.3272920671	-0.013679
H	-1.3350028282	 2.8537856857	-0.8008858026	 0.097083
H	-4.2969788272	 2.3204516943	-0.0671402937	 0.100602
H	-4.3085898634	 0.8191674067	 0.878886382	 0.113944
H	-3.6855864656	 3.1983114145	 2.1698815856	 0.095481
H	-1.7711164495	 2.1704802132	 3.4718773745	 0.12116
H	-1.7851913602	 0.7276189748	 2.3615183048	 0.123067
H	-1.143275114	 3.66253688	 1.525883648	 0.10806
89.3177	127.3244	185.6805	300.9665	342.5765	384.1799	450.3297	604.833	647.7199	659.8036	725.5083	788.8137	817.2115	845.3197	888.7178	906.1198	920.2145	947.1722	998.9173	1003.6131	1034.8058	1074.3172	1078.0496	1102.4677	1116.1491	1129.3411	1198.8016	1218.0539	1238.7025	1277.6918	1313.2073	1324.4041	1352.532	1395.0118	1426.0622	1440.7789	1488.1751	1521.9681	1874.3284	2990.0126	3021.7333	3053.1991	3139.271	3184.7959	3203.6	3224.7445	3474.2047	3550.045
[O-]C(=O)C1[NH2+]CC2CC12	OC(=O)[C@H]1NC[C@H]2C[C@@H]12	
InChI=1S/C6H9NO2/c8-6(9)5-4-1-3(4)2-7-5/h3-5,7H,1-2H2,(H,8,9)	InChI=1S/C6H9NO2/c8-6(9)5-4-1-3(4)2-7-5/h3-5,7H,1-2H2,(H,8,9)/t3-,4-,5+/m1/s1
