17
gdb 23312	3.16599	1.2318	0.97076	2.0242	72.07	-0.238	0.0032	0.2411	1185.2079	0.136822	-455.083948	-455.075925	-455.074981	-455.116713	31.143	
O	-0.03475592	 1.3111787289	-0.0145897652	-0.389308
N	 0.0226033715	-0.0883490921	-0.1154356062	-0.249967
C	-1.1241651083	-0.614007392	 0.0549517336	 0.464979
C	-2.4489226899	 0.0345022784	 0.3823585422	-0.357755
C	-3.3140256771	-1.086403148	 1.0400005967	 0.146412
O	-4.6638453044	-1.0832850858	 0.6260247064	-0.44067
C	-2.5998246684	-2.3899943987	 0.6909115852	-0.075062
N	-2.4680914751	-2.5109635408	-0.7730404973	-0.355702
C	-1.2943311495	-2.0883781418	 0.0517987574	-0.142972
H	 0.8890391172	 1.560694926	-0.1238193219	 0.307463
H	-2.3155705689	 0.9062710116	 1.0256531877	 0.133825
H	-2.938504542	 0.3848458729	-0.5322716383	 0.134305
H	-3.334937186	-0.956253787	 2.1265197547	 0.095098
H	-4.6538123229	-1.3635960927	-0.2986178848	 0.288054
H	-2.765586764	-3.2794471824	 1.2890566264	 0.096013
H	-2.3445417572	-3.4895311272	-1.0219767825	 0.240952
H	-0.429639185	-2.7372091893	 0.1155148859	 0.104334
69.9032	141.3277	198.7873	269.1991	364.5172	390.9439	441.2572	452.1099	464.4955	535.3426	577.8992	652.8074	690.5016	807.301	845.8564	867.2491	880.5516	915.5127	967.2514	986.9491	1014.5434	1060.0701	1095.1937	1118.2271	1147.7877	1163.3184	1231.5746	1251.0396	1263.8094	1316.4537	1332.2714	1348.2231	1395.8697	1428.9791	1441.4887	1463.4357	1759.0031	3061.7578	3065.9727	3118.5187	3172.4504	3198.6663	3502.671	3767.9687	3818.8191
ON=C1CC(O)C2NC12	ON=C1C[C@@H](O)[C@H]2N[C@@H]12	
InChI=1S/C5H8N2O2/c8-3-1-2(7-9)4-5(3)6-4/h3-6,8-9H,1H2	InChI=1S/C5H8N2O2/c8-3-1-2(7-9)4-5(3)6-4/h3-6,8-9H,1H2/t3-,4+,5-/m1/s1
