19
gdb 73218	2.12631	1.89627	1.44767	4.2257	74.14	-0.2581	0.0131	0.2712	1006.6247	0.160409	-423.070217	-423.062159	-423.061215	-423.102792	30.889	
C	-0.0315754894	 1.5297088059	-0.0294899112	-0.475918
C	-0.0048308993	 0.011034066	 0.060252864	 0.172698
C	-1.3208612963	-0.7295289463	 0.4457944647	-0.262564
C	-0.4980001134	-1.6638469486	 1.3760199549	-0.237591
C	 0.7400569582	-0.7345546985	 1.2030051662	-0.070267
C	 1.9717664474	-1.3414599578	 0.5365881377	-0.104858
O	 1.6754182688	-1.395358348	-0.8716091491	-0.228101
C	 0.617125086	-0.6014541645	-1.1963387705	 0.414876
O	 0.2635639433	-0.4455239361	-2.3301337759	-0.355994
H	 0.9771030305	 1.9487358082	-0.1150470235	 0.121475
H	-0.5977154103	 1.8405263593	-0.9127200113	 0.146256
H	-0.5047250625	 1.9607098796	 0.8582469634	 0.114646
H	-1.9943582709	-0.0703591005	 1.0001405313	 0.10576
H	-1.8781782233	-1.1887149312	-0.3733885019	 0.121606
H	-0.8695696889	-1.7787570127	 2.3957483995	 0.106473
H	-0.3376140618	-2.6604942274	 0.9548387097	 0.114284
H	 0.986083631	-0.1436427844	 2.0864458483	 0.07966
H	 2.8697391618	-0.7280081389	 0.6753710869	 0.115416
H	 2.1899572692	-2.3604718943	 0.8690695568	 0.122143
82.6393	160.1592	206.0672	222.1011	256.2596	282.0634	371.2734	493.9573	588.4566	625.3346	702.5066	730.9335	759.1819	809.0338	827.3618	876.6605	923.6093	950.2541	978.4883	1008.2939	1032.796	1081.7836	1104.9472	1146.6719	1163.671	1175.3099	1205.7529	1238.5564	1245.9514	1255.789	1273.6254	1316.7133	1333.3479	1397.0343	1407.8943	1479.0955	1489.4377	1492.08	1499.2059	1518.9773	1869.272	3031.3169	3034.6237	3061.1037	3063.7137	3088.9739	3097.6085	3098.9425	3112.0206	3114.2226	3126.5253
CC12CCC1COC2=O	C[C@]12CC[C@H]1COC2=O	
InChI=1S/C7H10O2/c1-7-3-2-5(7)4-9-6(7)8/h5H,2-4H2,1H3	InChI=1S/C7H10O2/c1-7-3-2-5(7)4-9-6(7)8/h5H,2-4H2,1H3/t5-,7-/m0/s1
