19
gdb 68839	2.74503	1.43249	1.21885	1.3105	76.43	-0.2256	0.0667	0.2923	1096.0683	0.157754	-422.97154	-422.962865	-422.961921	-423.004237	34.253	
O	-0.1883179798	 1.4271731352	 0.0500019385	-0.462672
C	-0.0872826866	 0.0511816734	-0.0249240823	 0.308475
C	-0.2756674503	-0.8542358846	 1.1751119528	-0.386977
C	-1.2065981328	-0.9977111758	 0.002867551	 0.278878
O	-2.5689608771	-0.9135490929	 0.1980607378	-0.448686
C	-0.522034654	-1.7529822245	-1.1188864504	 0.326817
C	-0.4589267241	-3.2356783898	-1.3290677287	-0.32862
C	-1.2270356857	-2.3558692574	-2.2958603319	-0.346407
C	 0.6129928718	-0.702135891	-1.1669926994	-0.387611
H	 0.5040768279	 1.7556357564	 0.6338263865	 0.286578
H	 0.4417296612	-1.6303755178	 1.4358365802	 0.103289
H	-0.742624361	-0.3501315399	 2.0163753995	 0.11788
H	-2.9553365797	-0.4986884677	-0.5819665648	 0.289207
H	 0.4765222623	-3.6666744601	-1.6710837453	 0.111035
H	-1.0292528624	-3.8726624927	-0.6604805001	 0.11767
H	-2.3114312802	-2.4085585065	-2.2648426803	 0.110203
H	-0.8139041911	-2.1935263064	-3.2863187998	 0.112102
H	 0.6111452626	-0.1240764061	-2.0953323044	 0.107377
H	 1.626952859	-1.0657346419	-0.9650453389	 0.091462
111.5035	172.526	212.8539	219.4639	248.7979	334.0006	356.4254	389.4733	420.6669	486.7887	488.5134	598.5951	653.4707	739.8822	774.4359	799.9373	839.0248	868.0261	919.4496	935.2445	971.8189	999.4358	1034.9573	1051.394	1065.7894	1079.077	1112.0722	1142.5053	1190.2273	1194.243	1212.0325	1219.3252	1287.8348	1310.1244	1369.0913	1396.0347	1419.211	1459.1133	1479.1366	1501.4624	1522.9293	3033.5279	3094.6471	3095.5664	3118.7938	3125.0069	3197.8878	3198.6961	3214.1426	3788.8002	3792.0112
OC12CC1(O)C1(CC1)C2	O[C@@]12C[C@]1(O)C1(CC1)C2	
InChI=1S/C7H10O2/c8-6-3-5(1-2-5)7(6,9)4-6/h8-9H,1-4H2	InChI=1S/C7H10O2/c8-6-3-5(1-2-5)7(6,9)4-6/h8-9H,1-4H2/t6-,7-/m0/s1
