20
gdb 61849	2.56537	1.14131	0.92125	3.5355	77.73	-0.2472	0.0225	0.2698	1338.5789	0.169762	-440.264175	-440.254575	-440.253631	-440.29977	33.936	
C	-0.0644427649	 1.5573884633	 0.1645682244	-0.396521
C	-0.0040385449	 0.040042943	 0.0142462552	 0.086601
O	 0.5977203069	-0.549119313	 1.1777257637	-0.193395
C	 1.9389174233	-0.6441333287	 1.200692647	 0.1305
N	 2.526850303	-1.0938098802	 2.2235473458	-0.445023
C	-1.3944185053	-0.5679344363	-0.141648494	 0.144984
C	-1.5526308709	-2.0818781844	 0.1209000615	-0.299033
C	-2.3839168169	-1.6331606113	 1.3391088096	-0.055329
O	-2.2596613489	-0.2410339336	 0.9646836637	-0.290979
H	 0.93632028	 1.9762215214	 0.3027764915	 0.117709
H	-0.5070868092	 2.0135193048	-0.7265635517	 0.11917
H	-0.6786333127	 1.8108483004	 1.0314168028	 0.157786
H	 0.586253682	-0.2378762944	-0.8726219876	 0.078536
H	 2.4181258792	-0.3133958032	 0.2676590544	 0.083216
H	 3.5317730635	-1.1143503258	 2.0633557471	 0.227747
H	-1.8135486507	-0.2087745643	-1.0920819364	 0.076205
H	-2.1129592748	-2.6156823388	-0.6476422608	 0.108719
H	-0.6314484018	-2.6166758785	 0.3492937398	 0.125729
H	-3.4314386394	-1.9542073375	 1.3555477893	 0.101803
H	-1.9245662176	-1.829565763	 2.3135658449	 0.121575
56.7394	70.7635	97.4277	112.2468	192.3594	225.9707	239.9193	313.2507	362.9841	473.3273	565.59	660.7385	768.1154	796.0697	817.5596	864.7484	906.7505	936.3713	978.713	1008.6536	1017.8175	1042.4243	1047.5379	1107.5104	1113.0512	1132.5159	1164.5328	1175.0168	1220.6861	1264.0696	1276.334	1295.6055	1334.0027	1361.7509	1381.4072	1386.1746	1406.1353	1427.5263	1483.308	1487.044	1498.3319	1525.3776	1743.4756	2987.4026	3005.9051	3011.8017	3031.4209	3045.6288	3078.055	3091.386	3114.2036	3140.9861	3152.3931	3517.9423
CC(OC=N)C1CCO1	C[C@@H](O[CH][NH])[C@H]1CCO1	
InChI=1S/C6H11NO2/c1-5(9-4-7)6-2-3-8-6/h4-7H,2-3H2,1H3	InChI=1S/C6H11NO2/c1-5(9-4-7)6-2-3-8-6/h4-7H,2-3H2,1H3/t5-,6-/m1/s1
