17
gdb 80050	2.77313	1.71246	1.4339	2.4632	73.24	-0.2299	-0.0038	0.2261	955.1834	0.13618	-421.789357	-421.781889	-421.780945	-421.821009	29.779	
O	-0.1170507901	 1.436023781	 0.061388274	-0.425377
C	-0.0724838689	 0.0491353285	 0.0622406277	 0.121701
C	-0.4026769009	-0.7703729199	 1.3085014674	-0.155592
C	-1.163730233	-0.0760922532	 2.3869144812	-0.06008
C	-2.3584891155	 0.3441398206	 1.9646530624	-0.161779
C	-2.5683072329	-0.0281555806	 0.5359312693	 0.416061
C	-3.8700388964	-0.1365103883	-0.1330453533	-0.250315
O	-3.0602204415	 1.0190819671	-0.3525784961	-0.30051
C	-1.330400501	-0.7787562424	 0.0977943593	-0.224256
H	-0.9383554809	 1.7088945404	-0.3632615146	 0.31108
H	 0.7419559914	-0.3561353984	-0.536888518	 0.096655
H	 0.2384728828	-1.611538125	 1.5457454568	 0.093051
H	-0.7478002494	 0.0999441171	 3.3716556937	 0.108842
H	-3.0727776015	 0.9418611858	 2.5166548954	 0.106061
H	-3.9757514855	-0.8053687041	-0.9876435346	 0.115059
H	-4.7855617579	 0.0380315585	 0.4314562156	 0.116153
H	-1.4339101288	-1.6327934172	-0.5608177062	 0.093248
108.3603	180.6713	272.8209	301.5991	313.7483	336.366	491.446	520.3659	575.0101	668.0635	749.2803	764.3153	777.337	793.4359	819.8025	861.7921	909.8363	952.5482	974.1396	986.9643	1028.1434	1038.0143	1061.2012	1102.9987	1123.4356	1127.8535	1167.2898	1221.4043	1237.5155	1303.9398	1329.7344	1359.3272	1366.4552	1407.4711	1435.1802	1523.2862	1664.0356	3072.3244	3110.9389	3158.7498	3173.4011	3181.8192	3200.054	3224.6074	3798.8235
OC1C2C=CC3(CO3)C12	O[C@H]1[C@H]2C=C[C@]3(CO3)[C@@H]12	
InChI=1S/C7H8O2/c8-6-4-1-2-7(3-9-7)5(4)6/h1-2,4-6,8H,3H2	InChI=1S/C7H8O2/c8-6-4-1-2-7(3-9-7)5(4)6/h1-2,4-6,8H,3H2/t4-,5+,6-,7-/m0/s1
