19
gdb 99611	2.2164	1.28409	1.02508	4.1014	76.21	-0.2528	0.0283	0.2811	1259.1932	0.158186	-419.187693	-419.177892	-419.176948	-419.222718	35.684	
C	 0.0853195274	 1.4777427182	 0.0641512936	-0.328606
N	-0.1283969415	 0.047045256	-0.1532913009	-0.296947
C	 0.6911479634	-0.5300867817	-1.2144824199	-0.17195
C	 2.1386641601	-0.5257143793	-0.8802102177	 0.276834
N	 3.2544526821	-0.4930994071	-0.5787006979	-0.334409
C	 0.205930209	-1.9456532427	-1.5281713233	 0.422391
O	 0.0240213747	-2.7324179906	-0.3846279801	-0.467316
C	-0.7109491945	-2.1682766302	-2.7008375808	-0.336097
C	 0.7250132547	-2.6576711259	-2.7349848297	-0.297251
H	 1.1324301348	 1.7471308672	 0.271970171	 0.128023
H	-0.2410381309	 2.0328234949	-0.821823798	 0.127442
H	-0.5298068425	 1.8033922523	 0.9068952327	 0.12875
H	 0.0735199018	-0.4595061323	 0.703169706	 0.232056
H	 0.5673534236	 0.0867708988	-2.1120342458	 0.12569
H	-0.8209054599	-2.4751375028	 0.0027855577	 0.29
H	-1.4865930836	-2.9154193926	-2.5750724077	 0.122102
H	-0.9904315298	-1.3213058906	-3.3179134468	 0.118366
H	 1.4366850846	-2.1451653459	-3.3732530384	 0.126186
H	 0.8954224363	-3.7218188556	-2.625086994	 0.134737
51.8461	89.5881	129.1059	176.175	183.4282	255.5538	317.8245	322.5968	353.742	397.9616	427.3764	494.206	543.4056	606.4344	767.4028	801.6887	836.936	887.6241	923.4798	948.5077	983.6402	991.9603	1013.5616	1055.8766	1084.427	1128.7655	1162.2313	1185.5072	1190.1116	1252.1373	1293.1226	1325.0856	1335.7704	1389.3921	1457.2287	1459.5982	1484.1546	1492.3629	1500.8843	1518.2518	2343.0373	2987.8841	3051.5684	3071.1984	3115.7146	3135.5153	3143.4578	3221.2267	3237.2247	3520.8944	3788.9347
CNC(C#N)C1(O)CC1	CN[C@@H](C#N)C1(O)CC1	
InChI=1S/C6H10N2O/c1-8-5(4-7)6(9)2-3-6/h5,8-9H,2-3H2,1H3	InChI=1S/C6H10N2O/c1-8-5(4-7)6(9)2-3-6/h5,8-9H,2-3H2,1H3/t5-/m0/s1
