15
gdb 123768	4.72898	1.11881	1.00793	1.0673	65.7	-0.2584	-0.0321	0.2263	1153.0255	0.114132	-453.917306	-453.910002	-453.909058	-453.950879	25.712	
C	-0.0860007229	 1.0891682922	-0.1590801992	-0.059543
C	 1.3948790917	 1.512839394	-0.0960655974	-0.299756
C	 1.570923459	 0.2545658824	 0.7807662083	 0.035058
O	 0.1611581436	-0.0636311647	 0.6806691565	-0.286026
C	 2.4196370326	-0.8548162841	 0.2412592976	 0.377346
N	 2.9367201117	-0.8411140511	-0.9590056994	-0.170148
O	 3.6009507347	-2.0685027531	-1.0467451143	-0.153132
C	 3.4031690992	-2.6771321543	 0.124685251	 0.10544
N	 2.6955651626	-1.9983584384	 0.9670905425	-0.303914
H	-0.8023605838	 1.7772287712	 0.3037828525	 0.108159
H	-0.4556248956	 0.7985833544	-1.1489623862	 0.113968
H	 1.9333038663	 1.4909686746	-1.0423252375	 0.144594
H	 1.5930245349	 2.4524028497	 0.4200724005	 0.116792
H	 1.8564552362	 0.4313388391	 1.8242104693	 0.100986
H	 3.8481627098	-3.6531070418	 0.2524730458	 0.170177
37.7218	55.9229	156.8625	209.8454	376.5163	433.7807	634.4319	649.6143	783.6231	803.4629	835.3552	905.9574	915.6414	942.6849	954.8421	986.9208	999.9261	1025.2857	1060.4908	1098.3011	1141.0665	1163.0555	1217.887	1254.0147	1268.8875	1289.0814	1321.3908	1356.293	1419.795	1488.9937	1519.4382	1530.0087	1595.7454	3027.27	3041.49	3070.5068	3098.2519	3160.3089	3267.4888
C1CC(O1)C1=NOC=N1	C1C[C@@H](O1)c1nocn1	
InChI=1S/C5H6N2O2/c1-2-8-4(1)5-6-3-9-7-5/h3-4H,1-2H2	InChI=1S/C5H6N2O2/c1-2-8-4(1)5-6-3-9-7-5/h3-4H,1-2H2/t4-/m1/s1
