18
gdb 97999	5.8029	0.47924	0.46176	2.5026	79.7	-0.2439	0.0244	0.2682	2292.1748	0.145633	-439.071511	-439.060754	-439.05981	-439.110469	35.598	
O	-0.0328838649	 1.0133154846	 0.8578909079	-0.410882
C	-0.0703701553	 0.1265299291	-0.2552290304	-0.215986
C	-1.3700216138	-0.5286854321	-0.318205189	 0.137628
C	-2.4404645652	-1.0732198185	-0.4004012179	 0.02876
C	-3.7259484975	-1.7556137374	-0.4495028999	-0.345564
C	-3.8495409411	-2.8436204899	 0.6420672778	-0.156243
N	-5.1463093975	-3.5002802999	 0.6347995301	-0.266976
C	-5.4532346356	-4.4866651739	-0.2483052562	 0.148222
O	-4.6931623543	-4.9215190754	-1.0881500743	-0.322333
H	 0.8371653987	 1.4253164338	 0.8651625468	 0.289048
H	 0.1056427693	 0.6665895827	-1.2000118781	 0.117047
H	 0.7167998454	-0.6413062001	-0.1780028317	 0.116414
H	-4.5419023875	-1.0308240028	-0.3340788493	 0.12373
H	-3.8642752446	-2.2360635323	-1.4245778702	 0.158825
H	-3.0817671938	-3.6029345398	 0.4764019616	 0.149326
H	-3.6871126091	-2.4041612605	 1.6291686305	 0.121832
H	-5.8661901518	-3.1758778465	 1.2598131467	 0.250882
H	-6.4865378114	-4.8630908812	-0.1099755243	 0.076272
16.7296	42.319	49.612	84.6086	143.5573	193.1126	230.4861	265.1734	295.0057	340.2226	391.5122	463.6917	509.2421	570.398	722.9529	780.0019	825.6274	974.8546	1017.1422	1027.8871	1036.5007	1046.3741	1084.1126	1153.5108	1203.0185	1243.9626	1247.2887	1257.2469	1305.6891	1333.692	1398.4747	1428.4413	1459.9983	1468.0196	1479.51	1503.4019	1525.5082	1802.7276	2372.6552	2934.676	2961.9459	2979.7271	3026.1459	3068.5491	3074.3861	3126.8454	3641.8411	3816.9284
OCC#CCCNC=O	OCC#CCCNC=O	
InChI=1S/C6H9NO2/c8-5-3-1-2-4-7-6-9/h6,8H,2,4-5H2,(H,7,9)	InChI=1S/C6H9NO2/c8-5-3-1-2-4-7-6-9/h6,8H,2,4-5H2,(H,7,9)
