15
gdb 48765	2.95171	1.44698	1.0989	4.8759	67.42	-0.2505	-0.0411	0.2095	1060.8486	0.113066	-453.985686	-453.977941	-453.976997	-454.018038	29.22	
O	-0.0120580819	 0.0072858674	 0.1861017236	-0.271371
C	 0.0325816935	 1.190103598	-0.0514060719	 0.092383
C	 1.2826837329	 1.972113204	-0.0312799055	 0.274196
C	 1.2709565556	 3.4701939996	 0.2686592225	-0.34531
C	 1.6458180631	 3.0061581455	-1.1091129358	-0.050137
N	 3.0027359798	 2.6895601238	-1.400271434	-0.344465
C	 3.5251338934	 1.6616098475	-0.6180845269	 0.437275
O	 4.6470434441	 1.2204362464	-0.664322546	-0.39327
N	 2.4978098553	 1.2753953373	 0.2474426004	-0.414564
H	-0.879604714	 1.7803432646	-0.2863406134	 0.083296
H	 0.2962385098	 3.9350725454	 0.3765676047	 0.130966
H	 2.0462131936	 3.8290048621	 0.9357565751	 0.142327
H	 0.9905831347	 3.2111820385	-1.9498812136	 0.122627
H	 3.6220951209	 3.2900158192	-1.9167591262	 0.265186
H	 2.4357849093	 0.3099099007	 0.5349305471	 0.270863
98.8395	136.3365	200.6212	253.619	350.3017	372.1813	440.0461	472.4294	492.8306	552.2879	659.4716	720.1807	754.4309	787.6415	834.8816	902.6588	943.3967	982.4304	1016.0047	1050.7835	1061.4758	1086.6018	1145.6443	1227.5648	1269.1906	1321.5424	1378.7031	1399.7578	1422.036	1436.9949	1464.2203	1806.1793	1860.3964	2898.2678	3132.1728	3157.288	3233.4831	3630.7521	3676.3931
O=CC12CC1NC(=O)N2	O=C[C@]12C[C@H]1NC(=O)N2	
InChI=1S/C5H6N2O2/c8-2-5-1-3(5)6-4(9)7-5/h2-3H,1H2,(H2,6,7,9)	InChI=1S/C5H6N2O2/c8-2-5-1-3(5)6-4(9)7-5/h2-3H,1H2,(H2,6,7,9)/t3-,5-/m1/s1
