16
gdb 54170	2.27953	1.473	1.1287	3.0853	72.31	-0.2378	0.0169	0.2547	1112.6477	0.121861	-437.868794	-437.859548	-437.858603	-437.902558	34.897	
N	-0.0405869211	 1.2914028845	 0.3179802129	-0.539398
C	 0.0633226396	 0.0162414533	-0.1525045897	 0.341915
O	 1.0802396951	-0.4581735544	-0.6197618679	-0.36448
C	-1.2294694096	-0.7658905194	-0.063777172	 0.273078
O	-2.3809112262	-0.0250186596	 0.2465116611	-0.468394
C	-1.35635775	-2.0008714751	-0.9094358763	-0.341425
C	-1.201532954	-2.1467070035	 0.5935045274	-0.232813
C	-0.0276004787	-2.7060232506	 1.1921436854	 0.364021
C	 0.9262105042	-3.2049991784	 1.726724356	-0.456455
H	 0.8085017465	 1.8229111738	 0.417755697	 0.26273
H	-0.8595779929	 1.5594911526	 0.8375575325	 0.266055
H	-2.6932583019	 0.3903022753	-0.5660203711	 0.292011
H	-2.3323426437	-2.2204281228	-1.3267367291	 0.119978
H	-0.4929456001	-2.242754423	-1.516693805	 0.158431
H	-2.1286639863	-2.3429219165	 1.1248811363	 0.128681
H	 1.7846525194	-3.6321068361	 2.1822779826	 0.196063
69.7135	113.7489	148.9421	241.7124	270.1901	291.0704	351.695	371.2914	412.7623	480.7352	510.6711	517.5543	552.8274	608.1417	629.4574	653.3163	688.6248	776.0467	811.6372	886.4738	921.7314	960.8171	1073.3237	1081.9031	1097.4036	1129.2796	1217.8473	1255.1803	1328.4149	1382.5268	1393.2111	1455.5672	1593.871	1798.146	2244.1805	3144.7885	3151.1964	3251.6411	3506.0402	3596.2215	3733.4597	3787.2237
NC(=O)C1(O)CC1C#C	NC(=O)[C@@]1(O)C[C@H]1C#C	
InChI=1S/C6H7NO2/c1-2-4-3-6(4,9)5(7)8/h1,4,9H,3H2,(H2,7,8)	InChI=1S/C6H7NO2/c1-2-4-3-6(4,9)5(7)8/h1,4,9H,3H2,(H2,7,8)/t4-,6-/m1/s1
