17
gdb 109456	2.32885	1.4859	1.00435	0.6532	69.75	-0.2329	-0.0383	0.1946	1178.179	0.13285	-458.924716	-458.915847	-458.914903	-458.958778	31.91	
C	-0.2842612013	 1.4918585138	-0.1280502305	-0.247523
O	-0.222300391	 0.2060945974	 0.4726371244	-0.247203
C	-1.2820965328	-0.6218668098	 0.1173287918	-0.040356
C	-1.2569434823	-1.3607843758	-1.252451388	 0.370844
O	-0.9552891285	-1.0318910415	-2.3623021489	-0.294947
C	-1.6143301184	-2.7059581624	-0.5849875098	-0.451963
C	-1.2985622769	-2.0190144902	 0.7536816384	 0.397953
C	-0.4782231073	-2.4843953829	 1.8678067053	-0.247748
O	-1.9029469228	-2.3156293475	 1.9904898053	-0.273
H	 0.5806094951	 2.051351663	 0.2339679006	 0.13255
H	-0.2447428883	 1.4257248743	-1.2213603407	 0.141695
H	-1.2034858846	 2.0212514223	 0.1650763801	 0.110911
H	-2.2618833158	-0.1277199248	 0.2552444017	 0.098349
H	-2.673280245	-2.9631226139	-0.697358263	 0.148021
H	-1.0058142621	-3.5639738065	-0.8784716614	 0.144114
H	-0.1294791965	-3.5156724185	 1.884080708	 0.121008
H	 0.1236685083	-1.765897277	 2.4192476267	 0.137297
72.3876	88.2944	149.8312	172.3768	238.5538	267.6101	318.7073	372.9832	417.2639	503.269	523.6305	606.2249	730.1207	785.8893	851.2475	899.6222	924.2785	997.6575	1027.1518	1051.2119	1091.2038	1128.4314	1149.0782	1161.2696	1177.0467	1183.9423	1203.7958	1235.9566	1246.8371	1368.8671	1422.8854	1448.3388	1479.7153	1486.1834	1511.4185	1534.4644	1894.859	2938.7512	2991.8167	3057.3687	3069.3133	3093.7992	3120.7385	3130.1343	3189.734
COC1C(=O)CC11CO1	CO[C@H]1C(=O)C[C@]21CO2	
InChI=1S/C6H8O3/c1-8-5-4(7)2-6(5)3-9-6/h5H,2-3H2,1H3	InChI=1S/C6H8O3/c1-8-5-4(7)2-6(5)3-9-6/h5H,2-3H2,1H3/t5-,6+/m0/s1
