25
gdb 100752	2.23925	0.94493	0.84644	2.2293	84.76	-0.2571	0.0685	0.3256	1558.234	0.226	-426.627092	-426.615319	-426.614375	-426.663869	43.35	
C	 0.0142810537	 1.5113216391	 0.6024462983	-0.414057
C	-0.0078787311	 0.007526045	 0.3195718396	 0.125719
O	 0.5277866807	-0.7076470388	 1.4351407974	-0.428569
C	-1.4058069813	-0.529093689	-0.0727535247	 0.000923
C	-1.9887402829	 0.2221351057	-1.2823871799	-0.414149
C	-1.4006059369	-2.0712130915	-0.2575969481	 0.013639
C	-2.7988680997	-2.6840000876	-0.1038597191	-0.411267
C	-0.7556288201	-2.5257154735	-1.5771039381	-0.06538
O	-0.5761561015	-3.9351576521	-1.6367803139	-0.422185
H	 1.0013588509	 1.797441681	 0.9752922684	 0.124295
H	-0.1993194543	 2.1032642251	-0.2912235609	 0.122347
H	-0.7300065923	 1.7757608563	 1.365125993	 0.105206
H	 0.6972715157	-0.2042146017	-0.4938139007	 0.089196
H	-0.0164570175	-0.4966599052	 2.2024769146	 0.274757
H	-2.0605592469	-0.3244208569	 0.789900375	 0.055386
H	-1.2958552177	 0.2188992479	-2.1313342991	 0.119482
H	-2.9239533914	-0.2345982938	-1.6184417667	 0.120283
H	-2.2082455703	 1.2651185925	-1.0406403947	 0.116053
H	-0.7693761416	-2.4660210531	 0.5489436313	 0.076903
H	-2.753461678	-3.7641543713	-0.2637346051	 0.12723
H	-3.2073147726	-2.4986475077	 0.8952017134	 0.101934
H	-3.5057636383	-2.2739759128	-0.8344128092	 0.110776
H	-1.4028996659	-2.2834352553	-2.4269192647	 0.105715
H	 0.2013169771	-2.0070140037	-1.7403192149	 0.084843
H	 0.0197474021	-4.1800820286	-0.9211777311	 0.280922
47.9118	89.1524	107.4902	197.3007	200.2192	216.5732	226.467	247.1405	271.947	292.4073	320.7001	323.5695	344.6084	413.4216	441.3392	473.83	505.8936	606.5806	789.6339	841.1634	901.1871	915.8803	933.3085	969.1126	997.1567	1038.6155	1064.1044	1075.23	1094.7308	1112.2186	1127.8336	1164.2632	1186.5306	1242.4058	1262.3135	1306.9693	1324.5482	1350.5078	1370.2109	1392.8805	1400.0754	1400.6294	1407.1644	1414.0635	1419.3734	1432.0574	1489.4391	1491.6601	1494.527	1500.2136	1506.076	1509.1892	1515.2094	2967.3913	2984.3935	3022.4775	3023.3443	3030.5216	3037.2228	3040.9409	3073.4697	3091.4918	3099.6232	3103.2714	3113.5151	3119.5971	3125.4155	3791.63	3811.3014
CC(O)C(C)C(C)CO	C[C@@H](O)[C@@H](C)[C@@H](C)CO	
InChI=1S/C7H16O2/c1-5(4-8)6(2)7(3)9/h5-9H,4H2,1-3H3	InChI=1S/C7H16O2/c1-5(4-8)6(2)7(3)9/h5-9H,4H2,1-3H3/t5-,6-,7+/m0/s1
