15
gdb 28124	5.23763	1.26433	1.02213	2.3962	76.22	-0.1699	0.0251	0.1951	1095.5213	0.115687	-416.839039	-416.831763	-416.830819	-416.8705	28.471	
N	 0.1347147217	 1.3918800132	 0.0952940932	-0.60578
C	-0.0011252096	-0.0063342948	 0.0094693366	 0.319362
C	-1.1227372206	-0.8186692713	-0.0309714703	-0.419448
C	-0.6018049055	-2.1373970951	-0.0130344096	 0.367657
C	 0.7758399112	-2.1074583204	 0.0228672962	 0.261845
N	 1.1497367308	-0.7793291041	 0.0228876742	-0.42712
C	 1.2276007594	-3.4601583667	-0.0095068986	-0.34754
C	 0.0799206197	-4.2007737066	-0.0517275199	-0.019452
O	-1.0518635543	-3.4176086475	-0.0597824203	-0.213643
H	 0.4481973781	 1.8074071962	-0.7777382732	 0.24541
H	-0.7456084989	 1.8233714641	 0.3471500575	 0.249196
H	-2.1458893298	-0.4858764835	-0.0933657376	 0.097271
H	 2.0558358805	-0.4016781299	 0.237496293	 0.258221
H	 2.2319528368	-3.8525201279	 0.0078296596	 0.106827
H	-0.0979704596	-5.2627986757	-0.0712813906	 0.127195
140.6252	151.1832	258.4182	313.6901	333.327	416.5767	514.1772	564.6603	587.2418	637.691	683.654	724.0622	746.1442	756.1326	788.8993	805.0766	836.068	919.8934	1004.9411	1041.0664	1129.428	1140.4658	1172.8311	1186.6281	1259.8448	1324.9711	1420.432	1465.9072	1503.7931	1544.5698	1578.3997	1600.72	1652.7159	3255.5878	3262.1131	3287.9226	3486.4708	3601.5401	3682.7392
NC1=CC2=C(N1)C=CO2	Nc1cc2c([nH]1)cco2	
InChI=1S/C6H6N2O/c7-6-3-5-4(8-6)1-2-9-5/h1-3,8H,7H2	InChI=1S/C6H6N2O/c7-6-3-5-4(8-6)1-2-9-5/h1-3,8H,7H2
