23
gdb 77940	2.86657	1.3431	1.05298	0.1574	91.77	-0.264	0.102	0.3659	1254.4896	0.205395	-351.080316	-351.071155	-351.070211	-351.11405	35.732	
C	-0.0324376378	 1.5871651895	-0.2199358833	-0.455804
C	 0.0263620974	 0.0637556232	-0.1208355878	 0.077782
C	 1.0876596822	-0.804537678	-0.8781906668	-0.180875
C	 2.1459324573	-0.5211710218	 0.2536566605	 0.077767
C	 2.9669753221	 0.7571709317	 0.4144724928	-0.455803
C	 0.7826920413	-0.7626733207	 0.9865576816	-0.18089
C	 0.6151287772	-1.9599403267	 0.0282520858	 0.485563
C	-0.4476698637	-2.987819639	-0.1251033605	-0.381539
C	 1.0092586268	-3.3897730877	 0.127428224	-0.38154
H	 0.9104959905	 2.0573010278	-0.4956555876	 0.122543
H	-0.7629674879	 1.8686065339	-0.9864743922	 0.111693
H	-0.3710127144	 2.0332862367	 0.7225733043	 0.113941
H	-0.9890827558	-0.323612297	-0.2581212982	 0.06939
H	 1.2647619303	-0.8468031961	-1.9558145439	 0.060617
H	 2.8237610877	-1.3746861875	 0.3635676115	 0.069395
H	 2.389091359	 1.6279948791	 0.7209048371	 0.122554
H	 3.7316155296	 0.5978615045	 1.1828479917	 0.111686
H	 3.4943638605	 1.009352351	-0.513022878	 0.113951
H	 0.5965706925	-0.7536124904	 2.0634513724	 0.06062
H	-1.1569189399	-3.1375234164	 0.6835511374	 0.109757
H	-0.8573968117	-3.1795207118	-1.112382064	 0.109718
H	 1.5540045714	-3.8447042038	-0.6945554535	 0.109757
H	 1.2544335554	-3.8028879107	 1.1013738567	 0.109718
72.7363	106.6558	174.8414	192.4719	211.2214	283.5979	341.6698	362.6325	392.2714	475.1606	563.5162	694.1526	721.5258	776.095	778.2503	789.9631	804.1662	876.4394	916.3906	943.0144	992.5915	1018.2159	1021.9137	1041.7918	1051.8631	1063.9925	1079.2352	1093.2805	1103.3667	1122.0891	1130.2424	1152.5046	1178.1501	1183.4929	1208.8755	1217.733	1253.385	1280.1843	1400.0905	1407.6818	1416.0996	1416.3972	1453.2703	1462.45	1494.2516	1495.603	1498.4951	1522.0287	1528.999	3029.6198	3029.9648	3038.8071	3040.5821	3076.704	3082.2326	3083.8166	3084.3443	3114.4765	3118.3182	3139.0565	3160.9962	3189.891	3204.2673
CC1C2C(C)C1C21CC1	C[C@H]1[C@H]2[C@@H](C)[C@@H]1C12CC1	
InChI=1S/C9H14/c1-5-7-6(2)8(5)9(7)3-4-9/h5-8H,3-4H2,1-2H3	InChI=1S/C9H14/c1-5-7-6(2)8(5)9(7)3-4-9/h5-8H,3-4H2,1-2H3/t5-,6+,7-,8+
