15
gdb 33910	4.09126	1.31961	1.20407	4.327	70.19	-0.2617	-0.0156	0.2461	1016.1705	0.113677	-416.731641	-416.724733	-416.723788	-416.76299	26.837	
N	 0.1961402577	-1.1424696238	 0.1375547017	-0.333326
C	 0.0937244029	 0.0059164119	 0.0369629934	 0.201069
C	-0.0845050867	 1.4205802624	-0.0553179257	 0.198302
C	 0.2440058866	 2.2294060084	-1.2500656195	-0.281902
N	 1.0941132358	 2.4196482193	-0.0683923186	-0.174494
C	 0.3547486929	 3.2432934124	 0.9777763318	-0.019558
C	-0.6729266057	 4.2934949621	 0.5347920745	-0.109323
O	-1.7167297629	 3.2771442109	 0.4660600794	-0.288873
C	-0.8299075075	 2.2789048768	 0.9993738065	 0.037195
H	 0.7711905224	 1.7222820911	-2.0512771552	 0.152589
H	-0.4680066607	 2.9833772888	-1.5673493474	 0.15167
H	 1.0070284041	 3.4502807772	 1.8223618193	 0.113789
H	-0.8997437835	 5.0361686697	 1.3081052003	 0.122855
H	-0.5115567146	 4.802224462	-0.421523932	 0.121548
H	-1.2213063909	 1.7509078007	 1.8692796216	 0.108459
129.6963	148.2077	243.3538	344.5131	398.6573	464.2096	537.334	551.1853	618.9277	703.479	760.1472	804.7323	874.6667	881.9715	937.6956	947.4754	968.2879	985.2743	1047.0605	1081.4343	1133.3308	1140.7885	1157.6625	1187.6509	1226.727	1240.5299	1273.6685	1301.024	1344.3743	1365.8466	1488.3157	1518.188	2345.5863	3032.7131	3081.6907	3115.6835	3137.7517	3150.0077	3228.5945
N#CC12CN1C1COC21	N#C[C@]12CN1[C@H]1CO[C@@H]21	
InChI=1S/C6H6N2O/c7-2-6-3-8(6)4-1-9-5(4)6/h4-5H,1,3H2	InChI=1S/C6H6N2O/c7-2-6-3-8(6)4-1-9-5(4)6/h4-5H,1,3H2/t4-,5+,6+,8?/m0/s1
