19
gdb 98675	3.55033	0.98597	0.88478	3.2024	72.59	-0.2543	-0.0413	0.213	1345.0618	0.158182	-460.164615	-460.155587	-460.154643	-460.199094	33.663	
O	-0.4293455415	 1.4630161001	 0.115173905	-0.417788
C	-0.2267372087	 0.1009723301	-0.0953457483	-0.135943
C	-1.4785609618	-0.7145062903	 0.1619453713	 0.36892
O	-2.4940875979	-0.1329976141	 0.5116101883	-0.35761
C	-1.4152294719	-2.2053267496	-0.0247195683	-0.123345
C	-2.0150038063	-2.9953376351	 1.1901757371	-0.252099
C	-3.3483612593	-3.1828008153	 0.4041457507	 0.154397
O	-4.3929876282	-2.3341568142	 0.7920239554	-0.438221
C	-2.5970468667	-2.758951434	-0.8945903908	-0.252091
H	-1.3578531434	 1.5453748625	 0.3843372849	 0.296683
H	 0.0999083139	-0.1065177974	-1.1294407247	 0.122534
H	 0.5704784637	-0.2972495088	 0.5565941313	 0.12251
H	-0.4125256511	-2.5038383342	-0.3385212852	 0.080434
H	-1.4781564249	-3.9321137669	 1.356790741	 0.108951
H	-2.1021075952	-2.454050808	 2.1346619564	 0.117114
H	-3.7598632124	-4.1948443224	 0.4042728741	 0.086363
H	-4.0417507738	-1.42994054	 0.7965922072	 0.29312
H	-3.123762209	-2.0391257017	-1.5247132522	 0.117118
H	-2.2765795456	-3.6078439207	-1.5030284533	 0.108953
35.3596	124.6954	126.804	204.8879	232.6403	311.1656	369.899	393.2338	405.6466	413.4884	554.1477	598.1756	655.2369	755.6967	802.9637	824.2138	860.2203	909.7588	942.7783	961.243	1028.846	1035.0704	1090.6351	1098.7472	1126.8678	1157.6399	1177.5218	1191.6527	1244.0274	1252.1805	1264.1493	1268.7458	1304.9372	1352.1778	1383.4233	1446.4066	1453.9625	1467.838	1481.7735	1484.5104	1759.4692	2961.6444	2974.8334	3064.6254	3065.8352	3082.3425	3086.5375	3128.9315	3130.2182	3689.3347	3696.6994
OCC(=O)C1CC(O)C1	OCC(=O)[C@H]1C[C@@H](O)C1	
InChI=1S/C6H10O3/c7-3-6(9)4-1-5(8)2-4/h4-5,7-8H,1-3H2	InChI=1S/C6H10O3/c7-3-6(9)4-1-5(8)2-4/h4-5,7-8H,1-3H2/t4-,5+
