15
gdb 9323	4.15381	1.05743	0.86519	4.3756	66.24	-0.2481	-0.037	0.211	1256.8987	0.118832	-395.987084	-395.978331	-395.977387	-396.021323	30.182	
O	-0.0004161937	 1.3733414395	-0.3015320397	-0.422648
C	-0.0260143868	-0.0131060508	 0.019224848	-0.096756
C	-1.4866493367	-0.4131208448	 0.1488336994	-0.126294
N	-2.1819988255	-0.0800839864	-1.0806257141	-0.317382
C	-3.4067748306	-0.5988290171	-1.3701459864	 0.303771
N	-3.9651199124	-1.510200554	-0.6623849689	-0.527333
C	-4.0093476659	-0.0448611635	-2.575809358	 0.227272
N	-4.5269817354	 0.3731742079	-3.5215340808	-0.323562
H	 0.900182127	 1.621759484	-0.527956593	 0.297628
H	 0.4518605212	-0.6102441414	-0.770875806	 0.104689
H	 0.4910972495	-0.2184943772	 0.9674833269	 0.1036
H	-1.57783209	-1.487445047	 0.3258290721	 0.144736
H	-1.9402824386	 0.0996469961	 1.008785869	 0.124285
H	-1.902267931	 0.7842190454	-1.5185438927	 0.269362
H	-4.8480621911	-1.8023699007	-1.072614816	 0.238632
48.4107	92.6806	106.6013	186.1722	252.8543	283.394	299.8468	349.452	492.9089	501.0429	530.6209	610.1517	726.0093	815.1464	849.8708	918.7374	940.2891	1071.7701	1099.2107	1127.2769	1178.8324	1211.0084	1261.699	1289.9715	1326.4909	1392.342	1457.1348	1499.311	1515.8191	1538.4757	1685.2272	2347.998	2992.1204	3009.6294	3034.9476	3109.2909	3534.5947	3633.5843	3840.197
OCCNC(=N)C#N	OCCNC(=N)C#N	
InChI=1S/C4H7N3O/c5-3-4(6)7-1-2-8/h8H,1-2H2,(H2,6,7)	InChI=1S/C4H7N3O/c5-3-4(6)7-1-2-8/h8H,1-2H2,(H2,6,7)
