16
gdb 47082	3.23566	1.55421	1.10038	2.3832	72.39	-0.2479	-0.0345	0.2134	1046.5403	0.127061	-437.919382	-437.912302	-437.911358	-437.951031	27.192	
O	 0.0229899005	-0.0250366682	 0.2143846201	-0.372777
C	 0.0302461064	 1.1628848132	-0.0178645674	 0.348825
N	-1.0825871578	 1.9832506529	-0.1225633232	-0.336019
C	-0.7979646482	 3.4210453806	-0.1880571027	-0.202295
C	 0.6375411009	 3.3997828207	-0.7597236401	 0.068755
O	 1.5426535608	 4.3929504253	-0.3146523434	-0.27885
C	 2.7601609283	 3.7373244611	 0.0741707757	-0.115478
C	 2.3855608532	 2.2840003321	 0.2734176265	-0.245835
C	 1.1642403443	 2.1052203933	-0.2144469237	 0.179455
H	-1.9838371822	 1.6218865758	 0.1503052199	 0.254419
H	-1.5196518347	 3.9361955758	-0.8272290308	 0.118251
H	-0.7943921057	 3.8954392047	 0.802475071	 0.120089
H	 0.5842966445	 3.3955746371	-1.8611301532	 0.092249
H	 3.5342562204	 3.8723565844	-0.6995163763	 0.114005
H	 3.1326677225	 4.2015042831	 0.9959014276	 0.123643
H	 3.0016414869	 1.5667975582	 0.7995606	 0.131563
121.7239	173.2452	190.1995	299.7282	334.309	470.5033	523.5299	584.7766	651.5934	679.8469	738.5534	774.898	840.791	858.341	926.9903	973.9328	1000.9976	1026.5345	1039.524	1077.4404	1117.3762	1128.5169	1197.2189	1199.4973	1235.0559	1257.2283	1300.2367	1338.0683	1360.672	1382.9119	1430.6999	1510.057	1523.8847	1734.8844	1828.6112	2960.91	2969.3169	3017.5095	3042.0938	3091.5745	3228.2392	3631.3849
O=C1NCC2OCC=C12	O=C1NC[C@H]2OC[CH][C]12	
InChI=1S/C6H7NO2/c8-6-4-1-2-9-5(4)3-7-6/h1,5H,2-3H2,(H,7,8)	InChI=1S/C6H7NO2/c8-6-4-1-2-9-5(4)3-7-6/h1,5H,2-3H2,(H,7,8)/t5-/m1/s1
