20
gdb 35810	2.87171	1.40978	1.1074	4.2488	81.83	-0.2974	0.0394	0.3368	1137.257	0.174062	-366.039073	-366.031259	-366.030315	-366.071629	30.603	
N	-0.1216464207	-1.1483318274	-0.1243308874	-0.334577
C	-0.0871757377	 0.0030835071	-0.0233792188	 0.26882
C	-0.0303179763	 1.4546349965	 0.1162487316	-0.150557
C	-0.5113827646	 1.9734980826	 1.4965624627	-0.221283
C	 0.0349214056	 3.4116594426	 1.5327781868	-0.231669
C	 1.4176240261	 3.325331076	 0.8679425278	-0.00459
C	 2.5485326462	 2.6731303025	 1.7175061566	-0.226071
C	 2.5178441838	 1.4115781605	 0.8090549813	-0.231375
C	 1.3910432568	 2.0510291224	-0.0508954378	-0.015989
H	-0.6768724422	 1.8855739396	-0.6584968691	 0.121116
H	-1.5964800529	 1.9126938095	 1.6066500853	 0.115744
H	-0.0684367256	 1.3660534226	 2.2925209435	 0.12327
H	-0.6201042014	 4.0693317671	 0.9486823699	 0.101169
H	 0.0793055667	 3.8173062768	 2.5482794991	 0.104367
H	 1.7033476001	 4.2614297047	 0.384737588	 0.070305
H	 3.4934835545	 3.2204909112	 1.6985774763	 0.103865
H	 2.283036259	 2.4971689766	 2.7641825845	 0.099711
H	 3.4410472615	 1.2296530008	 0.2552789102	 0.108662
H	 2.2396730071	 0.4789034149	 1.3066117254	 0.118593
H	 1.6419001039	 2.1861880435	-1.103818256	 0.080492
77.3428	134.7563	165.1786	245.3502	348.5757	366.4263	478.6234	541.1269	583.1032	604.388	740.5771	746.3574	809.9815	822.6349	873.3662	893.6918	943.4133	958.3333	962.2838	989.2064	1020.1156	1027.098	1073.4945	1099.9463	1129.4553	1175.412	1187.3368	1218.6707	1238.0629	1259.6289	1269.8664	1274.6245	1295.7152	1306.6707	1325.0895	1339.8198	1350.231	1357.4838	1479.2467	1489.7481	1492.664	1507.8097	2353.1913	3030.0303	3033.1897	3053.9365	3059.9172	3067.1664	3081.9336	3085.734	3097.5678	3102.9455	3112.3138	3123.4479
N#CC1CCC2CCC12	N#C[C@H]1CC[C@H]2CC[C@@H]12	
InChI=1S/C8H11N/c9-5-7-2-1-6-3-4-8(6)7/h6-8H,1-4H2	InChI=1S/C8H11N/c9-5-7-2-1-6-3-4-8(6)7/h6-8H,1-4H2/t6-,7+,8+/m0/s1
