17
gdb 123917	3.49512	1.59342	1.1359	1.4378	74.55	-0.188	0.034	0.222	1034.5209	0.141243	-414.198198	-414.19101	-414.190066	-414.229585	28.731	
C	-0.0336790957	 1.4346806226	 0.0872126781	-0.175976
C	 1.4043393709	 1.9968753052	 0.035858891	-0.162095
N	 2.2842052937	 1.4042585769	 1.0427572342	-0.394876
C	 1.9813224969	 0.0874395048	 1.3714845882	 0.375798
N	 2.6833757496	-0.6557428183	 2.2213003402	-0.345003
N	 2.0407141503	-1.8513220278	 2.2013224788	-0.192697
C	 0.9652167292	-1.8790509837	 1.3756450775	-0.133632
C	 0.8870220211	-0.6218097253	 0.8105673282	 0.153563
N	-0.0899601296	-0.0276531852	-0.0252891703	-0.405521
H	-0.4955807794	 1.7185945534	 1.0411802347	 0.111034
H	-0.6344203259	 1.8727100793	-0.715273818	 0.101057
H	 1.8181319897	 1.8032719666	-0.9647595272	 0.101776
H	 1.3921576978	 3.0824299771	 0.1712119624	 0.103921
H	 2.5130543629	 1.9931976981	 1.8290281889	 0.24021
H	 2.413686119	-2.6057863695	 2.7484941804	 0.270326
H	 0.3499239433	-2.7570502097	 1.2607921553	 0.12564
H	 0.0080484759	-0.3162290044	-0.9929083324	 0.226474
107.0333	230.5384	284.1223	336.7426	393.3349	429.2914	450.0892	498.3245	535.3235	634.3674	684.7138	721.6666	729.6475	756.2701	804.8401	875.2386	947.3043	964.2449	1041.8192	1058.4142	1067.8404	1140.2558	1187.0251	1240.7987	1266.2699	1275.2804	1329.6258	1377.047	1387.9028	1398.106	1449.3422	1460.8559	1480.1706	1488.0209	1492.8337	1563.7019	1638.4748	2993.6901	3029.0701	3083.2875	3091.4005	3262.7125	3509.0492	3604.2381	3698.0936
C1CNC2=NNC=C2N1	C1CNc2n[nH]cc2N1	
InChI=1S/C5H8N4/c1-2-7-5-4(6-1)3-8-9-5/h3,6H,1-2H2,(H2,7,8,9)	InChI=1S/C5H8N4/c1-2-7-5-4(6-1)3-8-9-5/h3,6H,1-2H2,(H2,7,8,9)
