20
gdb 103952	3.27404	1.08272	0.97285	1.9151	75.58	-0.2386	0.0603	0.2988	1276.9392	0.170046	-440.238582	-440.229483	-440.228539	-440.272303	35.195	
O	-0.0379497096	 1.1534936994	-0.535156593	-0.438096
C	-0.2005177539	-0.2403302263	-0.2775426336	-0.142718
C	-1.6058292042	-0.4111095256	 0.2817225605	 0.441375
O	-1.7574834089	 0.3733152261	 1.4400644375	-0.494483
C	-2.7231224148	-0.2755890274	-0.8109081403	-0.372965
C	-2.8159459139	-1.8054493014	-0.8193609203	 0.365517
C	-3.8609541549	-2.687997453	-1.3678815295	-0.312973
N	-2.5065286662	-2.6595223098	-1.9699364726	-0.361367
C	-2.0076209666	-1.8948389436	 0.4792728239	-0.343662
H	 0.8925796643	 1.3318461609	-0.6957852083	 0.294972
H	-0.0731576168	-0.8381565657	-1.1913745685	 0.101918
H	 0.5236543715	-0.5910325862	 0.4721244752	 0.097186
H	-1.3400820771	 1.2216884834	 1.2399483941	 0.282547
H	-3.6113511421	 0.2022883744	-0.3891209534	 0.109031
H	-2.4487779748	 0.2230797246	-1.745125011	 0.101793
H	-4.1138631228	-3.6168942328	-0.8628874928	 0.117169
H	-4.6838482715	-2.2326489912	-1.9140582545	 0.109739
H	-2.5316277525	-2.1056822638	-2.8238516117	 0.225509
H	-1.2041605289	-2.6356382003	 0.5063267463	 0.104859
H	-2.6373064164	-2.0001080515	 1.366655652	 0.114648
59.0056	124.7093	199.348	256.7777	278.2214	294.8059	313.5852	362.5398	389.3893	435.93	476.2522	488.7853	591.5862	723.5778	800.4638	838.4073	860.4456	893.1507	911.9496	951.0955	962.9374	982.7286	1032.6155	1049.7823	1067.4817	1087.2456	1107.8517	1145.9917	1165.6871	1208.5918	1219.0803	1240.4971	1261.8279	1269.7683	1298.7117	1317.2132	1401.3946	1417.0357	1451.1721	1459.4469	1484.2801	1510.294	1517.1015	2989.7084	3032.5375	3050.8745	3059.9492	3100.1274	3110.1834	3118.3599	3183.5408	3480.6183	3764.3237	3842.5243
OCC1(O)CC2(CN2)C1	OC[C@@]1(O)C[C@]2(CN2)C1	
InChI=1S/C6H11NO2/c8-4-6(9)1-5(2-6)3-7-5/h7-9H,1-4H2	InChI=1S/C6H11NO2/c8-4-6(9)1-5(2-6)3-7-5/h7-9H,1-4H2/t5-,6-
