19
gdb 62880	2.83408	1.57831	1.15938	2.7007	72.02	-0.2498	0.0572	0.307	1084.4508	0.15613	-460.091976	-460.083025	-460.082081	-460.124713	35.415	
C	-0.0446517911	 1.5671299689	-0.1170550791	-0.469553
C	 0.0069056357	 0.0461920051	-0.0872856106	 0.42702
O	-1.2021032883	-0.49794988	-0.5575801458	-0.470599
C	 1.3030944597	-0.6345361384	-0.6028059173	-0.085104
O	 1.9997789766	-0.0327471998	 0.5701426952	-0.340293
C	 0.7454269276	-0.6103780507	 1.1325794116	-0.111489
C	 1.0734137737	-1.9083468438	 0.3018118949	 0.483559
C	 0.0791346254	-3.0111500314	 0.0049163968	-0.47616
O	 2.2585881613	-2.5425319758	 0.6893862046	-0.486385
H	 0.8952825649	 2.0070468	 0.2114687359	 0.151247
H	-0.2699137844	 1.9102675455	-1.1319684434	 0.126064
H	-0.8437927824	 1.9287484327	 0.5434046126	 0.108042
H	-1.9205042856	 0.0642350117	-0.2513924726	 0.284925
H	 1.7985859856	-0.5423147887	-1.5712967218	 0.09164
H	 0.5875568579	-0.4862586176	 2.2061910886	 0.087215
H	-0.8919454558	-2.633001883	-0.2974768834	 0.147915
H	 0.4864532331	-3.6490453796	-0.7855646231	 0.124726
H	-0.0287175894	-3.6327719366	 0.8993362779	 0.122713
H	 2.8784372455	-1.8221271085	 0.8768093889	 0.284519
150.1404	163.8961	220.0629	224.6768	244.4004	256.1738	353.4463	397.0921	402.3661	443.4528	480.8779	587.8409	605.1008	629.6619	661.7891	746.1158	764.1203	784.7874	862.5299	883.7991	942.4886	982.209	1061.4896	1080.2892	1090.0169	1121.9497	1134.7118	1135.5171	1151.0544	1196.3756	1222.6006	1252.9931	1282.7288	1391.8414	1397.765	1409.58	1435.7025	1491.8985	1495.5878	1496.3169	1503.8107	3023.5928	3052.0063	3088.4101	3096.9823	3106.7241	3107.2099	3165.8139	3206.1795	3726.8354	3820.0343
CC1(O)C2OC1C2(C)O	C[C@@]1(O)[C@H]2O[C@@H]1[C@]2(C)O	
InChI=1S/C6H10O3/c1-5(7)3-6(2,8)4(5)9-3/h3-4,7-8H,1-2H3	InChI=1S/C6H10O3/c1-5(7)3-6(2,8)4(5)9-3/h3-4,7-8H,1-2H3/t3-,4+,5-,6-
