20
gdb 103330	3.02672	1.31301	1.03729	3.3016	76.47	-0.2191	0.0578	0.2769	1199.3629	0.169989	-440.197486	-440.188259	-440.187315	-440.231127	35.258	
C	-0.1252303779	 1.5622541478	 0.0714237619	-0.434223
C	 0.0217153121	 0.0560255613	-0.0415396927	 0.064341
C	 1.419051744	-0.5564339719	-0.3847103224	-0.093415
N	 1.8676786962	-0.110404804	 0.9946253854	-0.345575
C	 0.5115785505	-0.7622662109	 1.1956910233	-0.125574
C	 0.9248434428	-1.9082486276	 0.2058030793	 0.396755
O	-0.0749016366	-2.546606389	-0.5773220622	-0.467095
C	 1.8863996022	-3.0343671105	 0.6096732251	-0.154602
O	 2.9053947422	-2.6453427465	 1.5196938707	-0.414293
H	 0.7163064759	 2.0010924156	 0.6087958553	 0.140864
H	-0.1832937151	 2.0167284063	-0.9241522493	 0.10726
H	-1.0513917297	 1.8185444968	 0.5986211659	 0.105337
H	-0.8060086729	-0.4016130799	-0.5807371242	 0.083704
H	 2.0325634067	-0.3970716539	-1.2743945244	 0.070901
H	 2.6037493718	-0.7242005807	 1.3395793152	 0.23607
H	 0.0534174524	-0.8464518567	 2.1843939698	 0.066869
H	-0.5739601367	-3.1418183403	-0.0070920543	 0.280213
H	 1.2706105969	-3.8341879282	 1.0563165006	 0.078987
H	 2.3125710892	-3.4419438528	-0.3183406246	 0.109351
H	 3.531551286	-3.3705721549	 1.6008863916	 0.294125
67.2766	179.601	206.4034	211.5193	221.3833	241.6141	300.7171	308.4045	399.996	428.1967	440.3059	561.0935	631.5748	713.2139	768.8422	793.4643	804.0037	881.3428	890.0564	1029.4424	1033.1618	1056.5259	1061.4603	1076.5053	1096.3276	1100.2719	1141.9245	1148.706	1187.2771	1214.5189	1220.6978	1233.1146	1260.0975	1292.7077	1312.1704	1315.952	1371.8731	1396.03	1416.9574	1462.5913	1492.1742	1504.1318	1508.0144	2949.2386	3014.3941	3031.5365	3080.4272	3083.4855	3089.7185	3126.3767	3147.6365	3486.8957	3797.1812	3828.17
CC1C2NC1C2(O)CO	C[C@H]1[C@H]2N[C@@H]1[C@]2(O)CO	
InChI=1S/C6H11NO2/c1-3-4-6(9,2-8)5(3)7-4/h3-5,7-9H,2H2,1H3	InChI=1S/C6H11NO2/c1-3-4-6(9,2-8)5(3)7-4/h3-5,7-9H,2H2,1H3/t3-,4+,5-,6-
