15
gdb 129760	2.87976	1.53384	1.05094	5.0739	70.24	-0.2088	0.0076	0.2164	1083.3944	0.114345	-450.071612	-450.063856	-450.062912	-450.103973	28.943	
N	-0.0337600801	 1.4371035627	 0.2282643994	-0.597094
C	-0.0639499764	 0.058339469	 0.0526467816	 0.144362
C	-1.1046977241	-0.8265935189	-0.1713467272	 0.316545
C	-2.4918803553	-1.4406517572	-0.2757583233	-0.091796
O	-3.1981948601	-1.0801351331	-1.4315119226	-0.41441
C	-1.7276490168	-2.8426164632	-0.3063698092	-0.194572
N	-0.4996976661	-2.0302456462	-0.1883462311	 0.088927
N	 0.8045919253	-1.9900980959	 0.0324869753	-0.188546
N	 1.0730107006	-0.695013032	 0.1524870946	-0.248423
H	 0.9160922399	 1.7840349115	 0.1782801061	 0.256158
H	-0.6300575541	 1.9400145934	-0.4148030692	 0.252354
H	-3.1041774773	-1.3219173795	 0.6266939818	 0.102614
H	-4.1027647121	-1.3996402448	-1.3500100727	 0.293567
H	-1.8935172698	-3.5119718634	 0.5404893897	 0.138622
H	-1.8117540237	-3.3721868424	-1.2570156932	 0.141693
107.6525	132.6796	225.5288	251.0536	282.0424	344.9621	391.817	470.4942	522.1799	655.2327	670.7395	688.3125	755.4799	774.5896	796.6639	875.1847	1004.6273	1057.953	1095.2873	1126.3524	1152.7054	1185.9202	1190.4603	1229.5865	1250.6449	1296.0888	1329.2534	1378.0118	1441.6072	1474.3115	1511.7798	1624.799	1656.4442	3027.6371	3073.3416	3143.0833	3543.05	3638.4566	3815.8575
NC1=C2C(O)CN2N=N1	Nc1c2[C@@H](O)Cn2nn1	
InChI=1S/C4H6N4O/c5-4-3-2(9)1-8(3)7-6-4/h2,9H,1,5H2	InChI=1S/C4H6N4O/c5-4-3-2(9)1-8(3)7-6-4/h2,9H,1,5H2/t2-/m0/s1
