12
gdb 132133	3.06602	1.41884	0.96997	1.9346	63.09	-0.2165	-0.0611	0.1554	1064.6475	0.077523	-518.074872	-518.067801	-518.066857	-518.106739	26.374	
F	 0.0863615356	 0.046066392	 0.0027862223	-0.021501
C	-0.0362224838	 1.3537443375	 0.0112423315	 0.298271
C	-1.2292156481	 2.0057437295	 0.0309516903	 0.019966
F	-2.3942729191	 1.3542506155	 0.0435261519	-0.059993
C	-1.1676079052	 3.4246750771	 0.0374609588	-0.060722
N	-0.0722162119	 4.1254355266	 0.0260908869	-0.309054
C	 1.1581552151	 3.4737467308	 0.0058880465	 0.42865
N	 2.3126747147	 4.0130995611	-0.0073697207	-0.564024
N	 1.1126140167	 2.0551932672	-0.0008126036	-0.390139
H	-2.1147020536	 3.9644288615	 0.0532490437	 0.141248
H	 2.2007134816	 5.0247047278	-0.0007208653	 0.230054
H	 1.9981431279	 1.5680128935	-0.0155332223	 0.287244
90.112	201.3047	271.9427	301.7512	353.0779	447.8891	457.2401	544.3996	566.6644	596.8224	668.9308	754.6565	769.4531	804.4955	835.1267	928.199	984.5295	1060.562	1252.0845	1269.6946	1294.3316	1309.3568	1438.8949	1496.8983	1594.4775	1713.0996	1749.6365	3135.2646	3525.2674	3612.6969
FC1=C(F)C=NC(=N)N1	F[C@H]1C(=CN=C([NH])N1)F	
InChI=1S/C4H3F2N3/c5-2-1-8-4(7)9-3(2)6/h1H,(H2,7,8,9)	InChI=1S/C4H4F2N3/c5-2-1-8-4(7)9-3(2)6/h1,3,7H,(H,8,9)/t3-/m1/s1
