21
gdb 30766	2.98546	1.20123	0.92085	3.7505	86.96	-0.2033	0.0396	0.2429	1347.6095	0.182676	-383.326823	-383.316868	-383.315923	-383.362218	35.515	
C	-0.3777101793	 1.5709713187	 0.1096818069	-0.362677
C	 0.0936336161	 0.1170275036	-0.0554914524	-0.288428
C	 0.8540677088	-0.3861033571	 1.1335720555	 0.212826
C	 2.1790200027	-0.7498838525	 1.2300145787	 0.185448
C	 3.2898958447	-0.7893350266	 0.2353742092	-0.508362
N	 2.3600907888	-1.1240869506	 2.554359115	-0.032639
C	 3.5853275592	-1.5931601875	 3.163397704	-0.339144
C	 1.1553048772	-0.9666006236	 3.1739047703	-0.018333
N	 0.2297967244	-0.5272020901	 2.3575235076	-0.330553
H	 0.4749406554	 2.2513003868	 0.2061474286	 0.107061
H	-0.9752018819	 1.892377805	-0.7496601434	 0.10158
H	-0.9875626472	 1.6688422189	 1.0117152822	 0.137113
H	-0.7822728744	-0.5247222222	-0.2130179196	 0.110198
H	 0.7100229491	 0.0257408789	-0.9569602524	 0.089333
H	 4.1223247274	-0.1292672308	 0.5114323178	 0.126444
H	 3.7049372826	-1.7978211235	 0.1109916073	 0.126091
H	 2.9267194535	-0.4635567925	-0.7414111275	 0.140719
H	 4.3750290494	-0.8369892318	 3.1021193578	 0.140441
H	 3.395462302	-1.8096721852	 4.2164455766	 0.144097
H	 3.9440463727	-2.5084794494	 2.6809950233	 0.140602
H	 1.0252140789	-1.1951302486	 4.2224116048	 0.118184
43.358	102.4785	120.4181	138.5298	202.156	217.2077	247.1528	262.9781	297.3787	388.9714	481.7448	581.5907	640.7597	695.0779	740.9038	749.3282	791.3331	800.9045	948.8981	980.7917	1039.4382	1061.3328	1076.8698	1085.5609	1136.6167	1151.0909	1201.435	1264.1121	1288.1427	1321.8512	1355.172	1400.6143	1412.2114	1418.5792	1428.3729	1460.4118	1474.9443	1476.868	1487.5117	1488.4645	1495.1266	1508.5047	1519.1147	1542.8413	1625.0081	3012.9132	3025.8561	3033.4638	3034.6048	3054.4245	3063.4428	3089.8866	3101.3045	3121.8461	3126.8227	3133.6028	3234.9589
CCC1=C(C)N(C)C=N1	CCc1c(C)n(C)cn1	
InChI=1S/C7H12N2/c1-4-7-6(2)9(3)5-8-7/h5H,4H2,1-3H3	InChI=1S/C7H12N2/c1-4-7-6(2)9(3)5-8-7/h5H,4H2,1-3H3
