14
gdb 49725	3.03506	1.45823	1.1054	5.7216	64.5	-0.2569	-0.0526	0.2043	1044.7174	0.100652	-473.821424	-473.813948	-473.813004	-473.854025	26.631	
O	-0.1369987607	-0.0111708471	 0.0546097439	-0.260163
C	-0.0372265608	 1.1855785987	 0.0313579353	 0.151796
N	 1.1581397544	 1.8834575465	-0.0539424133	-0.129111
C	 1.419354877	 3.3304242855	-0.0401490784	-0.065499
C	 1.6785074707	 3.9201333889	 1.3601936699	-0.09016
O	 3.0646733107	 3.4976751093	 1.3250204668	-0.278313
C	 2.9372855914	 3.0089781831	-0.024086459	-0.044164
C	 2.5349561763	 1.5104105859	-0.0610008832	 0.438291
O	 3.0817796852	 0.4548623768	-0.06521026	-0.30073
H	-0.9017481642	 1.8795716133	 0.0647003985	 0.089606
H	 0.9008728578	 3.9117927971	-0.7995376819	 0.119518
H	 1.6048400943	 5.0127318974	 1.4006024157	 0.123383
H	 1.1203333949	 3.4747495036	 2.189620623	 0.126315
H	 3.6980359331	 3.3796378208	-0.7111657175	 0.119231
78.9985	149.7938	166.9346	199.7366	254.3666	376.8485	458.8926	515.4992	677.9078	735.7911	801.4107	841.4811	901.8993	920.985	990.4801	997.228	1030.6326	1044.0601	1075.9718	1126.0582	1166.4263	1188.1478	1220.2912	1272.8086	1284.7554	1347.1608	1359.956	1431.4186	1507.2315	1813.828	1923.7671	2926.9236	3035.3473	3093.0162	3122.6407	3142.5692
O=CN1C2COC2C1=O	O=CN1[C@H]2CO[C@H]2C1=O	
InChI=1S/C5H5NO3/c7-2-6-3-1-9-4(3)5(6)8/h2-4H,1H2	InChI=1S/C5H5NO3/c7-2-6-3-1-9-4(3)5(6)8/h2-4H,1H2/t3-,4+/m0/s1
