15
gdb 127869	3.052	1.36393	0.94844	3.3097	76.49	-0.2332	-0.0462	0.187	1179.1663	0.112526	-450.117073	-450.108625	-450.107681	-450.150652	30.455	
C	 0.0582332906	 1.4180738351	 0.0799614628	-0.333121
N	-0.0073436995	-0.0294817107	 0.1234700272	-0.320909
C	-1.1487584981	-0.6025696835	 0.0631645481	 0.342709
C	-1.1654824978	-2.0681590229	 0.111993704	 0.028058
N	-2.2035518478	-2.8114801594	 0.0662881745	-0.088528
O	-3.4368480235	-2.1148321524	-0.0477381578	-0.272799
C	-3.4169060737	-0.7590059341	-0.0952553189	 0.524318
N	-4.6749097581	-0.2792534446	-0.2469914164	-0.553805
N	-2.3909341951	 0.0153398387	-0.0395850846	-0.414417
H	 0.6980449806	 1.7166825216	-0.7595090394	 0.125285
H	-0.9136761881	 1.9133563665	-0.0153516558	 0.12599
H	 0.5561661321	 1.7762635552	 0.9895491772	 0.124743
H	-0.2219235245	-2.5984236022	 0.1978993461	 0.155884
H	-5.4492018079	-0.8913879069	-0.052518442	 0.277446
H	-4.7959855192	 0.7096884797	-0.107113265	 0.279144
67.2127	86.5778	186.1971	213.9022	220.6613	329.0812	390.1983	453.3067	461.0433	491.7959	579.5152	611.6103	716.8762	737.4636	762.7545	868.0579	959.6435	962.3476	987.9936	1049.0968	1120.1293	1123.6296	1186.84	1273.0107	1340.7232	1402.2468	1425.2629	1485.3513	1493.0721	1600.3934	1667.8073	1697.023	1724.9451	3012.6509	3064.6479	3093.2485	3193.9019	3611.8821	3741.2059
CN=C1C=NOC(N)=N1	C[N]C1=N[C](ON=C1)N	
InChI=1S/C4H6N4O/c1-6-3-2-7-9-4(5)8-3/h2H,1H3,(H2,5,6,8)	InChI=1S/C4H6N4O/c1-6-3-2-7-9-4(5)8-3/h2H,1H3,(H2,5,6,8)
