19
gdb 38303	2.94949	1.96275	1.96031	1.451	77.01	-0.2371	0.0081	0.2452	845.0868	0.163897	-385.853701	-385.847853	-385.846909	-385.883401	26.561	
C	-0.0377339855	 1.5612640702	 0.0828989071	-0.219597
C	 1.5113051117	 1.4414290204	 0.0259182735	-0.048239
C	 1.3117394884	 0.1262092522	 0.8513540583	-0.194241
C	-0.0180384001	 0.0074565062	 0.0336965921	-0.048238
C	 0.3880317474	-0.4938178514	-1.4207720832	 0.024178
O	 1.817353071	-0.425735229	-1.4900435695	-0.241331
C	 1.9775644684	 0.9965798611	-1.4288542595	 0.024176
C	 0.981914576	 1.4340107128	-2.5087006904	-0.077137
C	 0.0096771386	 0.5224232313	-2.5037478854	-0.077142
H	-0.3646553829	 1.9152530609	 1.0647378836	 0.089186
H	-0.5627313188	 2.1169725613	-0.6921344787	 0.09357
H	 2.1252159174	 2.252733138	 0.4228440478	 0.058495
H	 2.0531516798	-0.6649859614	 0.7639916852	 0.110138
H	 1.1114173613	 0.3455608372	 1.903330778	 0.087229
H	-0.8649704939	-0.550982884	 0.4380506129	 0.058495
H	 0.0729575036	-1.5234913951	-1.5979410167	 0.077355
H	 3.0243920417	 1.2438681259	-1.6129429741	 0.077354
H	 1.0355792442	 2.3533600212	-3.0761622024	 0.102874
H	-0.9142825485	 0.5251327921	-3.0662306987	 0.102874
266.0142	364.5452	448.8163	503.9224	532.7507	589.6071	602.8218	716.3472	747.3076	780.0632	821.1513	824.7824	842.5309	869.6813	903.7845	906.93	926.2206	935.487	944.0395	977.7066	1009.2622	1019.9465	1047.0363	1071.2085	1087.7737	1118.419	1146.8295	1146.9051	1238.63	1243.5421	1249.6795	1269.1435	1271.7849	1301.6216	1311.1107	1331.957	1333.103	1357.2633	1483.9221	1520.6647	1639.0963	3060.8978	3067.0216	3079.9909	3084.6728	3100.9706	3105.404	3137.298	3153.3186	3211.947	3237.7429
C1C2CC1C1OC2C=C1	C1[C@H]2C[C@@H]1[C@@H]1O[C@H]2C=C1	
InChI=1S/C8H10O/c1-2-8-6-3-5(4-6)7(1)9-8/h1-2,5-8H,3-4H2	InChI=1S/C8H10O/c1-2-8-6-3-5(4-6)7(1)9-8/h1-2,5-8H,3-4H2/t5-,6+,7-,8+
