16
gdb 43403	2.84787	1.47558	1.00295	3.9829	78.38	-0.2308	-0.0542	0.1765	1134.2889	0.124178	-400.725491	-400.71741	-400.716466	-400.758238	30.65	
O	-0.0848520941	-0.0492150148	-0.092486326	-0.315526
C	-0.0686556439	 1.1522257901	 0.0404578059	 0.409777
C	-1.2948085866	 1.9716263885	 0.0942781451	-0.150574
C	-1.2494731658	 3.2993032496	 0.2489642701	-0.031275
C	 0.0326713457	 4.0363375679	 0.4881722152	-0.218522
N	 1.0714449064	 3.1257574063	 0.9450183083	-0.310304
C	 1.2492550579	 1.9698092773	 0.056384384	-0.295103
C	 2.398765506	 1.1763588318	 0.4649746782	 0.328051
C	 3.3701709798	 0.5566522612	 0.8016791102	-0.413269
H	-2.2264965701	 1.4340316238	-0.0497177387	 0.113989
H	-2.1578930225	 3.8940635441	 0.2023772136	 0.116131
H	 0.2937338919	 4.5819690596	-0.4439421708	 0.10412
H	-0.123210147	 4.8042184638	 1.2553807912	 0.125478
H	 1.9558006464	 3.6084739659	 1.0535116597	 0.233467
H	 1.4021107834	 2.2752455637	-1.0019312697	 0.104865
H	 4.2169248625	-0.0106900187	 1.1000421838	 0.198695
75.3942	135.4753	169.8371	269.3114	315.9066	372.017	412.1155	458.6152	535.1194	552.6207	629.2609	630.5477	667.9706	712.5302	734.7247	837.6059	900.112	913.1789	991.6434	1027.0939	1048.8521	1076.484	1117.7526	1173.8956	1214.1221	1244.8946	1280.3394	1333.9543	1382.9379	1407.0725	1477.809	1484.2967	1688.8926	1798.3239	2249.2801	2857.5688	2876.4541	3047.7405	3165.6956	3193.0325	3504.2702	3542.9275
O=C1C=CCNC1C#C	O=C1C=CCN[C@H]1C#C	
InChI=1S/C7H7NO/c1-2-6-7(9)4-3-5-8-6/h1,3-4,6,8H,5H2	InChI=1S/C7H7NO/c1-2-6-7(9)4-3-5-8-6/h1,3-4,6,8H,5H2/t6-/m0/s1
