21
gdb 114181	3.37009	1.07851	0.91953	2.6921	85.11	-0.2313	-0.0171	0.2142	1360.8419	0.181574	-387.097005	-387.087654	-387.08671	-387.131585	34.782	
C	-0.4177188117	 1.7882380271	-0.2186085075	-0.383965
C	-0.0940997577	 0.2988712193	-0.3758255217	-0.192335
C	-1.2505456457	-0.6047993391	 0.0575655818	-0.088348
C	-1.0172842719	-2.1565460809	 0.0808142148	-0.374244
C	-1.3798680985	-2.175017754	 1.57536256	 0.252303
C	-2.2670440199	-3.1285072351	 2.3487590119	-0.308036
C	-0.8233028222	-3.0001429101	 2.7139613233	-0.308959
C	-1.5294533037	-0.6827192119	 1.5762268848	 0.341031
O	-1.7413295185	 0.1326115624	 2.4338969836	-0.327432
H	 0.4389702818	 2.4084133518	-0.4996403685	 0.109367
H	-1.2617997593	 2.0761238063	-0.8552718894	 0.111823
H	-0.6875266776	 2.0184636266	 0.8155071608	 0.14788
H	 0.1582912985	 0.0737270728	-1.4198921042	 0.098817
H	 0.7965539037	 0.0481784506	 0.2152702676	 0.098396
H	-2.1627317837	-0.3305794164	-0.486709829	 0.096946
H	-1.678966907	-2.7312281489	-0.5711865821	 0.105966
H	 0.0184543111	-2.4382833823	-0.1291891217	 0.106853
H	-3.0072713457	-2.6814034597	 3.0039696175	 0.134363
H	-2.5917266356	-4.0242717969	 1.8296821238	 0.122307
H	-0.149417822	-3.8086417865	 2.4507275253	 0.12205
H	-0.5666567844	-2.461435625	 3.620161689	 0.135219
43.3369	108.5166	155.1542	183.2494	213.832	232.5443	278.2036	313.7331	356.9188	502.3599	562.6505	699.7347	722.247	777.5245	803.3876	809.6939	829.3412	896.5951	932.8009	951.6193	973.576	1003.9115	1030.7917	1055.8561	1075.3917	1088.5807	1103.2172	1132.7002	1171.2682	1199.7368	1210.5832	1237.8515	1254.3165	1282.8279	1331.3817	1354.5168	1376.978	1413.8119	1458.5109	1489.4799	1489.691	1490.6825	1498.3006	1511.9346	1863.4112	3015.5748	3033.4411	3035.4334	3052.3494	3058.2302	3100.1865	3110.2035	3124.1028	3128.9262	3131.0018	3212.399	3227.2507
CCC1CC2(CC2)C1=O	CC[C@H]1CC2(CC2)C1=O	
InChI=1S/C8H12O/c1-2-6-5-8(3-4-8)7(6)9/h6H,2-5H2,1H3	InChI=1S/C8H12O/c1-2-6-5-8(3-4-8)7(6)9/h6H,2-5H2,1H3/t6-/m0/s1
