20
gdb 85135	2.23734	1.64185	1.16965	2.6752	80.05	-0.2566	0.0293	0.286	1134.6111	0.171213	-403.147823	-403.139152	-403.138207	-403.181223	32.867	
C	-0.1855898057	 1.5537760276	-0.2437586712	-0.407571
C	 0.1757047513	 0.0872716078	-0.1796228577	 0.06818
O	 1.5426754806	-0.1643774399	-0.6726599982	-0.285229
C	 1.9106423917	-0.7333215268	 0.5265483746	 0.400228
N	 3.0002401234	-1.2347857523	 0.8975983475	-0.554883
C	 0.562531374	-0.5348494524	 1.1797266811	 0.18427
C	 0.5083016685	 0.1832927255	 2.5553241524	-0.278856
C	 0.2749386432	-1.2006796243	 3.2195207339	-0.209941
C	-0.1282379512	-1.7615647951	 1.8296316914	-0.282143
H	 0.5170624311	 2.1571764639	 0.3380890797	 0.130047
H	-0.1695786413	 1.9057815204	-1.279467939	 0.133165
H	-1.1935914515	 1.7136258857	 0.1534684366	 0.123971
H	-0.5272398306	-0.5251851704	-0.7552055069	 0.089627
H	 3.7021383029	-1.1946742059	 0.1565802576	 0.224383
H	 1.3941846301	 0.7480789827	 2.8515817776	 0.116454
H	-0.3711806279	 0.8302106262	 2.6298511235	 0.101865
H	 1.2137617148	-1.6371088893	 3.5660030593	 0.131368
H	-0.4641819901	-1.2569358157	 4.0210902702	 0.097565
H	-1.2108903527	-1.732434557	 1.6701857466	 0.100613
H	 0.2493731492	-2.7456508706	 1.545197181	 0.116887
90.3867	104.4835	170.5691	200.1269	215.0946	264.4139	305.3471	467.1956	503.1154	524.0037	683.2918	695.3738	730.796	795.5183	831.2577	864.2376	866.5422	891.2588	940.4676	960.123	984.5325	1015.9475	1062.3023	1066.8123	1093.809	1157.4087	1179.6436	1204.8228	1219.163	1233.944	1256.5518	1272.5757	1281.0919	1298.5492	1356.0707	1379.0245	1410.0928	1468.6562	1479.478	1483.3231	1492.2868	1500.5324	1814.861	3038.9105	3046.6311	3052.0656	3057.3149	3074.03	3109.9389	3111.7406	3117.6138	3120.9829	3135.361	3474.0422
CC1OC(=N)C11CCC1	C[C@H]1O[C]([NH])C21CCC2	
InChI=1S/C7H11NO/c1-5-7(3-2-4-7)6(8)9-5/h5,8H,2-4H2,1H3	InChI=1S/C7H11NO/c1-5-7(3-2-4-7)6(8)9-5/h5,8H,2-4H2,1H3/t5-/m1/s1
