22
gdb 65565	3.24052	1.02435	0.95411	1.9071	82.4	-0.2335	0.0782	0.3117	1357.302	0.193226	-404.30013	-404.290702	-404.289758	-404.335066	35.029	
C	 0.2004994961	 1.6783251211	 0.8906800696	-0.428145
C	 0.0758558554	 0.2479440622	 0.3927458572	 0.420055
C	-1.1671775113	-0.4547789095	 0.9472857248	-0.190288
N	-2.3975393593	 0.2468642578	 0.6005028035	-0.066836
C	-3.1463971466	-0.2461750304	-0.5523315369	-0.218109
C	-3.6432896889	-0.4727148791	 0.8319205639	-0.217654
C	 0.3700919794	 0.0242134639	-1.1161620418	-0.323235
C	 1.579512465	-0.7896680843	-0.6224700476	-0.068586
O	 1.2489374147	-0.5398632531	 0.7579926127	-0.32165
H	 1.0977069021	 2.1523223601	 0.482533175	 0.108163
H	-0.680093845	 2.2580849785	 0.6020705557	 0.13358
H	 0.2753273323	 1.6896731118	 1.9832224613	 0.118947
H	-1.1674613318	-1.5048921809	 0.6046065621	 0.078053
H	-1.0798807534	-0.4731946219	 2.0405359218	 0.110005
H	-3.5963363051	 0.511415258	-1.1875538874	 0.117079
H	-2.7569110288	-1.1139275556	-1.0828621268	 0.108671
H	-3.5809034942	-1.4886592596	 1.2194939734	 0.110406
H	-4.4635775057	 0.1172893907	 1.2309555085	 0.117444
H	-0.3850211035	-0.5418485379	-1.6631361618	 0.104992
H	 0.6091613443	 0.9308365915	-1.6744066564	 0.108077
H	 1.5628812355	-1.8606202652	-0.8605241576	 0.098413
H	 2.5662084687	-0.3891957481	-0.8861692232	 0.100618
58.2312	68.1087	102.2678	162.9153	217.3866	286.0434	314.0474	356.9513	379.8485	434.2371	469.5854	696.1087	773.4212	785.903	839.1426	856.7082	879.391	897.896	961.9331	967.3382	984.5585	1008.4896	1028.4504	1035.4313	1042.6686	1112.794	1119.4224	1127.4098	1160.3384	1163.3649	1178.7598	1210.5857	1224.0516	1253.8575	1283.6825	1316.5684	1324.5661	1354.8078	1377.388	1404.2342	1477.7851	1483.9004	1488.8929	1491.4203	1500.2533	1521.7317	1532.9918	2944.028	3012.1756	3038.7376	3048.2259	3051.683	3081.1244	3091.8968	3096.3833	3108.4268	3128.3045	3134.9523	3175.0484	3189.4277
CC1(CN2CC2)CCO1	C[C@@]1(CN2CC2)CCO1	
InChI=1S/C7H13NO/c1-7(2-5-9-7)6-8-3-4-8/h2-6H2,1H3	InChI=1S/C7H13NO/c1-7(2-5-9-7)6-8-3-4-8/h2-6H2,1H3/t7-/m0/s1
