15
gdb 21268	3.32955	1.89867	1.22781	3.5602	63.63	-0.2294	-0.0003	0.2291	952.3518	0.118266	-399.784835	-399.777106	-399.776162	-399.817095	27.512	
C	-0.0012281816	 1.3796912304	 0.0760785022	-0.255211
O	 0.0186898937	-0.0372568755	 0.0313790843	-0.256548
C	 0.6121749795	-0.5662337139	-1.059123156	 0.16427
C	 1.2062841202	 0.0006729821	-2.1445044291	-0.057946
O	 1.6524487164	-0.9733421924	-2.9676064979	-0.174904
N	 1.348027452	-2.2091778325	-2.4168500985	-0.191653
C	 0.7307036863	-1.9730872946	-1.2843372371	 0.296224
C	 0.247454114	-3.0784804019	-0.4051859926	-0.495521
H	 1.0184507483	 1.7877327748	 0.0761253951	 0.126522
H	-0.55096053	 1.7926898471	-0.7803499016	 0.126522
H	-0.5055766698	 1.6591770717	 1.00186593	 0.141898
H	 1.3838351569	 1.0133739789	-2.4640420684	 0.144081
H	 0.710835878	-3.0179423898	 0.5848146738	 0.141446
H	-0.8357284059	-3.013854156	-0.2601349322	 0.141452
H	 0.4895570118	-4.0437789884	-0.853050952	 0.149369
95.0793	133.1256	182.2413	212.5002	263.8843	296.2668	379.8486	517.4881	602.9518	615.8439	700.9309	750.329	770.8103	911.5513	949.1807	1026.3272	1067.5378	1069.5415	1142.5527	1182.468	1216.7121	1239.6658	1303.0964	1407.7322	1444.2004	1472.369	1478.5066	1486.9427	1488.6498	1507.1368	1552.6436	1670.703	3001.0877	3044.4314	3058.8752	3100.3852	3142.2641	3143.5792	3283.2206
COC1=CON=C1C	COc1conc1C	
InChI=1S/C5H7NO2/c1-4-5(7-2)3-8-6-4/h3H,1-2H3	InChI=1S/C5H7NO2/c1-4-5(7-2)3-8-6-4/h3H,1-2H3
