18
gdb 80254	2.2234	2.00838	1.5286	3.5835	75.04	-0.2297	-0.0129	0.2168	952.014	0.150216	-401.983587	-401.976349	-401.975405	-402.014841	29.622	
C	-0.1440870463	 1.5461346268	-0.0212921757	-0.427147
C	 0.0408295036	 0.0339417009	 0.0088304221	 0.036688
C	 1.1042056666	-0.5750884042	-0.9537833964	-0.065436
N	 2.3223528952	 0.0242080618	-0.3600160183	-0.301502
C	 2.212112544	-0.0696776493	 1.0188062348	 0.413911
O	 3.0659060314	 0.1621776679	 1.8402868435	-0.378936
C	 0.7656290057	-0.5877420883	 1.2458743297	-0.187121
C	 0.8394883972	-2.0489036671	 0.7911453539	-0.087979
C	 1.0277504271	-2.0504848894	-0.5311958736	-0.088937
H	 0.8030370202	 2.0802769992	 0.0808100658	 0.139948
H	-0.609010508	 1.855641805	-0.9635901162	 0.115216
H	-0.8055246997	 1.8646484012	 0.7912033332	 0.120161
H	-0.9201355685	-0.4650349757	-0.1386169327	 0.083512
H	 1.0149681264	-0.3448212572	-2.0147873976	 0.076516
H	 3.2296856246	-0.1020870024	-0.7822444752	 0.249337
H	 0.3805512208	-0.3913947542	 2.2438654391	 0.082852
H	 0.8090295232	-2.8937485501	 1.4656831953	 0.113938
H	 1.1747313366	-2.8985194448	-1.1866336919	 0.10498
147.1081	197.0854	265.7048	282.6935	392.7091	462.0696	493.7408	519.5846	569.173	663.2696	688.6908	725.3349	759.7128	813.3757	858.3449	892.5847	916.0448	936.5668	946.7666	956.162	989.0971	1045.2025	1087.594	1095.4687	1133.972	1164.0902	1179.9429	1240.5376	1253.885	1265.5084	1314.2964	1337.6391	1368.8309	1390.7165	1414.5371	1494.5666	1502.4901	1633.4949	1844.2303	3038.228	3078.0186	3097.5296	3125.3277	3130.2175	3149.4154	3211.3136	3237.0005	3627.3296
CC1C2NC(=O)C1C=C2	C[C@H]1[C@H]2NC(=O)[C@@H]1C=C2	
InChI=1S/C7H9NO/c1-4-5-2-3-6(4)8-7(5)9/h2-6H,1H3,(H,8,9)	InChI=1S/C7H9NO/c1-4-5-2-3-6(4)8-7(5)9/h2-6H,1H3,(H,8,9)/t4-,5-,6+/m1/s1
