21
gdb 120574	3.78259	0.73645	0.69953	5.3278	84.82	-0.2487	0.0312	0.2799	1700.5477	0.18153	-383.271116	-383.260682	-383.259738	-383.307066	37.643	
C	 0.1333628783	 1.5473907619	-0.0581754224	-0.382028
C	 0.2278480049	 0.019832969	-0.040056873	-0.158598
C	 0.5341174203	-0.542922682	 1.3556240739	-0.207122
C	 0.6165825275	-2.0531304935	 1.3733303831	-0.02971
C	 1.8850289827	-2.7777388639	 1.0176318313	-0.313705
C	 1.4206719396	-2.7844102843	 2.4620674587	 0.122102
N	 2.2084084767	-2.1108745525	 3.4633888086	-0.563639
C	 0.8268002241	-4.0153781878	 2.9449550669	 0.286468
N	 0.3196393345	-4.9838040044	 3.3232891226	-0.348419
H	 1.0739278189	 2.0075061927	 0.2649290529	 0.113973
H	-0.0905344446	 1.9195482455	-1.0624159181	 0.117252
H	-0.6559944098	 1.9040814176	 0.6126846521	 0.117474
H	-0.7135544676	-0.4117318479	-0.4032909022	 0.102545
H	 1.0041151419	-0.3136424732	-0.7401579865	 0.101275
H	 1.4752807225	-0.1139707709	 1.7213707419	 0.083385
H	-0.2443850223	-0.2130554743	 2.0572583642	 0.104032
H	-0.3012730692	-2.558026176	 1.083799461	 0.109744
H	 1.8320994472	-3.7046138597	 0.4594593965	 0.141008
H	 2.7708929999	-2.1827830598	 0.8141644511	 0.120235
H	 2.9550926756	-1.5673827506	 3.0518439876	 0.240477
H	 1.642508639	-1.4985299659	 4.0408118597	 0.243252
61.6965	78.9535	102.1597	141.2507	160.145	210.6993	243.9725	266.3228	312.2181	380.6884	418.8667	474.6495	581.0297	606.479	697.174	744.5657	763.0565	837.4819	857.0066	882.2898	901.6904	954.8431	981.7476	1037.3748	1058.4225	1085.5196	1094.6211	1132.045	1182.2284	1204.3182	1263.2886	1297.3679	1310.3196	1319.4192	1331.521	1385.9847	1411.8651	1420.9253	1478.8938	1485.8709	1494.3697	1499.4353	1510.5339	1652.86	2350.1667	3011.0076	3023.9553	3030.9042	3042.0394	3063.5232	3097.3478	3105.6185	3129.3215	3146.9555	3224.0279	3520.9773	3620.389
CCCC1CC1(N)C#N	CCC[C@H]1C[C@]1(N)C#N	
InChI=1S/C7H12N2/c1-2-3-6-4-7(6,9)5-8/h6H,2-4,9H2,1H3	InChI=1S/C7H12N2/c1-2-3-6-4-7(6,9)5-8/h6H,2-4,9H2,1H3/t6-,7-/m0/s1
