16
gdb 37433	3.11735	1.80393	1.45707	3.2732	67.44	-0.2456	0.032	0.2776	901.2484	0.126607	-437.846818	-437.840132	-437.839187	-437.878398	25.9	
C	-0.0100539577	 1.4822416138	-0.1841853546	-0.172453
N	 1.2013578911	 2.1326378414	 0.2990516118	-0.262444
C	 2.0398246541	 1.5009868172	 0.9937949219	 0.132433
O	 2.0673271017	 0.1946633273	 1.3813683255	-0.235737
C	 1.0697419774	-0.6618789234	 0.8630004315	 0.100601
C	-0.0178490562	-1.1376846165	 1.8281569581	-0.004963
O	-0.8306976337	-0.0138138107	 2.1733874162	-0.232361
C	-1.0680285133	-0.6476576358	 0.9143098568	 0.01468
C	-0.042110812	-0.0498961099	-0.0639910052	-0.117953
H	-0.8456017583	 1.913000544	 0.3791941948	 0.130245
H	-0.1497575563	 1.7864644733	-1.2268567819	 0.111333
H	 2.9245304099	 2.0006281686	 1.3832205713	 0.123564
H	 1.5744715899	-1.5076010653	 0.3866882921	 0.099893
H	 0.0043225006	-1.96945832	 2.5218376003	 0.112811
H	-2.0637443377	-1.0292151558	 0.722985659	 0.112368
H	-0.0429045497	-0.5401900881	-1.0393752375	 0.087985
67.8023	133.3699	263.0091	425.3633	472.6029	491.6164	579.9298	635.225	734.798	772.7153	852.7355	859.4589	886.635	913.9595	936.264	952.3983	978.4156	1013.1523	1028.6259	1043.105	1073.8376	1114.9135	1162.2899	1194.5139	1236.4043	1250.645	1265.1202	1298.4358	1337.1073	1354.1774	1384.737	1391.9017	1419.6338	1477.5738	1755.0925	3037.0736	3063.6112	3067.0858	3095.137	3162.8543	3188.0611	3202.7954
C1N=COC2C3OC3C12	C1N=CO[C@H]2[C@H]3O[C@H]3[C@@H]12	
InChI=1S/C6H7NO2/c1-3-4(8-2-7-1)6-5(3)9-6/h2-6H,1H2	InChI=1S/C6H7NO2/c1-3-4(8-2-7-1)6-5(3)9-6/h2-6H,1H2/t3-,4+,5-,6+/m0/s1
