16
gdb 130087	4.92997	1.09909	0.94069	1.2072	74.1	-0.201	0.0174	0.2185	1205.7047	0.126507	-434.041552	-434.033707	-434.032763	-434.073923	29.848	
N	 0.0758391626	 1.3115512764	 0.516000115	-0.58343
C	 0.0725011753	 0.0101768106	 0.0188529855	 0.39669
N	-1.093760916	-0.6348768321	-0.1735482957	-0.370221
N	-0.6752026787	-1.8193130685	-0.660633243	 0.073644
C	-1.024925831	-3.2455489041	-0.7369100476	-0.205968
C	 0.5399129317	-3.4831086847	-0.9171699532	 0.004353
O	 0.9923659828	-4.0581278624	-2.1096317752	-0.417699
C	 0.6599552881	-1.9723001724	-0.7088195991	 0.315896
C	 1.2224115781	-0.7860925779	-0.2779391588	-0.477277
H	 0.7867145514	 1.9013172931	 0.1065213618	 0.246989
H	-0.836119318	 1.7430556043	 0.4419801981	 0.252332
H	-1.4444065338	-3.6505717541	 0.1888659032	 0.132491
H	-1.6525653009	-3.5174621622	-1.5904395961	 0.121314
H	 0.9641564557	-4.0829862409	-0.1087374137	 0.12029
H	 0.7798137878	-3.4555867811	-2.8312602383	 0.28726
H	 2.2572267347	-0.5050414239	-0.176553853	 0.103336
90.2615	137.4304	242.2971	255.5008	294.5273	352.8474	405.7528	451.1959	527.4529	609.6218	661.8848	710.2981	742.1036	773.4386	782.5275	854.6526	867.4912	988.9989	1004.643	1056.2616	1099.4464	1130.394	1147.1688	1182.6733	1198.6079	1256.9614	1288.0511	1327.1843	1410.789	1437.1436	1467.1869	1501.2225	1518.6682	1586.3671	1644.4379	3048.8235	3093.6444	3109.3375	3271.9619	3550.8438	3647.8517	3802.2578
NC1=NN2CC(O)C2=C1	Nc1nn2C[C@@H](O)c2c1	
InChI=1S/C5H7N3O/c6-5-1-3-4(9)2-8(3)7-5/h1,4,9H,2H2,(H2,6,7)	InChI=1S/C5H7N3O/c6-5-1-3-4(9)2-8(3)7-5/h1,4,9H,2H2,(H2,6,7)/t4-/m1/s1
