21
gdb 83830	2.02912	1.71139	1.24351	3.313	82.48	-0.2296	-0.0091	0.2205	1121.603	0.184272	-387.118595	-387.110189	-387.109245	-387.151525	32.903	
C	-0.2251979853	 1.4960989102	 0.2093916055	-0.420813
C	 0.0203599503	 0.0162296462	 0.0169194102	-0.010463
C	 0.5493823591	-0.6074001196	-1.2440568702	-0.064921
C	 1.0237602544	 0.2401599096	-2.4261297225	-0.226501
C	 2.5424644852	 0.4685403471	-2.4220971252	-0.203771
C	 3.017307811	 1.0504490105	-1.0812009237	-0.308966
C	 2.6832387602	 0.1290441917	 0.0889932356	 0.396219
O	 3.4591797732	-0.032065278	 1.0073869583	-0.333333
C	 1.4033417332	-0.6403916082	 0.0232086772	-0.14852
H	 0.4806038404	 2.1263845977	-0.334661786	 0.121781
H	-1.2312571236	 1.7610490981	-0.135170118	 0.121868
H	-0.155486496	 1.763534685	 1.2686885453	 0.130634
H	-0.7126463465	-0.5936295676	 0.5393449538	 0.096197
H	 0.1048070017	-1.5593462808	-1.5174851259	 0.09129
H	 0.7305187213	-0.2570861014	-3.355799993	 0.103951
H	 0.5140233864	 1.2111559814	-2.4304239848	 0.103728
H	 3.054707982	-0.4855591055	-2.5991084575	 0.107056
H	 2.8285053557	 1.135458706	-3.2428158266	 0.09926
H	 4.097651755	 1.2164119838	-1.0598774852	 0.120562
H	 2.5450619818	 2.0276266355	-0.9119744297	 0.12097
H	 1.4664612203	-1.5662340317	 0.5849840822	 0.103773
81.152	136.8443	175.8038	207.8948	294.263	358.0428	405.3302	435.7548	475.0684	513.582	589.8014	703.2712	713.0665	743.8448	777.5773	878.1261	894.6788	906.3228	924.3209	979.3072	1011.7523	1032.6493	1063.2727	1085.8701	1100.0452	1120.1559	1151.9163	1183.5716	1199.0783	1239.6154	1268.8583	1277.3376	1338.9618	1357.1805	1365.535	1371.9281	1386.1824	1418.4795	1430.8379	1462.4419	1488.2084	1494.4947	1501.0615	1508.3538	1788.0442	3023.8731	3029.3478	3032.7234	3038.5687	3070.2287	3078.4209	3094.5646	3098.6384	3122.2664	3138.3808	3149.2034	3169.7638
CC1C2CCCC(=O)C12	C[C@H]1[C@H]2CCCC(=O)[C@@H]12	
InChI=1S/C8H12O/c1-5-6-3-2-4-7(9)8(5)6/h5-6,8H,2-4H2,1H3	InChI=1S/C8H12O/c1-5-6-3-2-4-7(9)8(5)6/h5-6,8H,2-4H2,1H3/t5-,6+,8-/m0/s1
