23
gdb 100065	2.47088	1.16278	1.11625	3.0975	81.33	-0.2341	0.0676	0.3018	1284.9254	0.20318	-425.397025	-425.386525	-425.385581	-425.432595	38.249	
C	-0.4632078319	 1.2557488333	 0.0171648607	-0.244355
O	-0.2381514423	-0.1220145854	-0.174653068	-0.272436
C	 0.6828285881	-0.5280193879	-1.1954668642	 0.323086
C	 0.205094794	-0.0786840121	-2.5864728773	-0.425918
C	 2.0992070396	-0.002417382	-0.9080128424	-0.42594
C	 0.6820537864	-2.0603078762	-1.1250716661	-0.020356
C	 0.8784852561	-2.7446734258	 0.2470170921	-0.093346
O	-0.3322894674	-3.5107414853	 0.0854782504	-0.27642
C	-0.6715356079	-2.8068658591	-1.1262943557	-0.093329
H	 0.4455602703	 1.798486901	 0.3122343284	 0.106616
H	-0.8867817233	 1.7455446166	-0.8706155012	 0.106608
H	-1.1887239461	 1.3368318972	 0.8307312129	 0.130381
H	 0.2356417971	 1.0091591007	-2.6948901049	 0.115634
H	 0.8481672987	-0.5019574502	-3.3640322732	 0.116634
H	-0.8206885052	-0.4127089416	-2.7682925526	 0.125242
H	 2.4170656904	-0.2825419951	 0.1006329197	 0.125239
H	 2.8127661498	-0.4226376592	-1.6232374282	 0.116636
H	 2.1539536501	 1.0864340509	-0.9946333106	 0.115636
H	 1.3694656441	-2.4434098445	-1.883558719	 0.073551
H	 1.7597906151	-3.3884642249	 0.353278229	 0.092319
H	 0.8168500314	-2.0614589536	 1.1018684731	 0.106095
H	-1.5427373723	-2.1561356809	-0.9886903712	 0.106106
H	-0.8532887747	-3.4933055058	-1.9618895716	 0.092315
72.3451	82.5708	96.1569	175.6312	184.0879	215.4008	251.5686	260.7897	315.0161	336.8987	368.2399	417.2993	490.6438	555.5624	664.3468	789.6407	871.1107	892.8988	920.1454	925.378	972.1366	983.1651	1038.5574	1048.4824	1049.714	1102.7012	1134.4877	1170.0636	1173.1064	1178.1824	1191.9812	1207.2485	1225.1795	1270.2798	1271.8176	1313.1522	1357.2249	1392.0987	1396.2751	1410.5468	1473.1524	1476.566	1483.2792	1498.4116	1500.8908	1501.9846	1510.0152	1516.321	1531.2936	2993.7634	3013.7527	3023.7127	3035.5809	3042.8147	3046.0124	3058.9977	3065.0271	3081.2833	3106.5751	3108.3077	3113.7481	3114.746	3117.1565
COC(C)(C)C1COC1	COC(C)(C)C1COC1	
InChI=1S/C7H14O2/c1-7(2,8-3)6-4-9-5-6/h6H,4-5H2,1-3H3	InChI=1S/C7H14O2/c1-7(2,8-3)6-4-9-5-6/h6H,4-5H2,1-3H3
