16
gdb 16929	3.6325	2.12236	1.92157	2.3141	63.27	-0.2406	-0.017	0.2236	755.7975	0.132918	-383.768835	-383.762732	-383.761787	-383.798976	24.475	
O	-0.0002055617	 0.0135199033	 0.0493817755	-0.325846
C	-0.0244394731	 1.2144455629	 0.0185407949	 0.425172
C	-1.2708968749	 2.1255400102	-0.0042869934	-0.332871
C	-0.6147241679	 3.5173568585	 0.0073550546	 0.101368
C	 0.6175017482	 3.3119320716	-0.8909080993	-0.245939
C	 1.1698208477	 2.1764796632	 0.0020878589	-0.151316
C	 1.1290665001	 2.8949720608	 1.3734096184	-0.087005
O	-0.0403375218	 3.7294355406	 1.306736263	-0.277471
H	-1.8550837128	 1.9403882247	-0.9128391091	 0.127689
H	-1.913362469	 1.942946551	 0.8604214222	 0.137223
H	-1.2709824829	 4.3570744343	-0.219036613	 0.085517
H	 0.3737761567	 2.9906958814	-1.9068479632	 0.111061
H	 1.2656369936	 4.1905593906	-0.9266192959	 0.114808
H	 2.1215081899	 1.7118864884	-0.2478856974	 0.090639
H	 1.0469235405	 2.2026959611	 2.2188749008	 0.118174
H	 2.0208855173	 3.5179345774	 1.5184139128	 0.108797
122.6532	242.1193	384.1357	418.9485	466.3013	545.2137	606.5463	691.8174	775.1581	791.5153	864.7327	889.6512	931.3431	937.5522	951.3057	965.2534	974.4089	1026.7265	1070.9066	1108.3846	1145.2666	1168.6861	1178.1448	1208.7468	1254.8487	1271.0286	1290.2263	1312.0534	1335.6553	1380.7941	1435.8926	1493.3872	1530.6761	1861.8483	3017.1011	3052.8392	3063.0901	3067.5651	3115.3274	3123.3573	3126.7522	3146.4329
O=C1CC2CC1CO2	O=C1C[C@@H]2C[C@H]1CO2	
InChI=1S/C6H8O2/c7-6-2-5-1-4(6)3-8-5/h4-5H,1-3H2	InChI=1S/C6H8O2/c7-6-2-5-1-4(6)3-8-5/h4-5H,1-3H2/t4-,5-/m0/s1
