23
gdb 101664	2.60161	0.79988	0.75549	3.8417	83.89	-0.2422	-0.0155	0.2267	1669.6207	0.201521	-425.43391	-425.422313	-425.421369	-425.472572	40.016	
C	-0.080606939	 1.4580584087	-0.104719499	-0.235157
O	-0.0892444903	 0.0801191588	 0.1864110139	-0.24125
C	-1.3403386545	-0.5684079696	 0.0017759807	 0.130408
C	-1.6789003624	-0.7621143012	-1.4799557279	-0.404165
C	-1.2463497912	-1.9146590419	 0.7272025139	-0.211884
C	-0.8634637281	-1.8176902451	 2.2212132568	-0.055289
C	-1.8956706106	-1.0481642642	 3.061843954	-0.415462
C	-0.7310914662	-3.2272431563	 2.7632102379	 0.156927
O	 0.295945576	-3.7513117109	 3.1082914994	-0.249758
H	 0.8948181735	 1.8441341137	 0.2016990886	 0.130087
H	-0.2151352103	 1.6677433036	-1.1755703707	 0.108581
H	-0.8644074567	 1.9962939548	 0.4517557268	 0.10178
H	-2.1318218834	 0.0452565376	 0.4642690572	 0.0647
H	-2.6328556614	-1.2877424441	-1.5886428421	 0.11671
H	-1.768999195	 0.1949694197	-2.0010892428	 0.11762
H	-0.8994386633	-1.3508618793	-1.9736946929	 0.126498
H	-2.2083712849	-2.4327951308	 0.6213498892	 0.095924
H	-0.4961413676	-2.52492532	 0.2096375346	 0.116761
H	 0.1170031534	-1.3422481592	 2.2996696922	 0.111735
H	-2.888955506	-1.5072407268	 2.9922833225	 0.116442
H	-1.6067141849	-1.0309255104	 4.1172865087	 0.127389
H	-1.9804781157	-0.0115404263	 2.7269265745	 0.130095
H	-1.7008634614	-3.7820418206	 2.8177395544	 0.061311
22.6704	46.5653	75.5837	97.1622	149.7436	198.89	212.4694	236.1237	265.0504	304.7391	315.8834	356.2685	380.5921	468.8491	524.1944	577.8107	801.5722	847.3546	897.7418	903.3957	939.7917	988.6883	1008.9045	1055.4484	1116.0758	1136.1534	1149.1629	1153.4185	1179.1581	1184.2345	1215.3907	1257.1222	1291.538	1337.0816	1361.3908	1385.7723	1396.6528	1402.4608	1406.9337	1429.9846	1470.678	1478.0799	1483.546	1491.4912	1495.7056	1504.491	1506.1237	1512.9284	1836.0017	2822.525	2958.7142	2975.6449	3021.6927	3025.7958	3032.9504	3041.0181	3065.5706	3090.4344	3106.2046	3111.1395	3112.3583	3117.0426	3119.3341
COC(C)CC(C)C=O	CO[C@@H](C)C[C@@H](C)C=O	
InChI=1S/C7H14O2/c1-6(5-8)4-7(2)9-3/h5-7H,4H2,1-3H3	InChI=1S/C7H14O2/c1-6(5-8)4-7(2)9-3/h5-7H,4H2,1-3H3/t6-,7+/m1/s1
