21
gdb 121570	6.30214	0.4092	0.39583	1.4376	87.45	-0.2456	0.0393	0.2849	2778.2783	0.178996	-424.17092	-424.159431	-424.158487	-424.210629	37.848	
C	-0.0982412843	 1.2765973076	-0.5405853523	-0.229282
O	-0.0902560926	 0.0169383534	 0.0871700612	-0.226967
C	-1.3284838851	-0.6486269155	-0.001900896	-0.043472
C	-1.1806710476	-1.9985932349	 0.7078931991	-0.356816
C	-2.4094306737	-2.7803366068	 0.6828523858	 0.110372
C	-3.4359122993	-3.4074412765	 0.6415258967	 0.019233
C	-4.6768811027	-4.169133957	 0.6263653853	-0.202374
O	-4.8421675416	-4.8142121174	-0.6227248364	-0.227612
C	-6.0318972777	-5.5655194322	-0.6744173202	-0.217853
H	 0.8976660907	 1.7093345445	-0.4188370448	 0.12794
H	-0.3221897302	 1.1960068976	-1.6161123509	 0.105817
H	-0.8386187807	 1.9547659947	-0.0872224611	 0.104697
H	-2.128766097	-0.0577375517	 0.4728558312	 0.095305
H	-1.6177749513	-0.8053445977	-1.0536410983	 0.099721
H	-0.3649488717	-2.5559582522	 0.2319347687	 0.14073
H	-0.8669493783	-1.8160265371	 1.7428731385	 0.13812
H	-4.6688291251	-4.9131607737	 1.4426886214	 0.113208
H	-5.5317386255	-3.4986088292	 0.8256110048	 0.111405
H	-6.0809022809	-6.0260834653	-1.6635842225	 0.130425
H	-6.0498852713	-6.3595242505	 0.0895999015	 0.104001
H	-6.9234534539	-4.93372499	-0.5309612815	 0.103399
13.0663	58.9721	64.9297	95.8593	102.7926	127.0833	229.0985	231.0242	236.8047	294.1246	315.0878	368.7321	420.569	493.3866	553.2591	794.7357	826.2149	977.1106	994.7402	1028.5635	1054.1208	1086.1518	1135.5972	1163.563	1178.5496	1182.1473	1182.808	1220.2374	1227.4816	1232.7968	1255.054	1300.3246	1315.3447	1410.9948	1419.8349	1473.7271	1477.8164	1481.6634	1484.2794	1485.613	1495.9178	1504.6928	1516.7117	1531.7869	2375.4252	2940.1234	2956.5113	2961.7097	2966.2775	2974.3034	2996.4535	3007.9274	3013.9851	3031.9562	3068.6519	3114.1601	3119.1582
COCCC#CCOC	COCCC#CCOC	
InChI=1S/C7H12O2/c1-8-6-4-3-5-7-9-2/h4,6-7H2,1-2H3	InChI=1S/C7H12O2/c1-8-6-4-3-5-7-9-2/h4,6-7H2,1-2H3
