23
gdb 75330	2.57728	1.40218	1.06144	0.2529	91.85	-0.2258	0.0348	0.2606	1254.5297	0.206524	-351.17664	-351.167679	-351.166735	-351.209634	35.695	
C	-0.3876727134	 1.5135098318	 0.0475223984	-0.474593
C	-0.0226845588	 0.0547869122	-0.0161961594	 0.317656
C	-0.0997556859	-0.6494639603	-1.1475414614	-0.155772
C	 0.2209481057	-2.1137056205	-1.270791296	-0.275635
C	 1.0522054782	-2.6544390178	-0.1219043451	-0.057376
C	 2.3386650234	-1.9621501087	 0.2689690134	-0.325028
C	 1.1368083902	-1.8985432642	 1.1837420245	 0.347697
C	 1.1885524399	-2.6882199271	 2.4760952412	-0.464792
C	 0.3972002192	-0.5717076501	 1.2933219683	-0.363075
H	 0.4665892061	 2.1221661841	 0.3720584443	 0.119902
H	-0.7259178599	 1.8893639028	-0.9218839025	 0.117244
H	-1.1875373971	 1.6909949175	 0.7786754344	 0.119329
H	-0.4356696197	-0.1521442729	-2.0554337071	 0.072548
H	-0.7189611693	-2.6831997016	-1.3371096058	 0.105875
H	 0.7360783697	-2.2989089914	-2.2242394756	 0.101503
H	 1.0563640555	-3.7386852016	-0.0447773787	 0.072572
H	 3.1811829711	-2.574651408	 0.5731919782	 0.100295
H	 2.6094895896	-1.0646980793	-0.2780922481	 0.109298
H	 1.7497746209	-3.6197245575	 2.3507578609	 0.110168
H	 1.6749232438	-2.112540485	 3.2733609235	 0.111838
H	 0.1815615934	-2.9486833787	 2.8241923911	 0.11116
H	 1.0112529686	 0.1443293371	 1.8605951593	 0.096092
H	-0.5048154812	-0.7184157807	 1.9091122822	 0.103094
99.0128	174.7041	205.0531	226.6656	268.2237	274.4564	348.6499	380.215	387.6896	447.6712	472.9396	506.339	662.2518	739.3463	774.9848	816.2396	857.3995	904.8978	913.1492	929.6022	958.3189	987.7146	1008.7459	1043.6497	1062.8092	1065.6267	1078.793	1107.155	1118.4027	1137.6151	1174.3731	1226.8476	1243.4318	1273.4758	1308.8337	1338.8198	1371.7282	1393.9745	1413.783	1415.2475	1423.8588	1474.8431	1479.692	1481.7021	1489.8107	1492.9755	1493.188	1509.0388	1744.9036	2976.0944	2986.6403	2999.2752	3011.531	3012.1069	3016.1113	3055.6178	3073.4538	3094.4124	3108.8816	3124.6469	3134.5922	3141.2351	3210.1407
CC1=CCC2CC2(C)C1	CC1=CC[C@H]2C[C@@]2(C)C1	
InChI=1S/C9H14/c1-7-3-4-8-6-9(8,2)5-7/h3,8H,4-6H2,1-2H3	InChI=1S/C9H14/c1-7-3-4-8-6-9(8,2)5-7/h3,8H,4-6H2,1-2H3/t8-,9+/m0/s1
