18
gdb 6258	4.20634	1.07092	0.95207	2.5889	75.55	-0.2634	-0.0561	0.2072	1263.3922	0.150098	-347.794481	-347.784972	-347.784027	-347.829061	33.915	
C	 0.1463512037	 1.6539289164	-0.0905596487	-0.390379
C	 0.0422378329	 0.1243743086	-0.0101629008	 0.046242
C	 0.7026118571	-0.5399501601	-1.2250482944	-0.402718
C	 0.6525856123	-0.413971085	 1.2914333972	-0.297793
C	-0.1451437898	-0.0999285422	 2.5462039242	 0.224293
O	-1.236412699	 0.4281899543	 2.5395986357	-0.290853
C	 0.4873807522	-0.5050392454	 3.7941967328	 0.250811
C	 1.0271991514	-0.8466379517	 4.8145351036	-0.392228
H	 1.1955473524	 1.9747729885	-0.0900477987	 0.105571
H	-0.3113644876	 2.0253551602	-1.0130392329	 0.111914
H	-0.3602757829	 2.1302956337	 0.7518224122	 0.135216
H	-1.0217914531	-0.1403163906	-0.0028811353	 0.095019
H	 1.7756649234	-0.3165351027	-1.264727248	 0.111654
H	 0.5901615911	-1.6292221712	-1.1998709206	 0.109766
H	 0.2562295387	-0.1782054913	-2.1568396087	 0.114995
H	 0.7508774622	-1.5090240767	 1.2556386843	 0.129291
H	 1.6773877582	-0.0439877	 1.4361143843	 0.125432
H	 1.4880288568	-1.1408109548	 5.726272874	 0.213769
43.1264	94.3214	121.8165	208.6351	230.0228	241.3695	255.6062	332.0741	345.2789	417.4154	483.2949	576.6325	609.5276	644.5173	705.2126	826.0821	841.6061	894.8856	930.6012	965.9904	972.3474	1077.5257	1116.9739	1166.8334	1194.9581	1245.2532	1312.9196	1361.3105	1387.0948	1398.4047	1418.8225	1440.6145	1489.3296	1493.9627	1504.9269	1514.0587	1767.3506	2210.1775	3009.049	3022.9699	3027.3271	3034.2822	3047.7219	3087.4246	3094.2364	3100.6585	3125.996	3494.6874
CC(C)CC(=O)C#C	CC(C)CC(=O)C#C	
InChI=1S/C7H10O/c1-4-7(8)5-6(2)3/h1,6H,5H2,2-3H3	InChI=1S/C7H10O/c1-4-7(8)5-6(2)3/h1,6H,5H2,2-3H3
