19
gdb 117732	2.23097	1.07101	0.94381	2.7441	78.88	-0.2547	-0.04	0.2147	1378.4582	0.153967	-422.998159	-422.987242	-422.986298	-423.03444	38.498	
C	-0.1463123402	 1.6812900116	 0.0639042609	-0.389047
C	-0.137683625	 0.150664957	 0.0296137921	-0.182239
C	 0.7279602741	-0.4462849886	 1.1447719978	-0.199367
C	 0.7160138134	-1.987856557	 1.184338535	 0.07009
O	-0.6012068481	-2.5372451975	 1.1491051954	-0.453182
C	 1.4131731186	-2.5998997299	-0.0552320823	 0.15857
O	 2.2485632014	-2.0408423092	-0.7087015285	-0.24231
C	 1.454277687	-2.4911390496	 2.347937742	 0.293286
C	 2.0470356077	-2.9160050875	 3.3043080952	-0.449626
H	 0.8631521609	 2.0878323562	-0.0615824032	 0.118961
H	-0.7712838612	 2.0897377502	-0.736095555	 0.114267
H	-0.5376313864	 2.0566692912	 1.0163154473	 0.11111
H	-1.1584265908	-0.2335336722	 0.1248722014	 0.10672
H	 0.2358091498	-0.1910299566	-0.9418670246	 0.114277
H	 1.7698258397	-0.1298517151	 1.0285632981	 0.126857
H	 0.3891280729	-0.0801936535	 2.1216713605	 0.095702
H	-0.9639215794	-2.4957002983	 2.0402845517	 0.292031
H	 1.0597203103	-3.6299443324	-0.2699044084	 0.105704
H	 2.5746613453	-3.2867157789	 4.1488262046	 0.208195
69.5391	85.7349	96.3598	115.4018	171.5271	207.7239	225.571	244.1683	259.7419	329.8747	362.5405	439.2458	480.1043	543.8085	618.6315	638.121	668.1765	746.0012	788.8404	871.2192	902.6171	950.3934	979.6366	1045.6451	1075.0246	1132.9865	1152.9255	1164.2175	1260.4083	1306.2542	1326.7483	1359.187	1385.9884	1401.4651	1413.3956	1469.1755	1494.1483	1499.8497	1510.3867	1844.2851	2223.5274	2924.7486	3029.1365	3033.2054	3048.544	3073.2196	3087.7976	3103.3278	3106.4969	3497.8569	3818.7782
CCCC(O)(C=O)C#C	CCC[C@@](O)(C=O)C#C	
InChI=1S/C7H10O2/c1-3-5-7(9,4-2)6-8/h2,6,9H,3,5H2,1H3	InChI=1S/C7H10O2/c1-3-5-7(9,4-2)6-8/h2,6,9H,3,5H2,1H3/t7-/m1/s1
