22
gdb 108874	2.68147	1.17372	0.92604	1.7042	84.73	-0.2372	0.0306	0.2677	1378.9797	0.194731	-404.385146	-404.37566	-404.374716	-404.419838	35.317	
C	 0.5559245837	 0.636641256	-0.6990876938	-0.376649
C	-0.2761271908	 0.4862477601	 0.5841083663	-0.244937
C	-1.610940449	-0.1667446552	 0.3390603671	 0.388907
N	-2.7028929622	 0.4528199898	 0.5215068758	-0.321304
C	-3.9737747787	-0.2005697367	 0.2000825125	 0.06228
C	-4.9460741791	 0.8495051206	-0.3398734865	-0.383701
C	-3.7828036163	-1.375690105	-0.7666866438	-0.228451
C	-2.6274858942	-2.2325388427	-0.2731345603	-0.08153
O	-1.440971386	-1.4494451211	-0.096464084	-0.26441
H	 1.5201627251	 1.1036689657	-0.4786411864	 0.114312
H	 0.7437246766	-0.3368925178	-1.1588952164	 0.129714
H	 0.0354667272	 1.2642999031	-1.4293863881	 0.121872
H	 0.2801966266	-0.1214570321	 1.3080433202	 0.110592
H	-0.4716362372	 1.4599706523	 1.0368654897	 0.121666
H	-4.3894067872	-0.5898122067	 1.1421896917	 0.080416
H	-4.5698890454	 1.2735092576	-1.27692788	 0.114361
H	-5.9321121737	 0.4121509375	-0.529510688	 0.102533
H	-5.0549313449	 1.6664973467	 0.3779463333	 0.123498
H	-4.6912938658	-1.9821626428	-0.8451000866	 0.101026
H	-3.5528026937	-0.9945023984	-1.7692850033	 0.107737
H	-2.8776894137	-2.7050211559	 0.6864680145	 0.108247
H	-2.3603694011	-3.0217957448	-0.9806205238	 0.113822
48.5292	96.9797	137.6933	206.1216	233.4931	250.8086	266.1431	316.547	401.0335	449.665	463.2359	543.4493	633.332	715.291	792.7501	805.8138	863.1564	898.371	920.0324	966.9291	982.7622	999.8536	1044.2232	1085.9226	1116.0966	1138.8069	1140.9919	1183.427	1217.9278	1254.85	1274.1422	1295.3489	1333.5862	1343.0339	1360.842	1378.6279	1403.1523	1404.6874	1415.6377	1473.4503	1476.8877	1486.9553	1496.9544	1498.3347	1508.9395	1512.5403	1740.491	2980.9964	3015.6411	3031.565	3035.6954	3039.058	3042.9831	3081.9067	3093.2992	3103.4821	3108.1055	3113.7836	3120.6852	3131.9654
CCC1=NC(C)CCO1	CCC1=N[C@@H](C)CCO1	
InChI=1S/C7H13NO/c1-3-7-8-6(2)4-5-9-7/h6H,3-5H2,1-2H3	InChI=1S/C7H13NO/c1-3-7-8-6(2)4-5-9-7/h6H,3-5H2,1-2H3/t6-/m0/s1
