19
gdb 72166	2.3763	2.18468	1.69151	2.0067	73.45	-0.2259	0.0856	0.3115	901.8005	0.161389	-423.010694	-423.003748	-423.002804	-423.041594	28.797	
C	-0.0111894585	 1.5445060986	-0.0123419646	-0.512543
C	-0.0182906096	 0.0349523758	-0.0430928566	 0.26635
C	 0.2495250371	-0.815468491	-1.3139743484	-0.301221
C	-0.3513305747	-1.9364347048	-0.4422203638	 0.042301
O	 0.6501948683	-2.0989756226	 0.5768074919	-0.283506
C	 0.7098098002	-0.7477901676	 1.0929200192	 0.022535
C	-0.2960547611	-0.7274229056	 2.2417991791	-0.080203
O	-1.550501632	-0.9561449246	 1.5718960986	-0.281099
C	-1.2843854918	-0.8452958633	 0.1942384775	 0.098788
H	 0.9996645788	 1.9397158027	-0.1654713316	 0.121237
H	-0.6513484146	 1.9552118354	-0.7996627673	 0.121779
H	-0.3781948699	 1.9292089791	 0.9449269787	 0.127696
H	-0.3888820889	-0.5097312141	-2.1469975591	 0.100609
H	 1.2796867592	-0.9604043945	-1.6444246057	 0.105645
H	-0.6779113731	-2.9065447916	-0.811966312	 0.081475
H	 1.7357275489	-0.467625762	 1.3380052422	 0.078217
H	-0.1047856375	-1.5400185335	 2.9484650989	 0.115234
H	-0.3246226353	 0.2274197479	 2.7869901227	 0.090264
H	-2.1925495456	-0.6013437644	-0.3563162496	 0.08644
177.0283	227.6918	258.0899	281.4186	409.112	439.3008	494.7204	578.09	648.192	737.3962	755.6214	810.0489	853.6602	878.5489	919.1486	923.0169	938.0302	952.4014	974.9047	1000.0619	1021.2308	1050.4789	1087.1476	1111.6754	1114.4157	1151.1481	1193.8771	1214.2625	1225.114	1230.1529	1250.3579	1284.509	1304.0077	1327.2309	1354.1174	1393.6458	1415.9992	1486.1288	1491.9692	1494.1001	1509.662	2995.4433	3028.5396	3066.0792	3085.0969	3091.9712	3100.5283	3104.455	3126.2865	3131.3685	3144.2014
CC12CC3OC1COC23	C[C@@]12C[C@H]3O[C@@H]1CO[C@@H]23	
InChI=1S/C7H10O2/c1-7-2-4-6(7)8-3-5(7)9-4/h4-6H,2-3H2,1H3	InChI=1S/C7H10O2/c1-7-2-4-6(7)8-3-5(7)9-4/h4-6H,2-3H2,1H3/t4-,5-,6-,7-/m1/s1
