21
gdb 73275	2.30437	1.71839	1.33847	0.9417	77.46	-0.2389	0.0815	0.3204	1063.4615	0.184368	-424.216331	-424.20825	-424.207306	-424.248654	31.962	
C	-0.0206562821	 1.5536187205	-0.0250785479	-0.487983
C	-0.0529403867	 0.0336875405	-0.0086145822	 0.25961
C	-1.3036095998	-0.6913951858	 0.5398966684	-0.123166
O	-0.4768251321	-1.6028576223	 1.2953716444	-0.304237
C	 0.6466536618	-0.693809397	 1.1748607986	 0.123963
C	 1.9918595957	-1.3601203888	 0.9458274152	-0.242318
C	 2.1450289065	-1.8551762665	-0.4929370808	-0.08059
O	 1.7861665477	-0.8344517382	-1.4121949672	-0.245973
C	 0.3954132502	-0.5785627904	-1.3564170865	-0.130714
H	 0.9771125498	 1.9127730644	-0.2998847432	 0.130899
H	-0.7293152886	 1.9560535948	-0.7581231418	 0.117206
H	-0.2755268557	 1.9727824843	 0.9538231326	 0.113931
H	-1.9207068046	-0.0643037817	 1.1998921819	 0.090877
H	-1.9518953585	-1.2129466749	-0.1734706484	 0.101559
H	 0.6932309255	-0.0481908296	 2.0657669954	 0.062238
H	 2.7760142584	-0.6221970948	 1.1530076494	 0.106533
H	 2.1180491981	-2.1818937818	 1.6605400698	 0.110504
H	 3.1839382053	-2.1192914836	-0.7081698591	 0.1047
H	 1.5210097594	-2.7471410832	-0.6618216743	 0.098904
H	-0.1520334807	-1.5159324761	-1.5435187885	 0.091649
H	 0.1750780806	 0.1102140802	-2.1781251158	 0.10241
106.884	159.1708	223.7315	259.541	288.4921	363.5402	382.9507	404.4938	475.7291	507.1291	642.3522	661.9602	793.9659	847.4551	874.2096	896.0181	912.0473	969.3787	991.3485	997.8774	1004.6364	1017.5808	1082.076	1113.8121	1126.5795	1166.747	1173.6091	1211.7907	1244.8715	1268.6839	1286.3649	1300.26	1337.2098	1365.909	1379.2304	1383.4258	1408.0957	1420.075	1428.6545	1460.8747	1486.7217	1496.191	1498.3769	1504.005	1523.9285	2970.7674	2975.1147	2984.3826	2995.275	3026.0397	3034.9945	3058.4091	3073.814	3077.5331	3091.2409	3091.6277	3100.9142
CC12COC1CCOC2	C[C@]12CO[C@H]1CCOC2	
InChI=1S/C7H12O2/c1-7-4-8-3-2-6(7)9-5-7/h6H,2-5H2,1H3	InChI=1S/C7H12O2/c1-7-4-8-3-2-6(7)9-5-7/h6H,2-5H2,1H3/t6-,7-/m0/s1
