19
gdb 122405	5.20248	0.64139	0.60461	3.6984	73.6	-0.2613	0.0104	0.2717	1830.6375	0.157771	-460.181282	-460.171811	-460.170867	-460.21693	33.038	
C	-0.0396555863	 1.4577138077	-0.0468915633	-0.230672
O	 0.243593981	 0.0851756437	 0.0892133078	-0.231684
C	 0.5773465399	-0.529756042	-1.1337286852	-0.053486
C	 0.8158532554	-2.0118225321	-0.8663653708	-0.224035
C	 1.2164759698	-2.7750687593	-2.1102819895	 0.131847
C	 1.1781396424	-4.3137761049	-2.0638856488	-0.440612
C	 0.076550036	-4.1580132868	-3.1133389392	 0.450771
O	-0.6362962906	-4.856425785	-3.7571954139	-0.313263
O	 0.1420158713	-2.7869961606	-3.1247191674	-0.252261
H	 0.8260821209	 2.0174014027	-0.4354258978	 0.104216
H	-0.8918929582	 1.6340331867	-0.7217304984	 0.108353
H	-0.2897481494	 1.8395906159	 0.9457500474	 0.128963
H	-0.2325828292	-0.4059759288	-1.8703474628	 0.110741
H	 1.4826859222	-0.0668532978	-1.5659849641	 0.083756
H	 1.6099505499	-2.1181799321	-0.1173282374	 0.118329
H	-0.0934706461	-2.4504052842	-0.4399884179	 0.117986
H	 2.1209600217	-2.3618675961	-2.5669924757	 0.100033
H	 2.0660964208	-4.8381838499	-2.4198940774	 0.145456
H	 0.8426556084	-4.7539736372	-1.1229205355	 0.145563
51.5556	77.47	108.1216	114.1233	159.9407	229.3057	282.2306	313.7434	441.3748	492.0092	521.4811	532.2806	725.3735	808.2832	844.4704	890.4644	945.329	982.1061	1018.9061	1065.5931	1071.4229	1106.0407	1132.7021	1163.3079	1174.1531	1192.042	1224.3877	1225.9433	1243.5817	1280.8909	1311.8671	1335.5623	1402.2196	1432.3721	1457.6251	1478.6161	1481.6891	1485.1409	1505.0011	1534.057	1942.0113	2943.8033	2971.872	2994.2462	3016.2228	3037.9501	3064.1381	3088.178	3089.0588	3116.1656	3147.0596
COCCC1CC(=O)O1	COCC[C@H]1CC(=O)O1	
InChI=1S/C6H10O3/c1-8-3-2-5-4-6(7)9-5/h5H,2-4H2,1H3	InChI=1S/C6H10O3/c1-8-3-2-5-4-6(7)9-5/h5H,2-4H2,1H3/t5-/m0/s1
