21
gdb 82819	2.30574	1.98485	1.48837	1.5712	81.33	-0.2327	0.0812	0.3139	1005.0585	0.182684	-387.05701	-387.048927	-387.047983	-387.089011	32.533	
C	-0.2076477807	 1.5326539876	 0.0313910586	-0.421733
C	 0.0552210785	 0.0362248795	-0.0198270781	-0.003548
C	 1.1406733638	-0.5590007492	-0.967526068	-0.079173
C	 2.5256471435	 0.1339426214	-0.8503601902	-0.244931
C	 2.730503608	-0.5577586376	 0.5147179037	 0.110413
O	 1.9592993548	 0.079921955	 1.5578497681	-0.34274
C	 0.7573612523	-0.6549504904	 1.1857075793	 0.435905
C	-0.0271867417	-1.0998923538	 2.389500094	-0.490136
C	 1.5701504057	-1.5390729569	 0.19288098	-0.154139
H	 0.6819708723	 2.0700065685	 0.3699260775	 0.131235
H	-0.4927044625	 1.9195757656	-0.953222909	 0.109921
H	-1.0214767312	 1.7665400364	 0.7266977866	 0.112104
H	-0.877796744	-0.5100440166	-0.2117417944	 0.066586
H	 0.8167743689	-0.8790765155	-1.9580341235	 0.063306
H	 3.2189026517	-0.2795899142	-1.5910095409	 0.098652
H	 2.5834790071	 1.2255480639	-0.8763113338	 0.100842
H	 3.7371396653	-0.8148053281	 0.8515584601	 0.072441
H	-0.3939233281	-0.2305646041	 2.9471902513	 0.128053
H	-0.8902495755	-1.7026887481	 2.0894086632	 0.114809
H	 0.5990291968	-1.69265595	 3.062865011	 0.123244
H	 1.6080100748	-2.6249896135	 0.1621033245	 0.068889
163.4414	179.5629	197.5904	218.9502	247.7972	294.593	420.9838	450.127	554.5487	578.4039	651.7553	753.6164	776.9723	829.9144	843.1625	853.3026	886.4172	901.3292	925.0925	973.5908	993.037	1007.1618	1016.8711	1098.2733	1102.9663	1122.6987	1132.6355	1146.341	1163.6059	1179.5192	1188.8792	1226.2791	1266.9627	1273.3364	1310.4052	1321.1065	1345.9036	1371.0067	1402.3325	1410.0013	1471.7729	1478.4317	1487.5924	1490.7872	1505.9991	3018.208	3030.1842	3032.6691	3042.7174	3082.2364	3090.2951	3098.978	3099.6906	3102.895	3111.9369	3116.948	3147.1513
CC1C2CC3OC1(C)C23	C[C@H]1[C@H]2C[C@H]3O[C@]1(C)[C@@H]23	
InChI=1S/C8H12O/c1-4-5-3-6-7(5)8(4,2)9-6/h4-7H,3H2,1-2H3	InChI=1S/C8H12O/c1-4-5-3-6-7(5)8(4,2)9-6/h4-7H,3H2,1-2H3/t4-,5+,6+,7-,8-/m0/s1
