19
gdb 65038	2.53702	1.44024	1.26543	2.0448	70.3	-0.2532	0.0593	0.3125	1087.422	0.156652	-460.114181	-460.104951	-460.104007	-460.148395	34.18	
C	-0.0132945935	 1.4960167157	-0.4944751334	-0.470917
C	-0.0320368803	 0.0447637628	-0.0714366801	 0.400535
C	 1.1629305589	-0.7915766568	-0.2360000269	-0.23103
O	 0.7905421289	-0.2874307589	 1.0528748413	-0.277132
C	-1.4023719601	-0.6086898166	-0.0573016931	 0.266586
O	-1.8827354587	-0.5368151484	-1.383635346	-0.481886
C	-1.5533614497	-1.9824756435	 0.6445931648	-0.138735
O	-2.5373580034	-1.4566608314	 1.5586072235	-0.27171
C	-2.3824473993	-0.1212643632	 1.0453328441	-0.133859
H	 1.0040836137	 1.8913741133	-0.4511068578	 0.125347
H	-0.3987026348	 1.597825852	-1.5116051046	 0.14468
H	-0.640745645	 2.1013776893	 0.1687963521	 0.125159
H	 1.0664905001	-1.8688763373	-0.3624489256	 0.11553
H	 2.0645150934	-0.3557332615	-0.6629620067	 0.118284
H	-2.7838055807	-0.87670162	-1.3998594412	 0.288519
H	-1.9583756553	-2.7736832385	 0.0006955795	 0.093875
H	-0.6645576625	-2.3441673155	 1.1709077464	 0.118788
H	-1.9515027454	 0.5586549354	 1.7904671742	 0.1126
H	-3.3245970963	 0.3004544328	 0.6703990096	 0.095366
59.8363	72.9512	184.1723	199.6853	234.9418	301.5534	316.2507	341.7521	373.8806	420.402	489.4807	519.5698	572.785	801.8178	850.0383	863.8583	912.2432	923.2349	932.6005	992.7709	1013.8837	1042.2292	1077.4652	1088.9187	1115.7954	1134.4578	1158.3964	1165.588	1169.2663	1223.8489	1249.2663	1305.9254	1360.8266	1388.2846	1411.5883	1435.5914	1482.7811	1494.6062	1499.3894	1521.0526	1533.931	3003.5525	3019.5083	3042.594	3056.946	3082.9503	3087.5757	3111.2022	3138.6944	3172.8885	3809.4853
CC1(CO1)C1(O)COC1	C[C@]1(CO1)C1(O)COC1	
InChI=1S/C6H10O3/c1-5(2-9-5)6(7)3-8-4-6/h7H,2-4H2,1H3	InChI=1S/C6H10O3/c1-5(2-9-5)6(7)3-8-4-6/h7H,2-4H2,1H3/t5-/m0/s1
