21
gdb 80399	2.91505	1.30613	1.19952	0.4651	77.33	-0.2477	0.0635	0.3112	1141.9075	0.182256	-424.222538	-424.213636	-424.212692	-424.255569	35.483	
C	 0.0031053733	 1.5309212363	 0.0081634139	-0.447287
C	 0.0445582436	 0.0039087639	 0.0057837818	 0.407656
O	-1.2875319792	-0.5260778063	 0.0564855325	-0.474586
C	 0.800463852	-0.6030144209	-1.2066589954	-0.269613
C	 1.2733395291	-1.9779485111	-0.7415575766	-0.073725
C	 2.5554311968	-2.0325760121	 0.0368198996	 0.083095
O	 3.3947743727	-0.9139112218	-0.0161972104	-0.413636
C	 1.2406316854	-1.9839089777	 0.7825762021	-0.09855
C	 0.7472019637	-0.6132485426	 1.2371790724	-0.242958
H	 1.0118893353	 1.9551902731	 0.0200233478	 0.118153
H	-0.5060876705	 1.9082645852	-0.8871989704	 0.101076
H	-0.5426234992	 1.8962414299	 0.8833055094	 0.119345
H	-1.7427777206	-0.2483650704	-0.7456051538	 0.270278
H	 0.1383010145	-0.6745611618	-2.0755622141	 0.080368
H	 1.6477170599	 0.0297381153	-1.4875656731	 0.115353
H	 0.9882979668	-2.8536445376	-1.3126561073	 0.083081
H	 3.0835450941	-2.9863250523	 0.0380231993	 0.080062
H	 3.8233797569	-0.8220097172	 0.8413365805	 0.288878
H	 0.9309118237	-2.863795616	 1.334739725	 0.08166
H	 1.5755815977	 0.0286318014	 1.555336449	 0.083009
H	 0.0382896341	-0.6875390175	 2.064457918	 0.108342
74.2413	188.0141	227.7378	240.0304	282.1834	301.6201	310.7674	368.9448	409.2862	434.0184	516.0578	581.1084	605.742	706.4809	771.2479	785.1497	792.6319	880.3179	903.6307	924.6593	935.7318	958.4087	1021.2674	1036.5534	1055.2777	1068.7932	1111.6286	1125.4271	1143.906	1174.9155	1208.8771	1225.9384	1271.1734	1291.3386	1297.2605	1327.6279	1338.234	1361.545	1383.4962	1405.5184	1444.6537	1468.5668	1482.9535	1492.5695	1493.9977	3024.3618	3045.9547	3049.332	3088.696	3092.5705	3095.0339	3109.1603	3114.2847	3167.4495	3177.9243	3803.2109	3803.5278
CC1(O)CC2C(O)C2C1	C[C@@]1(O)C[C@H]2[C@@H](O)[C@H]2C1	
InChI=1S/C7H12O2/c1-7(9)2-4-5(3-7)6(4)8/h4-6,8-9H,2-3H2,1H3	InChI=1S/C7H12O2/c1-7(9)2-4-5(3-7)6(4)8/h4-6,8-9H,2-3H2,1H3/t4-,5+,6-,7-
