23
gdb 119103	1.79046	1.028	0.7149	0.1739	96.12	-0.2248	0.0621	0.287	1712.5617	0.203429	-351.131895	-351.120782	-351.119837	-351.170352	39.39	
C	-0.1453591267	 1.6502193019	 0.1071652517	-0.380856
C	-0.0973072354	 0.1304160941	 0.2843712494	-0.159036
C	-1.3719232741	-0.5666564459	-0.2047244146	-0.256009
C	-1.3376984455	-2.0860369865	-0.0561714179	 0.177716
C	-1.7117923972	-2.6766270243	 1.2972744991	-0.288676
C	-2.6597046617	-2.8139119984	 0.1400800717	-0.308803
C	-0.3188065236	-2.7618940744	-0.8202307863	 0.024969
C	 0.5368752432	-3.3067886283	-1.4719387382	 0.066568
C	 1.5674320602	-3.9729798628	-2.2562713032	-0.500622
H	 0.7757678567	 2.1224545089	 0.4628255771	 0.110204
H	-0.2728740889	 1.9223469406	-0.9466956922	 0.113361
H	-0.9806013269	 2.091072372	 0.6635264769	 0.110135
H	 0.7621316523	-0.2805618497	-0.257858947	 0.10904
H	 0.0633158109	-0.1147687166	 1.3419851868	 0.093456
H	-2.2365839497	-0.1823516144	 0.3521504671	 0.086825
H	-1.5448937923	-0.3157756541	-1.259370496	 0.099165
H	-1.1746294449	-3.5574601305	 1.6276197746	 0.120845
H	-1.9617796575	-1.9756857901	 2.0869723179	 0.112938
H	-3.5605961986	-2.2093553729	 0.1360457948	 0.112883
H	-2.766586829	-3.7885536443	-0.3209105054	 0.120679
H	 1.2579227791	-4.9844817136	-2.5428531634	 0.145236
H	 1.7827955422	-3.4226792132	-3.1791597177	 0.145694
H	 2.5065218776	-4.0610448076	-1.6979925752	 0.144287
11.7859	62.8136	85.9192	114.6592	130.8205	180.444	250.0595	281.4146	293.1133	316.7942	347.5315	402.3028	529.4024	552.6274	630.597	746.1755	788.4362	831.4836	883.3802	896.4537	908.2831	947.6466	976.1205	1051.0232	1052.722	1052.9557	1058.2306	1074.3135	1081.0325	1120.2848	1131.4142	1193.9037	1251.6159	1280.4505	1316.0712	1323.2561	1370.2955	1393.7727	1411.7487	1415.9041	1463.6085	1477.2655	1478.1656	1480.6319	1493.4491	1496.7395	1500.8788	1510.3529	2362.5709	3011.7765	3022.8683	3025.9139	3028.4444	3045.9981	3067.3118	3080.711	3083.3825	3094.9476	3100.1203	3133.1616	3137.6741	3218.5849	3233.1015
CCCC1(CC1)C#CC	CCCC1(CC1)C#CC	
InChI=1S/C9H14/c1-3-5-9(6-4-2)7-8-9/h3,5,7-8H2,1-2H3	InChI=1S/C9H14/c1-3-5-9(6-4-2)7-8-9/h3,5,7-8H2,1-2H3
