14
gdb 25819	4.17852	1.14067	0.89667	2.8609	68.69	-0.2199	-0.0215	0.1984	1201.765	0.102466	-470.048129	-470.040283	-470.039339	-470.080782	29.44	
N	-0.1790427661	 1.3259119096	 0.1372614865	-0.55835
C	 0.0341248235	-0.0356881784	 0.0141491231	 0.216727
N	 1.1583290764	-0.6446038792	-0.0749492068	-0.523921
C	-1.1806571809	-0.8491388219	 0.0445731019	 0.364181
C	-1.4335544244	-2.1803813249	 0.0337235481	-0.17411
N	-2.8053458163	-2.4051441987	 0.0678369131	-0.37804
C	-3.2999545584	-1.2087083164	 0.0968485027	 0.470341
O	-4.574380793	-0.8373776782	 0.1351723355	-0.396196
O	-2.4162643927	-0.2043241151	 0.0863353264	-0.219445
H	 0.5781014712	 1.9266081526	-0.1478310616	 0.250349
H	-1.1011511902	 1.6759840381	-0.0701963656	 0.263896
H	 1.937637538	 0.0145972463	-0.0774620162	 0.203109
H	-0.7179532415	-2.9848139865	 0.0038278095	 0.154314
H	-5.1006830856	-1.6476140273	 0.1407613234	 0.327144
66.7983	155.7269	172.4674	320.405	385.0767	404.5747	413.2052	443.193	448.5609	552.0181	591.7072	642.0747	723.2795	750.6672	753.7359	823.5109	896.693	977.0991	1021.1285	1091.2447	1117.6625	1136.7235	1206.2955	1228.6584	1268.1916	1422.0193	1486.7725	1629.9656	1637.4899	1661.6979	1704.5448	3287.8095	3467.7877	3584.9751	3700.0335	3803.5962
NC(=N)C1=CN=C(O)O1	NC(=N)c1cnc(O)o1	
InChI=1S/C4H5N3O2/c5-3(6)2-1-7-4(8)9-2/h1H,(H3,5,6)(H,7,8)	InChI=1S/C4H5N3O2/c5-3(6)2-1-7-4(8)9-2/h1H,(H3,5,6)(H,7,8)
