19
gdb 91134	2.72264	1.79026	1.52495	1.928	73.84	-0.2361	0.0575	0.2936	955.7784	0.160402	-422.961359	-422.954055	-422.953111	-422.992903	29.271	
C	 0.269477799	 1.5343680422	-0.2607870285	-0.425518
C	 0.1266907782	 0.0638957972	 0.0709356085	 0.160814
O	 0.8733646326	-0.8341815164	-0.8117824168	-0.314702
C	 1.2900161274	-1.6491718988	 0.3009617616	 0.107974
C	 2.7555857093	-1.4200948658	 0.7796161414	-0.112838
C	 3.5231969434	-0.2952256249	 0.0704742237	-0.08822
O	 2.9431380929	 0.7093412023	 0.9478743164	-0.287877
C	 2.2397286275	-0.2904098786	 1.7106691468	 0.108642
C	 0.7554451037	-0.6019345807	 1.3136514984	-0.142015
H	 1.3025168389	 1.8656314509	-0.1728804463	 0.155207
H	-0.0920626969	 1.7171907757	-1.2783235505	 0.120406
H	-0.3513563097	 2.1238067951	 0.4236283206	 0.112408
H	-0.9368274736	-0.2157324279	 0.0202528321	 0.075841
H	 0.937708213	-2.681787359	 0.222950568	 0.075297
H	 3.3028174243	-2.2965501097	 1.1248113746	 0.077386
H	 4.6113268018	-0.3365662088	 0.1939414241	 0.100809
H	 3.2646048539	-0.1245715913	-0.9779028432	 0.12373
H	 2.4456455876	-0.2111095337	 2.7821018194	 0.080204
H	 0.0976270469	-0.8426178877	 2.1491701097	 0.072451
114.3614	205.3104	223.2848	283.6295	284.7928	409.2813	496.7395	598.1709	625.9157	727.5497	752.4407	810.0374	840.2284	862.1036	894.8894	922.2547	944.1441	976.3602	997.8835	1005.8515	1042.8909	1078.432	1096.8009	1105.689	1150.6455	1162.8102	1178.5714	1188.9204	1206.1175	1237.4795	1272.0455	1292.7015	1308.0752	1329.4426	1337.4689	1369.9125	1395.185	1412.7294	1483.5328	1505.7022	1510.3534	2976.651	3032.8293	3039.0431	3060.192	3060.7956	3097.2002	3100.4744	3107.6665	3119.6271	3173.0433
CC1OC2C3COC3C12	C[C@H]1O[C@H]2[C@H]3CO[C@H]3[C@@H]12	
InChI=1S/C7H10O2/c1-3-5-6-4(2-8-6)7(5)9-3/h3-7H,2H2,1H3	InChI=1S/C7H10O2/c1-3-5-6-4(2-8-6)7(5)9-3/h3-7H,2H2,1H3/t3-,4+,5-,6-,7+/m1/s1
