15
gdb 42854	5.00895	1.04623	0.97006	0.9301	70.59	-0.2566	-0.0203	0.2363	1166.4218	0.11194	-416.737596	-416.729822	-416.728877	-416.770703	28.672	
O	-0.441998292	 0.0495205608	 0.2423924725	-0.301626
C	-0.1038589983	 1.1769923606	 0.11719351	 0.500514
C	-0.5147823193	 2.6301036891	 0.4794916431	-0.159222
C	 0.9673871548	 2.7799668235	 0.9563454198	-0.267008
C	 1.0510714044	 2.0595331418	-0.42950281	-0.159226
N	-0.1020749429	 2.9013701554	-0.9619858224	-0.12267
C	 0.0917415443	 4.2510052969	-1.4752475692	-0.274322
C	 0.8860458338	 5.2677569021	-0.7465791428	 0.245348
N	 1.4966428182	 6.0917835576	-0.2127088665	-0.315699
H	-1.4310449323	 3.0291894559	 0.9094880866	 0.112509
H	 1.3524904631	 3.794626103	 0.9828510767	 0.167029
H	 1.2735054324	 2.2127961479	 1.8396376726	 0.124868
H	 1.9191137825	 1.8084450774	-1.0354384792	 0.11252
H	 0.5406100152	 4.1515738973	-2.4701532478	 0.168491
H	-0.905389174	 4.6788259007	-1.6299513933	 0.168493
39.542	119.0068	176.4354	255.3301	320.3087	376.6341	440.1113	465.4792	640.8697	677.5343	721.2767	731.7272	771.787	830.4122	875.8523	899.2404	921.697	993.5127	1010.9049	1020.6785	1110.0524	1112.6132	1153.7666	1164.1161	1199.7911	1204.724	1270.2413	1316.0401	1368.1154	1447.2418	1506.4676	1953.9721	2343.3452	3043.0876	3074.5316	3080.6225	3149.2967	3152.5733	3196.9067
O=C1C2CC1N2CC#N	O=C1[C@H]2C[C@@H]1N2CC#N	
InChI=1S/C6H6N2O/c7-1-2-8-4-3-5(8)6(4)9/h4-5H,2-3H2	InChI=1S/C6H6N2O/c7-1-2-8-4-3-5(8)6(4)9/h4-5H,2-3H2/t4-,5+
