15
gdb 53484	3.17689	0.82278	0.67728	4.7902	78.94	-0.2743	-0.0146	0.2597	1600.2144	0.110489	-379.667277	-379.657271	-379.656327	-379.70465	33.017	
C	-0.0075765015	 1.4848574424	-0.0094632254	-0.499528
C	 0.0151132823	 0.0304045905	-0.0392388978	 0.137695
C	 0.0458584611	-1.1725535118	-0.0558756264	 0.015483
C	 0.0403967385	-2.6257214271	-0.0696979416	-0.36122
C	-1.4084993877	-3.2031973988	 0.0740453922	-0.289648
C	-1.4023292976	-4.6634896395	-0.0861577367	 0.294532
N	-1.3628558008	-5.8063876148	-0.2435343341	-0.297892
C	-2.0207127812	-2.8219867732	 1.3537685349	 0.312755
N	-2.4951275935	-2.5104868783	 2.3587197765	-0.300718
H	 0.9164727384	 1.8828861534	 0.4229507514	 0.158596
H	-0.1137474509	 1.9026018025	-1.0161648818	 0.154378
H	-0.8433262024	 1.8507043844	 0.596221334	 0.162127
H	 0.449705956	-3.0140767977	-1.0087176924	 0.159752
H	 0.6561874762	-3.03325749	 0.7389667794	 0.166091
H	-2.0222191267	-2.7773374919	-0.7287743321	 0.187596
17.8274	47.603	74.3019	137.087	180.6519	201.0936	231.9991	301.6621	377.2674	392.4547	458.4555	488.548	577.0794	587.1227	774.523	814.3905	961.2925	1011.0831	1047.6551	1051.5119	1056.3616	1176.6048	1198.5506	1275.4944	1326.975	1357.6577	1414.1385	1474.4444	1475.3319	1476.0946	2370.2612	2375.3527	2378.9489	3032.9826	3043.5942	3051.9959	3085.7019	3096.65	3098.1459
CC#CCC(C#N)C#N	CC#CCC(C#N)C#N	
InChI=1S/C7H6N2/c1-2-3-4-7(5-8)6-9/h7H,4H2,1H3	InChI=1S/C7H6N2/c1-2-3-4-7(5-8)6-9/h7H,4H2,1H3
