15
gdb 47992	7.41439	0.57728	0.56719	1.3056	80.41	-0.261	-0.0681	0.1929	1842.101	0.109791	-420.609546	-420.600553	-420.599609	-420.645693	30.654	
O	-0.0009734892	-0.0487748887	 1.1539087235	-0.225781
C	 0.0413801849	 0.8849602827	 0.3859571155	 0.017501
C	 1.1922182544	 1.7286186651	 0.1906746235	 0.025136
C	 2.1455709299	 2.4498039234	 0.0100745698	 0.114202
C	 3.2806203517	 3.3152992979	-0.210731749	-0.183835
C	 3.7500357954	 3.5092019074	-1.6997986872	-0.34724
C	 3.7224794902	 5.0267293088	-1.4553336297	 0.402848
O	 4.1300448494	 5.9679174614	-2.0660273701	-0.273768
C	 3.0296276224	 4.8639695946	-0.0926476894	-0.347243
H	-0.8335426498	 1.159850746	-0.2377975203	 0.099354
H	 4.1183335282	 3.0102174067	 0.4219610303	 0.126674
H	 4.713021789	 3.0748046478	-1.9761246713	 0.145897
H	 2.9968950991	 3.1988221224	-2.42992275	 0.150179
H	 1.9696812334	 5.1305429955	-0.1383344465	 0.150178
H	 3.488835111	 5.3769509791	 0.7549208009	 0.145896
22.5033	42.1583	107.1294	114.5737	210.1227	251.2842	399.8885	449.8969	450.1044	548.2604	560.8739	662.9527	674.9926	741.6363	875.4376	911.2958	952.0952	995.7608	1021.3987	1043.8455	1092.0792	1172.6252	1189.7652	1196.5132	1228.5685	1237.3387	1352.9707	1423.4164	1426.3269	1444.0307	1766.4146	1906.3182	2325.2414	2918.1628	3068.1344	3071.4547	3073.6215	3131.6677	3131.9729
O=CC#CC1CC(=O)C1	O=CC#CC1CC(=O)C1	
InChI=1S/C7H6O2/c8-3-1-2-6-4-7(9)5-6/h3,6H,4-5H2	InChI=1S/C7H6O2/c8-3-1-2-6-4-7(9)5-6/h3,6H,4-5H2
