16
gdb 8633	2.42802	1.74739	1.38788	4.5469	68.98	-0.334	-0.009	0.325	976.7633	0.129066	-342.815304	-342.806329	-342.805384	-342.848608	31.684	
C	-0.0996732617	 1.5542789982	 0.0916306585	-0.416422
C	 0.0112908132	 0.0320039673	 0.0002144472	-0.188033
C	 0.7477660711	-0.4884664702	-1.2786295151	-0.081248
C	 2.2224555302	-0.0105567982	-1.3482807236	-0.407621
C	 0.7268108209	-1.9632608288	-1.2502580787	 0.29739
N	 0.7320721963	-3.1161313103	-1.1840759338	-0.32188
C	 0.0294558907	-0.0311779465	-2.4837072204	 0.306882
N	-0.5271041103	 0.3691954357	-3.4130982458	-0.328162
H	 0.8780763629	 2.0359260679	 0.1791647968	 0.128998
H	-0.6108213995	 1.9703832452	-0.7814748832	 0.151741
H	-0.6788247121	 1.824605262	 0.9786934287	 0.134632
H	 0.5551725736	-0.3695796576	 0.8614184803	 0.12859
H	-0.985952401	-0.4172956683	 0.0162021961	 0.139524
H	 2.7491609413	-0.3288608248	-0.4455120469	 0.14625
H	 2.7236572806	-0.4382572425	-2.2182809537	 0.158912
H	 2.2604723438	 1.077076701	-1.4235136465	 0.150448
95.8788	136.6753	148.0129	184.7672	223.3594	227.9871	279.7255	319.7221	384.5223	486.0051	530.5917	586.9505	590.5756	665.6589	789.0307	900.3977	926.1636	997.0096	1021.4682	1080.6049	1144.2486	1187.4898	1217.0332	1321.1382	1366.513	1410.7902	1419.9398	1479.647	1487.136	1496.1748	1504.6207	1508.6655	2361.1753	2366.6274	3048.8449	3054.7258	3062.3543	3095.5545	3120.9268	3125.7159	3144.6987	3154.3824
CCC(C)(C#N)C#N	CCC(C)(C#N)C#N	
InChI=1S/C6H8N2/c1-3-6(2,4-7)5-8/h3H2,1-2H3	InChI=1S/C6H8N2/c1-3-6(2,4-7)5-8/h3H2,1-2H3
