17
gdb 82584	2.38824	2.27892	1.846	3.5965	71.56	-0.2462	-0.0333	0.2129	834.6255	0.138358	-417.929686	-417.923074	-417.92213	-417.960264	27.559	
O	 0.410848803	 1.2618627058	 0.4072612999	-0.425425
C	 0.074196489	-0.0366353499	 0.0419084074	 0.144873
C	-1.4585537604	-0.5155459931	 0.0696203576	-0.1138
C	-2.4976606817	 0.6227443783	-0.0496739444	-0.179984
N	-2.0355584821	 1.3518174812	-1.2716623559	-0.193301
C	-1.414830755	 0.4849614342	-1.9576243464	 0.163097
N	-0.0547072439	 0.6559248492	-2.4644941182	-0.35175
C	 0.2371688099	-0.4725630945	-1.4755829734	-0.071322
C	-1.2406386603	-0.9274531865	-1.3970618397	-0.0897
H	 0.0435040483	 1.8557961079	-0.2632697524	 0.305907
H	 0.6654743043	-0.7102599686	 0.6679000084	 0.099795
H	-1.6784786975	-1.2699181722	 0.8269512373	 0.068908
H	-3.5288985031	 0.2533135362	-0.1301849882	 0.110114
H	-2.4551018233	 1.3252503123	 0.7873441705	 0.128178
H	 0.0771141741	 0.2735851237	-3.401369662	 0.235537
H	 1.0932478638	-1.0889384396	-1.7515331537	 0.084284
H	-1.6583525051	-1.7983387946	-1.8995843268	 0.08459
184.0801	202.0283	278.0912	408.3806	457.4184	501.3546	556.3051	617.827	678.0602	730.7033	754.5583	780.6897	814.7315	853.9445	885.3234	912.5537	943.6948	983.2492	985.7917	996.2068	1014.6229	1070.3458	1109.2949	1124.7648	1154.1944	1189.8786	1199.1731	1219.4168	1246.3663	1269.9938	1281.3484	1319.3516	1327.0244	1338.109	1448.2355	1479.4229	1690.4318	3020.1373	3075.4599	3092.2826	3100.9967	3108.6565	3131.0627	3460.0609	3736.6019
OC1C2CN=C3NC1C23	O[C@H]1[C@H]2C[N][C]3N[C@@H]1[C@@H]23	
InChI=1S/C6H8N2O/c9-5-2-1-7-6-3(2)4(5)8-6/h2-5,9H,1H2,(H,7,8)	InChI=1S/C6H8N2O/c9-5-2-1-7-6-3(2)4(5)8-6/h2-5,9H,1H2,(H,7,8)/t2-,3+,4+,5-/m0/s1
