19
gdb 50315	3.85709	1.08775	0.92141	2.9372	81.93	-0.2428	-0.0217	0.221	1268.5504	0.160233	-385.897589	-385.889515	-385.88857	-385.93099	30.787	
O	-0.3088384693	 0.1066011187	-0.1187227738	-0.248819
C	-0.0733066401	 1.2740866862	 0.0523681806	 0.150199
C	 1.3104499443	 1.8941525076	 0.0721296056	-0.105806
C	 1.4945334416	 2.7135585326	-1.2334413084	-0.247445
C	 2.7187307537	 3.626584097	-1.1973829591	-0.042536
C	 2.5452305724	 5.1060559487	-0.9470018936	-0.288433
C	 3.1182586748	 4.2119086653	 0.135128197	-0.052923
C	 2.3068653868	 3.8225827431	 1.3129143996	-0.089856
C	 1.4877137078	 2.7703531174	 1.2961872384	-0.074617
H	-0.8987272453	 2.0133544258	 0.1931843944	 0.072569
H	 2.0276017777	 1.0636237822	 0.0917824309	 0.10404
H	 1.5622661999	 2.0253591746	-2.0812855826	 0.116194
H	 0.5890682563	 3.3125358788	-1.3917820454	 0.105063
H	 3.5273770005	 3.3406056474	-1.8615839244	 0.0901
H	 3.2166818484	 5.7996246474	-1.4417257183	 0.112797
H	 1.5333690727	 5.4742804742	-0.8106447677	 0.114323
H	 4.1808888176	 4.3342832721	 0.3283948922	 0.094327
H	 2.4160451229	 4.4127738657	 2.2198617697	 0.094747
H	 0.9305697671	 2.5008038451	 2.1900713247	 0.096076
53.3951	72.4586	181.2045	275.4666	328.9773	361.2819	394.9643	507.3347	518.6935	577.1448	732.1193	741.6572	805.1124	816.832	849.7505	896.8739	947.384	966.396	989.824	996.7747	1040.4625	1057.2194	1084.1633	1095.6301	1117.9244	1127.7438	1138.7212	1207.3404	1222.327	1250.3841	1253.4401	1316.7526	1345.7422	1374.485	1401.9797	1424.2507	1427.6135	1477.3272	1492.3179	1704.6142	1835.2549	2841.2987	3022.9924	3031.9537	3081.0744	3126.3089	3134.6465	3144.379	3159.6855	3166.5915	3216.0536
O=CC1CC2CC2C=C1	O=C[C@H]1C[C@H]2C[C@H]2C=C1	
InChI=1S/C8H10O/c9-5-6-1-2-7-4-8(7)3-6/h1-2,5-8H,3-4H2	InChI=1S/C8H10O/c9-5-6-1-2-7-4-8(7)3-6/h1-2,5-8H,3-4H2/t6-,7-,8+/m1/s1
