19
gdb 69968	2.45206	1.87181	1.36336	1.8042	74.16	-0.2424	0.0682	0.3106	995.2832	0.158346	-422.962753	-422.954614	-422.95367	-422.994763	32.488	
C	 0.0685538045	 1.5259388062	-0.044328029	-0.483358
C	 0.0401423976	 0.0165351584	-0.0066850879	 0.212057
C	-1.3111202974	-0.7351997569	 0.02097822	-0.149614
O	-0.8854212083	-1.5401719949	 1.1503265415	-0.300103
C	 0.3674564649	-0.8127741473	 1.2535091624	 0.073369
C	 1.5972632194	-1.43999592	 0.5685177114	-0.121429
C	 1.1668421768	-2.1871840824	-0.6747110599	-0.366692
C	 1.2377310141	-0.6901527191	-0.7158384419	 0.334204
O	 2.0984073581	-0.0131861839	-1.5632642327	-0.454425
H	 1.0650432283	 1.9060913216	 0.1999008265	 0.131511
H	-0.1827697843	 1.9003149237	-1.043182286	 0.11724
H	-0.6485819537	 1.9486796307	 0.6667178376	 0.115424
H	-2.1663909998	-0.101561648	 0.2894795543	 0.097277
H	-1.5748144429	-1.3448341926	-0.8518413016	 0.095363
H	 0.5227846382	-0.3750079942	 2.2427821803	 0.075828
H	 2.5597028754	-1.6140671977	 1.0337665488	 0.092321
H	 1.9876970961	-2.669138896	-1.1969254832	 0.112432
H	 0.2322817295	-2.7372387291	-0.680741331	 0.130659
H	 1.8616841337	-0.2251896484	-2.4727807794	 0.287936
147.4794	198.3639	228.2848	254.458	269.9306	306.3573	353.8652	426.9231	457.7214	525.8948	601.8518	647.2176	761.8609	801.0184	872.5967	882.8264	896.8102	906.3547	946.0057	977.871	990.5294	993.9166	1029.563	1046.3079	1081.7008	1150.9373	1151.8328	1171.0579	1189.8243	1229.8577	1256.1029	1279.5472	1299.5824	1318.0702	1369.0585	1387.5884	1415.1574	1485.3147	1488.1829	1494.4795	1518.1194	3006.731	3030.3075	3053.1729	3077.3169	3093.0265	3109.0855	3128.9178	3187.337	3215.955	3793.4065
CC12COC1C1CC21O	C[C@]12CO[C@H]1[C@H]1C[C@@]21O	
InChI=1S/C7H10O2/c1-6-3-9-5(6)4-2-7(4,6)8/h4-5,8H,2-3H2,1H3	InChI=1S/C7H10O2/c1-6-3-9-5(6)4-2-7(4,6)8/h4-5,8H,2-3H2,1H3/t4-,5+,6+,7+/m1/s1
