16
gdb 80779	1.99252	1.84358	1.15598	1.8767	78.19	-0.2444	-0.0056	0.2388	1080.2573	0.122868	-400.661215	-400.652917	-400.651973	-400.693928	31.472	
C	-0.091266553	 1.5587470107	 0.0034666626	-0.439146
C	-0.0108032298	 0.0421682358	-0.0115969527	 0.013498
C	 1.2459290344	-0.6437095218	-0.6344126387	-0.176333
N	 2.0206780723	-0.1584336859	 0.5887699183	-0.336285
C	 0.7030005744	-0.6762121893	 1.1931373439	 0.106387
C	 0.3967658563	-0.6266503405	 2.583539328	 0.045869
C	 0.1188902224	-0.610852631	 3.7536369917	-0.340839
C	 0.9079536432	-1.8824175078	 0.2145773999	 0.411008
O	 0.9679763555	-3.0693411033	 0.2116373132	-0.315011
H	 0.8661072421	 2.0053329001	 0.2735659332	 0.149385
H	-0.3887096742	 1.9307895984	-0.9822961163	 0.120695
H	-0.846298802	 1.8875231524	 0.7245242919	 0.129238
H	-0.9610366602	-0.4185873609	-0.293032032	 0.095301
H	 1.6482646864	-0.5519341396	-1.6402966099	 0.108936
H	 2.7945900049	-0.7898152248	 0.8152551099	 0.236669
H	-0.1234055427	-0.5973259824	 4.7877464169	 0.190628
110.3023	149.4891	166.9059	215.6195	240.9316	333.6293	367.3957	488.4701	537.7038	548.2857	618.0036	623.1943	673.1571	758.3706	776.4521	786.6194	803.3162	869.3767	903.2817	998.9834	1050.4444	1062.4089	1105.6493	1155.2992	1177.9683	1201.6861	1233.2895	1267.6004	1311.7974	1395.9092	1408.0419	1491.7338	1503.0108	1910.6392	2235.6241	3044.083	3083.7687	3102.9447	3150.4461	3159.4128	3412.4329	3499.2626
CC1C2NC1(C#C)C2=O	C[C@H]1[C@H]2N[C@]1(C#C)C2=O	
InChI=1S/C7H7NO/c1-3-7-4(2)5(8-7)6(7)9/h1,4-5,8H,2H3	InChI=1S/C7H7NO/c1-3-7-4(2)5(8-7)6(7)9/h1,4-5,8H,2H3/t4-,5+,7-/m0/s1
