12
gdb 130508	4.14632	1.66762	1.18929	1.7686	72.69	-0.2471	-0.1117	0.1353	916.4737	0.079356	-431.605665	-431.599756	-431.598812	-431.635925	23.189	
O	-0.1105074302	 1.2227802157	 0.0098858389	-0.204376
N	 0.9883457389	 2.0962401059	 0.0038427985	-0.091051
C	 2.1786988406	 1.5765355985	-0.0104587891	-0.038014
C	 2.3995998884	 0.1812139169	-0.0199605831	 0.183744
C	 3.4185576242	-0.7235275694	-0.0344691499	-0.163029
N	 2.9330983219	-2.0406823025	-0.0368215251	-0.219326
C	 1.625949027	-1.9993250858	-0.0244513632	-0.07463
C	 1.1773580639	-0.6216727151	-0.0123799005	 0.326427
N	-0.0181043687	-0.1378532781	 0.0017739633	-0.152276
H	 2.9783742457	 2.312588248	-0.0142185208	 0.154708
H	 4.4848826019	-0.5488156431	-0.0437199562	 0.132176
H	 1.0056571364	-2.8851177708	-0.0233511237	 0.145647
189.755	219.5326	406.6694	411.0745	551.7225	563.7324	608.553	627.1371	734.3161	756.6775	757.5467	857.9153	883.2563	884.9301	933.8195	953.3029	958.8932	1069.3014	1225.5417	1264.266	1305.2435	1308.5881	1373.3251	1477.3014	1558.882	1642.1291	1658.9407	3173.5041	3235.6498	3241.5355
O1N=CC2=CN=CC2=N1	o1ncc2cncc2n1	
InChI=1S/C5H3N3O/c1-4-2-7-9-8-5(4)3-6-1/h1-3H	InChI=1S/C5H3N3O/c1-4-2-7-9-8-5(4)3-6-1/h1-3H
