20
gdb 122569	2.79752	1.3379	1.14376	2.9508	75.61	-0.2321	0.0725	0.3046	1148.7935	0.171821	-440.21874	-440.210355	-440.209411	-440.252062	32.179	
O	-1.1307586159	 1.4957619379	-0.9825567347	-0.431118
C	-0.5406979284	 0.4142379451	-0.2981291906	-0.05362
C	-1.5538348387	-0.6410729222	 0.1446489169	-0.086402
O	-2.1365435779	-1.2480206616	-1.0008657618	-0.275238
C	-3.4732468359	-0.9783752782	-1.3268299494	 0.134417
C	-4.1577378375	 0.418806359	-1.0209015391	-0.288538
C	-4.3651977345	 0.5759309164	-2.5277764796	-0.044807
N	-3.001121022	 0.5654906632	-3.1113213299	-0.324073
C	-3.6874394504	-0.7168035358	-2.8191472799	-0.061718
H	-1.5572417049	 1.1548358735	-1.7910068012	 0.301135
H	 0.2279709699	-0.0841169055	-0.910733216	 0.087583
H	-0.0398653569	 0.8252172779	 0.5876615347	 0.092349
H	-1.0449413132	-1.4263743186	 0.7205671497	 0.093879
H	-2.3173101174	-0.1912048083	 0.7904988361	 0.1028
H	-4.1237577325	-1.7908957012	-0.9737797692	 0.076122
H	-5.0814866288	 0.2989768509	-0.4521325762	 0.104479
H	-3.528430045	 1.1870097124	-0.5719973985	 0.13933
H	-5.1833491029	 1.0596541112	-3.0459198191	 0.099492
H	-3.080616696	 0.736099309	-4.1120353424	 0.236788
H	-3.8497744213	-1.4430210151	-3.6054881	 0.097141
65.2718	120.3701	171.4115	198.5467	236.2495	323.6633	392.8867	494.7505	500.9099	581.3349	669.2609	741.07	794.5759	820.9288	841.567	874.177	892.2716	917.3209	962.2465	998.0581	1002.7553	1024.9519	1056.4875	1090.681	1103.4666	1115.3621	1136.5706	1163.122	1188.0417	1238.5863	1247.0481	1264.8255	1293.1434	1306.2261	1330.7982	1368.5632	1383.3764	1404.5207	1407.1613	1444.5332	1476.2679	1489.4698	1495.7417	2975.3768	2997.6244	3009.2172	3049.3931	3063.5481	3084.3023	3151.3581	3190.4445	3204.0338	3492.5774	3574.4415
OCCOC1CC2NC12	OCCO[C@H]1C[C@H]2N[C@@H]12	
InChI=1S/C6H11NO2/c8-1-2-9-5-3-4-6(5)7-4/h4-8H,1-3H2	InChI=1S/C6H11NO2/c8-1-2-9-5-3-4-6(5)7-4/h4-8H,1-3H2/t4-,5+,6-/m1/s1
