22
gdb 5810	3.11049	1.23269	1.10498	2.0767	74.63	-0.2523	0.0643	0.3167	1209.7325	0.196642	-387.346559	-387.336134	-387.33519	-387.381209	39.023	
C	 0.4102624382	 0.8664388195	-0.609840181	-0.408481
C	 0.1352897653	-0.1176798059	 0.5297639083	 0.128749
O	 0.2349394279	 0.5592311461	 1.7873189644	-0.444142
C	-1.2758844602	-0.7260175799	 0.5048724608	-0.176139
C	-1.4330265954	-2.082378216	-0.2073559654	 0.331895
C	-2.8830561683	-2.5664492169	-0.051046903	-0.409972
C	-1.0485001371	-2.0464752126	-1.6944214526	-0.415529
O	-0.554448211	-2.9757796229	 0.4918237267	-0.455605
H	 1.4268236197	 1.2718420581	-0.53601681	 0.100466
H	 0.3168574964	 0.3967108041	-1.5924527114	 0.115928
H	-0.2931852473	 1.704127189	-0.557569561	 0.120343
H	 0.8637532501	-0.9400628582	 0.495092571	 0.08291
H	 1.103450857	 0.9721868174	 1.8286936922	 0.275201
H	-1.561786765	-0.8802459234	 1.5494709024	 0.118754
H	-1.9881112791	-0.0099609377	 0.0784044317	 0.086981
H	-3.5875911491	-1.8877461471	-0.5429656229	 0.113024
H	-3.0082718608	-3.5584928182	-0.5010796698	 0.098075
H	-3.1478680368	-2.6359068105	 1.0075257208	 0.123581
H	 0.0135343697	-1.8229332823	-1.8196234669	 0.125618
H	-1.2408333263	-3.0215940386	-2.1583667951	 0.099713
H	-1.6317017867	-1.3007905255	-2.2444130909	 0.115195
H	-0.6147534913	-3.8386510885	 0.0684925818	 0.273435
56.3328	97.3834	188.6445	238.5236	245.3508	276.2849	279.1136	284.8031	296.0869	324.6091	369.8928	395.2616	422.6816	455.7123	485.8731	544.8031	775.521	848.6611	869.3479	914.888	930.2052	959.3295	977.9985	1011.5023	1063.4894	1083.5013	1115.679	1157.2103	1199.2591	1200.76	1260.4108	1301.3781	1343.6362	1382.0462	1388.2109	1395.154	1407.3688	1414.5313	1429.5508	1467.757	1482.9382	1486.4383	1494.633	1498.1967	1502.9273	1513.5943	3004.4488	3023.7382	3026.3127	3029.1958	3041.4186	3087.3194	3090.5171	3093.6664	3096.7755	3117.75	3119.8143	3126.1824	3807.3655	3813.7256
CC(O)CC(C)(C)O	C[C@@H](O)CC(C)(C)O	
InChI=1S/C6H14O2/c1-5(7)4-6(2,3)8/h5,7-8H,4H2,1-3H3	InChI=1S/C6H14O2/c1-5(7)4-6(2,3)8/h5,7-8H,4H2,1-3H3/t5-/m1/s1
