19
gdb 117205	3.48453	0.97363	0.81347	3.0243	73.4	-0.2642	-0.0023	0.2619	1448.4324	0.15621	-460.181351	-460.171383	-460.170439	-460.217586	35.056	
C	 0.4977583369	 1.354959383	 0.1815879281	-0.393083
C	-0.0651543241	-0.0144757351	-0.1434271578	-0.046985
O	 0.7895929449	-0.6147228402	-1.1402824435	-0.249554
C	 0.4323089666	-1.8437950607	-1.5512345222	 0.431942
O	-0.5299321122	-2.4419630094	-1.1427527907	-0.366267
C	 1.3973830553	-2.3836873969	-2.5890073717	 0.256301
C	 2.5500636002	-1.5170615493	-3.0332988345	-0.469519
C	 1.4649971458	-3.8568733238	-2.6741379718	-0.199071
O	 0.720767353	-3.1090564164	-3.62514988	-0.24978
H	 1.5150784023	 1.2772943377	 0.5754196652	 0.130018
H	 0.5204397664	 1.9899422735	-0.7084889554	 0.131961
H	-0.1271645303	 1.8419118918	 0.9359831406	 0.126203
H	-0.0935399718	-0.6686322329	 0.7335793206	 0.124972
H	-1.0823986447	 0.0409234387	-0.54268488	 0.128723
H	 3.2002089046	-1.2692268115	-2.1898929679	 0.130277
H	 3.1349319652	-2.0434092532	-3.7911767609	 0.12674
H	 2.1877597737	-0.5788948771	-3.4619425382	 0.13643
H	 2.3832603246	-4.3120000754	-3.0436541591	 0.114661
H	 0.8689649336	-4.4504789829	-1.9853104706	 0.13603
25.9543	58.6534	130.7868	134.2747	200.7683	254.3243	281.6722	320.7953	333.2889	369.1511	380.4178	457.3249	581.5884	767.4694	794.7407	806.7687	859.1698	882.7466	921.9429	940.2827	1033.8338	1052.0605	1103.338	1134.0571	1141.723	1169.0595	1182.5735	1198.2975	1290.7685	1309.6161	1378.4192	1397.8302	1419.1743	1424.0073	1479.4479	1486.3663	1492.5051	1496.1961	1510.3725	1518.8599	1819.7326	3046.9302	3051.1198	3054.8179	3088.2824	3092.9739	3121.6394	3122.2772	3127.0967	3132.2281	3190.3719
CCOC(=O)C1(C)CO1	CCOC(=O)[C@@]1(C)CO1	
InChI=1S/C6H10O3/c1-3-8-5(7)6(2)4-9-6/h3-4H2,1-2H3	InChI=1S/C6H10O3/c1-3-8-5(7)6(2)4-9-6/h3-4H2,1-2H3/t6-/m1/s1
