16
gdb 19712	3.59655	2.57318	2.49006	1.5607	65.97	-0.234	0.0085	0.2424	670.5386	0.133619	-346.567746	-346.562385	-346.561441	-346.596739	23.407	
C	-0.0266800055	 1.5417998118	 0.0978715017	-0.299009
C	 1.2925281879	 0.8213582934	-0.01709039	-0.040817
C	 0.0020139832	 0.0383266683	-0.0084729529	-0.040819
C	 0.0638585095	-0.6733005124	-1.4031339915	 0.008586
O	 1.4747410212	-0.9502733842	-1.5003648992	-0.246583
C	 1.8815257228	 0.4295981952	-1.4152743632	 0.008591
C	 1.0315698978	 1.0542747911	-2.5192602302	-0.081344
C	-0.1084896851	 0.362506565	-2.5116598824	-0.081337
H	-0.2686301349	 1.9513094087	 1.0746817904	 0.107067
H	-0.3897550076	 2.1310123328	-0.7356155151	 0.113884
H	 1.9731585389	 0.8012880951	 0.824972041	 0.093079
H	-0.2862616188	-0.5696336497	 0.8400617172	 0.093079
H	-0.5149221254	-1.5926860474	-1.4735330171	 0.076051
H	 2.96354639	 0.5179322126	-1.4967695839	 0.076052
H	 1.2879992154	 1.9356431086	-3.0908086577	 0.106761
H	-1.0142035893	 0.5387122111	-3.0754571971	 0.106761
295.0809	347.6791	511.6411	515.7135	621.709	677.7432	723.4136	755.7463	772.7954	810.1128	834.3225	881.2001	888.3692	925.3331	926.0086	938.457	976.7108	977.7895	1002.8907	1058.9649	1083.229	1094.4513	1103.1841	1127.6738	1184.6801	1239.2781	1245.7482	1261.8057	1280.7417	1324.0419	1339.8678	1362.871	1476.6753	1637.0941	3127.2622	3134.5477	3137.6361	3181.6359	3190.0661	3217.1184	3217.3966	3243.0588
C1C2C1C1OC2C=C1	C1[C@H]2[C@@H]1[C@@H]1O[C@H]2C=C1	
InChI=1S/C7H8O/c1-2-7-5-3-4(5)6(1)8-7/h1-2,4-7H,3H2	InChI=1S/C7H8O/c1-2-7-5-3-4(5)6(1)8-7/h1-2,4-7H,3H2/t4-,5+,6-,7+
