20
gdb 52133	4.27048	0.80422	0.73762	3.6308	83.96	-0.2361	0.0146	0.2507	1567.4664	0.172264	-403.193611	-403.184527	-403.183583	-403.229052	32.742	
O	 0.3495866121	 0.0798529085	-0.9460457402	-0.322634
C	 0.2024873798	 1.1613364051	-0.4169618663	 0.157372
N	 1.1112613411	 1.7766013773	 0.3855175118	-0.268545
C	 2.4179022618	 1.2057267255	 0.7037608949	-0.277779
C	 3.5476113872	 2.1154521282	 0.3221210152	 0.329642
C	 4.4604091283	 2.6298820897	 1.1492204461	-0.173874
C	 5.5024875285	 3.4477771917	 0.4266720446	-0.243004
C	 4.8799508043	 3.6347046942	-0.9823576335	-0.205496
C	 3.8229948592	 2.5101392748	-1.1158213238	-0.291727
H	-0.7143574006	 1.7725422032	-0.5377100204	 0.073283
H	 0.8832711954	 2.6844456484	 0.7593040406	 0.246815
H	 2.471345339	 0.9655436986	 1.7725310348	 0.110518
H	 2.4616335807	 0.263189156	 0.1481016477	 0.151938
H	 4.4927487979	 2.4493848552	 2.2193344199	 0.085518
H	 5.7185907358	 4.4016560155	 0.9211707456	 0.101872
H	 6.4571659183	 2.9038948597	 0.3839313132	 0.10797
H	 4.3826771281	 4.6088041703	-1.0311112237	 0.102874
H	 5.6245061458	 3.6139680476	-1.7817507087	 0.099618
H	 4.2089917733	 1.6450674331	-1.6739078452	 0.110516
H	 2.9226823441	 2.8359604071	-1.6475092724	 0.105125
31.3572	56.5894	112.538	161.0385	232.8723	253.0355	302.2418	373.8211	503.7046	545.2706	600.3264	686.6381	775.15	812.0195	845.8065	873.8878	902.4335	915.6491	944.418	988.9649	1028.1129	1032.9357	1039.2475	1074.966	1149.8959	1169.0265	1202.6147	1229.3425	1242.1054	1251.9705	1297.7787	1320.6564	1328.345	1365.5302	1381.4463	1428.8323	1483.6166	1485.664	1487.4442	1506.2338	1523.1177	1717.9595	1804.8148	2931.8424	3005.2819	3008.602	3028.5612	3044.5308	3056.8665	3067.3092	3087.9186	3103.4131	3179.5289	3631.6623
O=CNCC1=CCCC1	O=CNCC1=CCCC1	
InChI=1S/C7H11NO/c9-6-8-5-7-3-1-2-4-7/h3,6H,1-2,4-5H2,(H,8,9)	InChI=1S/C7H11NO/c9-6-8-5-7-3-1-2-4-7/h3,6H,1-2,4-5H2,(H,8,9)
