22
gdb 108084	2.56289	1.45334	1.21995	1.5631	86.3	-0.2262	0.0901	0.3163	1171.2435	0.194214	-367.164625	-367.155724	-367.15478	-367.198016	34.424	
C	 0.0699161279	 1.3942741179	-0.30106521	-0.377454
C	-0.0612106056	-0.0329849632	 0.2475364703	-0.293411
C	-1.4792340724	-0.5206079382	 0.2523603252	 0.322071
C	-2.641033475	-0.0607922863	 1.1373277062	-0.294077
C	-3.4350282703	-1.2451521261	 0.5285425508	-0.127205
C	-3.5257237916	-0.8447543453	-0.9498125547	-0.151711
N	-2.0406424667	-1.0008252264	-1.0756898666	-0.225368
C	-2.0424345734	-1.8910797969	 0.129114992	 0.293158
C	-1.4777611196	-3.2696002857	 0.1817488095	-0.532188
H	 1.1138301834	 1.7220574705	-0.3012172464	 0.108584
H	-0.3056508432	 1.4429355144	-1.3273194928	 0.132768
H	-0.5032985408	 2.1063778837	 0.3020995971	 0.113139
H	 0.5429958743	-0.7154779469	-0.3605248556	 0.105925
H	 0.3381865914	-0.0798206772	 1.2692449215	 0.093393
H	-2.4031123325	-0.2225595451	 2.1927063262	 0.099711
H	-3.0551996027	 0.9453429201	 1.0030905454	 0.090174
H	-4.2574158196	-1.7101392788	 1.0704281061	 0.06839
H	-4.0070843139	-1.595835822	-1.5823092673	 0.102917
H	-3.9191253942	 0.1496647598	-1.1950090251	 0.090614
H	-0.4835305635	-3.2883965139	-0.2752358707	 0.134028
H	-1.3863862294	-3.6221850047	 1.2152292374	 0.121413
H	-2.1092376223	-3.9819759197	-0.3615115985	 0.125129
75.3594	130.0014	189.4473	202.5685	221.0607	256.6107	333.6538	369.1797	435.6783	533.6782	581.9907	679.5109	690.1951	749.2196	787.5978	834.5504	852.2024	919.5657	939.3614	975.8	986.8816	1005.3483	1014.3586	1051.0829	1093.2879	1101.3791	1115.9107	1141.7303	1153.0314	1183.0347	1195.1464	1223.0393	1260.8066	1289.0817	1313.8847	1329.3145	1364.3845	1404.3358	1407.9507	1463.1498	1473.9081	1481.1119	1491.6532	1497.3022	1498.0939	1510.3596	1518.427	3021.0117	3022.8363	3025.8431	3032.9038	3037.351	3065.2607	3085.1404	3091.2393	3093.697	3104.1636	3105.5469	3116.3969	3123.2711
CCC12CC3CN1C23C	CC[C@@]12C[C@H]3CN1[C@@]23C	
InChI=1S/C8H13N/c1-3-8-4-6-5-9(8)7(6,8)2/h6H,3-5H2,1-2H3	InChI=1S/C8H13N/c1-3-8-4-6-5-9(8)7(6,8)2/h6H,3-5H2,1-2H3/t6-,7+,8-,9?/m0/s1
