21
gdb 57785	3.42475	0.71497	0.62738	1.848	90.45	-0.2352	0.0374	0.2726	1842.5508	0.180164	-387.05504	-387.044377	-387.043433	-387.092402	38.238	
C	-0.0296978435	 1.6259149567	 0.3237487743	-0.381096
C	-0.006402779	 0.1271246449	-0.0118099697	-0.017493
O	 0.8248281861	-0.5963135431	 0.8973472611	-0.416404
C	-1.3604464596	-0.4296860147	-0.0763434513	 0.074938
C	-2.4792997315	-0.882871629	-0.0845016752	 0.047039
C	-3.8072731965	-1.421341261	-0.0957580096	-0.191794
C	-4.2805627223	-2.277176438	-1.2662270431	-0.285169
C	-4.0523563987	-2.9214578063	 0.0682978064	 0.017322
C	-2.9074327069	-3.8822726932	 0.2854280477	-0.40704
H	 0.9951941362	 2.0028029145	 0.3748821581	 0.122856
H	-0.581573665	 2.1871983078	-0.435912504	 0.12303
H	-0.5154107453	 1.7934236067	 1.2904994324	 0.114894
H	 0.482496427	-0.0042605863	-0.985225404	 0.113332
H	 0.3395890591	-0.6709869456	 1.7265491623	 0.279867
H	-4.5613594896	-0.7762098491	 0.3465106285	 0.106661
H	-5.2954830672	-2.1253715351	-1.6165015819	 0.115631
H	-3.55467384	-2.469082104	-2.0486200101	 0.124405
H	-4.9505617984	-3.1536653826	 0.6346923001	 0.089854
H	-2.0168451503	-3.5648619533	-0.2634136784	 0.133933
H	-2.638179697	-3.9442930554	 1.3452590406	 0.11871
H	-3.1767771375	-4.8887980238	-0.0524759942	 0.116526
15.7273	68.3871	96.8468	150.2348	176.4362	211.8865	248.5357	284.0427	316.1431	362.9459	382.8897	477.7371	521.2574	541.6852	609.609	702.7542	762.243	835.4473	861.313	897.8766	930.6546	970.02	1020.9233	1050.2235	1067.8433	1087.6696	1098.5572	1112.7337	1144.5229	1186.1522	1200.1246	1242.622	1279.3104	1338.5206	1380.4158	1397.2659	1403.4436	1417.8979	1424.6877	1483.7328	1486.9976	1491.2191	1492.1201	1501.4783	2346.7062	3031.8779	3034.1143	3038.9699	3093.9661	3113.902	3114.6758	3125.6076	3135.8204	3136.8013	3146.3176	3225.8971	3805.0461
CC(O)C#CC1CC1C	C[C@@H](O)C#C[C@H]1C[C@H]1C	
InChI=1S/C8H12O/c1-6-5-8(6)4-3-7(2)9/h6-9H,5H2,1-2H3	InChI=1S/C8H12O/c1-6-5-8(6)4-3-7(2)9/h6-9H,5H2,1-2H3/t6-,7-,8+/m1/s1
