19
gdb 102122	2.67526	1.19734	0.97677	1.9426	72.04	-0.2429	-0.0311	0.2117	1275.4152	0.156575	-460.131848	-460.122214	-460.12127	-460.167255	33.375	
C	 0.4705941703	 0.9876555438	 1.0479625175	-0.243242
O	 0.0880206251	-0.2697855214	 0.5277903006	-0.2455
C	 0.0747553627	-0.3180612918	-0.8809115725	 0.023337
C	 1.4983394376	-0.3902889668	-1.4403513857	 0.137186
O	 1.7913730646	-0.112659447	-2.5746747683	-0.249586
C	-0.7012462317	-1.5648648089	-1.3097582445	 0.121533
C	-0.9647828931	-1.765003627	-2.8168401347	-0.303888
C	-0.2233962584	-3.1026788139	-2.6214661668	-0.061842
O	 0.0968050277	-2.7714866892	-1.249531314	-0.295601
H	 1.4873002819	 1.2761527059	 0.7415958261	 0.113487
H	-0.2220377171	 1.7814387074	 0.7288911702	 0.112357
H	 0.4437308586	 0.9067383563	 2.1366353091	 0.13721
H	-0.4288211389	 0.5651433818	-1.3088104948	 0.090084
H	 2.2467283082	-0.7497322862	-0.7014164976	 0.102699
H	-1.5855928773	-1.6431614282	-0.6646102616	 0.08996
H	-2.0127436984	-1.8222959052	-3.1126860974	 0.111658
H	-0.4357568828	-1.0540468637	-3.4521965983	 0.138504
H	-0.8517265097	-3.9995962171	-2.682087139	 0.104982
H	 0.6785187309	-3.2517162189	-3.2241127984	 0.116662
67.2379	81.1908	95.2744	133.2577	180.176	185.118	237.3722	306.029	368.0083	379.3597	541.681	595.076	740.4431	823.0953	877.0611	921.7009	962.5221	980.2112	998.5334	1030.6879	1061.9321	1111.6206	1125.5066	1149.4167	1170.8008	1182.0211	1217.5246	1223.672	1260.706	1265.9913	1299.7418	1332.894	1355.3144	1369.2145	1406.4833	1479.9859	1487.1139	1489.3889	1506.7631	1527.6601	1828.1463	2905.3216	2970.3691	2980.0458	3021.8641	3027.5709	3028.6129	3074.1632	3089.7361	3124.4804	3150.4526
COC(C=O)C1CCO1	CO[C@@H](C=O)[C@H]1CCO1	
InChI=1S/C6H10O3/c1-8-6(4-7)5-2-3-9-5/h4-6H,2-3H2,1H3	InChI=1S/C6H10O3/c1-8-6(4-7)5-2-3-9-5/h4-6H,2-3H2,1H3/t5-,6+/m1/s1
