20
gdb 97175	3.16822	1.24136	0.95445	2.1621	84.	-0.2404	-0.001	0.2394	1268.5659	0.17145	-403.152914	-403.143925	-403.142981	-403.187392	33.099	
C	 0.0435194121	 1.487289298	 0.0591044471	-0.327018
N	 0.0215003295	 0.0359704886	 0.0359867835	-0.258443
C	-1.0748378476	-0.591551727	-0.0315309855	 0.358444
C	-1.0749618662	-2.1029276925	 0.0082238297	-0.251304
C	-1.8055503365	-2.8195850556	-1.1497574659	-0.27216
C	-3.3060223311	-2.6790743361	-1.101802288	-0.045706
C	-3.9386062043	-1.508496833	-1.0460646829	-0.061316
C	-3.2272630285	-0.1797114839	-1.0724347569	-0.136745
O	-2.2934293868	 0.0479894518	-0.0020624891	-0.260111
H	 0.7651947974	 1.8388926023	-0.6865744689	 0.120325
H	-0.9269371433	 1.9609536605	-0.1223360756	 0.116069
H	 0.415887482	 1.8204310476	 1.0354261492	 0.126271
H	-0.0268047514	-2.4066913574	 0.0285520269	 0.123383
H	-1.5365218726	-2.4161639652	 0.9532908355	 0.11756
H	-1.4201870299	-2.4393798347	-2.1068885565	 0.118989
H	-1.5349619763	-3.8788396687	-1.1158203024	 0.108502
H	-3.890157295	-3.5959552034	-1.0890034928	 0.095526
H	-5.0235076335	-1.4799799916	-0.996233997	 0.094797
H	-2.7037511382	-0.0432817236	-2.03055696	 0.11347
H	-3.9466477999	 0.6365837239	-0.9772233306	 0.119465
34.908	105.2693	140.5871	167.0064	257.0786	294.3259	314.9071	337.8441	474.4266	480.1708	568.1999	661.8428	702.6688	757.4567	777.1944	864.3719	925.2057	933.855	987.6643	1002.2535	1037.4802	1045.9408	1068.9754	1082.0596	1132.2948	1149.1937	1195.6219	1221.5917	1247.2115	1270.7056	1292.8926	1340.231	1375.7313	1402.2393	1421.239	1431.963	1468.8468	1483.8673	1488.5141	1496.0475	1497.7022	1723.0718	1753.6774	2992.2196	3007.4597	3018.5818	3034.0022	3074.8264	3080.0521	3093.2284	3100.1882	3117.9982	3149.8718	3174.8702
CN=C1CCC=CCO1	CN=C1CCC=CCO1	
InChI=1S/C7H11NO/c1-8-7-5-3-2-4-6-9-7/h2,4H,3,5-6H2,1H3	InChI=1S/C7H11NO/c1-8-7-5-3-2-4-6-9-7/h2,4H,3,5-6H2,1H3
