16
gdb 15872	2.56391	2.13426	1.36988	0.9677	65.89	-0.2551	0.0291	0.2842	906.1726	0.128883	-383.689961	-383.681831	-383.680887	-383.722211	30.889	
O	 0.5511480413	 0.7968373577	-0.8722441048	-0.426341
C	 0.1118817349	-0.2176383527	-0.0218980132	 0.158951
C	 0.050968351	 0.0157166371	 1.5109207728	-0.308857
C	-1.2480493926	-0.8320245353	 1.5507395537	 0.158951
O	-2.2890262784	-0.4863224051	 2.4121708799	-0.426341
C	-1.4204407407	-0.5960814226	-0.0004774984	-0.287573
C	-2.2614551867	 0.5478115922	-0.280858187	 0.289433
C	-2.9179624365	 1.5426741727	-0.460218456	-0.446201
H	-0.0824282404	 1.5232661495	-0.8132535554	 0.282725
H	 0.7024676678	-1.1037813824	-0.2676502966	 0.099603
H	 0.8990547884	-0.3009270287	 2.1205975378	 0.10786
H	-0.1735849961	 1.065903933	 1.7270105596	 0.102588
H	-1.0308168498	-1.8868461787	 1.736742693	 0.099602
H	-2.6284923571	 0.3730224444	 2.1312975168	 0.282727
H	-1.722237082	-1.4593817478	-0.5987215976	 0.10501
H	-3.5254576428	 2.3925678767	-0.6541255846	 0.207863
102.3818	121.7789	161.3747	297.6187	327.7005	394.7707	400.3141	425.0924	441.9855	509.3075	638.5202	645.6804	656.5478	659.8443	767.1453	812.3206	877.2945	964.6461	1046.2417	1051.3336	1077.2985	1112.6886	1148.2252	1178.2606	1236.9412	1237.6053	1243.7899	1327.5844	1330.3614	1350.8381	1432.0943	1452.8545	1476.2742	2213.7187	3053.9104	3073.7127	3080.0988	3088.5916	3124.4307	3498.4336	3765.4289	3768.0003
OC1CC(O)C1C#C	O[C@H]1C[C@@H](O)[C@H]1C#C	
InChI=1S/C6H8O2/c1-2-4-5(7)3-6(4)8/h1,4-8H,3H2	InChI=1S/C6H8O2/c1-2-4-5(7)3-6(4)8/h1,4-8H,3H2/t4-,5-,6+
