18
gdb 53426	3.24058	0.94379	0.77107	2.0698	81.6	-0.2177	-0.0203	0.1974	1494.0902	0.147233	-401.941094	-401.931735	-401.930791	-401.977104	32.914	
C	 0.1069905773	 1.5653986614	-0.3187389223	-0.499487
C	 0.0737823572	 0.12545645	-0.1094164729	 0.100915
C	 0.0420668836	-1.0672910846	 0.052009933	 0.070094
C	-0.006705744	-2.4955440099	 0.2854912941	-0.309917
C	 0.4281531625	-2.9868393277	 1.6930696972	-0.191998
N	-0.2133704652	-4.2954788024	 1.8934702583	-0.292008
C	-1.5295442686	-4.1898296831	 1.2601602536	-0.282961
C	-1.4226159244	-3.1263689899	 0.1541618884	 0.38848
O	-2.2669809698	-2.8388125806	-0.646536373	-0.296124
H	 0.8321782889	 1.8386056905	-1.0931773029	 0.148438
H	-0.8724625398	 1.9416528896	-0.633891212	 0.1534
H	 0.3864588268	 2.0952485108	 0.5986535751	 0.147114
H	 0.6080446158	-3.0218235245	-0.462557408	 0.122879
H	 1.5109597011	-3.0650499375	 1.8024931972	 0.118254
H	 0.0627448426	-2.2831387713	 2.4499423413	 0.122765
H	 0.3302083688	-5.0056628824	 1.4134008761	 0.224403
H	-1.886217236	-5.1437085215	 0.8642729606	 0.135019
H	-2.2791868567	-3.8394970671	 1.9844454864	 0.140735
26.0165	61.2292	82.7629	128.0498	235.307	263.3393	307.1334	402.2554	433.3282	466.2216	542.5045	562.9353	662.4144	712.126	810.8761	848.1383	914.3887	971.2449	982.1557	1032.3481	1052.499	1054.8353	1093.2116	1110.7255	1166.4379	1187.0879	1237.0332	1277.6283	1302.3945	1323.54	1364.3048	1414.7287	1459.0717	1465.002	1477.4925	1478.4729	1500.4628	1860.9628	2373.0797	2979.2939	3011.5797	3027.2982	3045.414	3087.8545	3089.2983	3105.75	3120.8983	3516.5088
CC#CC1CNCC1=O	CC#C[C@H]1CNCC1=O	
InChI=1S/C7H9NO/c1-2-3-6-4-8-5-7(6)9/h6,8H,4-5H2,1H3	InChI=1S/C7H9NO/c1-2-3-6-4-8-5-7(6)9/h6,8H,4-5H2,1H3/t6-/m0/s1
