21
gdb 97738	2.72119	0.83961	0.81497	1.5363	89.12	-0.2337	0.0429	0.2766	1593.2022	0.18008	-387.056796	-387.046016	-387.045072	-387.093929	38.173	
C	-0.8062940342	 0.4770657753	 0.0001903862	-0.365074
C	 0.7328560168	 0.4690461859	 0.0446312236	-0.317212
C	 1.2700501507	-0.2896171341	 1.1706995366	 0.107966
C	 1.7048114966	-0.8826844667	 2.1292807773	 0.026293
C	 2.2145258671	-1.6552346432	 3.2228181188	-0.267718
C	 1.3104444209	-2.0714484615	 4.3942921195	-0.049999
C	-0.1144195704	-1.5859416031	 4.5026531821	-0.400231
C	 1.7058926583	-3.0890472636	 3.3593467392	 0.110948
O	 0.760598921	-3.5552634936	 2.4510384618	-0.423974
H	-1.2189305964	 0.9161129924	 0.9124061292	 0.130879
H	-1.1593692357	 1.0605204371	-0.8551772338	 0.116527
H	-1.198989221	-0.5394066417	-0.0921699034	 0.126491
H	 1.1240926879	 0.0608249771	-0.8962721363	 0.128644
H	 1.1017024219	 1.5014484307	 0.0997695773	 0.132131
H	 3.2605854868	-1.4862150966	 3.4610180409	 0.108963
H	 1.8433016836	-2.1447275292	 5.3390312499	 0.088362
H	-0.6192264389	-1.6328655391	 3.5364479286	 0.128332
H	-0.6763161541	-2.2125955004	 5.2031219382	 0.118694
H	-0.1557598373	-0.5529275268	 4.8626328544	 0.116114
H	 2.4367476701	-3.8470024666	 3.6321952668	 0.097096
H	 0.7710144263	-2.9635137426	 1.6864545731	 0.286767
25.8248	68.7149	86.8588	146.4947	162.9584	195.0453	226.6669	269.7055	280.2357	337.2432	397.5651	454.624	538.3984	589.6991	639.1319	734.1091	745.8685	786.1404	819.6017	903.1568	956.5112	984.6715	1018.0382	1067.2605	1085.824	1097.7508	1104.1725	1139.6897	1171.7058	1183.1865	1243.6639	1285.224	1345.741	1359.0732	1368.2561	1386.1562	1408.872	1420.4911	1427.5212	1476.8847	1489.1335	1494.2922	1498.6081	1505.4691	2345.5628	3018.4651	3040.7825	3044.4011	3045.4313	3098.5895	3117.8134	3123.6701	3124.8168	3131.6982	3142.3797	3151.3735	3734.6738
CCC#CC1C(C)C1O	CCC#C[C@H]1[C@@H](C)[C@H]1O	
InChI=1S/C8H12O/c1-3-4-5-7-6(2)8(7)9/h6-9H,3H2,1-2H3	InChI=1S/C8H12O/c1-3-4-5-7-6(2)8(7)9/h6-9H,3H2,1-2H3/t6-,7+,8-/m1/s1
