17
gdb 27200	3.28161	1.55534	1.06771	1.0415	83.55	-0.18	0.0136	0.1936	1089.2136	0.139171	-380.909504	-380.901843	-380.900899	-380.941773	29.932	
N	 0.1808114496	 1.4113044158	 0.0262550121	-0.612373
C	-0.0049372577	 0.0083097462	 0.0080457409	 0.064296
C	-1.0948671453	-0.836079249	-0.0098872709	 0.281983
C	-2.550066778	-0.8721527464	-0.0482471343	-0.233053
C	-2.9611252098	-2.1553304967	-0.0512102557	-0.08489
C	-1.7863347073	-3.1259122937	-0.0167414571	-0.423574
C	-0.6140611207	-2.1822575105	 0.0110255279	 0.241369
C	 0.7543854061	-2.1418348902	 0.0340529743	-0.245958
N	 1.1100827441	-0.8064913812	 0.0353565466	-0.25266
H	 0.0530841988	 1.8245903901	-0.893359545	 0.241865
H	-0.4842556097	 1.8579210624	 0.6475643197	 0.243567
H	-3.1998427553	-0.0054627992	-0.0712739349	 0.08371
H	-3.9911989755	-2.488563531	-0.0761447327	 0.088053
H	-1.8367168169	-3.7854652141	 0.8605956833	 0.118402
H	-1.7891656474	-3.7879645805	-0.8935334245	 0.118767
H	 1.5081063333	-2.9128802579	 0.0462883424	 0.114914
H	 2.0449528717	-0.4416427141	 0.1010529078	 0.255581
60.919	179.3733	217.1158	271.9444	311.4742	441.8617	492.0962	525.4453	605.2365	626.2318	667.0457	685.7455	709.4657	755.637	792.7562	816.395	860.9914	930.6702	942.5721	951.5663	1027.7323	1078.5131	1137.7852	1143.7689	1168.4071	1212.1932	1241.2836	1283.7565	1307.3295	1360.1699	1409.0072	1454.1517	1474.4678	1576.3449	1600.3438	1648.9317	1670.8055	3012.9083	3034.5556	3194.6339	3219.6674	3256.0985	3487.3629	3568.461	3675.945
NC1=C2C=CCC2=CN1	Nc1c2C=CCc2c[nH]1	
InChI=1S/C7H8N2/c8-7-6-3-1-2-5(6)4-9-7/h1,3-4,9H,2,8H2	InChI=1S/C7H8N2/c8-7-6-3-1-2-5(6)4-9-7/h1,3-4,9H,2,8H2
