16
gdb 132532	3.10089	1.33921	0.94139	1.1211	77.72	-0.208	-0.0141	0.1939	1190.4955	0.124911	-442.104922	-442.096788	-442.095843	-442.13758	30.911	
C	-0.0055538459	 1.5227126242	 0.0111943656	-0.496261
C	-0.0076276434	 0.0162924115	 0.0082945181	 0.264312
C	-0.0661061792	-0.7189289552	-1.1700997641	-0.080736
N	-0.0705061515	-2.0561186502	-1.2414390873	-0.340109
C	-0.024709605	-2.7524454449	-0.1094818811	 0.264512
N	-0.0916579626	-4.1292863376	-0.169277251	-0.570174
C	 0.0447034092	-2.0946400038	 1.1313028201	 0.223308
F	 0.1130782926	-2.8471163988	 2.2447509815	-0.091806
C	 0.0553372083	-0.7242927558	 1.2001399815	-0.284907
H	 0.8931047054	 1.9259234009	 0.4921330579	 0.12968
H	-0.0402719039	 1.9144032739	-1.0090191418	 0.127402
H	-0.8687890952	 1.927745778	 0.5519169128	 0.130983
H	-0.1081394415	-0.2000362368	-2.1255533166	 0.099227
H	 0.1463513205	-4.510667936	-1.0724470437	 0.257242
H	 0.292346307	-4.625616265	 0.6193100782	 0.257047
H	 0.1126947052	-0.2418433942	 2.1705802398	 0.11028
87.3248	140.6098	223.9692	284.3992	289.51	364.2786	400.5245	458.7929	470.7601	501.7938	546.2383	579.363	606.6057	721.1664	782.6985	819.5496	910.2756	947.3453	984.2067	1015.4363	1066.4295	1081.661	1165.9558	1251.4927	1316.8011	1330.8421	1359.7229	1417.7778	1457.3847	1484.4163	1501.744	1525.8321	1613.0577	1621.6729	1670.5524	3026.7578	3077.4201	3112.2881	3146.9891	3186.9868	3580.4639	3698.413
CC1=CN=C(N)C(F)=C1	Cc1cnc(N)c(F)c1	
InChI=1S/C6H7FN2/c1-4-2-5(7)6(8)9-3-4/h2-3H,1H3,(H2,8,9)	InChI=1S/C6H7FN2/c1-4-2-5(7)6(8)9-3-4/h2-3H,1H3,(H2,8,9)
