17
gdb 30121	3.7835	1.20645	1.05495	1.7125	76.64	-0.2094	0.0109	0.2203	1152.1522	0.136777	-421.834772	-421.827061	-421.826117	-421.867271	30.007	
O	 0.1314802447	 1.4453168842	 0.2136488574	-0.427809
C	 0.0342617142	 0.0627516391	 0.117785814	 0.144468
C	-0.5046407343	-0.7915094046	 1.2244357479	-0.344344
C	-1.3000806461	-0.6511074626	-0.0769696367	-0.191798
C	-2.5603575038	 0.0941896	-0.1082290169	 0.40407
C	-3.7114085264	-0.0459238469	-0.8216262295	-0.288381
C	-4.5837519876	 1.0179088064	-0.4144515532	-0.166237
C	-3.906171589	 1.7331685298	 0.5145649883	-0.026493
O	-2.668414284	 1.1855656509	 0.7183005406	-0.212516
H	-0.6955868614	 1.783132688	 0.5785192858	 0.295384
H	 0.8709669663	-0.3246417216	-0.4547473016	 0.110943
H	-0.0402051996	-1.7479593224	 1.4395468138	 0.117026
H	-0.9119555913	-0.2781246427	 2.0893225927	 0.126531
H	-1.3022546587	-1.5028817464	-0.748491576	 0.099218
H	-3.9156465524	-0.8149224001	-1.5497390845	 0.109535
H	-5.5833496575	 1.2147018875	-0.7689817935	 0.114578
H	-4.132074913	 2.6050233915	 1.1048742814	 0.135824
67.6751	140.9504	176.7423	292.0833	368.5087	372.0686	457.1309	521.9684	608.7964	662.2349	713.76	740.4854	761.2909	797.2273	822.2924	848.8166	900.2279	911.5983	954.6801	1013.7948	1018.702	1047.9402	1057.2472	1100.5158	1118.9861	1138.064	1178.8575	1222.7009	1230.3936	1264.8651	1345.027	1367.1801	1413.5059	1450.268	1483.2598	1552.7632	1641.0108	3128.7578	3162.4814	3171.1222	3221.1467	3252.713	3264.3403	3291.1202	3782.7037
OC1CC1C1=CC=CO1	O[C@H]1C[C@H]1c1ccco1	
InChI=1S/C7H8O2/c8-6-4-5(6)7-2-1-3-9-7/h1-3,5-6,8H,4H2	InChI=1S/C7H8O2/c8-6-4-5(6)7-2-1-3-9-7/h1-3,5-6,8H,4H2/t5-,6+/m1/s1
