18
gdb 9886	4.53127	1.16388	1.07577	3.3578	69.53	-0.2462	0.0337	0.2799	1134.7596	0.153871	-381.125502	-381.11679	-381.115846	-381.159823	31.117	
C	-1.3801919749	 1.4433114305	-0.2275229915	-0.462052
C	-0.4672290431	 0.2375686765	-0.1682595966	 0.326062
C	-1.0066798325	-0.9633947097	 0.5926185204	-0.204585
N	-1.04491236	-0.709149633	 2.0227197487	-0.265976
C	-2.1841070691	-0.7206350038	 2.7619988707	 0.153498
O	-3.2961069661	-0.9602856398	 2.338761213	-0.327656
C	 0.5106192319	 0.0073715772	-1.2600760035	-0.282311
N	 0.9773343379	 0.4458358857	 0.0718296156	-0.357846
H	-0.9043901974	 2.2713392842	-0.7629850873	 0.110168
H	-2.3173007064	 1.2027250504	-0.7403847295	 0.134771
H	-1.6356811766	 1.7885658847	 0.779745648	 0.131857
H	-2.028037713	-1.2020938821	 0.287296515	 0.145023
H	-0.3726061766	-1.8340732448	 0.3919190525	 0.109734
H	-0.1729049911	-0.4676175146	 2.4677453893	 0.255204
H	-1.982195413	-0.4835628095	 3.8259253721	 0.072019
H	 0.7993815132	-1.0033762789	-1.5360331972	 0.118756
H	 0.5353559521	 0.7214105393	-2.0790370233	 0.114332
H	 1.1912221446	 1.4400587076	 0.0451305733	 0.229002
32.8898	58.0323	177.2973	211.1429	234.1769	295.5988	342.8076	375.4863	396.1001	522.4679	582.9416	714.2382	772.0425	851.6644	894.7481	929.5742	959.6731	977.3778	1018.1445	1032.4494	1036.8804	1083.5308	1120.321	1153.4514	1208.8762	1254.7596	1272.2151	1344.2078	1367.3726	1404.1352	1422.0889	1430.0565	1477.6104	1487.0202	1500.0925	1513.756	1531.1296	1802.987	2931.7713	3031.5844	3041.5252	3100.4233	3103.2187	3107.069	3120.6744	3190.7577	3494.2258	3631.0504
CC1(CNC=O)CN1	C[C@@]1(CNC=O)CN1	
InChI=1S/C5H10N2O/c1-5(3-7-5)2-6-4-8/h4,7H,2-3H2,1H3,(H,6,8)	InChI=1S/C5H10N2O/c1-5(3-7-5)2-6-4-8/h4,7H,2-3H2,1H3,(H,6,8)/t5-/m1/s1
