19
gdb 63270	2.09986	1.55241	1.37519	4.2189	71.65	-0.227	-0.0214	0.2057	1074.5607	0.155116	-460.173343	-460.16349	-460.162546	-460.207142	37.478	
C	-0.7050609407	 1.3532245201	 0.113737631	-0.470109
C	 0.06134638	 0.0451200331	 0.0678128946	 0.332184
O	-0.7890874922	-1.0414871956	-0.3007548054	-0.491131
C	 1.3998359815	-0.0354206269	-0.7245591664	-0.406225
C	 1.9272877967	-0.9572051088	 0.3959670935	 0.34822
O	 2.780802029	-1.791071877	 0.4514760647	-0.297537
C	 0.8010531779	-0.4879180498	 1.3666145567	 0.296553
C	 1.3063976037	 0.5917800473	 2.3165684077	-0.434857
O	 0.1174607761	-1.4373279952	 2.1233980497	-0.47356
H	-0.0638890507	 2.1869715057	 0.4116348111	 0.122896
H	-1.121168123	 1.5925835749	-0.8723721401	 0.111495
H	-1.5357626855	 1.2802747131	 0.8220672666	 0.136898
H	-1.0906505353	-0.907842732	-1.2048770415	 0.286638
H	 1.3520983222	-0.4731425719	-1.7242525022	 0.120713
H	 1.9431404817	 0.9135425775	-0.7723162674	 0.127524
H	 1.8858007265	 1.3623363738	 1.8010746415	 0.116918
H	 0.4611112115	 1.0647783039	 2.8246776196	 0.131137
H	 1.9469697823	 0.1259772218	 3.0698252725	 0.146214
H	-0.3618528918	-1.995372194	 1.4972182639	 0.296029
86.0518	164.1368	210.3786	229.7238	232.7323	248.6458	272.1691	289.9279	350.2129	370.8549	424.7949	447.5844	461.395	533.5997	590.4704	625.4487	695.6321	791.0669	829.6014	866.0998	947.9542	965.9895	1011.9809	1042.673	1082.0522	1114.0771	1132.9517	1173.4308	1202.8901	1257.2153	1271.4464	1344.6361	1388.0922	1410.223	1411.8773	1434.3421	1476.258	1486.6984	1492.7187	1501.6928	1897.9835	3029.8344	3045.4651	3059.5589	3095.6984	3119.4635	3121.0407	3124.0904	3128.4838	3775.8025	3821.0037
CC1(O)CC(=O)C1(C)O	C[C@@]1(O)CC(=O)[C@]1(C)O	
InChI=1S/C6H10O3/c1-5(8)3-4(7)6(5,2)9/h8-9H,3H2,1-2H3	InChI=1S/C6H10O3/c1-5(8)3-4(7)6(5,2)9/h8-9H,3H2,1-2H3/t5-,6+/m1/s1
