16
gdb 75816	3.32871	1.25344	1.06144	1.2085	65.45	-0.2537	0.0107	0.2645	1115.2876	0.123335	-475.007079	-474.99858	-474.997636	-475.040827	30.503	
O	 0.1108259296	 1.4118629874	-0.1405677654	-0.426137
C	 0.0918944018	 0.0140523215	-0.0400928979	-0.113139
C	 0.1972983812	-0.5553645143	 1.3988764679	 0.4181
O	 0.9781346078	-0.439996005	 2.3049880606	-0.367448
N	-1.0090270824	-1.1945302592	 1.2513274561	-0.396872
C	-1.3293338013	-0.6281119651	-0.055321462	 0.303624
C	-2.575267555	 0.2420001621	-0.2992416783	-0.123801
O	-2.9242051666	-0.5388296983	-1.4630967061	-0.269676
C	-1.8663608641	-1.483778457	-1.2155474238	-0.13339
H	 0.7839324835	 1.7375266368	 0.4684508515	 0.305787
H	 0.7802271136	-0.4630004244	-0.7514581076	 0.100215
H	-1.5766330544	-1.7077288945	 1.9119864987	 0.255431
H	-3.3360744089	 0.175576065	 0.4901619308	 0.098802
H	-2.3777712237	 1.2914632737	-0.5366604907	 0.134039
H	-1.2034344475	-1.6081987356	-2.0802623764	 0.113182
H	-2.2477169934	-2.4679827131	-0.9098962875	 0.101281
69.462	84.3373	143.4441	193.4592	249.7487	289.719	356.9662	418.295	474.2722	522.149	559.8434	732.0262	793.8734	835.4039	891.7193	915.1142	959.94	987.8336	1034.1146	1086.0292	1123.8329	1150.0445	1153.8525	1165.4095	1186.5897	1208.0758	1275.5257	1299.0394	1336.1808	1352.9309	1382.5057	1414.274	1502.1146	1527.8334	1898.696	3000.9255	3012.2801	3015.0616	3055.6959	3091.0814	3588.7196	3799.5662
OC1C(=O)NC11COC1	O[C@H]1C(=O)NC21COC2	
InChI=1S/C5H7NO3/c7-3-4(8)6-5(3)1-9-2-5/h3,7H,1-2H2,(H,6,8)	InChI=1S/C5H7NO3/c7-3-4(8)6-5(3)1-9-2-5/h3,7H,1-2H2,(H,6,8)/t3-/m0/s1
