19
gdb 91017	2.68573	1.67931	1.38626	2.8004	74.11	-0.2419	0.0688	0.3107	1009.3194	0.159058	-422.9716	-422.963792	-422.962848	-423.003453	31.561	
C	-0.1489683058	 1.4948440861	 0.0605270224	-0.504733
C	 0.1354949147	 0.0308630796	-0.0049710037	 0.412395
O	-0.7784635966	-0.8607111888	 0.6722016884	-0.302185
C	 0.626853997	-0.9580081064	 0.978321978	-0.056581
C	 1.302659274	-1.8068739981	-0.1242790565	-0.058332
C	 0.4320951136	-2.9206234275	-0.7677943306	-0.280446
C	-0.1039318482	-1.8920942982	-1.8262642983	 0.146218
O	-1.4852748259	-1.6856816267	-1.9189693023	-0.439555
C	 0.77511919	-0.7700899845	-1.1715318321	-0.148699
H	 0.7377889569	 2.0730032578	-0.2178651426	 0.127639
H	-0.9548782137	 1.7606611664	-0.6327663225	 0.139395
H	-0.4546336395	 1.7812137772	 1.0704958116	 0.134166
H	 0.8885752893	-0.860077108	 2.0269284712	 0.102919
H	 2.3688560314	-1.9810030813	 0.0145188564	 0.074932
H	 1.0132214437	-3.7365479199	-1.2040711552	 0.100131
H	-0.3428724683	-3.3415663431	-0.1236755236	 0.106162
H	 0.2389630403	-2.129411326	-2.8372082558	 0.085789
H	-1.7852408025	-1.5188617077	-1.0157385441	 0.293092
H	 1.4488028594	-0.1953303309	-1.8078258005	 0.067694
139.8572	169.3208	202.2584	262.0866	331.3285	370.6971	422.0883	500.814	565.5142	575.8741	684.898	693.6863	728.4541	784.0322	830.4677	859.6701	881.7478	908.1007	948.5365	979.906	990.3619	1026.0648	1050.9811	1089.255	1093.3117	1112.6974	1152.6915	1175.2479	1212.4976	1217.8908	1245.9488	1266.4695	1285.2557	1297.2873	1333.6879	1402.3662	1451.1057	1456.3045	1467.4987	1481.0275	1493.6407	3035.022	3063.2079	3070.031	3099.3993	3108.0463	3119.3874	3121.2417	3128.4099	3170.2894	3762.57
CC12OC1C1CC(O)C21	C[C@]12O[C@H]1[C@H]1C[C@@H](O)[C@@H]21	
InChI=1S/C7H10O2/c1-7-5-3(2-4(5)8)6(7)9-7/h3-6,8H,2H2,1H3	InChI=1S/C7H10O2/c1-7-5-3(2-4(5)8)6(7)9-7/h3-6,8H,2H2,1H3/t3-,4+,5-,6-,7+/m0/s1
