14
gdb 131308	5.09307	1.35801	1.23189	3.5958	66.74	-0.234	-0.0198	0.2142	974.7366	0.103575	-432.819737	-432.813411	-432.812467	-432.850357	25.127	
O	 0.0920967166	 1.2592318267	-0.0765277852	-0.394263
C	 0.1574533845	-0.0740841806	-0.0854916748	 0.422947
N	-0.0679129892	-0.766392013	-1.1955525348	-0.327823
N	-0.0866703758	-2.0402386007	-0.6732085895	 0.027889
C	 0.5911854229	-3.329257943	-0.9316248803	 0.003658
C	 2.025264731	-3.2780185037	-0.484019834	-0.267493
C	 0.9166000515	-3.3871646756	 0.5614382261	-0.182221
C	 0.2934913131	-2.0123934887	 0.626190256	 0.270567
N	 0.4464849091	-0.7827334681	 1.0680190136	-0.409142
H	 0.3119629116	 1.5401737973	 0.8202045736	 0.31397
H	 0.1538445378	-4.0735188591	-1.5824403937	 0.131328
H	 2.610421209	-4.1783684827	-0.6530042756	 0.133009
H	 2.5814886758	-2.3510847528	-0.5771380934	 0.151437
H	 0.8123945519	-4.2162978863	 1.2455006421	 0.126138
131.5192	276.4334	314.4328	358.3552	430.6885	536.3151	557.1321	648.775	720.2973	761.5791	783.2781	797.2679	852.2735	890.3833	960.196	978.0913	1009.0173	1026.0035	1048.2676	1093.1218	1124.1434	1171.909	1188.0959	1238.3333	1255.7091	1286.5308	1379.0054	1395.9128	1477.609	1556.7414	1618.0916	3123.9412	3213.1272	3219.2165	3232.76	3809.6954
OC1=NN2C3CC3C2=N1	OC1=NN2[C@H]3C[C@H]3[C]2[N]1	
InChI=1S/C5H5N3O/c9-5-6-4-2-1-3(2)8(4)7-5/h2-3H,1H2,(H,7,9)	InChI=1S/C5H5N3O/c9-5-6-4-2-1-3(2)8(4)7-5/h2-3H,1H2,(H,7,9)/t2-,3+/m1/s1
