23
gdb 122196	3.35089	0.81015	0.76472	2.0864	82.9	-0.2427	0.0782	0.3209	1634.5848	0.203671	-425.402407	-425.391923	-425.390979	-425.438774	37.333	
C	-0.0509930006	 1.4419347211	-0.2352929319	-0.385511
C	-0.039607104	-0.0636016269	-0.0325352777	-0.025895
O	-1.3753736574	-0.5257666064	-0.0057070181	-0.252549
C	-1.4874525575	-1.9216247615	 0.1640256283	-0.105074
C	-2.9645596673	-2.2982732918	 0.1508573486	 0.272302
C	-3.7300568042	-1.6494433107	 1.2964882893	-0.46845
C	-3.5772559542	-2.1875438692	-1.2679869436	-0.101458
O	-3.5174971796	-3.618769374	-1.4515902554	-0.277134
C	-3.1629581419	-3.8182993738	-0.0697814216	-0.122684
H	 0.9712371477	 1.8309266327	-0.2608206935	 0.115869
H	-0.5440342251	 1.6982322758	-1.1772897374	 0.127201
H	-0.5900829984	 1.9348877223	 0.5787136913	 0.126377
H	 0.5164775344	-0.5602244636	-0.8455983806	 0.087686
H	 0.4706676952	-0.3242049436	 0.9102767364	 0.086127
H	-0.9594284827	-2.4511876895	-0.6471972879	 0.092159
H	-1.0240174179	-2.2356052849	 1.1165905114	 0.082037
H	-3.6280962673	-0.5616960931	 1.2574482074	 0.136627
H	-4.7942062869	-1.9016091648	 1.2546246926	 0.113187
H	-3.3424540342	-1.986415646	 2.2652386413	 0.11195
H	-4.6110006264	-1.816626667	-1.2875334522	 0.091685
H	-2.9858824759	-1.6448687484	-2.0130913837	 0.10669
H	-2.2773385529	-4.4571889387	 0.0430952621	 0.096448
H	-3.989835623	-4.2520268282	 0.5097288651	 0.092409
53.2257	71.8466	97.4796	120.7705	157.1422	212.4809	246.5049	275.4609	304.4815	341.8781	368.2562	458.139	498.4859	688.0845	821.3085	853.3933	892.205	904.0809	929.0717	953.3676	983.6595	1014.7991	1030.0172	1032.196	1049.8546	1141.4471	1155.9947	1160.0403	1163.131	1183.3576	1196.9032	1228.2905	1289.6747	1297.8786	1306.5274	1314.2913	1383.5519	1385.9556	1403.9398	1410.7716	1449.338	1483.7394	1489.6116	1499.0448	1500.7905	1508.4823	1515.0185	1535.6703	1539.0311	2938.7964	2957.6532	2976.0346	2980.698	2994.4896	3009.363	3030.8616	3041.3421	3045.1975	3069.7162	3094.5963	3119.84	3120.4206	3121.6482
CCOCC1(C)COC1	CCOCC1(C)COC1	
InChI=1S/C7H14O2/c1-3-8-4-7(2)5-9-6-7/h3-6H2,1-2H3	InChI=1S/C7H14O2/c1-3-8-4-7(2)5-9-6-7/h3-6H2,1-2H3
