17
gdb 85655	2.03117	1.69439	1.1908	4.1259	72.53	-0.2319	-0.0483	0.1836	1082.0806	0.136053	-418.027889	-418.019342	-418.018398	-418.061625	31.12	
C	 0.9737288885	 1.1920236122	-0.3085340303	-0.346588
N	 0.0730624125	 0.0810178548	 0.00770547	-0.063696
C	 0.0111116653	-0.9527062853	-1.0315175244	-0.199627
C	 1.1292377073	-1.9922784408	-0.7184723625	-0.266532
C	 2.3875331193	-1.7275024396	-1.398875671	 0.287728
N	 3.3827206988	-1.4977682104	-1.9419955143	-0.326358
C	 1.283792964	-1.8362508398	 0.8351681343	 0.391773
O	 1.9144802102	-2.5553349035	 1.5518697624	-0.27615
C	 0.4288023008	-0.6223536505	 1.2338894655	-0.288509
H	 2.0325787697	 0.9065664536	-0.4217808551	 0.12849
H	 0.6475117538	 1.662277177	-1.2400762258	 0.132319
H	 0.9051752503	 1.9415601522	 0.4849343049	 0.130791
H	-0.9560762117	-1.4658864523	-0.9736464764	 0.121074
H	 0.1034673751	-0.5125530625	-2.0245991227	 0.135781
H	 0.8281343892	-3.0226584503	-0.929964521	 0.152905
H	 0.9587604032	 0.0122216915	 1.9471750505	 0.146924
H	-0.4676557162	-1.0100725463	 1.7410495757	 0.139674
53.6078	104.9078	142.0919	212.6139	224.7199	365.2746	379.2959	428.7625	455.6505	489.2607	569.1375	615.9478	699.4582	778.6393	818.9744	866.003	934.7775	1006.9036	1039.0995	1045.0333	1084.4207	1115.934	1161.185	1177.4432	1204.7417	1266.8706	1296.5768	1307.5936	1354.3602	1357.1455	1450.8792	1466.5813	1493.1468	1496.8426	1506.8002	1871.8173	2347.8611	2974.7155	3000.5884	3034.8463	3076.248	3077.6959	3114.1055	3119.0131	3132.8629
CN1CC(C#N)C(=O)C1	CN1C[C@@H](C#N)C(=O)C1	
InChI=1S/C6H8N2O/c1-8-3-5(2-7)6(9)4-8/h5H,3-4H2,1H3	InChI=1S/C6H8N2O/c1-8-3-5(2-7)6(9)4-8/h5H,3-4H2,1H3/t5-/m1/s1
