17
gdb 126699	2.03547	1.8974	1.07042	4.4339	71.51	-0.2101	0.0325	0.2426	1115.7167	0.13668	-451.326894	-451.318064	-451.317119	-451.361038	32.411	
C	-0.1156622424	 1.5816200687	-0.0483061775	-0.385648
C	-0.0570040621	 0.0555301953	 0.0342275543	-0.157839
N	-1.3719496044	-0.5673765042	-0.0013329113	-0.13878
C	-2.1213339803	-0.8466317262	 1.1358435823	 0.490126
N	-1.714807099	-0.7101303323	 2.328295977	-0.621377
O	-3.3339870911	-1.2734562826	 0.6898895254	-0.251832
N	-3.3552097009	-1.2670058883	-0.7494868899	-0.230611
C	-2.1837247838	-0.818935032	-1.0759306523	 0.448098
N	-1.7942452115	-0.5499508901	-2.3705942291	-0.595882
H	 0.8952173269	 1.9978311091	-0.0018596779	 0.122753
H	-0.5816290837	 1.9076126828	-0.9823519149	 0.134075
H	-0.6912289425	 1.9814105565	 0.7904071336	 0.150171
H	 0.5501828477	-0.3593656488	-0.7778226552	 0.104975
H	 0.392514088	-0.2624609901	 0.9778721639	 0.161545
H	-2.4354442985	-0.9826517431	 2.9914142562	 0.231555
H	-2.4743969447	-0.8899035587	-3.0386205014	 0.274739
H	-0.8607979176	-0.865485546	-2.6005974631	 0.263932
40.2226	93.0168	158.0405	215.6173	280.9556	304.1561	340.6472	346.4835	407.32	551.6276	617.6285	643.8538	715.4963	722.3756	740.3143	764.6484	779.143	794.4225	909.3499	965.3912	1038.2843	1046.8495	1105.3402	1152.8974	1216.4368	1234.0453	1335.7186	1376.4615	1389.4693	1409.2859	1476.3423	1490.7638	1504.9772	1548.2431	1626.6972	1693.1018	1772.163	3045.8553	3046.53	3108.3414	3122.1239	3135.1746	3542.2871	3545.3113	3642.1258
CCN1C(=N)ON=C1N	CCN1[C@@H]([NH])ON=C1N	
InChI=1S/C4H8N4O/c1-2-8-3(5)7-9-4(8)6/h6H,2H2,1H3,(H2,5,7)	InChI=1S/C4H9N4O/c1-2-8-3(5)7-9-4(8)6/h4,6H,2H2,1H3,(H2,5,7)/t4-/m1/s1
