19
gdb 102144	2.51756	1.03954	0.91393	4.9334	75.65	-0.2615	0.0112	0.2728	1346.656	0.158036	-419.267049	-419.256538	-419.255594	-419.303558	36.615	
C	 0.871354864	-0.8522101577	-1.2714713111	-0.385232
C	 0.1319062912	-0.1978075232	-0.0993078519	-0.19762
C	-1.3893319572	-0.4895675023	-0.0351890234	-0.110925
C	-2.1576865493	-0.0366142504	-1.2962375528	-0.345751
C	-1.9495926524	 1.3748127766	-1.6053900254	 0.25913
N	-1.7765595902	 2.4945591106	-1.8342983748	-0.317761
C	-1.6396342576	-1.9897293819	 0.162695835	 0.422088
N	-1.5510301246	-2.4204857286	 1.4520689029	-0.528497
O	-1.8745368588	-2.7434145311	-0.7639913903	-0.367402
H	 1.9458525989	-0.6656546462	-1.188410626	 0.119086
H	 0.7132834289	-1.9339788808	-1.2979496872	 0.13956
H	 0.5454260581	-0.4437235406	-2.2327684449	 0.128999
H	 0.5782346609	-0.5295534298	 0.8455473132	 0.096725
H	 0.2651559968	 0.8887451086	-0.138475814	 0.130915
H	-1.7929299047	 0.0531732148	 0.827976323	 0.093724
H	-1.8566572418	-0.6530697974	-2.147137063	 0.177915
H	-3.2299429111	-0.2111952523	-1.1605371648	 0.156301
H	-1.3485093939	-1.802123866	 2.2174695754	 0.263288
H	-1.6430019373	-3.4064690124	 1.6348581901	 0.26546
44.8492	56.7498	104.8356	133.2862	163.6421	186.924	247.6653	253.8211	314.6649	386.7049	396.4042	450.2008	565.9649	591.2563	624.9976	742.6341	763.8806	820.372	886.9549	941.3931	954.2211	1000.2527	1068.6533	1089.6019	1110.809	1147.5238	1211.2932	1249.5513	1302.8595	1322.4228	1331.5596	1387.6199	1413.3663	1427.137	1462.7823	1487.5783	1500.0187	1510.1843	1618.3804	1786.8137	2359.5087	3029.4703	3042.0203	3046.573	3066.2204	3073.9601	3110.6797	3115.0431	3123.7295	3603.011	3739.8028
CCC(CC#N)C(N)=O	CC[C@@H](CC#N)C(=O)N	
InChI=1S/C6H10N2O/c1-2-5(3-4-7)6(8)9/h5H,2-3H2,1H3,(H2,8,9)	InChI=1S/C6H10N2O/c1-2-5(3-4-7)6(8)9/h5H,2-3H2,1H3,(H2,8,9)/t5-/m0/s1
