20
gdb 117130	4.1979	0.76206	0.65541	3.7965	78.31	-0.255	-0.0279	0.227	1709.8164	0.168799	-440.349412	-440.338934	-440.33799	-440.385835	36.268	
C	-0.0131998073	 1.5826580948	-0.0162736444	-0.390626
C	 0.024572935	 0.0528334046	-0.014455135	-0.163034
C	-1.3755989265	-0.5628366546	 0.0045177137	-0.320503
C	-1.3454843627	-2.0825769987	 0.0069840243	 0.434668
O	-0.3112054669	-2.7142254684	-0.0026754904	-0.338898
N	-2.5983038514	-2.7258236013	 0.0215178365	-0.148298
C	-3.8684329994	-2.0038558536	 0.0338607085	-0.357683
C	-2.6386762448	-4.1221831296	 0.0241519081	 0.171049
O	-3.662659194	-4.7624048578	 0.0361756365	-0.319008
H	 0.9980585878	 1.9994877033	-0.0300755821	 0.120042
H	-0.5435927212	 1.9694800431	-0.8938337144	 0.114156
H	-0.520563474	 1.9721287364	 0.8736455261	 0.114167
H	 0.5634495691	-0.3155206297	-0.8931852598	 0.117982
H	 0.5859140291	-0.3129602397	 0.8511516184	 0.118101
H	-1.9363736674	-0.2180408744	 0.8837183475	 0.127369
H	-1.9590046016	-0.2208479516	-0.8608822459	 0.127245
H	-3.9813977666	-1.3811055343	-0.8576669192	 0.138283
H	-4.6568808695	-2.7557898631	 0.0466236248	 0.176412
H	-3.9595462817	-1.37342183	 0.9224171462	 0.138241
H	-1.631625286	-4.5560958053	 0.0140150206	 0.140334
49.5188	68.257	111.3102	130.0969	150.3462	187.2137	244.9731	289.0518	313.696	320.594	368.2008	417.8426	553.3922	568.3115	739.1692	752.8589	844.7488	889.5872	910.802	990.2672	1053.1481	1060.8588	1093.5448	1115.0191	1138.7563	1153.24	1252.5766	1264.5698	1308.2058	1326.2044	1343.2675	1401.3759	1414.1162	1416.3696	1449.2696	1452.0702	1487.682	1500.6804	1505.5101	1507.4389	1508.4848	1784.4878	1810.128	3018.9455	3029.4058	3048.4841	3048.6293	3056.7533	3079.7297	3080.0325	3104.8445	3107.3776	3111.0844	3161.61
CCCC(=O)N(C)C=O	CCCC(=O)N(C)C=O	
InChI=1S/C6H11NO2/c1-3-4-6(9)7(2)5-8/h5H,3-4H2,1-2H3	InChI=1S/C6H11NO2/c1-3-4-6(9)7(2)5-8/h5H,3-4H2,1-2H3
