18
gdb 125880	3.68686	1.08311	1.01395	2.9629	78.26	-0.2531	-0.0067	0.2464	1233.7	0.14846	-401.93515	-401.927132	-401.926188	-401.96825	30.314	
C	 0.0456520408	 1.5467971475	-0.2595687275	-0.413146
C	 0.0151977831	 0.0561435525	-0.0117296703	 0.013576
C	 1.2393540979	-0.8007176824	-0.1644381553	-0.309945
C	 0.6475126879	-0.5952913236	 1.2147335978	-0.116667
C	 1.3590861128	 0.1672214381	 2.2598062934	 0.405211
N	 0.9699250307	 0.0382357769	 3.5111194293	-0.214238
O	 1.8168250721	 0.8478654324	 4.2656686315	-0.164915
C	 2.6931914243	 1.4369083953	 3.4441234472	 0.078841
C	 2.4741112376	 1.0582637562	 2.1616958931	-0.347389
H	 0.9904742261	 1.9978230025	 0.0540472955	 0.118822
H	-0.0867908317	 1.7614890644	-1.3256320219	 0.119734
H	-0.7571137027	 2.0539504686	 0.2861831118	 0.12665
H	-0.9190037139	-0.4148238031	-0.3065367885	 0.094721
H	 1.1525473919	-1.7837149903	-0.6139190064	 0.117956
H	 2.1773793408	-0.2988927285	-0.380519921	 0.114049
H	 0.0856525879	-1.4239379488	 1.6311261705	 0.10651
H	 3.4130796524	 2.0908258752	 3.9121093428	 0.149689
H	 3.0283426021	 1.3502304173	 1.2862254782	 0.120543
57.8694	127.416	170.5471	208.8981	277.813	349.0846	429.8541	478.7612	611.8593	635.2591	741.7701	770.7398	800.473	855.5363	870.4448	883.7743	908.0856	934.8052	942.0241	983.1096	1031.8747	1067.2595	1075.5612	1098.8515	1115.6108	1150.5969	1164.6085	1199.0756	1230.5602	1303.7307	1370.5204	1403.5327	1426.082	1445.7366	1488.715	1490.4573	1497.7525	1507.4652	1606.1844	3035.9506	3093.8029	3115.4246	3130.604	3142.0242	3173.1967	3214.9169	3259.6543	3288.5946
CC1CC1C1=NOC=C1	C[C@H]1C[C@H]1c1nocc1	
InChI=1S/C7H9NO/c1-5-4-6(5)7-2-3-9-8-7/h2-3,5-6H,4H2,1H3	InChI=1S/C7H9NO/c1-5-4-6(5)7-2-3-9-8-7/h2-3,5-6H,4H2,1H3/t5-,6+/m0/s1
