15
gdb 133685	2.5261	1.11544	0.91845	4.3654	58.33	-0.3272	0.0266	0.3538	1245.8088	0.10809	-548.341914	-548.332832	-548.331888	-548.376856	31.855	
C	-0.2038733836	 1.5716230419	-0.0969388334	-0.4034
C	-0.1789982839	 0.0300663217	-0.0619048986	-0.142415
C	 0.6113609648	-0.5417029032	-1.2579473199	-0.338194
C	 0.4040029469	-2.0297187795	-1.4752943598	 0.285845
F	-0.9009313245	-2.3189834863	-1.6302306654	-0.085351
F	 1.0409934728	-2.4362595727	-2.5820280869	-0.071346
F	 0.857197122	-2.76154966	-0.4514128813	-0.063268
C	 0.3629116072	-0.429220749	 1.2227789691	 0.278087
N	 0.7883043965	-0.7437948907	 2.2497658171	-0.318828
H	 0.8100626387	 1.9786251936	-0.0518436269	 0.143135
H	-0.6764075231	 1.9146624199	-1.0214450211	 0.130762
H	-0.76819451	 1.9673597424	 0.750088039	 0.147428
H	-1.2081955227	-0.3402583802	-0.1317072477	 0.147074
H	 0.2818482534	-0.0393703257	-2.1715538523	 0.140287
H	 1.6831111956	-0.3609197223	-1.141814632	 0.150183
37.4798	92.1703	139.1567	192.5877	219.2585	265.9612	308.0625	359.0037	369.8874	528.7339	536.2254	561.2363	593.4953	664.8532	798.339	845.6305	914.3605	957.8131	1043.0575	1074.298	1142.9178	1155.542	1198.9714	1264.9309	1296.2535	1316.3859	1368.9588	1392.2659	1416.5077	1471.552	1492.9216	1500.2159	2362.0356	3049.3664	3054.5905	3073.3817	3123.5023	3127.885	3136.0407
CC(CC(F)(F)F)C#N	C[C@@H](CC(F)(F)F)C#N	
InChI=1S/C5H6F3N/c1-4(3-9)2-5(6,7)8/h4H,2H2,1H3	InChI=1S/C5H6F3N/c1-4(3-9)2-5(6,7)8/h4H,2H2,1H3/t4-/m0/s1
