15
gdb 131654	6.84482	0.85273	0.76607	4.3875	78.49	-0.2264	0.0003	0.2267	1408.7998	0.112921	-416.790129	-416.781651	-416.780707	-416.823687	30.866	
O	 0.7243857961	-0.1627976058	 0.7801971073	-0.424669
C	-0.0694791421	 0.2553888685	-0.323180121	-0.203485
C	-1.4851119841	-0.1289090577	-0.0309588538	 0.404064
C	-2.6980622311	 0.2911973015	-0.5306383421	-0.425268
C	-3.662314393	-0.5116641892	 0.1346695389	 0.20334
N	-3.0791477082	-1.3633091104	 0.9917485484	-0.294865
N	-1.7698378493	-1.1126343388	 0.8578350244	-0.230735
C	-5.0702194251	-0.46992685	-0.0294207472	 0.27486
C	-6.2602777156	-0.4060344618	-0.1961483454	-0.421961
H	 1.6500658983	-0.1022372338	 0.5284799396	 0.299228
H	-0.0078400712	 1.3418495332	-0.4829383909	 0.118443
H	 0.2674869237	-0.2293506164	-1.2531335913	 0.11742
H	-2.8807035028	 1.0589833311	-1.2640389252	 0.111337
H	-1.0980047856	-1.5898170334	 1.4362523423	 0.284238
H	-7.31181787	-0.3588497371	-0.3337927139	 0.188053
51.7009	123.3388	139.836	221.2044	238.3383	282.8484	411.5456	476.847	554.6578	576.5158	583.682	608.0459	661.3861	681.9936	727.2053	733.694	818.412	1000.9786	1032.3677	1038.546	1075.3305	1155.9557	1194.0869	1220.1401	1238.9165	1302.8106	1394.2994	1438.8767	1461.2126	1484.7027	1516.3914	1606.0236	2240.0409	2973.9545	3007.8592	3272.6535	3505.7211	3672.0835	3842.4856
OCC1=CC(=NN1)C#C	OCc1cc(n[nH]1)C#C	
InChI=1S/C6H6N2O/c1-2-5-3-6(4-9)8-7-5/h1,3,9H,4H2,(H,7,8)	InChI=1S/C6H6N2O/c1-2-5-3-6(4-9)8-7-5/h1,3,9H,4H2,(H,7,8)
