14
gdb 129528	5.16664	1.07509	0.88998	4.9403	65.13	-0.2258	0.0155	0.2413	1211.2299	0.102619	-470.062623	-470.05465	-470.053706	-470.095997	28.694	
N	-0.1475735302	 1.3293338669	-0.0194634099	-0.561755
C	 0.1296442972	 0.0042015662	-0.0320481814	 0.506157
O	 1.2334423718	-0.487679246	 0.0095314936	-0.3923
O	-1.046053003	-0.6928171972	-0.1182025437	-0.282558
C	-1.0563412423	-2.0584699694	-0.173654436	 0.49773
C	-2.1724768589	-2.8605570862	-0.2573462866	-0.363825
C	-1.6340605976	-4.1648904743	-0.2856684386	 0.012247
N	-0.3065212598	-4.1692182551	-0.2250142869	-0.243614
N	 0.0314174695	-2.8618955147	-0.1566536798	-0.252481
H	 0.6131711625	 1.9644563533	 0.142554649	 0.281695
H	-1.0952929464	 1.6547001324	 0.0498231558	 0.278658
H	-3.2004245981	-2.5427171938	-0.292175913	 0.108161
H	-2.1680569131	-5.1016803115	-0.3482095194	 0.112868
H	 0.9875224684	-2.5521708006	-0.0987626931	 0.299017
55.8934	81.4411	165.2639	201.1673	319.1141	370.6063	399.4444	534.0623	581.0454	623.2381	675.5166	710.3288	763.336	765.3011	782.9762	890.4966	930.5583	958.9738	1050.962	1074.3887	1107.2677	1118.0793	1253.8128	1287.745	1357.4231	1381.0573	1433.0698	1518.4447	1605.4052	1615.9583	1837.4744	3245.5298	3281.9686	3630.9092	3670.0731	3766.3696
NC(=O)OC1=CC=NN1	NC(=O)Oc1ccn[nH]1	
InChI=1S/C4H5N3O2/c5-4(8)9-3-1-2-6-7-3/h1-2H,(H2,5,8)(H,6,7)	InChI=1S/C4H5N3O2/c5-4(8)9-3-1-2-6-7-3/h1-2H,(H2,5,8)(H,6,7)
