23
gdb 72883	2.83057	1.39867	1.15579	0.194	89.8	-0.2515	0.0873	0.3388	1191.1862	0.205909	-351.12388	-351.115171	-351.114227	-351.15727	34.876	
C	-0.4953665021	 1.5289632344	 0.0146550102	-0.493939
C	 0.0122582787	 0.1043153456	-0.0011664051	 0.395413
C	-1.041045958	-1.0375693222	 0.1252762271	-0.277451
C	-0.2616433127	-1.6451026733	 1.3298894625	-0.217748
C	 0.830098378	-0.5542875129	 1.1829243921	-0.164786
C	 1.9444076672	-0.8821082546	 0.1824905088	 0.404842
C	 3.419759689	-0.7660987586	 0.4314756034	-0.331664
C	 2.8004589872	-2.1153516805	 0.1463358459	-0.323568
C	 1.1743601292	-0.236304012	-0.9820511132	-0.37535
H	 0.3280551542	 2.2469686625	 0.1025988421	 0.112143
H	-1.0401769275	 1.7618200214	-0.909280094	 0.11362
H	-1.1802147684	 1.7007820027	 0.8531169493	 0.110125
H	-2.0407344599	-0.6789648413	 0.3865461671	 0.094605
H	-1.1329909097	-1.6794332251	-0.7558526492	 0.092437
H	-0.8127766223	-1.5786391072	 2.2715183244	 0.094684
H	 0.0872585766	-2.6747402274	 1.2117153831	 0.095541
H	 1.1232050795	-0.00782613	 2.0829072615	 0.05488
H	 4.0335797385	-0.3099482391	-0.3396246355	 0.107146
H	 3.7536279891	-0.5624484606	 1.4444348165	 0.108343
H	 2.7177921831	-2.8223303319	 0.9664793489	 0.109338
H	 2.9956960645	-2.574961791	-0.8177090978	 0.108183
H	 0.9070732586	-0.8965725069	-1.8143028931	 0.090234
H	 1.6681229671	 0.651276398	-1.3924359252	 0.09297
39.0629	184.2377	214.0472	224.3762	255.8848	306.495	344.2338	380.5992	455.0508	505.6167	632.3061	694.5713	759.1222	775.1228	826.7026	860.0421	871.7193	887.6407	904.194	935.1966	957.5128	959.8803	969.5147	1013.4517	1017.3852	1048.2821	1073.4979	1085.821	1131.7406	1145.7912	1164.093	1187.4921	1213.4662	1234.1472	1244.0857	1248.2641	1258.3612	1277.0803	1290.8201	1335.367	1378.9216	1410.0305	1462.7644	1473.4372	1480.6133	1490.3651	1490.9248	1498.2357	1501.6436	3013.1993	3028.3289	3045.5332	3053.8502	3071.8618	3075.0491	3075.8178	3085.841	3089.0002	3109.1942	3115.4051	3120.3265	3192.6816	3208.1827
CC12CCC1C1(CC1)C2	C[C@]12CC[C@H]1C1(CC1)C2	
InChI=1S/C9H14/c1-8-3-2-7(8)9(6-8)4-5-9/h7H,2-6H2,1H3	InChI=1S/C9H14/c1-8-3-2-7(8)9(6-8)4-5-9/h7H,2-6H2,1H3/t7-,8-/m1/s1
