15
gdb 34350	2.97105	1.61846	1.31403	2.1792	69.1	-0.2431	0.0034	0.2465	957.1957	0.113608	-416.734052	-416.727064	-416.72612	-416.765434	27.281	
N	-0.0383752094	-1.1754940399	 0.0113571304	-0.337863
C	-0.0273830594	-0.0180546777	 0.016570005	 0.191644
C	-0.0128931779	 1.4188502101	 0.0306618504	 0.150245
C	-0.4016624806	 2.2018367728	-1.2699092542	-0.218259
N	 0.8662050768	 2.9887375434	-1.213697161	-0.299176
C	 1.3186279463	 2.2531391516	-0.0181090404	-0.10915
C	 0.9169287667	 2.8975674353	 1.340709406	 0.052286
O	-0.3656429188	 3.5073074048	 1.1685389513	-0.216527
C	-0.3287950094	 2.1099430243	 1.3973428364	-0.051179
H	-0.4877067026	 1.5430399681	-2.1381957347	 0.124227
H	-1.295878928	 2.8220136505	-1.1797412904	 0.132852
H	 1.4607461969	 2.822791701	-2.0167356563	 0.231462
H	 2.2946233355	 1.7671081874	-0.0408078134	 0.102148
H	 1.5503187708	 3.2954274507	 2.1246226589	 0.121607
H	-0.9009063669	 1.7009378276	 2.2213489523	 0.125683
137.5324	156.9467	225.8487	290.1043	426.5976	477.5808	525.4884	553.6597	629.9814	693.3071	753.3339	823.7416	846.4657	849.9949	891.0063	917.5679	984.8768	1010.5635	1014.899	1029.1336	1053.2638	1097.5604	1142.4369	1157.5764	1203.8309	1236.2199	1271.531	1285.9313	1347.033	1373.927	1392.2765	1492.194	2343.7332	3058.7399	3113.5186	3118.9339	3187.0427	3202.1622	3551.7056
N#CC12CNC1C1OC21	N#C[C@]12CN[C@H]1[C@H]1O[C@@H]21	
InChI=1S/C6H6N2O/c7-1-6-2-8-4(6)3-5(6)9-3/h3-5,8H,2H2	InChI=1S/C6H6N2O/c7-1-6-2-8-4(6)3-5(6)9-3/h3-5,8H,2H2/t3-,4+,5-,6+/m1/s1
