17
gdb 38557	2.83919	2.2699	1.67036	1.1326	75.1	-0.192	0.0054	0.1973	841.222	0.138271	-384.626182	-384.620069	-384.619124	-384.656185	26.517	
C	-0.0186878596	 1.473174367	-0.1464975759	-0.414405
C	 1.2974661211	 0.7508854007	 0.0592610524	 0.107358
O	 2.1912969525	 0.2929677003	-0.9366246138	-0.257694
C	 1.5584452641	-0.8225421451	-1.522792322	 0.100666
C	 0.8766735387	-2.0319128133	-0.7753737371	-0.135798
C	 0.56830565	-2.1382173575	 0.6987887294	-0.080453
C	-0.0562781504	-1.0414278944	 1.146346874	-0.211236
C	 0.0100610979	-0.0296155117	 0.0301545759	 0.233463
C	 0.1013269168	-0.832736249	-1.2774320453	-0.167118
H	-0.3338808743	 2.1190755723	 0.6681841656	 0.119384
H	-0.3074813878	 1.823197156	-1.1328858728	 0.122605
H	 1.7932231318	 0.9056485665	 1.0110916082	 0.102431
H	 2.0054258329	-1.0682562689	-2.4798614612	 0.107546
H	 0.9102642535	-2.9449228573	-1.3625665499	 0.085633
H	 0.8097024904	-3.0173701864	 1.2826341289	 0.10097
H	-0.3597891487	-0.832024746	 2.1640465414	 0.10331
H	-0.696370739	-0.8311178132	-2.0149768577	 0.083338
212.4315	290.6519	362.3145	429.5056	539.9272	586.3344	641.554	693.118	723.1796	734.3277	792.0909	810.4367	816.8233	832.4526	893.3118	906.2048	919.3621	969.7739	1005.6709	1025.8954	1032.7296	1048.4403	1067.4589	1091.2137	1104.6679	1113.4613	1139.5147	1168.158	1222.3436	1277.2304	1283.1303	1339.1235	1351.1577	1363.9424	1416.2529	1469.7648	1625.6181	3116.8483	3135.705	3152.9322	3170.0679	3180.8055	3203.0519	3207.1323	3227.7359
C1C2OC3C4C=CC12C34	C1[C@@H]2O[C@H]3[C@H]4C=C[C@@]12[C@@H]34	
InChI=1S/C8H8O/c1-2-8-3-5(8)9-7-4(1)6(7)8/h1-2,4-7H,3H2	InChI=1S/C8H8O/c1-2-8-3-5(8)9-7-4(1)6(7)8/h1-2,4-7H,3H2/t4-,5-,6+,7-,8+/m0/s1
