15
gdb 16138	4.14084	1.80505	1.46975	2.8429	68.07	-0.2477	-0.0305	0.2172	852.6567	0.119658	-362.654347	-362.647719	-362.646775	-362.685107	25.471	
O	-0.2193504695	 0.0524575638	 0.2386512128	-0.25994
C	-0.0295793022	 1.2073616192	-0.0532846963	 0.074925
C	 1.2880763865	 1.8696498911	-0.061022548	 0.226679
N	 1.3384227261	 3.3375816833	 0.2481407416	-0.354308
C	 1.6288459931	 2.9036222938	-1.1108248141	-0.090784
C	 3.1149960828	 2.7451504775	-1.4237493629	-0.262955
C	 3.5658295864	 1.6585316225	-0.4673506993	-0.07593
C	 2.5607682213	 1.1621263416	 0.255159832	-0.120658
H	-0.8722523537	 1.882700503	-0.3414872679	 0.056733
H	 0.385191177	 3.7025698106	 0.2868019801	 0.233798
H	 0.9281969227	 3.1501600665	-1.902695677	 0.102166
H	 3.2697484881	 2.4553711325	-2.4707147514	 0.116691
H	 3.6549456104	 3.6864079812	-1.2672014148	 0.129117
H	 4.6033862086	 1.355171164	-0.3884076122	 0.105391
H	 2.6168013125	 0.3709469594	 0.9903491873	 0.119073
115.3283	192.9917	269.1984	306.1488	438.4462	457.8875	528.6959	669.4073	718.9356	765.8402	790.9049	828.2926	901.7139	925.5305	953.706	969.5305	997.0016	1014.2479	1054.2321	1105.2749	1128.1516	1161.6423	1192.9131	1257.4515	1297.6253	1329.2883	1381.832	1420.3733	1434.4818	1464.2555	1670.9514	1812.8249	2831.1081	3029.5185	3066.268	3160.6108	3199.8951	3235.9041	3445.5025
O=CC12NC1CC=C2	O=C[C@]12N[C@H]1CC=C2	
InChI=1S/C6H7NO/c8-4-6-3-1-2-5(6)7-6/h1,3-5,7H,2H2	InChI=1S/C6H7NO/c8-4-6-3-1-2-5(6)7-6/h1,3-5,7H,2H2/t5-,6-/m0/s1
