14
gdb 42554	2.71502	1.79716	1.3419	2.2037	70.93	-0.2407	-0.0175	0.2232	934.3262	0.100151	-399.453281	-399.446232	-399.445288	-399.484849	27.383	
O	 0.0363286191	 0.0904273565	-0.1210348188	-0.326584
C	 0.005834036	 1.2848402927	-0.0916456787	 0.448004
C	-1.077272716	 2.3081745867	 0.1084466812	-0.166291
C	-0.0733658462	 3.1451409142	 0.8625699407	-0.062064
C	 1.0782230909	 2.3855584907	 0.0998239354	-0.212124
C	 0.7640053658	 3.3430394379	-1.0711899751	-0.15497
C	 0.7718353479	 2.8364589608	-2.4281631539	 0.331805
C	 0.7787200364	 2.3978940418	-3.5471389524	-0.415892
N	-0.5944768392	 3.6260171109	-0.424227322	-0.134455
H	-2.1413944116	 2.1940133147	 0.2589155307	 0.126763
H	-0.1550466146	 3.6418814314	 1.8184126529	 0.128294
H	 2.084428967	 2.1402945371	 0.4265530393	 0.105682
H	 1.3222153683	 4.2803928168	-0.9985326689	 0.122809
H	 0.7825298661	 2.0094369479	-4.5359756804	 0.209023
99.1661	145.0774	210.9431	348.3482	437.3467	473.411	547.2526	622.9496	641.6001	673.3256	733.7344	775.1732	782.2301	829.0636	836.6187	888.1969	937.2543	952.6034	960.545	1031.4734	1055.2618	1074.5705	1115.2724	1158.643	1183.7058	1224.0915	1239.6418	1287.3197	1363.8177	1893.7772	2236.4699	3072.7291	3170.9307	3223.7374	3234.4531	3500.5312
O=C1C2C3C1C(C#C)N23	O=C1[C@H]2[C@H]3[C@@H]1[C@@H](C#C)N23	
InChI=1S/C7H5NO/c1-2-3-4-5-6(7(4)9)8(3)5/h1,3-6H	InChI=1S/C7H5NO/c1-2-3-4-5-6(7(4)9)8(3)5/h1,3-6H/t3-,4+,5-,6-,8?/m1/s1
