15
gdb 50253	2.49966	1.65713	1.26543	5.2249	64.79	-0.2636	-0.0368	0.2268	991.8286	0.112065	-457.776327	-457.768796	-457.767851	-457.809193	27.396	
O	-0.5807530786	 0.5681405769	-0.3868760581	-0.234084
C	 0.3822560299	 0.7387008819	 0.314637167	 0.15059
C	 1.3421021869	 1.8940880701	 0.1614549465	-0.099524
C	 0.951752179	 3.0521679937	-0.7988485952	-0.266326
C	 1.0445072269	 4.043464749	 0.3783903276	 0.115031
O	-0.2361888705	 4.2120436759	 1.0652546224	-0.249135
C	 0.066460165	 3.2319712514	 1.9848384146	 0.47361
O	-0.595106466	 2.8603208696	 2.8980989508	-0.323128
C	 1.4266961797	 2.9114476848	 1.3629711473	-0.270706
H	 0.6282937189	 0.0365914627	 1.1417709907	 0.092877
H	 2.3368683914	 1.4822042719	-0.0393377229	 0.115645
H	 1.6806334293	 3.2343106313	-1.5902971437	 0.119991
H	-0.0451412745	 2.9627847762	-1.2322293872	 0.1506
H	 1.5666665239	 4.9925519144	 0.2772953087	 0.109122
H	 2.2935664988	 2.88718096	 2.0187977315	 0.115437
67.6001	93.5903	143.6844	240.1691	347.9218	384.984	476.003	602.9317	634.1223	741.3164	759.8642	824.0672	853.2842	877.3853	914.5261	953.0638	979.5747	1015.508	1050.2184	1094.7435	1105.3979	1113.5827	1162.8482	1187.6001	1228.511	1267.3649	1285.5644	1317.5713	1337.4186	1418.4298	1468.6757	1827.47	1936.3747	2891.5006	3057.9099	3087.2644	3139.883	3149.0613	3153.7371
O=CC1CC2OC(=O)C12	O=C[C@H]1C[C@H]2OC(=O)[C@@H]12	
InChI=1S/C6H6O3/c7-2-3-1-4-5(3)6(8)9-4/h2-5H,1H2	InChI=1S/C6H6O3/c7-2-3-1-4-5(3)6(8)9-4/h2-5H,1H2/t3-,4-,5+/m1/s1
