16
gdb 66391	2.39182	1.51383	1.27356	1.8069	76.54	-0.2424	-0.0277	0.2147	1058.4524	0.121738	-400.68899	-400.680398	-400.679454	-400.722152	32.021	
C	 0.0117076516	 1.5520726493	 0.0529726049	-0.501113
C	-0.0209376542	 0.0577281243	-0.0424242194	 0.183116
C	-0.8749800237	-0.8170835046	 0.8354578689	-0.250577
C	-1.7129858333	-1.8828235411	 0.3571058692	 0.345959
C	-2.4354899465	-2.7732663843	-0.0050928862	-0.434287
N	 0.5940039621	-0.9222696724	 0.9665955551	-0.170826
C	 1.0503663629	-1.8145514266	-0.1601858725	-0.293746
C	 0.5372813029	-0.7736026164	-1.1715571849	 0.368641
O	 0.7320562446	-0.5530409878	-2.3307335608	-0.300376
H	 0.9759833251	 1.9418697688	-0.2862758236	 0.141734
H	-0.769440955	 1.9877044358	-0.5783200811	 0.145936
H	-0.1537489947	 1.8805527397	 1.0825594649	 0.137396
H	-1.2966452442	-0.2773089623	 1.6815173786	 0.130676
H	-3.0741228219	-3.5547211457	-0.3367838747	 0.208699
H	 2.1412412913	-1.8797486012	-0.1726011087	 0.143089
H	 0.6106461229	-2.8132276256	-0.1621539097	 0.145679
88.7166	130.4034	145.4598	190.4616	247.3479	306.7869	377.3006	463.119	468.0824	569.4654	597.3495	619.786	642.2798	675.3993	681.2046	767.4735	837.1871	890.4109	969.9185	993.6617	1040.6562	1056.4801	1082.8116	1118.6377	1160.0512	1243.7082	1281.5296	1300.9789	1403.0594	1417.0045	1458.6521	1479.1546	1488.7195	1892.4934	2234.7182	3041.906	3075.9597	3110.7937	3121.83	3127.3147	3138.6131	3499.7168
CC12C(C#C)N1CC2=O	C[C@]12[C@@H](C#C)N1CC2=O	
InChI=1S/C7H7NO/c1-3-5-7(2)6(9)4-8(5)7/h1,5H,4H2,2H3	InChI=1S/C7H7NO/c1-3-5-7(2)6(9)4-8(5)7/h1,5H,4H2,2H3/t5-,7-,8?/m1/s1
