18
gdb 31076	2.42837	1.35572	0.8806	2.2354	78.45	-0.1659	0.0452	0.2112	1306.9128	0.146383	-439.1044	-439.094694	-439.09375	-439.139349	34.588	
C	 0.042029534	 1.4288071843	-0.0290444942	-0.243944
O	 0.0227831425	 0.0164166219	 0.0115861283	-0.270172
C	-1.203872629	-0.5703389067	 0.0005571808	 0.277317
C	-1.3872732121	-1.9181370812	-0.0040458183	 0.216028
C	-0.4674324735	-3.0787798643	 0.0010024158	-0.500363
O	-2.7554182526	-2.1656556607	-0.0079754449	-0.209958
C	-3.3892832346	-0.9769884269	-0.0051763797	 0.388362
N	-4.7747089499	-1.039998096	-0.0883539124	-0.595645
C	-2.5015581318	 0.0585294881	 0.0019617573	-0.425193
H	 1.0929109074	 1.7246137855	-0.0289866423	 0.130203
H	-0.4395954231	 1.8153261385	-0.937212329	 0.119944
H	-0.45272418	 1.866916965	 0.8483358907	 0.11759
H	-0.5942089484	-3.710623663	 0.8897834783	 0.123087
H	-0.6022564801	-3.721653443	-0.878304413	 0.125736
H	 0.5608318467	-2.7088908302	-0.0053771793	 0.141967
H	-5.1455884188	-1.8762967488	 0.3454260034	 0.253977
H	-5.226335941	-0.2163606725	 0.2847072346	 0.253093
H	-2.7354960356	 1.1095075999	 0.0035389839	 0.097971
46.0927	132.3103	161.286	176.8576	189.6348	193.1624	241.1782	253.6034	374.1868	383.3373	546.6242	581.3237	634.5608	644.8449	673.5103	700.1449	740.2397	814.6349	955.1669	1037.5169	1065.4642	1070.2554	1105.7184	1170.9897	1179.4724	1194.41	1225.3414	1246.8994	1384.2349	1415.6479	1452.4253	1472.639	1488.2733	1495.3519	1498.3575	1509.1188	1614.9532	1660.8384	1705.2765	2997.8062	3009.5968	3050.0167	3053.6774	3123.2132	3127.3337	3271.1587	3542.4301	3643.4129
COC1=C(C)OC(N)=C1	COc1c(C)oc(N)c1	
InChI=1S/C6H9NO2/c1-4-5(8-2)3-6(7)9-4/h3H,7H2,1-2H3	InChI=1S/C6H9NO2/c1-4-5(8-2)3-6(7)9-4/h3H,7H2,1-2H3
