18
gdb 35333	5.44863	0.87417	0.86479	5.0943	77.31	-0.2579	0.0307	0.2885	1356.9153	0.148152	-401.938606	-401.9304	-401.929455	-401.972184	30.496	
N	-0.9420359997	-0.4107388533	-1.3691563293	-0.325739
C	-0.4627910949	 0.4341679701	-0.7415041604	 0.271891
C	 0.1464162438	 1.4809608218	 0.0584360129	-0.143236
C	-0.1206973463	 1.4858671884	 1.5977675483	-0.304017
C	 1.3603040109	 1.8773794991	 1.8050578293	 0.457459
C	 1.748595049	 3.3066873895	 2.2460833079	-0.349244
C	 2.486795398	 2.5924413028	 3.3946850502	-0.079784
O	 2.0721262835	 1.2981226943	 2.9026466301	-0.310428
C	 1.6723532583	 1.3754899738	 0.3766600681	-0.30401
H	-0.0950646491	 2.4511397924	-0.3838681712	 0.124432
H	-0.8961131068	 2.1568044706	 1.9729782094	 0.114693
H	-0.2977484619	 0.474320919	 1.97038807	 0.1393
H	 2.3843148591	 3.8522530882	 1.5462313483	 0.116528
H	 0.9141782558	 3.9427396114	 2.5473504283	 0.116528
H	 3.5776271183	 2.6950134479	 3.4000676855	 0.110816
H	 2.1045232676	 2.7856378732	 4.4031499051	 0.110815
H	 1.9975516007	 0.3330227756	 0.4072633284	 0.139303
H	 2.3581904837	 1.9564578251	-0.2432661109	 0.114694
61.1057	68.3168	158.0764	223.0971	273.4503	379.2281	398.0991	438.1944	563.5608	564.0768	673.2438	782.5704	826.0602	853.3156	866.8833	907.4886	940.2886	972.1542	987.9454	1025.1114	1034.2976	1043.4831	1127.8637	1157.3658	1175.1847	1184.6952	1221.5771	1224.7217	1240.7984	1243.4222	1261.9569	1311.3425	1356.8118	1362.2139	1464.2631	1483.9529	1492.2008	1531.7752	2354.0276	3029.3139	3069.8567	3071.5493	3072.8602	3075.8009	3076.8339	3129.3533	3134.6329	3136.6878
N#CC1CC2(CCO2)C1	N#C[C@H]1C[C@]2(CCO2)C1	
InChI=1S/C7H9NO/c8-5-6-3-7(4-6)1-2-9-7/h6H,1-4H2	InChI=1S/C7H9NO/c8-5-6-3-7(4-6)1-2-9-7/h6H,1-4H2/t6-,7+
