17
gdb 107088	4.62249	0.92165	0.90028	2.9464	73.01	-0.271	0.0173	0.2883	1302.6581	0.136641	-417.973686	-417.965221	-417.964277	-418.00743	31.089	
O	 0.1222145879	 1.3533171824	-0.3713381869	-0.412994
C	 0.0758816617	 0.0225731932	 0.1185618076	-0.164695
C	-1.3332196727	-0.4840691752	 0.2072405056	 0.327774
C	-2.3758297498	-0.1277488139	 1.2795423992	-0.311105
C	-2.9637139552	-1.5828592898	 1.1399429904	-0.169691
C	-4.3596498395	-1.7115326706	 0.7450753765	 0.274793
N	-5.4611924468	-1.7865568244	 0.400693243	-0.327114
C	-1.9086775289	-1.8643156085	 0.0409444908	-0.109018
N	-1.9861044319	-0.8938015668	-1.0346622417	-0.358151
H	-0.2403562695	 1.33252484	-1.2642360453	 0.291553
H	 0.6627892238	-0.663792451	-0.5088466021	 0.103272
H	 0.5348733637	 0.0495019885	 1.1124010453	 0.111443
H	-1.9524835652	 0.0377404488	 2.2719986957	 0.126579
H	-3.0509898542	 0.6960137679	 1.0361641899	 0.126773
H	-2.7832114713	-2.1700387906	 2.0432809133	 0.133049
H	-1.4427581867	-2.824821722	-0.145466455	 0.113903
H	-2.9206228755	-0.510417938	-1.1687149662	 0.243629
62.7768	81.0214	136.3692	207.2449	289.1193	317.3943	395.8021	421.877	449.6846	534.4097	617.8769	713.6886	743.2145	816.8014	861.7065	915.3716	926.4903	976.2078	989.779	1032.4819	1051.2505	1077.3644	1115.254	1120.265	1167.9284	1182.724	1222.3917	1247.2834	1265.9525	1310.4207	1325.0551	1376.3794	1416.9191	1454.2724	1487.3242	1491.8869	2350.6064	3002.5882	3071.6046	3078.6955	3089.3358	3130.5351	3185.6209	3465.2276	3802.3031
OCC12CC(C#N)C1N2	OC[C@]12C[C@@H](C#N)[C@H]1N2	
InChI=1S/C6H8N2O/c7-2-4-1-6(3-9)5(4)8-6/h4-5,8-9H,1,3H2	InChI=1S/C6H8N2O/c7-2-4-1-6(3-9)5(4)8-6/h4-5,8-9H,1,3H2/t4-,5+,6+/m0/s1
