19
gdb 30827	2.38151	1.26667	0.87642	2.1067	80.98	-0.1662	0.0546	0.2208	1345.7794	0.159007	-419.24013	-419.229997	-419.229053	-419.275608	36.471	
C	 0.2447049142	 1.5902911748	-0.191960648	-0.363535
C	-0.0485108659	 0.0989197548	 0.0584599355	-0.304645
C	 0.6238696558	-0.4676070667	 1.2647764325	 0.212997
C	 0.1085330864	-0.8698644412	 2.4754692008	 0.261534
O	-1.2260623292	-0.8068102352	 2.7825286891	-0.458168
C	 1.1713164653	-1.3423384472	 3.3005326211	-0.358112
C	 2.3314271968	-1.2047989131	 2.5648153912	 0.288087
N	 3.6905335933	-1.4509776824	 2.8593749638	-0.610685
N	 1.9954181893	-0.6795065351	 1.3490153183	-0.325482
H	 1.3155191981	 1.768986065	-0.3409660335	 0.102889
H	-0.278533121	 1.9493211793	-1.0845704578	 0.106886
H	-0.0745721617	 2.1958721051	 0.6613531288	 0.124617
H	-1.1260051946	-0.0417905043	 0.1895158026	 0.124461
H	 0.2283706593	-0.4757434838	-0.8373943302	 0.094209
H	-1.3659891338	-1.2651976122	 3.6151492492	 0.292209
H	 1.0922781032	-1.7562817355	 4.2952561484	 0.073972
H	 3.8421314816	-1.4554873478	 3.8607519052	 0.243994
H	 4.005578983	-2.3487507364	 2.5010337583	 0.241711
H	 2.67432907	-0.3902281781	 0.666457835	 0.253061
47.2302	102.9572	120.3526	137.5634	189.3569	219.854	277.9652	283.1332	319.5643	395.4369	443.0171	519.4619	600.0946	624.0139	655.1416	686.0675	728.7109	774.0407	805.7434	833.1311	963.4889	1030.3081	1063.491	1077.0076	1111.134	1163.745	1194.7082	1235.3629	1258.1918	1319.4885	1353.423	1362.2187	1406.7622	1473.6936	1479.8904	1492.1363	1497.2806	1505.7367	1568.0152	1649.5452	1682.0708	2998.0411	3029.4523	3076.0099	3097.6136	3111.9461	3231.3964	3481.6473	3588.8282	3679.1124	3851.2758
CCC1=C(O)C=C(N)N1	CCc1c(O)cc(N)[nH]1	
InChI=1S/C6H10N2O/c1-2-4-5(9)3-6(7)8-4/h3,8-9H,2,7H2,1H3	InChI=1S/C6H10N2O/c1-2-4-5(9)3-6(7)8-4/h3,8-9H,2,7H2,1H3
