14
gdb 124049	3.78006	1.63942	1.15747	4.5232	71.32	-0.2294	-0.0316	0.1978	973.6668	0.103532	-436.682518	-436.676093	-436.675149	-436.713587	24.863	
C	 0.0081718615	 1.4861432351	 0.1346298462	-0.13433
O	 1.2827882541	 2.1206600212	-0.1035888108	-0.268299
C	 2.1269823145	 1.4638040788	-0.9074272694	 0.43376
N	 3.1641818124	 2.0435990519	-1.4503545767	-0.242702
O	 3.808806093	 1.0022718901	-2.1469230958	-0.177895
C	 3.1224357809	-0.1404180635	-1.9815641024	-0.031953
C	 2.031901861	 0.0669655045	-1.2004664698	 0.061765
C	 0.9442873549	-0.6970841143	-0.6338289622	-0.166235
C	-0.0019300644	-0.0170270696	 0.0234453608	-0.118871
H	-0.2817566536	 1.8019443583	 1.1414247174	 0.136613
H	-0.7247317683	 1.9220850208	-0.5629918413	 0.129609
H	 3.5294493047	-1.0091005626	-2.4762425165	 0.155707
H	 0.9148439829	-1.7768575236	-0.726020194	 0.109944
H	-0.8488214035	-0.5180087072	 0.4806986545	 0.112888
92.3869	192.2313	321.0203	425.9818	462.8874	519.8908	575.6883	604.0678	699.2959	725.4688	778.9074	833.1864	850.2488	914.862	918.7706	934.2785	983.5219	1030.9212	1052.9645	1146.1727	1187.2871	1245.8113	1263.0243	1296.36	1370.9318	1408.4797	1474.8014	1499.0099	1564.9544	1663.7128	1711.4109	2977.7982	3074.9481	3182.1212	3202.5267	3259.552
C1OC2=NOC=C2C=C1	C1Oc2nocc2C=C1	
InChI=1S/C6H5NO2/c1-2-5-4-9-7-6(5)8-3-1/h1-2,4H,3H2	InChI=1S/C6H5NO2/c1-2-5-4-9-7-6(5)8-3-1/h1-2,4H,3H2
