19
gdb 78286	2.25852	1.66513	1.46533	0.6495	74.4	-0.2432	0.0635	0.3068	1024.1936	0.156878	-422.975509	-422.966591	-422.965647	-423.008468	34.273	
C	-0.0009705116	 1.5324007917	-0.0173138535	-0.502985
C	-0.1085356163	 0.0465833564	 0.1278120139	 0.319502
O	 1.0409306733	-0.7472981705	-0.2224979864	-0.333863
C	 0.488539098	-0.9149414502	 1.0969905475	 0.319379
C	 1.4057674815	-0.7327068648	 2.2656665464	-0.502979
C	-0.722500813	-1.8223156943	 0.9998330751	-0.182177
C	-1.9735152699	-1.0556909786	 1.3286034205	 0.10517
O	-2.1049517058	-0.1084495657	 2.3491524787	-0.43022
C	-1.3492443698	-0.8130012012	-0.0175854742	-0.182129
H	 0.9523652665	 1.894780924	 0.376456047	 0.132343
H	-0.0586300886	 1.820785327	-1.0728927065	 0.137169
H	-0.8213042151	 2.033604541	 0.5070813239	 0.127716
H	 2.0347463602	 0.1517043015	 2.1336676794	 0.132364
H	 0.8349600602	-0.6334577156	 3.1949059578	 0.127659
H	 2.0663291951	-1.6001540354	 2.3749005009	 0.137189
H	-0.6927375676	-2.903457681	 0.924676725	 0.09571
H	-2.8816798755	-1.6512937733	 1.2971703195	 0.113628
H	-1.3014050522	 0.41964441	 2.3802251232	 0.290811
H	-1.8488753694	-1.041565901	-0.9522118881	 0.095712
147.6324	151.7548	187.8121	190.1276	193.9827	250.4905	327.7462	336.045	447.8864	492.9257	568.6985	601.1903	672.3015	693.7541	753.9512	759.8301	816.5407	852.8236	942.2849	949.1886	972.5182	989.128	1057.7304	1075.4856	1086.9858	1099.2763	1147.2383	1166.9897	1201.4392	1232.1446	1310.0739	1313.7397	1325.3009	1407.0626	1409.9153	1456.466	1463.381	1475.8161	1490.8093	1492.9964	1505.3285	3033.009	3034.2355	3094.0936	3094.5492	3118.046	3119.8024	3157.9516	3173.6645	3184.6797	3834.5783
CC12OC1(C)C1C(O)C21	C[C@@]12O[C@]1(C)[C@H]1[C@@H](O)[C@@H]21	
InChI=1S/C7H10O2/c1-6-3-4(5(3)8)7(6,2)9-6/h3-5,8H,1-2H3	InChI=1S/C7H10O2/c1-6-3-4(5(3)8)7(6,2)9-6/h3-5,8H,1-2H3/t3-,4+,5-,6-,7+
