21
gdb 38761	2.28341	2.22384	1.77992	1.7185	79.4	-0.2368	0.0785	0.3153	911.4011	0.187786	-387.110648	-387.104165	-387.10322	-387.141061	28.245	
C	 0.0361008497	 1.5733495991	 0.0703526589	-0.227429
C	 1.5243859167	 1.9245308574	-0.0334995085	 0.128215
O	 2.2159124008	 1.7216277123	 1.2210623419	-0.313377
C	 2.6990703934	 0.425801988	 0.7875775677	 0.127408
C	 1.9836841971	-0.7135210565	 1.504434954	-0.223616
C	 0.444817059	-0.6325928444	 1.3422175892	-0.204513
C	 0.0037543609	 0.0251564055	 0.0079776846	-0.013913
C	 1.0548220509	-0.2640514294	-1.0865850923	-0.233224
C	 2.1912538896	 0.6698451698	-0.6624403445	-0.080667
H	-0.4119307476	 1.9855767847	 0.9794390816	 0.102589
H	-0.5009552859	 1.9907004587	-0.7909287854	 0.089062
H	 1.7273388792	 2.9177722241	-0.4444667888	 0.068796
H	 3.7861196381	 0.3545065561	 0.9106553785	 0.067443
H	 2.3628747431	-1.6574484906	 1.0921269394	 0.096414
H	 2.2571549571	-0.7092127026	 2.5649530152	 0.102981
H	 0.0307053815	-1.6448552166	 1.4040410694	 0.091425
H	 0.0134862527	-0.0710762163	 2.1769077809	 0.1051
H	-0.9935674914	-0.3340365864	-0.2608246457	 0.061707
H	 1.353450409	-1.3166209434	-1.1329775753	 0.094821
H	 0.6799738726	 0.0147541505	-2.0781544585	 0.093299
H	 2.9723599435	 0.8328081	-1.4047060523	 0.067479
170.5663	314.638	335.5189	393.2909	420.1118	463.4644	603.9376	610.1708	745.9231	784.1724	795.2872	835.8341	853.4022	872.961	882.2525	900.639	937.3825	966.8534	975.4342	1014.499	1027.9566	1039.7554	1074.1343	1083.9922	1099.1994	1129.1935	1150.5088	1190.737	1206.4214	1243.3302	1259.9003	1264.0613	1300.1137	1311.1903	1330.3657	1340.7671	1343.7772	1356.9501	1367.1103	1380.6359	1393.8395	1466.2414	1475.7926	1490.2799	1504.6051	3020.0539	3026.2239	3034.0409	3036.6103	3040.3287	3062.6537	3065.1297	3070.294	3078.1921	3085.018	3090.8735	3112.0783
C1C2OC3CCC1CC23	C1[C@H]2O[C@H]3CC[C@@H]1C[C@@H]23	
InChI=1S/C8H12O/c1-2-7-6-3-5(1)4-8(6)9-7/h5-8H,1-4H2	InChI=1S/C8H12O/c1-2-7-6-3-5(1)4-8(6)9-7/h5-8H,1-4H2/t5-,6-,7+,8-/m1/s1
