15
gdb 132423	3.18005	1.33103	0.94371	2.7734	72.71	-0.2153	-0.0323	0.183	1152.8365	0.112929	-461.992097	-461.984364	-461.98342	-462.024399	29.217	
C	-0.0247372693	 1.5196478156	 0.013890703	-0.472714
C	-0.0045849814	 0.0201701597	-0.0367315856	 0.120757
C	-0.0416010943	-0.7064298605	-1.1919727281	-0.127639
C	-0.0217086721	-2.1318971462	-1.2226656899	-0.35233
C	 0.0371636187	-2.7607919938	-0.0261069172	 0.419358
F	 0.0624255944	-4.0774816208	 0.1155921206	-0.054915
N	 0.0751642727	-2.0749426063	 1.1401152884	-0.437861
C	 0.0587190073	-0.664560672	 1.2481847982	 0.388132
O	 0.0965335344	-0.1429136534	 2.3497678222	-0.385215
H	 0.8663589903	 1.9045035726	 0.5216117134	 0.142253
H	-0.0723563566	 1.9501526741	-0.9894230271	 0.113144
H	-0.8821994335	 1.8785822467	 0.5934394203	 0.142244
H	-0.0886755503	-0.1801249752	-2.1411052506	 0.111472
H	-0.0513304859	-2.6989391907	-2.14094178	 0.122298
H	 0.1187976856	-2.5834088297	 2.0133862924	 0.271016
125.651	138.5108	183.5883	282.3737	339.9623	347.8451	437.856	449.8561	541.2222	589.1269	624.3367	679.2258	741.4072	757.9125	783.9122	790.307	940.5748	982.5608	1042.2766	1069.5353	1109.5199	1150.2196	1226.7837	1263.8541	1335.1797	1400.1332	1417.0327	1469.423	1488.0349	1509.9992	1618.2857	1692.4613	1773.3732	3035.3327	3087.8756	3121.4964	3172.2061	3245.6494	3605.2194
CC1=CC=C(F)NC1=O	Cc1ccc(F)[nH]c1=O	
InChI=1S/C6H6FNO/c1-4-2-3-5(7)8-6(4)9/h2-3H,1H3,(H,8,9)	InChI=1S/C6H6FNO/c1-4-2-3-5(7)8-6(4)9/h2-3H,1H3,(H,8,9)
