18
gdb 18578	3.13743	2.24541	1.82012	1.4971	71.71	-0.2403	0.0178	0.2581	806.7944	0.156073	-347.802474	-347.795732	-347.794788	-347.833196	27.277	
O	-0.1646797819	 1.3810676914	 0.7641269601	-0.428019
C	-0.035533097	 0.1225154214	 0.1394818352	 0.130904
C	 0.5498820289	-1.0191733501	 1.0214770306	-0.264722
C	-0.8550579718	-1.6925887318	 1.060949505	-0.058134
C	-1.7207435263	-1.3153275826	 2.2354349546	-0.083943
C	-2.6796651209	-0.4434188978	 1.9122540064	-0.078485
C	-2.6593593222	-0.0636597849	 0.4464915546	-0.275412
C	-1.3560734936	-0.7122035667	-0.052301504	-0.044105
H	-0.5740682757	 1.2401544985	 1.6255623261	 0.27994
H	 0.5107603836	 0.3173417777	-0.7867223722	 0.085223
H	 1.3008705558	-1.6188123992	 0.4993765588	 0.099811
H	 0.9695977954	-0.6955141643	 1.9789912264	 0.095225
H	-0.8666138167	-2.7688095305	 0.8601937183	 0.069941
H	-1.5643760934	-1.7268360362	 3.2278841063	 0.092119
H	-3.4186852827	-0.0511745696	 2.6037523973	 0.092971
H	-3.5458972822	-0.4464994883	-0.0760561303	 0.103321
H	-2.6496432529	 1.0224447783	 0.2975807362	 0.118579
H	-1.4344939865	-1.1342583052	-1.0556165993	 0.064785
94.032	229.4679	280.5671	385.1496	414.1299	448.6743	516.1533	640.0103	743.6037	751.3013	760.4136	812.3048	855.1424	888.0005	922.736	945.1151	973.5354	991.0367	1012.5585	1031.5444	1045.3927	1101.4138	1121.4813	1134.3826	1166.4022	1192.163	1231.5921	1256.9531	1264.6209	1280.1416	1303.3354	1329.2192	1333.8064	1378.5177	1443.2056	1472.959	1479.953	1669.3763	3018.3156	3044.2667	3051.6392	3059.0899	3073.6619	3095.5174	3104.3268	3170.4074	3196.09	3794.2377
OC1CC2C=CCC12	O[C@H]1C[C@H]2C=CC[C@@H]12	
InChI=1S/C7H10O/c8-7-4-5-2-1-3-6(5)7/h1-2,5-8H,3-4H2	InChI=1S/C7H10O/c8-7-4-5-2-1-3-6(5)7/h1-2,5-8H,3-4H2/t5-,6-,7+/m1/s1
