16
gdb 36109	3.71932	1.14417	1.04041	4.6594	71.78	-0.2491	0.0232	0.2723	1148.1093	0.123833	-400.679321	-400.671747	-400.670803	-400.711945	28.976	
N	-0.1337564075	-1.1399080178	 0.2360386734	-0.303281
C	-0.0907344945	 0.0047840022	 0.0855022957	 0.26446
C	-0.0151369299	 1.4559013023	-0.1170128533	-0.455784
C	 1.4012809698	 1.9717134881	-0.0884582804	 0.321413
C	 2.1376958269	 2.4033171065	 1.1490023029	-0.32055
C	 1.886987512	 3.4083698129	 0.0504678607	-0.175455
C	 2.8424291844	 3.1711806999	-1.1627585543	 0.024397
O	 3.7255120571	 2.0811693502	-0.8649531922	-0.230225
C	 2.3924958236	 1.790188399	-1.2930181045	-0.036348
H	-0.4979406167	 1.6916687805	-1.0743057903	 0.152756
H	-0.6098586519	 1.9475244228	 0.6610890485	 0.15609
H	 1.51352794	 2.5317113548	 2.0281194096	 0.118316
H	 3.1402387795	 2.0443380392	 1.3414919117	 0.147725
H	 1.2970942034	 4.3050548264	 0.1879825239	 0.101407
H	 3.168879832	 3.8995865826	-1.8942259562	 0.116311
H	 2.2620703216	 1.1370605803	-2.1477142151	 0.118766
58.0136	104.6458	244.08	282.1381	389.884	416.321	437.8802	449.2593	586.5382	694.0687	758.2405	802.1793	812.5313	862.2211	871.6411	907.9988	913.6303	946.4751	979.4713	992.1316	1019.9728	1033.9286	1071.921	1105.3363	1161.4251	1200.2837	1237.1548	1257.4945	1301.626	1325.1796	1360.8258	1402.1137	1454.6574	1477.3237	2362.2302	3028.3282	3072.9097	3141.5218	3187.151	3200.1529	3208.1625	3237.4642
N#CCC12CC1C1OC21	N#CC[C@]12C[C@H]1[C@H]1O[C@@H]21	
InChI=1S/C7H7NO/c8-2-1-7-3-4(7)5-6(7)9-5/h4-6H,1,3H2	InChI=1S/C7H7NO/c8-2-1-7-3-4(7)5-6(7)9-5/h4-6H,1,3H2/t4-,5+,6+,7-/m0/s1
