16
gdb 14629	15.06683	0.57613	0.56748	1.3036	63.98	-0.2611	-0.0352	0.2259	1814.1439	0.125943	-420.875698	-420.866202	-420.865258	-420.91223	30.167	
O	-0.6508653513	 0.8779478328	 0.8152245365	-0.228005
C	 0.0240139983	 1.0676493604	-0.1621665506	 0.153278
C	 1.3060212251	 1.8703694131	-0.185045971	-0.282424
C	 1.2614186559	 2.991600072	-1.2220528858	-0.059512
O	 2.5594596398	 3.5348388251	-1.3357517992	-0.245477
C	 2.6438211974	 4.6065966497	-2.2404873485	-0.148129
C	 4.0812159192	 5.0996491238	-2.2575843501	 0.139801
O	 4.4676034215	 5.9940327823	-2.9604590142	-0.233519
H	-0.2663662023	 0.6380807326	-1.1501450472	 0.07601
H	 1.5071534547	 2.2621032762	 0.8143830697	 0.134828
H	 2.1230318061	 1.191020502	-0.4652914093	 0.135318
H	 0.9232947305	 2.6012462922	-2.197379904	 0.097649
H	 0.5435639316	 3.7701086741	-0.9172996834	 0.10925
H	 2.3571827596	 4.3102332705	-3.2635842636	 0.124943
H	 1.9862485822	 5.4441254512	-1.9518808554	 0.126694
H	 4.7473899418	 4.5541715319	-1.553713294	 0.099294
38.1095	55.4727	60.0073	105.421	120.4797	129.1762	260.3292	314.618	434.1907	516.2816	573.4638	741.2136	791.22	871.7868	988.6591	1028.8316	1052.0297	1111.638	1123.0913	1140.6279	1174.6259	1225.7717	1241.6459	1277.5347	1310.1348	1347.0844	1401.0874	1431.6552	1435.6495	1468.1948	1482.4047	1528.5092	1839.9564	1847.0278	2853.637	2902.0865	2955.9348	2966.441	2990.7693	2995.8374	3029.222	3120.5919
O=CCCOCC=O	O=CCCOCC=O	
InChI=1S/C5H8O3/c6-2-1-4-8-5-3-7/h2-3H,1,4-5H2	InChI=1S/C5H8O3/c6-2-1-4-8-5-3-7/h2-3H,1,4-5H2
