16
gdb 6468	3.96546	1.37687	1.25679	3.7632	61.18	-0.2389	-0.019	0.2199	984.77	0.127926	-420.877294	-420.869091	-420.868147	-420.909989	30.635	
O	-0.0103436533	 1.295424765	-0.302260458	-0.434533
C	-0.049945093	-0.1143639496	-0.1050470559	-0.137843
C	-1.5101253006	-0.4633296498	 0.145346479	 0.426346
O	-1.9922725768	 0.2505852164	 1.2575337578	-0.486937
C	-2.395950218	-0.398925921	-1.1507595664	-0.402574
C	-2.4029096164	-1.9329698219	-1.1477997489	 0.408765
O	-2.7024682741	-2.7667618237	-1.9522169222	-0.292398
C	-1.7797876718	-1.9880827496	 0.2558909689	-0.404553
H	 0.9046767654	 1.5886978195	-0.2775818389	 0.298023
H	 0.3335676189	-0.6557246356	-0.9829941918	 0.096988
H	 0.542922618	-0.4105907104	 0.7723934209	 0.101942
H	-1.66525865	 1.153946235	 1.1529374782	 0.287394
H	-3.3872352072	 0.0071158991	-0.9258545332	 0.137267
H	-1.992622278	 0.0991431961	-2.0353087763	 0.131286
H	-0.9298801019	-2.6611357769	 0.3988827207	 0.123806
H	-2.5306602012	-2.1910521027	 1.026154596	 0.147021
58.7118	127.8604	223.3888	252.8684	319.7566	351.8346	382.7571	409.0979	451.5167	482.2224	533.581	661.1166	678.6795	740.9531	852.0569	915.1381	942.5967	997.0614	1022.8102	1064.5382	1104.0649	1123.1778	1149.5838	1182.6445	1215.1832	1230.203	1277.6836	1308.8385	1399.4522	1416.1154	1442.0918	1451.1633	1509.7208	1895.1437	2984.3381	3026.4189	3056.8856	3063.1154	3115.7635	3125.043	3767.1943	3840.6347
OCC1(O)CC(=O)C1	OCC1(O)CC(=O)C1	
InChI=1S/C5H8O3/c6-3-5(8)1-4(7)2-5/h6,8H,1-3H2	InChI=1S/C5H8O3/c6-3-5(8)1-4(7)2-5/h6,8H,1-3H2
