20
gdb 89621	3.65642	1.13027	0.95533	2.6527	81.53	-0.2189	-0.0142	0.2047	1283.3461	0.169244	-403.124218	-403.115002	-403.114058	-403.1583	34.293	
C	-0.2187230585	 1.4413316773	-0.0274259881	-0.325431
N	 0.2719524827	 0.0843236177	-0.1846539558	-0.070075
C	 1.5874055873	-0.1389691683	-0.8454372206	-0.263521
C	 2.0457549003	-1.0028794203	 0.3365039018	 0.221431
C	 1.9706749837	-0.1761059864	 1.6073452568	-0.336704
C	 0.6950711279	-0.6510129724	 1.0015049504	-0.034378
C	 2.6709214333	-2.3479643669	 0.3340815257	 0.283852
C	 2.9933310476	-2.9577522445	-1.0182137014	-0.493747
O	 2.8989141713	-2.9382892032	 1.3710175535	-0.32306
H	 0.4841336271	 2.120924027	 0.4859595331	 0.096384
H	-0.4396297011	 1.8635604074	-1.0130901621	 0.123072
H	-1.1513060303	 1.422863106	 0.5458697632	 0.125654
H	 1.4783880292	-0.6670616375	-1.7980861456	 0.109471
H	 2.1852725626	 0.7685462032	-1.0097511052	 0.096734
H	 2.2968858631	-0.7189750139	 2.4875277063	 0.145431
H	 2.2536410679	 0.8721203498	 1.5649791138	 0.111531
H	 0.0142185278	-1.3234437092	 1.5132529026	 0.111009
H	 3.6384483389	-2.2910579188	-1.6016302253	 0.136604
H	 3.4878720923	-3.9186145885	-0.8733570029	 0.141455
H	 2.0759098568	-3.1029354785	-1.5999321303	 0.144286
61.9696	116.6358	158.3735	170.7686	208.7319	242.8145	319.2277	374.9921	400.1231	477.74	513.9283	590.003	625.7469	688.8537	794.5179	847.4663	886.0207	949.3234	968.4291	970.1372	987.9456	1047.3514	1057.945	1070.9511	1080.5913	1131.3519	1157.0195	1170.966	1226.0481	1230.5888	1235.1954	1302.0872	1330.4323	1374.5626	1400.454	1450.0983	1463.8891	1467.6087	1476.3539	1486.7022	1502.35	1513.8902	1778.7676	2950.836	3001.9626	3035.0286	3061.4313	3067.4452	3095.4115	3103.0286	3120.6792	3153.9737	3166.0731	3224.5118
CN1CC2(CC12)C(C)=O	CN1C[C@]2(C[C@@H]12)C(=O)C	
InChI=1S/C7H11NO/c1-5(9)7-3-6(7)8(2)4-7/h6H,3-4H2,1-2H3	InChI=1S/C7H11NO/c1-5(9)7-3-6(7)8(2)4-7/h6H,3-4H2,1-2H3/t6-,7-/m1/s1
