14
gdb 132027	2.39322	1.8502	1.04476	2.1351	70.64	-0.1984	-0.0255	0.1729	1039.6331	0.102057	-477.992298	-477.98487	-477.983926	-478.024011	28.831	
N	 0.0656597942	 1.4013615025	 0.0255698348	-0.59701
C	 0.0188941498	 0.0161508722	 0.0446428234	 0.033221
C	-1.1192971532	-0.7010629288	 0.0996373198	 0.308293
F	-2.324480738	-0.1547570986	 0.0766876144	-0.057146
O	-1.211447602	-2.0436968455	 0.180364947	-0.202814
C	-0.0501452195	-2.7385988564	 0.2097704384	 0.057966
C	 1.1553804467	-2.1521569386	 0.1488672807	-0.236934
C	 1.2958450987	-0.7071558893	 0.0419967154	 0.27393
N	 2.3801641413	-0.0172365767	-0.0614708033	-0.565458
H	 0.9769386327	 1.7188589131	-0.284807406	 0.269155
H	-0.7096572297	 1.859971354	-0.4287634244	 0.24883
H	-0.2323905724	-3.8017709752	 0.2848433112	 0.146389
H	 2.0425849725	-2.7743944358	 0.1690536603	 0.111851
H	 3.2018082989	-0.6215518169	-0.0618149017	 0.209727
131.676	195.6388	281.7548	293.8531	356.0629	363.1881	497.3721	503.7426	523.3746	551.0139	558.3925	658.5509	702.1663	736.0189	802.2493	860.0749	864.7367	930.7853	984.4646	1059.265	1137.7627	1234.3968	1290.0184	1302.6409	1320.8529	1416.3512	1471.5807	1608.2404	1624.1999	1689.8894	1749.1773	3200.3137	3238.9794	3473.0463	3529.2733	3656.7514
NC1=C(F)OC=CC1=N	NC1=C(F)OCC=C1[NH]	
InChI=1S/C5H5FN2O/c6-5-4(8)3(7)1-2-9-5/h1-2,7H,8H2	InChI=1S/C5H6FN2O/c6-5-4(8)3(7)1-2-9-5/h1,7H,2,8H2
