19
gdb 88288	3.74871	0.95306	0.90664	3.4981	78.54	-0.248	-0.0295	0.2184	1374.925	0.157571	-423.013806	-423.004687	-423.003743	-423.048544	33.239	
C	 0.3683685192	 1.4082100967	-0.576607432	-0.432766
C	-0.0500240694	 0.0620530182	-0.0490142904	 0.085392
O	 0.9604394381	-0.9183842702	 0.1311936545	-0.232845
C	 0.3032284122	-0.4529545342	 1.3035106028	-0.061114
C	 1.1034196359	 0.3713129065	 2.2778308223	 0.373073
O	 2.1577730328	 0.892532692	 1.9743527657	-0.340923
C	 0.5034688274	 0.5197729982	 3.6333637809	-0.114883
C	 1.4676634459	 0.5767108889	 4.8139130796	-0.245787
C	 0.7769368477	 1.8196581636	 4.3771390057	-0.24931
H	 1.2805378607	 1.7505406624	-0.086947549	 0.165234
H	 0.551908226	 1.3387651698	-1.6539212133	 0.13053
H	-0.4295527198	 2.142066925	-0.4201711014	 0.118622
H	-0.9781055296	-0.3361339595	-0.4663670449	 0.095915
H	-0.3796703654	-1.1717192225	 1.7589378727	 0.096438
H	-0.4546080634	 0.0399764338	 3.798470356	 0.088585
H	 1.152311909	 0.0904592289	 5.7296563812	 0.120871
H	 2.5163621407	 0.471493674	 4.5610936106	 0.142965
H	 1.3630364298	 2.551020523	 3.8326406596	 0.140484
H	-0.027538548	 2.2169822354	 4.9851540594	 0.119519
45.8801	64.0904	167.6703	179.4931	221.0022	258.1189	288.5649	355.8091	380.4411	454.3759	671.0545	745.9802	779.5801	799.1584	827.1874	836.1269	860.2239	895.8	918.9722	991.9769	1028.5624	1057.652	1078.4957	1091.2316	1097.3557	1112.1139	1126.9064	1167.1148	1174.4324	1210.6486	1223.1867	1288.455	1376.9314	1401.2409	1420.6058	1449.5113	1453.1519	1484.3975	1492.0171	1501.8957	1779.497	3040.7827	3078.5327	3100.3527	3101.03	3141.4687	3143.4889	3155.8345	3173.2266	3229.72	3244.2853
CC1OC1C(=O)C1CC1	C[C@H]1O[C@H]1C(=O)C1CC1	
InChI=1S/C7H10O2/c1-4-7(9-4)6(8)5-2-3-5/h4-5,7H,2-3H2,1H3	InChI=1S/C7H10O2/c1-4-7(9-4)6(8)5-2-3-5/h4-5,7H,2-3H2,1H3/t4-,7-/m1/s1
