24
gdb 123170	7.93001	0.44155	0.43303	0.8831	88.53	-0.2313	0.0893	0.3206	2566.374	0.215874	-405.5059	-405.49504	-405.494096	-405.543396	37.933	
C	-0.0584646397	 1.3834243819	-0.1459326487	-0.226711
O	-0.0206032821	-0.0106419926	 0.0301836528	-0.23054
C	-1.2953556663	-0.6099823619	-0.0541780543	-0.049302
C	-1.1450498637	-2.1115884969	 0.1468223742	-0.197847
C	-2.4816795611	-2.8535158638	 0.0598891151	-0.182406
C	-2.3347273434	-4.3609393999	 0.2666704586	-0.142357
N	-3.6325135363	-5.025730616	 0.2077358719	-0.059814
C	-4.0681106357	-5.470587693	-1.1124752573	-0.219191
C	-3.6145534729	-6.4526549737	-0.0892558395	-0.220405
H	 0.9667828602	 1.7534844873	-0.0656771326	 0.124797
H	-0.4596084816	 1.6617554251	-1.1341322784	 0.100708
H	-0.6751606247	 1.8781856003	 0.6220066749	 0.101347
H	-1.9704788707	-0.1855631872	 0.7101415051	 0.083244
H	-1.7541893577	-0.3979889062	-1.0365955266	 0.081175
H	-0.4469303076	-2.4943598757	-0.6078312433	 0.10404
H	-0.6758644615	-2.2869670297	 1.1227399239	 0.105567
H	-3.1823833434	-2.4666518791	 0.8096222752	 0.107989
H	-2.9453321259	-2.6714118873	-0.918807046	 0.096627
H	-1.6273935928	-4.7724539367	-0.4787710979	 0.075865
H	-1.9031122798	-4.559650725	 1.2558146719	 0.102428
H	-5.1245708199	-5.3468529973	-1.3326038021	 0.115295
H	-3.4021115759	-5.2922470321	-1.9560955398	 0.106671
H	-2.6486894504	-6.9285953063	-0.2535742161	 0.107406
H	-4.3337526669	-7.0593085742	 0.4538285188	 0.115414
45.497	61.5723	81.8025	101.9665	136.3054	148.8412	206.3684	237.7103	268.3821	347.9314	392.8928	477.3176	510.7816	751.2115	771.4738	811.1152	843.6591	899.424	946.1757	976.0728	1011.8531	1029.8955	1056.3894	1061.4381	1099.8979	1113.4337	1117.4238	1152.4658	1165.6531	1175.1422	1179.1946	1205.3326	1224.3444	1236.9856	1273.6205	1292.2148	1313.7973	1319.2408	1328.5028	1362.3205	1410.1669	1428.6992	1481.6689	1485.4667	1485.5616	1491.1174	1495.2817	1503.8112	1510.66	1523.8907	1533.2772	2918.7507	2937.8561	2962.8748	2965.5521	3005.5115	3018.9489	3029.6028	3039.9671	3055.9145	3079.7471	3089.852	3095.1165	3110.6224	3173.8259	3188.1673
COCCCCN1CC1	COCCCCN1CC1	
InChI=1S/C7H15NO/c1-9-7-3-2-4-8-5-6-8/h2-7H2,1H3	InChI=1S/C7H15NO/c1-9-7-3-2-4-8-5-6-8/h2-7H2,1H3
