19
gdb 35257	2.96224	1.22017	0.96882	4.3522	80.87	-0.2169	0.0289	0.2458	1242.5974	0.160195	-382.039298	-382.030781	-382.029837	-382.073329	31.59	
N	-0.0526364579	-1.1416294199	 0.3895042384	-0.352014
C	-0.0175911315	-0.0029692428	 0.1847771582	 0.304505
C	 0.0140923805	 1.407362042	-0.0764719906	-0.204706
C	 0.3574866753	 2.3749943683	 1.0608610925	-0.323273
C	 1.3257646697	 2.1775682512	-0.079045406	 0.060362
N	 2.5969308706	 1.5417874526	 0.0060164027	-0.080624
C	 2.9898255075	 0.602127548	 1.0823515297	-0.169684
C	 4.4249442184	 1.174934014	 0.9946909296	-0.236229
C	 3.7894286742	 2.3786947453	 0.2597834281	-0.162582
H	-0.7355283151	 1.7293940263	-0.7916217522	 0.134296
H	-0.2193785563	 3.2909373353	 1.1203670671	 0.127215
H	 0.5851690607	 1.9194654204	 2.0168703141	 0.140959
H	 1.3464964956	 2.9776197252	-0.8149851761	 0.111074
H	 2.5256423897	 0.8225930659	 2.0557825552	 0.091894
H	 2.8306850433	-0.4517928832	 0.8474987913	 0.136144
H	 4.9353165532	 1.3803302871	 1.9353812264	 0.108089
H	 5.0732479782	 0.5829248042	 0.3469352401	 0.119747
H	 4.2804969494	 2.7576474563	-0.642802214	 0.105643
H	 3.5930950948	 3.2220487137	 0.9410154855	 0.089185
40.2635	104.2518	141.6914	203.8375	234.9939	260.1467	391.7014	451.707	559.9387	583.2808	686.1042	743.6113	750.6296	823.464	851.1422	897.6871	931.6041	943.0643	954.5641	998.5105	1020.4943	1057.7527	1106.9092	1120.4629	1132.0831	1140.1526	1160.0107	1183.5531	1217.1415	1223.6267	1267.7393	1282.6631	1308.5138	1348.8527	1367.6705	1419.2765	1479.6493	1489.2288	1504.9177	1531.3716	2349.2013	2972.8	2987.3198	3059.6967	3089.6	3107.4421	3140.585	3144.9769	3147.4617	3166.4317	3237.5583
N#CC1CC1N1CCC1	N#C[C@H]1C[C@H]1N1CCC1	
InChI=1S/C7H10N2/c8-5-6-4-7(6)9-2-1-3-9/h6-7H,1-4H2	InChI=1S/C7H10N2/c8-5-6-4-7(6)9-2-1-3-9/h6-7H,1-4H2/t6-,7-/m1/s1
