21
gdb 119509	3.84168	0.92939	0.86238	1.1272	81.99	-0.2059	0.078	0.2839	1413.26	0.182153	-387.011592	-387.002816	-387.001871	-387.045322	34.067	
O	-0.1243526568	 1.4779246687	-0.0199270574	-0.420478
C	-0.0144994266	 0.0693681796	-0.1635345326	-0.06628
C	-1.377806676	-0.5419215243	 0.1529077803	-0.299875
C	-1.368958517	-2.0424502406	 0.0887780339	 0.371795
C	-1.5604938354	-2.8270571082	-1.1848501899	-0.355881
C	-2.5271596513	-3.0171556688	-0.0431628844	-0.131229
C	-1.9646449145	-3.860919349	 1.1341122124	-0.047608
C	-0.5583653844	-4.3546731901	 0.928954611	-0.30313
C	-0.7916888012	-2.9048991135	 1.2591436937	-0.109412
H	 0.732376712	 1.8676779869	-0.2160967338	 0.284254
H	 0.2842624517	-0.2086926234	-1.1866042887	 0.087307
H	 0.7449316069	-0.3436277275	 0.5202255638	 0.087015
H	-1.6820698972	-0.204994415	 1.1524435247	 0.104281
H	-2.1146751347	-0.1390688535	-0.5519511997	 0.102484
H	-1.9643013337	-2.2369908764	-2.0033333225	 0.108892
H	-0.8819041276	-3.6043175729	-1.5184348812	 0.108396
H	-3.5810223677	-2.7891362333	-0.1456743665	 0.08676
H	-2.5979798868	-4.2483774885	 1.9216674318	 0.08741
H	-0.1718413691	-4.9362299001	 1.7613242071	 0.110007
H	-0.183835102	-4.6888732772	-0.0320865586	 0.11032
H	-0.3926586986	-2.4495068629	 2.1573413465	 0.084971
74.7552	102.122	113.4491	260.9108	266.4557	307.4888	336.6955	403.6061	438.2756	513.9943	672.4568	700.2841	761.1985	793.6502	807.9652	859.2979	883.5087	909.1046	938.6506	962.2907	976.9397	997.5169	1016.7284	1037.2501	1043.6607	1057.7619	1066.6421	1081.7137	1096.2306	1123.4237	1180.3851	1194.5949	1236.5786	1244.7597	1263.6727	1293.7925	1311.8095	1330.6643	1340.3204	1404.496	1459.0647	1480.6763	1485.6303	1515.2894	1526.9513	2965.2122	2992.414	3022.879	3068.2486	3117.0867	3130.2823	3178.8117	3181.6131	3193.477	3196.7772	3205.8836	3830.3172
OCCC12CC1C1CC21	OCC[C@]12C[C@H]1[C@H]1C[C@@H]21	
InChI=1S/C8H12O/c9-2-1-8-4-7(8)5-3-6(5)8/h5-7,9H,1-4H2	InChI=1S/C8H12O/c9-2-1-8-4-7(8)5-3-6(5)8/h5-7,9H,1-4H2/t5-,6+,7-,8+/m0/s1
