19
gdb 91557	2.99827	1.29319	1.07545	0.7722	75.5	-0.2405	0.0511	0.2916	1166.549	0.160186	-419.121829	-419.113475	-419.112531	-419.15534	31.841	
O	 0.0821781249	 1.4590404012	 0.1435481259	-0.42542
C	-0.0436990708	 0.0601467832	 0.0257850975	 0.029599
C	 0.2249343685	-0.7142408126	 1.3310100003	-0.177039
N	-1.1169901667	-1.3969636354	 1.2731469773	-0.166933
C	-2.0975664256	-0.2979296335	 1.3342679021	-0.303511
C	-1.4508398636	-0.5626106954	 0.0309432047	 0.332961
C	-2.1137515042	-1.0898301341	-1.187387636	-0.125177
C	-3.5446310424	-1.4732917506	-1.2303532223	-0.24007
N	-3.0986175334	-0.2492916802	-1.9158195707	-0.325845
H	-0.0972076115	 1.8549616808	-0.7159240445	 0.286424
H	 0.5522836024	-0.3246517238	-0.8124414812	 0.078386
H	 1.0319575276	-1.4455457474	 1.2643983685	 0.113999
H	 0.3655268313	-0.090249729	 2.218670576	 0.115691
H	-3.1137310879	-0.648149704	 1.4817806103	 0.122387
H	-1.843384104	 0.6094929759	 1.8777881249	 0.125298
H	-1.4408019565	-1.6148984605	-1.8635868057	 0.089996
H	-3.8542288661	-2.2787021489	-1.8899782675	 0.123885
H	-4.1394754557	-1.3804536331	-0.3271673363	 0.115724
H	-3.3301897362	 0.5529947975	-1.3322171833	 0.229646
42.6336	119.3801	193.4043	218.9042	286.5363	318.8812	352.1108	449.5563	492.181	558.607	686.364	724.6809	787.2118	829.0396	849.6572	885.3504	898.718	962.7266	974.2626	982.8476	1012.595	1047.6441	1102.7227	1110.6415	1124.9171	1134.6868	1151.7349	1184.8523	1202.1111	1209.0684	1234.9538	1270.9723	1293.8591	1299.9768	1310.0184	1389.0109	1427.2294	1446.3134	1486.7675	1504.0417	1518.8573	3012.8377	3059.7238	3110.0704	3114.8713	3120.6848	3125.1727	3200.9091	3206.5313	3478.5298	3808.2983
OC1CN2CC12C1CN1	O[C@H]1CN2C[C@@]12[C@H]1CN1	
InChI=1S/C6H10N2O/c9-5-2-8-3-6(5,8)4-1-7-4/h4-5,7,9H,1-3H2	InChI=1S/C6H10N2O/c9-5-2-8-3-6(5,8)4-1-7-4/h4-5,7,9H,1-3H2/t4-,5+,6-,8?/m1/s1
