17
gdb 61978	4.37539	0.84783	0.8108	2.2038	71.51	-0.2708	0.0012	0.272	1440.7698	0.132365	-458.959747	-458.949675	-458.948731	-458.995792	35.285	
C	 0.0168453157	 1.291645461	-0.1058394764	-0.477413
C	 0.2308477124	-0.1941354969	-0.2312864222	 0.44723
O	 1.1730602734	-0.8049958176	 0.2151645015	-0.372363
O	-0.7833214946	-0.764906405	-0.9177758465	-0.233075
C	-0.7206590731	-2.1862639799	-1.0947642148	-0.1166
C	 0.055817972	-2.5573854564	-2.3719525255	-0.059694
O	 1.3382342241	-1.9621000759	-2.4175339871	-0.412274
C	 0.1005162017	-4.0221473487	-2.4802157428	 0.318767
C	 0.135488238	-5.2223565465	-2.5319869256	-0.454742
H	 0.0775638682	 1.7500028381	-1.0976226542	 0.160766
H	-0.9794745264	 1.5018922982	 0.290821605	 0.151659
H	 0.782827054	 1.7163509383	 0.5413956574	 0.151816
H	-0.249218189	-2.6452459724	-0.2225280377	 0.140208
H	-1.7546598651	-2.5269253757	-1.1747442672	 0.131779
H	-0.4843321237	-2.1519250577	-3.2367849982	 0.122027
H	 1.7127147873	-1.992370739	-1.5266922406	 0.299096
H	 0.1751587651	-6.2818450241	-2.5975974651	 0.202816
47.0288	61.7036	80.8425	133.6309	160.5617	238.0915	275.1476	338.3398	361.851	402.4972	515.5854	525.2419	569.2955	610.4049	643.1238	660.2507	677.2663	850.3415	885.1547	981.8068	991.3232	1058.2441	1064.8917	1087.8363	1116.4883	1252.5987	1271.6781	1310.0648	1352.2541	1391.5541	1414.2913	1440.5471	1467.6793	1474.9728	1479.486	1805.6083	2232.9832	3035.807	3059.1893	3076.018	3125.6911	3137.5655	3172.6809	3502.5884	3761.3059
CC(=O)OCC(O)C#C	CC(=O)OC[C@@H](O)C#C	
InChI=1S/C6H8O3/c1-3-6(8)4-9-5(2)7/h1,6,8H,4H2,2H3	InChI=1S/C6H8O3/c1-3-6(8)4-9-5(2)7/h1,6,8H,4H2,2H3/t6-/m0/s1
