15
gdb 42511	3.62594	1.1324	0.96629	3.2397	74.16	-0.2443	-0.0477	0.1966	1196.7368	0.109866	-420.567499	-420.559155	-420.558211	-420.600898	30.688	
O	 0.2699482012	 0.2956442211	-1.0228937933	-0.281566
C	 0.2432247857	 1.3622303753	-0.4951637045	 0.336497
C	-0.8962814388	 2.3876081341	-0.1386574365	-0.30945
C	 0.2310813588	 3.4492093665	 0.1310881127	-0.349805
C	 1.2815147647	 2.3333496997	 0.0474945365	 0.335978
C	 2.4042958683	 2.0087876819	 0.9451001279	-0.246951
O	 2.6130839954	 2.4544681043	-0.3929668142	-0.250146
C	-1.8895823297	 2.6649563801	-1.1480053796	 0.317687
C	-2.6947785895	 2.8906750819	-2.0114741107	-0.428684
H	-1.3680801604	 2.0671902973	 0.7983055933	 0.13595
H	 0.3238947009	 4.1582194623	-0.6934931536	 0.142792
H	 0.1600500725	 3.988208267	 1.0759426256	 0.124508
H	 2.6696093351	 2.7198977014	 1.7260731741	 0.130198
H	 2.6536098035	 0.9664533631	 1.1353533045	 0.140168
H	-3.4112248779	 3.0872205341	-2.7702277122	 0.202825
52.9711	122.4756	184.5654	204.594	246.557	326.9459	385.2053	438.0598	535.4417	556.2732	620.6368	642.1215	695.7118	747.5164	802.3439	855.7295	903.7652	913.52	972.0808	1037.8463	1083.5073	1087.1043	1132.6664	1160.319	1174.4212	1192.4291	1231.1897	1312.6926	1412.3745	1480.0086	1519.2248	1906.6132	2238.8979	3039.0776	3086.9077	3087.718	3148.1278	3183.7462	3504.1672
O=C1C(CC11CO1)C#C	O=C1[C@@H](C[C@]21CO2)C#C	
InChI=1S/C7H6O2/c1-2-5-3-7(4-9-7)6(5)8/h1,5H,3-4H2	InChI=1S/C7H6O2/c1-2-5-3-7(4-9-7)6(5)8/h1,5H,3-4H2/t5-,7-/m1/s1
