23
gdb 104646	2.14128	1.23475	0.93518	2.5444	86.41	-0.2445	-0.0189	0.2256	1391.6204	0.203657	-388.302069	-388.291784	-388.29084	-388.337842	37.803	
C	-0.4453340108	 1.5824261134	 0.0760348869	-0.393566
C	-0.0181944489	 0.1115570027	-0.0184911956	-0.256947
C	 0.7600183341	-0.4387517606	 1.1893958292	 0.238207
C	-0.01170706	-0.4838362304	 2.5574282642	-0.288373
C	 0.5220814938	-1.9272787085	 2.7778343532	 0.060315
C	-0.4437961513	-2.9763324188	 3.3056144341	-0.409403
C	 0.9315348745	-1.9792822516	 1.2786583082	-0.29103
C	 2.069823221	 0.2932037574	 1.3866325159	 0.116437
O	 3.1590005627	-0.2217297592	 1.44455207	-0.257863
H	 0.406625996	 2.2678555056	 0.0523878805	 0.123068
H	-1.0946292884	 1.8437328697	-0.7649679814	 0.119374
H	-1.0042306111	 1.7766890435	 0.9977687342	 0.12209
H	-0.9146102518	-0.5103001159	-0.1320237831	 0.100527
H	 0.5752227943	-0.0450988211	-0.9290516353	 0.107008
H	 0.2393747113	 0.2721702528	 3.3080491409	 0.099825
H	-1.0948638952	-0.4603930418	 2.3949801514	 0.099086
H	 1.4200497088	-1.8996562623	 3.4032931314	 0.085401
H	-1.3514166204	-3.0191018693	 2.6921067893	 0.108334
H	 0.010917804	-3.9731315356	 3.2966618133	 0.118107
H	-0.7479489604	-2.7583154598	 4.3356082415	 0.114266
H	 0.1912949582	-2.5037140246	 0.6660771339	 0.088836
H	 1.9287858746	-2.3571134698	 1.0489158974	 0.119982
H	 1.9647449749	 1.3951839744	 1.5103993202	 0.07632
46.8949	72.3341	94.6089	185.7168	223.6967	236.8609	256.3666	285.757	325.6053	341.2124	413.1742	420.6442	572.685	607.0248	748.6149	781.8125	834.6597	868.447	899.4269	903.402	925.9165	953.7732	1003.1383	1023.4057	1061.2057	1080.2324	1091.4346	1131.6651	1164.8589	1188.8213	1217.9311	1238.138	1266.0431	1281.644	1295.134	1331.541	1365.9308	1381.8858	1410.88	1412.2818	1428.5562	1467.8676	1483.6446	1492.9098	1496.0009	1497.6299	1501.3295	1509.2814	1815.6982	2871.3384	3017.7785	3021.6709	3035.3997	3038.8158	3049.3008	3051.8562	3057.3668	3085.6244	3091.4253	3094.1475	3103.9109	3111.2679	3127.5739
CCC1(CC(C)C1)C=O	CC[C@]1(C[C@@H](C)C1)C=O	
InChI=1S/C8H14O/c1-3-8(6-9)4-7(2)5-8/h6-7H,3-5H2,1-2H3	InChI=1S/C8H14O/c1-3-8(6-9)4-7(2)5-8/h6-7H,3-5H2,1-2H3/t7-,8-
