16
gdb 20543	4.47107	1.4374	1.42756	2.0007	65.66	-0.2841	-0.0206	0.2635	951.6344	0.130912	-379.936687	-379.928986	-379.928042	-379.969576	27.424	
C	-0.0097955241	 1.5442548635	 0.0353637764	-0.394793
C	 0.03842765	 0.0049204577	 0.0065124538	-0.088147
C	 0.7451022183	-0.517071328	-1.2586447171	-0.394788
C	 0.6897364102	-0.53154213	 1.2416754165	 0.442966
N	 0.1769341516	-1.2944937761	 2.1641668442	-0.322295
C	 1.2357537555	-1.4494971431	 3.0246087305	 0.034801
N	 2.3322656029	-0.8338972975	 2.6812780144	-0.115412
O	 1.9717291564	-0.2126929297	 1.4769412281	-0.206525
H	 0.9995295932	 1.9658545195	 0.043257262	 0.137667
H	-0.5293937427	 1.9168066693	-0.8521336886	 0.122603
H	-0.539506327	 1.9091957615	 0.9198462316	 0.130568
H	-0.9836622923	-0.3843834552	 0.0305846113	 0.116335
H	 1.7811175421	-0.1683794993	-1.2986752323	 0.137684
H	 0.7511194666	-1.6103048396	-1.2886366715	 0.130513
H	 0.2270042943	-0.1536470876	-2.1507882274	 0.122618
H	 1.1849406349	-2.0347140855	 3.9313862981	 0.146205
31.0907	143.1753	197.6285	226.6171	263.6418	318.7945	389.439	489.1484	648.2172	658.3891	787.7072	886.6252	914.5291	931.8511	937.6812	970.5864	979.8126	1018.3084	1068.7601	1119.2834	1174.9272	1196.9147	1259.3723	1317.4134	1339.0244	1350.8896	1398.3859	1420.7096	1488.7894	1490.1909	1500.4961	1504.5812	1525.3797	1618.9722	3041.4289	3044.283	3071.7508	3115.8787	3118.7719	3118.8307	3124.8948	3260.4336
CC(C)C1=NC=NO1	CC(C)c1ncno1	
InChI=1S/C5H8N2O/c1-4(2)5-6-3-7-8-5/h3-4H,1-2H3	InChI=1S/C5H8N2O/c1-4(2)5-6-3-7-8-5/h3-4H,1-2H3
