18
gdb 96857	2.44236	1.3833	0.98795	2.6428	76.56	-0.2532	0.0075	0.2607	1240.9189	0.145439	-439.057386	-439.048143	-439.047199	-439.091796	32.904	
C	 0.2337970648	 1.4424582765	-0.1604434632	-0.340996
N	 0.3468734762	-0.008751327	-0.1643953337	-0.34074
C	 0.5110866261	-0.6172071183	 0.9128424608	 0.417219
O	 0.6017895272	-0.162126737	 2.2257678514	-0.303279
C	 0.8461540763	-1.5156332999	 2.7509620808	 0.074375
C	-0.1542442386	-1.9093522852	 3.8134361757	-0.409539
C	 0.6801456939	-2.0497533276	 1.3234477219	 0.250702
C	 0.0879608272	-3.2752209601	 0.7867677374	-0.253999
O	 1.4938577771	-3.0063589461	 0.691779802	-0.254509
H	 0.9771847884	 1.8581197582	-0.8489369273	 0.131694
H	-0.7517150596	 1.7250796387	-0.5472233757	 0.12993
H	 0.368531575	 1.8999582233	 0.8264698614	 0.127894
H	 1.8783308149	-1.5872796108	 3.1087335574	 0.109423
H	-1.1763003613	-1.8481575475	 3.4290233667	 0.129238
H	 0.0356396972	-2.9351150403	 4.1464632562	 0.129479
H	-0.0691003582	-1.2504311612	 4.6823541643	 0.138029
H	-0.1888593222	-4.0804376618	 1.4654439897	 0.123792
H	-0.4591590544	-3.2281631637	-0.1524517157	 0.141285
79.1204	95.2872	141.2672	165.8115	198.1027	215.8926	268.9118	306.4201	372.9391	487.6759	541.1217	624.0653	710.7087	740.9272	840.1113	867.7292	917.2645	956.3845	1008.4284	1037.4259	1087.3126	1103.3904	1121.614	1131.8215	1141.5823	1161.5307	1166.2127	1227.0384	1285.3137	1378.2609	1409.7619	1437.512	1448.1342	1486.0748	1492.697	1493.2559	1496.754	1534.0508	1853.2612	3018.2453	3040.7079	3063.3507	3084.0642	3090.0952	3090.5273	3112.8885	3123.3961	3185.8476
CN=C1OC(C)C11CO1	CN=C1O[C@@H](C)[C@]21CO2	
InChI=1S/C6H9NO2/c1-4-6(3-8-6)5(7-2)9-4/h4H,3H2,1-2H3	InChI=1S/C6H9NO2/c1-4-6(3-8-6)5(7-2)9-4/h4H,3H2,1-2H3/t4-,6-/m0/s1
