17
gdb 10037	3.43164	1.25135	0.98638	3.8927	74.12	-0.274	0.0312	0.3052	1191.834	0.140103	-326.715506	-326.706286	-326.705342	-326.749687	32.536	
C	 0.0579471981	 1.5613980152	 0.0217303618	-0.403371
C	-0.0109746906	 0.0337266128	-0.0130127102	-0.180188
C	-1.4516856622	-0.5247580822	 0.021748578	-0.132774
C	-1.4637159957	-2.0730869239	-0.1132608389	-0.36913
C	-2.8015763283	-2.6351766209	-0.2296925192	 0.292173
C	-3.9144867424	-3.0747373661	-0.3344716752	-0.4166
C	-2.1416576695	-0.1068966933	 1.2468434742	 0.293819
N	-2.6556400519	 0.2323551538	 2.2248570166	-0.329437
H	 1.097135091	 1.9002106116	-0.0137875275	 0.123232
H	-0.4664579434	 2.001376586	-0.8333676025	 0.121014
H	-0.3955065449	 1.9580226401	 0.9347430865	 0.148325
H	 0.4625865479	-0.3419114953	-0.9275736595	 0.107346
H	 0.5502050603	-0.3881039296	 0.8289587384	 0.11856
H	-2.0132253814	-0.1085369162	-0.8237599891	 0.136347
H	-0.8730784743	-2.3329870496	-0.9999598077	 0.138518
H	-0.94450327	-2.5100655901	 0.7480315753	 0.148531
H	-4.8965368226	-3.4707264925	-0.4153334711	 0.203636
63.3691	92.7151	123.9257	162.8476	217.285	257.816	281.0266	342.8573	376.471	468.7922	550.2907	611.7785	631.0217	657.7732	756.538	825.2086	908.3481	952.6842	987.6085	1030.654	1066.2749	1118.8339	1132.175	1217.9653	1270.4689	1295.2213	1347.5257	1368.1963	1376.1592	1418.5821	1469.5021	1487.5505	1499.2644	1506.8416	2245.1186	2356.9457	3029.8339	3032.2863	3039.4809	3041.9288	3067.646	3076.1114	3109.3515	3120.1989	3505.5332
CCC(CC#C)C#N	CC[C@@H](CC#C)C#N	
InChI=1S/C7H9N/c1-3-5-7(4-2)6-8/h1,7H,4-5H2,2H3	InChI=1S/C7H9N/c1-3-5-7(4-2)6-8/h1,7H,4-5H2,2H3/t7-/m0/s1
