15
gdb 16291	3.27492	1.83305	1.44466	4.0474	66.76	-0.2592	-0.005	0.2542	880.9568	0.120373	-358.800562	-358.793326	-358.792382	-358.83193	27.292	
N	 0.2146051761	 1.4948903609	 0.0085419663	-0.510733
C	-0.0054873072	 0.0730975991	 0.0309716076	-0.04265
C	 0.1553227043	-0.6763583982	 1.3791796752	-0.16862
N	-1.1647988906	-1.3914089484	 1.22869944	-0.145056
C	-2.1787344046	-0.3371171539	 1.2249689062	-0.27453
C	-1.4230548756	-0.5597424409	-0.0336589223	 0.182117
C	-2.022381692	-1.0887573775	-1.2195657827	 0.198633
N	-2.476370433	-1.4717047663	-2.2131830215	-0.336707
H	 0.1173364052	 1.8692467865	-0.9297022051	 0.242079
H	-0.444488592	 1.9875968176	 0.6026221165	 0.230399
H	 0.6237985197	-0.3833974751	-0.7360803172	 0.114803
H	 0.9789567637	-1.3901874778	 1.4007176668	 0.129712
H	 0.2003958588	-0.0431739395	 2.2709897662	 0.115765
H	-3.1960289509	-0.7129028063	 1.258265315	 0.149077
H	-2.0074586421	 0.57261326	 1.798950149	 0.11571
122.2119	162.7157	201.9967	263.9793	352.7117	435.1667	482.2143	523.3297	566.7506	644.2157	702.3061	776.8359	824.6445	866.7659	885.6929	968.518	990.7345	1017.8961	1102.4858	1131.6885	1155.0329	1192.9686	1203.9036	1237.715	1268.3999	1295.752	1351.0874	1434.324	1489.7154	1508.9789	1663.2157	2342.3607	3058.7683	3091.8596	3097.4042	3135.0223	3204.7256	3499.9403	3583.5673
NC1CN2CC12C#N	N[C@H]1CN2C[C@@]12C#N	
InChI=1S/C5H7N3/c6-2-5-3-8(5)1-4(5)7/h4H,1,3,7H2	InChI=1S/C5H7N3/c6-2-5-3-8(5)1-4(5)7/h4H,1,3,7H2/t4-,5-,8?/m0/s1
