22
gdb 71601	2.04221	1.94709	1.64893	1.8057	85.5	-0.2188	0.0831	0.3019	1018.7889	0.195237	-367.170823	-367.162501	-367.161557	-367.203005	33.562	
C	 0.0359480638	 1.5606410424	-0.057438517	-0.527606
C	 0.0261534847	 0.0509731103	-0.0340447008	 0.267405
C	 0.6250771095	-0.9487844224	-1.0353441204	-0.227253
N	 0.0158396698	-1.8986233032	-0.0016750288	-0.196666
C	 0.5729645014	-0.9172409045	 1.0553688616	 0.000063
C	-0.3502310783	-0.9798582339	 2.2600686447	-0.252472
C	-1.7016851808	-0.9812102487	 1.508663005	-0.277089
C	-1.2005983225	-0.9244604911	 0.0622956632	 0.340271
C	-2.2638756087	-1.040374057	-1.0051938152	-0.502428
H	 1.0602507608	 1.9487875065	-0.0862670433	 0.120057
H	-0.4910659615	 1.9458989853	-0.9375666896	 0.120029
H	-0.4525142104	 1.9754886987	 0.8317498666	 0.117886
H	 0.1930883678	-1.0304161819	-2.0352504432	 0.093055
H	 1.7161364064	-1.0181558201	-1.0908710815	 0.091055
H	 1.6512137428	-0.9940166517	 1.2135186807	 0.063553
H	-0.1874280502	-1.8886075358	 2.8459009934	 0.108144
H	-0.2203882535	-0.1207626363	 2.9252686618	 0.097338
H	-2.2878220981	-1.8877984683	 1.6869675414	 0.104685
H	-2.3357077633	-0.1217556318	 1.7491617647	 0.095157
H	-3.0138141286	-0.2521581629	-0.8748004884	 0.117686
H	-1.8722548447	-0.9603681362	-2.0220288242	 0.118517
H	-2.7776213162	-2.0039974275	-0.9191464709	 0.128611
170.1296	173.9359	189.7519	200.0169	217.312	353.4708	384.215	423.1546	484.7233	612.8893	624.7861	686.2482	693.9645	736.9476	813.5138	824.0275	899.4997	907.4071	927.8908	941.2842	972.464	991.3873	1010.5304	1045.4226	1072.9789	1120.1847	1125.3583	1153.256	1179.2522	1193.214	1214.4802	1233.9993	1255.0336	1258.1066	1296.9131	1312.1086	1331.136	1377.1667	1404.9945	1415.5255	1473.7858	1485.7255	1488.451	1491.9598	1493.9775	1498.9407	1546.7728	3022.5285	3034.6072	3046.2608	3049.8529	3056.8736	3083.7123	3089.2002	3091.0709	3092.5935	3094.9917	3104.4869	3105.667	3118.8346
CC12CN3C1CCC23C	C[C@@]12CN3[C@@H]1CC[C@@]23C	
InChI=1S/C8H13N/c1-7-5-9-6(7)3-4-8(7,9)2/h6H,3-5H2,1-2H3	InChI=1S/C8H13N/c1-7-5-9-6(7)3-4-8(7,9)2/h6H,3-5H2,1-2H3/t6-,7-,8+/m1/s1
