16
gdb 80205	2.23163	1.61449	1.22888	2.4556	78.47	-0.2374	-0.0284	0.2091	1069.3243	0.121708	-400.679452	-400.6709	-400.669956	-400.712546	32.017	
C	-0.1273421257	 1.4887453706	 0.0134650757	-0.329603
N	 0.1303902087	 0.051822151	 0.065930801	-0.116438
C	 1.4074332915	-0.5447161006	-0.1760539721	-0.099019
C	 2.5765742963	 0.3199417615	 0.3170587381	-0.378391
C	 1.9318707517	 0.2551114932	 1.7261071175	 0.349064
O	 2.2994973746	 0.5850878497	 2.8128290751	-0.285542
C	 0.7550014178	-0.5914642085	 1.2274970307	 0.045201
C	 0.0760090051	-1.6101392682	 1.9520590902	 0.207378
C	-0.4681490172	-2.4623367497	 2.6027362441	-0.385916
H	 0.6761100123	 2.1302612513	 0.3976526497	 0.12144
H	-0.3205737865	 1.7605822593	-1.0285224341	 0.134391
H	-1.0322543334	 1.6906414484	 0.5920992283	 0.144843
H	 1.4745710301	-1.3773919977	-0.8667593206	 0.12498
H	 3.5365365028	-0.2046454148	 0.3326193459	 0.142307
H	 2.7114711662	 1.2983474917	-0.1496425687	 0.130577
H	-0.9566122445	-3.2147007572	 3.1710128393	 0.194728
102.9541	130.174	148.2183	153.7061	287.2681	336.8048	374.7945	445.9821	508.2149	533.5808	597.291	611.4677	648.7974	652.7784	694.3594	742.0491	847.9414	926.8627	949.079	989.3851	1005.2825	1043.9937	1119.1347	1160.4929	1173.193	1208.7698	1230.0518	1275.5249	1386.3752	1447.4902	1463.9773	1494.0574	1501.0827	1889.5274	2239.9662	3015.2017	3067.3463	3089.3026	3119.4076	3122.6009	3187.1075	3502.0368
CN1C2CC(=O)C12C#C	CN1[C@H]2CC(=O)[C@@]12C#C	
InChI=1S/C7H7NO/c1-3-7-5(8(7)2)4-6(7)9/h1,5H,4H2,2H3	InChI=1S/C7H7NO/c1-3-7-5(8(7)2)4-6(7)9/h1,5H,4H2,2H3/t5-,7-,8?/m0/s1
