18
gdb 104971	1.84493	1.51338	1.30861	2.3863	72.76	-0.2412	-0.0859	0.1554	1125.905	0.144606	-439.071299	-439.061472	-439.060528	-439.107057	34.166	
C	-0.0191066372	 1.4534461425	 0.291760393	-0.380949
C	 0.2737979458	-0.0445129191	 0.1417282077	-0.274331
C	 0.7472895412	-0.4471622537	-1.2476158357	 0.234482
C	 0.3969429954	-1.796440994	-1.7753791874	-0.277545
N	-0.1900067595	-0.5847797446	-2.3652135096	-0.338477
C	 2.084939827	 0.117494676	-1.6638871771	 0.252837
O	 3.1398270104	-0.244880686	-1.1967693582	-0.289319
C	 2.1255974139	 1.2767460465	-2.6716372368	 0.094962
O	 1.2688779966	 2.1162892418	-2.7423964724	-0.216112
H	 0.8814650401	 2.0566223871	 0.1452079721	 0.130188
H	-0.7573095236	 1.7920246993	-0.4408247072	 0.131172
H	-0.4052599935	 1.6670544252	 1.2926325103	 0.116725
H	 1.0362284066	-0.3529946663	 0.8667393709	 0.125656
H	-0.6284377135	-0.6257582515	 0.3707034426	 0.096998
H	 1.0880220467	-2.3347385798	-2.4178017094	 0.130116
H	-0.2166046699	-2.4306355714	-1.1402824435	 0.119925
H	-1.1485741212	-0.4460798274	-2.0552252693	 0.237191
H	 3.0816526346	 1.3300039853	-3.2350787597	 0.10648
37.9306	67.8341	106.3186	161.1736	170.0927	205.8275	261.8776	280.8383	342.6568	421.7105	488.8219	567.8289	617.1871	714.2499	773.3564	848.6431	887.9739	919.3718	973.8674	991.6437	1000.969	1038.4827	1095.9799	1111.2318	1137.7357	1166.4552	1244.645	1279.3349	1314.2162	1358.2526	1374.8318	1401.7287	1421.9713	1474.6197	1495.3464	1499.256	1516.0896	1794.8973	1822.1268	2913.0183	3024.0011	3045.4588	3065.8068	3107.5705	3115.8681	3119.6469	3193.4546	3502.5006
CCC1(CN1)C(=O)C=O	CC[C@]1(CN1)C(=O)C=O	
InChI=1S/C6H9NO2/c1-2-6(4-7-6)5(9)3-8/h3,7H,2,4H2,1H3	InChI=1S/C6H9NO2/c1-2-6(4-7-6)5(9)3-8/h3,7H,2,4H2,1H3/t6-/m0/s1
