15
gdb 43771	5.04626	1.04112	0.99885	3.1438	66.61	-0.2496	-0.0347	0.2149	1168.6317	0.110714	-457.705569	-457.697925	-457.696981	-457.738361	28.282	
O	 0.5335869467	 0.0922650707	-0.1198836072	-0.2897
C	 0.1815294708	 1.2266291951	-0.0109353809	 0.430001
C	-1.1855689105	 1.9561606968	-0.2157913019	-0.4334
C	-0.3866770257	 3.2673030226	-0.0949483119	 0.430296
O	 0.1909113402	 3.2507085901	 1.2014646997	-0.272075
C	 0.905279818	 2.560978909	 0.1496091853	-0.173171
C	-0.6207005414	 4.5662584919	-0.773932606	-0.075193
C	-0.764367134	 5.8136992568	-0.0070495403	-0.170556
O	 0.4432079542	 5.5092448311	-0.7076908374	-0.223878
H	-1.5818173696	 1.7409293924	-1.2129561958	 0.13758
H	-1.9595980104	 1.8066735785	 0.5388672779	 0.139273
H	 1.9292213292	 2.8595060649	-0.0378027399	 0.137076
H	-1.1078190716	 4.484981278	-1.7460258426	 0.10401
H	-1.3518204847	 6.6325347121	-0.4186054829	 0.122794
H	-0.6906086813	 5.7694051899	 1.0768978739	 0.136943
65.6546	100.0443	170.393	239.7444	351.469	423.2166	447.8307	518.963	580.8635	663.1363	684.832	782.1001	854.317	865.0445	894.0032	957.623	977.5127	993.1776	1044.4544	1053.0335	1097.1144	1101.3938	1159.3563	1166.2753	1177.1799	1204.4259	1211.4972	1281.1099	1387.0557	1439.1044	1471.5261	1519.4087	1904.9035	3067.1874	3095.2108	3111.6863	3133.3196	3193.4329	3209.0762
O=C1CC2(OC12)C1CO1	O=C1C[C@]2(O[C@@H]12)[C@H]1CO1	
InChI=1S/C6H6O3/c7-3-1-6(4-2-8-4)5(3)9-6/h4-5H,1-2H2	InChI=1S/C6H6O3/c7-3-1-6(4-2-8-4)5(3)9-6/h4-5H,1-2H2/t4-,5+,6+/m1/s1
