17
gdb 24257	3.89486	1.55701	1.21083	2.3467	79.25	-0.189	0.0413	0.2303	1005.5234	0.140518	-380.879167	-380.872605	-380.871661	-380.909839	27.309	
C	-0.0492089914	 1.5422114918	-0.0134420081	-0.359065
C	 1.4515471285	 1.8884281596	-0.0236030677	-0.012752
N	 2.2074621488	 1.441335728	 1.1663768492	-0.328751
C	 2.26979406	 0.6363320209	-0.0923788155	-0.234478
C	 1.2601447165	-0.4388557882	-0.1050097799	 0.357342
C	-0.0285389157	 0.031528996	-0.0256487948	 0.283558
C	-0.8894088956	-1.0923861969	 0.0766703853	-0.320741
C	-0.0798629248	-2.2116819008	 0.0434341941	-0.075978
N	 1.2346025944	-1.8043988252	-0.0585522564	-0.38181
H	-0.5374514162	 1.9587043285	 0.874982184	 0.117686
H	-0.5492470871	 1.9729420093	-0.8905149553	 0.100869
H	 1.7780520684	 2.7944502582	-0.5238216562	 0.084249
H	 3.0535497519	 2.006689939	 1.2326044674	 0.222515
H	 3.2060163291	 0.5813368599	-0.6383141311	 0.085648
H	-1.9664330979	-1.1049931809	 0.1496350943	 0.09007
H	-0.3299994576	-3.2606632573	 0.0578587746	 0.11343
H	 2.0292121587	-2.4187984918	-0.0736989039	 0.258209
146.4419	232.443	345.1122	417.1426	437.3746	469.8362	597.5768	629.1436	687.0166	698.2514	724.4422	778.5472	805.5129	818.0226	844.8074	884.871	929.9407	936.0975	993.7512	1043.4489	1076.6065	1088.3559	1129.2848	1146.3267	1178.9562	1188.1435	1220.5059	1249.8619	1303.3055	1315.4737	1365.5962	1411.6067	1442.7824	1476.2324	1478.4057	1533.7877	1599.8188	3020.7572	3061.7749	3155.8686	3165.1862	3240.5495	3264.782	3462.1115	3684.6156
C1C2NC2C2=C1C=CN2	C1[C@H]2N[C@H]2c2c1cc[nH]2	
InChI=1S/C7H8N2/c1-2-8-6-4(1)3-5-7(6)9-5/h1-2,5,7-9H,3H2	InChI=1S/C7H8N2/c1-2-8-6-4(1)3-5-7(6)9-5/h1-2,5,7-9H,3H2/t5-,7-/m1/s1
