19
gdb 63441	4.815	0.73433	0.71266	4.9622	74.32	-0.2696	0.0101	0.2797	1598.2682	0.156461	-460.177824	-460.168303	-460.167359	-460.212889	34.829	
C	-0.2970009891	 1.4610132408	-0.0079135969	-0.451612
C	-0.0121390151	-0.0372657899	-0.0217079688	 0.417769
O	-1.174228801	-0.7781950079	-0.3304356174	-0.47049
C	 1.2871536711	-0.4262718698	-0.8042942858	-0.316873
C	 2.0229173417	-0.5024389473	 0.5495836061	 0.147171
C	 0.6610343758	-0.5690536385	 1.2711990817	-0.294128
O	 2.8647298001	-1.637935203	 0.7280588059	-0.184597
C	 4.1410744539	-1.4451244296	 1.1081555886	 0.162085
O	 4.9113294168	-2.3421762607	 1.2734465872	-0.275916
H	 0.5867167708	 2.0387889662	 0.2822024589	 0.118781
H	-0.6004291847	 1.8069638035	-1.004050332	 0.111488
H	-1.1035627152	 1.6866916222	 0.6962728889	 0.130505
H	-1.5720912255	-0.4030495751	-1.1238630443	 0.276327
H	 1.1797371646	-1.4264535164	-1.229588438	 0.128345
H	 1.6718077098	 0.2633199087	-1.5599218582	 0.098892
H	 2.5851009935	 0.4091078445	 0.781183472	 0.086592
H	 0.5338237113	 0.0023638621	 2.1931523041	 0.104725
H	 0.3721443856	-1.6091575546	 1.4358813292	 0.135788
H	 4.3894121455	-0.3740008551	 1.2479670285	 0.075148
41.685	68.2871	148.3227	245.0083	252.3179	271.5657	290.121	310.4725	337.8352	424.3133	447.7328	479.7442	559.4769	676.554	793.7431	823.07	886.6877	911.2524	963.1764	980.4508	1012.5166	1044.3986	1053.0851	1061.938	1128.906	1163.8165	1190.1158	1214.8138	1219.9132	1269.3097	1283.3909	1291.5812	1379.9881	1389.5792	1410.395	1444.6387	1459.9918	1485.7725	1488.5203	1499.586	1866.6604	2938.0549	3022.0169	3040.4102	3064.4313	3073.4339	3088.0463	3111.0071	3132.1353	3137.9932	3800.0073
CC1(O)CC(C1)OC=O	C[C@@]1(O)C[C@@H](C1)OC=O	
InChI=1S/C6H10O3/c1-6(8)2-5(3-6)9-4-7/h4-5,8H,2-3H2,1H3	InChI=1S/C6H10O3/c1-6(8)2-5(3-6)9-4-7/h4-5,8H,2-3H2,1H3/t5-,6+
