14
gdb 31426	4.12644	1.17553	0.92021	4.4661	69.27	-0.2437	-0.057	0.1867	1186.2264	0.101197	-473.883085	-473.875327	-473.874382	-473.915802	27.83	
C	-0.0289580118	 1.4294036278	 0.0086475308	-0.236385
O	-0.0377564626	-0.0035384844	 0.0051692628	-0.253024
C	-1.209536505	-0.6361248988	 0.0122968118	 0.473229
C	-1.2229840726	-2.0043085309	 0.0089882434	-0.385758
C	-2.458590583	-2.7147031322	 0.0164693653	 0.439541
O	-2.6957099851	-3.8854465847	 0.0150106615	-0.332463
O	-3.6174215772	-1.827041341	 0.0271018732	-0.205614
C	-3.4576329244	-0.5187722265	 0.0291774792	 0.15011
N	-2.3479274335	 0.1328099797	 0.0226416198	-0.36677
H	 1.0257861276	 1.7048774969	 0.0010503778	 0.14096
H	-0.5309273911	 1.8276450269	-0.876120609	 0.144374
H	-0.5169156076	 1.823212214	 0.903196805	 0.144351
H	-0.3062831648	-2.5764845586	 0.0006887028	 0.13283
H	-4.405159509	 0.0152102617	 0.0374698155	 0.154618
89.577	145.2582	165.324	200.488	236.7245	409.0707	438.4741	458.3448	566.1038	611.3053	692.1014	725.1091	766.4279	847.9951	849.5716	968.0572	987.069	1019.5858	1122.4361	1174.9086	1197.0775	1268.6487	1299.978	1367.5577	1430.672	1484.3575	1494.4026	1495.6655	1593.0596	1669.4309	1889.0483	3053.8989	3131.9652	3158.5714	3173.7967	3238.2709
COC1=CC(=O)OC=N1	COc1cc(=O)ocn1	
InChI=1S/C5H5NO3/c1-8-4-2-5(7)9-3-6-4/h2-3H,1H3	InChI=1S/C5H5NO3/c1-8-4-2-5(7)9-3-6-4/h2-3H,1H3
