21
gdb 121389	4.31814	0.78411	0.698	1.7634	81.39	-0.2443	0.0199	0.2642	1619.7804	0.183033	-424.221611	-424.212364	-424.21142	-424.256277	34.138	
O	-0.1056493217	 1.5038519405	 0.1332159207	-0.419938
C	 0.038254358	 0.0918186863	 0.1082385267	-0.081057
C	-1.3515171091	-0.5108266139	-0.0583213595	-0.183001
C	-1.3639926906	-2.04955181	-0.0998151949	-0.051667
C	-2.7903768578	-2.5805411058	 0.1014800557	-0.099176
O	-2.8639418471	-3.9802395848	-0.0985566609	-0.250359
C	-2.586741526	-4.3544586963	-1.4331356323	-0.11441
C	-1.4005689912	-3.6370151135	-2.0138374815	-0.089394
C	-0.8248655953	-2.6076234456	-1.3971467753	-0.051958
H	 0.7678646972	 1.8941799066	 0.2291264468	 0.285662
H	 0.6965082775	-0.2224429574	-0.7172313316	 0.087628
H	 0.4905136718	-0.280505769	 1.0423769275	 0.086038
H	-1.9684670671	-0.1616540603	 0.7792563163	 0.104768
H	-1.8044609046	-0.1065448522	-0.9714970562	 0.108352
H	-0.746883144	-2.4195985368	 0.7337053563	 0.085452
H	-3.1350327079	-2.3992129574	 1.1239023177	 0.106312
H	-3.4757416654	-2.0550940295	-0.5857654879	 0.08705
H	-2.4098971064	-5.4369340036	-1.4159091354	 0.116076
H	-3.4730906146	-4.1901706293	-2.0750597929	 0.096029
H	-1.0323293383	-4.0007710273	-2.9697784707	 0.090898
H	 0.0453092425	-2.1271392106	-1.8371915789	 0.086696
71.1259	76.1264	108.2342	180.7202	265.9181	287.3677	295.6941	318.1088	373.7233	482.3602	533.1511	557.4605	707.7661	772.1411	797.7317	892.0855	904.7893	962.457	990.3496	998.9058	1023.121	1040.1489	1068.4806	1092.963	1108.2905	1118.6586	1151.914	1219.4208	1221.2565	1235.6049	1251.9551	1297.0161	1308.2648	1316.2958	1351.8805	1362.0125	1378.9625	1410.0129	1428.1031	1463.7247	1485.4128	1490.4358	1500.2196	1526.4931	1721.8149	2926.3913	2959.143	2961.033	2983.9506	2988.2877	3027.7609	3044.8684	3071.4517	3082.1985	3147.6853	3171.1453	3829.4937
OCCC1COCC=C1	OCC[C@H]1COCC=C1	
InChI=1S/C7H12O2/c8-4-3-7-2-1-5-9-6-7/h1-2,7-8H,3-6H2	InChI=1S/C7H12O2/c8-4-3-7-2-1-5-9-6-7/h1-2,7-8H,3-6H2/t7-/m0/s1
