16
gdb 47126	3.17204	1.15875	0.88364	3.9432	77.75	-0.2583	-0.0511	0.2072	1248.4502	0.125147	-400.804066	-400.796058	-400.795114	-400.837203	29.52	
O	 0.0084105201	-0.0655804865	-0.1318255307	-0.296659
C	-0.0158626866	 1.1277403798	 0.0433165049	 0.38272
C	-1.299611918	 1.9361947355	 0.0884531132	-0.309493
C	-1.3534090724	 2.847291535	 1.3292689647	-0.271223
C	-0.0680047854	 3.590563819	 1.5448512473	-0.121471
C	 1.1050044591	 3.1949601732	 1.0291726207	 0.149389
C	 1.2724004281	 1.9330543017	 0.2055682414	-0.401519
C	 2.2907434571	 3.9589082815	 1.2661545197	 0.223226
N	 3.2705793952	 4.5535188947	 1.4338042226	-0.32785
H	-1.3188315836	 2.5681916355	-0.8101456948	 0.132102
H	-2.1501868739	 1.2537162332	 0.04237048	 0.131099
H	-2.180731341	 3.5592562761	 1.2355717348	 0.12912
H	-1.5793892689	 2.2521096474	 2.225943619	 0.141508
H	-0.1001338147	 4.4878795642	 2.155264197	 0.123886
H	 2.0337992489	 1.2779694414	 0.6405215609	 0.158607
H	 1.6385086358	 2.1887231783	-0.7992470607	 0.156558
67.8591	116.7337	153.2948	204.9103	362.3584	387.7199	416.1675	458.2451	537.6629	570.5488	581.8142	633.9564	754.2428	829.7147	850.7169	910.1681	931.3345	962.3826	1050.2769	1066.1427	1132.8663	1142.6362	1204.6157	1219.3608	1246.906	1307.4676	1330.775	1366.7464	1377.3356	1443.098	1465.2415	1477.2838	1700.4246	1828.4191	2336.712	3010.5842	3019.1071	3026.5329	3063.9161	3084.451	3120.732	3181.6926
O=C1CCC=C(C1)C#N	O=C1CCC=C(C1)C#N	
InChI=1S/C7H7NO/c8-5-6-2-1-3-7(9)4-6/h2H,1,3-4H2	InChI=1S/C7H7NO/c8-5-6-2-1-3-7(9)4-6/h2H,1,3-4H2
