16
gdb 16927	3.71449	2.19158	1.99094	3.9362	64.85	-0.2354	0.0283	0.2637	745.4609	0.134757	-379.929013	-379.923072	-379.922127	-379.958867	24.277	
N	-0.0718694647	 1.2792632735	-0.0838648317	-0.565844
C	-0.0388651963	 0.0233996513	-0.011509678	 0.48176
O	 1.0979718569	-0.7574202977	 0.0379536817	-0.265557
C	 0.6368532892	-2.1364218776	 0.0861900721	 0.087301
C	 0.01919277	-2.3408697055	 1.4805746255	-0.17535
N	-1.2076130778	-1.4949369573	 1.4180641541	-0.300584
C	-1.2034558206	-0.9487507473	 0.0337818702	-0.102225
C	-0.6026744131	-2.0906888104	-0.8194205048	-0.242363
H	 0.8754288554	 1.6639570861	-0.0906304023	 0.221764
H	 1.4679453094	-2.7863494912	-0.1799487809	 0.092478
H	-0.207199075	-3.3962194653	 1.6690560229	 0.101647
H	 0.7011014675	-1.9877839538	 2.2601228077	 0.122187
H	-2.0345988128	-2.0690470528	 1.5387139422	 0.225007
H	-2.1572542816	-0.5095423129	-0.2450960185	 0.098196
H	-0.3613179136	-1.8131735041	-1.8479167181	 0.120257
H	-1.199765893	-3.0057164648	-0.800741842	 0.101327
155.6062	260.4008	411.1576	415.8811	474.7711	582.8674	701.9715	735.3171	742.9539	837.8075	857.8381	872.5708	901.3895	916.6251	947.8514	963.0623	971.8845	977.9928	1056.5654	1059.3235	1086.0251	1128.7964	1187.377	1206.8406	1253.6406	1269.7695	1285.245	1303.5122	1360.5542	1366.4046	1435.3041	1485.9033	1506.7271	1802.7442	3038.3744	3069.0964	3084.5083	3129.6245	3147.417	3168.4783	3460.6487	3530.5936
N=C1OC2CNC1C2	[NH][C]1O[C@H]2CN[C@@H]1C2	
InChI=1S/C5H8N2O/c6-5-4-1-3(8-5)2-7-4/h3-4,6-7H,1-2H2	InChI=1S/C5H8N2O/c6-5-4-1-3(8-5)2-7-4/h3-4,6-7H,1-2H2/t3-,4-/m1/s1
