20
gdb 63555	2.57314	1.43496	1.12712	2.597	81.39	-0.2534	0.0256	0.279	1161.9484	0.170022	-403.144247	-403.135178	-403.134234	-403.177584	34.575	
C	-0.054968293	 1.5042968777	-0.0221284692	-0.452249
C	-0.0074476272	-0.0119857677	-0.0262137216	 0.270317
C	-1.2315882184	-0.6904018305	-0.6109042692	-0.46233
C	 1.3363957241	-0.668888477	-0.2106035269	-0.383246
C	 0.6817243405	-0.6796963673	 1.1467144163	 0.161051
C	 1.1493053304	-0.109465688	 2.4823850662	-0.157953
O	 0.6641854506	-1.3243449593	 3.1428105459	-0.267548
C	 0.2504758519	-1.8659737578	 1.9372732022	 0.399711
N	-0.2812167189	-2.9733599687	 1.6777502995	-0.565813
H	 0.8517811693	 1.9416612426	 0.4078189734	 0.112812
H	-0.1548310082	 1.8864672611	-1.0443383824	 0.123859
H	-0.9123377934	 1.8715969915	 0.5532768563	 0.121222
H	-1.3342389776	-0.4407445606	-1.6732562833	 0.112132
H	-1.1738938385	-1.776149077	-0.5075723354	 0.157042
H	-2.1420879111	-0.3566034598	-0.1004939528	 0.115534
H	 1.3820436839	-1.6200794039	-0.7310191962	 0.134177
H	 2.2094791128	-0.0357382493	-0.337303928	 0.113631
H	 2.2285368577	 0.0022690116	 2.6191541007	 0.120184
H	 0.6220764283	 0.7728562089	 2.8554293423	 0.120156
H	-0.4165530632	-3.5319602467	 2.5212091324	 0.227312
116.4382	135.9466	158.9429	214.7729	229.7171	257.9992	308.8298	350.1878	390.871	422.0191	505.9478	598.6908	649.2258	740.6295	775.2244	842.4438	873.267	905.291	927.1646	963.3172	977.1866	995.1771	1008.959	1039.3817	1062.7723	1087.6672	1145.8008	1152.603	1163.7882	1222.7534	1244.6698	1302.9652	1343.7634	1412.6258	1421.5588	1434.4919	1481.6123	1483.3327	1492.2794	1502.2912	1514.4518	1521.0819	1816.9656	3024.0676	3029.3271	3051.9596	3085.4165	3088.9162	3098.3949	3108.1784	3121.9002	3130.0521	3212.3193	3485.2485
CC1(C)CC11COC1=N	CC1(C)C[C@]21CO[C]2[NH]	
InChI=1S/C7H11NO/c1-6(2)3-7(6)4-9-5(7)8/h8H,3-4H2,1-2H3	InChI=1S/C7H11NO/c1-6(2)3-7(6)4-9-5(7)8/h8H,3-4H2,1-2H3/t7-/m0/s1
