17
gdb 38640	3.01451	2.16561	1.87177	2.1581	69.7	-0.2516	-0.0066	0.245	806.2319	0.140313	-421.836996	-421.831335	-421.830391	-421.866653	24.876	
C	-0.0157610548	 1.5654667613	 0.0091377635	-0.252803
C	 1.5115439978	 1.6305490069	-0.0041615989	 0.205815
O	 1.8800037394	 0.9069844381	 1.1652344414	-0.289994
C	 1.0282491155	-0.2766069486	 1.1578512319	 0.06928
C	 1.8031104856	-1.4769500689	 0.642759768	-0.075159
C	 1.7912252726	-1.4700454892	-0.688382628	-0.075157
C	 1.0074009881	-0.2644966647	-1.1770790229	 0.06928
O	 1.8589964937	 0.9191863043	-1.1873941844	-0.289994
C	 0.039034037	 0.0394926171	 0.0007335428	-0.111747
H	-0.4537832611	 1.9912916928	 0.9141393697	 0.108082
H	-0.469836707	 2.000617756	-0.8834297595	 0.108082
H	 2.024975884	 2.5905228506	-0.0037678389	 0.090604
H	 0.5898457811	-0.3897086125	 2.1526128574	 0.074116
H	 2.3389599073	-2.1631803489	 1.2868143041	 0.106448
H	 2.31542461	-2.1495101246	-1.3489850641	 0.106448
H	 0.5512955849	-0.3673172913	-2.164973825	 0.074116
H	-0.8848086043	-0.5353285687	 0.0060007528	 0.082583
263.1526	335.7466	447.8914	528.3363	531.1609	599.0852	617.0536	765.9997	787.9514	824.6084	850.9901	873.0485	881.0537	883.5159	924.4416	943.091	960.0752	973.4718	982.7844	984.4828	1004.9872	1040.2751	1080.0741	1129.3573	1132.7565	1212.0331	1233.0919	1270.85	1277.4325	1306.0056	1319.8219	1328.5388	1347.943	1355.5883	1361.4831	1483.3901	1672.1143	3074.6699	3075.3917	3078.068	3135.208	3142.287	3147.5905	3199.0882	3224.4491
C1C2OC3C=CC(O2)C13	C1[C@H]2O[C@@H]3C=C[C@H](O2)[C@H]13	
InChI=1S/C7H8O2/c1-2-6-4-3-7(9-6)8-5(1)4/h1-2,4-7H,3H2	InChI=1S/C7H8O2/c1-2-6-4-3-7(9-6)8-5(1)4/h1-2,4-7H,3H2/t4-,5-,6+,7+
