19
gdb 88842	3.00559	1.14972	0.91623	2.5688	72.57	-0.2402	0.0643	0.3045	1285.7818	0.157821	-460.109354	-460.100109	-460.099164	-460.144294	33.793	
O	-0.0962874583	 1.4831796016	 0.3149938543	-0.413946
C	-0.0505445665	 0.1389329631	-0.0686844599	 0.079238
C	-0.5070875464	-0.9180989337	 0.9011308235	-0.332492
C	-1.3650526341	-0.5534485888	-0.297966092	-0.00268
C	-2.6530341597	 0.1810401973	-0.0849089348	 0.109769
O	-3.1681207169	 0.7849641929	-1.3026115754	-0.293007
C	-4.4202530285	 0.0862698267	-1.187908509	-0.096344
C	-3.9436697779	-0.6635205573	 0.0748961033	 0.039171
O	-3.7051302779	-2.0454484761	-0.065443981	-0.421597
H	 0.5975569056	 1.6272994375	 0.9664971507	 0.287952
H	 0.7611110902	-0.1116669794	-0.7513906994	 0.088207
H	-0.0175882654	-1.8852975615	 0.9136666292	 0.113661
H	-0.8459722053	-0.5666230168	 1.8708013284	 0.111328
H	-1.395722995	-1.2743882586	-1.1066827065	 0.098796
H	-2.5283616293	 0.9408487302	 0.6943141304	 0.083536
H	-5.2667134346	 0.7713450726	-1.0464054914	 0.093265
H	-4.6159242529	-0.5653339956	-2.0493462445	 0.096797
H	-4.517381161	-0.4486324732	 0.9852806955	 0.071367
H	-4.5525738862	-2.5010194909	-0.0477962213	 0.286981
43.3832	67.7438	124.8296	198.4997	226.2366	250.4007	305.6464	378.9142	409.7729	443.3039	509.9581	592.1293	783.3782	795.2326	833.203	851.0729	889.9904	925.0294	980.7095	1017.6007	1024.6679	1029.7506	1053.7327	1067.5104	1129.377	1146.7245	1163.5463	1168.4607	1186.5792	1216.8266	1237.9191	1278.2171	1294.8253	1314.2628	1322.3558	1346.1022	1414.4295	1430.2675	1438.998	1489.0367	1512.4488	3001.5576	3016.2168	3049.7852	3053.9275	3101.1619	3130.0499	3179.8284	3219.4477	3809.7483	3820.4292
OC1CC1C1OCC1O	O[C@H]1C[C@H]1[C@H]1OC[C@H]1O	
InChI=1S/C6H10O3/c7-4-1-3(4)6-5(8)2-9-6/h3-8H,1-2H2	InChI=1S/C6H10O3/c7-4-1-3(4)6-5(8)2-9-6/h3-8H,1-2H2/t3-,4+,5-,6-/m1/s1
