16
gdb 51495	3.39978	1.2464	1.13846	5.5367	70.27	-0.2465	-0.0211	0.2255	1089.8988	0.125232	-437.875544	-437.868026	-437.867082	-437.907998	28.246	
O	 0.5028598985	 0.1213983157	-0.0122375252	-0.285202
C	 0.7803847237	 1.2535641157	 0.2539142299	 0.1705
O	 0.3509167434	 2.2806868855	-0.5172110769	-0.212257
C	 0.8000670699	 3.6155238137	-0.2320450117	 0.096225
C	 0.8114351942	 4.0237422304	 1.2340134923	-0.148682
C	 1.9732750846	 4.5712763592	 1.5909842106	-0.03681
C	 2.94700408	 4.5300870687	 0.4523051224	-0.086855
N	 3.2488103115	 3.1300263327	 0.048028943	-0.327865
C	 2.2308435488	 3.9075460836	-0.6876381981	-0.06602
H	 1.3774386087	 1.5714753866	 1.1202922744	 0.108978
H	 0.0945946251	 4.2356314022	-0.7959513589	 0.109292
H	-0.0487179916	 3.8650242365	 1.8737495968	 0.118442
H	 2.2182567565	 4.9622863167	 2.5709494176	 0.11471
H	 3.7049108843	 5.2938396676	 0.3221623443	 0.102488
H	 4.1032134971	 3.1123377059	-0.5057674972	 0.239822
H	 2.4164464952	 4.1811015891	-1.7192534735	 0.103235
89.2897	112.5247	174.0489	260.4323	301.2726	436.196	476.1889	486.055	686.7047	731.227	760.7963	809.296	841.2008	869.2738	906.4304	928.9287	952.1699	979.0066	1015.5505	1033.607	1064.6742	1078.0655	1114.0172	1137.9974	1153.6773	1165.1812	1246.9826	1307.5526	1334.7309	1381.5963	1394.327	1411.5195	1429.4265	1671.2318	1852.9272	3047.7942	3049.66	3179.5354	3189.6118	3198.6282	3222.1056	3489.0945
O=COC1C=CC2NC12	O=CO[C@H]1C=C[C@H]2N[C@@H]12	
InChI=1S/C6H7NO2/c8-3-9-5-2-1-4-6(5)7-4/h1-7H	InChI=1S/C6H7NO2/c8-3-9-5-2-1-4-6(5)7-4/h1-7H/t4-,5+,6-/m1/s1
