19
gdb 113273	3.62247	0.84842	0.8419	3.3081	73.66	-0.253	0.0043	0.2572	1451.9054	0.155552	-460.15736	-460.147363	-460.146419	-460.192561	35.347	
C	-0.3836598883	 1.0764037527	-0.22191897	-0.243074
O	 0.5007136881	 0.0144861153	 0.0976817745	-0.236123
C	 0.9733663405	-0.6506394763	-1.0240963923	 0.075
C	 1.5845606653	-2.0033271374	-0.8070952606	-0.382129
C	 0.2591406209	-1.8765269337	-1.5365539341	 0.35434
C	-1.0220536007	-2.3558828898	-0.9023639129	-0.454293
O	 0.2806213574	-1.9928917141	-2.9558892081	-0.225675
C	 0.5968064816	-3.2007302204	-3.4706126783	 0.16172
O	 0.5899688495	-3.418550132	-4.644746248	-0.274773
H	 0.1087120311	 1.8272882642	-0.8564533559	 0.117074
H	-1.2822263802	 0.7168718054	-0.7410318089	 0.117539
H	-0.6749220449	 1.543036351	 0.72134034	 0.132958
H	 1.4245797121	-0.0154887533	-1.7877328904	 0.104877
H	 2.4758275551	-2.2507031438	-1.3719930277	 0.130261
H	 1.5498537534	-2.4029916535	 0.2005512309	 0.135505
H	-1.0572229525	-2.048325645	 0.1449301707	 0.142294
H	-1.8844087283	-1.9267642497	-1.4218057536	 0.135143
H	-1.1077400942	-3.4469320639	-0.9462014716	 0.123519
H	 0.8649051242	-3.9419405457	-2.6953105238	 0.085837
78.9913	107.363	113.0453	152.9787	170.6484	224.0279	242.3244	248.3744	331.2193	388.6125	430.1113	460.2694	517.2257	638.5188	767.4763	821.6925	904.7797	933.439	991.3851	1024.9874	1051.2414	1060.9094	1075.9844	1122.5616	1128.1524	1177.0342	1182.0106	1183.8207	1230.0648	1256.2392	1325.4525	1399.805	1413.8999	1421.4671	1466.8413	1486.3539	1490.0482	1492.0387	1504.3095	1508.7879	1864.8906	2969.8161	2994.7566	3038.8279	3050.3434	3098.7236	3102.0135	3126.9256	3135.5784	3140.5851	3232.4688
COC1CC1(C)OC=O	CO[C@H]1C[C@]1(C)OC=O	
InChI=1S/C6H10O3/c1-6(9-4-7)3-5(6)8-2/h4-5H,3H2,1-2H3	InChI=1S/C6H10O3/c1-6(9-4-7)3-5(6)8-2/h4-5H,3H2,1-2H3/t5-,6-/m0/s1
