18
gdb 7374	3.00892	1.63378	1.16118	5.6418	65.59	-0.2361	0.0443	0.2804	1044.733	0.153835	-418.291261	-418.282083	-418.281139	-418.325605	32.732	
C	 0.0053499134	 1.5138133569	 0.0162303902	-0.356327
N	-0.1120038679	 0.0671212416	-0.0366851655	-0.084524
C	-0.0914024509	-0.6806436824	 1.2267278673	-0.209269
C	-1.4737485286	-1.0954585229	 1.7443541235	-0.021811
O	-2.0198984917	-2.2004363008	 1.0712550664	-0.433751
C	-0.215993959	-0.6306775229	-1.2069788237	 0.456147
N	-0.0119084129	 0.0864542505	-2.3747807071	-0.561875
O	-0.5126129202	-1.824266777	-1.2436845155	-0.42525
H	 1.0504752178	 1.8555238947	 0.0620910959	 0.120316
H	-0.4770618921	 1.9639699109	-0.8536829067	 0.149113
H	-0.5080795548	 1.8881646957	 0.9062240629	 0.141981
H	 0.5175983987	-1.5801858847	 1.0929986015	 0.134478
H	 0.4050909645	-0.0443566041	 1.9664425483	 0.101918
H	-1.3751350699	-1.3613110156	 2.8066362576	 0.091283
H	-2.1430134921	-0.2164194364	 1.6974282119	 0.071015
H	-1.6308759721	-2.2224811566	 0.1791687392	 0.305291
H	 0.6754647263	 0.8238731711	-2.3773733149	 0.255664
H	 0.0232337316	-0.5178072082	-3.1817134614	 0.265604
42.9202	103.6638	122.4618	159.4465	192.7046	285.0171	323.9987	400.6135	453.6069	477.0897	536.4473	556.8921	571.8004	605.5316	741.5116	782.0142	872.1804	939.6241	1062.5628	1081.094	1109.2286	1119.5919	1148.461	1203.5356	1257.143	1273.8568	1341.8087	1379.9291	1398.3477	1437.0711	1459.5164	1495.788	1499.8299	1504.6901	1512.3477	1532.2796	1624.9712	1741.223	2931.9572	2989.9569	3013.0057	3048.5284	3082.1968	3099.5347	3129.0445	3581.5326	3604.1357	3694.8761
CN(CCO)C(N)=O	CN(CCO)C(=O)N	
InChI=1S/C4H10N2O2/c1-6(2-3-7)4(5)8/h7H,2-3H2,1H3,(H2,5,8)	InChI=1S/C4H10N2O2/c1-6(2-3-7)4(5)8/h7H,2-3H2,1H3,(H2,5,8)
