17
gdb 109483	2.12217	1.80274	1.05823	2.8939	71.08	-0.2582	-0.0057	0.2524	1124.3735	0.137176	-455.215838	-455.207322	-455.206378	-455.249952	30.58	
C	 0.0331025631	 1.5645244219	-0.0401302434	-0.386247
C	 0.0030779613	 0.0379365061	 0.0370902813	-0.151417
N	 0.7204020286	-0.4806307219	 1.1965397261	-0.15684
C	 2.0837610406	-0.6815581399	 1.2576709404	 0.33645
N	 2.880620839	-0.4372209942	 0.3005196225	-0.538003
C	 2.3190038377	-1.2270975209	 2.6574956723	-0.187518
O	 1.0265484029	-1.274101016	 3.2649584743	-0.242822
C	 0.0859811342	-0.828300728	 2.3823974118	 0.507766
O	-1.0840575484	-0.7647146029	 2.6243121025	-0.385555
H	 1.0611778042	 1.9271465984	-0.1161520793	 0.143417
H	-0.5160054441	 1.9013814184	-0.9244398014	 0.123865
H	-0.4367390519	 2.0072615186	 0.8427432614	 0.133312
H	-1.0221426794	-0.3292588057	 0.1203115508	 0.141925
H	 0.4694209257	-0.400804949	-0.8488008068	 0.138717
H	 3.8402434256	-0.6678555773	 0.5537929539	 0.225166
H	 2.7481740028	-2.2338878382	 2.6327629589	 0.149022
H	 2.9742536779	-0.5742937694	 3.2429247445	 0.148762
38.9276	110.6044	134.3072	195.9819	214.3335	303.3469	348.7667	424.732	564.0338	585.2369	614.773	692.1868	751.7555	769.6559	787.932	831.016	955.6495	991.11	1033.081	1059.4039	1091.6065	1105.1722	1130.4507	1210.4693	1225.543	1265.1617	1361.8501	1389.6668	1393.5389	1411.0862	1456.502	1482.5859	1493.5302	1498.1943	1504.9224	1751.7762	1895.4013	3046.7735	3050.2574	3072.5369	3094.4655	3116.4467	3121.798	3140.2976	3496.4384
CCN1C(=N)COC1=O	CCN1[C]([NH])COC1=O	
InChI=1S/C5H8N2O2/c1-2-7-4(6)3-9-5(7)8/h6H,2-3H2,1H3	InChI=1S/C5H8N2O2/c1-2-7-4(6)3-9-5(7)8/h6H,2-3H2,1H3
