23
gdb 122941	4.42127	0.51083	0.47584	2.6951	84.93	-0.2464	-0.0195	0.2269	2312.4177	0.202127	-425.430031	-425.418436	-425.417492	-425.468887	39.19	
C	-0.0239027272	 1.4320206376	-0.0390402205	-0.228298
O	 0.0024841092	 0.0280145798	 0.043667555	-0.230878
C	-1.2820947612	-0.5506723634	-0.011293394	-0.050371
C	-1.1344605021	-2.0646112263	 0.077661452	-0.206831
C	-2.489298289	-2.7812206848	 0.0545310861	-0.201229
C	-2.387785847	-4.3234018883	 0.025400466	-0.061096
C	-1.7313286967	-4.9087841918	 1.2873837414	-0.410276
C	-3.7864030726	-4.8917556568	-0.1158437079	 0.159859
O	-4.2028149534	-5.4940067667	-1.0710115442	-0.249449
H	 1.0095376001	 1.7833506187	 0.0126313911	 0.127257
H	-0.4699015423	 1.7787397908	-0.9851004467	 0.103504
H	-0.5934492837	 1.8810286716	 0.7906428352	 0.102451
H	-1.9087513753	-0.1756457137	 0.817726193	 0.082778
H	-1.7923845679	-0.2683021243	-0.949239519	 0.085366
H	-0.5143637371	-2.4049502335	-0.760232598	 0.110887
H	-0.5832135036	-2.2992999426	 0.9941471338	 0.112697
H	-3.0835968141	-2.4758767943	 0.9273258298	 0.099568
H	-3.051502397	-2.4542149413	-0.8299234471	 0.110411
H	-1.829194911	-4.6317841252	-0.8652975829	 0.095451
H	-0.7089025213	-4.5424576737	 1.4066337066	 0.133392
H	-2.2934778099	-4.6331470691	 2.1873161509	 0.120149
H	-1.6895944107	-6.0011596586	 1.2377427607	 0.129156
H	-4.4419657461	-4.6981996241	 0.7687692788	 0.065501
41.9514	45.9946	62.0866	100.628	119.8787	128.1798	209.9197	233.7178	240.6358	261.9126	342.5035	360.7211	404.0287	498.6457	571.3632	756.9406	844.5283	884.7781	911.8133	958.3869	993.8665	1010.0751	1047.2481	1063.1741	1125.99	1156.9581	1167.6962	1171.9123	1190.4291	1222.2722	1231.5747	1263.8376	1302.9651	1315.2162	1319.275	1360.2145	1388.5917	1407.6694	1427.1005	1429.2783	1481.4862	1484.4766	1485.5404	1498.2632	1498.6142	1504.7422	1508.2454	1533.0966	1836.6623	2830.1859	2938.5389	2963.8206	2968.3048	3008.0401	3009.4356	3034.8024	3039.7106	3041.1998	3058.5705	3088.087	3102.3617	3113.3373	3122.2283
COCCCC(C)C=O	COCCC[C@@H](C)C=O	
InChI=1S/C7H14O2/c1-7(6-8)4-3-5-9-2/h6-7H,3-5H2,1-2H3	InChI=1S/C7H14O2/c1-7(6-8)4-3-5-9-2/h6-7H,3-5H2,1-2H3/t7-/m1/s1
