16
gdb 127268	3.98853	1.09236	0.86219	2.2995	76.14	-0.2109	0.0055	0.2164	1292.5097	0.126292	-430.253238	-430.244879	-430.243935	-430.286812	29.931	
C	-0.0006580002	 1.4980737123	 0.2138067676	-0.330324
N	-0.0000586318	 0.0644674352	 0.0091315139	 0.07913
C	 0.0221316209	-0.6250539128	-1.1624752307	-0.178394
C	 0.0105509532	-1.9404345878	-0.7531750987	 0.397174
N	 0.0218192495	-3.1245115719	-1.4729706944	-0.372145
C	 0.0502660246	-3.2414316955	-2.8351444236	 0.078113
N	 0.069279231	-2.2318397268	-3.6173165228	-0.46452
N	-0.016683566	-1.9873366032	 0.6049862803	-0.283038
N	-0.0230613109	-0.7633207262	 1.0633900702	-0.148286
H	 0.9016663041	 1.9478564981	-0.2096441497	 0.148438
H	-0.880471179	 1.9526929602	-0.2498889288	 0.148427
H	-0.0244498161	 1.669890837	 1.2896912415	 0.16873
H	 0.0429023242	-0.1773585824	-2.1374749898	 0.172326
H	 0.0087484728	-3.9602731687	-0.9113784797	 0.265339
H	 0.0543296597	-4.2909936661	-3.1493969957	 0.095817
H	 0.0889830039	-2.5415829316	-4.5855304797	 0.223213
78.4435	95.3815	154.9948	159.1673	240.7246	306.9651	399.4379	426.2125	486.7438	570.8896	667.3855	719.1796	734.9236	785.4709	800.1984	840.3927	1036.7254	1040.0568	1051.5956	1059.7019	1121.0941	1152.1125	1165.2934	1237.2602	1294.3864	1314.4501	1358.3709	1414.5332	1440.1501	1480.8731	1483.3016	1509.0454	1567.3514	1629.8812	1718.9695	3049.964	3059.8206	3114.7682	3165.0019	3329.9832	3520.9567	3653.4977
CN1C=C(NC=N)N=N1	Cn1cc(NC=N)nn1	
InChI=1S/C4H7N5/c1-9-2-4(6-3-5)7-8-9/h2-3H,1H3,(H2,5,6)	InChI=1S/C4H7N5/c1-9-2-4(6-3-5)7-8-9/h2-3H,1H3,(H2,5,6)
