18
gdb 39990	4.13867	1.42795	1.32601	0.7782	75.81	-0.2325	0.0756	0.3081	998.9488	0.149707	-401.859816	-401.853254	-401.85231	-401.890649	27.21	
C	 0.0180654804	 1.4908659459	-0.0237781315	-0.262531
O	 1.186940034	 0.6580035254	-0.0067549974	-0.288307
C	-0.0961891565	 0.0341919132	 0.013618865	 0.474433
C	-0.524117111	-0.830525241	 1.2024175149	-0.345524
C	-1.0369181262	-2.0254673859	 0.4091438586	 0.022047
C	-0.1323661315	-2.3253829964	-0.8185981636	-0.073682
C	-1.4253196521	-2.6919561598	-1.5545233156	-0.177207
N	-1.8683938167	-1.4512102382	-0.7725353759	-0.168258
C	-0.48750808	-0.8481591711	-1.1434108627	-0.072145
H	-0.1571467614	 2.066211975	 0.8845273965	 0.115638
H	-0.1589019162	 2.029626035	-0.9540297983	 0.115009
H	 0.3234478998	-1.074388927	 1.8492821087	 0.120257
H	-1.3119441241	-0.3712565084	 1.8062207975	 0.117506
H	-1.5173666991	-2.846572669	 0.9438554507	 0.076388
H	 0.8507433054	-2.8084196372	-0.8423901335	 0.071063
H	-1.4601441197	-2.5592745535	-2.6395931849	 0.100902
H	-1.9511588228	-3.6038653113	-1.2558565203	 0.099669
H	-0.3970982023	-0.4563281257	-2.1573007381	 0.074742
112.4036	269.3175	291.4792	370.1751	468.3942	487.862	524.1716	675.8081	744.1428	789.713	818.7905	838.5226	866.6065	891.1387	924.5113	928.9001	958.4421	976.9061	1004.1336	1012.1669	1057.4235	1107.8247	1116.2673	1121.3797	1130.4843	1148.2287	1164.9063	1207.1233	1217.539	1230.4786	1243.6702	1273.5139	1276.4122	1288.2648	1351.5734	1448.9812	1475.838	1530.4368	1539.4997	3037.9738	3050.8799	3058.623	3079.2493	3105.6167	3107.9927	3108.5986	3116.4482	3165.1442
C1OC11CC2C3CN2C13	C1O[C@]21C[C@@H]1[C@H]3CN1[C@@H]23	
InChI=1S/C7H9NO/c1-5-4-2-8(5)6(4)7(1)3-9-7/h4-6H,1-3H2	InChI=1S/C7H9NO/c1-5-4-2-8(5)6(4)7(1)3-9-7/h4-6H,1-3H2/t4-,5-,6-,7+/m1/s1
