21
gdb 119110	2.30207	1.11526	0.87252	2.0771	79.32	-0.2416	-0.0103	0.2313	1394.9734	0.180106	-424.231433	-424.221166	-424.220221	-424.267209	37.321	
C	-1.2317094592	 0.4317487103	 0.5152019036	-0.499465
C	 0.016203788	-0.3671582655	 0.1775329059	 0.326158
O	 0.8520673774	-0.5950770891	 1.0281551665	-0.319447
C	 0.1505607495	-0.9304728142	-1.2155234657	 0.239374
C	-0.6733768356	-0.3481565644	-2.3518042237	-0.292729
C	-0.1536525915	 0.9989272975	-2.8519194751	-0.069577
O	-1.0162921881	 1.428935063	-3.8927988029	-0.417643
C	 1.5127422934	-1.516870265	-1.5447141891	-0.285842
C	 0.3955229369	-2.4445625558	-1.2035743034	-0.294318
H	-1.3210438176	 1.325401962	-0.1101039541	 0.143325
H	-2.1297282987	-0.1708770577	 0.3379167492	 0.143319
H	-1.1898461273	 0.7233076882	 1.5649709873	 0.140615
H	-0.6667697641	-1.0415966811	-3.1998651695	 0.106606
H	-1.7234059973	-0.2327325013	-2.062168037	 0.108926
H	-0.127288343	 1.7309802598	-2.0284024826	 0.086528
H	 0.8816393039	 0.8820476018	-3.2079116216	 0.092352
H	-0.6782825586	 2.2582317486	-4.2428105029	 0.287508
H	 1.8329752167	-1.4556435195	-2.5789723498	 0.112757
H	 2.2860067946	-1.3709604329	-0.8005835389	 0.140461
H	 0.4202898494	-2.9232772519	-0.2316639986	 0.133569
H	-0.072943909	-3.0207090026	-1.9941364378	 0.117521
49.4931	73.2142	123.5712	159.2579	173.0178	250.9211	266.112	272.443	330.1776	367.1361	406.4486	424.3171	582.1937	613.8055	692.4343	785.9961	801.6868	857.1236	880.4964	947.209	969.6301	978.42	1032.0937	1051.6788	1064.0422	1081.2571	1091.1575	1101.5542	1163.5838	1204.9302	1220.4586	1244.4878	1297.9428	1305.8071	1349.3824	1360.7008	1383.1871	1451.4645	1457.5479	1462.1567	1479.0187	1483.4937	1494.3666	1526.883	1780.7998	2965.8614	2995.148	3040.2945	3044.3143	3083.7928	3103.5542	3136.7456	3141.2881	3154.1829	3226.1488	3241.1762	3831.7865
CC(=O)C1(CCO)CC1	CC(=O)C1(CCO)CC1	
InChI=1S/C7H12O2/c1-6(9)7(2-3-7)4-5-8/h8H,2-5H2,1H3	InChI=1S/C7H12O2/c1-6(9)7(2-3-7)4-5-8/h8H,2-5H2,1H3
