14
gdb 14292	3.98177	1.84412	1.7895	3.639	56.67	-0.2332	0.0529	0.2861	771.1828	0.108945	-415.876385	-415.86962	-415.868676	-415.907102	26.122	
O	-0.014921416	 1.3966825498	-0.0517327093	-0.430043
C	-0.0253479603	 0.0122568792	-0.0337973035	 0.103757
C	-0.4412603338	-0.7235709402	 1.2214450122	-0.086557
N	-1.1464820575	 0.1029164169	 2.1637128507	-0.370001
C	-2.419130108	 0.4617013002	 1.6953853776	 0.424772
O	-3.2345696031	 1.1353455237	 2.2786575929	-0.395368
N	-2.526034333	-0.0797235041	 0.4220970468	-0.326843
C	-1.3439661194	-0.7616041063	-0.0024739883	-0.071046
H	-0.1386535719	 1.6965481549	 0.8597522889	 0.298362
H	 0.7696828026	-0.4389933211	-0.6220493097	 0.107209
H	 0.0978790349	-1.581414458	 1.6046258526	 0.110811
H	-1.0021089208	 0.029341888	 3.1567191432	 0.262146
H	-3.1593760284	 0.3604573563	-0.224912233	 0.264263
H	-1.4766077853	-1.653184169	-0.6058286809	 0.108538
121.7866	217.5843	260.637	347.2596	400.653	435.06	484.7463	594.1926	653.226	719.2622	749.8055	759.3187	789.3868	793.9183	948.7462	969.7463	1042.864	1064.2436	1078.0489	1096.1604	1133.3367	1208.7035	1241.7438	1342.2392	1356.9484	1376.7189	1387.735	1400.3493	1448.	1854.724	3141.9065	3162.0764	3182.5195	3658.9044	3664.4303	3734.4815
OC1C2NC(=O)NC12	O[C@H]1[C@H]2NC(=O)N[C@@H]12	
InChI=1S/C4H6N2O2/c7-3-1-2(3)6-4(8)5-1/h1-3,7H,(H2,5,6,8)	InChI=1S/C4H6N2O2/c7-3-1-2(3)6-4(8)5-1/h1-3,7H,(H2,5,6,8)/t1-,2+,3-
