20
gdb 90071	2.63899	1.69413	1.4189	0.7296	80.2	-0.2172	0.0343	0.2515	1023.4318	0.169556	-402.974277	-402.966007	-402.965063	-403.006382	33.234	
C	-0.1095457715	 1.3330968422	-0.5365819436	-0.413092
C	 0.1597621953	-0.1137694355	-0.1776656507	 0.036148
O	 1.2825825079	-0.7210454884	-0.9668685705	-0.373017
C	 1.977998483	-0.8476359786	 0.2851169119	 0.342304
C	 2.7085104952	-1.6408310212	 1.4149907024	-0.254362
N	 2.0476392077	-0.4134804178	 2.1418833665	-0.210726
C	 2.5790482087	 0.3998063222	 0.9701017583	-0.21498
C	 0.7903134302	-0.7406202416	 1.1637926841	 0.254534
C	-0.0746144154	-1.8652335003	 1.7010904315	-0.485442
H	 0.7794744572	 1.9617115867	-0.4914247964	 0.133399
H	-0.499916416	 1.3844362322	-1.5584679629	 0.132654
H	-0.8692448544	 1.7464949902	 0.1352459334	 0.127023
H	-0.7455126685	-0.6984980748	-0.3717300468	 0.101879
H	 2.3136676126	-2.6119067374	 1.7085844803	 0.11904
H	 3.7990013638	-1.6051373136	 1.4790381279	 0.11226
H	 3.6660795439	 0.5079355206	 0.96873072	 0.099067
H	 2.0852076085	 1.3629491972	 0.8665584386	 0.106036
H	 0.3594497261	-2.3290721884	 2.5889724918	 0.133504
H	-1.053837963	-1.4671753594	 1.9909251547	 0.122392
H	-0.2478549813	-2.6447067444	 0.9497692794	 0.131377
154.9316	171.492	202.5239	231.3014	277.2516	341.6371	387.3529	459.7005	471.5017	491.3522	573.3454	628.94	707.284	744.0911	773.1775	804.2809	860.657	880.3369	972.3285	980.9732	1012.2045	1027.5286	1055.621	1071.9799	1091.9136	1110.8333	1129.0278	1152.9945	1173.5349	1178.8022	1185.6063	1242.9548	1257.9045	1336.5066	1387.8098	1404.8774	1409.5286	1478.0665	1487.5946	1492.2118	1499.1797	1515.2469	1549.2356	3026.3479	3041.0569	3050.961	3071.2964	3079.1294	3082.2529	3103.3075	3124.5267	3145.5969	3162.8953	3173.5225
CC1OC23CN(C2)C13C	C[C@H]1O[C@@]23CN(C2)[C@@]13C	
InChI=1S/C7H11NO/c1-5-6(2)7(9-5)3-8(6)4-7/h5H,3-4H2,1-2H3	InChI=1S/C7H11NO/c1-5-6(2)7(9-5)3-8(6)4-7/h5H,3-4H2,1-2H3/t5-,6+/m1/s1
