15
gdb 22466	3.23536	0.93249	0.75442	3.5859	75.49	-0.2541	-0.0462	0.2079	1435.1373	0.109371	-453.852134	-453.842562	-453.841617	-453.887632	33.331	
O	 0.2023542414	 0.8002308686	 0.3920922729	-0.377697
N	 0.0865762253	-0.5171199188	-0.0105571853	-0.138944
C	-1.1322411329	-0.8863075063	-0.1629470489	 0.14838
C	-1.3982370615	-2.3216501045	-0.5908815879	-0.178249
O	-0.2420200288	-3.0397587184	-0.9578252713	-0.164181
C	 0.5146919164	-3.5282970449	 0.0516842289	 0.143558
N	 1.5714134861	-4.1614220319	-0.2117754774	-0.442382
C	-2.2788368756	-0.0716041292	 0.0507661349	 0.322787
C	-3.2923176709	 0.5573858851	 0.2134479669	-0.439493
H	 1.1581642872	 0.9213315875	 0.4340762877	 0.316712
H	-1.9494141416	-2.8347643495	 0.2115751626	 0.128132
H	-2.0472251027	-2.3142505406	-1.4713766607	 0.149492
H	 0.0982349298	-3.3266522241	 1.0473582461	 0.089402
H	 2.0109434385	-4.4766815267	 0.6503260711	 0.229554
H	-4.1734766007	 1.1324140535	 0.3617145304	 0.21293
41.4384	69.7784	130.0016	135.7648	212.5517	245.9337	281.6673	330.1742	376.0707	457.9261	459.7276	619.9942	648.4595	651.8567	659.7678	686.2729	814.7738	825.3335	966.1467	1036.5422	1038.0891	1057.1504	1150.8618	1211.5655	1247.9416	1329.1107	1395.9323	1411.1207	1423.8677	1486.4068	1692.0856	1751.9589	2220.7496	2998.0047	3031.7847	3089.6358	3497.6986	3521.3035	3803.0939	41.438	69.7782	130.0011	135.7647	212.5515	245.9334	281.6668	330.1742	376.0706	457.9259	459.7262	619.9929	648.4593	651.8562	659.7671	686.2728	814.7735	825.3333	966.1463	1036.5418	1038.0887	1057.1499	1150.8616	1211.5652	1247.9412	1329.1102	1395.9318	1411.121	1423.8672	1486.406	1692.0855	1751.9585	2220.7495	2998.0046	3031.7845	3089.6358	3497.6986	3521.3033	3803.0931
ON=C(COC=N)C#C	ON=C(CO[CH][NH])C#C	
InChI=1S/C5H6N2O2/c1-2-5(7-8)3-9-4-6/h1,4,6,8H,3H2	InChI=1S/C5H6N2O2/c1-2-5(7-8)3-9-4-6/h1,4,6,8H,3H2
