22
gdb 119925	2.16366	1.05767	0.87074	4.0499	87.	-0.2792	0.032	0.3113	1482.2862	0.193344	-367.231418	-367.22107	-367.220126	-367.267262	37.312	
C	 0.0598059228	 1.5358330671	-0.1189490087	-0.384193
C	-0.0715130873	 0.0167202892	-0.2502022311	-0.162294
C	-1.4243404019	-0.5088562738	 0.2504683793	-0.203053
C	-1.5345862	-2.0166011557	 0.1591283087	-0.022909
C	-2.8395879063	-2.7610201545	 0.1416617152	-0.046725
C	-4.1880110328	-2.0798060301	 0.2165660359	-0.413892
C	-1.9867671411	-2.7129344295	-1.1287164891	-0.198451
C	-2.4180986131	-1.9258959101	-2.2475087695	 0.292971
N	-2.7647615342	-1.2858271793	-3.148074467	-0.35478
H	 1.0343089267	 1.8825254215	-0.4758693335	 0.114417
H	-0.7105042576	 2.0505429232	-0.7033384927	 0.12309
H	-0.0462742598	 1.8553515822	 0.9239519388	 0.112063
H	 0.0598945673	-0.2757711091	-1.2989645943	 0.113763
H	 0.7359998121	-0.4733809947	 0.309936422	 0.09233
H	-1.567855476	-0.2094484839	 1.2976075176	 0.098707
H	-2.2271796741	-0.0293954323	-0.3192398841	 0.117395
H	-0.7167839068	-2.5387643326	 0.6510223979	 0.096802
H	-2.8149083513	-3.733881978	 0.6257277258	 0.09976
H	-4.2230269731	-1.1623081829	-0.3743925772	 0.143652
H	-4.972960589	-2.7425423039	-0.1611509786	 0.129309
H	-4.4327601607	-1.8263546312	 1.2533387415	 0.123709
H	-1.4670652038	-3.6214231818	-1.4136337269	 0.128329
60.8129	83.9171	112.6785	142.9948	161.2287	186.3118	244.819	258.4412	319.5957	370.2857	426.2509	502.1433	595.3843	629.1045	739.001	755.4449	792.3122	859.2914	886.0426	902.4414	949.4703	980.3585	1028.8991	1049.9496	1075.625	1097.0381	1131.2389	1143.4644	1149.9261	1196.2037	1251.0846	1274.2951	1305.1251	1333.2827	1362.2327	1379.9031	1403.466	1413.6174	1425.7058	1441.6247	1481.4608	1491.9892	1494.552	1500.0099	1504.0191	1510.074	2344.3295	3016.2637	3020.8093	3031.1272	3042.1453	3054.7593	3079.0309	3098.9469	3101.8509	3105.2319	3125.3338	3130.1862	3145.8971	3169.0021
CCCC1C(C)C1C#N	CCC[C@H]1[C@@H](C)[C@H]1C#N	
InChI=1S/C8H13N/c1-3-4-7-6(2)8(7)5-9/h6-8H,3-4H2,1-2H3	InChI=1S/C8H13N/c1-3-4-7-6(2)8(7)5-9/h6-8H,3-4H2,1-2H3/t6-,7+,8-/m1/s1
