16
gdb 31381	3.87004	1.11703	0.88782	8.629	74.72	-0.2224	-0.0208	0.2016	1253.3173	0.127542	-434.120596	-434.112719	-434.111775	-434.153415	29.418	
N	 0.0162133242	 1.3903247083	 0.4888563084	-0.524146
C	-0.006023869	 0.0826840165	-0.1772119006	-0.262137
C	-1.4069474862	-0.4834644362	-0.1876044104	 0.385755
C	-1.9265707869	-1.3028704385	-1.1253416056	-0.325409
C	-3.2844036873	-1.8466718236	-0.9899633692	 0.385987
O	-3.7765788077	-2.6034585674	-1.8036520327	-0.36825
N	-4.0143129019	-1.4336390885	 0.15752747	-0.311075
C	-3.4543114916	-0.6380802964	 0.9964458488	 0.091135
N	-2.1842576239	-0.1499246108	 0.8965129277	-0.333676
H	 0.9648179129	 1.6403079051	 0.7438321071	 0.246929
H	-0.3215292041	 2.113952934	-0.138522595	 0.245181
H	 0.3813355644	 0.0790668454	-1.2049268244	 0.122145
H	 0.6353434531	-0.5908636882	 0.405338183	 0.14013
H	-1.3508969475	-1.5889833688	-1.9973560729	 0.107169
H	-4.0023921449	-0.3019180563	 1.876386282	 0.129791
H	-1.8073642535	 0.5371281555	 1.5368835339	 0.270471
74.9121	133.0923	164.5776	242.794	298.2591	385.469	449.2403	481.2121	551.4382	582.5472	651.6647	687.9967	780.5408	790.5662	862.1955	874.2882	896.383	970.7613	971.7392	1020.2901	1061.3609	1123.9639	1168.1444	1195.5311	1210.9746	1311.1401	1359.9227	1407.4307	1423.3672	1489.1995	1511.0667	1633.3734	1661.94	1703.5164	1773.8598	3010.9429	3050.4919	3134.4915	3207.4072	3506.7628	3578.8897	3590.7894
NCC1=CC(=O)N=CN1	NCc1cc(=O)nc[nH]1	
InChI=1S/C5H7N3O/c6-2-4-1-5(9)8-3-7-4/h1,3H,2,6H2,(H,7,8,9)	InChI=1S/C5H7N3O/c6-2-4-1-5(9)8-3-7-4/h1,3H,2,6H2,(H,7,8,9)
