16
gdb 7896	3.54177	1.66624	1.1808	4.641	65.46	-0.231	-0.0866	0.1445	990.9672	0.129543	-383.785503	-383.77784	-383.776896	-383.817657	28.351	
C	-0.1696097911	 1.535616385	-0.0119087257	-0.399134
C	 0.0697123149	 0.029169893	 0.0397928556	 0.004193
C	 0.7999870209	-0.5387390793	-1.1999045685	-0.336633
C	 1.406778061	-1.8534568812	-0.7367176001	 0.313358
O	 1.7582011363	-2.7927063406	-1.3963022133	-0.27757
C	 1.4927649473	-1.786253232	 0.8234404305	 0.313358
O	 1.9188606996	-2.6671433618	 1.5185720312	-0.277569
C	 0.9343010796	-0.4337890735	 1.2359602602	-0.336631
H	 0.7799456652	 2.0784592681	-0.0876619121	 0.118021
H	-0.7819394204	 1.8098979392	-0.8770447752	 0.122163
H	-0.6845729329	 1.8859601165	 0.8884862517	 0.122163
H	-0.9015160563	-0.4774438163	 0.1151740573	 0.09451
H	 0.1697474024	-0.6691740953	-2.0823884804	 0.136088
H	 1.6283157871	 0.1269054586	-1.4862969353	 0.133799
H	 1.7859195286	 0.2500215794	 1.3715431547	 0.133799
H	 0.405353868	-0.4850480597	 2.1902048094	 0.136086
85.2603	110.2407	240.5598	269.7447	309.9146	354.6808	408.924	491.7004	515.7883	585.323	653.8784	704.0407	841.2052	859.0919	889.3681	952.578	1007.169	1044.4474	1085.3418	1129.7658	1167.3118	1167.7666	1240.3504	1251.5822	1280.1555	1343.3065	1378.6709	1414.5776	1440.0384	1453.2706	1494.5192	1498.178	1843.9207	1864.0915	3006.8463	3008.0203	3023.109	3028.7297	3095.2704	3103.989	3109.6225	3110.4192
CC1CC(=O)C(=O)C1	CC1CC(=O)C(=O)C1	
InChI=1S/C6H8O2/c1-4-2-5(7)6(8)3-4/h4H,2-3H2,1H3	InChI=1S/C6H8O2/c1-4-2-5(7)6(8)3-4/h4H,2-3H2,1H3
