21
gdb 70184	3.27155	1.2438	1.06128	2.893	81.97	-0.235	-0.0119	0.2231	1204.1091	0.18311	-387.121474	-387.112933	-387.111989	-387.155072	33.56	
C	-0.2037840169	 1.5640139385	 0.0899188688	-0.463375
C	-0.0359018888	 0.0590262382	 0.0418577665	 0.346416
C	-0.8428611317	-0.7770295589	 1.0122785584	-0.340152
C	 0.6521996009	-0.6302348443	 1.1967312054	-0.059008
C	 1.6046846109	-1.7806554188	 0.9332688279	-0.327762
C	 1.3624512432	-2.5955708322	-0.3375946817	 0.386703
O	 1.8960060819	-3.6692654075	-0.4933226741	-0.315226
C	 0.4356849249	-2.0120883162	-1.4004173171	-0.327864
C	 0.2607117319	-0.4893550812	-1.3484864835	-0.273727
H	 0.689961167	 2.0749654994	-0.2880758721	 0.114413
H	-1.0535378321	 1.8877470863	-0.5230406586	 0.115708
H	-0.3795864702	 1.9123554597	 1.1124598447	 0.113554
H	-1.4904428454	-0.2534413523	 1.7076905019	 0.109013
H	-1.2364243807	-1.7371985227	 0.6963437796	 0.109492
H	 0.960494614	 0.0072347269	 2.0214037852	 0.083448
H	 2.62825276	-1.3892344909	 0.8369641294	 0.131951
H	 1.6389427689	-2.4863275192	 1.7709292822	 0.131008
H	 0.8023166862	-2.3431662845	-2.3761858223	 0.126215
H	-0.5347909227	-2.5085608798	-1.2663472838	 0.134496
H	-0.5353905321	-0.1939278444	-2.0435641791	 0.102424
H	 1.1763175907	-0.006562236	-1.718227518	 0.102273
26.8579	193.3631	207.0201	238.	294.7068	346.4848	354.627	434.351	452.8838	491.3014	562.3616	612.8153	665.4487	703.3576	801.2713	850.6863	879.7608	893.2346	916.5165	961.7512	1016.0182	1033.7098	1045.3411	1058.2104	1092.5447	1122.1578	1125.2286	1188.655	1196.52	1236.2296	1244.1973	1265.0541	1326.2793	1334.4456	1349.9545	1380.8137	1418.158	1425.1615	1447.0966	1457.0879	1491.01	1493.1979	1497.5375	1514.8029	1808.9709	3006.3117	3011.0477	3019.7913	3024.641	3045.263	3065.9861	3077.809	3092.752	3098.9463	3131.4183	3135.5539	3211.4468
CC12CC1CC(=O)CC2	C[C@]12C[C@H]1CC(=O)CC2	
InChI=1S/C8H12O/c1-8-3-2-7(9)4-6(8)5-8/h6H,2-5H2,1H3	InChI=1S/C8H12O/c1-8-3-2-7(9)4-6(8)5-8/h6H,2-5H2,1H3/t6-,8+/m1/s1
