20
gdb 17398	4.01139	1.54499	1.49456	0.1814	79.17	-0.2357	0.0994	0.3351	969.9671	0.177354	-311.827924	-311.820274	-311.81933	-311.8595	30.338	
C	-0.1180143906	 1.498689551	-0.0000892122	-0.404379
C	-0.008938243	-0.0094590427	 0.0458097774	-0.052082
C	 1.3315997471	-0.6851590821	-0.1677844337	-0.372899
C	 0.6832778607	-0.7062442735	 1.1850879986	 0.388975
C	 1.2769518063	-0.1102821399	 2.4834915156	-0.319552
C	 0.8043502031	-1.3694683263	 3.2279059079	-0.036854
C	-0.6785540896	-1.5576178655	 3.0659297113	-0.277046
C	 0.2306530311	-1.9476525716	 1.9305988724	-0.128079
H	 0.7669259146	 1.972688096	 0.4374651558	 0.114615
H	-0.2092261916	 1.8598114859	-1.0308194212	 0.114507
H	-0.9923524288	 1.8556668813	 0.5560662041	 0.113859
H	-0.8674875263	-0.5361468094	-0.3662467269	 0.07844
H	 1.3626577762	-1.608415543	-0.7386295537	 0.105982
H	 2.201768411	-0.0489487278	-0.3060495278	 0.103823
H	 2.3659881147	-0.0222756192	 2.4402364246	 0.102382
H	 0.8605297857	 0.8396541289	 2.8375631931	 0.093053
H	 1.3617066209	-1.8777632964	 4.0047618217	 0.0838
H	-1.1046973128	-2.3840703541	 3.6264305506	 0.106483
H	-1.3373050013	-0.6973072079	 2.9688355958	 0.103611
H	 0.2820270425	-2.9619223437	 1.5515577766	 0.081362
114.9386	162.9077	197.996	223.673	350.1947	386.9341	441.2768	471.2825	547.8057	744.5495	783.6052	791.6263	819.5311	876.4979	902.866	911.7863	934.297	962.3081	971.2506	1003.0488	1034.2742	1050.9627	1061.7359	1080.5346	1092.5906	1115.4575	1126.5465	1154.6303	1183.3571	1197.1257	1219.0076	1251.4704	1290.4419	1317.7538	1359.7441	1411.3558	1431.0732	1478.2171	1487.6174	1491.2753	1495.0348	1506.5257	3023.1591	3032.9876	3083.3186	3090.0522	3091.9668	3103.4324	3111.9447	3126.0393	3172.1508	3184.7958	3195.8434	3198.7861
CC1CC11CC2CC12	C[C@H]1C[C@]21C[C@H]1C[C@@H]21	
InChI=1S/C8H12/c1-5-3-8(5)4-6-2-7(6)8/h5-7H,2-4H2,1H3	InChI=1S/C8H12/c1-5-3-8(5)4-6-2-7(6)8/h5-7H,2-4H2,1H3/t5-,6+,7+,8+/m0/s1
