16
gdb 55549	3.19781	1.00342	0.81949	3.6032	67.41	-0.2483	-0.0505	0.1977	1353.8861	0.12275	-475.046838	-475.037903	-475.036959	-475.081928	31.816	
N	 0.7008645617	 0.3276141472	 0.0130351524	-0.51111
C	-0.6486177764	 0.2247323321	 0.13360254	 0.384654
O	-1.4100957954	 1.169235701	 0.143365958	-0.350515
C	-1.176497772	-1.2073523759	 0.3531053173	-0.427258
C	-0.5496221408	-2.3034588365	-0.4891924957	 0.35844
O	 0.6375718039	-2.3621937364	-0.7446229346	-0.327005
C	-1.4490576375	-3.3893855618	-1.0123457234	 0.003165
C	-2.445981259	-4.0431677249	-0.1356268024	-0.177477
O	-2.8450741165	-3.1200105869	-1.1345206345	-0.206183
H	 1.0700856866	 1.2351298014	-0.2225208142	 0.258641
H	 1.2373511672	-0.5021038597	-0.2007499422	 0.276357
H	-0.975887529	-1.4608607303	 1.4035254649	 0.159834
H	-2.2567397824	-1.1826671588	 0.2147110391	 0.163111
H	-1.00287163	-3.968795881	-1.8183363404	 0.124299
H	-2.6934370648	-5.0859980365	-0.324461865	 0.139007
H	-2.5669557057	-3.707020553	 0.8926180807	 0.132041
42.7857	58.5898	93.2363	185.6082	252.0784	267.4129	379.2422	466.8178	483.2239	502.5333	534.6357	597.6143	634.0427	705.4797	835.0164	870.7638	875.1193	913.1199	948.9281	968.3082	1088.309	1130.643	1151.3302	1166.4868	1168.8586	1209.407	1262.5175	1327.2205	1361.9722	1387.1964	1445.0259	1522.4807	1616.2535	1777.5936	1813.8485	3030.2466	3093.3847	3142.7732	3149.4173	3185.9434	3542.5179	3693.2463
NC(=O)CC(=O)C1CO1	NC(=O)CC(=O)[C@H]1CO1	
InChI=1S/C5H7NO3/c6-5(8)1-3(7)4-2-9-4/h4H,1-2H2,(H2,6,8)	InChI=1S/C5H7NO3/c6-5(8)1-3(7)4-2-9-4/h4H,1-2H2,(H2,6,8)/t4-/m1/s1
