18
gdb 46046	4.40094	0.98188	0.89228	4.425	71.87	-0.2388	0.0352	0.274	1295.0793	0.149288	-439.107263	-439.099178	-439.098233	-439.14053	30.187	
O	 0.0775026029	 0.0183142977	-0.1832804821	-0.376141
C	 0.0069970318	 1.2156986758	-0.0216187663	 0.40069
C	-1.252828848	 2.086717632	-0.0310590438	-0.347904
C	-0.7945636636	 3.4466344513	 0.5357378157	-0.025062
C	 0.7212379731	 3.4755618612	 0.2199692249	-0.196218
N	 1.0627574858	 2.0646814689	 0.1886483146	-0.306411
C	-1.5853942706	 4.619356342	 0.003090161	 0.07726
C	-1.0150337817	 5.9431498562	-0.2751498767	-0.188225
O	-1.31952504	 5.0351922984	-1.3387051573	-0.230753
H	-1.5824420727	 2.1848567898	-1.0721624403	 0.144428
H	-2.0585083946	 1.6118770294	 0.531060944	 0.129536
H	-0.9197598024	 3.4293478492	 1.6253011439	 0.093317
H	 0.9016921259	 3.9616007128	-0.7481816918	 0.126216
H	 1.2927305965	 4.00604235	 0.9881399732	 0.111161
H	 2.00614293	 1.7294319152	 0.0734102595	 0.250962
H	-2.6498560741	 4.5792680452	 0.2424313792	 0.098663
H	-1.6494825824	 6.8261925353	-0.2194841495	 0.121126
H	 0.0452187241	 6.1269150396	-0.1095592783	 0.117357
70.0393	99.4786	167.0599	191.8714	256.1107	383.4933	468.5908	503.3899	539.3155	598.3335	622.088	695.2561	793.6587	854.4333	885.7699	902.1411	920.8339	974.1654	1036.3166	1063.4163	1083.5883	1102.2241	1127.5886	1164.0669	1174.6452	1184.8978	1240.0472	1261.8381	1269.8292	1295.8856	1325.5644	1343.0984	1381.3703	1432.8748	1451.4505	1468.4442	1528.9814	1542.5313	1835.8195	3014.6668	3032.0806	3052.7126	3069.4281	3088.4019	3093.8666	3123.1722	3174.7129	3640.3477
O=C1CC(CN1)C1CO1	O=C1C[C@@H](CN1)[C@H]1CO1	
InChI=1S/C6H9NO2/c8-6-1-4(2-7-6)5-3-9-5/h4-5H,1-3H2,(H,7,8)	InChI=1S/C6H9NO2/c8-6-1-4(2-7-6)5-3-9-5/h4-5H,1-3H2,(H,7,8)/t4-,5+/m0/s1
