17
gdb 74774	3.22561	1.443	1.42207	1.0213	74.11	-0.214	0.0174	0.2314	990.4533	0.14029	-414.207374	-414.200092	-414.199147	-414.238539	30.027	
N	-0.0057106152	 1.2984219723	 0.0815464811	-0.612124
C	-0.0314419125	-0.0640973029	 0.0326760078	 0.421656
N	-1.0926622768	-0.7939400467	 0.0256778913	-0.291646
C	-0.540056389	-2.1857679542	-0.0066773773	-0.099568
C	 0.7184541051	-2.0676935205	 0.8905433458	-0.211861
C	 1.2404612366	-0.9215684381	-0.0131722114	-0.099569
N	 1.2517645891	-1.5578181336	-1.3691443983	-0.29165
C	 0.2038914996	-2.306291306	-1.3435062532	 0.421658
N	-0.2153663542	-3.1195053806	-2.3546527735	-0.612123
H	 0.8151659636	 1.7545971628	-0.2823728001	 0.259654
H	-0.878303011	 1.7639444852	-0.1221922284	 0.257577
H	-1.2926696236	-2.9388436978	 0.2243856663	 0.065894
H	 0.4727332001	-1.774442903	 1.9144765935	 0.104489
H	 1.3783302954	-2.9390438848	 0.8793242383	 0.104489
H	 2.1865354061	-0.4385355664	 0.2288248866	 0.065894
H	 0.2045666398	-2.9531800629	-3.2577755383	 0.257576
H	-1.1943489429	-3.3549847428	-2.3773404403	 0.259654
145.8856	226.7492	340.5414	345.5838	394.6354	417.9704	457.9098	503.8464	519.8473	533.0841	614.7576	672.378	745.9871	764.7796	766.9016	868.6914	878.8083	922.6162	932.1757	956.1502	1008.3214	1033.852	1099.1848	1105.471	1158.5235	1197.1333	1252.4873	1255.5889	1272.6113	1277.5922	1397.3056	1430.3056	1489.0459	1620.3268	1622.1782	1685.2584	1699.9151	3061.1231	3121.3242	3124.0236	3124.1237	3574.4687	3574.532	3693.0946	3693.1299
NC1=NC2CC1N=C2N	N[C]1[N][C@@H]2C[C@H]1[N][C]2N	
InChI=1S/C5H8N4/c6-4-2-1-3(9-4)5(7)8-2/h2-3H,1H2,(H2,7,8)(H2,6,9)	InChI=1S/C5H8N4/c6-4-2-1-3(9-4)5(7)8-2/h2-3H,1H2,(H2,7,8)(H2,6,9)/t2-,3-/m1/s1
