21
gdb 97403	6.28206	0.63925	0.61899	3.3615	86.26	-0.2174	0.0246	0.242	1889.4542	0.180417	-420.369941	-420.359865	-420.35892	-420.406372	35.368	
C	-0.0058235024	 1.3415893175	-0.2591694118	-0.314597
N	 0.0271767077	-0.0644989658	 0.0821565835	-0.20479
C	-1.0592571347	-0.6951789346	 0.038950738	 0.129015
O	-1.114667902	-2.0000599439	 0.3780547241	-0.212272
C	-2.3571662032	-2.6523727028	 0.1659924159	 0.112638
C	-2.515769378	-3.3152575115	-1.2264988055	-0.192401
N	-2.0893705313	-4.5958870785	-0.6353683991	-0.053953
C	-2.7500402123	-5.8103741234	-1.0488455124	-0.322031
C	-2.3205325973	-4.0859107241	 0.7289821196	-0.189144
H	 0.68029201	 1.5341816651	-1.0918823698	 0.127749
H	-1.0050432249	 1.7129284275	-0.5420100953	 0.093622
H	 0.3521204444	 1.9354314748	 0.5898253566	 0.127863
H	-2.0288767744	-0.2576048792	-0.2504457798	 0.069343
H	-3.1803535656	-2.0129601726	 0.4974930649	 0.087519
H	-3.5664260528	-3.3068126334	-1.5630085019	 0.083803
H	-1.8755398775	-2.9373762558	-2.0309533355	 0.114261
H	-2.5344533078	-6.0102934386	-2.1037384105	 0.12412
H	-2.3721612281	-6.6563651165	-0.4651053465	 0.124715
H	-3.8506581213	-5.7733444264	-0.9253010899	 0.086139
H	-1.5236691427	-4.2993335598	 1.4479599914	 0.122455
H	-3.2917585859	-4.382454608	 1.1578890141	 0.085948
26.9988	65.8363	85.893	165.2152	205.6905	228.3007	269.3011	276.3228	319.1165	362.9765	384.3943	473.6905	572.9195	696.8924	855.4763	892.5913	929.3974	983.1789	1000.8526	1021.5588	1030.3855	1065.5493	1109.5434	1135.4153	1141.3521	1146.6868	1176.2434	1204.6566	1213.8621	1240.4218	1256.6186	1272.9255	1305.1555	1346.0663	1382.7664	1422.8818	1450.2652	1451.3385	1480.0129	1484.35	1485.7523	1497.6201	1504.9517	1515.1958	1780.2541	2910.6791	2958.1512	2962.8369	2971.0854	2980.0132	3056.6225	3056.7921	3062.2034	3065.2672	3076.3743	3077.1466	3099.9025
CN=COC1CN(C)C1	CN=COC1CN(C)C1	
InChI=1S/C6H12N2O/c1-7-5-9-6-3-8(2)4-6/h5-6H,3-4H2,1-2H3	InChI=1S/C6H12N2O/c1-7-5-9-6-3-8(2)4-6/h5-6H,3-4H2,1-2H3
