15
gdb 21169	3.33397	1.85822	1.27197	2.2552	63.11	-0.2106	0.0401	0.2507	932.0075	0.121036	-395.982407	-395.974846	-395.973902	-396.014484	27.693	
C	 0.2041820646	 1.1359494867	 0.4954936764	-0.320502
N	-0.0125527316	-0.0104972655	-0.3939324946	-0.412972
C	-1.2654469342	-0.6647516669	-0.2523330957	 0.027715
C	-1.3525497769	-1.9787613494	 0.1688175634	 0.429354
O	-0.376210707	-2.8420614188	 0.4896255845	-0.429503
N	-2.6572774903	-2.3056670786	 0.211967466	-0.265434
N	-3.4626546288	-1.2685226356	-0.1643203668	-0.243018
C	-2.6190661403	-0.2823596036	-0.4408970069	-0.059579
H	 1.2047261221	 1.5437592245	 0.3206221781	 0.116317
H	-0.528735178	 1.94679507	 0.3652554734	 0.10962
H	 0.1482960824	 0.7996964581	 1.5347707043	 0.130043
H	 0.1508857347	 0.2677938436	-1.3556289584	 0.231125
H	 0.4461446832	-2.3466454347	 0.3472470282	 0.304643
H	-3.0639844769	-3.1879828952	 0.4696766071	 0.276888
H	-3.0087854829	 0.6709954855	-0.7699086891	 0.105305
72.0183	161.5926	184.4933	259.1745	288.9385	395.0295	463.6993	508.9127	524.2991	636.853	684.6514	710.6955	746.4661	820.1539	886.0853	941.5964	1048.8211	1085.8775	1149.0839	1170.4859	1192.1293	1215.0901	1262.9269	1357.8051	1401.4185	1452.6966	1459.8391	1469.0108	1492.1748	1517.9544	1600.8313	1657.5652	2986.6701	3071.3818	3112.8345	3231.4518	3513.2668	3683.6728	3710.9529
CNC1=C(O)NN=C1	CNc1c(O)[nH]nc1	
InChI=1S/C4H7N3O/c1-5-3-2-6-7-4(3)8/h2,5H,1H3,(H2,6,7,8)	InChI=1S/C4H7N3O/c1-5-3-2-6-7-4(3)8/h2,5H,1H3,(H2,6,7,8)
