15
gdb 24845	2.3883	1.78895	1.02281	2.3735	82.9	-0.2448	-0.098	0.1467	1090.1717	0.116008	-413.003822	-412.996326	-412.995381	-413.036973	27.993	
N	 0.0004694856	 1.3080033079	-0.4460175106	-0.520741
C	 0.0605837815	 0.1304428797	 0.0625783147	 0.353906
N	-1.1430666925	-0.3837959799	 0.5242068363	-0.386546
C	-1.532126755	-1.5641625962	 1.1205336737	 0.352414
N	-2.7763514212	-1.6824613463	 1.4148009266	-0.502078
C	-0.5731380491	-2.6634984978	 1.4185707949	 0.00275
N	 0.6802724839	-2.8057796505	 1.2370567222	-0.258678
C	 1.5314598699	-1.8704873583	 0.6593675762	-0.021433
C	 1.3003064042	-0.6429375682	 0.1630860659	-0.099219
H	 0.920303836	 1.6105033468	-0.7585131011	 0.224183
H	-1.9137122421	 0.2601099311	 0.3897744507	 0.26868
H	-2.9588227605	-2.5854028919	 1.8487228355	 0.229064
H	-1.0824682859	-3.5080758257	 1.8903237631	 0.124041
H	 2.5567412271	-2.2297465184	 0.6188567548	 0.122886
H	 2.1626635081	-0.1169198622	-0.2361392029	 0.110771
32.5015	88.1238	240.5306	350.8112	380.2264	414.522	471.3254	514.5973	584.2139	650.2674	720.4312	742.6457	810.6519	814.0295	827.3406	858.3341	871.7867	955.6743	966.4843	1009.9208	1036.6498	1149.6202	1210.3073	1301.1999	1407.0861	1424.3128	1442.7049	1463.6417	1481.4979	1631.9889	1661.7346	1681.1666	1706.2227	3091.9259	3155.2565	3178.3312	3504.8073	3515.0262	3573.8351
N=C1NC(=N)C=NC=C1	[NH]C1=C[CH]N=C[C](N1)[NH]	
InChI=1S/C5H6N4/c6-4-1-2-8-3-5(7)9-4/h1-3H,(H3,6,7,9)	InChI=1S/C5H6N4/c6-4-1-2-8-3-5(7)9-4/h1-3H,(H3,6,7,9)
