17
gdb 50010	3.90093	1.03722	0.95443	2.8333	74.88	-0.2559	-0.0397	0.2162	1245.5024	0.134791	-421.826299	-421.818276	-421.817331	-421.859473	29.967	
O	-0.6367621341	 0.7447109842	 0.7586920985	-0.250491
C	 0.195086389	 0.9694613875	-0.0832224927	 0.14945
C	 1.2168688768	 2.0510856636	 0.032237374	-0.134998
O	 2.3967816824	 1.8725221826	-0.7651048129	-0.270134
C	 1.5149530859	 2.9288837004	-1.1242706084	 0.405226
C	 0.831707161	 2.840900182	-2.4975463348	-0.345396
C	 1.2366437103	 4.1394585431	-3.15102087	-0.064022
C	 1.8812283855	 4.9528538297	-2.3159745745	-0.064249
C	 2.034561774	 4.3610986421	-0.9373315919	-0.333929
H	 0.2680460475	 0.3795961654	-1.0233347055	 0.088347
H	 1.3716761532	 2.4370305111	 1.0393269675	 0.110928
H	 1.1813917646	 1.9542504193	-3.0382736105	 0.129736
H	-0.259807772	 2.7552132957	-2.4152251126	 0.12356
H	 1.0016769307	 4.3614142726	-4.1853953518	 0.101695
H	 2.253210751	 5.9396601673	-2.5656424258	 0.101845
H	 1.4489857185	 4.9136670124	-0.1907919778	 0.121842
H	 3.0701420056	 4.3402751011	-0.5794996509	 0.130591
62.1589	110.4469	144.5948	233.8151	370.0843	384.3328	404.9383	422.1408	490.3877	562.7862	693.6152	779.825	786.8751	824.6994	926.4656	956.2728	960.958	980.6074	981.9318	998.1786	1038.6335	1078.8066	1118.7745	1131.9548	1158.4435	1200.5237	1207.0105	1258.7095	1291.9874	1317.6539	1370.2871	1392.1644	1455.165	1469.7867	1478.6536	1689.1562	1824.5836	2897.6226	3021.1136	3022.6884	3065.6108	3066.3351	3127.3622	3192.1531	3216.1492
O=CC1OC11CC=CC1	O=C[C@H]1O[C@]21CC=CC2	
InChI=1S/C7H8O2/c8-5-6-7(9-6)3-1-2-4-7/h1-2,5-6H,3-4H2	InChI=1S/C7H8O2/c8-5-6-7(9-6)3-1-2-4-7/h1-2,5-6H,3-4H2/t6-/m1/s1
