12
gdb 21649	5.86686	1.65498	1.29218	3.4193	60.86	-0.2197	-0.0772	0.1426	855.0013	0.086517	-410.871598	-410.865174	-410.86423	-410.902049	24.43	
N	-0.0221402839	 1.358576204	 0.1514711095	-0.553356
C	-0.0349938047	-0.0130970499	 0.0419366968	 0.458517
N	-1.1777300788	-0.6404532826	 0.0096289766	-0.276573
N	-1.0894531159	-1.9947106306	-0.0109753095	-0.264903
C	 0.0571562061	-2.7577732931	-0.0196154443	 0.403306
O	 0.0603293177	-3.9774094908	-0.0378709821	-0.392734
C	 1.2508864679	-1.8943220401	-0.0148936121	-0.0756
N	 1.2158236378	-0.6056228872	 0.0163586346	-0.256774
H	 0.8174432871	 1.7975737016	-0.1919112911	 0.2661
H	-0.8839518657	 1.8213580216	-0.0922842489	 0.264866
H	-1.9774521316	-2.4779738003	-0.0284423299	 0.278423
H	 2.2155407537	-2.3977890526	-0.0451422298	 0.148727
110.6273	313.6521	345.3834	369.1932	413.9967	469.244	510.9786	531.0438	570.8575	632.6753	719.0607	795.6594	820.088	847.9241	982.3545	993.7922	1082.4073	1249.9677	1293.1048	1338.8474	1409.185	1465.6058	1567.2496	1627.019	1673.4989	1786.3375	3158.9689	3590.1467	3599.9035	3707.9763
NC1=NNC(=O)C=N1	Nc1n[nH]c(=O)cn1	
InChI=1S/C3H4N4O/c4-3-5-1-2(8)6-7-3/h1H,(H,6,8)(H2,4,5,7)	InChI=1S/C3H4N4O/c4-3-5-1-2(8)6-7-3/h1H,(H,6,8)(H2,4,5,7)
