17
gdb 127328	3.03058	1.47835	1.00602	4.3342	82.8	-0.2189	-0.0353	0.1836	1161.0849	0.137214	-414.207906	-414.199416	-414.198472	-414.241282	30.969	
C	-0.0138622068	 1.4200105041	 0.0877460288	-0.316187
N	-0.000845503	-0.0291252657	-0.0003752681	-0.007741
C	-0.0434517555	-0.7130637361	-1.1691181077	 0.111577
N	-0.0331953982	-1.9970869446	-1.2827197842	-0.347287
C	 0.0269063616	-2.7412147494	-0.0977924234	 0.269424
N	 0.0434378194	-4.0216789415	-0.0506470423	-0.528856
C	 0.073434643	-1.973043959	 1.1658618626	 0.338842
C	 0.1394687847	-2.7108858405	 2.4639635385	-0.454523
N	 0.0597148149	-0.6799668258	 1.2012959632	-0.285948
H	 0.8935954714	 1.7772136067	 0.58259107	 0.152067
H	-0.0633688947	 1.8374559842	-0.9192812571	 0.141802
H	-0.8820709307	 1.7564272534	 0.6612960609	 0.152094
H	-0.0896552015	-0.0919236967	-2.0626914604	 0.130526
H	 0.0057812517	-4.3847538634	-1.0059271065	 0.215813
H	 1.0207627745	-3.3596964252	 2.4793830502	 0.151328
H	 0.1701515687	-2.0109671264	 3.3001847044	 0.125814
H	-0.7238928195	-3.3769646441	 2.558270071	 0.151257
74.2199	105.3811	161.477	186.0494	286.5153	313.304	343.2714	447.0401	486.8982	506.9744	516.9674	596.9637	694.6228	786.8653	813.5254	905.4093	971.754	972.4432	1002.9486	1052.6717	1056.4383	1111.3481	1154.9429	1218.4462	1282.636	1356.2521	1389.2926	1407.9094	1458.797	1462.8245	1463.0243	1471.3528	1473.9634	1520.5825	1628.8165	1660.8752	1686.3759	3046.2798	3048.4052	3105.3766	3112.2901	3137.5705	3147.8664	3149.7092	3453.2958
CN1C=NC(=N)C(C)=N1	CN1CN=C([NH])C(=N1)C	
InChI=1S/C5H8N4/c1-4-5(6)7-3-9(2)8-4/h3,6H,1-2H3	InChI=1S/C5H9N4/c1-4-5(6)7-3-9(2)8-4/h6H,3H2,1-2H3
