23
gdb 120606	3.15976	0.7821	0.70163	2.7646	88.48	-0.2462	-0.0191	0.2271	1724.218	0.202878	-388.305486	-388.294599	-388.293655	-388.342169	38.773	
C	-0.1460954293	 1.4213011096	 0.1494522573	-0.382829
C	-0.1651545445	-0.085014443	-0.1216333312	-0.155675
C	 0.9161219822	-0.5276676993	-1.1191645568	-0.210419
C	 0.8891165936	-2.0211892564	-1.364532178	-0.007879
C	 0.0332925727	-2.6407953303	-2.4170119311	-0.311681
C	 1.5520403993	-2.6694115528	-2.5890856634	 0.2027
C	 2.2211972817	-1.8480613643	-3.673299488	-0.487633
C	 2.1860988054	-3.9870683501	-2.3089794506	 0.100017
O	 1.7779429246	-4.7971726555	-1.5092909378	-0.275614
H	 0.8179357161	 1.7379608947	 0.5630441573	 0.114784
H	-0.3132184531	 1.9925192214	-0.7707384917	 0.11301
H	-0.9242226198	 1.7072225491	 0.8638425763	 0.113945
H	-0.0302526278	-0.6308817029	 0.8209497766	 0.100418
H	-1.1492568288	-0.3817785822	-0.5053948862	 0.101409
H	 0.7771352121	 0.0177131798	-2.0602451739	 0.092982
H	 1.9025059615	-0.2328251004	-0.7358335484	 0.098791
H	 1.0049932182	-2.6275088842	-0.4690389833	 0.107287
H	-0.4439675666	-3.59024188	-2.2017985331	 0.133248
H	-0.5093994365	-1.9842463921	-3.0904580396	 0.111418
H	 1.6753904737	-0.9255458192	-3.8800577147	 0.125602
H	 3.2450048804	-1.571358506	-3.3962702031	 0.123928
H	 2.2727877006	-2.4118744757	-4.6116675357	 0.123682
H	 3.1048759845	-4.1935351202	-2.905085761	 0.068509
65.7971	72.1412	97.5122	108.0741	135.6234	199.7327	235.4265	242.8115	270.1314	326.4083	362.2317	450.535	461.047	615.6556	728.1706	749.6032	797.5167	860.1664	886.5244	908.4263	925.1108	951.7326	991.2617	1038.6702	1048.4048	1070.7749	1099.831	1115.8091	1132.9863	1141.3255	1199.5791	1256.3587	1275.9635	1302.3255	1313.2233	1330.268	1383.2108	1410.3474	1416.0371	1423.5626	1434.7642	1472.3154	1482.3909	1491.3666	1494.3981	1498.6797	1500.77	1510.4477	1803.99	2864.0394	3012.0256	3023.2112	3028.9869	3030.6318	3044.1121	3064.6671	3085.0788	3095.5711	3102.847	3124.1538	3127.3372	3139.4744	3221.7571
CCCC1CC1(C)C=O	CCC[C@H]1C[C@]1(C)C=O	
InChI=1S/C8H14O/c1-3-4-7-5-8(7,2)6-9/h6-7H,3-5H2,1-2H3	InChI=1S/C8H14O/c1-3-4-7-5-8(7,2)6-9/h6-7H,3-5H2,1-2H3/t7-,8+/m0/s1
