22
gdb 8106	2.84227	1.8297	1.39941	0.2487	82.62	-0.2379	0.0863	0.3241	1025.4775	0.199791	-313.052401	-313.043567	-313.042623	-313.084878	34.17	
C	-0.2536703531	 1.2791158695	-0.6440235069	-0.422351
C	 0.1431295526	-0.1817464371	-0.5518858268	-0.034824
C	 1.5299699907	-0.7842231809	-0.6083024758	-0.142801
C	 2.6055564036	-0.0041670732	 0.1624654399	 0.056506
C	 3.1832538871	 1.295215264	-0.3916297858	-0.414177
C	 1.6740801069	-0.007611706	 1.4217218888	-0.32281
C	 0.6661123941	-0.8949542456	 0.6652487983	 0.344837
C	-0.0084207636	-2.0901815988	 1.2781008697	-0.495447
H	-0.1401482583	 1.6574014181	-1.6662373339	 0.114564
H	-1.3058033852	 1.4028904169	-0.3622834589	 0.110306
H	 0.3336624682	 1.9223888623	 0.013586585	 0.120962
H	-0.5516756889	-0.8209616908	-1.0976770589	 0.077167
H	 1.7538112722	-1.5591751945	-1.3354044754	 0.070781
H	 3.4388853367	-0.6872516625	 0.3617857502	 0.072383
H	 2.4129524773	 2.0390773046	-0.607693769	 0.116898
H	 3.8887921703	 1.7413562286	 0.3189284708	 0.108993
H	 3.7295167248	 1.1072765764	-1.3231043321	 0.111407
H	 2.1265329816	-0.5120838092	 2.2793966043	 0.095558
H	 1.3016078707	 0.9648706124	 1.7612731005	 0.090722
H	-0.7727535089	-1.7886732917	 2.0057644411	 0.11586
H	-0.5045875753	-2.7002262784	 0.5156866979	 0.113962
H	 0.7090784366	-2.7311145142	 1.8045323169	 0.111505
146.4925	186.352	197.6613	201.7419	223.185	241.089	279.8389	340.5839	382.3157	471.2267	549.9115	637.453	674.8686	730.9705	831.7849	867.8919	889.1697	930.7195	943.737	982.242	1003.2693	1039.8164	1060.9078	1075.5984	1114.9277	1121.4946	1141.5409	1172.7991	1189.9202	1235.7808	1261.3123	1271.1494	1309.0951	1350.0946	1380.9234	1407.9364	1411.7675	1416.501	1466.8304	1485.6885	1488.5542	1496.6271	1498.3562	1502.6264	1507.5312	1509.4172	3013.609	3027.595	3029.6747	3034.1605	3041.509	3068.5639	3082.1459	3085.7237	3089.6982	3094.1526	3098.629	3120.4044	3132.6748	3149.9218
CC1C2C(C)CC12C	C[C@H]1[C@H]2[C@@H](C)C[C@@]12C	
InChI=1S/C8H14/c1-5-4-8(3)6(2)7(5)8/h5-7H,4H2,1-3H3	InChI=1S/C8H14/c1-5-4-8(3)6(2)7(5)8/h5-7H,4H2,1-3H3/t5-,6-,7+,8-/m0/s1
