17
gdb 7573	3.02387	1.9693	1.51645	4.8521	63.58	-0.2502	0.019	0.2692	880.415	0.143273	-401.024666	-401.01695	-401.016006	-401.056738	29.313	
N	 0.0229279421	 1.2478502093	-0.1928060785	-0.601326
H	-0.6478719281	 1.1314359686	-0.9483338934	 0.244193
H	 0.6508223998	 0.4517494682	-0.2271177225	 0.239365
H	 0.1139394882	 3.1454954395	 0.0108965213	 0.304148
C	-0.6585480225	 1.3192710355	 1.0999636644	 0.143719
C	-1.7434176112	 0.2758209021	 1.5094342874	-0.250682
C	-1.0848081828	 0.1783582345	 2.9104378992	-0.203641
C	 0.18599021	 0.8540830103	 2.3324230317	-0.24361
C	-1.1375650637	 2.7638330302	 1.3264766427	 0.423948
O	-0.4855342715	 3.6699394813	 0.5840593185	-0.374795
O	-1.9883989143	 3.0662049468	 2.1221647083	-0.347783
H	-2.7790931706	 0.6147087667	 1.4673036439	 0.122039
H	-1.6290348822	-0.644461245	 0.9289157936	 0.089453
H	-1.589937515	 0.8232269001	 3.6296362072	 0.137772
H	-0.9606323276	-0.8177750106	 3.3387248069	 0.098232
H	 0.9394656635	 0.1231214845	 2.0199811497	 0.097014
H	 0.6760970558	 1.6291343279	 2.9249053796	 0.121954
69.4884	142.1407	230.5378	277.3336	307.2366	369.6639	378.239	469.4533	560.8435	656.2877	735.9688	757.9533	791.1884	832.278	846.6218	887.0419	920.9102	944.3487	976.4619	999.2521	1067.0236	1133.3381	1195.6552	1205.0075	1215.8371	1241.2448	1256.3017	1285.8408	1291.7548	1334.7014	1420.0819	1463.2283	1477.4427	1496.661	1650.0397	1856.9931	3046.3408	3058.9596	3082.3869	3112.4961	3130.3603	3148.6544	3487.2047	3505.4745	3573.4041
[NH3+]C1(CCC1)C([O-])=O	NC1(CCC1)C(=O)O	
InChI=1S/C5H9NO2/c6-5(4(7)8)2-1-3-5/h1-3,6H2,(H,7,8)	InChI=1S/C5H9NO2/c6-5(4(7)8)2-1-3-5/h1-3,6H2,(H,7,8)
