17
gdb 94347	2.63922	1.29583	1.10734	2.1913	75.76	-0.2285	0.0422	0.2707	1149.9608	0.133104	-421.748204	-421.739134	-421.73819	-421.782323	33.399	
O	 0.0753974908	 1.2258068598	-0.3642569097	-0.422164
C	 0.0609941576	-0.107576655	 0.0770362031	-0.03607
C	-0.027683537	-0.359427355	 1.6054910092	-0.106227
O	-1.2807773449	-1.0732117236	 1.445708632	-0.310728
C	-1.315710447	-0.7511306419	 0.0627053142	 0.45995
C	-2.5312432857	-0.2972543833	-0.6536490595	-0.349063
C	-1.9252984051	-1.67480977	-0.9690228073	-0.305715
C	-1.2364098068	-1.91455208	-2.1996543897	 0.339079
C	-0.6279866877	-2.1017167613	-3.2214321178	-0.465909
H	 0.9705493441	 1.4526906468	-0.6302871089	 0.293167
H	 0.8203679577	-0.7126338799	-0.4301645197	 0.096091
H	 0.7431791362	-0.9904387029	 2.0595032276	 0.10662
H	-0.1549117673	 0.564611697	 2.1801658531	 0.111939
H	-3.4671218145	-0.2995783537	-0.1061622837	 0.129412
H	-2.4112529397	 0.4894836178	-1.3895234664	 0.141803
H	-2.4650587563	-2.5195788826	-0.550067988	 0.123215
H	-0.1106861144	-2.2729468422	-4.1324618883	 0.194599
67.9917	94.0172	140.5133	149.1313	223.9419	265.521	365.3395	405.1973	453.5506	512.1815	569.8791	574.7655	628.0236	648.3786	778.0915	811.1554	871.3219	894.724	931.5792	963.9591	1003.3289	1040.6968	1059.0787	1073.9462	1108.8467	1144.544	1172.4399	1195.4192	1226.8162	1271.3867	1315.8946	1346.2784	1393.8963	1457.0753	1474.0816	1515.9273	2231.2154	3032.1869	3045.7426	3091.9388	3140.4506	3149.2064	3238.643	3505.4501	3842.1231
OC1COC11CC1C#C	O[C@H]1CO[C@]21C[C@H]2C#C	
InChI=1S/C7H8O2/c1-2-5-3-7(5)6(8)4-9-7/h1,5-6,8H,3-4H2	InChI=1S/C7H8O2/c1-2-5-3-7(5)6(8)4-9-7/h1,5-6,8H,3-4H2/t5-,6+,7-/m1/s1
