15
gdb 33813	2.33025	1.53715	1.13449	1.3254	81.76	-0.2292	-0.0055	0.2237	1092.0673	0.109657	-383.375952	-383.367644	-383.366699	-383.408686	31.893	
C	 0.0098396517	-1.2269207742	-0.0297275485	-0.406676
C	 0.0056835485	-0.0232108559	-0.0193158858	 0.212602
C	-0.0138241194	 1.3927132199	 0.0129144328	 0.013969
C	 0.244864878	 2.2827233496	-1.1905549053	-0.369151
C	 1.1402010237	 2.4419463822	-0.0003111836	 0.249638
O	 0.492117739	 3.2379897305	 0.9949228225	-0.312289
C	-0.569919001	 2.2619081177	 1.142249745	-0.131414
C	 2.5510726724	 2.3054519864	 0.0141496811	 0.263094
C	 3.7481411245	 2.1878030587	 0.0264900735	-0.421677
H	 0.0192508603	-2.2885697067	-0.041559974	 0.192025
H	 0.6807873464	 1.7649208628	-2.0373442258	 0.144519
H	-0.4470841026	 3.0866815555	-1.4277691286	 0.124872
H	-1.5628239518	 2.6989826699	 0.990304887	 0.113262
H	-0.5126429089	 1.7744729746	 2.1200142758	 0.126891
H	 4.8051771392	 2.0854161889	 0.0399170439	 0.200336
84.8788	149.6274	171.3531	208.943	326.4751	391.2409	426.8765	508.5245	530.347	546.3133	576.3109	583.5501	620.9057	660.0412	668.4648	694.4302	779.6617	805.7584	928.3024	971.0009	991.6883	1039.9643	1080.5726	1113.6917	1151.9732	1191.3983	1275.3416	1333.8878	1384.2844	1471.254	1516.1605	2231.1744	2236.6357	3037.9293	3096.6314	3118.3995	3226.5387	3500.9563	3502.483
C#CC12CC1(OC2)C#C	C#C[C@]12C[C@]1(OC2)C#C	
InChI=1S/C8H6O/c1-3-7-5-8(7,4-2)9-6-7/h1-2H,5-6H2	InChI=1S/C8H6O/c1-3-7-5-8(7,4-2)9-6-7/h1-2H,5-6H2/t7-,8-/m1/s1
