18
gdb 26414	4.33999	0.96454	0.87802	0.3457	74.53	-0.2133	0.0049	0.2181	1356.3805	0.1471	-439.116587	-439.107819	-439.106874	-439.150959	32.004	
C	 0.1016871991	 1.4985523596	 0.0184853767	-0.397145
C	-0.0211446483	-0.0225388326	 0.0322508037	 0.145822
C	-1.4607816342	-0.5072461924	-0.0634035939	-0.392219
O	 0.6564056163	-0.5920467481	-1.1133725634	-0.295221
C	 1.991173107	-0.6892088708	-1.0701733254	 0.348861
C	 2.8071705301	-1.0963536522	-2.0802542542	-0.162898
O	 4.0939374622	-1.0746930543	-1.5910559234	-0.13768
C	 3.9690951932	-0.6528075793	-0.3250066041	 0.082415
N	 2.752857844	-0.4061584138	 0.0513827066	-0.336676
H	 1.1483851368	 1.8026802177	 0.0882138746	 0.13733
H	-0.3274201408	 1.9088510487	-0.901278307	 0.119335
H	-0.4351952391	 1.926208902	 0.8712556261	 0.115312
H	 0.4511799945	-0.4189024457	 0.9366135009	 0.108513
H	-1.9296562017	-0.1429065598	-0.9829071948	 0.124058
H	-1.5014640412	-1.5995832306	-0.0657748471	 0.124168
H	-2.0398818259	-0.1389676248	 0.7883929374	 0.117373
H	 2.6679440924	-1.4123989923	-3.0968017042	 0.146191
H	 4.8739318755	-0.5574076216	 0.2541303716	 0.15246
39.6121	72.2697	161.3033	213.4527	249.4027	306.932	320.782	388.3381	449.5252	493.4789	638.6205	663.5884	724.5147	738.0002	828.6063	846.8579	932.2919	933.7481	944.1785	950.6399	1026.6054	1082.9632	1143.1611	1157.4682	1166.5632	1199.6857	1251.0144	1333.511	1344.5915	1364.7873	1384.685	1401.6638	1417.7273	1480.872	1485.768	1495.6761	1510.5541	1549.088	1652.6337	3040.0137	3044.6015	3062.9983	3109.375	3119.806	3123.6438	3132.1242	3275.3168	3316.5487
CC(C)OC1=COC=N1	CC(C)Oc1cocn1	
InChI=1S/C6H9NO2/c1-5(2)9-6-3-8-4-7-6/h3-5H,1-2H3	InChI=1S/C6H9NO2/c1-5(2)9-6-3-8-4-7-6/h3-5H,1-2H3
