16
gdb 29837	4.06927	1.06381	0.84787	2.5031	83.35	-0.1862	0.02	0.2062	1304.6191	0.123023	-400.752027	-400.742873	-400.741928	-400.786209	33.427	
C	-0.0357708202	 1.4666659859	 0.0278345822	-0.334711
N	-0.013288627	 0.0182366252	-0.0008448691	-0.042616
C	-0.0643296089	-0.7780698263	-1.1233886189	-0.228269
C	 0.034104779	-2.0969009831	-0.7277172284	 0.169722
C	 0.1583259354	-2.1009189989	 0.7061009576	-0.462674
C	 0.1261687246	-0.7882445795	 1.0979914161	 0.4036
O	 0.2039906461	-0.1752040502	 2.3070237556	-0.445577
C	 0.0109882627	-3.228419577	-1.5739432339	 0.24869
C	-0.0064466086	-4.2035145203	-2.2824372904	-0.458145
H	 0.9693697466	 1.8828164898	 0.1573518871	 0.142463
H	-0.4508229587	 1.8311936483	-0.9132300244	 0.141174
H	-0.6628416916	 1.8146162234	 0.8513984194	 0.153097
H	-0.1693055369	-0.3470975799	-2.1048084768	 0.125223
H	 0.2498645942	-2.9682155569	 1.3399150324	 0.100205
H	 0.2547452521	-0.8534346913	 2.9870824966	 0.31013
H	-0.0227820689	-5.0584026693	-2.9108069652	 0.177688
46.8096	120.7331	140.6757	177.2394	241.4655	281.14	302.0816	422.2695	461.6011	514.778	517.3271	576.0779	624.4536	642.3205	655.2087	665.2714	687.7486	750.7844	819.9364	995.4372	1076.7737	1135.9292	1151.2187	1171.6713	1211.3506	1283.8831	1356.5628	1389.8093	1453.6549	1483.3644	1510.3429	1526.3474	1577.2043	1616.475	2227.4028	3039.5131	3109.7912	3145.6701	3257.7031	3275.2298	3507.1873	3850.253
CN1C=C(C=C1O)C#C	Cn1cc(cc1O)C#C	
InChI=1S/C7H7NO/c1-3-6-4-7(9)8(2)5-6/h1,4-5,9H,2H3	InChI=1S/C7H7NO/c1-3-6-4-7(9)8(2)5-6/h1,4-5,9H,2H3
