19
gdb 66850	2.62222	2.08136	1.86351	0.6925	77.34	-0.2051	0.0719	0.277	874.8047	0.16181	-381.998548	-381.991831	-381.990886	-382.029112	28.358	
C	 0.1288821782	 1.5250359783	 0.0329231346	-0.507561
C	-0.0065097654	 0.0317568187	-0.0505117034	 0.343897
C	 0.5995280288	-0.8034889015	-1.1908359691	-0.101718
C	 0.764608704	-2.1208714679	-0.5634167677	-0.032313
C	 1.0235569112	-1.9215263665	 0.9184344767	-0.201589
N	 0.2282197324	-0.7354499927	 1.2812780013	-0.171021
C	-1.2218424419	-1.1564270881	 1.2667519393	-0.189102
C	-1.2978202022	-0.799253776	-0.2044507533	-0.02248
N	-0.5710670391	-1.7640568422	-1.1392278476	-0.175353
H	 1.1679713976	 1.8054550625	 0.2389165811	 0.126022
H	-0.1722925587	 1.9972153536	-0.908391276	 0.119616
H	-0.4908717742	 1.9332452705	 0.8367309303	 0.126829
H	 1.0391423677	-0.4530262262	-2.1185555457	 0.091749
H	 1.2347740527	-2.9362542526	-1.1052351844	 0.097138
H	 0.7327719955	-2.7673220785	 1.5490780145	 0.108949
H	 2.0949891771	-1.7416268166	 1.0790550035	 0.103663
H	-1.4019210117	-2.1962885745	 1.5576639393	 0.102699
H	-1.8215539796	-0.4967986234	 1.9029945703	 0.105615
H	-2.2144713824	-0.450595437	-0.6842817037	 0.07496
201.3974	217.3091	270.4167	322.3711	467.2499	475.4975	587.7041	625.0134	675.722	702.6429	751.1825	763.0719	833.9688	867.8218	890.9511	908.0718	927.7627	942.0906	981.2613	986.662	1041.6756	1059.4412	1087.4519	1102.9678	1125.4248	1175.151	1177.2457	1201.8687	1216.7375	1246.3031	1261.913	1296.4112	1307.4046	1328.1408	1352.5057	1392.7348	1415.6508	1484.326	1487.0285	1492.7696	1514.306	3014.8643	3030.2455	3034.345	3076.6332	3085.5542	3087.6936	3096.2784	3108.8373	3156.3058	3169.9297
CC12C3C4CN1CC2N34	C[C@@]12[C@H]3[C@H]4CN1C[C@@H]2N34	
InChI=1S/C7H10N2/c1-7-5-3-8(7)2-4-6(7)9(4)5/h4-6H,2-3H2,1H3	InChI=1S/C7H10N2/c1-7-5-3-8(7)2-4-6(7)9(4)5/h4-6H,2-3H2,1H3/t4-,5+,6-,7-,9?/m1/s1
