20
gdb 32631	2.90741	1.26812	0.96426	3.2878	82.94	-0.1788	0.0393	0.2181	1274.2558	0.171887	-399.376453	-399.366753	-399.365809	-399.411051	35.25	
C	 0.0065499992	 1.5713058179	 0.0112116234	-0.375637
C	-0.0162454406	 0.0413222937	-0.0512082236	-0.158919
N	 0.7078764483	-0.5012399151	-1.1875573625	-0.036315
C	 0.1572113861	-0.9125596345	-2.3604289227	-0.017044
N	 1.063456321	-1.2982371096	-3.2340302063	-0.328196
C	 2.2653687907	-1.1344979663	-2.5936608178	 0.194185
N	 3.4741540666	-1.5071466521	-3.2098618332	-0.600725
C	 2.0881560933	-0.6493345768	-1.3168423834	 0.224423
C	 3.0748001682	-0.3691729468	-0.2364804101	-0.518221
H	 1.0285080232	 1.9484300265	 0.1056921642	 0.132561
H	-0.4324102775	 2.0010501423	-0.8937867135	 0.131696
H	-0.5670095466	 1.9222460162	 0.8748042649	 0.120933
H	 0.4024895297	-0.382572156	 0.8676416473	 0.121751
H	-1.0473109593	-0.3180319284	-0.1236852283	 0.122402
H	-0.9117275301	-0.9111805111	-2.5176466947	 0.117739
H	 3.2817604981	-1.8144634212	-4.1561101336	 0.243497
H	 4.1445584104	-0.7484035688	-3.2471892953	 0.236839
H	 3.2512241896	 0.7016423963	-0.0647191153	 0.121498
H	 2.7766039564	-0.8052015784	 0.7250651576	 0.125236
H	 4.0327086032	-0.8201159277	-0.5107894872	 0.142298
69.221	102.9671	154.4493	155.0896	205.5915	225.3753	261.3482	300.312	305.9961	413.0583	495.8753	586.9731	646.8759	703.3252	708.4776	764.0358	780.5109	801.8863	833.3329	955.3824	968.1287	1063.2199	1077.2662	1092.9835	1114.6441	1167.0987	1248.4061	1252.5099	1292.4547	1365.2396	1390.313	1409.2119	1414.2384	1419.7497	1466.8415	1479.4106	1488.1101	1489.4911	1494.4358	1507.8613	1533.3015	1641.9121	1648.7235	3004.0299	3043.694	3047.4813	3050.2863	3087.7606	3108.3469	3117.2197	3126.8367	3239.9631	3520.271	3608.2716
CCN1C=NC(N)=C1C	CCn1cnc(N)c1C	
InChI=1S/C6H11N3/c1-3-9-4-8-6(7)5(9)2/h4H,3,7H2,1-2H3	InChI=1S/C6H11N3/c1-3-9-4-8-6(7)5(9)2/h4H,3,7H2,1-2H3
