19
gdb 17894	3.76752	1.94974	1.75605	1.7673	71.09	-0.2087	0.0841	0.2928	842.7129	0.167655	-365.027315	-365.020373	-365.019429	-365.057971	27.762	
C	-0.1713501368	 1.4139492383	-0.0198970461	-0.328034
N	 0.0525726953	-0.0237952661	 0.0188550493	-0.099636
C	 1.2405568778	-0.4932359337	-0.7801621833	-0.009501
C	 2.1572924112	-0.3072796033	 0.4554315794	-0.234955
C	 0.8240760536	-0.5041752885	 1.2205737293	-0.009501
C	 0.5215742812	-1.9989851722	 1.3314985682	-0.059956
O	 1.0535378345	-2.7027782868	 0.2125724292	-0.268084
C	 1.0107045939	-1.9861380365	-1.0182393249	-0.059956
H	 0.7233162994	 2.0337486011	 0.1697444088	 0.091085
H	-0.5662304922	 1.689101583	-1.0037042081	 0.118904
H	-0.926617648	 1.6796335141	 0.7274307454	 0.118904
H	 1.4386530454	 0.0532655879	-1.7065211439	 0.067144
H	 2.9604433639	-1.0288277358	 0.618673511	 0.109444
H	 2.5434419166	 0.7088643795	 0.5413697875	 0.103998
H	 0.6348851626	 0.032153803	 2.1547069389	 0.067144
H	 0.9959693257	-2.4410883397	 2.2149170444	 0.100246
H	-0.5675356044	-2.1351782921	 1.4045269417	 0.096253
H	 0.0414958528	-2.1191808187	-1.5212066526	 0.096253
H	 1.7991655274	-2.4199923936	-1.643566154	 0.100246
183.4059	209.2602	266.8096	276.9562	342.5339	394.7403	445.4939	569.238	638.3523	781.8099	836.0974	850.2669	864.8889	866.908	917.047	966.7331	1005.7621	1026.0977	1075.4453	1076.1523	1078.3078	1150.2596	1159.5997	1178.3493	1182.5491	1209.4483	1246.4612	1256.2968	1268.3533	1320.194	1325.7278	1346.0183	1374.3493	1413.515	1448.4786	1478.3829	1487.9188	1497.5538	1499.8693	1501.2359	2943.5956	2993.0004	2999.6761	3055.0995	3062.3961	3064.0702	3070.8876	3073.9848	3081.7843	3095.5202	3135.0385
CN1C2CC1COC2	CN1[C@H]2C[C@@H]1COC2	
InChI=1S/C6H11NO/c1-7-5-2-6(7)4-8-3-5/h5-6H,2-4H2,1H3	InChI=1S/C6H11NO/c1-7-5-2-6(7)4-8-3-5/h5-6H,2-4H2,1H3/t5-,6+
