15
gdb 69155	2.71036	1.67816	1.3335	3.4855	64.59	-0.2431	-0.0394	0.2038	955.3245	0.112077	-457.737999	-457.730781	-457.729837	-457.769425	28.53	
O	-0.021437665	 1.3780567568	 0.0789985207	-0.461145
C	 0.0041729963	-0.007129926	-0.0077388424	 0.364997
C	-0.4241187025	-0.7479246705	-1.2340579076	-0.351175
C	-1.281564596	-0.8005582284	 0.0378247766	-0.212346
C	-1.1069602004	-1.9090572631	 1.0445194638	 0.421812
O	-1.9829884114	-2.5878030434	 1.517897251	-0.315808
C	 0.3422735522	-1.9049623903	 1.5190518874	-0.085047
O	 1.3067441386	-2.0654621804	 0.456297734	-0.243254
C	 0.9991226471	-0.7451600223	 0.895753388	-0.046396
H	 0.6331140997	 1.7327868829	-0.5331437191	 0.292234
H	-0.8613675855	-0.1500263139	-2.0266824501	 0.12621
H	 0.1266356012	-1.6246411033	-1.5469430432	 0.15039
H	-2.2532345498	-0.3249990979	-0.0040736853	 0.125234
H	 0.5997717227	-2.3524183181	 2.4739334916	 0.121375
H	 1.8010400127	-0.1834469922	 1.3669799846	 0.112919
127.3411	211.0604	284.9561	316.0623	334.5801	390.979	453.3888	514.8654	571.1347	589.9158	707.4429	758.0983	782.7049	857.3599	862.0319	912.8941	945.9335	968.721	990.0497	1019.8419	1072.5516	1084.6136	1096.1636	1180.949	1214.8215	1238.4314	1264.0279	1299.8343	1318.1312	1377.4591	1412.4791	1475.9537	1835.1844	3145.4168	3157.9081	3175.8217	3203.2074	3248.4299	3795.254
OC12CC1C(=O)C1OC21	O[C@]12C[C@H]1C(=O)[C@H]1O[C@@H]21	
InChI=1S/C6H6O3/c7-3-2-1-6(2,8)5-4(3)9-5/h2,4-5,8H,1H2	InChI=1S/C6H6O3/c7-3-2-1-6(2,8)5-4(3)9-5/h2,4-5,8H,1H2/t2-,4+,5+,6+/m0/s1
