18
gdb 49514	4.05475	1.3132	1.26155	2.7824	75.83	-0.2369	-0.0294	0.2075	1033.9974	0.149318	-401.890809	-401.88381	-401.882866	-401.922367	28.086	
O	-0.9389059694	 1.1286763677	 0.4597460468	-0.244758
C	 0.078579574	 0.9696001641	-0.1685817238	 0.110581
C	 1.3138133327	 1.8244230321	-0.0997044134	-0.086767
C	 1.3923397735	 2.9793681918	-1.1628203292	-0.075659
C	 0.4327823284	 3.7678514279	-0.2031159245	-0.219569
C	 1.2990258555	 3.0416314876	 0.869368596	 0.001034
N	 2.5890466712	 3.7875266716	 0.6892447685	-0.110256
C	 3.7108654903	 3.0419651636	 0.0915387253	-0.253534
C	 2.7077607291	 3.682798212	-0.7961304835	-0.026234
H	 0.1786071904	 0.1090870625	-0.8706918213	 0.07951
H	 2.158651714	 1.1307558831	-0.0816791889	 0.078724
H	 1.1765542933	 2.8109295796	-2.2177764446	 0.076093
H	 0.5064453682	 4.8569852463	-0.2171362379	 0.107022
H	-0.6031176483	 3.4358501339	-0.2279383412	 0.131888
H	 1.0003295067	 2.9458264054	 1.9110510644	 0.089117
H	 4.6620508658	 3.5517427968	 0.2199246542	 0.120651
H	 3.7862214908	 1.9648654879	 0.1865657824	 0.120251
H	 2.9602753637	 4.5881079858	-1.3427830291	 0.101907
78.6482	183.5553	255.784	343.1521	366.9299	468.2513	563.0823	641.6908	681.2616	745.8897	791.28	804.703	852.1731	872.16	884.9711	922.177	995.0927	1001.1371	1005.5476	1036.4698	1051.1582	1061.0477	1096.6212	1107.4636	1110.4479	1117.9474	1156.1921	1205.3746	1227.6484	1240.3715	1246.0988	1254.2906	1266.645	1358.954	1370.7433	1431.1749	1505.4828	1513.9141	1816.2148	2857.9737	3064.7145	3086.9799	3118.7788	3124.1965	3138.0951	3146.4225	3171.2188	3203.01
O=CC1C2CC1N1CC21	O=C[C@H]1[C@H]2C[C@@H]1N1C[C@@H]21	
InChI=1S/C7H9NO/c9-3-5-4-1-6(5)8-2-7(4)8/h3-7H,1-2H2	InChI=1S/C7H9NO/c9-3-5-4-1-6(5)8-2-7(4)8/h3-7H,1-2H2/t4-,5+,6+,7+,8?/m1/s1
