17
gdb 41844	2.96077	2.06718	1.77534	0.5917	65.1	-0.2476	0.0841	0.3318	825.9711	0.140051	-458.976101	-458.97017	-458.969226	-459.006357	24.835	
C	-0.0252303468	 1.5550381615	 0.0501883775	-0.094976
O	 1.3249218261	 2.0100205787	-0.104208597	-0.274138
C	 2.1882496576	 0.889086103	-0.197973533	 0.089282
C	 2.6067795141	 0.2988274996	 1.1835854292	-0.256059
C	 1.6943583354	-0.936633101	 1.2257827186	 0.167294
O	 0.3312615879	-0.5224106738	 1.3166424378	-0.284628
C	 0.0253801041	 0.0329828951	 0.0239790212	 0.065118
C	 1.335159223	-0.2920020644	-0.7454414311	 0.012315
O	 1.8182238603	-1.4549014052	-0.0890233571	-0.244678
H	-0.4434648353	 1.9209442008	 0.9942348782	 0.116833
H	-0.631965434	 1.9455084692	-0.7776733274	 0.102472
H	 3.0371914828	 1.1747777933	-0.8196976822	 0.089683
H	 3.6564336896	-0.0062740465	 1.1972603767	 0.108915
H	 2.4217629817	 1.0069090496	 1.9924731277	 0.120053
H	 1.8912746063	-1.7029010009	 1.9736781145	 0.096574
H	-0.8851823104	-0.4324560582	-0.3600338264	 0.089319
H	 1.2752160975	-0.4338141607	-1.8213929772	 0.096621
126.8454	326.9906	380.4741	444.3295	557.0676	590.5279	646.3024	732.239	809.908	820.5536	833.7925	863.6626	884.0124	911.4204	943.9	981.1739	990.0339	1011.3172	1039.9387	1048.4987	1081.3855	1085.3613	1111.8037	1174.1709	1189.1404	1218.7855	1253.2296	1259.7205	1290.7594	1311.9206	1321.336	1332.7629	1358.2148	1370.3208	1395.4068	1470.5191	1510.2566	3016.5357	3067.7391	3070.4082	3088.1273	3109.2583	3137.6268	3145.0097	3162.5624
C1OC2CC3OC1C2O3	C1O[C@H]2C[C@H]3O[C@@H]1[C@@H]2O3	
InChI=1S/C6H8O3/c1-3-6-4(2-7-3)8-5(1)9-6/h3-6H,1-2H2	InChI=1S/C6H8O3/c1-3-6-4(2-7-3)8-5(1)9-6/h3-6H,1-2H2/t3-,4-,5-,6+/m0/s1
