25
gdb 122189	3.38691	0.71272	0.67716	1.9761	89.11	-0.2415	0.0734	0.3149	1827.4664	0.227526	-389.481867	-389.471053	-389.470109	-389.519129	38.995	
C	 0.0686202012	 1.5231998493	 0.236253239	-0.381771
C	 0.0307335807	 0.0045208786	 0.0469331269	-0.160645
C	 0.6952252532	-0.457590175	-1.2552061233	-0.174004
C	 0.6452396672	-1.9787060889	-1.4462558249	-0.255197
C	 1.4098575145	-2.5129449385	-2.6646882667	 0.297465
C	 0.8880867092	-1.9651554702	-3.9908466719	-0.464731
C	 2.955217123	-2.4904048046	-2.5056228874	-0.105744
O	 3.0212358649	-3.9265087172	-2.415553628	-0.273742
C	 1.6027278042	-4.053120977	-2.6326315345	-0.115525
H	 1.0995729574	 1.8939162748	 0.2594447559	 0.113902
H	-0.4476464796	 2.0376480042	-0.582042046	 0.113237
H	-0.412831081	 1.8217050671	 1.1727134327	 0.112053
H	 0.523843961	-0.4842389854	 0.8975496125	 0.09607
H	-1.0113668248	-0.3416160629	 0.0629292397	 0.094943
H	 0.2075593504	 0.0436747154	-2.100741224	 0.096881
H	 1.7411330761	-0.1192306337	-1.2638886968	 0.094459
H	 1.0500743327	-2.462311835	-0.5468440123	 0.098648
H	-0.4035165463	-2.3011905688	-1.5172773856	 0.091992
H	 1.0214078193	-0.880976117	-4.0611606258	 0.120509
H	 1.4173115731	-2.4179551365	-4.8355246641	 0.117755
H	-0.1805274201	-2.1780182788	-4.1124000462	 0.114113
H	 3.5093409286	-2.1076960577	-3.373346887	 0.091866
H	 3.3390879376	-2.0051779524	-1.5988863862	 0.093898
H	 1.105552474	-4.5807693683	-1.8081610518	 0.093368
H	 1.3757951332	-4.5718894617	-3.5740441941	 0.0902
32.3515	60.6681	79.8134	123.0348	144.9448	232.7786	241.1676	270.5281	303.0787	336.4141	361.8697	441.7862	467.4269	680.3805	737.2406	792.34	854.4082	892.0949	903.909	926.8865	929.5493	968.327	991.8953	1010.8729	1027.4943	1042.6269	1066.3902	1082.4658	1113.833	1158.6376	1164.6329	1184.1421	1223.8751	1264.4954	1288.6134	1292.282	1311.8896	1328.8148	1338.4907	1372.3922	1387.3066	1399.3908	1413.3826	1416.9497	1479.0535	1486.5386	1495.992	1498.8277	1499.2443	1499.5814	1512.5452	1515.1818	1537.8277	2992.9132	2998.1254	3005.7069	3007.14	3017.4936	3026.9978	3028.689	3031.0521	3038.1977	3040.4453	3043.3677	3063.5331	3093.1817	3094.8013	3101.4339	3102.5048
CCCCC1(C)COC1	CCCCC1(C)COC1	
InChI=1S/C8H16O/c1-3-4-5-8(2)6-9-7-8/h3-7H2,1-2H3	InChI=1S/C8H16O/c1-3-4-5-8(2)6-9-7-8/h3-7H2,1-2H3
