16
gdb 24069	7.02937	0.7437	0.67836	5.3317	75.65	-0.2319	0.0161	0.248	1551.8743	0.12642	-396.990037	-396.981754	-396.98081	-397.025308	29.291	
N	 0.0235732879	-1.1796578344	-0.0366628997	-0.307043
C	 0.0213292265	-0.0296261328	-0.1500496324	 0.255643
C	 0.0373501202	 1.4246224887	-0.2818330111	-0.32479
C	 1.3060265144	 2.0419279981	 0.3359242898	-0.332623
C	 1.3089132247	 3.530409401	 0.169210124	 0.380125
N	 0.4319051025	 4.2312279667	-0.5157008152	-0.30088
C	 0.8301773667	 5.5451441852	-0.4046444824	-0.093266
C	 1.9614327246	 5.6391721941	 0.3568656171	-0.10465
N	 2.2593302848	 4.3421177113	 0.7206298801	-0.30116
H	-0.0311827819	 1.6983156796	-1.3383925296	 0.174769
H	-0.8534995891	 1.842846283	 0.1959128895	 0.168603
H	 1.3637468181	 1.7747761089	 1.3980321288	 0.134307
H	 2.1913298775	 1.6006922509	-0.1389691166	 0.139209
H	 0.2774399375	 6.3416477966	-0.8782639836	 0.112344
H	 2.5671241221	 6.472847692	 0.6701186774	 0.133281
H	 3.0374102136	 4.0518187311	 1.2891687539	 0.266132
13.9226	58.4001	110.8427	217.1626	251.1789	387.2558	398.3029	527.0799	531.0802	642.9512	688.5526	737.0442	751.8523	783.0256	855.7035	928.3377	948.3945	999.3134	1038.4205	1040.5935	1104.7233	1138.9433	1183.9544	1189.6818	1221.2443	1300.3421	1308.6294	1376.0141	1404.7169	1457.384	1462.9086	1492.4231	1516.5828	1592.3477	2363.3494	3028.0781	3057.2519	3073.778	3112.5377	3252.8605	3284.0024	3660.9378
N#CCCC1=NC=CN1	N#CCCc1ncc[nH]1	
InChI=1S/C6H7N3/c7-3-1-2-6-8-4-5-9-6/h4-5H,1-2H2,(H,8,9)	InChI=1S/C6H7N3/c7-3-1-2-6-8-4-5-9-6/h4-5H,1-2H2,(H,8,9)
