17
gdb 51782	2.34731	1.1284	0.82517	5.1986	71.23	-0.2569	-0.0314	0.2255	1359.0698	0.133869	-458.977922	-458.968938	-458.967994	-459.0133	31.107	
O	-0.6932873895	 0.2584859548	-0.3443705136	-0.264669
C	-0.4068429185	 1.3960816274	-0.1354197027	 0.168578
O	 0.8713319364	 1.8151083907	-0.0031662519	-0.189953
C	 1.1177364658	 3.1924695973	 0.2466682846	 0.140638
C	 2.0935228956	 3.5054393851	 1.3973144595	-0.257792
C	 2.7504746839	 4.576603456	 0.4851079768	-0.244606
C	 2.0597219993	 3.9207207482	-0.7602528965	-0.146314
C	 2.9870095114	 2.98738813	-1.5034080651	 0.182902
O	 3.1262798571	 2.9914126484	-2.6982880508	-0.248584
H	-1.1379454069	 2.2207380022	-0.0233818503	 0.082152
H	 0.1675631636	 3.7293526333	 0.3462507878	 0.099757
H	 1.6643334178	 3.8254997797	 2.348495782	 0.115242
H	 2.7571528107	 2.6557413785	 1.5759983855	 0.133203
H	 2.3714460631	 5.583967137	 0.6659763129	 0.124011
H	 3.8415646037	 4.6121297625	 0.4715301546	 0.122848
H	 1.5814856384	 4.5820186277	-1.4842514743	 0.098447
H	 3.5692493581	 2.2909415813	-0.8595542084	 0.084138
38.7847	74.73	97.078	142.7773	187.864	277.8481	314.6074	388.0082	436.8648	466.4597	621.5226	720.3337	812.5005	869.4632	887.8506	932.0998	969.6881	993.5842	1036.0194	1041.6516	1086.575	1125.2075	1150.9528	1176.3263	1210.6148	1244.3083	1255.0663	1272.1778	1276.3164	1319.6772	1380.451	1438.2359	1442.5367	1480.9365	1498.2357	1832.9132	1874.6629	2882.0052	2946.3654	3042.2891	3072.8542	3077.5479	3106.6581	3121.9847	3137.2223
O=COC1CCC1C=O	O=CO[C@H]1CC[C@H]1C=O	
InChI=1S/C6H8O3/c7-3-5-1-2-6(5)9-4-8/h3-6H,1-2H2	InChI=1S/C6H8O3/c7-3-5-1-2-6(5)9-4-8/h3-6H,1-2H2/t5-,6-/m0/s1
