17
gdb 54437	3.29809	1.19251	1.01028	2.1877	74.66	-0.2505	-0.0427	0.2079	1183.1131	0.134014	-421.841689	-421.833184	-421.83224	-421.875418	31.525	
C	 0.5612192565	 1.3028371046	 0.0995627214	-0.494356
C	-0.2589005844	 0.0376103716	-0.0518995937	 0.289854
O	-0.9719881739	-0.3784922474	 0.8369290571	-0.312538
C	-0.1452036883	-0.7008398954	-1.3433642353	 0.24103
C	-1.1490240543	-1.7422382563	-1.7174827235	-0.318249
C	 0.244357236	-2.2296633588	-1.408453659	-0.193442
C	 1.1737471011	-1.8912964393	-2.5368958091	 0.429224
O	 2.0519977123	-2.4925166401	-3.0844345972	-0.307953
C	 0.7478401849	-0.3971789891	-2.5602835451	-0.447196
H	 1.6303734878	 1.0804662899	 0.0049434726	 0.145277
H	 0.3145196387	 2.0199021884	-0.691414601	 0.143433
H	 0.366721944	 1.746082571	 1.0763684466	 0.147461
H	-1.8727725038	-1.9715701238	-0.9435114967	 0.157277
H	-1.5251040741	-1.7706615366	-2.735955838	 0.127426
H	 0.4327875325	-2.9065719393	-0.5842873105	 0.130421
H	 0.2410589605	-0.0255014219	-3.4555399139	 0.126072
H	 1.6143278745	 0.2358169826	-2.3517869048	 0.136259
52.4479	90.5821	163.6182	191.253	260.2715	358.9346	394.4268	444.0832	489.9024	559.9104	585.0106	624.9211	659.4338	753.7979	820.7489	906.1687	928.4206	952.5883	974.1051	981.5082	1044.1466	1063.4814	1085.738	1102.2477	1116.2991	1165.7486	1212.1591	1247.1353	1265.4592	1371.1087	1394.6554	1454.9772	1462.5517	1475.7235	1481.3683	1784.7436	1886.3434	3035.7877	3059.7472	3095.5812	3116.6081	3125.2174	3156.7111	3202.3929	3227.2412
CC(=O)C12CC1C(=O)C2	CC(=O)[C@]12C[C@H]1C(=O)C2	
InChI=1S/C7H8O2/c1-4(8)7-2-5(7)6(9)3-7/h5H,2-3H2,1H3	InChI=1S/C7H8O2/c1-4(8)7-2-5(7)6(9)3-7/h5H,2-3H2,1H3/t5-,7+/m0/s1
