17
gdb 16873	3.51405	1.9781	1.54002	1.5843	67.54	-0.2316	-0.0185	0.2131	852.4864	0.143896	-363.858949	-363.852002	-363.851058	-363.890664	26.564	
O	 0.0008733756	-0.0804295867	 0.0467987446	-0.309844
C	-0.0171084914	 1.1273908544	 0.062184097	 0.38268
C	-1.2858804244	 1.9551116036	 0.048605078	-0.295239
C	-1.3581795899	 2.8294067374	 1.3162818473	-0.164971
N	-0.1504457021	 3.6371110548	 1.5556756943	-0.091576
C	 0.8721073752	 3.0685378401	 2.4317075736	-0.241045
C	 1.1337018685	 3.2102291635	 0.9764669209	-0.011825
C	 1.2469511937	 1.9756882033	 0.0870351663	-0.327957
H	-1.2639919817	 2.6107008987	-0.8316771302	 0.120517
H	-2.1566714285	 1.2999749543	-0.0229934147	 0.123126
H	-2.2097975024	 3.5126265653	 1.2286538049	 0.116195
H	-1.5554765345	 2.1888260713	 2.1846057389	 0.114118
H	 1.3174171225	 3.7508334916	 3.1514963888	 0.116194
H	 0.7122275121	 2.0575514869	 2.8082693265	 0.114029
H	 1.7494989281	 4.047085121	 0.6527453128	 0.09656
H	 2.1012907158	 1.3503177851	 0.3608268646	 0.129666
H	 1.4072972136	 2.3040882153	-0.9497463537	 0.129373
46.4713	129.7389	303.0933	385.6117	400.2572	470.3098	488.1799	544.7566	676.5705	733.8187	767.0844	808.7812	858.3784	919.2002	942.9332	972.7511	1020.5523	1062.0365	1091.4797	1101.2361	1121.9966	1168.7226	1193.8102	1212.9898	1233.9894	1246.492	1301.6651	1331.7581	1337.5507	1384.4036	1413.0826	1458.7491	1470.8454	1505.3221	1524.4502	1825.1719	3017.1209	3024.3698	3030.4027	3062.9877	3079.2815	3091.9962	3116.8109	3117.7531	3168.0517
O=C1CCN2CC2C1	O=C1CCN2C[C@H]2C1	
InChI=1S/C6H9NO/c8-6-1-2-7-4-5(7)3-6/h5H,1-4H2	InChI=1S/C6H9NO/c8-6-1-2-7-4-5(7)3-6/h5H,1-4H2/t5-,7?/m1/s1
