21
gdb 65342	3.00272	0.96044	0.92995	0.9474	90.86	-0.2316	0.0576	0.2892	1408.2059	0.180522	-349.898421	-349.888734	-349.88779	-349.933017	36.915	
C	-0.0813389216	 1.5564102622	-0.0745600411	-0.457083
C	 0.0083891944	 0.0383534424	-0.002965518	 0.130332
C	 1.3569462187	-0.6339779709	-0.241327498	-0.334212
C	 0.7674499266	-0.6446861822	 1.1414850476	-0.033859
C	 1.377304841	 0.120588717	 2.2721319073	 0.011812
C	 0.6850926655	 0.1706787197	 3.6133518487	-0.267015
C	 1.9533617508	-0.6284590022	 3.4516505633	-0.274597
C	-1.1603187322	-0.6477001558	-0.488639167	 0.273593
C	-2.1474892619	-1.205752703	-0.8922283171	-0.464267
H	 0.8429824767	 2.0274602229	 0.2679566462	 0.113622
H	-0.2613070872	 1.8779358937	-1.1049350557	 0.126538
H	-0.9036698664	 1.9295221732	 0.5435318119	 0.128762
H	 1.3744023831	-1.555134593	-0.8116627837	 0.12111
H	 2.1966190857	 0.0290917727	-0.4265794261	 0.111776
H	 0.3264811956	-1.5895726977	 1.4482057511	 0.091649
H	 1.9167830793	 1.0174977969	 1.9843052656	 0.081439
H	 0.7244804903	 1.0946769396	 4.1795504018	 0.111356
H	-0.2474208905	-0.3739702714	 3.7177738966	 0.116149
H	 1.8750452691	-1.7107013803	 3.447324874	 0.113087
H	 2.8640081667	-0.2522459193	 3.904530425	 0.111414
H	-3.0157067438	-1.7015047944	-1.2488643025	 0.188394
59.9291	99.1183	127.6671	178.444	215.9743	254.5169	306.233	335.8547	404.9751	447.8282	540.9846	554.8185	580.4448	640.4555	681.1607	751.2553	803.7553	824.3395	855.0115	908.552	923.8035	942.6942	969.0112	986.3184	1059.5288	1063.3369	1071.6857	1081.2937	1106.0261	1112.9733	1133.6943	1198.6402	1216.6766	1234.3523	1272.6625	1295.8621	1335.4249	1416.3833	1449.2639	1469.8834	1484.8758	1487.9746	1501.7577	1507.7017	2229.6295	3041.9693	3106.6896	3121.4872	3129.5858	3130.0438	3133.803	3140.2433	3155.0117	3208.2751	3221.8519	3223.7897	3504.5932
CC1(CC1C1CC1)C#C	C[C@]1(C[C@H]1C1CC1)C#C	
InChI=1S/C9H12/c1-3-9(2)6-8(9)7-4-5-7/h1,7-8H,4-6H2,2H3	InChI=1S/C9H12/c1-3-9(2)6-8(9)7-4-5-7/h1,7-8H,4-6H2,2H3/t8-,9+/m0/s1
