12
gdb 129943	3.44844	1.6993	1.13985	4.9799	64.38	-0.2278	-0.0552	0.1727	952.9099	0.078641	-468.762837	-468.756035	-468.755091	-468.793889	25.884	
N	 0.0121007769	 1.4404480471	 0.1694832451	-0.609285
C	 0.0285736162	 0.0539458125	 0.0408429831	 0.069568
C	-1.0296901022	-0.82710121	-0.0057129222	-0.065513
O	-0.6439860277	-2.1590407282	-0.0408417565	-0.192329
C	 0.6967030184	-2.0871795642	-0.025121935	 0.331486
C	 1.1718845932	-0.8070796857	 0.0274364883	 0.308902
O	 2.490357009	-0.829887469	 0.0325772888	-0.269762
N	 2.8129910692	-2.3268311285	-0.0241798525	-0.040196
N	 1.7262047184	-2.9548369016	-0.0537749241	-0.197688
H	 0.7872007362	 1.8943748768	-0.2947300707	 0.26375
H	-0.8616243034	 1.8667293953	-0.1076209565	 0.255545
H	-2.0943123842	-0.6622273345	-0.0072236879	 0.145522
181.0031	214.584	267.5772	271.2066	367.0476	433.8417	564.0721	584.5092	621.9828	637.5079	686.0197	697.4638	726.3589	759.0245	803.0696	970.3761	1084.071	1104.2414	1169.0041	1282.3958	1340.6302	1409.122	1474.1353	1518.2038	1573.1284	1635.4956	1665.9053	3281.0747	3551.364	3644.7933
NC1=COC2=C1ON=N2	Nc1coc2c1onn2	
InChI=1S/C4H3N3O2/c5-2-1-8-4-3(2)9-7-6-4/h1H,5H2	InChI=1S/C4H3N3O2/c5-2-1-8-4-3(2)9-7-6-4/h1H,5H2
