13
gdb 129431	2.82744	1.58428	1.01535	1.6226	64.86	-0.2357	-0.0297	0.2059	1057.4437	0.088033	-486.09557	-486.08667	-486.085726	-486.129452	30.862	
N	-0.0229051489	 1.3021961425	 0.0064126016	-0.54492
C	 0.0165094224	-0.0548781728	 0.003502481	 0.359488
O	 1.0704056803	-0.6952983986	-0.0068657551	-0.416919
C	-1.261254865	-0.7498526675	 0.0120896884	 0.060192
C	-1.4339086641	-2.1468760104	 0.010249628	 0.46865
N	-0.4616142785	-3.0581161392	 0.0019224237	-0.584371
O	-2.6930510863	-2.4629168959	 0.0188119035	-0.268139
N	-3.4311292138	-1.0291617973	 0.0273879163	-0.050332
N	-2.5123453036	-0.2180684104	 0.0224408052	-0.142451
H	 0.8470347851	 1.8064076542	-0.0000378434	 0.266382
H	-0.8942592744	 1.8033109643	 0.0143636708	 0.275464
H	 0.4831941675	-2.6903741592	-0.0069202637	 0.298627
H	-0.6672217407	-4.0408146596	-0.0031280462	 0.278327
86.3353	118.9558	137.3066	153.3977	199.0336	250.3847	283.6206	351.4016	442.4966	558.527	558.6408	648.0804	667.4613	668.0512	735.7596	751.3925	801.8014	925.9088	1078.1232	1085.5984	1200.2104	1299.3831	1422.5987	1515.1657	1525.1168	1560.5627	1614.4549	1659.1588	1735.3153	3518.1749	3611.7865	3727.5711	3750.0857
NC(=O)C1=C(N)ON=N1	NC(=O)c1c(N)onn1	
InChI=1S/C3H4N4O2/c4-2(8)1-3(5)9-7-6-1/h5H2,(H2,4,8)	InChI=1S/C3H4N4O2/c4-2(8)1-3(5)9-7-6-1/h5H2,(H2,4,8)
