19
gdb 37922	2.89011	2.18557	2.02806	0.7449	76.57	-0.1978	0.0774	0.2752	816.8094	0.164264	-381.998186	-381.992433	-381.991488	-382.027864	25.595	
C	-0.0145269077	 1.5041405981	-0.0350157806	-0.188564
C	 1.5229077694	 1.5123598909	-0.077508715	-0.02725
C	 1.4103359574	 0.0277899441	-0.5220522437	-0.002873
C	 1.9167631974	-0.3766740222	 0.8680270274	-0.040396
C	 0.4502925728	-0.5536690965	 1.314666141	 0.027201
C	 0.2763149154	 0.3296297804	 2.551297121	-0.252282
C	 1.4545933677	 1.3581695469	 2.4426248208	-0.178477
N	 2.1761616054	 1.053523124	 1.1976198853	-0.092131
N	-0.0387063349	 0.0008662024	-0.0266689518	-0.171791
H	-0.5422822121	 2.0057417177	 0.7812979865	 0.102554
H	-0.4402305885	 1.8519418148	-0.9834075735	 0.107498
H	 2.0590015124	 2.3182572238	-0.5854353978	 0.070073
H	 1.6507154063	-0.3970512671	-1.493824114	 0.077153
H	 2.7015591298	-1.0917847631	 1.1255167169	 0.065711
H	 0.0702910453	-1.5702972798	 1.4408337176	 0.077382
H	-0.7083895839	 0.8072533915	 2.5791694542	 0.112
H	 0.3614909159	-0.2773098242	 3.4585408041	 0.101532
H	 1.1159764316	 2.3984712795	 2.4312948222	 0.107198
H	 2.1394952804	 1.2482980487	 3.2903227995	 0.10546
242.216	345.5889	383.9804	474.609	587.6323	666.1855	720.6865	735.3535	764.3167	804.7397	815.2706	858.6941	883.3523	887.1549	902.3049	924.2185	941.9628	981.035	993.5418	1018.2843	1041.1796	1057.4574	1114.2813	1129.1506	1174.9198	1182.0767	1186.9334	1211.6312	1222.9032	1239.7091	1262.9165	1265.49	1284.4485	1287.8186	1296.6072	1304.3904	1328.618	1348.3848	1480.6459	1492.9813	1514.994	3034.8239	3038.8792	3048.6758	3065.7409	3069.4456	3076.6476	3082.3547	3089.333	3098.2074	3140.7755
C1C2C3C4C(CCN24)N13	C1[C@@H]2[C@H]3[C@@H]4[C@@H](CCN24)N13	
InChI=1S/C7H10N2/c1-2-8-5-3-9-4(1)6(8)7(5)9/h4-7H,1-3H2	InChI=1S/C7H10N2/c1-2-8-5-3-9-4(1)6(8)7(5)9/h4-7H,1-3H2/t4-,5-,6+,7+/m1/s1
