19
gdb 90188	4.03807	1.56772	1.41272	1.2947	78.85	-0.2281	0.0916	0.3197	975.5237	0.1604	-385.796366	-385.789581	-385.788637	-385.827131	28.638	
C	-0.0608911015	 1.5095126899	-0.1073845973	-0.397705
C	 0.014542156	 0.0041399958	 0.076805662	 0.1118
O	 0.8408770399	-0.5884066692	-0.9948214432	-0.360898
C	 1.7708038606	-1.2547769398	-0.1981853616	 0.455777
C	 3.0117178596	-2.1561092819	-0.1873225477	-0.333396
C	 2.6459271905	-1.8746122448	 1.3239243252	-0.121899
C	 2.2375701718	-0.4041178477	 1.0162073529	-0.07464
C	 0.7355246334	-0.4872484156	 1.3790959296	-0.145128
C	 1.1191257547	-1.9444696975	 1.0330108052	-0.079863
H	 0.9302992455	 1.9651007967	-0.0252277798	 0.122021
H	-0.469836932	 1.7566465286	-1.0909581114	 0.12829
H	-0.7105651215	 1.952867183	 0.6550219168	 0.113726
H	-0.9852085494	-0.4416605669	-0.0025634119	 0.082007
H	 2.8869053339	-3.1846447503	-0.5386907553	 0.103296
H	 3.9480797892	-1.7249157835	-0.5535942642	 0.103126
H	 3.1718050672	-2.2459775424	 2.200544676	 0.08241
H	 2.8963901561	 0.461849999	 0.9555233499	 0.073341
H	 0.2998552778	-0.1625179548	 2.3260793783	 0.065296
H	 0.491631348	-2.8348975586	 0.9873736463	 0.072439
147.378	225.0923	263.9622	394.7553	440.2798	470.7284	495.9935	666.5934	723.9721	739.3429	800.6867	804.5525	828.9684	864.6446	872.4514	892.5384	915.3827	942.473	976.9666	1001.523	1025.2937	1042.0656	1070.5989	1110.1769	1117.6606	1124.1402	1129.5399	1132.0152	1171.0697	1186.8541	1211.1044	1227.9631	1256.8295	1289.1748	1319.9228	1336.9771	1378.0828	1407.0228	1484.8527	1496.5637	1509.1148	3024.746	3038.555	3046.9226	3092.4424	3108.7623	3110.1244	3111.1986	3115.9678	3120.67	3142.5811
CC1OC23CC4C2C1C34	C[C@H]1O[C@@]23C[C@H]4[C@@H]2[C@@H]1[C@@H]34	
InChI=1S/C8H10O/c1-3-5-6-4-2-8(6,9-3)7(4)5/h3-7H,2H2,1H3	InChI=1S/C8H10O/c1-3-5-6-4-2-8(6,9-3)7(4)5/h3-7H,2H2,1H3/t3-,4-,5+,6+,7-,8-/m1/s1
