23
gdb 110965	2.43815	1.16095	1.03346	1.66	86.56	-0.2548	0.074	0.3288	1326.3721	0.205078	-388.240237	-388.230494	-388.22955	-388.274589	37.236	
C	-0.0180975196	 1.6093386953	-0.2876625356	-0.445374
C	 0.0590581599	 0.0942872511	-0.1476410389	 0.021037
C	 1.2104808222	-0.7396583533	-0.7927084658	-0.08836
C	 2.1520220369	-0.2182197304	 0.328322284	-0.272068
C	 0.8165589897	-0.5909312893	 1.0496619235	 0.307777
C	 0.506781526	-0.4680039661	 2.5195443379	-0.519649
C	 0.8527809949	-1.905789392	 0.1916016921	-0.005696
C	-0.3577345099	-2.8057022244	-0.0052168077	-0.1272
O	-0.0960088656	-3.8288983977	-0.9617514384	-0.417639
H	 0.9332826385	 2.1202725184	-0.1232741182	 0.117713
H	-0.3677072936	 1.8805852252	-1.2903135286	 0.115877
H	-0.7402916535	 2.0209475824	 0.4267997204	 0.116223
H	-0.9390370547	-0.3149850585	-0.324660054	 0.057861
H	 1.4478066664	-0.8220761816	-1.8559971211	 0.059093
H	 3.0160759036	-0.8457306859	 0.5656199466	 0.08742
H	 2.436572942	 0.8340949436	 0.3030716408	 0.089442
H	 0.5655795482	 0.5756803166	 2.8481390295	 0.119733
H	-0.5017025597	-0.8318048564	 2.7461372744	 0.118344
H	 1.2149032598	-1.0475917663	 3.122125764	 0.119994
H	 1.7104746202	-2.5487584689	 0.4225776318	 0.066665
H	-0.5720545394	-3.3344636479	 0.9307723054	 0.108319
H	-1.2666118916	-2.2495388275	-0.2717641889	 0.089617
H	 0.1204688395	-3.3955901465	-1.7935717229	 0.28087
66.6378	144.3944	169.3321	186.2195	193.9252	229.1738	271.7258	322.9143	343.1686	391.6134	450.7957	568.4336	595.1215	628.7121	742.6191	777.8607	799.5726	849.4302	897.9533	934.6383	997.4693	1011.8038	1019.0665	1023.199	1057.6696	1079.5892	1102.8645	1116.3965	1130.4308	1149.8294	1179.2093	1197.0814	1207.1556	1230.8395	1236.1147	1250.7817	1314.3754	1352.8956	1406.5633	1408.8343	1409.6309	1424.3437	1438.7853	1488.9038	1490.2349	1497.2808	1497.6817	1508.7061	1536.6784	3003.149	3023.9961	3031.2395	3034.8278	3056.7289	3059.966	3066.9957	3083.1656	3084.7648	3090.4309	3092.2108	3114.8205	3132.5914	3815.2097
CC1C2CC1(C)C2CO	C[C@H]1[C@H]2C[C@]1(C)[C@H]2CO	
InChI=1S/C8H14O/c1-5-6-3-8(5,2)7(6)4-9/h5-7,9H,3-4H2,1-2H3	InChI=1S/C8H14O/c1-5-6-3-8(5,2)7(6)4-9/h5-7,9H,3-4H2,1-2H3/t5-,6+,7-,8-/m0/s1
