16
gdb 50289	2.87555	1.35943	1.16652	3.2701	69.6	-0.2546	-0.0379	0.2167	1065.6822	0.124913	-437.872097	-437.864624	-437.863679	-437.904599	28.117	
O	 0.0207907013	-0.0676703663	 0.0891463345	-0.249748
C	 0.0233216085	 1.1362950679	 0.0931385443	 0.148831
C	 1.2695652882	 1.9882910444	 0.0625751669	-0.092805
C	 1.2365723003	 3.1076688825	-1.0471645081	-0.275533
C	 1.4258835787	 4.3587849329	-0.1496488988	-0.120094
N	 2.432302201	 3.9474946295	 0.8813979485	-0.313875
C	 1.4330521763	 2.9216963678	 1.3112261722	-0.149767
C	 0.41096	 4.0369126934	 0.9708793527	 0.479818
O	-0.6098759468	 4.467626192	 1.3998898024	-0.307051
H	-0.9297311023	 1.7138256501	 0.1259947875	 0.091191
H	 2.1312022872	 1.3232579887	-0.0329851551	 0.100669
H	 2.0499450966	 2.9884923868	-1.7667624198	 0.123337
H	 0.2937830966	 3.1268110791	-1.6043479627	 0.126883
H	 1.5273756472	 5.3365927866	-0.6158005473	 0.102562
H	 3.2713412669	 3.53419168	 0.4733152547	 0.226718
H	 1.5410987205	 2.4641020847	 2.2922884982	 0.108864
78.9875	110.2332	171.9928	298.0268	359.985	416.3615	452.6995	489.3165	636.3522	682.8535	770.7943	816.3427	866.2371	879.9899	888.0024	934.7063	948.9022	1032.9675	1044.4538	1051.6726	1063.7905	1084.7725	1126.3679	1151.9427	1207.9404	1214.6837	1248.2119	1284.7519	1303.7418	1318.25	1335.6665	1433.1749	1492.5919	1828.5976	1939.1761	2866.8943	3053.3235	3082.5368	3106.9686	3149.5478	3152.4922	3454.2722
O=CC1CC2NC1C2=O	O=C[C@H]1C[C@@H]2N[C@H]1C2=O	
InChI=1S/C6H7NO2/c8-2-3-1-4-6(9)5(3)7-4/h2-5,7H,1H2	InChI=1S/C6H7NO2/c8-2-3-1-4-6(9)5(3)7-4/h2-5,7H,1H2/t3-,4+,5-/m1/s1
