23
gdb 96244	2.34222	1.46785	1.03146	0.4185	94.75	-0.2163	-0.0105	0.2058	1257.4996	0.208173	-351.171071	-351.162396	-351.161452	-351.20399	34.793	
C	 0.0113946905	 1.572995754	 0.0193906643	-0.394576
C	 0.0181162029	 0.0275463888	 0.0198504443	-0.017374
C	 0.5711137587	-0.4897456809	-1.3231470388	-0.185446
C	 0.1466852998	-1.9106626269	-1.7202697096	-0.203462
C	 0.4965901926	-2.9903494233	-0.6748560034	-0.249223
C	 1.9487885602	-2.9701902991	-0.2954475028	-0.054498
C	 2.471175516	-2.1786625992	 0.6494607893	-0.082408
C	 1.7357962087	-1.2639573856	 1.5284290237	-0.104824
C	 0.7123426847	-0.4303635366	 1.2874838141	-0.040138
H	 1.0278432921	 1.963793907	-0.1004321642	 0.119706
H	-0.5995568065	 1.9582096857	-0.8031250141	 0.109979
H	-0.3908618135	 1.9733896806	 0.9554962707	 0.109651
H	-1.0357357488	-0.2865452882	 0.1002677939	 0.080109
H	 0.2269387906	 0.1902149809	-2.1118901014	 0.086844
H	 1.6632851002	-0.4131590473	-1.3140156666	 0.107389
H	-0.9356675223	-1.934604751	-1.9011711307	 0.090916
H	 0.6231108955	-2.1614591653	-2.6763840014	 0.091598
H	-0.110396808	-2.8218573434	 0.2225423522	 0.111548
H	 0.2209884023	-3.9743029474	-1.0704962508	 0.091125
H	 2.6167261487	-3.6280997211	-0.8475960718	 0.083324
H	 3.53438577	-2.2703826973	 0.8671545856	 0.083868
H	 2.0883378818	-1.283207241	 2.5606520964	 0.085529
H	 0.3253509236	 0.0896409066	 2.1648289111	 0.080364
75.85	210.6668	235.0542	243.7466	253.6283	279.0944	330.0949	363.1415	445.714	519.3895	545.158	613.429	692.2759	783.7465	799.2211	806.3746	820.844	863.1781	889.6209	939.8695	980.5343	1002.4902	1016.2205	1018.0893	1028.1642	1070.8304	1083.1265	1111.8484	1149.6226	1193.2911	1211.0993	1271.5817	1292.2398	1295.2593	1320.324	1343.098	1371.4951	1379.7927	1394.9697	1405.5124	1423.551	1456.0767	1481.6872	1490.9342	1495.2919	1498.9618	1501.9083	1695.7682	1705.5044	2962.9898	3014.4925	3027.0283	3028.6356	3035.2568	3050.2163	3072.7533	3081.3711	3096.4339	3100.7631	3103.159	3120.6754	3129.5165	3154.6292
CC1CCCC=CC=C1	C[C@H]1CCCC=CC=C1	
InChI=1S/C9H14/c1-9-7-5-3-2-4-6-8-9/h2-3,5,7,9H,4,6,8H2,1H3/b3-2-,7-5-	InChI=1S/C9H14/c1-9-7-5-3-2-4-6-8-9/h2-3,5,7,9H,4,6,8H2,1H3/b3-2-,7-5-/t9-/m1/s1
