19
gdb 105617	1.98072	1.45388	1.18063	4.4339	75.82	-0.2564	0.0155	0.2719	1168.3561	0.159433	-419.192745	-419.183319	-419.182375	-419.227315	34.432	
C	-0.2667518785	 1.4748723956	-0.080744708	-0.419401
C	 0.0580646152	-0.0131520955	-0.0618967923	-0.046731
C	 1.3796667871	-0.425645359	-0.7640141108	-0.171266
N	 2.0117028123	-0.6797308261	 0.5580029342	-0.356638
C	 0.6951924045	-0.6114313337	 1.2553842174	 0.128872
C	 0.7931896835	 0.2401752701	 2.5331442558	-0.106572
O	 1.8378330028	-0.2380638121	 3.3502909801	-0.415929
C	 0.1448569655	-1.9368071334	 1.5658198554	 0.262795
N	-0.2826546702	-2.9901160197	 1.7795390528	-0.343378
H	 0.6040139542	 2.0886513798	 0.1675401315	 0.132725
H	-0.5958300839	 1.7621802134	-1.084912039	 0.126089
H	-1.0739949677	 1.7246268945	 0.6150545299	 0.12926
H	-0.8102653898	-0.5847929035	-0.3918388886	 0.103668
H	 1.2773856656	-1.317158052	-1.3924400839	 0.115253
H	 1.8830928147	 0.3572884227	-1.3406179509	 0.11127
H	 2.4816852874	-1.5746758965	 0.6396441789	 0.239449
H	 0.9535286983	 1.2871842917	 2.246818772	 0.095278
H	-0.1296910859	 0.177360308	 3.1169187853	 0.125581
H	 2.6409655748	-0.1641653843	 2.81875753	 0.289674
58.086	84.5922	151.3896	179.8508	191.9191	261.9135	301.9826	345.16	409.0033	442.5908	484.7319	533.2351	582.5332	687.3955	728.5355	818.9145	901.248	906.8886	921.8031	1008.7945	1025.3883	1060.6928	1068.3645	1093.915	1134.3382	1141.73	1199.8068	1205.2822	1238.4193	1264.3176	1321.9833	1370.082	1383.8401	1392.1638	1414.6532	1423.8622	1491.4374	1499.5026	1503.1333	1518.5696	2342.1132	3022.8184	3031.1867	3037.6137	3075.8646	3094.3931	3096.2896	3103.2219	3118.5694	3537.1128	3771.598
CC1CNC1(CO)C#N	C[C@H]1CN[C@]1(CO)C#N	
InChI=1S/C6H10N2O/c1-5-2-8-6(5,3-7)4-9/h5,8-9H,2,4H2,1H3	InChI=1S/C6H10N2O/c1-5-2-8-6(5,3-7)4-9/h5,8-9H,2,4H2,1H3/t5-,6-/m0/s1
