15
gdb 15106	6.07974	0.8046	0.74599	4.1235	75.47	-0.2526	0.0193	0.2719	1473.8211	0.118404	-325.497853	-325.489573	-325.488629	-325.532395	28.679	
N	 0.1608156277	-1.1426460665	-0.6193198447	-0.302922
C	 0.1693550593	-0.1158869914	-0.0912545545	 0.278947
C	 0.164298126	 1.1904196674	 0.5834581574	-0.473976
C	 1.4236173862	 1.9163388122	 0.4451645517	 0.055695
C	 2.4624278718	 2.5146903232	 0.3336971894	 0.117809
C	 3.7002678185	 3.2249935978	 0.2063311794	-0.158127
C	 4.5046750232	 3.1288283043	-1.0817485838	-0.250322
C	 3.8094028515	 4.4113368802	-0.7405069303	-0.252459
H	-0.6707323404	 1.7777876892	 0.1793584896	 0.178816
H	-0.068020693	 1.0243000107	 1.6435315464	 0.18073
H	 4.2806780217	 3.2951762682	 1.1214550166	 0.115454
H	 5.583079392	 3.0790118728	-0.9847370741	 0.124095
H	 4.0910680135	 2.5181751686	-1.8751047814	 0.134337
H	 2.9216970692	 4.6758097596	-1.3023204114	 0.128963
H	 4.4043944827	 5.2538431436	-0.4070702303	 0.122959
22.2593	70.3908	125.5463	180.0439	283.2176	327.489	374.3501	455.218	517.3027	568.8564	716.5135	796.6384	823.3284	892.2619	896.4726	932.4432	936.6924	1061.4147	1065.109	1083.2727	1116.9752	1184.8057	1201.3563	1230.2603	1236.4673	1337.2892	1394.4617	1446.6973	1468.0739	1498.4475	2367.3189	2375.3616	3022.5156	3051.7809	3143.5386	3146.3279	3150.9882	3228.4258	3243.3446
N#CCC#CC1CC1	N#CCC#CC1CC1	
InChI=1S/C7H7N/c8-6-2-1-3-7-4-5-7/h7H,2,4-5H2	InChI=1S/C7H7N/c8-6-2-1-3-7-4-5-7/h7H,2,4-5H2
