21
gdb 94639	3.33243	0.78911	0.70064	2.1814	84.93	-0.254	0.0582	0.3122	1645.6851	0.180816	-387.044275	-387.034362	-387.033418	-387.079591	36.757	
O	 0.2753737986	 1.0959196368	-0.6424437752	-0.429062
C	 0.0761465228	-0.0944027226	 0.0836103395	 0.125115
C	-0.1573613484	-0.0240751621	 1.616398951	-0.257931
C	-1.3021509395	-1.0596812515	 1.4365205788	-0.231283
C	-1.3324630075	-0.7256466008	-0.0884183021	-0.019537
C	-2.4204152018	 0.2649740535	-0.5037011771	-0.173243
C	-3.804138412	-0.4098633265	-0.6061792397	-0.364267
C	-4.8632070251	 0.5168340308	-0.9866794715	 0.293544
C	-5.7183367858	 1.3009782117	-1.3014989949	-0.438323
H	 1.1569056714	 1.4281166954	-0.4463909169	 0.284098
H	 0.8548398113	-0.8342688476	-0.1542393349	 0.064796
H	 0.6749100251	-0.2855827808	 2.274725081	 0.091393
H	-0.53875448	 0.9609509499	 1.898871478	 0.110122
H	-0.9743640398	-2.0833741346	 1.6338020257	 0.101803
H	-2.2219135884	-0.8787630112	 1.9984712294	 0.101398
H	-1.3611498689	-1.5920384494	-0.7581350457	 0.064031
H	-2.4777441229	 1.096050019	 0.2074020849	 0.10874
H	-2.1623755185	 0.7089627013	-1.4695906448	 0.123383
H	-3.755350318	-1.2274161289	-1.3380191272	 0.126526
H	-4.0609900337	-0.8796632185	 0.3523188328	 0.128218
H	-6.4800779787	 1.985475106	-1.5807934811	 0.190479
60.3355	93.9171	107.5237	133.0303	211.7797	235.1678	258.7694	344.6772	383.2675	412.3868	489.6422	562.3986	612.4643	630.7339	656.217	757.1816	766.6792	860.6226	895.0806	924.8698	954.8265	955.8351	977.1736	1028.3737	1061.9956	1099.8089	1119.3919	1157.4443	1187.4832	1198.2396	1231.0723	1254.0508	1265.2863	1272.8026	1290.823	1318.4173	1335.6247	1357.4014	1392.6996	1423.0633	1471.8308	1480.4189	1491.7499	1501.5284	2238.1727	2984.0274	3013.827	3038.1102	3042.2494	3054.6979	3058.0263	3064.6171	3098.7505	3103.1031	3120.5331	3508.0387	3820.8019
OC1CCC1CCC#C	O[C@H]1CC[C@H]1CCC#C	
InChI=1S/C8H12O/c1-2-3-4-7-5-6-8(7)9/h1,7-9H,3-6H2	InChI=1S/C8H12O/c1-2-3-4-7-5-6-8(7)9/h1,7-9H,3-6H2/t7-,8+/m1/s1
