20
gdb 119498	3.19183	1.25124	1.07382	1.5557	78.64	-0.2202	0.0587	0.2789	1192.4944	0.17021	-403.04262	-403.033992	-403.033048	-403.076592	32.632	
C	-0.3781036296	 0.5926772289	 0.2478412877	-0.231484
O	 0.8804891763	 0.4208635862	-0.370602151	-0.22886
C	 0.8622745127	-0.4732173052	-1.4680222034	-0.178976
C	 0.7118236707	-1.9185297937	-1.0930473321	 0.353547
C	 1.7974985033	-2.7158202713	-0.4253588829	-0.340916
C	 1.2510717077	-3.172145379	-1.751563309	-0.133856
C	-0.1702610853	-3.7517959838	-1.635831976	-0.032038
C	-0.7447838507	-3.7524618968	-0.2756652206	-0.255203
N	-0.709358802	-2.4831752762	-1.0324871657	-0.178171
H	-1.1386519836	 0.9324614445	-0.4720807146	 0.104702
H	-0.7448947702	-0.3301111474	 0.7167444242	 0.118831
H	-0.2521627542	 1.3578100079	 1.0183608065	 0.119414
H	 0.0603848252	-0.2020238453	-2.1731840445	 0.096394
H	 1.8244180674	-0.3375694961	-1.97439381	 0.102897
H	 2.7678597021	-2.2333661188	-0.4944517307	 0.124381
H	 1.668867764	-3.2764416188	 0.4931874833	 0.115609
H	 1.8595329162	-3.2671029794	-2.6414415135	 0.097178
H	-0.674030242	-4.2130711871	-2.4795395526	 0.100415
H	-1.759794454	-4.1279318756	-0.177461876	 0.123541
H	-0.1400142342	-3.8930201527	 0.6122529608	 0.122593
43.0575	90.6258	135.6174	205.5961	276.599	316.8562	384.3863	438.7177	458.6527	533.4709	664.9709	712.4211	756.8243	824.2177	835.0668	904.9982	923.2351	943.9999	957.9079	969.7143	1001.806	1022.9824	1050.4216	1060.7618	1090.2522	1107.2265	1131.1325	1139.5941	1177.7544	1184.6974	1219.0597	1242.5306	1271.3938	1327.8738	1352.0306	1377.4146	1409.6287	1467.0547	1477.9524	1483.3606	1490.7069	1506.6592	1523.3805	2979.5262	2986.3058	3042.357	3067.8458	3109.8029	3123.7805	3137.4984	3156.5722	3196.4774	3205.5347	3215.3451
COCC12CC1C1CN21	COC[C@]12C[C@H]1[C@H]1CN21	
InChI=1S/C7H11NO/c1-9-4-7-2-5(7)6-3-8(6)7/h5-6H,2-4H2,1H3	InChI=1S/C7H11NO/c1-9-4-7-2-5(7)6-3-8(6)7/h5-6H,2-4H2,1H3/t5-,6+,7+,8?/m0/s1
