18
gdb 56220	3.75984	0.89771	0.7678	8.7932	70.49	-0.2309	0.0268	0.2577	1439.5088	0.148615	-472.457852	-472.448614	-472.447669	-472.492228	34.231	
N	-0.7949901996	 0.8935624273	-0.7470100262	-0.552424
C	-0.2445539992	-0.1017313374	-0.1403874438	 0.424561
N	 1.0228608293	-0.6088828476	-0.3968204199	-0.560826
N	-0.9178993523	-0.7878954388	 0.8374524598	-0.292257
H	-0.6642283707	-1.7597686804	 0.9297643794	 0.247976
C	-2.2979812624	-0.4482932813	 1.1653147539	-0.191617
C	-3.3520925547	-0.7837000888	 0.0712307692	-0.326149
C	-4.1636575179	 0.4255641077	-0.4091946819	 0.381704
O	-3.4452676057	 1.4650168368	-0.8345500908	-0.382258
O	-5.3693940147	 0.4356567032	-0.4053217205	-0.338621
H	-0.1512127274	 1.3832892132	-1.3598417902	 0.217665
H	-2.4617919841	 1.2718083405	-0.8092846438	 0.336567
H	 1.5951113484	-0.0365779152	-0.9986842344	 0.257165
H	 1.5266575005	-0.9442515084	 0.4121760115	 0.257731
H	-2.5395948676	-0.9795483715	 2.0887661763	 0.119549
H	-2.3207751088	 0.6192418234	 1.3965471821	 0.149374
H	-2.8392561609	-1.2107512282	-0.7977240084	 0.127175
H	-4.0686357521	-1.5242598246	 0.4291606277	 0.124688
70.8649	98.2994	118.4584	178.6576	235.6608	306.0095	340.1352	363.1536	441.5771	472.527	514.2451	576.3371	600.8131	645.5509	706.0378	725.3432	754.9493	797.7565	898.9885	960.9251	967.1771	1009.1702	1053.4108	1099.6797	1146.5554	1173.7067	1205.7191	1285.7791	1302.6455	1330.9846	1388.4762	1418.416	1466.9283	1483.2991	1509.2122	1565.1485	1640.4547	1710.9982	1848.0688	3049.7824	3054.493	3072.7409	3113.0086	3128.5756	3541.3076	3568.5843	3618.2275	3675.4593
NC(N)=[NH+]CCC([O-])=O	N=C(N)NCCC(=O)O	
InChI=1S/C4H9N3O2/c5-4(6)7-2-1-3(8)9/h1-2H2,(H,8,9)(H4,5,6,7)	InChI=1S/C4H9N3O2/c5-4(6)7-2-1-3(8)9/h1-2H2,(H,8,9)(H4,5,6,7)
