19
gdb 22309	3.37102	1.12263	0.87285	1.2985	85.26	-0.2168	-0.0295	0.1874	1325.0161	0.159688	-419.168755	-419.160166	-419.159222	-419.201737	32.931	
C	 0.0243499521	 1.4527390151	 0.0361124242	-0.311575
N	 0.0209799983	 0.0027747059	 0.0029149063	-0.07686
C	 0.5821275366	-0.5151241141	-1.2352036437	-0.189626
C	 0.6950727167	-2.011100638	-1.2315225194	-0.084887
C	 0.6084810114	-2.7425215819	-0.1143714261	-0.118734
C	 0.4707496284	-2.0800744494	 1.1756243596	 0.356729
C	 0.6524584087	-0.5806633916	 1.1813299063	-0.237713
N	 0.2581643543	-2.6373443155	 2.3117955135	-0.213884
O	 0.144614738	-4.0316775049	 2.2068811777	-0.394502
H	 1.0427648036	 1.8884067754	 0.0294856187	 0.0914
H	-0.5133956309	 1.8435778156	-0.8340242844	 0.118224
H	-0.4875668427	 1.8035336566	 0.9375660167	 0.122223
H	-0.0594310784	-0.1978454002	-2.0684869598	 0.115029
H	 1.5862690384	-0.0853915994	-1.4529793915	 0.08921
H	 0.849567579	-2.487876987	-2.1952849261	 0.104041
H	 0.655331179	-3.8236209732	-0.1327474791	 0.116091
H	 1.7375870032	-0.3467180273	 1.2254691316	 0.086782
H	 0.1963407206	-0.163894221	 2.0826867672	 0.121158
H	 0.0021525039	-4.289848305	 3.1231940483	 0.306893
93.5898	151.8614	220.4858	251.6001	302.3232	311.6154	337.7569	359.1672	412.6535	435.0781	472.1424	585.5157	630.7469	745.1602	780.8475	853.4398	918.051	960.4991	984.3909	999.7116	1012.6792	1046.9709	1079.2521	1150.2889	1163.3959	1172.7326	1217.2665	1291.1271	1294.4113	1300.6124	1361.2917	1391.9838	1419.9306	1424.1743	1459.5734	1477.0766	1485.2258	1502.7338	1506.0334	1684.2641	1711.6223	2845.6277	2874.4958	2918.4536	3023.0267	3057.7206	3093.5413	3103.442	3171.5075	3222.296	3825.5799
CN1CC=CC(C1)=NO	CN1CC=CC(=NO)C1	
InChI=1S/C6H10N2O/c1-8-4-2-3-6(5-8)7-9/h2-3,9H,4-5H2,1H3	InChI=1S/C6H10N2O/c1-8-4-2-3-6(5-8)7-9/h2-3,9H,4-5H2,1H3
