20
gdb 109846	2.26398	1.20307	0.96869	4.1333	78.39	-0.2429	0.0304	0.2733	1323.9777	0.168506	-440.247572	-440.237392	-440.236448	-440.283251	35.673	
C	-0.1467073963	 0.9726034139	 0.1592623032	-0.23486
O	-0.5719248112	-0.1519744521	-0.5903145095	-0.233181
C	 0.4264263508	-0.6842009665	-1.3940298108	 0.062172
C	 1.3485444297	-1.7676003896	-0.854637294	-0.098907
C	 1.258684294	-2.2214777568	 0.5864303214	-0.403175
C	 0.2415817391	-2.118972586	-1.8218942233	 0.039177
O	-0.8238209048	-2.8616807734	-1.2970076572	-0.18538
C	-2.0680595382	-2.4910664269	-1.6857087762	 0.146196
N	-3.0590986267	-3.1838035928	-1.3286024948	-0.446961
H	 0.6719205033	 0.7173966413	 0.8446270731	 0.118085
H	 0.1884482671	 1.7876073004	-0.4992552591	 0.109834
H	-1.0079111023	 1.3137148978	 0.7376142983	 0.134264
H	 0.830909668	 0.0134280144	-2.1303112466	 0.087239
H	 2.3478790638	-1.7825409238	-1.2817329373	 0.090052
H	 0.247399873	-2.09653509	 0.9751536735	 0.148273
H	 1.5227700637	-3.2796428244	 0.676096424	 0.1276
H	 1.947512945	-1.648013047	 1.2150056686	 0.11268
H	 0.500615543	-2.391421154	-2.8427154028	 0.102679
H	-2.0789871463	-1.5816475256	-2.2963368499	 0.097033
H	-3.9156888346	-2.769740899	-1.6904687107	 0.227181
66.9978	108.3606	112.2576	135.1881	162.9737	172.5785	198.2125	252.1762	280.0004	337.2088	487.3529	568.9924	627.0942	701.803	764.5562	796.9616	822.7503	909.4348	971.7184	989.9355	1040.8437	1068.0077	1069.9955	1111.9713	1125.7998	1152.0804	1169.4431	1179.3891	1185.0041	1235.6097	1267.5308	1292.2104	1357.8468	1366.9466	1415.1832	1417.3023	1440.3968	1484.6156	1485.8746	1496.5252	1500.0938	1508.4772	1745.9601	2991.5586	3043.3036	3051.654	3063.848	3075.8006	3101.55	3121.2118	3126.2989	3137.4623	3151.9234	3517.2737
COC1C(C)C1OC=N	CO[C@H]1[C@@H](C)[C@H]1O[CH][NH]	
InChI=1S/C6H11NO2/c1-4-5(8-2)6(4)9-3-7/h3-7H,1-2H3	InChI=1S/C6H11NO2/c1-4-5(8-2)6(4)9-3-7/h3-7H,1-2H3/t4-,5+,6-/m1/s1
