18
gdb 127410	3.05996	1.63837	1.10269	2.0213	79.3	-0.1815	0.0275	0.209	1081.1793	0.151023	-398.138528	-398.130847	-398.129903	-398.170462	29.711	
C	-0.1473188484	 1.5039455605	-0.0726898367	-0.331971
N	 0.0739848674	 0.0755916072	 0.0136363584	-0.180129
C	 0.7482163407	-0.54560731	-1.1548681672	-0.162168
C	 1.3279521211	-1.9025742955	-0.6520184006	-0.354232
C	 1.4784611615	-1.5966186195	 0.8098820502	 0.306619
N	 2.0713975404	-2.1372543081	 1.8615417226	-0.329501
N	 1.7099628723	-1.3144732496	 2.8714638507	-0.193532
C	 0.9081747291	-0.2636098532	 2.4811380566	-0.21323
C	 0.7407133045	-0.4437628135	 1.1284996096	 0.277568
H	 0.7914698103	 2.0835196072	-0.1364696745	 0.10103
H	-0.7498341924	 1.729898744	-0.9579581202	 0.121927
H	-0.7033030922	 1.8459513756	 0.8052579868	 0.125243
H	 0.0435681966	-0.6595014814	-1.9837272434	 0.105837
H	 1.5743481754	 0.1010769224	-1.4976113527	 0.092112
H	 0.6149435462	-2.7196375647	-0.816983732	 0.121355
H	 2.2564110176	-2.1647215729	-1.1648668808	 0.121136
H	 2.081859807	-1.4832643666	 3.7893935541	 0.26878
H	 0.5616156731	 0.4721021781	 3.1874640291	 0.123157
133.9769	167.2177	227.052	242.3958	275.1583	356.5363	405.5204	504.9949	583.0123	630.4593	640.4172	700.4404	725.4055	750.3537	834.8726	943.6561	972.3078	992.858	1046.2914	1071.2508	1088.5101	1142.2371	1166.9936	1191.4597	1204.6971	1230.9385	1263.748	1305.6318	1318.0121	1377.4823	1453.6367	1457.1684	1468.053	1485.4908	1490.6543	1499.5724	1507.9963	1542.3752	1656.6527	2941.5047	2953.4405	3031.3551	3066.	3078.5812	3098.3793	3107.6959	3270.4133	3688.5369
CN1CCC2=NNC=C12	CN1CCc2n[nH]cc12	
InChI=1S/C6H9N3/c1-9-3-2-5-6(9)4-7-8-5/h4H,2-3H2,1H3,(H,7,8)	InChI=1S/C6H9N3/c1-9-3-2-5-6(9)4-7-8-5/h4H,2-3H2,1H3,(H,7,8)
