14
gdb 66535	3.0297	1.67683	1.27174	1.2413	72.98	-0.217	0.0119	0.2289	960.4145	0.098915	-399.379165	-399.371921	-399.370977	-399.410582	28.814	
O	-0.1597670877	 1.3997873978	 0.0222307447	-0.437767
C	-0.0026198606	 0.0493809269	 0.0132192722	 0.31417
C	-1.1089265371	-0.9959039863	 0.007380024	-0.171988
C	-0.0450526649	-0.9877483381	-1.080241808	-0.111303
N	 0.8422358035	-1.9517562802	-0.2953469802	-0.207633
C	-0.1867486063	-1.9530768032	 0.7935474129	-0.104329
C	 0.9117243884	-0.9328002531	 0.8391209173	 0.247852
C	 2.0214948222	-0.7482892828	 1.6929246377	 0.020807
C	 2.952859846	-0.5447154948	 2.4282962976	-0.365683
H	 0.5991187163	 1.8047436074	-0.4154981651	 0.300491
H	-2.178017234	-0.8516152404	-0.0390306434	 0.110245
H	-0.098753346	-0.9375485077	-2.1599178024	 0.111102
H	-0.3631309518	-2.810350467	 1.4330448005	 0.109125
H	 3.7771305419	-0.3771698785	 3.0763813521	 0.184912
121.961	156.4075	290.6679	309.9126	383.7286	478.2355	492.5264	558.1949	586.2095	633.665	665.2548	666.7412	745.5438	800.7027	829.148	862.8451	887.4044	907.9649	916.778	950.2182	993.7712	1023.722	1072.2881	1159.6816	1170.58	1235.8115	1249.6611	1303.2822	1370.9625	1478.8033	2228.9594	3178.9373	3199.4061	3233.4293	3500.953	3774.1646
OC12C3C1N1C3C21C#C	O[C@@]12[C@H]3[C@@H]1N1[C@H]3[C@]21C#C	
InChI=1S/C7H5NO/c1-2-6-4-3-5(8(4)6)7(3,6)9/h1,3-5,9H	InChI=1S/C7H5NO/c1-2-6-4-3-5(8(4)6)7(3,6)9/h1,3-5,9H/t3-,4-,5+,6-,7+,8?/m1/s1
