16
gdb 98060	3.57326	1.03895	0.80947	3.7518	69.13	-0.2276	-0.095	0.1326	1363.5731	0.123444	-471.252786	-471.242852	-471.241908	-471.28881	34.324	
C	 0.0907703764	 1.3191688156	-0.1884827693	-0.308515
N	 0.2529767931	-0.1165451556	-0.159236867	-0.3026
C	 0.7937165235	-0.7893171185	-1.2126500198	 0.275963
N	 1.2732868875	-0.1877895773	-2.2395033695	-0.541714
C	 0.7397948344	-2.2890241502	-1.0061765089	 0.249611
O	 0.1823256102	-2.7678274423	-0.038891459	-0.327523
C	 1.3877140885	-3.2504983712	-2.0401334242	 0.342133
N	 1.217813604	-4.5385532764	-1.6751451107	-0.509102
O	 1.9727262093	-2.8826008904	-3.0428422022	-0.348634
H	 1.0497971182	 1.8011911217	-0.4002086481	 0.149087
H	-0.6132190155	 1.6384764098	-0.9681575299	 0.131279
H	-0.2741647453	 1.6558727206	 0.7839321602	 0.119614
H	-0.2254461883	-0.6699846406	 0.5308828744	 0.257751
H	 1.6646307946	-0.869894824	-2.8862655675	 0.254821
H	 0.7229059834	-4.7507492364	-0.8245831434	 0.283569
H	 1.593031396	-5.2692545247	-2.2556646348	 0.27426
44.716	53.2091	93.1676	118.1559	176.4108	295.5626	323.615	336.8832	360.436	400.7166	420.3138	454.4084	585.2422	615.2399	616.548	677.8022	791.8162	839.2205	918.2619	972.5638	1090.3265	1150.1061	1158.512	1191.7887	1211.7802	1347.6599	1370.4377	1453.6212	1473.6876	1512.9769	1553.7416	1585.2886	1679.5195	1762.8635	1796.1058	3018.4761	3083.4956	3132.4718	3512.3928	3600.883	3663.9151	3741.3233
CNC(=N)C(=O)C(N)=O	CNC(=N)C(=O)C(=O)N	
InChI=1S/C4H7N3O2/c1-7-3(5)2(8)4(6)9/h1H3,(H2,5,7)(H2,6,9)	InChI=1S/C4H7N3O2/c1-7-3(5)2(8)4(6)9/h1H3,(H2,5,7)(H2,6,9)
