21
gdb 109345	2.81836	1.26573	0.94512	1.3489	84.7	-0.2189	0.0312	0.25	1282.2187	0.18395	-387.087724	-387.079009	-387.078065	-387.121224	33.491	
O	 0.067462448	 1.4107053176	 0.1009718349	-0.416672
C	 0.0071194761	-0.0019417758	 0.0357624791	-0.153225
C	-1.4207256208	-0.4736187262	-0.0155013318	 0.272122
C	-2.4667563698	 0.3552338252	 0.007377081	-0.144177
C	-3.8928522479	-0.1377995068	-0.0490665531	-0.251001
C	-4.0207610875	-1.4264039072	-0.8831029123	-0.22663
C	-2.9638270182	-2.4642464132	-0.5074946212	-0.023373
C	-1.7599767117	-2.6758126159	-1.3943221514	-0.291838
C	-1.6139195074	-1.9497433286	-0.0693558564	-0.110242
H	 0.992614768	 1.6676162206	 0.1364580022	 0.288096
H	 0.5392794854	-0.3860090723	-0.8526697874	 0.094176
H	 0.5032957961	-0.461902008	 0.9098494501	 0.087978
H	-2.2915553752	 1.4236788968	 0.0695033924	 0.10294
H	-4.2632940928	-0.3153509223	 0.9717860674	 0.105774
H	-4.5418383245	 0.6395886819	-0.4677878178	 0.096871
H	-5.0217477866	-1.8548705605	-0.7652558818	 0.092668
H	-3.9209866496	-1.1628307242	-1.9422708002	 0.100031
H	-3.3323814135	-3.3413422859	 0.0150562968	 0.079955
H	-1.3425617416	-3.6737006715	-1.4802068727	 0.104561
H	-1.7003513051	-2.0808953011	-2.3005365543	 0.110568
H	-1.1029245712	-2.5090665124	 0.7120593765	 0.081418
74.0098	117.2173	173.5188	210.2513	241.0457	261.7763	371.8853	384.8632	501.8763	519.4635	567.6741	670.4067	755.8079	787.6648	834.5847	850.1333	882.5787	919.2325	959.8373	986.6198	1013.1169	1045.193	1056.9026	1073.5447	1079.5665	1105.5433	1126.0019	1136.1279	1163.9879	1218.5785	1219.7418	1233.926	1251.6417	1255.0006	1324.3937	1350.1958	1371.2758	1393.6774	1419.9421	1462.1265	1476.5695	1484.9459	1494.8989	1509.711	1732.6029	2934.2301	2950.5502	2995.3211	3031.0462	3056.6052	3071.7658	3116.3524	3121.6222	3151.3683	3193.3693	3210.0475	3842.8615
OCC1=CCCC2CC12	OCC1=CCC[C@H]2C[C@@H]12	
InChI=1S/C8H12O/c9-5-7-3-1-2-6-4-8(6)7/h3,6,8-9H,1-2,4-5H2	InChI=1S/C8H12O/c9-5-7-3-1-2-6-4-8(6)7/h3,6,8-9H,1-2,4-5H2/t6-,8+/m0/s1
