15
gdb 43453	2.91739	1.5758	1.11402	2.2384	68.74	-0.2638	-0.0073	0.2565	1045.5304	0.113892	-453.99691	-453.989506	-453.988562	-454.028922	28.426	
N	-0.1230524113	 1.3101199502	 0.0132719346	-0.552226
C	-0.0165652165	 0.0470122506	 0.0050143117	 0.334326
N	 1.0878707046	-0.7929649396	-0.0069253892	-0.439409
C	 0.7437431131	-2.1420129821	-0.0129049597	 0.474133
O	 1.4808846697	-3.0825046098	-0.0231426769	-0.374311
O	-0.6142192647	-2.2172614145	-0.0048635124	-0.271108
C	-1.1642470862	-0.906025375	 0.0064553337	 0.373877
C	-2.4296141375	-0.6551681293	 0.7709856386	-0.309612
C	-2.4390493381	-0.6460910273	-0.7391330187	-0.309612
H	 0.7811998842	 1.7803978596	 0.0104542795	 0.219965
H	 2.0523828419	-0.5046034058	-0.0112150503	 0.274743
H	-2.864814107	-1.5113621133	 1.2731566325	 0.140044
H	-2.4935428138	 0.2919341247	 1.2942574203	 0.149573
H	-2.509443421	 0.3072267136	-1.2501444869	 0.149573
H	-2.8805525374	-1.4962205221	-1.2460827668	 0.140044
102.573	141.7519	235.5306	239.3882	363.8703	433.1836	507.0395	521.6305	601.6813	651.2	697.452	758.227	768.5546	774.3718	838.8093	920.0494	930.7793	967.4859	968.3331	1025.2358	1063.1449	1086.1479	1087.305	1164.4984	1199.9064	1293.9957	1332.3857	1356.5386	1419.4193	1440.7781	1485.0099	1777.3265	1911.0668	3143.7784	3143.9341	3235.4947	3248.2291	3490.7963	3666.0974
N=C1NC(=O)OC11CC1	[NH][C]1NC(=O)OC21CC2	
InChI=1S/C5H6N2O2/c6-3-5(1-2-5)9-4(8)7-3/h1-2H2,(H2,6,7,8)	InChI=1S/C5H6N2O2/c6-3-5(1-2-5)9-4(8)7-3/h1-2H2,(H2,6,7,8)
