15
gdb 43533	2.56076	1.49592	1.08738	1.4101	74.09	-0.2608	0.0029	0.2637	1095.699	0.111814	-416.735411	-416.727318	-416.726374	-416.76826	30.238	
N	-0.1334804939	 1.2089792133	-0.6651725029	-0.561128
C	-0.0602323476	 0.0811291868	-0.1250301265	 0.393369
O	 0.9950196483	-0.595824729	 0.4579391303	-0.280185
C	 0.1730884882	-1.8094576163	 0.6768546015	-0.113111
C	 0.1201140744	-2.2234774261	 2.060322444	 0.331702
C	 0.0520051585	-2.5846559253	 3.2041242996	-0.433568
C	-1.0223402456	-1.0365929938	 0.0911982716	 0.191331
C	-2.4482297672	-0.9608927559	 0.4663330927	-0.290253
N	-2.0293117494	-1.5441977913	-0.8183861892	-0.359352
H	 0.7587875375	 1.7035888381	-0.6534560804	 0.236293
H	 0.530596922	-2.6117556418	 0.025274929	 0.13558
H	 0.0012148789	-2.9023944189	 4.2166690385	 0.211289
H	-2.8421993362	-1.6736559428	 1.1846581892	 0.139323
H	-2.9025330295	 0.0257759338	 0.4780232723	 0.142536
H	-2.1592202084	-0.8774261007	-1.5775750697	 0.256173
85.6675	116.9468	209.4217	223.9411	229.3911	326.3566	403.6978	504.9506	584.6333	610.8147	632.6314	686.4151	694.4697	764.572	845.2396	861.9021	889.784	934.4341	951.4151	996.0974	1012.8176	1034.729	1088.8434	1126.0463	1185.9855	1250.9522	1271.3271	1295.351	1357.7297	1431.5601	1510.2201	1832.6986	2242.7193	3076.1757	3116.6894	3210.8758	3489.2397	3493.9612	3500.1794
N=C1OC(C#C)C11CN1	[NH][C]1O[C@@H](C#C)[C@]21CN2	
InChI=1S/C6H6N2O/c1-2-4-6(3-8-6)5(7)9-4/h1,4,7-8H,3H2	InChI=1S/C6H6N2O/c1-2-4-6(3-8-6)5(7)9-4/h1,4,7-8H,3H2/t4-,6-/m0/s1
