14
gdb 133135	2.3175	1.86854	1.04117	1.4903	72.06	-0.2366	-0.0606	0.1761	1059.1175	0.099708	-477.944054	-477.936229	-477.935284	-477.976642	28.679	
C	 0.0192388939	 1.5104899733	 0.0020419822	-0.478224
C	-0.0413694603	 0.0206687231	 0.0103124683	 0.258981
C	-1.1589188818	-0.7255412595	 0.1082754074	 0.147694
F	-2.34599176	-0.1335816875	 0.2087697518	-0.053277
C	-1.1053685926	-2.1695461068	 0.1073843889	 0.177577
N	-2.151548841	-2.9072218104	 0.199138538	-0.529885
C	 0.2836252237	-2.633971976	-0.0106714759	-0.022064
N	 1.3483832354	-1.9220044397	-0.104061791	-0.05604
O	 1.1945891283	-0.5475750187	-0.094592164	-0.277418
H	 0.6301007055	 1.8713385375	 0.8358265015	 0.156247
H	 0.4801795589	 1.8678041516	-0.9244328476	 0.156227
H	-0.9843872178	 1.9264243236	 0.086857482	 0.158622
H	-1.8930057924	-3.8961569371	 0.1794734149	 0.218496
H	 0.47304728	-3.7056513735	-0.0240572466	 0.143066
108.5407	116.9341	167.1048	280.6903	305.5788	308.7302	472.6375	505.7387	510.3552	534.2264	567.7715	664.7295	740.9571	859.0846	866.2531	905.79	948.4021	989.4649	1063.3273	1069.7083	1158.6582	1225.0816	1292.5832	1326.7155	1406.4869	1462.4453	1475.5954	1477.8732	1628.776	1689.4178	1717.7888	3046.4581	3103.1719	3159.33	3161.8324	3448.3228
CC1=C(F)C(=N)C=NO1	C[C]1C(=C([NH])C=NO1)F	
InChI=1S/C5H5FN2O/c1-3-5(6)4(7)2-8-9-3/h2,7H,1H3	InChI=1S/C5H5FN2O/c1-3-5(6)4(7)2-8-9-3/h2,7H,1H3
