21
gdb 63514	3.14464	1.29487	1.25751	1.7241	83.25	-0.2487	0.0899	0.3386	1145.355	0.181422	-387.030773	-387.022173	-387.021228	-387.063471	33.945	
C	-0.0205691468	 1.5321398834	-0.0694220794	-0.452438
C	-0.0896181377	 0.0272437477	 0.0646459134	 0.193427
C	-1.2092282216	-0.6508456784	-0.6930614199	-0.452436
O	 1.2086246464	-0.643704688	-0.061253314	-0.364455
C	 0.5580755635	-0.6455565012	 1.1852296245	 0.549285
C	 1.1525244484	-0.2379545484	 2.544998404	-0.154679
C	-0.1536737128	-0.8235757683	 3.1650616581	-0.22202
C	 0.2676691482	-1.8629876955	 2.0807743493	-0.154679
C	 1.7318853317	-1.6890372629	 2.6005860903	-0.227298
H	 0.8313079293	 1.9350183455	 0.4823561085	 0.127016
H	 0.0855578497	 1.8167291572	-1.122200358	 0.124057
H	-0.936161185	 1.9978240429	 0.311550126	 0.118617
H	-1.1358594702	-0.4268140615	-1.7631188453	 0.12406
H	-1.166967178	-1.7345849614	-0.5658286229	 0.127013
H	-2.1848512973	-0.2952629236	-0.3437325507	 0.118616
H	 1.6578031207	 0.689965011	 2.8114428853	 0.077314
H	-0.0710813974	-1.1641399702	 4.199788419	 0.095595
H	-1.0805332599	-0.2700874871	 2.994236487	 0.092637
H	-0.2378977739	-2.7914847957	 1.8169005117	 0.077314
H	 2.5330850768	-1.9246377388	 1.8981511521	 0.112926
H	 1.9329278659	-2.0839897367	 3.599924351	 0.090127
153.5339	155.7957	165.6803	177.458	217.6259	310.8825	379.3924	442.1259	461.9232	480.921	595.2608	614.5154	731.9207	791.6448	797.3617	891.4149	895.3103	931.6083	943.3764	949.9232	959.5096	1011.7347	1018.562	1053.7283	1063.9305	1073.5134	1081.4631	1116.9779	1153.2878	1177.9857	1182.6158	1192.0354	1238.1332	1239.4062	1255.044	1258.1383	1405.7959	1416.2264	1473.5943	1477.0074	1483.1761	1492.8502	1500.2651	1523.513	1568.2943	3031.3299	3036.1209	3057.024	3060.7311	3092.0056	3096.8341	3116.9819	3121.5007	3124.384	3128.3896	3129.8817	3135.2385
CC1(C)OC11C2CC1C2	CC1(C)O[C@]21[C@H]1C[C@@H]2C1	
InChI=1S/C8H12O/c1-7(2)8(9-7)5-3-6(8)4-5/h5-6H,3-4H2,1-2H3	InChI=1S/C8H12O/c1-7(2)8(9-7)5-3-6(8)4-5/h5-6H,3-4H2,1-2H3/t5-,6+,8-
