20
gdb 101950	2.28368	1.29657	0.91677	3.5856	75.42	-0.2391	0.0689	0.308	1309.5695	0.169865	-440.213489	-440.203986	-440.203042	-440.248599	33.875	
C	 0.3452095193	 0.7892729923	 2.65630233	-0.239682
O	-0.0293286506	-0.4973422291	 2.2102701807	-0.251108
C	 0.7017044066	-0.9875871696	 1.0999840341	 0.044625
C	 0.461805749	-2.4852646739	 1.0087370493	 0.002872
C	 0.3562178339	-3.3135739188	 2.2302610405	-0.248214
N	-0.8380387592	-3.0494117806	 1.4021759241	-0.325539
C	 0.2722590414	-0.3036772728	-0.1893375572	 0.073476
C	 1.0433951942	 0.7905281985	-0.7944090279	-0.182629
O	 1.1251633734	-0.5375656572	-1.3108299851	-0.233052
H	 0.1219062405	 1.5687325816	 1.9157998901	 0.116691
H	-0.229726401	 0.991412604	 3.5629719836	 0.133272
H	 1.4177045015	 0.8337198396	 2.8978620322	 0.110878
H	 1.7811985511	-0.8062243995	 1.2386135586	 0.078137
H	 0.8848936149	-2.921945636	 0.1073143935	 0.109727
H	 0.7069326303	-4.3415791204	 2.2180087959	 0.114386
H	 0.4319382569	-2.8062262103	 3.1869000886	 0.116166
H	-1.3750933183	-2.3139344236	 1.85777999	 0.239081
H	-0.7945700197	-0.3734795034	-0.4064457456	 0.106663
H	 0.5438316307	 1.5130378591	-1.4380018684	 0.120007
H	 1.9435070752	 1.15299635	-0.298718717	 0.114245
78.8102	82.4193	86.5976	163.5579	184.6882	194.6538	279.9824	317.887	361.8287	436.647	503.5321	620.9987	796.5367	852.2575	859.9023	874.3014	934.2595	959.853	976.4447	1013.5126	1055.0115	1102.5984	1119.2639	1136.9877	1146.9848	1156.4035	1160.9949	1175.6946	1182.4268	1191.2777	1232.9263	1277.4077	1282.2637	1295.5128	1317.6039	1351.7935	1414.8833	1444.2401	1479.621	1488.1622	1501.2176	1510.751	1526.5291	2961.5012	2989.7808	3045.99	3081.1624	3107.4648	3115.9648	3119.1078	3142.7553	3168.7456	3206.0363	3494.3751
COC(C1CN1)C1CO1	CO[C@@H]([C@H]1CN1)[C@H]1CO1	
InChI=1S/C6H11NO2/c1-8-6(4-2-7-4)5-3-9-5/h4-7H,2-3H2,1H3	InChI=1S/C6H11NO2/c1-8-6(4-2-7-4)5-3-9-5/h4-7H,2-3H2,1H3/t4-,5-,6+/m1/s1
