24
gdb 109668	2.39872	1.02471	0.97316	1.774	86.01	-0.2193	0.0617	0.2811	1426.8491	0.214785	-405.515397	-405.504181	-405.503237	-405.551368	41.134	
C	-0.6560612056	 0.7383416612	 0.3316471168	-0.389713
C	 0.1149586554	-0.5897398092	 0.2918704732	-0.24411
C	 0.7502738528	-0.9096631388	-1.0595686761	 0.310304
C	 1.7553215924	 0.1247383936	-1.5410493858	-0.444495
C	 0.9839421466	-2.3365840446	-1.4661877246	-0.092332
C	 0.6441815295	-3.5441894947	-0.618838642	-0.087277
O	 0.5782306483	-4.7319735295	-1.399479029	-0.420122
N	-0.0218636967	-1.5137087829	-2.1570619489	-0.134029
C	-1.4403026403	-1.8061568054	-2.0271732732	-0.327369
H	-0.0037525043	 1.5947326346	 0.1396931492	 0.123553
H	-1.457835479	 0.7578650104	-0.4133049151	 0.120902
H	-1.1114291658	 0.8859338989	 1.3156946341	 0.113999
H	 0.9174391181	-0.5613229123	 1.0405222675	 0.101531
H	-0.553198185	-1.3946393318	 0.6065613414	 0.097631
H	 2.5504498042	 0.2738220262	-0.8011646576	 0.109277
H	 2.2097982865	-0.1984713786	-2.4801687961	 0.124819
H	 1.2769763848	 1.0925137628	-1.7218793163	 0.119055
H	 1.859785301	-2.5348079066	-2.0863872107	 0.087663
H	 1.4501642	-3.7158361901	 0.1033450822	 0.115001
H	-0.2786233299	-3.4028893242	-0.0419559783	 0.087169
H	-0.0895927125	-4.5969891731	-2.079527039	 0.284006
H	-1.787279539	-2.1250155205	-1.0337036795	 0.103188
H	-2.0106698006	-0.9139118891	-2.3053863767	 0.127748
H	-1.7045731109	-2.5948855765	-2.7418015757	 0.113601
69.6371	92.8768	129.5294	170.6505	189.088	201.5665	226.9815	265.1814	283.7588	292.3698	313.8754	340.0275	390.9839	465.2363	541.901	589.5396	679.1118	737.1185	783.6213	812.0129	948.6174	993.4661	1008.5566	1011.0939	1058.3486	1063.2812	1094.2018	1115.9538	1141.8823	1150.32	1172.4575	1179.8161	1224.9066	1268.4646	1304.6579	1334.3304	1359.2272	1379.6286	1409.6409	1410.5891	1414.6431	1446.3468	1460.3338	1477.4465	1486.8498	1490.8863	1494.6456	1502.0644	1509.6201	1510.8116	1517.2888	2990.0878	3019.6541	3027.0012	3033.3247	3041.3761	3053.2918	3065.6907	3087.3652	3089.5411	3093.0512	3097.5287	3107.57	3118.6772	3124.3421	3815.5922
CCC1(C)C(CO)N1C	CC[C@@]1(C)[C@@H](CO)N1C	
InChI=1S/C7H15NO/c1-4-7(2)6(5-9)8(7)3/h6,9H,4-5H2,1-3H3	InChI=1S/C7H15NO/c1-4-7(2)6(5-9)8(7)3/h6,9H,4-5H2,1-3H3/t6-,7+,8?/m1/s1
