23
gdb 82527	2.19237	1.56715	1.33606	0.2791	90.01	-0.232	0.0911	0.3231	1145.496	0.205102	-351.120866	-351.11164	-351.110696	-351.154062	36.417	
C	-0.0107669094	 1.5700559348	 0.0418061605	-0.419174
C	 0.0972613123	 0.0599095078	 0.0919488382	-0.047866
C	 1.3446310601	-0.7393357713	-0.1960037203	-0.122539
C	 2.6036740819	-0.0546278103	 0.3560912068	-0.321783
C	 1.9485884217	-0.0587436994	 1.7515756374	 0.335366
C	 2.6495598389	-0.3955973888	 3.0334787433	-0.345213
C	 2.0410915665	 0.9760928481	 2.8378277299	-0.324182
C	 0.7068029342	-0.7578890603	 1.2076890648	 0.272308
C	-0.0352009852	-1.8524348386	 1.9215039557	-0.503895
H	 0.8685912927	 2.0642801308	 0.4603246211	 0.12603
H	-0.130227673	 1.9165509314	-0.9910766518	 0.111292
H	-0.8816914975	 1.9168037735	 0.6094334519	 0.111286
H	-0.7849189998	-0.4361194828	-0.312649013	 0.075998
H	 1.3528151676	-1.5283458718	-0.9398069138	 0.07752
H	 3.4853160803	-0.7000057289	 0.3113009677	 0.100631
H	 2.8620782377	 0.9192681664	-0.0748126272	 0.091966
H	 2.1602289295	-1.0728471773	 3.7265391489	 0.110121
H	 3.7315282983	-0.4847419773	 3.0165743997	 0.107502
H	 2.7135109309	 1.8153853724	 2.6886243506	 0.107799
H	 1.1436426313	 1.2207474133	 3.3974188737	 0.108434
H	-0.6137417618	-1.4630145477	 2.7691717458	 0.115283
H	-0.741601645	-2.3492030405	 1.2484242521	 0.115958
H	 0.6492050676	-2.6146748734	 2.3109044079	 0.117159
117.621	169.9021	184.5116	196.6751	210.7041	236.837	289.2456	349.854	377.2456	494.1581	508.4636	582.7664	641.136	734.5387	774.2491	799.3892	851.3365	884.7959	899.0563	925.2906	934.7816	976.3895	984.7236	1008.0111	1047.887	1055.0358	1074.0792	1086.5203	1109.2253	1120.4197	1144.5526	1175.9762	1185.603	1188.5715	1250.7004	1259.2042	1287.5413	1339.6294	1384.2544	1411.6439	1413.8223	1460.3469	1462.9561	1484.2551	1487.6183	1498.5823	1500.7964	1503.3804	1504.6603	3015.4956	3029.7854	3033.8358	3071.8974	3084.1063	3087.4817	3094.2569	3104.8024	3117.9132	3122.0557	3125.7664	3168.4293	3194.5886	3209.9036
CC1C2CC3(CC3)C12C	C[C@H]1[C@H]2CC3(CC3)[C@@]12C	
InChI=1S/C9H14/c1-6-7-5-9(3-4-9)8(6,7)2/h6-7H,3-5H2,1-2H3	InChI=1S/C9H14/c1-6-7-5-9(3-4-9)8(6,7)2/h6-7H,3-5H2,1-2H3/t6-,7+,8-/m0/s1
