14
gdb 5652	5.1442	2.15947	1.53535	3.1059	70.11	-0.1912	-0.007	0.1842	772.7212	0.110963	-341.624969	-341.619236	-341.618292	-341.654507	23.069	
C	-0.0618993415	 1.493150965	 0.0106593061	-0.406528
C	 1.4123656546	 1.8813346664	-0.0013580224	-0.083757
C	 2.2148425203	 0.7922649678	-0.0148409243	-0.20132
C	 1.3498723157	-0.373012812	-0.012787284	 0.312942
C	 0.02762171	-0.0036769955	 0.0018168579	 0.273323
N	-0.8025411045	-1.0885151254	 0.0039856547	-0.340574
C	 0.0206599689	-2.1209210642	-0.0093396914	-0.021218
N	 1.3472962618	-1.7444364456	-0.0200296937	-0.389417
H	-0.5731657159	 1.8927219202	 0.8961293615	 0.133892
H	-0.5899666787	 1.902110443	-0.8605479138	 0.133891
H	 1.7475885993	 2.909960872	 0.0009178838	 0.099512
H	 3.296752395	 0.7948308358	-0.0251688875	 0.098983
H	-0.2711682009	-3.1604089752	-0.0120672576	 0.125659
H	 2.1369674658	-2.3670729525	-0.0309005792	 0.264613
198.2306	272.9752	430.3568	444.4846	497.132	651.5976	655.0444	675.6013	721.7401	725.4292	777.9399	863.2782	924.9248	927.6388	929.7109	967.7862	1068.1057	1094.2273	1125.0377	1157.0767	1218.0552	1260.1687	1328.502	1375.7697	1386.131	1432.265	1466.6048	1506.6994	1563.6356	1600.1566	3032.1047	3060.324	3210.6233	3233.1381	3253.4128	3671.0538
C1C=CC2=C1N=CN2	C1C=Cc2c1nc[nH]2	
InChI=1S/C6H6N2/c1-2-5-6(3-1)8-4-7-5/h1-2,4H,3H2,(H,7,8)	InChI=1S/C6H6N2/c1-2-5-6(3-1)8-4-7-5/h1-2,4H,3H2,(H,7,8)
