16
gdb 70970	3.81483	1.33102	1.16036	4.8599	73.98	-0.2544	-0.0035	0.251	1066.1335	0.123689	-400.69878	-400.691218	-400.690274	-400.730607	29.382	
C	 0.0092091659	 1.3985858453	-0.0992298349	-0.507698
C	-0.0127912305	-0.085598381	 0.0120796552	 0.478259
O	 0.9158576409	-0.8533122679	-0.7735428075	-0.348767
C	 0.1259811319	-2.0211926499	-0.4247723773	 0.330567
C	 0.428248001	-2.2298723115	 1.0884300602	-0.268266
C	-0.3246538256	-0.914579628	 1.2758038624	-0.169851
C	-1.1001902376	-1.1057317818	-0.0273359092	-0.246037
C	 0.1578655553	-3.0923925293	-1.3888017996	 0.180567
N	 0.1531000914	-3.9707806907	-2.1397198609	-0.334622
H	 0.9666703499	 1.7969608916	 0.2517431846	 0.141828
H	-0.1375691428	 1.7133022651	-1.1365207651	 0.141723
H	-0.7861339452	 1.8343950651	 0.5123692812	 0.132585
H	-0.1273262033	-3.0768584133	 1.4960634796	 0.126431
H	 1.4878834519	-2.2891797376	 1.3507063019	 0.119154
H	-0.6753076597	-0.4662164588	 2.1958931068	 0.104938
H	-2.1480434035	-1.1041467974	-0.2918481774	 0.11919
134.1496	153.7845	199.5818	258.4707	300.5182	430.6288	500.9001	515.7833	542.034	582.0379	635.187	760.2719	777.6521	829.9355	878.3843	900.0447	925.0997	963.5589	974.3604	993.0137	1043.7214	1070.6613	1098.3142	1112.2956	1145.5298	1215.9037	1226.1107	1233.1371	1306.5916	1403.7815	1462.0883	1474.0217	1486.9668	1500.9847	2362.2887	3041.0201	3064.2235	3109.8884	3119.9193	3131.8613	3207.6421	3221.0291
CC12OC3(CC1C23)C#N	C[C@@]12O[C@]3(C[C@@H]1[C@@H]23)C#N	
InChI=1S/C7H7NO/c1-6-4-2-7(3-8,9-6)5(4)6/h4-5H,2H2,1H3	InChI=1S/C7H7NO/c1-6-4-2-7(3-8,9-6)5(4)6/h4-5H,2H2,1H3/t4-,5+,6-,7-/m1/s1
