21
gdb 109268	2.8677	1.22057	1.00802	0.2408	94.23	-0.2123	-0.0268	0.1855	1285.2343	0.18394	-349.98286	-349.97421	-349.973266	-350.016139	33.616	
C	-0.301366714	 1.4926733698	 0.04931397	-0.363413
C	 0.0832219208	 0.0044819756	 0.0536671847	-0.28351
C	 0.789559764	-0.4428078335	-1.2124622751	 0.325135
C	 2.0943698375	-0.7851752882	-1.1922702245	-0.176675
C	 2.8082971729	-1.3564793246	-2.3909363225	-0.304923
C	 2.8788810078	-0.2969642939	-3.4616755552	-0.079882
C	 1.7699787813	 0.160700071	-4.0710239161	-0.060733
C	 0.4178010145	-0.1742771921	-3.6859902802	-0.095093
C	-0.0102023735	-0.4509132488	-2.4261185559	-0.152668
H	 0.5892785561	 2.1231344572	-0.038018219	 0.119167
H	-0.9574255835	 1.729809419	-0.7940819267	 0.119118
H	-0.8234331103	 1.7659569751	 0.9719631251	 0.109258
H	 0.7191406685	-0.2075213952	 0.9195385008	 0.09831
H	-0.8263314989	-0.5986389373	 0.1831634386	 0.100592
H	 2.6607375645	-0.6617255659	-0.2720010171	 0.082598
H	 3.8076513421	-1.7029778724	-2.1171877215	 0.098032
H	 2.2502074157	-2.2229537148	-2.77377158	 0.114968
H	 3.853014159	 0.0888392616	-3.7499045608	 0.091583
H	 1.8763120744	 0.8462818808	-4.9092535484	 0.087904
H	-0.3414378572	-0.0882293488	-4.4607187512	 0.087872
H	-1.0843119017	-0.5631169043	-2.283626325	 0.082359
71.375	109.302	210.0691	222.7767	283.6926	327.702	350.7894	375.8038	437.8349	489.0042	604.879	673.1432	727.2114	763.7352	786.171	830.788	855.4257	907.0791	941.825	953.3531	967.9619	979.7232	1005.1005	1045.7518	1059.6405	1078.7659	1111.7743	1170.8764	1223.8911	1248.8323	1263.0158	1281.2925	1326.176	1347.8516	1361.3909	1406.1941	1411.6407	1472.0958	1473.4787	1485.0889	1494.4926	1506.129	1584.9433	1672.1509	1681.9323	2997.2167	3012.1567	3034.329	3065.8458	3092.4673	3105.0704	3109.2883	3125.1734	3140.0067	3151.1083	3153.9729	3171.6171
CCC1=CCC=CC=C1	CCC1=CCC=CC=C1	
InChI=1S/C9H12/c1-2-9-7-5-3-4-6-8-9/h3-5,7-8H,2,6H2,1H3	InChI=1S/C9H12/c1-2-9-7-5-3-4-6-8-9/h3-5,7-8H,2,6H2,1H3
