20
gdb 22692	5.07423	0.61658	0.59086	1.5082	79.82	-0.2409	0.0144	0.2553	1873.8939	0.16816	-440.226867	-440.216617	-440.215673	-440.263599	36.055	
C	 0.1098479604	 1.5360349884	 0.015478449	-0.471116
C	 0.0042381036	 0.0336379416	 0.0098562156	 0.353768
C	 0.1125177067	-0.7344336735	 1.3003529282	-0.268996
C	 1.5228142558	-0.6712068264	 1.9219292375	-0.222059
C	 1.5861617514	-1.4046110171	 3.238854691	 0.099255
C	 2.3942411899	-0.9310446252	 4.3685344287	-0.181137
O	 0.9766598907	-0.751861166	 4.3582156942	-0.237257
N	-0.1718168606	-0.6627140857	-1.0482767842	-0.166306
O	-0.2395645612	 0.1480286198	-2.1959464349	-0.401705
H	 1.0190842778	 1.8630389408	-0.5008224374	 0.144947
H	-0.7298588591	 1.9740791669	-0.5320454585	 0.149475
H	 0.1226273014	 1.9319463124	 1.0329857295	 0.121794
H	-0.6023430614	-0.3283966919	 2.0274926138	 0.122615
H	-0.1615909813	-1.7759499644	 1.1081387988	 0.114595
H	 2.2480408485	-1.1118098288	 1.2264262613	 0.111714
H	 1.8191948912	 0.3711978693	 2.0842497429	 0.105408
H	 1.3692149446	-2.4738687561	 3.1879810496	 0.09301
H	 2.771768375	-1.640470542	 5.1037609675	 0.114918
H	 2.9810372561	-0.0192300562	 4.2617075776	 0.112263
H	-0.4006797697	-0.5000000057	-2.8894783101	 0.304815
48.6714	58.2688	73.6966	105.4278	127.3889	223.3579	290.0889	337.8109	359.6143	396.0442	446.5668	453.2469	553.8375	651.8125	765.8141	804.5764	827.1905	873.0476	945.708	971.5471	990.8896	1021.5067	1035.8877	1053.8669	1101.1191	1121.1991	1160.4926	1171.3322	1215.7914	1268.7709	1282.0649	1298.085	1318.7952	1367.6913	1399.9196	1400.3851	1446.6724	1470.0073	1475.4461	1485.0991	1488.9017	1531.2869	1728.1733	3025.8614	3035.4532	3042.4469	3069.5959	3080.7688	3088.6904	3100.6254	3100.8416	3133.3846	3166.7506	3822.2787
CC(CCC1CO1)=NO	CC(=NO)CC[C@H]1CO1	
InChI=1S/C6H11NO2/c1-5(7-8)2-3-6-4-9-6/h6,8H,2-4H2,1H3	InChI=1S/C6H11NO2/c1-5(7-8)2-3-6-4-9-6/h6,8H,2-4H2,1H3/t6-/m0/s1
