16
gdb 35869	2.21536	1.72419	1.09545	2.3175	68.41	-0.2714	0.0203	0.2917	1075.0117	0.124809	-437.873998	-437.866178	-437.865234	-437.907027	28.868	
N	-0.1920232294	-1.1675128422	-0.1642959176	-0.329479
C	-0.102191806	-0.0171057176	-0.0937177209	 0.269396
C	 0.0141090406	 1.4294985277	 0.0110205901	-0.240511
C	-0.5710995771	 2.0141338901	 1.3261939721	-0.103219
O	 0.154235969	 3.2095847474	 1.53455237	-0.238046
C	 1.5103216565	 2.9111767016	 1.2396467357	-0.16029
C	 1.4660464745	 1.9614097755	 0.0440419732	 0.386015
C	 2.6270578168	 1.2722607819	-0.5177855725	-0.245046
O	 2.0207304267	 2.3868103472	-1.1907112591	-0.259271
H	-0.4797491269	 1.8896102878	-0.8508390103	 0.153378
H	-1.6312188171	 2.2597543683	 1.2511338728	 0.136868
H	-0.4239212476	 1.3032358437	 2.1535435849	 0.116246
H	 2.0347764457	 3.8385190599	 1.0013590685	 0.137941
H	 1.9976314021	 2.4257907837	 2.1003766554	 0.107043
H	 3.6161629427	 1.4611335595	-0.1021594819	 0.124155
H	 2.4984090296	 0.3051348855	-0.9997201904	 0.14482
47.4199	137.7994	183.8653	265.8968	317.0417	352.8438	401.5124	473.8285	534.3889	564.0617	637.5726	758.0444	832.8035	891.3201	943.9028	964.9128	1002.7712	1037.4789	1045.1152	1082.365	1114.1253	1128.7092	1170.3688	1207.3183	1223.7348	1245.5888	1290.0649	1313.7256	1343.4189	1389.2446	1427.5278	1496.5291	1514.2809	1534.2637	2357.8379	2979.2902	2994.0463	3069.1493	3088.1278	3116.4806	3125.9463	3180.0694
N#CC1COCC11CO1	N#C[C@H]1COC[C@]21CO2	
InChI=1S/C6H7NO2/c7-1-5-2-8-3-6(5)4-9-6/h5H,2-4H2	InChI=1S/C6H7NO2/c7-1-5-2-8-3-6(5)4-9-6/h5H,2-4H2/t5-,6+/m0/s1
