20
gdb 111165	3.88636	1.04704	0.95956	1.6713	80.49	-0.2369	0.074	0.3109	1284.7529	0.171836	-403.049632	-403.041378	-403.040434	-403.082565	32.299	
O	-0.1247883952	 1.469068881	-0.2025240207	-0.421916
C	 0.0336933827	 0.0834291137	 0.0851061528	-0.14481
C	-1.3405447829	-0.5468190361	-0.0107044867	 0.081821
C	-2.0259147588	-0.7982876161	-1.3977706148	-0.149478
C	-1.0740999924	-2.0225320759	-1.5985296465	-0.243234
C	-1.5258111655	-2.098288364	-0.104129584	-0.155724
C	-2.9358300651	-1.7765842091	-0.6344570329	 0.463586
C	-4.2765113242	-1.6779849119	-0.0486226831	-0.360214
N	-3.9467731977	-2.7007589219	-1.0933424779	-0.413402
H	 0.7303606687	 1.8961854512	-0.0972536095	 0.286292
H	 0.7527927291	-0.3801908731	-0.6034565861	 0.087378
H	 0.4203240273	-0.0663526773	 1.1066641674	 0.085436
H	-1.9996583326	-0.0606513157	 0.7161415333	 0.074704
H	-2.3179966981	-0.0482420754	-2.1336244078	 0.076084
H	-1.4447691237	-2.8192250753	-2.2466973689	 0.103847
H	-0.0231682707	-1.8131279218	-1.7982897798	 0.092727
H	-1.2519941654	-2.8479828619	 0.6388278376	 0.074785
H	-4.4932957345	-2.0938531802	 0.9317796002	 0.119728
H	-4.9085050284	-0.8398014564	-0.3325533031	 0.113441
H	-4.3255812124	-2.4069437541	-1.9913066794	 0.228949
74.4159	134.834	186.0734	260.458	274.6337	330.0913	366.5822	422.0779	489.8463	613.5709	641.3276	746.4975	795.9442	834.6999	894.9833	898.1173	906.686	933.3562	968.063	1008.6616	1020.0792	1027.9187	1063.5451	1069.8952	1078.1471	1105.1022	1123.7326	1139.1289	1152.9856	1187.4054	1200.181	1211.1271	1239.2964	1253.9377	1258.1399	1261.9627	1281.7038	1400.5614	1442.8699	1467.9104	1507.3881	1525.4642	1542.2245	2967.5589	3017.4292	3058.3146	3076.9545	3102.9047	3108.8054	3113.8877	3140.4441	3185.8754	3485.0353	3828.3669
OCC1C2CC1C21CN1	OC[C@H]1[C@H]2C[C@@H]1[C@]12CN1	
InChI=1S/C7H11NO/c9-2-4-5-1-6(4)7(5)3-8-7/h4-6,8-9H,1-3H2	InChI=1S/C7H11NO/c9-2-4-5-1-6(4)7(5)3-8-7/h4-6,8-9H,1-3H2/t4-,5+,6-,7+
