14
gdb 80226	2.30987	1.57559	1.21412	2.5491	64.31	-0.2571	-0.0454	0.2116	1023.0744	0.099617	-473.814098	-473.806019	-473.805074	-473.846938	29.328	
O	 0.1525971336	 1.1086578509	 0.2675686826	-0.400704
C	-0.1426899661	-0.2347117721	 0.1586383859	 0.074
C	-0.7494410084	-0.927131857	 1.304097412	-0.074876
N	-1.6984504206	-0.091301412	 2.0365094828	-0.340321
C	-2.477750839	 0.163958222	 0.8886172048	 0.372446
O	-3.4440953781	 0.846698417	 0.7139639814	-0.331386
C	-1.6172079226	-0.7436634004	 0.0249299318	-0.026904
C	-1.9819378835	-1.7302595595	-1.0017399695	 0.055657
O	-1.2057431823	-2.5386156368	-1.4604140956	-0.274543
H	 0.1220984742	 1.5082879664	-0.6087958869	 0.305638
H	 0.5192113332	-0.8393116739	-0.4627646253	 0.137848
H	-0.4131216272	-1.8740473158	 1.7063126835	 0.141765
H	-1.3949452021	 0.6579248355	 2.6482747885	 0.258505
H	-3.0365169012	-1.6774651644	-1.3428122563	 0.102874
102.6781	137.0666	158.6841	211.1984	257.6194	313.8254	362.4353	418.0356	552.7917	615.0946	628.5323	692.8	756.8531	768.5143	815.9468	912.1109	948.4742	1011.1181	1053.6862	1068.3521	1108.6435	1176.1896	1218.7428	1254.7601	1305.3991	1328.2649	1335.8456	1427.4392	1483.7258	1786.2413	1902.7512	2920.4674	3117.607	3208.28	3557.9389	3808.7854
OC1C2NC(=O)C12C=O	O[C@H]1[C@H]2NC(=O)[C@@]12C=O	
InChI=1S/C5H5NO3/c7-1-5-2(3(5)8)6-4(5)9/h1-3,8H,(H,6,9)	InChI=1S/C5H5NO3/c7-1-5-2(3(5)8)6-4(5)9/h1-3,8H,(H,6,9)/t2-,3+,5-/m1/s1
