15
gdb 44038	3.40344	1.76113	1.5198	3.9536	70.58	-0.2339	-0.003	0.231	873.0051	0.113921	-416.662246	-416.655917	-416.654973	-416.692749	25.99	
O	-0.0663593097	 0.0519937173	-0.3507225458	-0.327412
C	-0.0014861957	 1.2068650702	-0.0573478474	 0.343449
N	-0.9831349971	 2.1753103314	 0.2136074157	-0.392229
C	-0.0618795962	 3.1913433043	 0.6555424496	 0.227329
C	 0.6201833299	 3.3219005101	 2.0290707477	-0.296229
C	 1.7962125451	 3.3490672278	 1.0328530006	-0.094206
C	 0.9804673809	 4.1425634148	-0.0767454659	-0.069375
N	 1.3607212072	 3.1890395715	-1.1466542086	-0.349242
C	 1.0930456959	 2.3303714991	 0.0586254503	 0.080908
H	-1.981551306	 2.0566193057	 0.3284145502	 0.255565
H	 0.431405788	 4.2347088418	 2.5992484351	 0.104466
H	 0.5720237068	 2.4404578335	 2.6753880559	 0.10992
H	 2.8656681109	 3.4505812306	 1.2207060708	 0.10111
H	 0.9471704017	 5.2251834059	-0.2283386255	 0.089809
H	 0.5959806983	 3.0962419661	-1.8227753128	 0.216135
128.5617	314.9889	330.4437	384.4798	492.7709	513.4728	550.5664	635.1543	674.5725	735.2265	779.9847	815.8972	875.3234	891.1222	901.4897	951.0323	983.1488	993.0252	1033.1602	1055.4768	1068.0061	1093.9043	1132.6415	1160.2207	1169.9148	1218.0409	1225.3842	1248.4604	1279.325	1301.4761	1351.2967	1507.7681	1891.425	3053.8141	3071.1046	3114.3023	3117.5772	3393.8858	3567.1578
O=C1NC23CC4C2NC134	O=C1N[C@]23C[C@@H]4[C@H]2N[C@]134	
InChI=1S/C6H6N2O/c9-4-6-2-1-5(6,8-4)3(2)7-6/h2-3,7H,1H2,(H,8,9)	InChI=1S/C6H6N2O/c9-4-6-2-1-5(6,8-4)3(2)7-6/h2-3,7H,1H2,(H,8,9)/t2-,3-,5-,6-/m1/s1
