15
gdb 74627	3.14635	1.51989	1.45973	1.6972	65.88	-0.2156	0.0077	0.2233	938.7739	0.11371	-453.891823	-453.884742	-453.883798	-453.922873	28.7	
N	 0.0113650143	 1.3675949409	 0.068120756	-0.592838
C	-0.0007870019	-0.005573268	 0.0514980163	 0.414793
N	-1.0660631607	-0.729867317	-0.0006218622	-0.289118
C	-0.628036071	-2.0945719282	 0.0824296663	-0.133261
C	 0.5757393729	-2.5411333912	-0.8377811801	 0.029265
O	 1.2610252994	-1.4038806437	-1.3238915068	-0.28087
C	 1.2623328773	-0.8353656309	 0.039439689	-0.128096
C	 0.7794385534	-2.2242454346	 0.6038971759	 0.315342
O	 1.2744504089	-2.9614635111	 1.6469959156	-0.456029
H	 0.8212044288	 1.8132072815	-0.3348250701	 0.258447
H	-0.863197656	 1.7916315978	-0.2103168529	 0.26019
H	-1.3645515802	-2.8598484092	 0.2991409222	 0.097012
H	 0.58047337	-3.4419507627	-1.4387524478	 0.119522
H	 2.22594951	-0.3987915858	 0.3012409635	 0.091037
H	 0.754898545	-2.7649292279	 2.4356127251	 0.294605
160.4861	258.0635	283.9408	359.6458	375.6362	399.2378	413.7175	540.4408	583.9902	609.1732	671.138	695.4263	746.3368	803.9214	829.3311	872.5171	911.2019	946.4812	979.786	1036.6582	1042.8972	1084.8103	1130.1257	1156.3705	1191.3944	1217.2322	1242.7745	1296.6241	1321.477	1423.3822	1487.4388	1621.9125	1686.2052	3124.7318	3188.2479	3202.2898	3562.5321	3675.52	3779.6665
NC1=NC2C3OC1C23O	N[C]1[N][C@H]2[C@H]3O[C@@H]1[C@@]23O	
InChI=1S/C5H6N2O2/c6-4-3-5(8)1(7-4)2(5)9-3/h1-3,8H,(H2,6,7)	InChI=1S/C5H6N2O2/c6-4-3-5(8)1(7-4)2(5)9-3/h1-3,8H,(H2,6,7)/t1-,2+,3-,5+/m0/s1
