21
gdb 112930	3.19745	0.99788	0.80023	0.5852	80.82	-0.2384	0.0268	0.2652	1435.3451	0.183057	-424.235443	-424.226192	-424.225248	-424.269345	35.221	
O	-0.0264501415	 1.4255111666	 0.0022902702	-0.423286
C	 0.0226224545	 0.0057773279	-0.0068072885	-0.091144
C	-1.4146019697	-0.5212077018	 0.0361515307	-0.035279
C	-1.447169687	-2.0428935706	-0.172492377	-0.215613
C	-2.8258030434	-2.6130344203	 0.1442408757	 0.114791
O	-2.7955502183	-3.9995575568	-0.1713209525	-0.442235
C	-3.1837282974	-2.3617438703	 1.6140779542	-0.276505
C	-2.8781336216	-0.9447197187	 2.0291718438	-0.083645
C	-2.1034287102	-0.1247825017	 1.3200217971	-0.034119
H	 0.8722262762	 1.7586316408	 0.0760852063	 0.28747
H	 0.5204018366	-0.3676602521	-0.9161635125	 0.085486
H	 0.5806924842	-0.38045639	 0.8610605674	 0.08784
H	-1.9355332653	-0.0319925609	-0.8013858061	 0.09187
H	-1.1752485253	-2.3017093581	-1.2009557579	 0.102082
H	-0.7146126793	-2.5285578868	 0.4860605799	 0.100096
H	-3.5673914825	-2.0968031761	-0.4888352328	 0.066215
H	-3.6547948016	-4.3730323697	 0.0497577969	 0.278094
H	-4.2463861407	-2.58373539	 1.7869336683	 0.090199
H	-2.6222329467	-3.07556386	 2.2344343344	 0.113282
H	-3.3289994792	-0.5944526068	 2.9548099431	 0.083928
H	-1.9260366016	 0.8926047054	 1.6558287492	 0.100473
87.9245	123.2869	151.0267	218.9594	256.4733	283.1966	304.0127	323.1179	384.291	430.5252	470.7792	519.7749	563.0349	703.4352	749.9048	844.3732	881.9634	924.8244	961.5358	990.6615	1015.0895	1038.0937	1071.2082	1078.1562	1090.967	1112.0948	1126.2686	1149.2618	1210.5673	1220.539	1248.1717	1261.2752	1283.5181	1311.7933	1327.8367	1346.6874	1365.9323	1386.3839	1414.2915	1441.446	1453.1378	1478.4636	1498.2549	1520.0235	1720.066	2953.7034	2963.4244	2982.59	2998.9101	3002.2082	3023.6276	3029.2545	3078.9669	3147.288	3181.4674	3813.9124	3834.5373
OCC1CC(O)CC=C1	OC[C@H]1C[C@@H](O)CC=C1	
InChI=1S/C7H12O2/c8-5-6-2-1-3-7(9)4-6/h1-2,6-9H,3-5H2	InChI=1S/C7H12O2/c8-5-6-2-1-3-7(9)4-6/h1-2,6-9H,3-5H2/t6-,7+/m1/s1
