23
gdb 81003	2.37774	1.49855	1.22578	1.2688	85.22	-0.2545	0.0824	0.337	1162.6703	0.206196	-388.289534	-388.280507	-388.279563	-388.322341	36.255	
C	-0.1791886286	 1.5184839623	-0.0386625586	-0.440717
C	-0.0109769585	 0.0047503528	 0.0047602206	 0.019356
C	 1.115762398	-0.6165116436	-0.8802396062	-0.0346
C	 2.1026421428	-0.2965198498	 0.2760750811	-0.286423
C	 0.8567286806	-0.6023640445	 1.1675602871	 0.350452
C	 0.7442915489	-0.1356116655	 2.6006461647	-0.503479
C	 0.6869037567	-2.1127799015	 0.8894216371	-0.298514
C	 0.8835021111	-2.1178198244	-0.6661781526	 0.131358
O	-0.2537162339	-2.5384248491	-1.4034074275	-0.444087
H	 0.7643832452	 2.0634961698	 0.0565843573	 0.112999
H	-0.6387353633	 1.8230024298	-0.9852935144	 0.116861
H	-0.8379150941	 1.8592428869	 0.7680988032	 0.113413
H	-0.9888656748	-0.4689660585	-0.1259663318	 0.071659
H	 1.291890633	-0.2924170029	-1.9064455467	 0.058536
H	 2.9813303579	-0.9402354125	 0.3935444581	 0.082595
H	 2.4142771706	 0.7480049517	 0.303837378	 0.097491
H	 0.8789743463	 0.9480814468	 2.6840262628	 0.113597
H	-0.2374671596	-0.3828316115	 3.022108704	 0.11277
H	 1.5025656503	-0.6134370415	 3.2322030599	 0.112208
H	 1.430513967	-2.7194089256	 1.4173171878	 0.087182
H	-0.3109724819	-2.477601113	 1.1560931514	 0.089405
H	 1.7646620003	-2.7047306557	-0.9631538907	 0.058276
H	-0.4330304941	-3.4559537706	-1.1764915947	 0.279661
159.7644	190.3077	201.021	213.526	221.5064	268.7883	317.498	354.7409	392.8199	458.0337	478.3665	537.0515	624.9728	672.6126	770.7479	823.7542	845.1082	854.6541	916.4511	925.7165	957.0088	967.9956	1026.1722	1037.0073	1046.8172	1077.6963	1082.4809	1106.3566	1145.9095	1176.763	1181.3025	1205.1086	1230.5516	1240.9049	1251.9699	1266.0335	1295.4556	1335.2196	1343.638	1397.6955	1410.8689	1413.5895	1422.2885	1480.2311	1490.4526	1493.3335	1498.5362	1500.3147	1515.5278	2987.8683	3019.6997	3030.3058	3034.9593	3045.4885	3056.3131	3080.5749	3083.6542	3087.8789	3090.7596	3104.7014	3111.085	3130.5838	3821.1587
CC1C2CC1(C)CC2O	C[C@H]1[C@H]2C[C@]1(C)C[C@H]2O	
InChI=1S/C8H14O/c1-5-6-3-8(5,2)4-7(6)9/h5-7,9H,3-4H2,1-2H3	InChI=1S/C8H14O/c1-5-6-3-8(5,2)4-7(6)9/h5-7,9H,3-4H2,1-2H3/t5-,6+,7+,8+/m0/s1
