15
gdb 17605	4.35186	1.40102	1.15484	0.9691	63.49	-0.239	-0.0613	0.1777	1019.3391	0.118666	-399.841686	-399.83367	-399.832725	-399.874662	28.908	
N	-0.0680574554	 1.2895620819	 0.0034638037	-0.519381
C	 0.0706042863	-0.053139468	-0.008400711	 0.324644
O	 1.1218267783	-0.6642591583	-0.0558329793	-0.349587
C	-1.2990303884	-0.7747474907	 0.0467963231	 0.292302
O	-2.3246859733	-0.1217938858	 0.0928840106	-0.346669
C	-1.2462711304	-2.2470167016	 0.038580066	-0.10509
C	-2.3271842174	-2.9855167523	 0.8241797254	-0.249804
C	-2.3896951287	-2.9794351427	-0.659371177	-0.249784
H	 0.7438016444	 1.8817068835	-0.0295486396	 0.268186
H	-0.9969818913	 1.6772399851	 0.043757995	 0.279151
H	-0.2540989088	-2.6730377033	-0.0050338049	 0.127257
H	-2.0183625906	-3.8883519153	 1.3378049406	 0.126385
H	-3.0296463165	-2.3564657149	 1.3591086321	 0.138003
H	-3.1344418495	-2.3462629573	-1.1281508025	 0.137997
H	-2.1254954088	-3.8779132803	-1.2045576822	 0.12639
61.6871	75.747	185.4247	240.7668	299.02	326.4874	368.0852	492.3219	517.1608	613.7358	670.2454	745.7542	805.6394	812.3727	834.3083	898.9267	918.0083	1055.5309	1082.2449	1097.2842	1099.8011	1117.8095	1145.6517	1212.3845	1214.6913	1349.7586	1422.2329	1457.561	1487.7948	1584.9386	1772.2113	1803.2788	3141.8339	3143.4025	3224.0856	3228.9788	3245.0166	3596.5132	3739.5924
NC(=O)C(=O)C1CC1	NC(=O)C(=O)C1CC1	
InChI=1S/C5H7NO2/c6-5(8)4(7)3-1-2-3/h3H,1-2H2,(H2,6,8)	InChI=1S/C5H7NO2/c6-5(8)4(7)3-1-2-3/h3H,1-2H2,(H2,6,8)
