16
gdb 107905	3.86249	1.26856	1.11084	3.0276	69.08	-0.2528	-0.0187	0.234	1080.6735	0.124751	-437.837375	-437.829927	-437.828983	-437.869403	28.625	
O	 0.1692002866	 1.0419626468	-0.6875921425	-0.409914
C	-0.0950065386	 0.1584276625	 0.3816333784	-0.1722
C	-1.4991830636	-0.3868593069	 0.3135292532	 0.294898
C	-2.0549865929	-1.6497168844	 0.9677071685	-0.310372
C	-3.0866309964	-1.5939280472	-0.1766167039	-0.142197
N	-2.0973785802	-0.7034386433	-1.0115417273	-0.19993
C	-2.6364474063	 0.4691327162	-0.1774604339	-0.227074
C	-3.8839888559	-0.3101113531	 0.0847453704	 0.482009
O	-5.0423623471	-0.0481773348	 0.2266624178	-0.32952
H	-0.0466520491	 0.568968918	-1.5013293015	 0.300913
H	 0.6096225801	-0.6894568327	 0.3989732383	 0.099743
H	 0.0508854689	 0.7268257929	 1.3066108422	 0.124603
H	-1.3543086078	-2.4803211354	 0.8436544886	 0.121266
H	-2.4211704361	-1.6186943222	 1.9977095883	 0.120276
H	-3.5404173358	-2.4765828407	-0.6193777268	 0.112314
H	-2.4946462556	 1.4977933843	-0.4797020597	 0.135184
108.1044	139.837	188.6889	257.5233	396.0826	442.0458	454.8848	476.7496	585.2297	659.5221	709.4241	763.5548	815.7973	824.4567	880.2716	936.428	959.0087	996.5881	1023.7239	1039.9666	1084.4231	1093.9991	1118.8682	1158.1801	1174.1854	1224.0896	1239.1923	1245.7589	1282.8428	1376.4735	1388.904	1435.4473	1496.8759	1506.5014	1898.9144	2971.6973	3053.8702	3070.7505	3108.8483	3166.3814	3225.4442	3779.8248
OCC12CC3N1C2C3=O	OC[C@]12C[C@@H]3N1[C@H]2C3=O	
InChI=1S/C6H7NO2/c8-2-6-1-3-4(9)5(6)7(3)6/h3,5,8H,1-2H2	InChI=1S/C6H7NO2/c8-2-6-1-3-4(9)5(6)7(3)6/h3,5,8H,1-2H2/t3-,5-,6-,7?/m0/s1
