12
gdb 23664	4.22339	1.84228	1.28328	3.9676	59.19	-0.2452	-0.02	0.2253	844.371	0.086018	-418.87764	-418.871377	-418.870433	-418.907952	23.827	
N	-0.0408636444	 1.362199854	-0.1073910223	-0.564411
C	 0.0286009306	 0.0034798546	-0.0438786239	 0.434373
N	-1.1463760322	-0.6547097414	-0.0237955916	-0.321902
C	-1.0762871866	-1.978918529	-0.0011422205	 0.074295
N	 0.0203444331	-2.7409722027	 0.0091164971	-0.321137
C	 1.1517754126	-2.0606808168	-0.0075501962	 0.363739
F	 2.2661809463	-2.7791954931	 0.0041630053	-0.064599
C	 1.2523721042	-0.6843497985	-0.0347237858	-0.362771
H	 0.7682267826	 1.9134098856	 0.1208677077	 0.262534
H	-0.9438108713	 1.7698795466	 0.0731258219	 0.267138
H	-2.0256299711	-2.5090915296	 0.0140120701	 0.124038
H	 2.2123765862	-0.1851148598	-0.0518101318	 0.108703
190.5132	233.0438	333.3411	341.0355	463.5537	475.8375	506.1578	567.4666	575.2524	714.2484	788.3898	839.5491	851.7099	983.6722	1004.8626	1010.4091	1062.9071	1216.254	1305.8572	1322.3664	1376.3843	1477.4895	1511.3044	1604.5318	1629.7689	1656.6766	3164.6889	3212.4654	3605.8777	3731.7703
NC1=NC=NC(F)=C1	Nc1ncnc(F)c1	
InChI=1S/C4H4FN3/c5-3-1-4(6)8-2-7-3/h1-2H,(H2,6,7,8)	InChI=1S/C4H4FN3/c5-3-1-4(6)8-2-7-3/h1-2H,(H2,6,7,8)
