19
gdb 61613	2.45154	1.30554	0.96251	2.4661	77.93	-0.2377	0.0223	0.26	1265.4913	0.155661	-422.957897	-422.94811	-422.947166	-422.992574	36.428	
C	-0.4371568243	 1.6465750704	-0.0532728928	-0.396553
C	 0.3257715689	 0.321198807	-0.0378731648	-0.039312
O	 1.3233299558	 0.4328476078	 0.9706270773	-0.242318
C	 2.2608183218	-0.6033544219	 0.97853311	 0.091367
C	 3.1126274517	-0.7172710537	 2.2080466187	-0.342539
C	 2.0749821364	-1.7753639874	 1.9225570198	 0.086092
O	 0.9792561964	-1.798061027	 2.7774622688	-0.424421
C	-0.5795745544	-0.8200600715	 0.1779398554	 0.352489
C	-1.3362871456	-1.7419203697	 0.3409447364	-0.496471
H	 0.2631505414	 2.4635715649	-0.2421268434	 0.130431
H	-1.2019477241	 1.6386741262	-0.8334537297	 0.127933
H	-0.9190854593	 1.8105269002	 0.913296829	 0.141447
H	 0.8171286107	 0.1758231373	-1.0143749827	 0.100449
H	 2.719945247	-0.7946286414	 0.0074624187	 0.083176
H	 4.1670548448	-0.9442263491	 2.1003748435	 0.112317
H	 2.8558966614	-0.0420012842	 3.0162958774	 0.136297
H	 2.4202476203	-2.7502039541	 1.5752877834	 0.080375
H	 0.1836533307	-1.7761122761	 2.2303045881	 0.289082
H	-2.0066900396	-2.5565297075	 0.4701910266	 0.210157
50.865	121.5583	149.7354	190.7666	209.4855	225.556	263.1671	351.2957	368.1732	385.9864	465.9451	547.617	583.4373	632.217	668.6865	686.3477	784.9736	796.5692	814.2919	858.2207	933.9359	1022.9501	1048.6796	1074.2821	1080.0317	1115.5638	1125.6432	1143.5087	1169.5568	1188.8834	1251.1581	1330.45	1345.1857	1351.7753	1401.3939	1406.5699	1412.1473	1478.6172	1481.4504	1494.7852	2219.5504	2964.5517	3055.2889	3080.773	3092.4271	3137.4403	3139.5631	3141.5364	3236.7691	3494.6661	3753.2407
CC(OC1CC1O)C#C	C[C@@H](O[C@H]1C[C@H]1O)C#C	
InChI=1S/C7H10O2/c1-3-5(2)9-7-4-6(7)8/h1,5-8H,4H2,2H3	InChI=1S/C7H10O2/c1-3-5(2)9-7-4-6(7)8/h1,5-8H,4H2,2H3/t5-,6-,7+/m1/s1
