21
gdb 62620	2.24761	1.84536	1.60678	1.5667	80.85	-0.2243	0.0814	0.3057	1002.6913	0.1806	-387.039193	-387.03052	-387.029576	-387.071476	34.911	
C	 0.0366115247	 1.5321050888	 0.0171920015	-0.459109
C	 0.0192439634	 0.0064190781	-0.022037059	 0.286192
C	-1.3990088505	-0.5451699064	 0.1334314096	-0.444912
C	 0.7835226103	-0.6920093331	-1.1576084574	-0.146043
C	 2.2391039424	-0.7650507407	-0.6720215505	 0.069446
O	 2.3218022662	-0.0998410177	 0.5866835064	-0.327814
C	 1.0453467375	-0.7403310125	 0.9150803259	 0.394212
C	 0.8432480212	-0.9565391552	 2.3822649989	-0.520263
C	 1.2710146835	-1.8037117037	-0.2349344453	-0.208931
H	 1.0598107574	 1.9091688249	-0.0231375392	 0.132547
H	-0.5217394896	 1.9444167293	-0.8313156353	 0.106491
H	-0.4353446901	 1.9109043938	 0.9317155974	 0.105726
H	-2.0409641731	-0.2028886108	-0.6857660127	 0.113218
H	-1.4121602378	-1.6398986655	 0.1297093889	 0.113118
H	-1.853915426	-0.2008667093	 1.0691001438	 0.111584
H	 0.509709043	-0.7662933574	-2.2035508546	 0.08132
H	 3.111840915	-0.7965039591	-1.3107081314	 0.106348
H	 0.8341362867	 0.0051609613	 2.9066775667	 0.133448
H	-0.1072062345	-1.4626190783	 2.5743389308	 0.125822
H	 1.6528381833	-1.5631305271	 2.7976756738	 0.131807
H	 1.2455713171	-2.8829225693	-0.2910580884	 0.095792
178.5255	189.7695	203.4593	229.9667	251.1104	268.0766	323.5832	354.0104	390.052	536.6506	591.7843	633.1756	638.3703	773.7617	784.1904	799.7536	804.8649	853.3145	885.5569	938.1104	951.0692	958.2651	999.0652	1015.4254	1029.3085	1043.2397	1067.0245	1114.4663	1131.3649	1168.1322	1192.3357	1227.6988	1232.292	1317.2377	1328.999	1363.9143	1395.7192	1413.2206	1418.0823	1477.254	1483.3475	1484.7078	1492.2805	1505.7867	1510.6613	3023.5068	3028.4872	3039.246	3081.1082	3087.8803	3099.2214	3108.1271	3119.915	3136.6222	3183.6353	3200.997	3216.465
CC1(C)C2C3OC1(C)C23	CC1(C)[C@H]2[C@H]3O[C@]1(C)[C@@H]23	
InChI=1S/C8H12O/c1-7(2)4-5-6(4)9-8(5,7)3/h4-6H,1-3H3	InChI=1S/C8H12O/c1-7(2)4-5-6(4)9-8(5,7)3/h4-6H,1-3H3/t4-,5+,6-,8-/m1/s1
