21
gdb 76730	1.95602	1.80527	1.24424	1.4864	79.13	-0.2404	0.0592	0.2996	1117.8382	0.180823	-424.204834	-424.19521	-424.194265	-424.238502	36.991	
C	 0.0358535353	 1.5869095519	-0.0089302005	-0.500351
C	-0.015161437	 0.0890837103	 0.0551181155	 0.267632
C	 1.1249987906	-0.8206334597	-0.3143606468	-0.39171
C	 0.5551443132	-0.9131832285	 1.0788205992	 0.305359
C	 1.3655038383	-0.7173657129	 2.3280540244	-0.503247
C	-0.7185107845	-1.7545118083	 1.0031987329	 0.000114
O	-1.4271766918	-1.6794669043	 2.2337111679	-0.433911
C	-1.311810032	-0.7385724967	-0.0580951107	 0.064733
O	-2.4772971872	-0.1064986324	 0.3993967307	-0.440051
H	 0.9805988798	 1.9722465182	 0.3889435545	 0.112783
H	-0.0577650957	 1.9431974691	-1.0419433884	 0.120148
H	-0.7852285891	 2.025470678	 0.5662517915	 0.124484
H	 0.9843138302	-1.6284121139	-1.0323802745	 0.097805
H	 2.1000332595	-0.3458367789	-0.3767851493	 0.110252
H	 2.0729389779	 0.1097606808	 2.2087851029	 0.115403
H	 0.7206152917	-0.4964175601	 3.1832621037	 0.131503
H	 1.947001234	-1.6151752331	 2.5710600699	 0.117495
H	-0.6000342767	-2.8019899141	 0.6929516428	 0.060281
H	-2.1769367156	-2.2812541459	 2.1796578183	 0.294652
H	-1.5262139919	-1.1380646261	-1.0565453393	 0.068453
H	-2.4349777791	-0.1550408035	 1.3663808055	 0.278172
102.264	174.2281	179.8818	184.5488	220.0515	234.8651	245.7604	318.8	398.5616	431.7589	462.2733	507.2178	510.9081	582.5394	679.7408	696.509	792.2289	833.8471	857.1948	896.1054	958.2939	975.0439	992.162	1060.3829	1088.4675	1104.1939	1109.0327	1132.3309	1195.3673	1213.6262	1220.1478	1249.4364	1276.8686	1316.0475	1337.446	1386.6841	1408.2965	1420.807	1432.107	1447.2342	1478.3437	1484.5352	1497.8073	1501.2673	1510.3185	2998.622	3024.1779	3026.0706	3035.6367	3083.6864	3085.0032	3085.7335	3105.284	3111.3294	3181.8458	3709.831	3819.1592
CC12CC1(C)C(O)C2O	C[C@@]12C[C@]1(C)[C@@H](O)[C@H]2O	
InChI=1S/C7H12O2/c1-6-3-7(6,2)5(9)4(6)8/h4-5,8-9H,3H2,1-2H3	InChI=1S/C7H12O2/c1-6-3-7(6,2)5(9)4(6)8/h4-5,8-9H,3H2,1-2H3/t4-,5+,6+,7-
