18
gdb 20995	3.55701	1.73481	1.19221	1.9389	76.23	-0.2185	0.0329	0.2513	1036.7162	0.153693	-344.023101	-344.014236	-344.013292	-344.056965	30.907	
C	-0.0754486386	 1.4003563796	 0.0956052847	-0.316762
N	 0.0197952345	-0.037701393	-0.0062496117	 0.055858
C	 0.1025122757	-0.7938671157	-1.1296992717	-0.119312
C	 0.089773834	-2.1171662493	-0.7387049655	 0.12663
C	 0.1757579138	-3.3377726448	-1.6019181689	-0.508324
C	-0.0110286126	-2.0553740293	 0.6762911275	 0.288575
C	-0.0569890178	-3.1949124142	 1.6442210727	-0.493702
N	-0.0563656008	-0.7945828349	 1.1069814244	-0.335041
H	 0.2996213759	 1.8512374956	-0.8254587273	 0.134116
H	-1.110719927	 1.7217881639	 0.2549048722	 0.139392
H	 0.5302190228	 1.7415358069	 0.9374581905	 0.151369
H	 0.1672153621	-0.3427144209	-2.1084079925	 0.121976
H	 1.0548105993	-3.9476667211	-1.3606931049	 0.125623
H	-0.7012505089	-3.9850809399	-1.4810946275	 0.125674
H	 0.2426483559	-3.0707377272	-2.6604488359	 0.119725
H	 0.8445440802	-3.8158270274	 1.580437491	 0.12329
H	-0.1396273132	-2.8143108238	 2.6644037885	 0.137736
H	-0.912324805	-3.8532954848	 1.4515736444	 0.123174
58.9729	96.1563	121.4732	154.8167	228.9142	248.0618	280.4269	307.1335	477.314	607.2124	629.5705	638.327	692.6116	786.4829	795.4031	996.4717	1015.3312	1035.7473	1050.1574	1076.9612	1085.0948	1149.0797	1195.1333	1206.7137	1342.5469	1392.3175	1409.2193	1420.146	1449.9442	1467.1784	1479.7889	1480.5051	1484.3924	1487.4184	1502.1985	1512.7372	1526.8165	1615.221	3021.3086	3026.1566	3037.6087	3066.6016	3072.8381	3104.4826	3109.2742	3130.2338	3144.2925	3246.5118
CN1C=C(C)C(C)=N1	Cn1cc(C)c(C)n1	
InChI=1S/C6H10N2/c1-5-4-8(3)7-6(5)2/h4H,1-3H3	InChI=1S/C6H10N2/c1-5-4-8(3)7-6(5)2/h4H,1-3H3
