18
gdb 26663	2.22917	1.60487	0.94791	0.671	77.76	-0.1712	0.0426	0.2139	1228.4203	0.145701	-439.118219	-439.108098	-439.107154	-439.153018	35.992	
C	 0.158254012	 1.4800742612	-0.0157532578	-0.49253
C	-0.0528160824	 0.0101684632	-0.0369989216	 0.254671
C	-1.1476283533	-0.7950014295	 0.0277787967	 0.083203
C	-2.5893214079	-0.4170256993	 0.1523138687	-0.51242
C	-0.6417646992	-2.1459213376	-0.0310620646	 0.081018
O	-1.3519456134	-3.3203190943	 0.0949443643	-0.451567
C	 0.711529488	-2.0606482766	-0.1310910656	 0.283718
N	 1.7098068453	-3.0166441399	-0.2887576405	-0.602711
O	 1.091224311	-0.7597891663	-0.1379441551	-0.21372
H	 0.801614103	 1.7856816269	 0.8184335033	 0.131047
H	 0.6306468976	 1.8396039153	-0.9383566177	 0.132038
H	-0.7992020056	 1.9947671931	 0.0925709582	 0.12963
H	-3.1626495004	-0.6904887475	-0.7429461927	 0.117842
H	-3.0589723187	-0.930806858	 0.9987412615	 0.134372
H	-2.7135718794	 0.6586000815	 0.3012745659	 0.12456
H	-1.9258049995	-3.422519162	-0.6720312104	 0.295151
H	 1.324298355	-3.9422980689	-0.144184994	 0.255743
H	 2.4905951779	-2.8720082112	 0.3429745912	 0.249952
96.7087	124.1043	130.0077	153.5236	180.9152	226.7504	241.9921	275.9751	281.4562	335.3992	344.7374	541.8396	586.8737	612.2222	634.7235	669.8078	733.0809	802.2831	871.0579	968.4895	1034.0051	1057.2806	1064.855	1125.7118	1147.7985	1192.4028	1255.9646	1330.9656	1358.1257	1412.7475	1423.9639	1460.0487	1469.7956	1481.0575	1493.5848	1497.845	1626.8563	1673.034	1723.8962	3018.0919	3019.9124	3062.785	3068.917	3112.9691	3123.5615	3509.7212	3610.928	3786.6457
CC1=C(C)C(O)=C(N)O1	Cc1c(C)c(O)c(N)o1	
InChI=1S/C6H9NO2/c1-3-4(2)9-6(7)5(3)8/h8H,7H2,1-2H3	InChI=1S/C6H9NO2/c1-3-4(2)9-6(7)5(3)8/h8H,7H2,1-2H3
