18
gdb 20890	5.50144	1.26041	1.12401	2.1632	75.49	-0.224	0.0293	0.2534	1120.9713	0.15482	-344.018126	-344.009763	-344.008819	-344.052007	29.629	
C	-0.0636401934	 1.5580903007	-0.2054484096	-0.371375
C	-0.0483665176	 0.0609949842	 0.1062231412	-0.139887
N	-1.3722429342	-0.5352377713	 0.0529328487	 0.062155
C	-1.9086490025	-1.3014894353	-0.9314709395	-0.125378
C	-3.2135415356	-1.5841755494	-0.5750833697	 0.182806
C	-4.2176883305	-2.405195889	-1.3253943727	-0.504966
C	-3.3642774404	-0.9223418848	 0.6650464277	-0.071629
N	-2.254711739	-0.2897336472	 1.0397146669	-0.271353
H	 0.9465896918	 1.9712421085	-0.1258462574	 0.117083
H	-0.4346667659	 1.7435249413	-1.2178925931	 0.123232
H	-0.7120238086	 2.0812122814	 0.5013648035	 0.148322
H	 0.580783206	-0.4813898832	-0.6055290186	 0.115978
H	 0.3526742922	-0.1149446558	 1.1085675503	 0.130972
H	-1.3312707929	-1.5898764367	-1.7967437852	 0.123141
H	-4.5528716926	-3.2711592211	-0.7431840836	 0.128642
H	-5.1114500838	-1.8233842018	-1.5780179025	 0.128437
H	-3.7974525469	-2.7831684076	-2.2618359891	 0.120149
H	-4.237602306	-0.890064843	 1.3016887228	 0.103671
39.8404	62.4046	119.9951	211.0165	261.3526	279.2793	384.2966	419.4045	601.9076	642.0926	680.1713	726.8677	785.3751	793.652	873.9891	963.36	1001.0137	1013.333	1033.1528	1065.8276	1095.7958	1114.9611	1187.761	1225.8042	1274.437	1365.9435	1384.5325	1396.1714	1407.9607	1410.425	1426.5619	1472.0661	1483.4485	1486.1611	1489.0633	1507.1586	1508.9632	1614.1278	3028.0549	3044.1347	3058.378	3077.1783	3100.1662	3105.6132	3117.5594	3136.0031	3232.951	3248.5401
CCN1C=C(C)C=N1	CCn1cc(C)cn1	
InChI=1S/C6H10N2/c1-3-8-5-6(2)4-7-8/h4-5H,3H2,1-2H3	InChI=1S/C6H10N2/c1-3-8-5-6(2)4-7-8/h4-5H,3H2,1-2H3
