16
gdb 127838	3.97066	1.14496	0.89525	5.531	83.63	-0.2011	-0.0466	0.1545	1260.7787	0.124742	-430.216691	-430.208007	-430.207063	-430.250349	31.762	
C	-0.0395983198	 1.445247768	-0.0005280576	-0.326184
N	-0.0940936996	-0.0010456276	-0.0780650418	-0.318268
C	 0.5141576533	-0.6329666457	-1.0077733943	 0.417571
C	 0.4709614959	-2.0782947509	-1.095524246	-0.316239
C	 1.1669754973	-2.7026599385	-2.0680821088	 0.471593
N	 1.1797521035	-4.0627251912	-2.3532864728	-0.588349
N	 1.9203661198	-1.9220490645	-2.9241404037	-0.306227
N	 1.9085427755	-0.553873989	-2.9139232864	-0.045543
N	 1.2721959055	 0.0538810351	-2.0237393754	-0.246961
H	 0.5862442122	 1.9264248364	-0.7586618479	 0.127982
H	-1.0591591796	 1.8443375671	-0.0815277636	 0.116283
H	 0.3226640585	 1.7322597102	 0.9948454835	 0.114896
H	-0.1120693936	-2.6286073385	-0.368782212	 0.106909
H	 0.7026056218	-4.613018486	-1.651616263	 0.264126
H	 2.1018745325	-4.4412661942	-2.5346516488	 0.256559
H	 2.2942085566	-2.3000973707	-3.7802123512	 0.27185
68.925	91.7815	141.5569	232.978	282.157	295.0872	360.3777	395.3533	468.8696	504.8798	533.4696	614.0921	626.4644	724.4221	738.8541	770.098	846.94	912.5541	1000.6941	1036.3412	1056.5029	1128.039	1132.9974	1143.2344	1239.8366	1291.4888	1381.6215	1429.693	1457.5213	1489.3209	1495.8242	1610.6645	1642.9222	1701.5639	1728.0851	3008.2123	3052.7273	3093.1771	3217.5389	3532.9532	3632.8674	3642.5823
CN=C1C=C(N)NN=N1	C[N]c1cc(N)[nH]nn1	
InChI=1S/C4H7N5/c1-6-4-2-3(5)7-9-8-4/h2H,1H3,(H3,5,6,7,8)	InChI=1S/C4H12N5/c1-6-4-2-3(5)7-9-8-4/h3-4,7-9H,2,5H2,1H3
