22
gdb 110925	4.00561	0.88334	0.85088	2.2683	82.93	-0.2212	0.0806	0.3018	1494.2916	0.193234	-404.288436	-404.278886	-404.277941	-404.323129	35.337	
C	-1.025351557	 1.1875924142	-0.3530446488	-0.373129
C	-0.0816878061	 0.0307141443	-0.0003810293	-0.222253
C	 0.5428976997	-0.5911969673	-1.2323894961	 0.024178
C	 1.0159708963	-1.9819964238	-1.3814967574	-0.10131
C	 0.1499481135	-2.9829798398	-0.6278262781	 0.132549
C	-1.0497959792	-2.3977794961	-1.4224246721	-0.20415
N	-0.1604542006	-1.4628099055	-2.2047532019	-0.153161
O	 0.5061093645	-4.2953620875	-0.9833857754	-0.246115
C	-0.3018167582	-5.2742190473	-0.3697659009	-0.239789
H	-0.4993928503	 1.9652387369	-0.9170127012	 0.119424
H	-1.8590170186	 0.841402918	-0.9719805392	 0.128271
H	-1.4391803314	 1.6487186468	 0.5487284275	 0.112138
H	 0.7328546159	 0.3993367551	 0.6362463923	 0.10416
H	-0.6152491272	-0.7126261321	 0.5992396968	 0.102741
H	 1.1466755214	 0.1254873518	-1.7897989245	 0.094861
H	 1.9652776855	-2.2494843389	-1.8349321772	 0.100322
H	 0.1206248441	-2.8880606729	 0.4694928349	 0.062352
H	-1.4692511077	-3.1382981147	-2.1067929782	 0.118115
H	-1.861002957	-1.9109829894	-0.8722299122	 0.097815
H	-0.2482458948	-5.2123359803	 0.7287970638	 0.104792
H	-1.3577285583	-5.1872530846	-0.6674126682	 0.107929
H	 0.0720805154	-6.2497916867	-0.6887171845	 0.130263
69.4018	90.5616	123.2976	180.268	202.1087	227.4638	273.3713	296.8548	373.8531	465.1979	518.1958	558.9125	699.8283	753.313	778.6077	816.5382	867.0374	893.0432	954.8376	987.6425	1020.0292	1036.9097	1054.8425	1068.7482	1092.5712	1127.6227	1145.1882	1169.8654	1184.1494	1197.6383	1226.8254	1244.7539	1273.9805	1281.6278	1295.067	1332.4323	1349.0195	1397.6843	1412.3851	1452.5564	1474.0105	1481.4832	1488.0694	1495.3292	1498.2765	1507.2459	1508.8009	2960.322	2975.1622	3021.2268	3030.8805	3036.209	3050.2809	3076.418	3102.61	3110.2608	3111.0024	3114.7992	3118.2957	3165.1265
CCC1C2C(CN12)OC	CC[C@H]1[C@H]2[C@@H](CN12)OC	
InChI=1S/C7H13NO/c1-3-5-7-6(9-2)4-8(5)7/h5-7H,3-4H2,1-2H3	InChI=1S/C7H13NO/c1-3-5-7-6(9-2)4-8(5)7/h5-7H,3-4H2,1-2H3/t5-,6+,7-,8?/m0/s1
