12
gdb 24931	5.36775	1.40812	1.11549	3.8726	62.34	-0.2083	0.0077	0.216	974.4894	0.080004	-468.814003	-468.80755	-468.806606	-468.845184	24.415	
N	-0.0943090717	 1.2503464862	 0.0080823056	-0.555993
C	-0.0058762781	 0.0032668026	 0.001030059	 0.46346
O	-1.1542628488	-0.8000640026	 0.0034304504	-0.240848
C	-0.6520406783	-2.0652446488	-0.0061822512	 0.370579
C	 0.6863172229	-2.0818837412	-0.013979704	 0.296627
O	 1.1438607169	-0.7751900294	-0.0097356565	-0.25885
N	 1.2066429408	-3.3274719089	-0.0233476518	-0.340798
C	 0.1223286145	-4.0923130036	-0.0207438303	-0.014448
N	-1.0623721469	-3.3638215028	-0.0104360414	-0.403529
H	 0.826239019	 1.6816331418	 0.0050177906	 0.247953
H	 0.1145767903	-5.1698747076	-0.0261526598	 0.147251
H	-1.9983066705	-3.7321619957	-0.0070441305	 0.288597
75.7232	197.1748	335.3174	351.2809	457.2405	576.1751	597.114	645.6539	700.8218	717.7021	736.1157	777.3867	782.0002	813.3228	906.2662	943.8096	972.9177	1062.7557	1126.5451	1233.3623	1279.0764	1370.8017	1416.5519	1464.0801	1555.5378	1696.6509	1818.3085	3279.2567	3552.2311	3676.4579
N=C1OC2=C(O1)N=CN2	[NH][C@H]1Oc2c(O1)nc[nH]2	
InChI=1S/C4H3N3O2/c5-4-8-2-3(9-4)7-1-6-2/h1,5H,(H,6,7)	InChI=1S/C4H4N3O2/c5-4-8-2-3(9-4)7-1-6-2/h1,4-5H,(H,6,7)
