15
gdb 11708	6.12113	1.35656	1.24519	4.4088	67.1	-0.2777	-0.0031	0.2746	969.2704	0.118354	-362.639214	-362.631905	-362.630961	-362.670661	27.19	
C	-0.0195468552	 1.5897489344	 0.0944907993	-0.408126
C	 0.0335074023	 0.0718833528	 0.0081961687	 0.001239
C	 1.0725411528	-0.5921343092	-0.9742077041	-0.324845
C	 1.6906733607	-1.307379222	 0.2375911089	 0.319005
O	 2.1018972862	-0.2970538123	 1.1687732827	-0.264513
C	 0.7253753943	-0.6730035802	 1.1655176032	-0.049357
C	 2.3343320559	-2.582971202	 0.2832799324	 0.202332
N	 2.8398859519	-3.6231108311	 0.2776528455	-0.336559
H	 0.9702351435	 1.9938662768	 0.3238330645	 0.138853
H	-0.3556972408	 2.0219372453	-0.8533023034	 0.123863
H	-0.7138834272	 1.9163287392	 0.8757959375	 0.122613
H	-0.9610030251	-0.349521493	-0.1667694385	 0.093197
H	 0.6089821767	-1.2747588362	-1.6879926322	 0.130674
H	 1.760262318	 0.0795459972	-1.4920173946	 0.126014
H	 0.313464686	-1.0453482496	 2.09660464	 0.12561
112.9036	146.4274	231.6622	234.839	306.0431	406.3812	474.2474	552.7599	580.2868	620.0638	710.6278	808.2017	858.4004	909.2642	920.3343	933.265	1017.0056	1044.6334	1099.1873	1115.5733	1163.6815	1189.4597	1225.8276	1260.0066	1276.9515	1359.1886	1400.5465	1422.1559	1474.6638	1493.692	1503.011	2357.2809	3037.9483	3065.8252	3079.7309	3103.1884	3122.044	3142.4804	3191.44
CC1CC2(OC12)C#N	C[C@H]1C[C@]2(O[C@@H]12)C#N	
InChI=1S/C6H7NO/c1-4-2-6(3-7)5(4)8-6/h4-5H,2H2,1H3	InChI=1S/C6H7NO/c1-4-2-6(3-7)5(4)8-6/h4-5H,2H2,1H3/t4-,5-,6-/m0/s1
