17
gdb 8447	4.07859	1.87077	1.61497	3.9444	68.35	-0.2367	0.0232	0.2598	842.5786	0.143737	-363.882703	-363.875888	-363.874943	-363.913207	27.508	
C	-0.0496958491	 1.5330214886	 0.002731642	-0.503938
C	 0.0562497098	 0.0310910244	 0.0102998313	 0.339971
C	 1.0121660518	-0.7812743233	-0.9110981253	-0.244851
C	 0.6460586499	-1.9247776913	 0.0871187212	-0.158919
C	 0.6457859004	-0.8080768206	 1.1924165366	-0.261141
C	-0.8721764266	-2.0295763188	-0.1265683508	 0.419703
O	-1.6021901641	-2.9875170359	-0.1105550479	-0.374279
N	-1.2144963631	-0.6841552285	-0.2894937174	-0.349253
H	 0.9284086441	 1.985550797	 0.1892302742	 0.126036
H	-0.4178439512	 1.8928048612	-0.9633511583	 0.133424
H	-0.7355032323	 1.8864914829	 0.7813851594	 0.121381
H	 0.7194447825	-0.8916631802	-1.9573769097	 0.110134
H	 2.055122264	-0.4684832188	-0.8219573705	 0.103225
H	 1.1935954729	-2.8595634004	 0.1715000552	 0.089386
H	 1.6539645313	-0.5036964451	 1.4849923358	 0.103471
H	 0.0149551791	-0.9553341903	 2.0735306949	 0.103254
H	-2.0912142495	-0.3583254508	 0.0942427993	 0.242396
179.5277	218.2255	268.1893	296.2081	444.2077	483.8971	499.9242	519.4836	594.7587	676.8217	748.7719	793.5609	843.9968	852.9418	901.3937	930.7338	949.7838	988.0553	1038.7067	1049.3179	1082.6311	1112.0087	1148.7821	1185.7321	1218.034	1230.2292	1257.6988	1260.4921	1301.8729	1380.1781	1419.3123	1478.9046	1488.8788	1493.066	1517.1492	1867.2392	3032.1817	3053.3602	3066.2389	3097.3607	3114.7817	3118.7506	3132.2817	3161.0729	3596.5403
CC12CC(C1)C(=O)N2	C[C@@]12C[C@@H](C1)C(=O)N2	
InChI=1S/C6H9NO/c1-6-2-4(3-6)5(8)7-6/h4H,2-3H2,1H3,(H,7,8)	InChI=1S/C6H9NO/c1-6-2-4(3-6)5(8)7-6/h4H,2-3H2,1H3,(H,7,8)/t4-,6+
