17
gdb 30435	3.84875	1.17507	0.91038	3.111	82.16	-0.2188	-0.0503	0.1685	1272.7216	0.137178	-414.2404	-414.231638	-414.230693	-414.274683	30.91	
C	 0.082941939	 1.4015426248	 0.1114781509	-0.328016
N	-0.0165610546	-0.0446664974	 0.157800933	-0.351036
C	-1.1577042916	-0.5895431595	 0.0420536306	 0.4447
N	-1.198196673	-2.005972255	 0.0942022051	-0.348758
C	-2.3413440749	-2.7092466992	-0.0149387998	 0.413654
C	-2.2478032174	-4.2041448253	 0.0569838259	-0.491356
N	-3.499744812	-2.1243944009	-0.1781556562	-0.327039
C	-3.4354027546	-0.7501524145	-0.2259550802	 0.063449
N	-2.3973544472	 0.0181625281	-0.1319293461	-0.295428
H	 0.7551407707	 1.6917940553	-0.7053949374	 0.11622
H	-0.8781526049	 1.9085317396	-0.0249928646	 0.131589
H	 0.5446653507	 1.7621588289	 1.0389124173	 0.116221
H	-0.3043485255	-2.4613497185	 0.2202938395	 0.266168
H	-1.8192533221	-4.5193100739	 1.0144207269	 0.150626
H	-3.2449751597	-4.6284130172	-0.0493894825	 0.166585
H	-1.6016876725	-4.5903592076	-0.7386232336	 0.150422
H	-4.3994895605	-0.2612936879	-0.361940679	 0.121998
59.4193	82.6039	103.0746	184.1817	217.5832	255.5721	334.488	417.3681	482.0432	555.6738	603.7757	640.5514	715.3669	786.0312	798.5277	897.4891	981.1499	1007.8563	1016.3035	1067.4038	1092.7903	1136.4255	1141.3645	1178.1047	1252.7223	1299.3411	1403.0791	1423.9645	1435.6396	1455.7238	1482.323	1491.338	1497.6615	1502.0136	1583.9417	1654.1006	1756.6303	3011.7681	3044.0559	3061.2295	3090.823	3102.2608	3143.1631	3170.7069	3596.5366
CN=C1NC(C)=NC=N1	C[N]C1=NC=N[C@@H](N1)C	
InChI=1S/C5H8N4/c1-4-7-3-8-5(6-2)9-4/h3H,1-2H3,(H,6,7,8,9)	InChI=1S/C5H9N4/c1-4-7-3-8-5(6-2)9-4/h3-4H,1-2H3,(H,7,8,9)/t4-/m0/s1
