13
gdb 133304	2.36749	1.90775	1.05853	6.1007	68.96	-0.2135	-0.0532	0.1603	1018.0066	0.08974	-490.172541	-490.164798	-490.163854	-490.204833	28.825	
N	 0.0733464674	 1.4098888732	 0.1490466672	-0.588238
C	-0.0230367445	 0.0299760464	 0.0426602845	 0.325394
C	-1.1685629566	-0.6866152742	 0.0245184092	 0.130696
F	-2.3371828589	-0.0403397267	 0.0341829962	-0.06541
C	-1.1370431703	-2.1278869487	-0.009245597	 0.300179
N	-2.1894448946	-2.8513040875	-0.0355246041	-0.532583
N	 0.1745044855	-2.7154841746	-0.0228145237	-0.261773
N	 1.2327382717	-2.0364240989	-0.0063616888	-0.039237
N	 1.1582342555	-0.683989652	 0.00471923	-0.311332
H	 0.7015968663	 1.8357292011	-0.5223396387	 0.262526
H	-0.837365465	 1.8494612832	 0.1133032214	 0.275463
H	-1.9076612118	-3.8332447121	-0.0684584284	 0.223984
H	 2.0443771254	-0.2293567491	 0.1604558822	 0.280332
88.1221	168.8827	262.2158	287.4508	304.6752	313.0158	402.7001	502.3041	517.7519	561.2803	585.5343	597.189	685.572	748.9807	763.7621	881.1578	913.2762	998.1525	1041.278	1118.7988	1212.2252	1274.1077	1357.8071	1372.0491	1484.3965	1587.1537	1645.4079	1703.9802	1742.0698	3464.0104	3532.3335	3632.0347	3641.5839
NC1=C(F)C(=N)N=NN1	Nc1c(F)c([NH])nn[nH]1	
InChI=1S/C3H4FN5/c4-1-2(5)7-9-8-3(1)6/h(H4,5,6,7,8)	InChI=1S/C3H9FN5/c4-1-2(5)7-9-8-3(1)6/h1-3,5,7-9H,6H2
