14
gdb 7898	3.55487	1.8266	1.26688	5.3498	58.7	-0.2546	-0.082	0.1726	916.1061	0.106515	-419.734453	-419.727169	-419.726225	-419.766461	26.325	
C	-0.1286273156	 1.5460624145	 0.0386044704	-0.400228
C	 0.1114441689	 0.0498683118	-0.0101022935	 0.124955
C	 0.8290519383	-0.4676933691	-1.2672870387	-0.368508
C	 1.80248808	-1.4957308266	-0.7268936936	 0.281911
O	 2.4160621706	-2.3421057338	-1.3105053787	-0.262536
C	 1.8869873379	-1.2454834592	 0.7975748858	 0.338837
O	 2.6360414214	-1.7488381247	 1.579028106	-0.309047
O	 0.9597962798	-0.3159282291	 1.1184094673	-0.226236
H	 0.8131702792	 2.0913416379	-0.0761052373	 0.133381
H	-0.8036025441	 1.8418841993	-0.7705296951	 0.130251
H	-0.581791774	 1.8318504126	 0.9910934645	 0.143089
H	-0.8335552297	-0.4865894805	 0.132280872	 0.110622
H	 0.1615134153	-0.8889929312	-2.0208276245	 0.151579
H	 1.4096615221	 0.3328208781	-1.7431350645	 0.15193
67.1217	120.0863	238.5397	299.6705	325.73	386.8993	441.814	548.543	615.5605	626.0519	694.608	729.4624	876.2292	917.8228	955.7937	1030.8178	1066.9275	1099.2849	1160.0683	1212.0695	1224.9454	1264.5282	1367.1212	1386.3848	1414.1825	1445.7783	1483.7775	1496.7556	1872.4426	1883.8808	3039.0918	3043.2629	3047.2477	3118.2855	3124.4803	3129.5297
CC1CC(=O)C(=O)O1	C[C@H]1CC(=O)C(=O)O1	
InChI=1S/C5H6O3/c1-3-2-4(6)5(7)8-3/h3H,2H2,1H3	InChI=1S/C5H6O3/c1-3-2-4(6)5(7)8-3/h3H,2H2,1H3/t3-/m0/s1
