17
gdb 18433	2.99985	2.06463	1.60043	1.4644	74.06	-0.2273	0.0296	0.2569	866.2706	0.141498	-326.64362	-326.635971	-326.635027	-326.67509	29.582	
C	-0.5663137971	 1.4352304731	 0.0077967542	-0.415273
C	-0.0313026539	 0.0156785735	-0.0145073344	 0.09536
C	 1.0469708995	-0.4642915576	-1.029424424	-0.297166
C	 1.797938844	-1.0033323455	 0.1857461437	-0.023336
C	 2.1716485977	 0.0876412267	 1.1190442058	-0.192375
C	 2.5706400645	 1.4006717201	 0.6930744117	 0.347176
C	 2.9927680041	 2.4812832494	 0.3723663293	-0.455102
N	 0.7838021005	-0.4660666815	 1.1722727433	-0.176518
H	 0.2283575354	 2.1810596587	-0.0026491552	 0.140257
H	-1.2084118011	 1.6018174157	-0.8644199333	 0.113308
H	-1.173831213	 1.5896438256	 0.905875044	 0.125346
H	-0.8785972394	-0.6763660878	-0.0502981832	 0.091564
H	 0.6906407125	-1.2312735162	-1.7184784888	 0.108574
H	 1.5785184073	 0.3070244435	-1.5935949138	 0.117172
H	 2.2214888491	-1.9982929528	 0.2833190731	 0.099258
H	 2.7031561808	-0.2442265994	 2.0087138441	 0.121931
H	 3.3449165691	 3.4422571745	 0.0888473734	 0.199823
136.7832	157.3127	203.9606	234.8348	298.2281	380.8842	431.0298	547.0545	597.1517	602.9287	656.3732	703.9397	752.6891	759.6484	849.7974	869.224	915.1334	965.3017	989.038	1053.1519	1067.4181	1103.7812	1132.277	1137.0965	1202.3788	1231.4464	1263.2702	1297.0533	1341.6688	1387.4958	1402.5196	1412.5658	1488.8211	1490.268	1503.8985	2226.4509	3037.6867	3050.2252	3064.0313	3098.0051	3124.2523	3128.4142	3155.2451	3158.0758	3501.508
CC1CC2C(C#C)N12	C[C@H]1C[C@H]2[C@@H](C#C)N12	
InChI=1S/C7H9N/c1-3-6-7-4-5(2)8(6)7/h1,5-7H,4H2,2H3	InChI=1S/C7H9N/c1-3-6-7-4-5(2)8(6)7/h1,5-7H,4H2,2H3/t5-,6+,7-,8?/m0/s1
