19
gdb 84077	2.34718	1.52502	0.998	2.3714	78.27	-0.2494	-0.0258	0.2236	1213.276	0.157331	-423.06427	-423.054852	-423.053908	-423.098365	34.758	
C	-0.3154510265	 1.5683754887	 0.0191944746	-0.391994
C	 0.0246444869	 0.0745238478	 0.0047759403	-0.149452
C	 0.8329756567	-0.4191915495	-1.1776700744	-0.179805
C	 1.8621632694	-1.208086726	-0.8455794438	 0.285317
C	 2.8695683575	-1.843119858	-1.7456282285	-0.492202
C	 1.8867990512	-1.4522174603	 0.6490001211	-0.032504
O	 3.1606420499	-1.3751542041	 1.243706673	-0.442148
C	 0.950771349	-0.3447834813	 1.1499541467	 0.355023
O	 1.0678075092	 0.1766195268	 2.2304080466	-0.324994
H	 0.5878127029	 2.1737358747	-0.1014292709	 0.126252
H	-1.0051094202	 1.8163911688	-0.7928700367	 0.116406
H	-0.7822223349	 1.8434850332	 0.968354036	 0.136424
H	-0.911664926	-0.4988893744	 0.1034384374	 0.109455
H	 0.5801452173	-0.1411223002	-2.1961696566	 0.096158
H	 2.7343730759	-1.5309875115	-2.784565624	 0.121825
H	 3.8826097818	-1.5777342947	-1.424458745	 0.150325
H	 2.8049937912	-2.9378232044	-1.7012633712	 0.129527
H	 1.4237064793	-2.4330021255	 0.8738813987	 0.092395
H	 3.0368352895	-0.8723462504	 2.0618833268	 0.293992
63.944	142.4211	186.0907	187.6036	212.3102	222.2328	293.8752	321.1776	357.8702	391.0557	496.6638	559.7656	578.8458	635.5242	695.4396	812.4166	863.6504	902.7602	912.384	1000.2822	1016.3076	1040.1305	1062.1549	1108.6036	1112.7534	1166.915	1202.924	1225.8177	1270.3057	1303.7692	1336.5556	1349.0785	1405.0082	1407.541	1414.7232	1473.997	1488.766	1492.0405	1497.4496	1706.7073	1841.5218	2908.5958	2973.2708	3024.7564	3044.1492	3081.2692	3115.3123	3117.5825	3125.9822	3178.8025	3731.1787
CC1C=C(C)C(O)C1=O	C[C@H]1C=C(C)[C@@H](O)C1=O	
InChI=1S/C7H10O2/c1-4-3-5(2)7(9)6(4)8/h3-4,7,9H,1-2H3	InChI=1S/C7H10O2/c1-4-3-5(2)7(9)6(4)8/h3-4,7,9H,1-2H3/t4-,7+/m0/s1
