17
gdb 45563	3.59401	1.33489	1.13476	3.3932	67.06	-0.268	0.0081	0.2761	1067.5001	0.138616	-459.015526	-459.008392	-459.007448	-459.04781	27.156	
O	 0.0042271644	-0.049761405	-0.0125652284	-0.327147
C	-0.061338526	 1.1417425936	 0.0443751718	 0.424193
C	-1.3100813765	 2.0196925494	 0.1146731025	-0.391499
C	-0.7848465479	 3.4083917781	 0.4668134036	-0.043792
C	-0.7384059666	 3.7518749938	 1.9673431965	-0.100494
O	 0.4094906756	 4.5664701024	 2.1240234018	-0.243049
C	 1.431913699	 4.0072743804	 1.3104347139	-0.098648
C	 0.7238493003	 3.3299845367	 0.1177453106	 0.073336
O	 1.0501328275	 1.9331519106	 0.0447739496	-0.227961
H	-1.8003222186	 1.9897632408	-0.8635560473	 0.144442
H	-2.0112178402	 1.6008910863	 0.8401063072	 0.144188
H	-1.2765188849	 4.2103802331	-0.0855392042	 0.094578
H	-1.6054159657	 4.3172269859	 2.3165912752	 0.119531
H	-0.6577419664	 2.8304283518	 2.5696979654	 0.097457
H	 2.1028571459	 4.8171525001	 1.0142891346	 0.117313
H	 2.0100080742	 3.2445963933	 1.8517224432	 0.116453
H	 0.9810332959	 3.7812182888	-0.843519876	 0.101099
64.8388	109.2476	220.1952	327.6812	370.7506	498.227	554.5517	586.7636	638.4676	710.0011	732.1359	817.92	865.0861	888.8421	946.0031	972.2095	1007.6279	1049.367	1059.2519	1080.2046	1100.0802	1130.2282	1164.8908	1205.0539	1229.0777	1247.9907	1275.251	1298.4938	1312.9575	1328.645	1357.6422	1386.2733	1404.1164	1464.5095	1503.6895	1517.9039	1886.8187	2959.0642	3008.8259	3066.1727	3075.8577	3094.9795	3102.2659	3109.4849	3115.812
O=C1CC2COCC2O1	O=C1C[C@H]2COC[C@H]2O1	
InChI=1S/C6H8O3/c7-6-1-4-2-8-3-5(4)9-6/h4-5H,1-3H2	InChI=1S/C6H8O3/c7-6-1-4-2-8-3-5(4)9-6/h4-5H,1-3H2/t4-,5+/m0/s1
