19
gdb 100598	3.23494	0.96021	0.80271	6.4259	76.09	-0.2451	-0.0054	0.2397	1454.8531	0.157565	-456.397866	-456.387347	-456.386403	-456.434799	35.711	
C	 0.0207479975	 1.568031897	-0.0033564991	-0.377306
C	-0.0426046876	 0.0403148372	-0.0670107536	-0.153164
N	-1.4038582133	-0.487456338	 0.0489575477	-0.12795
C	-2.2171039275	-0.553421803	-1.1530922056	-0.35996
C	-1.8540528523	-0.7859655671	 1.3126076816	 0.519851
O	-1.2301962362	-0.5413857785	 2.3204201886	-0.375242
N	-3.111156862	-1.4432080432	 1.328218596	-0.400634
C	-3.9404670399	-1.6143696819	 2.4274500585	 0.167344
O	-3.8144905993	-1.1241726623	 3.5149488407	-0.259278
H	 1.0546080893	 1.909094524	-0.117214373	 0.119439
H	-0.5740802486	 2.0320551477	-0.7974933013	 0.111042
H	-0.3543260199	 1.9169223524	 0.9617665555	 0.150511
H	 0.3779528047	-0.3272550562	-1.0099448814	 0.099822
H	 0.5399605257	-0.3866528565	 0.7506746947	 0.145899
H	-2.1899580594	-1.5429380079	-1.634086142	 0.125179
H	-3.2573057633	-0.290636795	-0.9432298323	 0.140755
H	-1.8433404965	 0.1738933369	-1.8778086184	 0.14465
H	-3.4102947795	-1.91512989	 0.4893265916	 0.253001
H	-4.787559302	-2.2786887857	 2.1544524118	 0.076043
38.6058	70.8988	72.369	120.1106	148.6511	183.8209	229.6041	241.4422	306.3296	362.1279	401.1953	503.8102	555.1567	574.7034	697.0273	760.6758	791.6103	904.3129	930.6379	1019.3176	1028.7896	1090.6976	1106.3916	1143.3818	1149.7704	1173.5851	1266.6016	1324.3877	1392.9214	1410.8583	1413.6734	1450.0148	1465.6062	1481.7101	1492.838	1498.3559	1504.1484	1513.7533	1521.4985	1787.8886	1867.4249	2907.8567	2988.868	3037.8683	3041.5843	3082.2315	3099.7781	3120.5666	3124.235	3135.3476	3627.7978
CCN(C)C(=O)NC=O	CCN(C)C(=O)NC=O	
InChI=1S/C5H10N2O2/c1-3-7(2)5(9)6-4-8/h4H,3H2,1-2H3,(H,6,8,9)	InChI=1S/C5H10N2O2/c1-3-7(2)5(9)6-4-8/h4H,3H2,1-2H3,(H,6,8,9)
