16
gdb 51246	5.25174	0.82502	0.71333	11.5814	105.83	-0.1216	-0.0476	0.074	1495.1554	0.12391	-434.057513	-434.048571	-434.047627	-434.091047	33.724	
N	 0.155817599	 0.9949992396	 0.1483247337	-0.522663
H	 0.193908623	 0.0279822621	-0.1338908163	 0.282899
H	 0.9633808316	 1.5257807559	-0.1462954652	 0.267766
C	-1.0744595375	 1.5885295207	 0.0679697901	 0.101013
N	-1.2489655417	 2.8919033751	 0.0623186035	-0.32965
C	-2.4735131189	 3.5523139984	 0.0509624421	 0.361029
C	-3.7666341097	 2.9948243734	 0.044718526	-0.46269
C	-4.700779055	 4.0735739744	 0.0314551668	 0.399167
O	-5.9262347043	 4.1562942495	 0.0217529297	-0.45829
N	-3.8592713232	 5.2554341718	 0.0297599669	-0.310246
C	-2.53793318	 4.940070961	 0.0405946441	-0.189352
H	-1.747648315	 5.6751194932	 0.0443991909	 0.104577
H	-1.953164139	 0.9617660836	 0.0903540897	 0.183507
H	-0.429847541	 3.4877640261	 0.0708255231	 0.265134
H	-4.0517834536	 1.9559355276	 0.0489291234	 0.061604
H	-4.2515608747	 6.1817074574	 0.0235120713	 0.246195
90.1466	122.3455	130.7288	209.5563	299.9523	347.9255	370.6585	423.4895	430.8612	496.3458	510.2981	519.6778	593.629	611.2874	646.0635	675.256	742.3963	756.2728	782.1147	889.98	984.7233	1078.1366	1086.3106	1135.695	1239.0748	1253.4266	1308.2352	1350.5106	1411.9971	1450.2326	1508.116	1561.0286	1652.0436	1711.933	1765.6212	3239.7854	3256.592	3264.2569	3565.4163	3568.1529	3669.5956	3680.449
[NH2+]=CNC1=CC(=O)N[CH-]1	[NH2]=CNC1=CNC(=O)[CH]1	
InChI=1S/C5H6N3O/c6-3-8-4-1-5(9)7-2-4/h1-3H,(H2,6,8)(H,7,9)/q-1/p+1	InChI=1S/C5H7N3O/c6-3-8-4-1-5(9)7-2-4/h1-3,8H,6H2,(H,7,9)
