18
gdb 71791	3.02152	1.93341	1.74811	2.6317	73.04	-0.2111	0.0653	0.2765	860.2733	0.149871	-401.863735	-401.857267	-401.856323	-401.894105	27.6	
O	-0.0378105126	 1.421702169	-0.0006950961	-0.487226
C	-0.0026766357	 0.0301538101	-0.0223218182	 0.401773
C	 0.4542839956	-0.7377339198	-1.2855224397	-0.318441
C	-0.5365840838	-1.8541092087	-0.868476891	-0.068128
C	-0.1222415083	-2.5470891783	 0.4750212965	 0.006397
C	 1.1967216436	-2.0219152552	 1.0679820096	-0.252689
C	 0.4105959297	-0.7214246001	 1.2998369458	-0.072118
N	-0.9038252487	-1.5146730834	 1.3002645246	-0.162333
C	-1.3047458141	-0.8204719714	 0.0150374538	-0.034559
H	 0.8683099042	 1.750923173	 0.014528676	 0.278247
H	 0.0841571821	-0.2176441921	-2.1744418418	 0.108374
H	 1.5124989401	-0.9823434306	-1.4199925484	 0.091528
H	-0.9924520023	-2.4768309848	-1.6361837866	 0.073765
H	-0.3908210264	-3.5994547887	 0.5847065347	 0.072494
H	 1.4085900583	-2.5157592369	 2.0200326838	 0.11449
H	 2.1030225051	-2.0099985448	 0.457227643	 0.098984
H	 0.6232106344	-0.0738621457	 2.153707211	 0.072807
H	-2.3172324913	-0.4478243316	-0.1380615271	 0.076634
179.8343	264.1496	337.3743	394.5636	429.5139	463.4727	581.9441	658.8024	717.7107	742.3491	778.7981	825.0212	875.3512	903.1188	923.8207	942.4086	950.1748	961.4797	982.3049	993.2597	1002.7171	1039.3095	1074.3872	1116.218	1128.043	1167.7289	1180.6675	1191.4179	1201.3537	1215.536	1232.4573	1256.6453	1266.8642	1283.0519	1321.8845	1329.3105	1386.7937	1471.6717	1501.5252	3043.5327	3058.679	3081.835	3087.5021	3099.8275	3112.4043	3112.7604	3126.3074	3789.9808
OC12CC3C4CC1N4C23	O[C@@]12C[C@H]3[C@H]4C[C@@H]1N4[C@@H]23	
InChI=1S/C7H9NO/c9-7-2-3-4-1-5(7)8(4)6(3)7/h3-6,9H,1-2H2	InChI=1S/C7H9NO/c9-7-2-3-4-1-5(7)8(4)6(3)7/h3-6,9H,1-2H2/t3-,4+,5-,6+,7-/m0/s1
