19
gdb 32526	1.94586	1.61446	0.9426	1.0484	78.3	-0.2067	0.0295	0.2362	1273.7216	0.158974	-423.046277	-423.037156	-423.036212	-423.080484	33.32	
C	 0.2054704964	 1.5225349744	 0.1639180306	-0.372029
C	-0.0347738294	 0.0195345185	-0.0589336391	-0.300757
C	 0.6672102518	-0.517245749	-1.2696547167	 0.126303
C	 0.1344533346	-0.9671434985	-2.436358204	-0.087136
O	 1.0940955739	-1.3670614994	-3.3078270115	-0.155762
C	 2.2998110872	-1.1720871834	-2.690782622	-0.153128
C	 2.0899920725	-0.6556372527	-1.4460426437	 0.241848
O	 2.9725555758	-0.3083319075	-0.4794773988	-0.260879
C	 4.3341952571	-0.5169845095	-0.8065827743	-0.250816
H	 1.2733050041	 1.728306878	 0.2776446127	 0.132959
H	-0.1627969119	 2.1068226535	-0.6851379634	 0.115563
H	-0.308054544	 1.8694917027	 1.066220764	 0.107857
H	 0.3039153234	-0.5295153693	 0.8284350865	 0.111709
H	-1.1091460655	-0.1748382951	-0.1524152995	 0.100458
H	-0.8827151298	-1.0652590407	-2.7804110203	 0.132922
H	 3.1726844218	-1.4450556137	-3.2559545155	 0.130315
H	 4.9198425432	-0.2014428559	 0.0580717872	 0.135243
H	 4.5311915291	-1.577141098	-1.0158291637	 0.122704
H	 4.6253670795	 0.0776389953	-1.6831407785	 0.122625
71.6063	102.6776	145.3733	178.8751	217.8956	242.9726	300.3652	320.7087	431.3758	512.75	601.9541	612.6611	656.604	717.9799	733.0932	772.6755	793.3335	892.365	967.5377	1064.3506	1072.8497	1077.3327	1091.7593	1182.4678	1186.7578	1211.855	1228.1909	1255.1021	1290.8738	1327.6978	1362.8336	1406.5079	1423.3064	1475.0259	1482.0874	1484.6391	1496.5283	1508.2718	1510.3761	1594.6312	1664.0733	2999.0138	3026.9919	3038.3646	3055.0263	3064.7076	3106.9616	3121.6409	3137.0693	3266.8937	3294.6801
CCC1=COC=C1OC	CCc1cocc1OC	
InChI=1S/C7H10O2/c1-3-6-4-9-5-7(6)8-2/h4-5H,3H2,1-2H3	InChI=1S/C7H10O2/c1-3-6-4-9-5-7(6)8-2/h4-5H,3H2,1-2H3
