18
gdb 92070	2.70075	1.62678	1.14655	3.9059	72.59	-0.24	0.0303	0.2703	1075.0242	0.148778	-439.109907	-439.101751	-439.100806	-439.142938	30.292	
C	-0.0262433151	 1.4579388195	 0.1773214001	-0.345253
N	 0.0284832565	 0.0241093994	-0.0597823716	-0.099843
C	-1.2548865602	-0.6211006444	-0.2838971068	-0.183941
C	-1.1654514454	-1.9692235662	-0.951856798	 0.036511
O	-0.3409771735	-2.0539463538	-2.1136153913	-0.252972
C	 0.0882800286	-2.719490539	-0.9167009227	 0.051524
C	 1.2724488607	-2.1206629615	-0.2101596985	-0.3567
C	 1.2470153446	-0.6049093146	-0.0267281115	 0.406467
O	 2.2892921767	-0.0052343192	 0.1741158043	-0.385476
H	 0.9902331432	 1.8154709489	 0.3301099181	 0.173041
H	-0.4730243171	 1.9721079241	-0.6824306757	 0.124527
H	-0.6305612229	 1.6836530634	 1.0652289666	 0.119099
H	-1.8054017781	-0.739964377	 0.6640547134	 0.112077
H	-1.8634871044	 0.0447957367	-0.911188426	 0.122423
H	-2.1152576132	-2.4992753529	-1.0203356122	 0.100167
H	 0.0596466784	-3.8073073614	-0.9763154953	 0.098859
H	 1.3571017474	-2.5698066358	 0.7884905911	 0.133498
H	 2.2060542636	-2.3517364962	-0.730901144	 0.145992
84.0048	105.2538	144.1055	227.9563	321.105	336.4835	362.6674	423.643	541.4423	584.2147	593.1626	708.1058	751.7293	846.3689	852.7911	906.3821	976.0221	988.7786	1040.9823	1063.738	1094.0295	1136.8128	1155.607	1162.8455	1228.359	1258.2967	1277.4559	1294.5903	1345.7066	1358.4964	1380.5368	1428.8173	1452.0076	1465.2219	1496.4631	1501.8668	1503.2867	1541.3666	1761.9276	2970.9637	3014.4266	3021.4265	3034.5547	3063.3151	3095.2837	3108.8656	3121.0368	3173.3185
CN1CC2OC2CC1=O	CN1C[C@H]2O[C@H]2CC1=O	
InChI=1S/C6H9NO2/c1-7-3-5-4(9-5)2-6(7)8/h4-5H,2-3H2,1H3	InChI=1S/C6H9NO2/c1-7-3-5-4(9-5)2-6(7)8/h4-5H,2-3H2,1H3/t4-,5+/m0/s1
