25
gdb 59355	2.8342	1.02537	0.85305	1.2438	88.79	-0.2507	0.0719	0.3226	1480.3175	0.227155	-389.490191	-389.479381	-389.478437	-389.525561	40.761	
C	-0.2405448936	 1.4843852922	-0.9140446239	-0.388987
C	-0.0715802667	 0.0753578136	-0.3272025667	 0.018731
C	 0.641357005	 0.1363400209	 1.0318345668	-0.391484
C	-1.4217114958	-0.6323524897	-0.2103788126	 0.062939
C	-2.2881321475	-0.855116826	-1.4827825345	-0.305633
C	-2.751250124	-2.1973000369	-0.8618406648	 0.138916
O	-2.8530584656	-3.3412433233	-1.6794651165	-0.432661
C	-1.5091829355	-2.1756612669	 0.0694874927	-0.05239
C	-0.3470319184	-3.0235884935	-0.4472204703	-0.391815
H	 0.7271144292	 1.9866213973	-1.017811269	 0.107353
H	-0.7106246626	 1.4558847454	-1.9020276448	 0.113769
H	-0.8682852324	 2.106325461	-0.2641292548	 0.108256
H	 0.5583024639	-0.5015624692	-1.0177441421	 0.069635
H	 0.0579842935	 0.7253301319	 1.7501118469	 0.108891
H	 0.7850366379	-0.8599880584	 1.4609652946	 0.116125
H	 1.6261852526	 0.6069718307	 0.9415543881	 0.10802
H	-2.0220478058	-0.1055768697	 0.5430888028	 0.061518
H	-3.0473019012	-0.1095529112	-1.7336701647	 0.088037
H	-1.6657397543	-1.041107297	-2.3642312402	 0.102307
H	-3.6708109562	-2.0518440528	-0.2758714918	 0.061988
H	-3.610154224	-3.2280822255	-2.2624891786	 0.281408
H	-1.7152522506	-2.4452955518	 1.1097754873	 0.063152
H	-0.0943397315	-2.7947984346	-1.4864028471	 0.118541
H	 0.5507052983	-2.8735174267	 0.1604975592	 0.10869
H	-0.6107910146	-4.0839287696	-0.4082381657	 0.124695
79.0617	88.2992	144.2727	211.416	225.1025	229.8178	236.1338	244.5698	254.8167	304.1603	368.2071	399.1304	449.9057	487.2486	555.4873	647.9768	754.957	810.9638	876.8569	910.9861	917.5723	927.8903	962.7187	973.6589	1016.5497	1023.0306	1063.9198	1086.9721	1124.688	1146.6201	1169.3634	1181.8981	1203.5891	1227.5007	1237.1982	1273.2433	1280.757	1313.1658	1331.8669	1347.9978	1368.2792	1394.515	1398.1577	1407.1348	1420.1909	1430.0374	1486.0615	1487.1182	1489.8165	1494.3487	1498.6912	1504.0621	1509.923	2983.7083	3006.8397	3019.6187	3022.3064	3028.4363	3041.6476	3047.3613	3053.0345	3085.1888	3091.942	3100.222	3102.2486	3103.8302	3110.2386	3116.3497	3818.7421
CC(C)C1CC(O)C1C	CC(C)[C@H]1C[C@@H](O)[C@H]1C	
InChI=1S/C8H16O/c1-5(2)7-4-8(9)6(7)3/h5-9H,4H2,1-3H3	InChI=1S/C8H16O/c1-5(2)7-4-8(9)6(7)3/h5-9H,4H2,1-3H3/t6-,7+,8+/m0/s1
