20
gdb 26263	2.60214	1.5029	1.08308	3.1005	82.62	-0.1942	0.0413	0.2355	1178.1191	0.171777	-399.355636	-399.34627	-399.345325	-399.389769	34.116	
C	 0.5837699488	 0.1999664451	-1.0327241857	-0.336965
N	-0.1054538583	 0.057674513	 0.252251615	-0.1694
C	 0.0300009786	 1.2529880585	 1.0814429861	-0.313951
C	-1.4220502346	-0.4086477272	 0.1587688641	 0.403293
N	-2.5228485591	 0.2941620843	 0.3241224139	-0.33211
C	-3.5538980354	-0.6066636121	 0.1790235519	-0.10149
C	-3.0691281163	-1.8561964295	-0.0855129001	-0.136956
N	-1.6912784898	-1.7322333501	-0.0853955246	-0.04102
C	-0.7264593173	-2.8041159474	-0.2101585067	-0.346338
H	 1.649561606	 0.3728591661	-0.8531876025	 0.120649
H	 0.4828619777	-0.7136535856	-1.6228810035	 0.12157
H	 0.1896143012	 1.0397427052	-1.6281657837	 0.117298
H	-0.4187346942	 2.1435797417	 0.6177949383	 0.122414
H	-0.4611767485	 1.0890324711	 2.0417566387	 0.134683
H	 1.0947332063	 1.4419327125	 1.2519356182	 0.109847
H	-4.5847960125	-0.2995148505	 0.2693175751	 0.102021
H	-3.5477836091	-2.8040654627	-0.2691822097	 0.118488
H	-0.5133692492	-3.0464555577	-1.2578902056	 0.133163
H	 0.1996378523	-2.4922735996	 0.2767667076	 0.156231
H	-1.1060347367	-3.7020022153	 0.2838424131	 0.138575
61.4736	156.6245	166.3568	174.2182	205.9138	211.6953	239.0984	310.8495	377.239	414.7999	523.692	619.0915	637.5928	705.6199	729.5528	763.4198	838.6837	918.9204	974.7448	1054.9363	1067.9068	1107.3237	1119.4827	1153.5411	1164.142	1184.0088	1195.8415	1232.2739	1309.9854	1313.5219	1378.4032	1432.3575	1443.7519	1456.5992	1475.2072	1487.499	1491.2301	1498.1302	1503.2447	1510.8568	1516.1023	1541.8766	1574.9439	2974.002	2999.738	3028.9401	3072.3567	3074.7348	3097.8405	3120.3316	3135.7335	3138.767	3243.4023	3272.8349
CN(C)C1=NC=CN1C	CN(C)c1nccn1C	
InChI=1S/C6H11N3/c1-8(2)6-7-4-5-9(6)3/h4-5H,1-3H3	InChI=1S/C6H11N3/c1-8(2)6-7-4-5-9(6)3/h4-5H,1-3H3
