17
gdb 31056	2.36041	1.42732	0.90978	1.8066	74.25	-0.1693	0.0434	0.2127	1258.9962	0.137553	-451.351165	-451.342032	-451.341087	-451.384906	33.749	
C	-0.0827406188	 1.4606693401	 0.0936112015	-0.323671
N	 0.3985737936	 0.1036338292	-0.1322787155	-0.389851
C	 0.7722788241	-0.651620407	 0.9654988642	 0.318534
C	 0.6575760072	-1.9941229711	 1.1372510327	 0.134764
N	 0.1224684781	-3.0019786178	 0.3535706952	-0.608205
O	 1.284209967	-2.2837035525	 2.3854504671	-0.216773
C	 1.6751044552	-1.0850731322	 2.8293828558	 0.456776
N	 2.2401820247	-1.0355199582	 4.0815681812	-0.589104
N	 1.4199435659	-0.0732126473	 2.0531854565	-0.39815
H	 0.6566643886	 2.0050114817	 0.6830459906	 0.154251
H	-0.1970724381	 1.9614719465	-0.8715314156	 0.114257
H	-1.0442355759	 1.507400272	 0.6292221065	 0.10346
H	-0.1817113463	-0.4362062273	-0.7604886245	 0.236586
H	-0.6171199483	-3.5301145825	 0.8054509653	 0.240988
H	 0.806322557	-3.6534301573	-0.019816251	 0.239972
H	 2.745075744	-1.8687877032	 4.3459335002	 0.259798
H	 2.758995782	-0.1843079433	 4.2403395796	 0.266366
84.0993	142.6969	173.3761	196.037	235.9029	278.7371	300.1491	332.2883	371.4493	410.5432	562.7652	595.0568	620.6901	660.0529	695.5444	717.2311	755.8527	770.5192	859.5638	990.3583	1032.9779	1090.4106	1138.7446	1154.9605	1164.2198	1209.5122	1259.8909	1408.7937	1447.4691	1471.7754	1481.3788	1497.4653	1524.6573	1600.7894	1659.4889	1673.5227	1753.3316	2977.0803	3085.7116	3141.5296	3478.401	3538.8116	3573.2129	3579.6687	3681.8912
CNC1=C(N)OC(N)=N1	CNc1c(N)oc(N)n1	
InChI=1S/C4H8N4O/c1-7-3-2(5)9-4(6)8-3/h7H,5H2,1H3,(H2,6,8)	InChI=1S/C4H8N4O/c1-7-3-2(5)9-4(6)8-3/h7H,5H2,1H3,(H2,6,8)
