18
gdb 88110	3.61326	1.25785	1.0714	3.1814	72.66	-0.2467	0.0241	0.2709	1150.9486	0.148076	-439.078391	-439.070178	-439.069234	-439.11128	30.688	
C	-0.0353588221	 1.5277123274	-0.1467352132	-0.430873
C	 0.0042142038	 0.0383869958	 0.0913527566	 0.017359
O	 1.2655928819	-0.6277093112	-0.0418874525	-0.292424
C	 0.6232483517	-0.62987017	 1.2458785121	 0.321734
C	 1.3534940368	 0.1146047278	 2.3361236606	-0.133201
O	 2.3567192359	-0.7167160086	 2.9417635912	-0.22518
C	 2.054038064	-2.0331486569	 3.0559993867	 0.140427
N	 1.0794009757	-2.6821689662	 2.5825090729	-0.2714
C	 0.1239466302	-1.9766347592	 1.7321663647	-0.216455
H	 0.7974174689	 2.0449457482	 0.3334835901	 0.128128
H	 0.0167047556	 1.7332816519	-1.2207773972	 0.137071
H	-0.9743438171	 1.9489844794	 0.2281721434	 0.126569
H	-0.8200020946	-0.5053928497	-0.3782807038	 0.088276
H	 1.8832311934	 0.9859677503	 1.9526855847	 0.127239
H	 0.6501343468	 0.4345774005	 3.1168985141	 0.114988
H	 2.8163317795	-2.5308500212	 3.6526030735	 0.127242
H	-0.8164449981	-1.8555863405	 2.2879125239	 0.114488
H	-0.0999002924	-2.6076169978	 0.8658243024	 0.126012
93.7188	137.9654	167.3938	190.3382	238.2787	358.6696	395.153	456.1496	493.0282	538.2079	543.762	722.4332	773.3467	893.5279	910.4253	923.5286	963.5159	970.5448	978.9073	999.8346	1046.3845	1079.5019	1126.7085	1162.6791	1178.5711	1233.4952	1277.5579	1290.2866	1329.7311	1360.6533	1405.8373	1411.0769	1418.5266	1464.3266	1472.1273	1488.8369	1494.9976	1517.642	1742.4032	3010.3028	3020.2169	3041.4412	3069.205	3072.6305	3103.0029	3129.1616	3140.7846	3161.0073
CC1OC11COC=NC1	C[C@H]1O[C@]21COC=NC2	
InChI=1S/C6H9NO2/c1-5-6(9-5)2-7-4-8-3-6/h4-5H,2-3H2,1H3	InChI=1S/C6H9NO2/c1-5-6(9-5)2-7-4-8-3-6/h4-5H,2-3H2,1H3/t5-,6+/m1/s1
