19
gdb 78685	4.06878	1.18374	1.09318	2.3021	75.33	-0.25	0.0696	0.3196	1152.5003	0.157941	-422.947534	-422.939284	-422.938339	-422.979671	33.078	
C	-0.1682704323	 1.5684402205	-0.0214560057	-0.473823
C	-0.0338102493	 0.0531979676	-0.0149026045	 0.423103
O	-1.2761434177	-0.5676333904	-0.29399396	-0.484298
C	 1.2121440653	-0.5951188824	-0.6698186012	-0.117419
C	 2.1100022779	-0.2811028238	 0.5781272893	-0.115013
C	 2.5818023084	-1.7473529939	 0.6506446876	 0.144138
O	 3.0324836465	-2.2880034845	 1.8658169925	-0.450207
C	 1.1000303061	-1.863785432	 0.2477807245	-0.100695
C	 0.6875773833	-0.6393912962	 1.1519996783	-0.11013
H	 0.7699292085	 2.0655010998	 0.2384535852	 0.123263
H	-0.4646569533	 1.9248569289	-1.0164969485	 0.107133
H	-0.9386648371	 1.8830672647	 0.6896197074	 0.126262
H	-1.6477138796	-0.158438174	-1.0824614351	 0.275456
H	 1.5382039626	-0.5834712859	-1.7117400699	 0.066286
H	 2.6713426725	 0.6357815438	 0.7610653675	 0.07228
H	 3.3134668179	-2.0526029174	-0.1040947734	 0.081561
H	 2.3927871931	-2.0662203532	 2.5512887204	 0.281082
H	 0.4950217076	-2.7468073366	 0.0511506419	 0.084213
H	 0.3834383997	-0.6654824652	 2.2005432737	 0.06681
173.2488	176.1983	232.7829	239.6628	264.9379	296.4956	368.1095	398.3751	424.7241	544.8606	583.9376	659.6804	748.503	819.0649	839.2109	841.1017	876.6057	908.4784	926.206	953.7115	975.8829	1004.8707	1067.1454	1082.1063	1110.5731	1122.4772	1130.9448	1141.1841	1149.9366	1167.2159	1202.9806	1211.4274	1235.5386	1268.676	1299.1605	1304.7645	1395.0839	1410.8713	1447.1899	1490.462	1495.355	3023.5167	3066.7201	3086.8724	3088.6583	3092.4281	3109.6205	3120.2352	3138.2639	3804.3275	3807.527
CC1(O)C2C3C(O)C2C13	C[C@@]1(O)[C@H]2[C@@H]3[C@@H](O)[C@H]2[C@H]13	
InChI=1S/C7H10O2/c1-7(9)4-2-5(7)3(4)6(2)8/h2-6,8-9H,1H3	InChI=1S/C7H10O2/c1-7(9)4-2-5(7)3(4)6(2)8/h2-6,8-9H,1H3/t2-,3+,4-,5+,6-,7-/m0/s1
