16
gdb 31928	4.42386	0.93925	0.81206	5.2363	78.28	-0.2533	-0.0727	0.1806	1389.5072	0.123912	-437.934363	-437.925943	-437.924999	-437.968289	29.629	
C	-0.2061859039	 1.5314612699	-0.1751752687	-0.377239
C	 0.0697728639	 0.027540874	 0.0012701855	-0.303648
C	 0.8605281961	-0.5614412007	-1.1117146614	 0.337322
C	 2.0897875632	-1.1507477159	-1.2123073732	-0.188309
N	 2.3299365589	-1.5118494182	-2.5164671003	-0.268465
C	 1.2624351199	-1.138578471	-3.1601017099	 0.278464
O	 0.3226083785	-0.5493320154	-2.3604249166	-0.194119
C	 0.9204393673	-1.2523814799	-4.5842616337	 0.086211
O	 1.6364061756	-1.7447269601	-5.4202851478	-0.244084
H	 0.7280473115	 2.0988013026	-0.2165389013	 0.130348
H	-0.7583859384	 1.7195180415	-1.0997254297	 0.136932
H	-0.8006905774	 1.9095424002	 0.6609047811	 0.124781
H	 0.6196911896	-0.1514477972	 0.9304446989	 0.127049
H	-0.8825248629	-0.5103769002	 0.0904958197	 0.130935
H	 2.8066342636	-1.334977088	-0.4271408056	 0.132778
H	-0.0799439853	-0.8334631616	-4.8220573669	 0.091043
58.0737	93.5508	155.0873	186.0926	224.4464	257.8378	333.8708	410.9619	481.7787	650.9716	704.3561	719.2663	786.8155	802.3175	870.6986	960.3726	989.57	1019.7442	1024.321	1074.2684	1090.9416	1143.2192	1226.22	1254.0661	1274.3576	1350.5105	1367.7165	1409.5551	1439.8649	1474.5031	1496.9005	1504.4391	1545.5902	1612.0168	1808.5886	2915.8768	3031.6714	3047.2114	3084.8466	3121.4405	3127.07	3259.8904
CCC1=CN=C(O1)C=O	CCc1cnc(o1)C=O	
InChI=1S/C6H7NO2/c1-2-5-3-7-6(4-8)9-5/h3-4H,2H2,1H3	InChI=1S/C6H7NO2/c1-2-5-3-7-6(4-8)9-5/h3-4H,2H2,1H3
