20
gdb 79577	2.11655	1.64683	1.4768	2.3036	78.25	-0.2475	0.0685	0.3159	1055.5011	0.170005	-403.091198	-403.082206	-403.081262	-403.124121	34.807	
C	-0.0734085632	 1.5344585125	-0.0601694178	-0.420505
C	 0.0778258284	 0.0331739069	 0.0721784387	-0.075267
C	 1.3642561345	-0.7358129798	-0.1780228859	-0.169169
C	 2.5693913494	-0.0257749991	 0.4011755482	-0.092537
N	 3.1716459851	-0.7769543988	 1.5054820606	-0.377759
C	 1.9506589531	-0.0085566779	 1.7779489963	 0.275169
C	 1.9725400436	 1.0134914871	 2.8771421811	-0.500441
C	 0.7257829796	-0.7175781863	 1.2143050096	 0.297493
O	 0.1131682438	-1.8042678932	 1.8254771975	-0.464407
H	 0.8181920016	 2.0664358456	 0.2786267925	 0.128089
H	-0.2481112173	 1.8112081612	-1.1058205074	 0.118593
H	-0.9258016555	 1.9001580566	 0.5236227843	 0.112677
H	-0.7845859942	-0.5234327492	-0.2958725416	 0.088358
H	 1.4036727159	-1.5733634179	-0.8658989393	 0.094816
H	 3.1668263298	 0.7452235806	-0.0714057482	 0.095147
H	 2.9828932611	-1.7749916182	 1.4283795933	 0.231565
H	 2.9539424608	 1.4905367826	 2.9359643077	 0.134383
H	 1.2128956433	 1.7866903222	 2.7229359825	 0.115718
H	 1.7763224468	 0.5396960854	 3.8464697026	 0.121334
H	-0.6184318168	-1.4804620902	 2.3616943151	 0.286743
152.1636	172.4748	188.4405	205.4449	210.6164	247.965	287.6525	320.4015	396.1813	472.5297	538.0088	618.7751	645.9132	657.4317	761.665	805.8947	842.1841	907.2272	947.4874	955.6518	986.0789	994.0394	1029.5632	1086.9073	1096.7448	1109.5313	1120.2718	1139.9371	1187.4461	1214.1525	1218.9464	1266.53	1297.1242	1315.3788	1335.6065	1393.5478	1411.194	1432.0027	1462.4764	1484.8493	1491.7348	1500.0482	1502.1205	3029.217	3031.4347	3085.9914	3087.9003	3106.3001	3121.4889	3127.7497	3172.6444	3183.0826	3466.5876	3800.628
CC1C2C3NC3(C)C12O	C[C@H]1[C@H]2[C@@H]3N[C@]3(C)[C@@]12O	
InChI=1S/C7H11NO/c1-3-4-5-6(2,8-5)7(3,4)9/h3-5,8-9H,1-2H3	InChI=1S/C7H11NO/c1-3-4-5-6(2,8-5)7(3,4)9/h3-5,8-9H,1-2H3/t3-,4-,5-,6-,7+/m0/s1
