23
gdb 89311	2.52652	1.5513	1.18825	1.4613	85.22	-0.2354	0.0855	0.3208	1171.583	0.204965	-388.298607	-388.289402	-388.288458	-388.331537	36.746	
C	-0.1246622168	 1.5676203306	 0.0098127023	-0.4209
C	 0.0794192305	 0.0541018777	 0.0199222547	 0.010964
C	 1.05376699	-0.5087090361	-1.0645423705	-0.27698
C	 2.0063733122	-1.2814755763	-0.1216568442	 0.423845
C	 3.0335678513	-2.2115561231	-0.7026764677	-0.496418
C	 2.30308657	-0.2488890227	 0.9904783142	-0.320116
C	 0.8076016316	-0.5425349786	 1.2591098992	 0.414685
C	 0.1607985588	-0.4463991835	 2.6124840653	-0.502893
O	 1.0488124416	-1.9151646234	 0.7952588292	-0.366866
H	 0.8236202647	 2.109139435	 0.096907319	 0.113446
H	-0.5996080884	 1.8893338292	-0.9229767441	 0.117575
H	-0.7705169741	 1.8905832871	 0.8335982633	 0.114097
H	-0.895039129	-0.4395227451	-0.0577596346	 0.073726
H	 0.5627548324	-1.1804174005	-1.7732363705	 0.09863
H	 1.5661788446	 0.2771929864	-1.6293507242	 0.090057
H	 3.7371454602	-1.6567599566	-1.332360488	 0.118959
H	 3.5972326306	-2.7146336915	 0.0880121949	 0.123785
H	 2.5530282363	-2.9758079475	-1.3227037081	 0.125961
H	 2.9403495424	-0.6666377496	 1.7720640558	 0.099285
H	 2.6216698439	 0.7602675186	 0.7164861531	 0.087777
H	 0.0665350841	 0.5994897199	 2.9220220626	 0.121432
H	-0.8420819635	-0.8866584483	 2.5902026845	 0.12544
H	 0.7514709166	-0.9765859418	 3.3645119539	 0.124509
157.655	188.5954	201.2847	213.5245	231.7651	239.1232	263.5056	355.3263	406.9766	433.6529	501.7632	550.8916	600.2572	606.2287	710.8442	795.444	809.1923	844.0062	864.1149	901.6529	928.9272	946.4388	1005.8923	1014.2	1044.4489	1065.3534	1094.9214	1128.7281	1166.6802	1173.6289	1190.28	1225.4785	1244.5341	1250.6578	1264.9524	1331.3697	1355.9126	1368.7306	1409.8333	1412.0347	1422.6078	1478.1427	1480.4887	1482.0034	1492.1001	1494.131	1497.8891	1498.822	1506.9042	3028.9955	3035.2452	3035.3816	3045.3676	3049.3379	3062.362	3093.4575	3096.9717	3101.7105	3103.2125	3105.0191	3114.4061	3115.4132	3130.4
CC1CC2(C)CC1(C)O2	C[C@H]1C[C@@]2(C)C[C@]1(C)O2	
InChI=1S/C8H14O/c1-6-4-7(2)5-8(6,3)9-7/h6H,4-5H2,1-3H3	InChI=1S/C8H14O/c1-6-4-7(2)5-8(6,3)9-7/h6H,4-5H2,1-3H3/t6-,7-,8-/m0/s1
