13
gdb 42328	3.07113	0.89728	0.72787	2.7521	83.56	-0.2661	-0.0874	0.1786	1467.303	0.086267	-419.352049	-419.343378	-419.342434	-419.386449	30.268	
O	 0.2812353968	 0.3210377651	-2.0635684576	-0.277443
C	 0.0448230542	 1.2360361166	-1.3028038678	 0.155875
C	 1.0896219971	 1.9246606207	-0.5736034454	 0.460214
C	 2.0057681256	 2.4588527647	 0.0153197016	-0.305933
C	 3.0222062849	 3.064661471	 0.679693102	 0.298964
C	 3.9279798627	 3.6020507776	 1.2705795856	-0.529118
C	-1.361626779	 1.7065237346	-1.0659307941	-0.007566
C	-1.8347636033	 2.0095111461	 0.3013086953	-0.186714
O	-1.5395888355	 3.0483434571	-0.6181776071	-0.21406
H	 4.7233794111	 4.0775627831	 1.7903522604	 0.207931
H	-2.0699786167	 1.3451376526	-1.808581967	 0.126784
H	-2.8888597564	 1.8574371763	 0.526485258	 0.135387
H	-1.1462343614	 1.9169570545	 1.1389239361	 0.135678
62.9798	77.0249	112.9303	188.3226	246.0132	289.6378	332.8893	427.1451	521.179	581.4762	584.9713	593.5557	640.4097	651.9802	756.3826	881.0675	884.3715	942.876	1059.8351	1094.6686	1155.3222	1164.4712	1252.3454	1280.6216	1385.0627	1515.4972	1750.714	2174.0071	2333.7292	3092.5218	3146.6144	3187.9513	3498.3341
O=C(C#CC#C)C1CO1	O=C(C#CC#C)[C@H]1CO1	
InChI=1S/C7H4O2/c1-2-3-4-6(8)7-5-9-7/h1,7H,5H2	InChI=1S/C7H4O2/c1-2-3-4-6(8)7-5-9-7/h1,7H,5H2/t7-/m1/s1
