19
gdb 38664	2.96699	1.78209	1.46949	1.5822	78.01	-0.2272	0.0183	0.2455	951.6375	0.162359	-385.889564	-385.882772	-385.881827	-385.920666	28.181	
C	 0.3583477647	 1.6539086647	 0.3742310463	-0.32872
C	 1.3619704613	 0.6407033792	-0.1113242078	 0.112552
O	 2.2243466429	 0.0466356979	 0.8202087863	-0.274456
C	 1.46129547	-0.695390719	 1.7849381255	 0.065963
C	 1.3733094237	-0.0386980475	 3.1402604904	-0.087378
C	 0.1140471803	 0.1184358665	 3.5433327347	-0.058662
C	-0.8915735536	-0.3736638242	 2.5319281673	-0.275892
C	-0.0262550063	-0.7588247335	 1.3000597911	-0.055348
C	-0.054529392	 0.2096569824	 0.1246492331	-0.082651
H	 0.445179078	 2.0106741964	 1.393867062	 0.124172
H	 0.0068162591	 2.3924880489	-0.3389830498	 0.108187
H	 1.8135632787	 0.7263788219	-1.0936105716	 0.094859
H	 1.9397563727	-1.6808875898	 1.8553998603	 0.083428
H	 2.2607670615	 0.233409845	 3.6999544393	 0.098756
H	-0.1875128095	 0.5448072616	 4.494790763	 0.095096
H	-1.4495640862	-1.2364654801	 2.917758429	 0.106685
H	-1.6385669839	 0.3914512172	 2.2874933235	 0.110767
H	-0.282077463	-1.7576968776	 0.9387157189	 0.075795
H	-0.7290650384	-0.00031324	-0.6973212214	 0.086848
100.6592	193.6571	288.7462	366.0892	454.4502	489.4403	593.7895	662.6457	727.4355	749.3554	782.0203	807.5796	818.5882	867.9162	894.4111	943.1483	955.81	977.9657	982.6144	989.7245	1035.811	1047.5527	1055.1875	1065.6198	1094.2788	1108.8481	1128.7563	1159.0468	1186.205	1206.039	1235.6028	1295.9207	1312.1127	1325.2061	1340.2222	1355.2342	1381.6508	1390.3441	1478.2342	1483.8967	1685.6571	3013.8075	3021.6807	3050.358	3076.726	3132.8929	3165.6196	3175.2995	3178.5662	3209.453	3225.6054
C1C2OC3C=CCC3C12	C1[C@H]2O[C@H]3C=CC[C@H]3[C@@H]12	
InChI=1S/C8H10O/c1-2-5-6-4-8(6)9-7(5)3-1/h1,3,5-8H,2,4H2	InChI=1S/C8H10O/c1-2-5-6-4-8(6)9-7(5)3-1/h1,3,5-8H,2,4H2/t5-,6+,7-,8+/m0/s1
