21
gdb 89536	4.29578	1.09318	1.00219	1.3282	83.21	-0.2528	0.0759	0.3287	1245.0249	0.183645	-387.023592	-387.015734	-387.01479	-387.055853	32.07	
O	-0.0730427368	 1.492900988	-0.0031509782	-0.433981
C	 0.0337152504	 0.0871865822	-0.0016799499	 0.138767
C	 0.32792423	-0.6381858301	 1.3422261297	-0.36999
C	-0.814236718	-1.6251848197	 0.9945741247	 0.439774
C	-1.3276641466	-0.6323054054	-0.077291149	-0.342562
C	-0.5618328366	-3.1352128407	 0.6945070271	-0.107484
C	-0.469248457	-3.3456769955	 2.2340031021	-0.225269
C	-1.6900512437	-2.4046389264	 2.0120346658	-0.111359
C	-2.0984694643	-3.3398559142	 0.8355158154	-0.225697
H	 0.8111281405	 1.8621284969	 0.0889326506	 0.280404
H	 0.71277914	-0.2602839558	-0.7935591761	 0.064288
H	 1.3338172031	-1.0381063667	 1.4960618794	 0.092653
H	 0.0646749495	 0.0120281442	 2.1832068864	 0.102657
H	-2.1122406675	 0.0235544292	 0.3137041467	 0.110803
H	-1.6394156473	-1.0215306709	-1.049194661	 0.099098
H	 0.0938391663	-3.5554686336	-0.0713795692	 0.065007
H	-0.6941083152	-4.3518618262	 2.5984956863	 0.086422
H	 0.3987528409	-2.9228841958	 2.7445043186	 0.091949
H	-2.3436140986	-1.9763796853	 2.7749457451	 0.064183
H	-2.7327761475	-2.911963186	 0.0563544551	 0.093938
H	-2.4287743714	-4.345673558	 1.1096211405	 0.086398
74.1036	201.4029	224.9136	276.2785	314.8969	382.6228	406.2713	470.3961	565.1701	576.9478	712.5663	761.8012	795.5239	839.6199	855.9996	902.2322	903.6978	932.3248	966.8292	992.3399	1014.4851	1015.2239	1036.8608	1048.6586	1083.1095	1102.6094	1115.6038	1137.4929	1151.9893	1182.0679	1189.9146	1195.5856	1209.2519	1220.6736	1246.8181	1253.2797	1262.687	1267.3382	1325.4876	1336.8355	1425.1294	1464.0626	1491.6407	1499.5509	1537.5323	2991.9817	3043.0267	3052.2964	3054.214	3056.0624	3084.5539	3092.9908	3101.2765	3109.913	3119.2854	3121.6043	3813.6645
OC1CC2(C1)C1CC2C1	O[C@H]1C[C@@]2(C1)[C@H]1C[C@@H]2C1	
InChI=1S/C8H12O/c9-7-3-8(4-7)5-1-6(8)2-5/h5-7,9H,1-4H2	InChI=1S/C8H12O/c9-7-3-8(4-7)5-1-6(8)2-5/h5-7,9H,1-4H2/t5-,6+,7-,8-
