22
gdb 89066	4.45568	0.67688	0.6307	1.4558	83.69	-0.2231	0.0841	0.3073	1811.0859	0.193095	-404.290343	-404.28063	-404.279686	-404.326057	35.411	
C	-0.2355393812	 1.3771478808	-0.0488533995	-0.313096
N	 0.0570588093	-0.0408942246	 0.0858761149	-0.078279
C	 1.4301331997	-0.4697972614	-0.154141202	-0.264718
C	 0.8490420034	-0.5354183366	 1.2174196221	 0.022431
C	 1.369822068	 0.3353222483	 2.3427098021	-0.213695
C	 0.3294258479	 0.5674999497	 3.4512113011	-0.218792
C	 0.8986385956	 1.341556471	 4.6144686023	 0.096592
C	 0.5401500572	 1.0536620021	 6.0081319121	-0.180441
O	 1.7948837492	 0.6276209289	 5.4735515099	-0.236803
H	 0.5845149145	 2.0527722167	 0.2428492853	 0.09801
H	-0.4735755262	 1.5834100757	-1.0975650074	 0.124522
H	-1.1176643656	 1.6283640279	 0.5497995874	 0.120174
H	 1.5584932088	-1.3659286284	-0.7563305635	 0.112006
H	 2.1789689109	 0.3033246925	-0.3300409823	 0.101511
H	 0.498334465	-1.5090600406	 1.5622285295	 0.087103
H	 2.2423308233	-0.160571714	 2.7857056953	 0.122109
H	 1.7279273526	 1.2966889511	 1.958785697	 0.096263
H	-0.5356405124	 1.1095450886	 3.0483999806	 0.105629
H	-0.0402930899	-0.398553328	 3.8151069874	 0.104753
H	 1.2358253105	 2.3544661259	 4.3820009932	 0.088685
H	 0.5938282531	 1.8406254574	 6.7593536257	 0.113514
H	-0.1707067736	 0.2565259971	 6.2233966187	 0.112523
48.2332	65.7056	105.1869	123.7972	200.2372	253.0167	301.1922	320.4993	383.6952	448.727	478.4696	520.7913	735.0866	754.8943	800.7447	820.4686	871.8552	914.7001	953.6265	1005.7294	1032.6805	1043.4329	1054.1544	1096.2993	1108.4156	1121.4488	1134.5017	1159.2928	1161.8832	1171.3029	1189.9578	1205.0469	1234.459	1277.6158	1296.7593	1319.5018	1341.7285	1369.4665	1427.8939	1448.6983	1449.0322	1469.9859	1485.2509	1492.8658	1507.8316	1516.9776	1530.0572	2968.8115	3024.8437	3038.6728	3058.9436	3062.8032	3076.3733	3079.8453	3080.3477	3088.3189	3095.76	3098.6434	3165.8566	3166.5715
CN1CC1CCC1CO1	CN1C[C@H]1CC[C@H]1CO1	
InChI=1S/C7H13NO/c1-8-4-6(8)2-3-7-5-9-7/h6-7H,2-5H2,1H3	InChI=1S/C7H13NO/c1-8-4-6(8)2-3-7-5-9-7/h6-7H,2-5H2,1H3/t6-,7+,8?/m1/s1
