19
gdb 22720	4.09202	0.9197	0.82536	1.2312	81.47	-0.2356	0.0064	0.2419	1426.5116	0.158435	-419.12846	-419.119414	-419.11847	-419.162483	33.907	
C	 0.0861464157	 1.4783754679	-0.2953512408	-0.381798
C	 0.0072822861	 0.0111681041	 0.1484314397	-0.277084
C	-1.4056123306	-0.4915585473	 0.2139406049	 0.355772
C	-2.4671206189	-0.1055752984	 1.2783843483	-0.397243
C	-2.9638886191	-1.5470337838	 1.174302904	 0.442485
N	-3.7824621198	-2.2802050599	 1.8047808017	-0.262052
O	-4.4959532669	-1.5301946308	 2.7601904409	-0.392806
C	-1.9624108231	-1.9025900787	 0.1291382986	-0.205963
N	-2.0606751049	-0.9562510412	-0.9983585705	-0.35477
H	 1.1250456786	 1.8179439995	-0.3396175738	 0.116199
H	-0.3553230016	 1.6057980288	-1.2885738578	 0.129259
H	-0.4495240569	 2.1347464032	 0.3989746702	 0.117729
H	 0.5640088986	-0.618882596	-0.5531665871	 0.11413
H	 0.4771507566	-0.1074391933	 1.1326594555	 0.101212
H	-2.0597902887	 0.0992165761	 2.2736702729	 0.131984
H	-3.1590526044	 0.6984039184	 1.0088926847	 0.117349
H	-5.0569842421	-2.2007203514	 3.1642968768	 0.30712
H	-1.482079885	-2.8586720288	-0.0368591235	 0.105585
H	-3.0052572638	-0.5936195284	-1.1162396247	 0.232893
69.4202	89.9584	153.454	212.6428	225.1078	301.2662	359.0265	366.8209	408.4115	459.4739	504.472	595.9899	650.4684	718.023	784.3398	813.7352	855.2454	941.7283	955.3391	977.4483	987.7772	1003.4144	1054.8289	1084.2746	1113.4946	1144.8461	1153.6229	1177.2388	1218.6005	1238.2339	1270.5987	1327.6703	1347.0739	1405.3449	1409.3712	1433.6046	1473.0227	1477.371	1498.1492	1508.2987	1784.1264	3031.4934	3035.9334	3049.2808	3075.5915	3097.6591	3105.8136	3113.6458	3200.2417	3464.0829	3817.7408
CCC12CC(=NO)C1N2	CC[C@]12CC(=NO)[C@H]1N2	
InChI=1S/C6H10N2O/c1-2-6-3-4(8-9)5(6)7-6/h5,7,9H,2-3H2,1H3	InChI=1S/C6H10N2O/c1-2-6-3-4(8-9)5(6)7-6/h5,7,9H,2-3H2,1H3/t5-,6+/m1/s1
