17
gdb 24139	5.0133	0.99257	0.93396	1.0883	75.18	-0.2009	0.0299	0.2308	1283.1265	0.136084	-421.824709	-421.816857	-421.815913	-421.858647	29.426	
C	-0.4236773035	 1.0446214076	 0.0445112389	-0.282455
C	 1.0874290808	 1.015314039	 0.1761124858	-0.285469
C	 0.3357752465	-0.2387721274	-0.1171462899	 0.121175
O	 0.2988051516	-1.1779049509	 0.9416182554	-0.278556
C	-0.790544056	-1.9558204854	 1.0117964409	 0.4418
C	-1.4859287406	-2.4159744719	 2.0842859486	-0.310534
C	-2.4899991617	-3.2894521779	 1.5410655017	-0.164526
C	-2.3284892501	-3.2795994089	 0.196005066	-0.021811
O	-1.2776904722	-2.4659206076	-0.147198215	-0.184459
H	-0.9977612849	 1.1609835024	 0.9565526301	 0.128972
H	-0.8688389909	 1.4935757266	-0.8362091339	 0.120561
H	 1.695204604	 1.4462035284	-0.6112580964	 0.119665
H	 1.4981341099	 1.1105963108	 1.1745376857	 0.130885
H	 0.4108106234	-0.6957531749	-1.0981202207	 0.113541
H	-1.3042906914	-2.1655409318	 3.1159140868	 0.109879
H	-3.2364178306	-3.841334448	 2.0907814747	 0.109954
H	-2.8394892745	-3.7476964699	-0.6276502186	 0.13138
31.6429	54.9452	139.4418	283.2143	345.8395	432.2403	465.2739	611.0275	656.8614	695.395	729.7724	759.8036	779.689	829.9424	838.9334	840.4574	896.4849	946.6579	993.3339	997.9467	1027.7176	1057.1511	1075.7324	1096.9083	1127.5227	1176.3831	1181.1967	1191.9185	1231.2311	1245.8681	1286.6278	1380.6734	1420.2176	1456.4536	1495.5769	1558.8803	1657.4507	3140.9601	3143.9746	3165.5851	3224.855	3238.4665	3254.1684	3275.748	3294.004
C1CC1OC1=CC=CO1	C1CC1Oc1ccco1	
InChI=1S/C7H8O2/c1-2-7(8-5-1)9-6-3-4-6/h1-2,5-6H,3-4H2	InChI=1S/C7H8O2/c1-2-7(8-5-1)9-6-3-4-6/h1-2,5-6H,3-4H2
