22
gdb 22133	3.28797	0.91101	0.84162	0.5742	85.85	-0.2397	0.015	0.2546	1473.5062	0.191521	-404.307066	-404.2966	-404.295656	-404.342859	38.742	
C	-0.3242308999	 1.4658892691	 0.1595934893	-0.478605
C	-0.0062569785	 0.0091055201	-0.0412625659	 0.366218
C	 0.2004810316	-0.8774715232	 1.1649401624	-0.342874
C	 1.431222352	-0.5207561532	 1.9981586434	 0.378937
C	 2.7496014289	-0.5971632033	 1.2509536109	-0.456504
C	 1.2883746032	 0.5182896001	 3.087689379	-0.296969
C	 1.4221575215	-0.9426740154	 3.4475704555	-0.312919
N	 0.110643515	-0.5702397104	-1.1762166752	-0.169903
O	-0.0725156791	 0.3077354027	-2.2589909879	-0.400321
H	 0.5761893654	 2.0199585784	 0.4483669663	 0.142737
H	-0.7232554625	 1.9098337146	-0.7515749347	 0.151059
H	-1.046388843	 1.588193662	 0.9729742155	 0.123018
H	-0.6900510779	-0.8195016584	 1.8051321194	 0.095106
H	 0.2844739102	-1.9105470153	 0.8114212505	 0.11296
H	 2.7706704576	 0.0911698513	 0.3993101146	 0.122955
H	 3.5885029541	-0.3465875041	 1.9074517504	 0.108802
H	 2.9194016134	-1.6063501622	 0.8580737637	 0.119075
H	 2.1309127008	 1.1733755341	 3.2835656306	 0.108782
H	 0.3217304231	 0.9886390913	 3.2338535222	 0.107149
H	 0.5449969689	-1.4553357729	 3.8290704589	 0.108124
H	 2.3560317905	-1.2789374824	 3.8856033709	 0.109229
H	-0.0009286754	-0.2894121229	-3.0105694698	 0.303943
50.5782	83.4632	88.8981	133.3943	221.2536	280.3113	293.7421	305.4246	342.5407	368.174	383.8611	410.369	451.2743	529.9239	653.7894	725.3143	785.1495	816.373	866.0775	903.8258	932.3101	951.6266	955.6425	989.9178	1028.3533	1048.6713	1051.3218	1079.9364	1082.208	1121.5447	1188.259	1201.181	1272.3115	1310.0583	1328.0248	1371.0748	1397.2058	1399.9577	1420.4027	1465.7553	1472.1597	1479.6884	1487.7108	1492.773	1498.4502	1510.0784	1727.6642	3016.1552	3027.5818	3042.4644	3077.5392	3089.2623	3094.2005	3102.7735	3125.368	3130.1396	3160.0389	3202.6333	3217.0089	3824.901
CC(CC1(C)CC1)=NO	CC(=NO)CC1(C)CC1	
InChI=1S/C7H13NO/c1-6(8-9)5-7(2)3-4-7/h9H,3-5H2,1-2H3	InChI=1S/C7H13NO/c1-6(8-9)5-7(2)3-4-7/h9H,3-5H2,1-2H3
