21
gdb 70728	2.49819	1.5882	1.22765	2.0276	82.92	-0.2472	0.0078	0.255	1113.2416	0.183612	-387.089464	-387.081122	-387.080178	-387.121818	33.286	
C	 0.0632478866	 1.5795084435	 0.086449357	-0.464589
C	 0.127903843	 0.0673834504	 0.0572434627	 0.383433
O	-0.8511310424	-0.5798895574	 0.8955642735	-0.304543
C	 0.5350055155	-0.6986741139	 1.2505303155	-0.004805
C	 1.1387673186	-2.084025229	 1.1181395258	-0.228177
C	 2.5500509821	-2.0986609485	 0.4987129865	-0.196489
C	 2.712664408	-1.1501720964	-0.7190401	-0.259499
C	 1.5108761019	-1.0988738502	-1.6394177004	-0.048793
C	 0.3466514467	-0.5518995895	-1.287458388	-0.141204
H	 0.999406576	 2.0179663897	-0.2753612465	 0.122399
H	-0.7447352204	 1.9395925006	-0.560065609	 0.124581
H	-0.127755134	 1.9358470638	 1.1023244657	 0.124852
H	 0.8109608666	-0.1294126043	 2.1404714183	 0.079199
H	 1.1593236796	-2.5779159228	 2.0962153893	 0.096399
H	 0.4592931292	-2.6627345674	 0.4880079111	 0.120289
H	 3.3015257819	-1.8216326215	 1.2472951557	 0.098528
H	 2.7804249962	-3.1286018074	 0.2038400794	 0.102905
H	 2.9122108049	-0.1395238024	-0.3444329236	 0.113248
H	 3.6047366592	-1.4421449934	-1.2813461046	 0.09841
H	 1.6145006352	-1.5351979107	-2.6301664878	 0.091225
H	-0.4899140744	-0.5200991532	-1.9823328205	 0.092629
141.3781	160.7934	198.8912	245.6991	271.8439	333.9456	358.3953	394.381	472.4834	531.6684	587.1927	630.9266	723.3821	758.9887	798.8789	835.8801	850.3281	907.1374	931.7856	978.3051	989.5656	997.9021	1046.8814	1075.5953	1088.5067	1102.9846	1121.4037	1194.0601	1216.7999	1238.896	1244.9385	1294.3358	1317.28	1342.4874	1373.0824	1377.4494	1405.8611	1418.6831	1458.3544	1484.708	1486.0112	1496.3604	1499.0861	1504.9686	1707.8948	3029.0151	3031.643	3034.1805	3047.8922	3064.484	3081.3967	3083.5067	3095.9489	3108.3606	3118.3974	3140.9597	3164.1436
CC12OC1CCCC=C2	C[C@]12O[C@H]1CCCC=C2	
InChI=1S/C8H12O/c1-8-6-4-2-3-5-7(8)9-8/h4,6-7H,2-3,5H2,1H3	InChI=1S/C8H12O/c1-8-6-4-2-3-5-7(8)9-8/h4,6-7H,2-3,5H2,1H3/t7-,8+/m0/s1
