22
gdb 108644	2.14994	1.48368	1.00222	1.3321	89.62	-0.2148	0.0253	0.2401	1287.9115	0.194601	-367.210586	-367.201338	-367.200394	-367.244697	35.173	
C	 0.0210355273	 1.622555885	 0.3196003192	-0.371297
C	-0.0210505505	 0.1220151995	-0.0234235034	-0.304223
C	-1.4128951284	-0.4379616078	-0.0748778483	 0.278841
C	-2.0867191815	-0.9251908305	-1.1309733995	 0.19004
C	-1.6212792848	-1.0749699	-2.5455333874	-0.494517
C	-3.4808035755	-1.4003055859	-0.7438561733	-0.293777
C	-3.5281243842	-1.1936841838	 0.7622867984	-0.040754
N	-2.5319890343	-2.0002181903	 1.5034314636	-0.339199
C	-2.2433536485	-0.5723962884	 1.1659938301	-0.144455
H	 1.0536231308	 1.9820893668	 0.3705782189	 0.111394
H	-0.5080565592	 2.2108479986	-0.4366985881	 0.118156
H	-0.4486496803	 1.8278882021	 1.2872102604	 0.115477
H	 0.4883368325	-0.0407071946	-0.9785800115	 0.100033
H	 0.5577797999	-0.4301431066	 0.7299817396	 0.108367
H	-1.6059061801	-2.1310492065	-2.8448576342	 0.12753
H	-2.3044035184	-0.566983257	-3.2391842412	 0.120356
H	-0.6197917423	-0.6685727765	-2.7050588873	 0.122228
H	-4.2584442717	-0.8154465808	-1.2554283579	 0.097319
H	-3.6425565237	-2.4506061393	-1.0177816343	 0.112467
H	-4.4658903027	-0.9504845142	 1.25009089	 0.082597
H	-2.8310819366	-2.0448457724	 2.4771549075	 0.221769
H	-2.1622448879	 0.1409119325	 1.9800091385	 0.08165
58.875	131.4758	154.9333	171.6193	206.485	271.7764	298.0337	376.9346	403.854	432.2379	571.9246	626.4178	664.2153	762.7887	787.0619	812.0055	853.4247	869.9121	923.2405	953.8396	963.3675	976.0792	1010.747	1050.2382	1078.8168	1090.4364	1125.8316	1132.3235	1175.6617	1186.9485	1197.6902	1235.3474	1266.1608	1294.8462	1336.4802	1357.2872	1376.2484	1407.6142	1409.1276	1420.5449	1467.295	1477.4282	1479.5332	1491.8878	1498.3541	1506.755	1719.4757	3006.6712	3012.4446	3015.1694	3034.2945	3046.9147	3056.005	3068.3391	3103.4567	3107.912	3115.8122	3156.1604	3168.7329	3464.4695
CCC1=C(C)CC2NC12	CCC1=C(C)C[C@H]2N[C@@H]12	
InChI=1S/C8H13N/c1-3-6-5(2)4-7-8(6)9-7/h7-9H,3-4H2,1-2H3	InChI=1S/C8H13N/c1-3-6-5(2)4-7-8(6)9-7/h7-9H,3-4H2,1-2H3/t7-,8+/m1/s1
