14
gdb 49354	1.8507	1.48541	1.11496	3.9972	73.44	-0.2661	-0.0476	0.2185	1130.504	0.098534	-399.518327	-399.509611	-399.508667	-399.552283	30.93	
O	 0.0370930792	-0.0429661695	 0.3720155229	-0.252504
C	 0.0143659132	 1.0948569083	-0.0210757407	 0.164863
C	 1.2372776232	 1.9505256751	-0.0635779357	-0.147248
C	 1.4470258708	 2.9357226906	-1.2134015863	-0.226519
C	 0.4914292131	 3.0642211242	-2.2739749679	 0.334674
C	-0.2911797273	 3.1851143182	-3.1773957273	-0.423642
C	 1.1404728279	 3.4549875122	 0.184659187	-0.204718
C	-0.124945823	 4.0758626973	 0.467114862	 0.306586
N	-1.1305981985	 4.5935205404	 0.7066114932	-0.323903
H	-0.9169438632	 1.5759658994	-0.3799859734	 0.117721
H	 2.1245559411	 1.4628429338	 0.323608274	 0.134359
H	 2.4836752999	 3.0551861095	-1.5141045591	 0.146925
H	-0.9906844048	 3.2933508429	-3.9697828974	 0.216542
H	 1.9731169884	 3.8919271876	 0.7253835987	 0.156864
74.3542	93.0675	127.6231	160.056	240.8908	304.938	318.9349	434.8831	461.986	531.5008	621.2164	639.794	657.0159	680.1271	780.5519	792.7351	887.7074	945.3652	966.3404	1044.3399	1094.7846	1124.4922	1142.0408	1216.8589	1329.5011	1361.1324	1382.2639	1440.3468	1823.5836	2246.4649	2360.704	2944.4475	3154.6795	3174.2703	3192.0475	3500.2887
O=CC1C(C#C)C1C#N	O=C[C@H]1[C@@H](C#C)[C@H]1C#N	
InChI=1S/C7H5NO/c1-2-5-6(3-8)7(5)4-9/h1,4-7H	InChI=1S/C7H5NO/c1-2-5-6(3-8)7(5)4-9/h1,4-7H/t5-,6+,7-/m0/s1
