17
gdb 52808	2.00965	1.12037	0.8079	3.1877	79.74	-0.2527	-0.0386	0.2141	1454.9781	0.131266	-421.794126	-421.783928	-421.782984	-421.83103	34.825	
C	 0.0329154001	 1.4852314657	-0.1362078181	-0.505092
C	 0.0048956832	 0.0321550522	-0.0735529101	 0.154425
C	-0.0305484364	-1.1700785716	-0.0098319274	 0.000367
C	-0.011169685	-2.6146322733	 0.0242369294	 0.197194
C	 1.0959586007	-3.2723033749	-0.7752974484	-0.470923
O	-0.2929498873	-3.2206829473	 1.2921112257	-0.266534
C	-1.2724327452	-3.3812343045	 0.2641994255	-0.103946
C	-2.5684333155	-2.6687807587	 0.4825787093	 0.143288
O	-3.6062839682	-3.0265455464	-0.013542643	-0.24887
H	 0.8554139456	 1.8375217814	-0.7676960362	 0.155689
H	-0.9006992563	 1.8827605515	-0.5484832449	 0.157573
H	 0.16898003	 1.9175898081	 0.8609069993	 0.159008
H	 2.0693013772	-2.9310222823	-0.4111064424	 0.141876
H	 1.0436406111	-4.3587342805	-0.6741396682	 0.134574
H	 1.0141804212	-3.0041744336	-1.8323262116	 0.138854
H	-1.3584365175	-4.3763114448	-0.1708759306	 0.113104
H	-2.4908788477	-1.7817259509	 1.1443608117	 0.099412
21.8337	62.9921	107.7971	120.012	185.3304	205.0095	247.875	306.8623	341.4334	374.7085	424.9907	479.4802	537.9213	579.7015	613.619	809.7555	853.8238	982.2186	1029.5426	1050.1472	1052.046	1054.6116	1073.1745	1101.3579	1129.8751	1244.8375	1311.1303	1365.8573	1409.6819	1413.3337	1429.6569	1474.6425	1475.838	1478.6282	1491.9388	1823.6879	2368.3454	2929.9346	3031.7074	3047.6374	3095.1363	3096.1392	3120.784	3128.7561	3135.3436
CC#CC1(C)OC1C=O	CC#C[C@@]1(C)O[C@H]1C=O	
InChI=1S/C7H8O2/c1-3-4-7(2)6(5-8)9-7/h5-6H,1-2H3	InChI=1S/C7H8O2/c1-3-4-7(2)6(5-8)9-7/h5-6H,1-2H3/t6-,7+/m0/s1
