15
gdb 130633	3.18375	1.61786	1.08709	4.7089	72.9	-0.2376	-0.0245	0.2131	1033.265	0.116515	-416.860456	-416.853663	-416.852719	-416.891969	25.992	
O	-0.0628600617	-0.0504258608	 0.0056686138	-0.33324
C	-0.00018424	 1.1561293479	 0.0100650596	 0.280221
C	-1.2358665269	 2.1045448655	 0.0315808157	-0.314459
C	-0.712052463	 3.5724933823	 0.0306888261	-0.37328
C	 0.7686507339	 3.3545426664	 0.0089396842	 0.378034
C	 1.171268402	 2.0348057581	-0.0025152178	 0.101316
C	 2.5880507835	 2.0850628575	-0.022147111	-0.152073
N	 3.0168169016	 3.3393430174	-0.0226308256	-0.208974
N	 1.8813117361	 4.1036737561	-0.0033645542	-0.328362
H	-1.8621112089	 1.8871142818	-0.8381247965	 0.138205
H	-1.8374948221	 1.8793925367	 0.9165640029	 0.138206
H	-1.0605736685	 4.1362440965	-0.8414844219	 0.13088
H	-1.0358728916	 4.1284986849	 0.9172365369	 0.130882
H	 3.3030624979	 1.2764784604	-0.0357268165	 0.135253
H	 1.9795282779	 5.1052842092	-0.0003694559	 0.277392
94.9423	167.5821	237.3287	302.7874	511.976	537.9939	550.8454	605.2061	631.6307	674.4715	689.7488	734.3898	842.007	907.8375	968.0144	971.1461	1008.7854	1017.2998	1078.625	1130.9169	1156.2597	1226.0315	1230.4543	1257.048	1284.6753	1343.053	1421.4199	1456.4439	1457.3124	1488.3089	1529.8274	1590.5336	1818.5227	3041.7352	3069.9728	3071.9124	3113.0638	3257.2713	3666.9706
O=C1CCC2=C1C=NN2	O=C1CCc2c1cn[nH]2	
InChI=1S/C6H6N2O/c9-6-2-1-5-4(6)3-7-8-5/h3H,1-2H2,(H,7,8)	InChI=1S/C6H6N2O/c9-6-2-1-5-4(6)3-7-8-5/h3H,1-2H2,(H,7,8)
