23
gdb 73829	2.5996	1.35534	1.0304	0.1035	93.19	-0.2067	0.034	0.2408	1288.9554	0.204884	-351.178	-351.168396	-351.167452	-351.211634	37.19	
C	 0.047420863	 1.5133644952	 0.1119365539	-0.493674
C	-0.0113727273	 0.0217952666	-0.0034716634	 0.204629
C	-0.0312352477	-0.7329040924	-1.1148528481	 0.234932
C	-0.0251752772	-0.2919241639	-2.5462078465	-0.503279
C	-0.0137181021	-2.1904953197	-0.7733839684	-0.160802
C	 1.2300252149	-2.6700317701	-0.0433737646	-0.324454
C	 0.0017003227	-2.2806492876	 0.7415092889	 0.357797
C	-0.7589082196	-3.3378995597	 1.5058383798	-0.481264
C	-0.0458252457	-0.8369211298	 1.2494161358	-0.373311
H	 0.9551226561	 1.8375617772	 0.6380268968	 0.121021
H	 0.0333890295	 2.0104415551	-0.861115813	 0.120003
H	-0.8000701558	 1.896677111	 0.6959974877	 0.120073
H	-0.0436584618	 0.7953898644	-2.6518393483	 0.120006
H	 0.8633235502	-0.6676045428	-3.0699584888	 0.125713
H	-0.8937798451	-0.6945909663	-3.0833954893	 0.122041
H	-0.5627569073	-2.8972462399	-1.3892959846	 0.073772
H	 1.4631274378	-3.7298393049	-0.0892632742	 0.100957
H	 2.0967048359	-2.0155457754	-0.040228206	 0.102665
H	-0.7208889988	-4.3052058364	 0.9943522358	 0.111351
H	-0.3426944793	-3.4807576467	 2.5106375297	 0.114418
H	-1.814015346	-3.0631319949	 1.621910359	 0.113148
H	 0.7859426303	-0.6059575238	 1.9296542219	 0.099845
H	-0.965586487	-0.6518392053	 1.8255211962	 0.094414
137.9131	151.0676	154.2227	176.9184	208.929	255.6172	285.0145	309.8546	371.9106	407.7336	413.0646	534.9077	580.5877	598.3157	698.6239	773.0065	841.9194	866.8765	911.813	942.3665	957.8477	987.5924	1002.2062	1029.9795	1040.025	1061.6828	1070.9043	1096.1662	1110.6371	1142.8385	1182.1227	1196.0046	1228.0761	1256.2088	1311.4532	1350.0048	1399.3522	1409.8895	1419.1841	1421.8005	1472.4472	1477.7953	1481.323	1484.6474	1488.8064	1492.359	1494.2672	1502.1214	1728.3035	2987.3063	3010.7386	3016.1053	3018.3076	3021.2605	3050.887	3057.9387	3075.2788	3094.2689	3110.2587	3111.7802	3117.3782	3145.6181	3199.698
CC1=C(C)C2CC2(C)C1	CC1=C(C)[C@H]2C[C@@]2(C)C1	
InChI=1S/C9H14/c1-6-4-9(3)5-8(9)7(6)2/h8H,4-5H2,1-3H3	InChI=1S/C9H14/c1-6-4-9(3)5-8(9)7(6)2/h8H,4-5H2,1-3H3/t8-,9-/m1/s1
