17
gdb 69444	4.00901	1.18559	1.03378	4.7671	72.78	-0.2673	0.0091	0.2764	1157.3582	0.136822	-417.999159	-417.991087	-417.990143	-418.031795	30.274	
C	-0.0105844003	 1.4741919631	-0.1090995426	-0.475158
C	-0.0024422323	-0.0232103219	 0.0463989772	 0.309659
C	-1.2492516773	-0.8203834684	-0.3093699828	-0.148115
O	-1.0584367429	-2.1210672147	 0.2517047631	-0.26278
C	-0.2711275437	-1.9730852539	 1.4294556447	-0.04582
C	 0.4436949488	-3.2332566756	 1.6769769216	 0.282209
N	 1.0233523994	-4.2066123743	 1.9002929116	-0.312488
C	 0.6379818742	-0.7760181653	 1.1600195901	-0.10006
N	 1.2696863556	-0.7283783077	-0.1583791254	-0.358611
H	 0.9404706782	 1.8943877484	 0.2246377666	 0.141748
H	-0.1500569346	 1.7546998937	-1.1589926879	 0.130368
H	-0.8204285468	 1.9277901569	 0.4721195014	 0.122117
H	-2.1418165596	-0.3340234627	 0.113695234	 0.106781
H	-1.4026075312	-0.9542727799	-1.3850992044	 0.125414
H	-0.9010138919	-1.7610918682	 2.3089744188	 0.124573
H	 1.1700828539	-0.3233595685	 1.9897588501	 0.114522
H	 1.1325181104	-1.608898831	-0.6534442761	 0.245642
93.6222	143.9514	185.8187	219.0389	285.3406	317.6976	388.6657	424.8148	508.7851	552.8402	607.4306	713.8665	775.6874	845.8761	877.0882	944.3354	972.6019	1000.5602	1010.3287	1030.2059	1082.6188	1085.6201	1106.5868	1147.7666	1186.8273	1238.8476	1281.3793	1295.2674	1326.7507	1353.9766	1361.7463	1415.0925	1454.4239	1488.2209	1495.6361	1512.8469	2368.2346	2975.5886	2990.4853	3036.4921	3077.7707	3097.2372	3131.1156	3174.9981	3473.8945
CC12COC(C#N)C1N2	C[C@]12CO[C@@H](C#N)[C@H]1N2	
InChI=1S/C6H8N2O/c1-6-3-9-4(2-7)5(6)8-6/h4-5,8H,3H2,1H3	InChI=1S/C6H8N2O/c1-6-3-9-4(2-7)5(6)8-6/h4-5,8H,3H2,1H3/t4-,5+,6-/m0/s1
