14
gdb 48349	4.35626	0.74839	0.6717	3.5452	84.27	-0.2776	-0.0544	0.2233	1569.7326	0.099486	-399.536112	-399.527455	-399.526511	-399.570231	30.398	
O	-0.3663474366	 0.524434521	-0.8353141792	-0.254093
C	 0.134030995	 0.9950669266	 0.1542802032	 0.08501
C	 1.3548646373	 1.8712552776	 0.1134004791	 0.019715
C	 2.3577832493	 1.5551139662	-1.0188265743	-0.275229
C	 1.4972397415	 2.7480326821	-1.1509798736	-0.275238
C	 1.8432815593	 2.361555715	 1.3589965874	-0.059455
C	 2.2275241065	 2.7580309148	 2.4359480123	 0.181928
C	 2.6716227949	 3.2120929192	 3.6428946679	 0.18673
N	 3.0503144018	 3.5991813416	 4.6712059005	-0.334354
H	-0.2756574148	 0.811345881	 1.1673609969	 0.104427
H	 3.4044928565	 1.6829189728	-0.7723779488	 0.149653
H	 2.1014212152	 0.6760957231	-1.598607864	 0.160628
H	 0.6479662752	 2.6909080237	-1.8218102842	 0.160627
H	 1.927781389	 3.7300013554	-0.9991804034	 0.14965
71.3301	87.2216	126.5973	212.2618	241.6021	247.9382	307.7425	430.9549	498.7533	515.8357	581.6177	583.1105	704.2185	771.9763	798.5116	840.8653	971.8526	984.8109	1050.9107	1071.9258	1079.8277	1111.737	1210.5235	1267.6375	1336.6349	1424.4249	1449.4961	1481.4444	1812.2905	2261.5882	2389.3139	2938.6819	3151.0521	3151.331	3244.652	3258.6945
O=CC1(CC1)C#CC#N	O=CC1(CC1)C#CC#N	
InChI=1S/C7H5NO/c8-5-1-2-7(6-9)3-4-7/h6H,3-4H2	InChI=1S/C7H5NO/c8-5-1-2-7(6-9)3-4-7/h6H,3-4H2
