18
gdb 81061	2.51237	1.60729	1.17311	6.0112	72.3	-0.2458	0.0164	0.2621	1067.4714	0.149607	-439.066232	-439.058363	-439.057419	-439.098721	30.786	
N	 0.1084589061	 1.0056345034	 0.0179905979	-0.559538
H	 0.0034202726	 0.0259553795	-0.2217329796	 0.244931
H	 1.6845574961	 1.2157409046	 1.2608543685	 0.310817
H	-0.1269183067	 1.5442127412	-0.8072500555	 0.246912
C	-0.7158978993	 1.3963646877	 1.1546303242	 0.016865
C	-1.8794581341	 0.539366232	 1.7550900521	-0.095459
C	-0.800179894	-0.4780042558	 2.2335234947	-0.26968
C	-0.2136189805	 0.9416183943	 2.5562545602	 0.197911
C	-1.6216555533	 1.303553893	 3.0931448945	-0.258711
C	 1.152966781	 1.2414631787	 3.1049801579	 0.300292
O	 2.1003519337	 1.312333196	 2.1442704903	-0.385765
O	 1.4121398725	 1.3941807106	 4.2677016022	-0.336329
H	-0.9193442368	 2.4686378956	 1.080144407	 0.085385
H	-2.8475359503	 0.3133357425	 1.3059498372	 0.078831
H	-1.0573183519	-1.0889756026	 3.1013584515	 0.114793
H	-0.2825169537	-1.0816646934	 1.484676084	 0.093616
H	-1.8766661892	 2.3661915918	 3.1170041302	 0.101637
H	-1.9322508622	 0.7924161408	 4.0050625827	 0.113492
72.0345	176.4882	194.2315	260.3383	332.1958	333.7402	416.6639	495.5393	538.7622	634.8218	711.3642	731.8042	767.7659	807.4625	841.8531	859.5403	882.9798	924.966	951.2776	974.3763	1013.3316	1052.1869	1062.5424	1128.9448	1140.3041	1147.3429	1156.0173	1180.3033	1206.03	1222.2712	1239.5717	1250.4236	1335.6579	1430.445	1446.3342	1505.521	1547.3969	1654.4194	1864.2648	3064.3235	3066.665	3070.5942	3105.8471	3126.1682	3140.8989	3480.3565	3522.3146	3601.1086
[NH3+]C1C2CC1(C2)C([O-])=O	N[C@H]1[C@H]2C[C@@]1(C2)C(=O)O	
InChI=1S/C6H9NO2/c7-4-3-1-6(4,2-3)5(8)9/h3-4H,1-2,7H2,(H,8,9)	InChI=1S/C6H9NO2/c7-4-3-1-6(4,2-3)5(8)9/h3-4H,1-2,7H2,(H,8,9)/t3-,4-,6-/m0/s1
