15
gdb 125762	2.02452	1.88345	0.98231	3.0174	77.78	-0.2095	0.0063	0.2158	1141.7916	0.111273	-416.789253	-416.780454	-416.77951	-416.822477	32.656	
C	-0.0120097195	 1.4924458944	-0.0160211501	-0.505558
C	-0.0262676946	 0.0003792563	 0.0137755203	 0.330007
N	-0.0543178713	-0.683048925	-1.1007163202	-0.223965
O	-0.0604703312	-2.0514486446	-0.7020355953	-0.218435
C	-0.0353076816	-2.1113249191	 0.6268918671	 0.41118
N	-0.0904642851	-3.3417796898	 1.2045779583	-0.60267
C	-0.0090164924	-0.84417182	 1.1723207811	-0.107238
C	 0.0333142625	-0.5038209404	 2.5362455267	 0.175855
C	 0.0764772581	-0.2269143566	 3.7095799948	-0.430182
H	 0.8793731677	 1.8793737247	 0.4878718281	 0.143778
H	-0.0214573781	 1.8482895707	-1.0475585515	 0.149253
H	-0.8832720134	 1.8963224167	 0.5093465929	 0.14481
H	 0.2252798196	-4.1140936096	 0.6378245712	 0.272975
H	 0.1956462642	-3.3759857027	 2.1712063714	 0.275793
H	 0.1040344052	 0.025860675	 4.7401827652	 0.184397
114.264	118.211	151.1233	201.594	259.3529	337.3732	364.8009	390.3096	463.4342	492.5263	521.2013	548.952	571.2737	642.8636	660.1779	681.3731	755.7158	793.4904	885.9806	1026.018	1053.9206	1067.0831	1095.1035	1273.0736	1367.7258	1414.9075	1472.6207	1477.8068	1486.0701	1567.7434	1620.7025	1671.9401	2223.2808	3045.9242	3103.5798	3144.7988	3502.701	3580.9134	3693.1236
CC1=NOC(N)=C1C#C	Cc1noc(N)c1C#C	
InChI=1S/C6H6N2O/c1-3-5-4(2)8-9-6(5)7/h1H,7H2,2H3	InChI=1S/C6H6N2O/c1-3-5-4(2)8-9-6(5)7/h1H,7H2,2H3
