17
gdb 51746	2.2185	1.42702	0.94501	4.231	76.92	-0.2409	0.0158	0.2567	1230.5629	0.134689	-417.931995	-417.922941	-417.921997	-417.966674	32.443	
N	-0.1922166849	 1.2682530691	 0.0375837328	-0.441097
C	-0.2539223684	 0.02446194	-0.1583318754	 0.13603
O	-0.9683802022	-0.7528190278	 0.686315552	-0.182513
C	-0.9768412837	-2.1382712123	 0.4242239693	 0.115798
C	-1.7406079451	-2.8903908908	 1.5302988732	-0.198407
N	-2.9252017474	-2.9733032075	 0.6455804919	-0.294182
C	-2.1060567021	-2.6431962966	-0.5484684886	-0.22836
C	-2.6842775186	-1.71382628	-1.5008557661	 0.357093
C	-3.1371216564	-0.9454203234	-2.3066378325	-0.421337
H	 0.3902132205	 1.7022186705	-0.6754479384	 0.229107
H	 0.2352780358	-0.5376808514	-0.9646504639	 0.087236
H	 0.0298475934	-2.4915625559	 0.1833970282	 0.092291
H	-1.2695270898	-3.8505571791	 1.7792630274	 0.098419
H	-1.9045551374	-2.3169104911	 2.4465744286	 0.131787
H	-3.3925584008	-3.8718860491	 0.607404796	 0.224434
H	-1.7353205408	-3.5302323224	-1.0855286498	 0.091484
H	-3.549586282	-0.2563928923	-3.0018021246	 0.202217
62.9168	79.5318	101.8677	146.7377	210.3949	231.4816	339.2316	403.9212	522.5509	546.9333	603.5691	627.49	666.5882	689.4823	791.8721	818.6724	883.5012	941.9481	988.6545	1009.3419	1031.1552	1038.8048	1079.2678	1120.025	1141.7351	1161.6145	1231.2273	1252.6919	1289.1088	1323.0439	1357.072	1386.4046	1389.9664	1427.7826	1506.6179	1748.33	2236.6654	2972.5454	3012.4606	3029.5164	3065.9037	3091.9615	3502.5439	3518.935	3539.4749
N=COC1CNC1C#C	[NH][CH]O[C@H]1CN[C@H]1C#C	
InChI=1S/C6H8N2O/c1-2-5-6(3-8-5)9-4-7/h1,4-8H,3H2	InChI=1S/C6H8N2O/c1-2-5-6(3-8-5)9-4-7/h1,4-8H,3H2/t5-,6-/m0/s1
