15
gdb 20947	7.42839	1.09478	0.97197	4.8993	64.17	-0.2347	-0.0313	0.2034	1160.8	0.119346	-395.937485	-395.929905	-395.928961	-395.970331	26.749	
C	-0.0396230796	 1.5357224351	 0.0505698097	-0.39795
C	-0.0335542086	 0.0287051411	-0.1806488677	-0.126217
N	-1.339375791	-0.5392730538	 0.1409748922	-0.384417
C	-1.5477226309	-1.8920130001	 0.0603029967	 0.403032
N	-2.7323832442	-2.4239931587	-0.1374242792	-0.199995
O	-2.5338305365	-3.7888430879	-0.0814914395	-0.151717
N	-1.2295231896	-4.0928789616	 0.1324173306	-0.061176
C	-0.6023613687	-2.9545189985	 0.2226542387	-0.094228
H	 0.9437490843	 1.9584851951	-0.1708065697	 0.129915
H	-0.7681455689	 2.0312144848	-0.6010471371	 0.124787
H	-0.2950722884	 1.7690322243	 1.0879601536	 0.136918
H	 0.2646887881	-0.1923492818	-1.217831529	 0.108224
H	 0.7126850752	-0.4378678047	 0.4724387135	 0.120295
H	-2.1281609634	 0.0005255578	-0.188578224	 0.251382
H	 0.4612222623	-2.9188095911	 0.3945144309	 0.141149
54.2525	79.2941	146.0733	260.6248	331.3137	342.742	431.8252	587.1504	621.6084	728.116	759.3513	817.5827	862.9255	912.6451	930.6886	936.8144	1030.231	1053.8886	1076.4908	1151.2122	1186.3915	1237.6232	1298.6722	1361.4053	1411.8216	1432.2831	1487.8461	1497.8514	1503.2332	1508.81	1526.3928	1647.9934	2977.062	3039.1883	3053.565	3109.039	3128.1755	3275.9258	3588.869
CCNC1=NON=C1	CCNc1nonc1	
InChI=1S/C4H7N3O/c1-2-5-4-3-6-8-7-4/h3H,2H2,1H3,(H,5,7)	InChI=1S/C4H7N3O/c1-2-5-4-3-6-8-7-4/h3H,2H2,1H3,(H,5,7)
