21
gdb 78215	2.28064	1.52722	1.44029	2.6251	77.58	-0.2357	0.0575	0.2932	1073.2281	0.181501	-424.196349	-424.187261	-424.186317	-424.229049	36.389	
C	-0.1537316178	 1.6008526297	-0.0619184643	-0.45967
C	 0.0122389579	 0.0805968006	-0.0521091967	 0.278666
C	-1.3219070866	-0.6036008885	 0.2612077024	-0.43908
C	 0.6918315471	-0.5717316854	-1.2701045144	-0.13303
C	 2.1508259822	-0.2405990549	-1.3964230612	 0.114286
O	 2.7391558048	 0.9982271775	-1.1272558433	-0.438457
C	 1.7606177008	-1.2365267864	-0.3503130743	-0.135871
C	 1.1554090173	-0.5318423267	 0.8550010182	 0.037637
O	 2.0833247061	 0.3497247337	 1.4887213439	-0.434834
H	 0.77367972	 2.1099889517	-0.3222475244	 0.139461
H	-0.91132888	 1.8904551927	-0.798840127	 0.115733
H	-0.5013120016	 1.9644691735	 0.9141049376	 0.092578
H	-2.0734468801	-0.357233824	-0.4969542115	 0.115497
H	-1.2183186234	-1.6936601248	 0.2842584771	 0.114479
H	-1.7104789643	-0.2783862306	 1.2336294913	 0.106394
H	 0.142526347	-1.029933233	-2.0863581209	 0.080667
H	 2.6040316715	-0.6976220964	-2.2743562668	 0.099747
H	 2.8150708067	 1.0650977904	-0.1645655825	 0.296703
H	 2.1396751049	-2.2514628104	-0.3370850185	 0.085837
H	 0.7410692734	-1.225184931	 1.5969188629	 0.07346
H	 1.6063541238	 0.8841586123	 2.1325876922	 0.289798
162.4798	201.9127	205.4846	235.3047	250.6307	275.3836	318.4566	346.1363	354.0211	406.9433	481.9966	539.7341	576.6201	627.0309	689.8645	741.4284	802.04	822.5768	890.5264	952.2021	960.7176	980.1958	998.2612	1003.4585	1017.9543	1041.6892	1083.2164	1094.2015	1184.2835	1189.2903	1218.3915	1226.7377	1253.3706	1278.9	1330.323	1356.323	1387.9897	1397.6677	1417.5267	1429.1585	1469.3258	1482.4511	1493.6264	1500.277	1515.4333	3017.274	3021.0201	3027.257	3077.9098	3088.8583	3095.3677	3126.4735	3152.4099	3160.4645	3179.8622	3718.4667	3812.8509
CC1(C)C2C(O)C2C1O	CC1(C)[C@H]2[C@@H](O)[C@H]2[C@H]1O	
InChI=1S/C7H12O2/c1-7(2)4-3(5(4)8)6(7)9/h3-6,8-9H,1-2H3	InChI=1S/C7H12O2/c1-7(2)4-3(5(4)8)6(7)9/h3-6,8-9H,1-2H3/t3-,4+,5-,6+/m0/s1
