23
gdb 68477	2.58162	1.65753	1.26129	1.178	84.9	-0.2356	0.08	0.3155	1108.9139	0.207907	-388.293127	-388.285028	-388.284084	-388.324906	33.9	
C	-0.1540186491	 1.5910101584	 0.1020705071	-0.438654
C	 0.0520074935	 0.0888605796	 0.0308940883	 0.418541
C	 1.2246067706	-0.4420436873	-0.8562621218	-0.261313
C	 1.5209452015	-1.5129256594	 0.2346291395	-0.004463
C	 0.7373111322	-0.6184431436	 1.2388968369	-0.278696
C	 0.8667664541	-2.8773269461	-0.0220360265	-0.207388
C	-0.5203029629	-2.822314513	-0.6900756026	-0.21222
C	-1.499151255	-1.8149770967	-0.0779605759	-0.067545
O	-1.2151624094	-0.4504538724	-0.3397110379	-0.308135
H	 0.7864028261	 2.1036179327	 0.323956366	 0.104966
H	-0.5377129656	 1.9651692368	-0.8524170308	 0.121673
H	-0.8822552462	 1.8410638761	 0.8800649808	 0.11726
H	 0.9622424966	-0.7774985049	-1.8621734393	 0.096354
H	 2.0285899068	 0.2958508289	-0.9290023508	 0.090546
H	 2.5769079586	-1.6602045266	 0.4781837045	 0.061026
H	 1.4000028529	 0.0801448324	 1.7567831696	 0.094589
H	 0.1027740204	-1.1032060428	 1.9851177477	 0.096023
H	 1.5292660244	-3.4847906137	-0.650821811	 0.094524
H	 0.7868948247	-3.4067922077	 0.9372710418	 0.093687
H	-0.4197524578	-2.5959608851	-1.7578650992	 0.106777
H	-0.9809651227	-3.8161460467	-0.6302470407	 0.09311
H	-2.4935379207	-1.9683626962	-0.50980424	 0.102846
H	-1.5912700832	-1.9961334728	 1.0043918943	 0.086491
188.4067	213.0879	235.6519	260.8493	338.5562	344.1884	387.5481	401.4587	446.3717	489.5816	553.5883	641.9513	765.7251	789.6166	808.1501	855.8288	873.8663	883.1111	907.5209	928.1671	964.4819	976.4299	1012.1834	1050.4997	1082.4189	1098.212	1129.0527	1157.2507	1158.1136	1200.0609	1206.6084	1230.2822	1253.597	1263.5727	1287.9241	1309.7106	1324.3284	1356.9645	1379.401	1393.5424	1409.1584	1416.4734	1461.1214	1480.1295	1483.5525	1484.5962	1493.1523	1496.1021	1515.1527	2984.2334	3010.2767	3028.5238	3036.2943	3046.7056	3054.5921	3055.7995	3068.2771	3069.2947	3073.0363	3107.4527	3107.6465	3113.0011	3118.2528
CC12CC(C1)CCCO2	C[C@@]12C[C@@H](C1)CCCO2	
InChI=1S/C8H14O/c1-8-5-7(6-8)3-2-4-9-8/h7H,2-6H2,1H3	InChI=1S/C8H14O/c1-8-5-7(6-8)3-2-4-9-8/h7H,2-6H2,1H3/t7-,8+
