25
gdb 112621	3.67352	0.79638	0.76866	1.3174	89.52	-0.2503	0.0694	0.3197	1674.8831	0.227069	-389.495197	-389.484472	-389.483528	-389.53093	40.488	
C	-0.222455654	 1.4898219369	-0.0386010664	-0.378274
C	 0.1252601265	-0.0011591303	-0.0950692657	-0.195981
C	 0.7768824304	-0.5145211743	 1.1817533185	 0.065933
C	-0.0809327593	-0.6140359035	 2.4771769227	-0.26493
C	 0.5911434339	-1.9742593546	 2.7926993676	 0.418378
O	 1.6774481198	-1.7033173875	 3.6765034774	-0.490849
C	-0.2907554229	-3.1032511018	 3.3215056367	-0.22349
C	 0.4413047512	-4.4423725656	 3.4621329838	-0.402995
C	 1.0662125714	-2.0371391615	 1.3066440668	-0.305062
H	 0.6752606662	 2.0993069484	 0.1141591825	 0.113911
H	-0.6989813964	 1.8249391492	-0.9651858588	 0.109233
H	-0.910438002	 1.7049704279	 0.7862207102	 0.118641
H	-0.7855368208	-0.583668056	-0.2931899041	 0.085875
H	 0.7964221524	-0.1901706007	-0.943927961	 0.0918
H	 1.6887891243	 0.0552109062	 1.3881114642	 0.075751
H	 0.0459055535	 0.1544685097	 3.2420987881	 0.105261
H	-1.1464321869	-0.7321224538	 2.2537163204	 0.088583
H	 2.2757839137	-2.4571664883	 3.6471547518	 0.275309
H	-0.6912142545	-2.7966461248	 4.2960010303	 0.101025
H	-1.1485955411	-3.2225231294	 2.6486348587	 0.088808
H	 0.857179378	-4.7748828057	 2.5041953285	 0.118279
H	 1.2630720157	-4.3741522395	 4.1836631784	 0.111117
H	-0.2340522728	-5.225535433	 3.8185345058	 0.11785
H	 0.3876351762	-2.63101033	 0.6843129087	 0.089799
H	 2.0915833377	-2.377060488	 1.1336117549	 0.086029
58.1312	83.4465	110.2565	178.03	198.4909	232.3955	247.8993	296.9153	331.8248	352.4582	368.151	408.6878	454.2593	485.423	620.5132	724.35	783.9042	785.6026	825.4578	890.1022	918.4076	946.4507	951.0846	974.688	992.7718	1014.0178	1040.2971	1054.8395	1085.1324	1106.7	1142.9477	1187.0519	1212.877	1230.6204	1250.1711	1273.3583	1286.1505	1305.6583	1322.9111	1333.2498	1341.6194	1383.4605	1392.5689	1407.433	1410.7105	1459.5187	1476.2629	1482.6762	1490.4049	1499.2282	1501.9496	1507.6968	1509.7144	3004.3303	3023.748	3029.1324	3029.9905	3032.3819	3037.0373	3049.219	3055.8637	3060.4646	3093.422	3095.1748	3096.8364	3101.4814	3105.1954	3118.4192	3810.2273
CCC1CC(O)(CC)C1	CC[C@H]1C[C@@](O)(CC)C1	
InChI=1S/C8H16O/c1-3-7-5-8(9,4-2)6-7/h7,9H,3-6H2,1-2H3	InChI=1S/C8H16O/c1-3-7-5-8(9,4-2)6-7/h7,9H,3-6H2,1-2H3/t7-,8-
