19
gdb 38120	2.4365	2.27497	1.6022	1.3024	79.25	-0.2234	0.009	0.2324	901.796	0.162604	-385.859819	-385.853271	-385.852326	-385.890197	28.343	
C	-0.0595878486	 1.4607848344	 0.0770907804	-0.42208
C	 1.3421020559	 0.8410989162	-0.0769168809	-0.084032
C	 2.263700327	 0.5098063595	-1.2013439204	-0.116662
C	 2.2223053582	-0.762462567	-1.6271170814	-0.061797
C	 1.0761527403	-1.675104959	-1.1876623782	-0.094013
C	 0.9967327376	-1.9982057293	 0.3561956103	-0.089462
O	 0.099866403	-1.0190997362	 0.9485018826	-0.31052
C	 0.1087626845	-0.0140559966	-0.039204101	 0.429913
C	-0.1787994908	-0.7816711025	-1.3154047004	-0.262013
H	-0.2459069652	 1.9131958653	 1.0450872895	 0.126771
H	-0.5554372091	 1.9565311892	-0.7521064144	 0.119262
H	 1.8471467247	 0.858100062	 0.8886976524	 0.106893
H	 3.0053094054	 1.2153405224	-1.566160058	 0.08715
H	 2.9219265374	-1.1322611775	-2.3716726542	 0.089266
H	 1.0610851851	-2.5948125156	-1.7755098394	 0.067469
H	 0.5728321239	-2.9898209646	 0.5401498114	 0.106597
H	 1.9820484121	-1.9359958478	 0.8316338704	 0.104037
H	-0.1861503556	-0.1920344689	-2.2312722683	 0.103476
H	-1.1215352461	-1.328184154	-1.2114196904	 0.099744
201.1313	282.503	330.0611	390.1914	466.0897	494.6337	505.6535	603.5748	652.148	710.8064	769.8153	799.1697	814.5683	870.5017	880.1855	900.8047	917.2211	955.1174	974.2788	980.2438	1018.6943	1047.8586	1064.9036	1077.0405	1086.7739	1129.4315	1158.3766	1183.3771	1200.7373	1225.7749	1237.3157	1285.461	1330.9889	1351.5437	1360.3732	1386.6753	1418.1442	1482.7004	1488.2914	1509.4342	1649.9325	3034.1239	3056.2165	3083.232	3096.3007	3103.4707	3125.7054	3140.354	3151.4638	3175.4523	3216.0906
C1C2C=CC3COC12C3	C1[C@@H]2C=C[C@H]3CO[C@@]12C3	
InChI=1S/C8H10O/c1-2-7-4-8(7)3-6(1)5-9-8/h1-2,6-7H,3-5H2	InChI=1S/C8H10O/c1-2-7-4-8(7)3-6(1)5-9-8/h1-2,6-7H,3-5H2/t6-,7+,8+/m1/s1
