18
gdb 83101	2.5647	1.73911	1.30121	2.4423	76.81	-0.225	-0.0249	0.2001	1014.6818	0.148255	-401.948538	-401.940771	-401.939827	-401.98087	30.005	
C	-0.6315325943	 1.340808859	 0.271717249	-0.418842
C	-0.0874732899	-0.0621749367	 0.0103288619	-0.076346
N	 0.6466460125	-0.3794569738	-1.2654240304	-0.117059
C	 0.887058676	 0.7050742474	-2.2317827269	-0.223643
C	 2.2675232157	 1.227910454	-1.8973645075	-0.070388
C	 2.8527056678	 0.4793899	-0.9633123618	-0.085758
C	 1.9347407981	-0.6397615458	-0.5433773001	-0.155066
C	 1.1860248367	-0.4349350627	 0.7892401128	 0.381894
O	 1.4753090768	-0.5040966836	 1.9456260509	-0.294211
H	 0.1331386938	 2.1113638266	 0.1423757053	 0.131146
H	-1.4799470722	 1.5712812555	-0.3797021695	 0.128436
H	-0.9825420232	 1.3863160698	 1.3070007174	 0.140253
H	-0.8908505495	-0.7921745221	 0.1762114406	 0.109445
H	 0.8510386456	 0.3206463058	-3.2619753388	 0.112704
H	 0.1099488519	 1.4746773895	-2.1666442857	 0.113155
H	 2.715041779	 2.0786596394	-2.3981500728	 0.105054
H	 3.8481249349	 0.6076274504	-0.5576273937	 0.114255
H	 2.3711113202	-1.6377616029	-0.6819136807	 0.104973
77.0659	157.4046	200.606	245.7673	287.3754	364.711	465.7539	514.5835	583.7363	622.9052	688.3213	726.3131	803.0818	820.5879	856.4794	911.2292	947.3996	960.235	978.2741	1033.4482	1053.6766	1059.5195	1072.3343	1115.6397	1124.1574	1166.5064	1215.1291	1234.8797	1256.1769	1271.4279	1323.2469	1344.6162	1349.0568	1396.7206	1491.2692	1492.0383	1508.9331	1666.2636	1903.7569	2992.3015	3013.8304	3018.8672	3041.1866	3060.6227	3112.3992	3122.1485	3197.6864	3226.5384
CC1N2CC=CC2C1=O	C[C@H]1N2CC=C[C@H]2C1=O	
InChI=1S/C7H9NO/c1-5-7(9)6-3-2-4-8(5)6/h2-3,5-6H,4H2,1H3	InChI=1S/C7H9NO/c1-5-7(9)6-3-2-4-8(5)6/h2-3,5-6H,4H2,1H3/t5-,6+/m1/s1
