23
gdb 116055	2.99884	1.09759	0.86185	1.0567	87.7	-0.2381	0.0216	0.2597	1410.7124	0.206817	-388.295545	-388.286152	-388.285208	-388.330158	35.376	
C	-0.0258584057	 1.439714552	 0.0213049912	-0.240096
O	-0.0125197134	 0.0350213058	 0.0957511668	-0.245331
C	-1.2932339722	-0.5876272507	 0.0154485088	 0.134529
C	-1.756601829	-0.6801466849	-1.4442933198	-0.194824
C	-3.2053728501	-1.1696939429	-1.6371557975	-0.258633
C	-3.4370342199	-2.6368525615	-1.3641295742	-0.04758
C	-3.1166785746	-3.2895301316	-0.2466752191	-0.047083
C	-2.4582269993	-2.6952391493	 0.976017819	-0.264797
C	-1.1430033917	-1.9343337201	 0.7250046606	-0.191674
H	 1.0031468981	 1.7792588306	 0.1666358422	 0.1249
H	-0.3774974095	 1.8165062646	-0.9508679313	 0.103884
H	-0.6577939788	 1.8831983386	 0.8075134478	 0.100594
H	-2.0227215507	 0.024111744	 0.5776676127	 0.053496
H	-1.6737560099	 0.3166252137	-1.8922902785	 0.091054
H	-1.0660085213	-1.3320581261	-1.9915454218	 0.102979
H	-3.8689622039	-0.563959608	-1.0008285361	 0.105868
H	-3.5079695614	-0.9510370186	-2.6661322104	 0.099149
H	-3.9196403599	-3.198406169	-2.161045557	 0.082714
H	-3.3548975727	-4.3494952177	-0.1908289227	 0.083003
H	-3.1635485144	-2.0214039426	 1.4861969758	 0.106029
H	-2.2534352711	-3.4985403562	 1.6907075013	 0.10028
H	-0.4522070313	-2.5631999793	 0.1513098122	 0.102776
H	-0.660973807	-1.731324131	 1.6873394001	 0.098765
58.4291	70.8602	170.4016	181.2572	210.1339	276.2163	302.4781	339.587	416.693	475.5222	484.6124	513.249	670.8297	722.0921	773.8552	863.9054	874.5642	903.5843	913.7885	992.1082	1003.3462	1005.2727	1048.9356	1076.8683	1084.8777	1135.2165	1148.5472	1155.8578	1181.9643	1207.3294	1241.4993	1263.1406	1268.8878	1292.2034	1333.4033	1344.3568	1361.9672	1366.083	1395.578	1409.9762	1424.6454	1478.3708	1478.9122	1482.2193	1485.5685	1491.2875	1496.8191	1510.9276	1725.4753	2930.902	2971.4931	2991.2803	2993.8476	3016.1532	3033.2331	3036.8704	3066.7263	3068.7747	3076.1825	3081.7076	3106.2823	3135.0253	3159.821
COC1CCC=CCC1	CO[C@H]1CCC=CCC1	
InChI=1S/C8H14O/c1-9-8-6-4-2-3-5-7-8/h2-3,8H,4-7H2,1H3	InChI=1S/C8H14O/c1-9-8-6-4-2-3-5-7-8/h2-3,8H,4-7H2,1H3
