20
gdb 11022	3.93203	1.64898	1.39212	0.219	80.92	-0.2151	0.0317	0.2468	989.9167	0.177314	-311.883394	-311.875455	-311.874511	-311.915003	31.243	
C	 0.0084223156	 1.5021414083	 0.081669141	-0.496661
C	-0.007076407	 0.0077156524	 0.0053307879	 0.344626
C	 0.0096742663	-0.75293566	-1.0955306061	-0.186156
C	-0.0409905361	-2.2318929637	-0.7830676962	-0.326062
C	 0.002190396	-2.290612283	 0.7501426328	 0.359738
C	-0.7667992809	-3.3868443004	 1.4478817797	-0.481294
C	 1.2334898241	-1.7156296342	 1.4041835724	-0.321522
C	-0.0025784156	-0.8478133152	 1.2336852299	-0.167992
H	 0.889329547	 1.8636814343	 0.6272475606	 0.12578
H	 0.0108174494	 1.9568657097	-0.9127245092	 0.120854
H	-0.8681568049	 1.8791209452	 0.62426625	 0.122812
H	 0.0692815579	-0.3722052333	-2.1097820301	 0.080836
H	-0.9639316924	-2.6912920957	-1.1669106235	 0.098278
H	 0.787950598	-2.7875663509	-1.2417228231	 0.103176
H	-0.357113285	-4.3755596706	 1.2075023002	 0.115238
H	-0.7280695095	-3.2712069537	 2.5359052986	 0.111623
H	-1.8215265648	-3.3850811829	 1.1486094305	 0.114115
H	 1.4633564188	-2.0688412085	 2.4051544476	 0.102081
H	 2.1014585832	-1.4799571799	 0.7957083029	 0.10539
H	-0.54870027	-0.5345345179	 2.118671104	 0.075139
144.8781	182.9619	208.0113	249.8824	257.4919	349.1108	377.8698	388.155	540.0003	579.7954	634.9106	747.8645	803.881	820.0326	848.2215	920.0615	939.355	965.2168	975.4054	1010.7251	1030.0735	1046.4801	1061.7201	1069.5512	1104.5409	1106.6082	1181.4864	1188.1907	1244.3663	1264.5327	1323.9676	1345.5575	1400.36	1413.2717	1421.704	1474.7854	1478.4955	1486.6273	1489.7952	1492.6239	1501.7082	1707.4191	2995.9699	3015.7804	3018.8611	3029.9994	3061.0712	3076.068	3094.7219	3108.8942	3114.5299	3150.3844	3185.022	3202.6817
CC1=CCC2(C)CC12	CC1=CC[C@@]2(C)C[C@@H]12	
InChI=1S/C8H12/c1-6-3-4-8(2)5-7(6)8/h3,7H,4-5H2,1-2H3	InChI=1S/C8H12/c1-6-3-4-8(2)5-7(6)8/h3,7H,4-5H2,1-2H3/t7-,8-/m0/s1
