22
gdb 99033	3.2873	0.91836	0.85836	2.1943	79.96	-0.2478	0.0629	0.3107	1495.5284	0.191143	-441.541852	-441.530649	-441.529704	-441.578309	40.225	
C	 0.1656039688	 1.3345706596	 0.0067110641	-0.231097
O	-0.0118972531	-0.0820148037	 0.0008917179	-0.268512
C	-1.3119796073	-0.4902627017	 0.0125826326	 0.529891
O	-2.2573269372	 0.2711460435	 0.0266919104	-0.425828
N	-1.3626673512	-1.8458134131	 0.0061573756	-0.393875
C	-2.5982735829	-2.6506681858	 0.0127249578	 0.286262
C	-3.4358761309	-2.3436259137	-1.2422298317	-0.4012
C	-2.1519391376	-4.1190631141	 0.0003818331	-0.427477
C	-3.4127646276	-2.3579212252	 1.2861527324	-0.401136
H	 1.2441402636	 1.4970783683	-0.0034102332	 0.126387
H	-0.294323609	 1.7910397503	-0.8738915976	 0.136178
H	-0.2762565424	 1.781486336	 0.9013435712	 0.136216
H	-0.4771304186	-2.32401745	-0.0074641746	 0.247731
H	-2.8697040059	-2.5773997142	-2.149551268	 0.106006
H	-4.3503532826	-2.9453070663	-1.2439123107	 0.10705
H	-3.7114102997	-1.2879549205	-1.2661059666	 0.15138
H	-1.5470962504	-4.3543117586	 0.8829358485	 0.116072
H	-3.0239948979	-4.7778912386	 0.0047438738	 0.125469
H	-1.5635674719	-4.3444150381	-0.8958050168	 0.115988
H	-3.6876615601	-1.3026165249	 1.3270051576	 0.151414
H	-4.3271124054	-2.9596889798	 1.2976789209	 0.10702
H	-2.8301179807	-2.6019006694	 2.1802514635	 0.106062
43.8987	85.3162	112.3028	153.7653	157.366	221.9655	277.2223	279.1461	292.4831	318.4403	339.8484	357.4279	391.7031	420.0126	471.5776	519.9447	724.3049	774.4948	785.3362	920.8953	932.9453	937.309	963.7716	969.3333	1053.6678	1069.5514	1130.6195	1183.5246	1209.3837	1230.0583	1247.4996	1264.3482	1293.6824	1392.2118	1393.1137	1423.2336	1465.0853	1471.2426	1481.4165	1491.1195	1492.5587	1493.372	1502.2998	1506.4965	1526.5671	1541.6793	1802.6577	3029.7564	3036.5849	3042.7662	3047.2359	3096.3619	3103.6184	3106.6858	3119.2069	3121.4659	3140.2496	3143.4463	3149.3596	3649.0715
COC(=O)NC(C)(C)C	COC(=O)NC(C)(C)C	
InChI=1S/C6H13NO2/c1-6(2,3)7-5(8)9-4/h1-4H3,(H,7,8)	InChI=1S/C6H13NO2/c1-6(2,3)7-5(8)9-4/h1-4H3,(H,7,8)
