22
gdb 95975	2.67614	1.21274	1.09798	3.3751	81.38	-0.2408	0.0336	0.2745	1240.2393	0.195289	-404.407524	-404.397666	-404.396721	-404.442919	36.239	
C	 0.3627030887	 1.5504329603	-0.433382753	-0.386809
C	-0.0684618668	 0.1743938434	 0.0910943738	 0.0035
C	-0.009493691	-0.9138745072	-0.9989002807	-0.204861
C	 1.4758562667	-1.3368178602	-1.0590796524	-0.211513
C	 2.0461175464	-1.0577523938	 0.3597030635	-0.219646
C	 0.8931962905	-0.420069881	 1.1682760843	-0.082781
C	 1.3692031412	 0.6097650696	 2.1883551028	 0.39782
N	 0.5489320071	 0.7632666121	 3.2710878656	-0.527147
O	 2.3833600937	 1.2693567358	 2.0529808025	-0.371258
H	 1.3840276144	 1.5372378921	-0.8244533635	 0.130546
H	-0.3050452983	 1.8705510387	-1.2400643194	 0.105051
H	 0.3305145349	 2.3099697363	 0.3524542936	 0.12361
H	-1.0826958817	 0.2631882107	 0.4979948497	 0.057955
H	-0.6286969988	-1.7663520207	-0.6946702476	 0.089502
H	-0.3945858956	-0.5642973664	-1.9619378042	 0.091227
H	 1.5851347212	-2.3844845577	-1.3518852026	 0.09458
H	 2.012892627	-0.7479979277	-1.8086319505	 0.104441
H	 2.4068822787	-1.9676052821	 0.8469154923	 0.095445
H	 2.8838470937	-0.3580772576	 0.3297987812	 0.132332
H	 0.3389732559	-1.2055379679	 1.6972652726	 0.065247
H	-0.3203164908	 0.2677564608	 3.3604689897	 0.255505
H	 0.7635540729	 1.4908513126	 3.9331964723	 0.257255
40.3303	76.421	131.2712	156.9284	175.3766	212.6885	252.2671	342.9469	374.867	407.1897	566.0472	622.6206	629.3567	641.8739	737.7499	792.0968	813.0399	842.6401	900.1006	924.9694	950.0255	991.2935	1020.2174	1032.6014	1044.5735	1082.6194	1090.7786	1145.2212	1197.7347	1215.1074	1246.0993	1266.2822	1287.8021	1303.3995	1314.2793	1333.8313	1353.5051	1378.867	1408.4164	1419.6269	1487.2696	1490.6606	1498.878	1504.2213	1518.4258	1614.5561	1787.589	3015.182	3024.517	3038.377	3042.5302	3053.4237	3066.1836	3078.3827	3092.3848	3107.1032	3117.1446	3121.4769	3601.0584	3739.3174
CC1CCCC1C(N)=O	C[C@H]1CCC[C@H]1C(=O)N	
InChI=1S/C7H13NO/c1-5-3-2-4-6(5)7(8)9/h5-6H,2-4H2,1H3,(H2,8,9)	InChI=1S/C7H13NO/c1-5-3-2-4-6(5)7(8)9/h5-6H,2-4H2,1H3,(H2,8,9)/t5-,6+/m0/s1
