13
gdb 27224	3.59826	1.6578	1.13668	2.6213	67.23	-0.187	-0.0162	0.1708	969.6111	0.091822	-452.757165	-452.750338	-452.749394	-452.788633	25.841	
N	 0.116552674	 1.4005686148	 0.173209111	-0.600946
C	-0.0531853288	 0.0272879077	 0.0535214011	 0.240549
C	-1.0976785225	-0.8377778313	 0.0254158559	 0.198517
O	-2.4725567642	-0.8974730719	 0.0050624195	-0.23329
C	-2.6987068377	-2.2565811155	-0.0297516183	 0.048281
N	-1.6811171955	-3.0449352988	-0.0344299909	-0.345775
C	-0.5925246956	-2.1638973639	 0.0018062171	 0.205569
C	 0.7634408278	-2.0738687203	 0.012516071	-0.147016
O	 1.0834392076	-0.7256748433	 0.0510357767	-0.182442
H	 0.9079045828	 1.7370646905	-0.3632025474	 0.259983
H	-0.7191484606	 1.9096609992	-0.0824345581	 0.260846
H	-3.7410007977	-2.5406463608	-0.0504879637	 0.151692
H	 1.5966285104	-2.7511430264	-0.0102308238	 0.144033
84.8923	189.7833	281.2313	286.9719	394.1286	558.1159	598.619	605.1103	615.0802	627.4441	694.5321	744.2625	754.0498	833.2296	885.4005	916.5859	996.7523	1059.143	1104.7297	1127.4651	1225.3594	1288.9774	1316.281	1347.7778	1443.5247	1569.5194	1627.34	1639.6825	1751.424	3261.8261	3310.8894	3531.2414	3633.7703
NC1=C2OC=NC2=CO1	Nc1c2ocnc2co1	
InChI=1S/C5H4N2O2/c6-5-4-3(1-8-5)7-2-9-4/h1-2H,6H2	InChI=1S/C5H4N2O2/c6-5-4-3(1-8-5)7-2-9-4/h1-2H,6H2
