25
gdb 90026	2.92768	1.09364	0.948	0.0511	93.27	-0.2614	0.0868	0.3482	1409.1497	0.228807	-352.348564	-352.338961	-352.338017	-352.382722	37.612	
C	-0.6116357872	-0.4889320866	-1.7474651771	-0.407841
C	 0.7097715897	-0.9818353297	-1.1789183667	 0.062704
C	 2.0300701226	-0.3065995587	-1.6470967255	-0.29647
C	 2.5564338482	-0.4112224264	-0.1874431973	 0.3766
C	 3.6167952711	-1.517566133	 0.0707029954	-0.280028
C	 4.6962616441	-0.4087699427	 0.1686087843	-0.230722
C	 3.5583319583	 0.624323321	 0.3983731567	-0.023794
C	 3.6739138751	 2.010094395	-0.2169438312	-0.417054
C	 1.0956630913	-0.6026192608	 0.2788990499	-0.31648
H	-0.7104050416	 0.5961426566	-1.6254215671	 0.108172
H	-0.6950681943	-0.7120677782	-2.8173398836	 0.111283
H	-1.4635508691	-0.9588340337	-1.2427313667	 0.111619
H	 0.7864023949	-2.0674104577	-1.3070760611	 0.069842
H	 2.6087705555	-0.7971918321	-2.4357013146	 0.089123
H	 1.8521521499	 0.7334094244	-1.9428049933	 0.09216
H	 3.4539662349	-2.0129436334	 1.0337459463	 0.09411
H	 3.74323365	-2.2859318508	-0.6975643313	 0.091381
H	 5.4621915422	-0.5069274939	 0.9420839251	 0.090612
H	 5.1942613202	-0.2427913157	-0.7923852228	 0.096409
H	 3.3661709391	 0.7168109044	 1.4755105256	 0.065798
H	 3.8857744099	 1.9536932304	-1.2902825162	 0.113599
H	 2.750581527	 2.5871737967	-0.0890021392	 0.110528
H	 4.484983522	 2.5796344085	 0.2506768329	 0.11142
H	 0.6398258992	 0.3507850642	 0.573215108	 0.089557
H	 0.9108683669	-1.3351144877	 1.0709425895	 0.087474
71.1571	99.1935	184.5191	218.121	238.1786	254.045	275.3758	323.9462	369.3617	428.6922	465.7832	502.9624	631.6755	713.5025	768.7826	834.1055	856.113	881.3354	890.9335	898.2684	924.074	949.2512	951.0672	963.4017	1020.3983	1052.4498	1080.5597	1115.0992	1136.5294	1160.7969	1178.3074	1195.5924	1199.4863	1230.7829	1236.939	1248.275	1261.422	1279.8317	1283.09	1302.2717	1304.055	1372.343	1375.9501	1409.1852	1411.221	1471.0784	1479.1606	1491.2782	1494.6647	1495.7196	1498.3247	1498.4604	1502.3679	3014.4292	3019.0149	3022.7324	3025.147	3034.5133	3037.8247	3040.2684	3046.895	3079.9887	3083.7455	3085.9072	3086.7229	3087.2299	3092.1812	3094.1929	3104.5003
CC1CC2(CCC2C)C1	C[C@H]1C[C@]2(CC[C@H]2C)C1	
InChI=1S/C9H16/c1-7-5-9(6-7)4-3-8(9)2/h7-8H,3-6H2,1-2H3	InChI=1S/C9H16/c1-7-5-9(6-7)4-3-8(9)2/h7-8H,3-6H2,1-2H3/t7-,8-,9+/m1/s1
