20
gdb 118630	1.67434	1.08412	0.70781	3.7604	78.37	-0.2475	-0.0355	0.212	1613.7461	0.168234	-440.320051	-440.30953	-440.308586	-440.357408	35.842	
C	-0.2325236145	 1.470821945	-0.2281180972	-0.380561
C	-0.1422966992	-0.0555547022	-0.1526696849	-0.172903
C	 0.8319279002	-0.6246491423	-1.1932396747	-0.174487
N	 0.9502242773	-2.0780691449	-1.1680760996	-0.050114
C	-0.1066190652	-2.8912552184	-1.7401247522	-0.26741
C	-0.0993576056	-2.8563539427	-3.2623150885	 0.156104
O	-1.0892116344	-2.8926584289	-3.9429128412	-0.230857
C	 2.0135951966	-2.6952270785	-0.5704710266	 0.150613
O	 2.162519078	-3.8945813973	-0.4713480742	-0.336595
H	 0.7437582737	 1.9362999074	-0.0532684834	 0.120063
H	-0.5856178042	 1.8002856586	-1.2113907385	 0.123449
H	-0.9259104388	 1.8613132254	 0.5216860753	 0.124777
H	 0.1878906228	-0.3683332197	 0.8450483377	 0.110021
H	-1.1368999722	-0.4917417171	-0.3015630805	 0.111858
H	 0.5267060542	-0.3101670955	-2.199822756	 0.11911
H	 1.831130235	-0.2064675727	-1.0271980788	 0.121365
H	 0.0919523651	-3.9243674842	-1.428222529	 0.174251
H	-1.0969744444	-2.5990967108	-1.3786310098	 0.133128
H	 0.9221178348	-2.8070158686	-3.7053018465	 0.088454
H	 2.7458938108	-1.9624731126	-0.1801424415	 0.079736
40.7645	68.7321	73.7294	90.5684	124.9723	229.0715	235.5348	279.8459	302.1988	334.4204	397.6555	444.2921	535.588	686.34	748.118	756.4372	882.4421	895.8796	933.0265	1027.5934	1039.3454	1051.7076	1074.1024	1119.7328	1135.2431	1198.4099	1255.8809	1303.1647	1323.1447	1329.937	1341.6719	1408.1872	1411.6817	1417.8444	1431.1962	1441.7613	1450.3982	1484.6613	1492.5075	1500.5253	1509.7687	1792.1279	1840.478	2873.4129	2948.0138	3019.16	3032.8334	3037.2333	3041.3201	3059.038	3078.9419	3099.4519	3102.7936	3113.1875
CCCN(CC=O)C=O	CCCN(CC=O)C=O	
InChI=1S/C6H11NO2/c1-2-3-7(6-9)4-5-8/h5-6H,2-4H2,1H3	InChI=1S/C6H11NO2/c1-2-3-7(6-9)4-5-8/h5-6H,2-4H2,1H3
