20
gdb 88876	3.6243	1.12122	0.99712	2.5385	75.83	-0.2221	0.0815	0.3036	1257.9984	0.171295	-440.24391	-440.23508	-440.234135	-440.278664	31.986	
C	 3.0207790193	-1.4945720367	 1.0922162422	-0.325166
N	 1.8899952477	-1.0016947652	 0.3117384546	-0.095981
C	 0.5456358615	-1.3499855526	 0.766110874	-0.244322
C	 1.0389280997	 0.0502507221	 0.8607023806	-0.037017
C	 1.2892307946	 0.7211295544	 2.1953526054	 0.19335
O	 0.2817493083	 1.7044001182	 2.4058442503	-0.267842
C	-0.0580787436	 1.7003503436	 3.7893323481	-0.086534
C	 0.8881730938	 0.6529198831	 4.4013722164	-0.111649
O	 1.2159309185	-0.1653073882	 3.2875900671	-0.240306
H	 2.840816085	-1.5396284183	 2.1748796776	 0.125898
H	 3.2707348159	-2.4995895388	 0.7380635472	 0.119883
H	 3.8884894706	-0.8515281093	 0.9092201865	 0.1172
H	-0.1612258095	-1.6314636414	-0.0101564802	 0.110914
H	 0.4475489968	-1.8921967787	 1.7034951	 0.122646
H	 0.7126826313	 0.7823455298	 0.1246594894	 0.104785
H	 2.2761837672	 1.2228333248	 2.1978207249	 0.068385
H	 0.0875230173	 2.697421182	 4.2200256555	 0.108005
H	-1.1116974424	 1.4178257482	 3.901027301	 0.111648
H	 1.7906647895	 1.1244991976	 4.8176485238	 0.103778
H	 0.4260473488	 0.0274901754	 5.1674547155	 0.122324
32.4654	72.0739	157.6807	171.4108	211.87	269.9148	289.5916	385.6532	474.7556	604.728	683.8978	729.0556	752.4696	878.7332	882.3297	933.7944	945.9468	961.8274	989.5296	1043.0805	1062.4134	1063.6024	1109.8657	1127.0675	1137.2494	1162.0422	1174.4773	1187.7027	1211.6353	1224.9708	1248.8216	1327.017	1338.5759	1378.1486	1380.2589	1419.3688	1428.4031	1452.5566	1494.3227	1508.2638	1511.6672	1516.7668	1530.9364	2913.244	2997.0901	3007.761	3025.895	3066.4155	3076.5914	3097.1895	3103.1832	3115.6217	3129.457	3190.3889
CN1CC1C1OCCO1	CN1C[C@H]1C1OCCO1	
InChI=1S/C6H11NO2/c1-7-4-5(7)6-8-2-3-9-6/h5-6H,2-4H2,1H3	InChI=1S/C6H11NO2/c1-7-4-5(7)6-8-2-3-9-6/h5-6H,2-4H2,1H3/t5-,7?/m0/s1
