19
gdb 36053	2.13225	1.41679	1.03725	0.9153	86.72	-0.2535	0.0424	0.2959	1226.5234	0.156723	-348.676602	-348.667188	-348.666244	-348.710699	35.8	
C	-0.1870509446	-1.0500782751	-0.4905696553	-0.447571
C	-0.0469487423	 0.1140738424	-0.2270045449	 0.321527
C	 0.1380840992	 1.5280299363	 0.071586179	-0.416919
C	 1.6266746583	 1.9558862527	 0.172725721	 0.126568
C	 2.3578824007	 1.8847186774	-1.2137844037	-0.247036
C	 2.0905441664	 3.3996937968	-1.4147032622	-0.221776
C	 1.766197597	 3.5183365706	 0.0973676685	-0.25718
C	 2.283549983	 1.3071535665	 1.292899971	 0.276658
C	 2.8417380231	 0.7941365736	 2.2267464806	-0.442802
H	-0.3150936072	-2.0807876214	-0.7106158618	 0.195507
H	-0.34440194	 2.1292489993	-0.7094089807	 0.127832
H	-0.3631013996	 1.7803969395	 1.0137367309	 0.137197
H	 3.4189548396	 1.6624912729	-1.0873355747	 0.114499
H	 1.9340592006	 1.1837265566	-1.9359856936	 0.115715
H	 2.9228829965	 4.0007064512	-1.7852605704	 0.104505
H	 1.2221141078	 3.5943992732	-2.0493244404	 0.10625
H	 0.8838740317	 4.0937563798	 0.3905967703	 0.10169
H	 2.6210330783	 3.8636041759	 0.6815100443	 0.114733
H	 3.3310740318	 0.3302600118	 3.0469139319	 0.190603
71.3987	115.209	130.7244	173.5643	197.4366	310.7388	328.5742	354.1743	450.6401	524.3827	529.172	619.0866	622.7964	625.8756	636.4087	648.1012	715.4768	795.2293	855.2029	897.1197	898.9892	944.9197	973.3999	980.158	1028.3693	1070.3989	1121.4395	1189.7319	1208.3028	1251.2937	1256.3714	1265.9032	1274.2933	1317.601	1334.6262	1464.1477	1478.2997	1487.1935	1507.5665	2230.8305	2239.3935	3023.6462	3060.5671	3061.3494	3067.8017	3075.1745	3108.7717	3125.9017	3135.629	3503.0233	3507.1396
C#CCC1(CCC1)C#C	C#CCC1(CCC1)C#C	
InChI=1S/C9H10/c1-3-6-9(4-2)7-5-8-9/h1-2H,5-8H2	InChI=1S/C9H10/c1-3-6-9(4-2)7-5-8-9/h1-2H,5-8H2
