20
gdb 86827	2.77297	1.1965	0.97815	6.7695	75.26	-0.2352	0.0424	0.2777	1251.7553	0.171808	-440.307297	-440.29848	-440.297536	-440.341845	33.25	
N	 0.6105005276	 0.7728747137	 1.4911163424	-0.508925
H	 0.2694745987	-0.2527759096	 2.863641534	 0.331962
H	 1.4212888052	 1.3699397027	 1.6302528786	 0.245155
H	 0.7605531001	 0.2524944208	 0.6309375724	 0.245154
C	-0.6218983225	 1.5634021797	 1.4219968112	 0.01782
C	-1.8671419823	 0.6358061061	 1.4818556081	-0.248855
C	-2.1277437428	 1.0831381855	 2.9546689937	 0.00751
C	-2.0780035717	 0.0476769172	 4.0795869323	-0.344789
C	-0.8969297565	-0.9044097567	 4.3630857157	 0.3669
O	 0.2106182959	-0.895532894	 3.6213311437	-0.391394
O	-1.0006114013	-1.6712227338	 5.2886453471	-0.333002
C	-0.9810900035	 2.1342056512	 2.8219222743	-0.248858
H	-0.6179577695	 2.2933153361	 0.603225357	 0.069896
H	-2.663820638	 0.9222252593	 0.7921902269	 0.105995
H	-1.6457034317	-0.4248711338	 1.3330907781	 0.110467
H	-3.1008198891	 1.5732807629	 3.0500256457	 0.08547
H	-2.2403703711	 0.562289083	 5.0343815514	 0.136518
H	-2.9406142866	-0.621585596	 3.975702701	 0.136516
H	-0.174903364	 2.0624258198	 3.5575285844	 0.110467
H	-1.3367977571	 3.1663556361	 2.799174902	 0.105992
30.0007	79.8019	154.9791	214.2565	287.8766	323.8525	333.5146	419.3787	446.7818	516.4136	568.7013	663.1937	717.295	788.1328	813.4903	868.0565	871.1424	873.0885	924.183	934.8961	982.4886	1026.9954	1061.1595	1081.8551	1085.2383	1141.1039	1194.8937	1202.7446	1237.0892	1256.7116	1284.3013	1293.8658	1296.4538	1336.7483	1341.1395	1343.3392	1389.7552	1398.3672	1444.7176	1470.3886	1487.9789	1645.0767	1823.9446	3015.1695	3035.1039	3055.2968	3059.3593	3064.8936	3070.6631	3115.4	3118.349	3176.7547	3483.7592	3565.0613
[NH3+]C1CC(CC([O-])=O)C1	N[C@H]1C[C@@H](CC(=O)O)C1	
InChI=1S/C6H11NO2/c7-5-1-4(2-5)3-6(8)9/h4-5H,1-3,7H2,(H,8,9)	InChI=1S/C6H11NO2/c7-5-1-4(2-5)3-6(8)9/h4-5H,1-3,7H2,(H,8,9)/t4-,5+
