20
gdb 39322	2.8038	1.72944	1.30159	2.2968	77.3	-0.2316	0.0706	0.3023	1020.793	0.174952	-403.116969	-403.10975	-403.108806	-403.149002	29.021	
C	 0.1978996847	 1.5908797078	 0.1773814643	-0.079529
O	 1.483998163	 1.4887481799	-0.4686836053	-0.296433
C	 1.3508197466	 0.0571273717	-0.6113069124	 0.162619
C	 2.4520259988	-0.7512143798	 0.0248398419	-0.063978
N	 2.6696130568	-0.5707543793	 1.4711533451	-0.328852
C	 2.0863290642	-1.8308313683	 0.9857668047	-0.015151
C	 0.6271116383	-2.0552607603	 1.3448665797	-0.217412
C	-0.1421578695	-0.7260403493	 1.4092538927	-0.227957
C	-0.0295476256	 0.0644117999	 0.0985602432	-0.071467
H	 0.2846025662	 1.997664943	 1.1927529677	 0.103088
H	-0.500983466	 2.2108233025	-0.3987574463	 0.092067
H	 1.2942135685	-0.2191782929	-1.6742822145	 0.065303
H	 3.3345856891	-0.9047949321	-0.59253976	 0.082481
H	 3.6550549475	-0.6868058938	 1.687577934	 0.232417
H	 2.7150815012	-2.719078728	 0.9926775618	 0.079874
H	 0.1792302608	-2.7304247382	 0.6028473835	 0.09612
H	 0.5610277354	-2.5664575727	 2.3128310758	 0.099951
H	-1.1942767682	-0.9166952168	 1.6452266898	 0.089015
H	 0.2736700549	-0.1355252419	 2.2295261393	 0.124466
H	-0.8365870066	-0.2166203112	-0.5827907148	 0.073377
51.1907	181.7364	262.8944	345.569	373.1059	421.4439	464.1335	597.1254	659.8688	748.7885	768.0854	808.7988	853.7805	877.3701	905.8587	922.5174	965.7367	981.0646	1004.8831	1010.3748	1034.0188	1063.4109	1097.6367	1116.9236	1140.2743	1160.5596	1163.9136	1170.1153	1231.7887	1251.2493	1260.4555	1280.7296	1288.3818	1341.5468	1362.7221	1374.1553	1385.0234	1396.4053	1408.9618	1457.6129	1486.9096	1491.8436	1523.3134	2989.3739	3007.6181	3016.1073	3044.8291	3048.8711	3055.9524	3070.0607	3103.4776	3119.0968	3130.2213	3517.1864
C1OC2C3NC3CCC12	C1O[C@H]2[C@H]3N[C@H]3CC[C@@H]12	
InChI=1S/C7H11NO/c1-2-5-6(8-5)7-4(1)3-9-7/h4-8H,1-3H2	InChI=1S/C7H11NO/c1-2-5-6(8-5)7-4(1)3-9-7/h4-8H,1-3H2/t4-,5-,6-,7+/m0/s1
