24
gdb 60016	1.95483	1.09415	0.83638	3.5086	86.98	-0.2507	0.0312	0.282	1530.1149	0.215603	-405.593794	-405.582604	-405.58166	-405.630516	40.55	
C	 0.7244937877	-0.2087130962	-1.2112622186	-0.388823
C	-0.1100396961	-0.0582278159	 0.0686383961	 0.043158
C	-1.4867051987	-0.7193259142	-0.0937943208	-0.402413
C	 0.672912331	-0.611482958	 1.2726901671	-0.170701
C	 0.0170081698	-0.4322431966	 2.6537550292	 0.018884
C	 0.8666739789	-1.0599208634	 3.7648860208	-0.39698
N	-0.2396461308	 0.9765822156	 2.9537488515	-0.267158
C	-1.4806470045	 1.514836321	 3.0708110385	 0.156094
O	-2.5283610972	 0.920471894	 2.9129512131	-0.32697
H	 0.9129078038	-1.2657864647	-1.4352980076	 0.110494
H	 0.2048918943	 0.2231655945	-2.0727494948	 0.110821
H	 1.6962800848	 0.2892177075	-1.1213086318	 0.103869
H	-0.270100377	 1.0147978843	 0.2401519202	 0.072462
H	-1.3892274009	-1.8082006935	-0.1898712017	 0.101883
H	-2.1446399523	-0.5032113484	 0.751806856	 0.152101
H	-1.9825310103	-0.3536217367	-0.9991537146	 0.106978
H	 0.8481677654	-1.6857648759	 1.1229274925	 0.095661
H	 1.668961581	-0.1450986002	 1.2978034957	 0.078991
H	-0.9697472994	-0.9006271504	 2.6555507455	 0.128278
H	 1.8542774296	-0.5862054161	 3.8242241646	 0.108561
H	 0.3776413083	-0.9524178382	 4.7369487341	 0.125316
H	 1.0233562626	-2.1257474571	 3.5738003029	 0.123155
H	 0.5513114222	 1.5820404599	 3.1144734824	 0.241657
H	-1.4371082222	 2.5904209889	 3.3355618796	 0.074684
42.7972	73.5548	108.9047	153.4794	202.8547	207.948	233.2031	243.0594	265.6325	315.5667	341.9397	411.9167	415.5707	467.1893	520.9014	541.3688	755.4215	816.7455	848.8781	899.1445	923.6349	938.3946	971.6866	986.4267	1026.5638	1028.9547	1073.639	1146.4662	1166.1587	1176.9908	1194.116	1214.2715	1273.1452	1308.2393	1354.3853	1364.5052	1378.565	1392.9765	1404.1284	1409.3964	1426.2594	1430.8515	1474.4019	1491.3165	1491.9631	1494.6304	1496.7371	1507.444	1521.1158	1531.945	1795.3009	2930.458	2995.3035	3011.6455	3020.6969	3025.6549	3027.8779	3039.8746	3084.678	3088.8578	3089.1476	3098.2998	3109.5533	3118.9661	3121.4068	3615.882
CC(C)CC(C)NC=O	CC(C)C[C@@H](C)NC=O	
InChI=1S/C7H15NO/c1-6(2)4-7(3)8-5-9/h5-7H,4H2,1-3H3,(H,8,9)	InChI=1S/C7H15NO/c1-6(2)4-7(3)8-5-9/h5-7H,4H2,1-3H3,(H,8,9)/t7-/m1/s1
