18
gdb 119817	3.9783	0.89071	0.75072	4.4797	76.49	-0.2133	-0.0008	0.2125	1502.2928	0.1471	-439.121761	-439.112779	-439.111835	-439.156177	32.42	
C	 0.0042825983	 1.3341486811	-0.2304286649	-0.225159
O	-0.0003866941	-0.0733524879	-0.1465794828	-0.242062
C	-1.2634922314	-0.59736272	 0.2164302872	-0.180765
C	-1.1836289975	-2.0865038964	 0.1874768437	 0.372952
C	-1.6784960402	-2.9985170888	 1.0331159514	-0.243898
C	-1.3852070261	-4.370873319	 0.4869563434	-0.381893
C	-0.5843415784	-4.0850281836	-0.7981913367	 0.404946
O	-0.0676831126	-4.8705377122	-1.5568592817	-0.367077
N	-0.5690354152	-2.7046370687	-0.9139442528	-0.361078
H	 1.0096301124	 1.6382415264	-0.5296026723	 0.134855
H	-0.7182571595	 1.6995823027	-0.9769372126	 0.108996
H	-0.2357825966	 1.7996407812	 0.7377100822	 0.111135
H	-1.5679993958	-0.2608142811	 1.2190662614	 0.108282
H	-2.0306089556	-0.2442819385	-0.4964966238	 0.10493
H	-2.221355801	-2.7861416048	 1.9417371966	 0.102356
H	-0.7882135687	-5.0018994294	 1.1549923157	 0.145004
H	-2.2837692756	-4.9470577224	 0.2346333108	 0.14361
H	 0.0202174877	-2.2129218785	-1.5662066949	 0.264867
69.658	92.9673	106.7495	163.9218	230.0606	270.3586	332.156	374.6776	467.7207	504.9148	565.4192	612.863	660.6109	719.5536	749.3008	858.8204	951.02	974.2634	989.8527	1000.6614	1033.1502	1144.4102	1147.7156	1183.3383	1192.1441	1203.1908	1222.7944	1248.656	1273.6754	1323.7533	1409.839	1425.6465	1439.1524	1478.9285	1486.8438	1497.9376	1517.8826	1715.2896	1840.4748	2939.8714	2976.0771	3005.7744	3023.3916	3042.3926	3075.0038	3122.7551	3245.2785	3658.4351
COCC1=CCC(=O)N1	COCC1=CCC(=O)N1	
InChI=1S/C6H9NO2/c1-9-4-5-2-3-6(8)7-5/h2H,3-4H2,1H3,(H,7,8)	InChI=1S/C6H9NO2/c1-9-4-5-2-3-6(8)7-5/h2H,3-4H2,1H3,(H,7,8)
