18
gdb 76707	3.38448	0.80883	0.77475	6.0694	72.67	-0.2496	0.0315	0.281	1495.3238	0.146572	-439.072944	-439.063465	-439.062521	-439.108027	34.284	
O	-0.2222333275	 1.2797242796	-0.2905009334	-0.42571
C	-0.1384930312	-0.1011689954	-0.1037869036	 0.081185
C	-0.3933836759	-0.627092092	 1.288235248	 0.009448
O	-0.7481694686	 0.3434249904	 2.242542185	-0.421106
C	-1.4073453149	-0.8865740685	 0.1980106584	-0.103621
C	-2.7549069116	-0.1949670458	 0.1925378583	-0.21349
C	-3.1783517585	 0.1780495024	-1.2456383875	-0.332135
C	-4.5063182501	 0.7843734999	-1.2987174769	 0.25409
N	-5.559314706	 1.2603048281	-1.3210066017	-0.309323
H	-0.4202222322	 1.6582292222	 0.577993357	 0.287873
H	 0.6293749511	-0.552588425	-0.7246831034	 0.103959
H	 0.1785009028	-1.4659739164	 1.6779684414	 0.100239
H	 0.0469459629	 0.5814759265	 2.7319314403	 0.301381
H	-1.4196182527	-1.9094666211	-0.1711889703	 0.094851
H	-3.5096192736	-0.8471082485	 0.64352279	 0.122187
H	-2.7249954437	 0.7101336379	 0.8015086436	 0.133006
H	-2.4472842564	 0.8788976342	-1.6609436864	 0.172981
H	-3.1774962138	-0.7102507385	-1.8880914185	 0.144186
57.6814	83.4141	94.8476	183.0447	216.7224	270.7133	286.4992	305.1559	405.0974	487.6007	515.5185	553.5893	616.7857	658.6266	755.4303	775.2069	797.9554	912.5895	952.0371	989.3482	1025.2872	1062.091	1067.5402	1119.4893	1126.2624	1153.1479	1204.9914	1234.3496	1265.7508	1282.2132	1311.9066	1328.4087	1356.371	1392.3044	1408.5328	1470.3781	1474.8558	1496.4024	2360.8116	3045.1149	3061.4669	3093.7227	3119.6888	3125.7704	3137.4259	3157.0104	3731.4446	3807.258
OC1C(O)C1CCC#N	O[C@H]1[C@@H](O)[C@H]1CCC#N	
InChI=1S/C6H9NO2/c7-3-1-2-4-5(8)6(4)9/h4-6,8-9H,1-2H2	InChI=1S/C6H9NO2/c7-3-1-2-4-5(8)6(4)9/h4-6,8-9H,1-2H2/t4-,5+,6-
