18
gdb 70989	3.27629	1.61047	1.4685	1.6405	77.12	-0.2191	-0.0142	0.2049	966.1721	0.146784	-401.792799	-401.785383	-401.784439	-401.82395	30.825	
C	-0.0183541768	 1.5817064012	-0.0459990902	-0.511464
C	-0.0674138148	 0.0834930213	 0.0318187751	 0.303618
O	 0.9611270168	-0.6105584444	-0.8403042087	-0.390495
C	 0.6109405172	-1.7608098182	 0.074469956	 0.32136
C	 1.143523959	-2.8075939246	 1.0901278245	-0.275021
N	 0.4241312776	-1.980278674	 2.1792366187	-0.375521
C	 0.5919463049	-0.8027402322	 1.1980506842	-0.01751
C	-0.8724910478	-1.9603074343	-0.2885589787	-0.152021
C	-1.3278708066	-0.7089225223	-0.3125195446	-0.100458
H	 0.9677886216	 1.9524261285	 0.2438441016	 0.135311
H	-0.2267268565	 1.9190350235	-1.0662954681	 0.137279
H	-0.7681263709	 2.0181530359	 0.6214539891	 0.128491
H	 0.7993886375	-3.8416198165	 0.9905450983	 0.112076
H	 2.2188513998	-2.77648171	 1.2713332914	 0.133754
H	-0.5518067499	-2.2821669247	 2.1751694648	 0.223532
H	 1.5710246087	-0.3731409898	 1.4207719458	 0.104327
H	-1.3640934011	-2.9038067178	-0.4811242387	 0.107687
H	-2.3055365686	-0.3029840215	-0.5291334806	 0.115056
187.1195	221.6719	248.4044	279.0537	348.9921	388.1105	488.2419	551.1504	570.6193	621.8676	662.6078	715.9313	730.3905	783.6807	806.9726	833.1683	850.5629	881.9778	900.1545	902.2913	967.9424	1025.806	1052.8746	1067.5262	1093.6791	1130.7017	1157.8673	1177.5506	1218.4001	1248.7324	1303.8925	1318.518	1330.4484	1394.8852	1412.2682	1475.8301	1488.5379	1490.7804	1625.7814	3041.5584	3056.3215	3088.4358	3111.1056	3125.5806	3133.5931	3219.4062	3249.0381	3450.4985
CC12OC3(CNC13)C=C2	C[C@@]12O[C@]3(CN[C@H]13)C=C2	
InChI=1S/C7H9NO/c1-6-2-3-7(9-6)4-8-5(6)7/h2-3,5,8H,4H2,1H3	InChI=1S/C7H9NO/c1-6-2-3-7(9-6)4-8-5(6)7/h2-3,5,8H,4H2,1H3/t5-,6+,7+/m1/s1
