18
gdb 13947	4.82721	1.3116	1.21749	0.7125	77.3	-0.2487	0.0532	0.3019	1044.5758	0.153328	-310.607215	-310.599412	-310.598468	-310.639489	29.997	
C	-0.0738520616	-1.1938432446	 0.2684564797	-0.460952
C	-0.0667271801	-0.0056422065	 0.0871923895	 0.317793
C	-0.0235616105	 1.4375307811	-0.1431209707	-0.473066
C	 1.3838136858	 1.9897082128	-0.1271749064	 0.395182
C	 2.0824379402	 2.4064376311	 1.1354389625	-0.308312
C	 1.8747234766	 3.4305402439	 0.0493846551	-0.115482
C	 2.9172690867	 3.2319426904	-1.0570275411	-0.218129
C	 2.4225353711	 1.7578328075	-1.2347045554	-0.280501
H	-0.0893944973	-2.2425630682	 0.4325826583	 0.193996
H	-0.4997082221	 1.6613633431	-1.1078750219	 0.126683
H	-0.6258967635	 1.9481112606	 0.6196553256	 0.127314
H	 1.4412476329	 2.5147230787	 2.0051035266	 0.109032
H	 3.0817788738	 2.0411114069	 1.3643058301	 0.103155
H	 1.2998857912	 4.3330348039	 0.2236186984	 0.082646
H	 2.7281761427	 3.8404399621	-1.9440778206	 0.102385
H	 3.9614487784	 3.3697452221	-0.7572185344	 0.096442
H	 3.1480658134	 0.959553107	-1.0506314088	 0.099692
H	 1.9668859924	 1.592164938	-2.2144421962	 0.102121
61.0731	109.154	217.2244	300.1126	345.9446	358.6994	411.8507	447.9177	616.9607	634.7881	682.0047	731.0762	784.2967	841.3623	892.8751	911.6215	938.0546	948.3214	959.4057	974.7464	1028.1736	1029.8022	1087.2298	1104.525	1148.828	1180.2065	1220.2573	1240.8612	1262.1543	1270.9842	1321.6142	1333.7305	1399.6859	1463.205	1482.8241	1486.3595	1513.0405	2236.9935	3007.7557	3041.9787	3044.0027	3052.8865	3093.0224	3100.7917	3112.0104	3172.5694	3193.109	3507.0511
C#CCC12CC1CC2	C#CC[C@]12C[C@H]1CC2	
InChI=1S/C8H10/c1-2-4-8-5-3-7(8)6-8/h1,7H,3-6H2	InChI=1S/C8H10/c1-2-4-8-5-3-7(8)6-8/h1,7H,3-6H2/t7-,8+/m1/s1
