18
gdb 40943	3.55621	1.3298	1.18529	0.9321	71.7	-0.2539	0.0191	0.273	1071.6305	0.149438	-439.075786	-439.068232	-439.067288	-439.108199	28.756	
C	 0.0718590527	 1.5693954135	-0.0358082613	-0.11515
O	 1.3518729679	 1.5308951585	 0.6258617494	-0.270532
C	 1.4544417443	 0.1044290626	 0.4376973914	-0.13323
C	-0.0097552798	 0.0226783669	-0.0254654153	 0.367346
C	-1.0082784563	-0.5923497714	 0.9422432799	-0.292946
C	-2.4122986446	-0.500174312	 0.3366240372	-0.166187
N	-2.4582193647	-0.958828923	-1.0485946737	-0.260325
C	-1.3763737174	-0.970333586	-1.6994603724	 0.113779
O	-0.1311343543	-0.5750604169	-1.3168456361	-0.267977
H	-0.6806023155	 2.1141656779	 0.5465053682	 0.105692
H	 0.1365803393	 1.9900687395	-1.0469697347	 0.109341
H	 2.1655526099	-0.1646934951	-0.3531747542	 0.11188
H	 1.7099474393	-0.4206309324	 1.3649077476	 0.107239
H	-0.7422454818	-1.6440774794	 1.1030025216	 0.11532
H	-0.9487673815	-0.0843568934	 1.9097594367	 0.116579
H	-3.1222960266	-1.0977209665	 0.9174763141	 0.117002
H	-2.7840961986	 0.5334613517	 0.3754187902	 0.115262
H	-1.3415578822	-1.3329878244	-2.7248710187	 0.126908
87.5133	101.6925	187.8536	285.4047	365.9626	393.995	432.0257	506.5184	555.3213	656.0162	797.1382	831.2066	884.8759	893.9022	937.1779	959.9526	966.2797	986.5815	1015.2849	1023.4629	1031.7877	1142.3923	1152.947	1155.1091	1162.8276	1174.2539	1249.8882	1259.8098	1280.905	1304.3328	1358.8685	1378.1444	1387.1755	1411.3351	1479.1488	1491.1192	1500.3327	1525.5948	1735.5029	3009.8719	3012.6009	3023.7681	3036.4114	3067.2595	3068.104	3074.0064	3090.5652	3163.3989
C1OCC11CCN=CO1	C1OCC21CCN=CO2	
InChI=1S/C6H9NO2/c1-2-7-5-9-6(1)3-8-4-6/h5H,1-4H2	InChI=1S/C6H9NO2/c1-2-7-5-9-6(1)3-8-4-6/h5H,1-4H2
