20
gdb 62635	2.72779	1.84016	1.6239	2.95	76.34	-0.2349	0.0695	0.3043	936.7094	0.173227	-403.145055	-403.137648	-403.136704	-403.176176	31.115	
C	-0.1278089259	 1.5588824685	-0.0000882853	-0.469619
C	 0.0106597744	 0.037003806	 0.0235061449	 0.427393
O	-1.280576489	-0.5573454258	-0.1018262276	-0.486211
C	 0.9038447989	-0.5323027503	-1.0757016439	-0.057415
C	 2.2936359726	-0.6012935577	-0.541594175	-0.038422
C	 2.2705023417	-0.0956682669	 0.8983911446	-0.249289
C	 0.8320279194	-0.563119719	 1.207466733	-0.127907
C	 0.926199168	-2.0276421787	 0.7405015028	-0.15517
N	 1.4644434202	-1.8301488554	-0.6329319969	-0.130331
H	 0.8352115219	 2.0733219448	 0.0106704763	 0.125079
H	-0.6663815184	 1.8627917666	-0.9026188086	 0.128197
H	-0.7022687819	 1.9075714223	 0.8673369846	 0.105864
H	-1.8469677097	-0.1754066296	 0.5772919786	 0.27423
H	 0.6525056231	-0.423852351	-2.1239458533	 0.090343
H	 3.1757315293	-0.5552288561	-1.1687226659	 0.089755
H	 3.0168182792	-0.5893339735	 1.5294281298	 0.102544
H	 2.4188959966	 0.9836944975	 0.979108011	 0.100526
H	 0.4466534994	-0.3711714867	 2.2088547945	 0.057783
H	 1.6244175968	-2.6275723555	 1.3315616981	 0.094447
H	-0.0408991764	-2.5281383597	 0.6879098483	 0.118203
191.1407	216.9427	263.4468	284.5766	367.8757	392.7875	450.263	473.4511	553.2087	595.8165	708.0617	740.0152	791.354	843.6593	855.9581	914.611	919.4642	937.9139	941.1493	956.1084	976.6012	1016.5857	1026.3955	1051.2079	1085.0643	1114.3165	1147.8242	1157.8317	1179.7196	1201.3741	1215.2787	1231.5281	1255.5499	1280.3383	1305.5153	1313.4113	1378.8896	1396.8463	1407.7485	1485.1662	1489.4094	1497.4105	1513.5648	3027.5736	3054.25	3065.2045	3095.4822	3103.6221	3119.6147	3130.9764	3136.8452	3181.9277	3192.0569	3804.9015
CC1(O)C2C3CC1CN23	C[C@@]1(O)[C@H]2[C@H]3C[C@@H]1CN23	
InChI=1S/C7H11NO/c1-7(9)4-2-5-6(7)8(5)3-4/h4-6,9H,2-3H2,1H3	InChI=1S/C7H11NO/c1-7(9)4-2-5-6(7)8(5)3-4/h4-6,9H,2-3H2,1H3/t4-,5-,6-,7+,8?/m1/s1
