20
gdb 85952	2.83849	1.22677	1.003	16.105	80.	-0.1557	-0.0357	0.1199	1233.9041	0.17017	-440.234059	-440.224437	-440.223492	-440.268795	35.657	
C	-0.0509451532	 1.5684320166	-0.1758568791	-0.450455
C	 0.017994377	 0.0604371047	-0.0496079353	 0.212071
C	 1.1144340959	-0.682747033	-0.8940499703	-0.274195
C	 1.2763056313	-1.6000814406	 0.3179737131	-0.01431
N	 2.7139398781	-2.0675206261	 0.6308888049	-0.438815
H	 3.3404119966	-1.260598733	 0.6915816226	 0.314907
H	 2.7496275573	-2.5669477405	 1.5226881105	 0.324739
H	 3.0637876782	-2.6886117182	-0.1024985621	 0.324733
C	 0.7022312793	-0.5230269014	 1.2383907147	-0.274184
C	-1.3888795973	-0.6646169625	-0.2671548909	 0.333585
O	-2.3381338455	 0.0853015665	-0.5072971646	-0.451308
O	-1.3326377469	-1.9172364633	-0.1618776052	-0.505988
H	 0.9284512359	 2.0436713055	-0.0223491798	 0.057738
H	-0.4297681281	 1.8434012774	-1.1633456284	 0.131661
H	-0.7606860432	 1.9717683755	 0.5506679424	 0.131628
H	 0.8117150133	-1.1503498879	-1.8312545208	 0.132421
H	 1.9988306881	-0.0473942761	-1.051623203	 0.067785
H	 0.6250188518	-2.4708691704	 0.2572161056	 0.177777
H	 1.4824446753	 0.1527377831	 1.6195374895	 0.067777
H	 0.060844876	-0.8593829164	 2.0533392164	 0.132433
38.7324	115.1435	167.7687	189.2556	220.0711	261.5735	275.7891	313.3065	376.1111	377.9074	430.1138	546.1635	574.6521	739.5055	766.8154	807.6492	825.9345	834.2594	880.8194	905.7678	918.3259	985.7957	1013.3457	1039.6007	1108.4101	1158.834	1183.1894	1188.5806	1215.3235	1241.6333	1256.1854	1285.1492	1317.8017	1345.4269	1404.4868	1426.868	1455.5707	1470.2734	1477.828	1488.9394	1645.5363	1647.0539	1767.4892	2989.675	2993.9944	3003.1319	3099.0296	3125.8188	3127.2066	3127.5992	3151.4065	3391.9843	3492.0236	3505.2329
CC1(CC([NH3+])C1)C([O-])=O	C[C@]1(C[C@@H]([NH3])C1)C(=O)[O]	
InChI=1S/C6H11NO2/c1-6(5(8)9)2-4(7)3-6/h4H,2-3,7H2,1H3,(H,8,9)	InChI=1S/C6H11NO2/c1-6(5(8)9)2-4(7)3-6/h4H,2-3H2,1,7H3/t4-,6-
