23
gdb 120161	3.27484	0.8958	0.81461	1.17	86.83	-0.2565	0.081	0.3375	1545.9878	0.205616	-388.248158	-388.238765	-388.237821	-388.282647	36.207	
C	 0.0741819448	 1.5775204713	-0.186550213	-0.380432
C	-0.0097689278	 0.0580491818	-0.0198700033	-0.158835
C	-1.4402828363	-0.483368925	-0.1524095325	-0.23514
C	-1.5073956241	-2.000581312	-0.0427044936	 0.02756
C	-1.451865784	-2.759396501	 1.3294422621	-0.063454
C	-2.9178110031	-2.3141856666	 1.6008890176	-0.296785
C	-2.8550074555	-2.7579902455	 0.1029913187	 0.378021
O	-3.8493124949	-2.7001579334	-0.8567924519	-0.475548
C	-2.0316236236	-3.9949638361	 0.5834176061	-0.286829
H	 1.1041680767	 1.9352146605	-0.0897698661	 0.109234
H	-0.2956041106	 1.8880063242	-1.1702384627	 0.11405
H	-0.5295079619	 2.0930882564	 0.5688539555	 0.112456
H	 0.6318512367	-0.4283886708	-0.7665389477	 0.093823
H	 0.3969369569	-0.227172371	 0.9591076314	 0.094897
H	-2.0779098658	 0.00494632	 0.5927141342	 0.093579
H	-1.8462421383	-0.1923550167	-1.1308418955	 0.103716
H	-0.8518097409	-2.4499242586	-0.7996979543	 0.059988
H	-0.6331997236	-2.7660357716	 2.0452047237	 0.0777
H	-3.4951867171	-2.9567806883	 2.2725411954	 0.082115
H	-3.1020491721	-1.260943734	 1.813278831	 0.096344
H	-4.5963812301	-3.2292572826	-0.5571450271	 0.281448
H	-1.386121751	-4.472218	-0.1586079929	 0.090772
H	-2.5590590341	-4.7288603312	 1.1997807649	 0.081321
66.6806	86.1023	117.3021	242.0493	247.5709	251.1361	300.5629	330.5286	402.8082	455.27	578.0174	598.7423	648.4384	732.4591	763.7491	792.9278	860.6132	894.9684	908.655	927.8999	943.9428	959.1579	1017.036	1020.1027	1046.2862	1068.5206	1104.6258	1116.5389	1121.4171	1136.9229	1156.5157	1167.8272	1207.6524	1222.3597	1224.2026	1266.7683	1295.9846	1309.9824	1330.3834	1364.2664	1387.0979	1413.3542	1440.6849	1481.2018	1492.3408	1500.0482	1501.2172	1511.2137	1544.7788	3012.4826	3021.0037	3021.5409	3028.6094	3041.6958	3045.978	3057.6197	3071.2832	3095.4121	3099.939	3115.3025	3133.9041	3143.3127	3807.8818
CCCC1C2CC1(O)C2	CCC[C@H]1[C@H]2C[C@]1(O)C2	
InChI=1S/C8H14O/c1-2-3-7-6-4-8(7,9)5-6/h6-7,9H,2-5H2,1H3	InChI=1S/C8H14O/c1-2-3-7-6-4-8(7,9)5-6/h6-7,9H,2-5H2,1H3/t6-,7-,8-/m0/s1
