19
gdb 99223	4.4831	0.78357	0.69755	8.8928	74.55	-0.2329	0.0111	0.244	1598.4464	0.158752	-456.399823	-456.389867	-456.388923	-456.435793	34.938	
C	-0.4078669924	 1.5800046038	-0.4456007268	-0.344066
N	-0.0099408159	 0.2051586963	-0.2294116105	-0.299534
C	-0.822875574	-0.7347369899	 0.3235401909	 0.408577
N	-2.0156817095	-0.5278232788	 0.7599764616	-0.558525
H	-2.8753201972	-1.9679222806	 0.9053301334	 0.332551
H	-2.3360225154	 0.4312286355	 0.6592064693	 0.22014
C	-0.2309213941	-2.1317967813	 0.3877993762	-0.297547
C	-0.8178201454	-3.0509145937	 1.477972176	-0.32593
C	-2.1508227491	-3.7332497027	 1.1351546747	 0.385414
O	-3.1738867641	-2.9246614893	 0.8697347923	-0.376615
O	-2.2597021407	-4.9349469748	 1.1234986649	-0.33981
H	 0.4068098962	 2.1112362197	-0.939775155	 0.141226
H	-1.2968569097	 1.6439790164	-1.0853568137	 0.143853
H	-0.6255751163	 2.0922347466	 0.5002116802	 0.141577
H	 0.9136227863	-0.0730082776	-0.5114366579	 0.255134
H	-0.3437232999	-2.596447293	-0.6003222068	 0.146772
H	 0.8485966988	-2.038345387	 0.5553954242	 0.11193
H	-0.1134571189	-3.8598197981	 1.6769860368	 0.126028
H	-0.9432710188	-2.4757303715	 2.40206461	 0.128825
35.0371	89.7898	103.0674	154.0779	156.7321	211.1585	249.6056	311.1353	335.5561	395.1336	475.3848	561.2043	596.8838	643.4088	743.3047	816.1746	830.2941	845.4741	955.1892	967.4531	986.5974	1039.4547	1075.8568	1157.7819	1178.1631	1189.1831	1213.5061	1236.9152	1313.9372	1316.7696	1356.7248	1404.8046	1455.5947	1468.2149	1468.7631	1483.1811	1519.1195	1526.8934	1552.9365	1695.9822	1845.8423	3014.3197	3028.6067	3041.877	3051.627	3063.6047	3067.0963	3125.8947	3137.7756	3525.4478	3665.5797
CNC(=[NH2+])CCC([O-])=O	CNC(=N)CCC(=O)O	
InChI=1S/C5H10N2O2/c1-7-4(6)2-3-5(8)9/h2-3H2,1H3,(H2,6,7)(H,8,9)	InChI=1S/C5H10N2O2/c1-7-4(6)2-3-5(8)9/h2-3H2,1H3,(H2,6,7)(H,8,9)
