18
gdb 7287	2.86327	1.35257	1.11517	3.2381	65.57	-0.2766	0.0014	0.2779	1123.3242	0.150775	-422.106432	-422.096952	-422.096008	-422.141171	33.299	
C	-0.0419628818	 1.5213458374	-0.0684749759	-0.417042
C	-0.0255488031	 0.0027022297	 0.110855372	 0.144631
O	 0.618545162	-0.3786429952	 1.3159838771	-0.434771
C	-1.4317625257	-0.6188544307	 0.0355228317	 0.095509
C	-1.4168022577	-2.1407663001	 0.0639412299	-0.395921
O	-2.1452369044	-0.131507866	 1.198547537	-0.208422
C	-3.4188696603	 0.2778134773	 1.0554594415	 0.172219
O	-4.0783329387	 0.6722743361	 1.9692453633	-0.274493
H	 0.9751159091	 1.9120744242	 0.0120511616	 0.131729
H	-0.4448206519	 1.8020386411	-1.0478587511	 0.112377
H	-0.6555158388	 1.9979204566	 0.7027065179	 0.129948
H	 0.5708013679	-0.4488583522	-0.6910974512	 0.092166
H	 0.0601761626	-0.069834481	 2.040192833	 0.29261
H	-1.9404785756	-0.2542512044	-0.8669471427	 0.086193
H	-0.9122789681	-2.5284499449	-0.826535255	 0.123881
H	-0.877996543	-2.4906551206	 0.9469777631	 0.148814
H	-2.4342636616	-2.5410529831	 0.0841479946	 0.121145
H	-3.774683601	 0.2119493456	 0.0085902033	 0.07943
43.2692	80.8906	145.3718	207.7266	225.8665	235.9339	243.4371	332.0556	337.1127	406.6448	436.6822	523.5691	571.4866	697.2644	806.5001	912.1034	946.2875	1003.8056	1026.9397	1047.1366	1074.2192	1093.2721	1145.8501	1173.4428	1199.7528	1299.0793	1326.8669	1367.2462	1377.6038	1404.2628	1409.6127	1425.8025	1437.2887	1485.13	1492.4901	1496.959	1501.67	1864.0351	2947.2377	3020.0809	3037.8013	3042.7224	3049.1223	3107.0698	3116.8355	3127.6117	3141.3375	3788.1076
CC(O)C(C)OC=O	C[C@@H](O)[C@@H](C)OC=O	
InChI=1S/C5H10O3/c1-4(7)5(2)8-3-6/h3-5,7H,1-2H3	InChI=1S/C5H10O3/c1-4(7)5(2)8-3-6/h3-5,7H,1-2H3/t4-,5-/m1/s1
