16
gdb 127344	6.92703	0.84326	0.7555	1.6119	81.31	-0.2036	0.0062	0.2098	1464.9432	0.126141	-430.284149	-430.275456	-430.274512	-430.318012	30.663	
C	 0.0312249929	 1.3842133627	 0.1080312195	-0.316461
N	 0.0040255082	-0.055715906	 0.0039196803	 0.0614
C	-0.1575072275	-0.8351792609	-1.0821999092	-0.001679
N	-0.1185920005	-2.1086702881	-0.7524552468	-0.342261
C	 0.0772484474	-2.0641028218	 0.6083464064	 0.431014
N	 0.1867566906	-3.1596856583	 1.4403927927	-0.343807
C	 0.0917991733	-4.3202573062	 0.9049813708	 0.119718
N	 0.2415914325	-5.4546280599	 1.6367922213	-0.500053
N	 0.1575779687	-0.8322445739	 1.1069970464	-0.341813
H	 0.9909517962	 1.7168113241	 0.5126521056	 0.152479
H	-0.1096778782	 1.8117236801	-0.8867256128	 0.137716
H	-0.7682590654	 1.731406543	 0.7680804683	 0.152159
H	-0.2970650582	-0.431552118	-2.0750906292	 0.134309
H	-0.0792883168	-4.479693114	-0.163318888	 0.130681
H	-0.0694601881	-6.3322080758	 1.2595529339	 0.261956
H	 0.264194735	-5.3614585772	 2.6405581507	 0.264641
66.5443	109.9359	139.3135	152.5097	213.8015	303.4372	323.8304	395.0078	428.3865	519.7314	599.5397	638.7179	713.4654	790.877	809.9393	845.5423	1007.3335	1032.2058	1042.331	1076.1306	1120.1033	1153.9956	1234.6096	1297.8233	1324.5338	1341.0545	1371.6102	1452.9359	1460.7759	1471.4505	1508.5005	1528.999	1569.0627	1626.9341	1727.5479	3048.4967	3097.4776	3116.1073	3141.0246	3239.9721	3596.1536	3731.5681
CN1C=NC(N=CN)=N1	Cn1cnc(N=CN)n1	
InChI=1S/C4H7N5/c1-9-3-7-4(8-9)6-2-5/h2-3H,1H3,(H2,5,6,8)	InChI=1S/C4H7N5/c1-9-3-7-4(8-9)6-2-5/h2-3H,1H3,(H2,5,6,8)
