15
gdb 25838	3.82649	1.28013	0.96488	2.8167	75.48	-0.2458	-0.0793	0.1665	1154.9326	0.113689	-416.876823	-416.869135	-416.868191	-416.90963	27.841	
C	-0.0397612392	 1.5050628494	 0.0094405769	-0.478682
C	 0.0323271126	-0.0043807518	 0.0030030243	 0.329023
O	 1.0810897639	-0.6133267631	-0.0076649047	-0.294084
C	-1.2709983284	-0.7601098447	 0.0101636025	 0.18805
N	-2.4149089848	-0.0661238046	 0.0218460941	-0.294178
C	-3.540447364	-0.7777684072	 0.0277979406	-0.026635
C	-3.5280866909	-2.1722311819	 0.0221428981	 0.001309
N	-2.3916123331	-2.8730602851	 0.0104873706	-0.239537
C	-1.2657184013	-2.1598917362	 0.0045523586	-0.023207
H	 0.9719718428	 1.9108122423	 0.0031237724	 0.137968
H	-0.6006017051	 1.8630207276	-0.8594156296	 0.15078
H	-0.5869554394	 1.8562096279	 0.8897008422	 0.150776
H	-4.4775055824	-0.2271809054	 0.0373010823	 0.123705
H	-4.4571246489	-2.7364173773	 0.0271457769	 0.126654
H	-0.3221844517	-2.6949373898	-0.0049517951	 0.148058
64.5023	133.6766	152.1134	203.4062	358.0449	376.7238	444.6292	488.103	595.7192	619.3729	635.097	788.181	792.9624	880.4711	955.476	995.1611	1006.9087	1034.9897	1048.1906	1069.414	1122.69	1198.5818	1246.0065	1300.5967	1316.4544	1387.3506	1431.5915	1453.8167	1465.2006	1500.0664	1578.6018	1608.943	1790.113	3051.3222	3113.292	3158.1345	3161.4761	3176.3639	3199.8379
CC(=O)C1=NC=CN=C1	CC(=O)c1nccnc1	
InChI=1S/C6H6N2O/c1-5(9)6-4-7-2-3-8-6/h2-4H,1H3	InChI=1S/C6H6N2O/c1-5(9)6-4-7-2-3-8-6/h2-4H,1H3
