21
gdb 62878	2.79937	1.54786	1.15108	1.9255	79.53	-0.2481	0.0733	0.3214	1122.2247	0.180337	-424.166828	-424.15751	-424.156565	-424.199835	37.153	
C	-0.0324264317	 1.6287547881	-0.196617535	-0.474516
C	 0.0231965825	 0.10063549	-0.1328908009	 0.450722
O	-1.3205638001	-0.3481138364	-0.2456283254	-0.479885
C	 1.1630572914	-0.6728526213	-0.8965203485	-0.208765
C	 2.128912015	-0.1347171301	 0.2055594284	-0.246942
C	 0.8529734403	-0.6134710614	 0.9770870761	-0.155538
C	 0.9288752661	-1.8991386984	 0.0794016042	 0.484159
C	-0.2132536799	-2.8927827227	-0.0981603947	-0.499598
O	 2.0912121613	-2.6639998722	 0.3870346632	-0.483661
H	 0.9234935142	 2.1373754998	-0.0860865863	 0.12726
H	-0.4477974781	 1.9372645226	-1.165524138	 0.105747
H	-0.709014622	 1.9944246271	 0.58196413	 0.128551
H	-1.7377003718	 0.1526103056	-0.9537320167	 0.275023
H	 1.338263404	-0.7021734719	-1.9751372259	 0.0555
H	 3.0224973779	-0.7247220848	 0.3729153973	 0.129485
H	 2.3489848757	 0.9290564506	 0.2108814499	 0.085338
H	 0.6750148454	-0.5772545891	 2.0537331452	 0.068063
H	 0.0318708665	-3.5749341432	-0.9251078197	 0.093581
H	-0.3025032694	-3.4992573446	 0.8093942773	 0.118659
H	-1.1660352412	-2.4238994069	-0.3139761826	 0.152829
H	 2.0693635341	-3.4524933111	-0.162866098	 0.273987
138.0516	173.484	191.9916	222.1963	241.7098	261.4985	295.8653	377.7517	406.2302	443.1917	459.8615	493.4951	556.2267	594.8652	659.0796	702.0574	761.4262	794.6974	880.0919	892.4475	940.9381	972.9682	1009.8124	1030.203	1056.2053	1061.9924	1081.4039	1104.8684	1129.678	1158.7173	1164.9137	1180.1962	1201.2384	1215.6402	1233.6884	1245.8285	1376.4067	1383.8146	1404.2822	1413.9487	1486.7906	1491.8137	1497.8864	1513.265	1530.4815	3008.2317	3021.9228	3077.3637	3080.1653	3089.7534	3095.2641	3130.7898	3159.5957	3206.807	3214.2666	3814.6441	3826.7058
CC1(O)C2CC1C2(C)O	C[C@@]1(O)[C@H]2C[C@@H]1[C@]2(C)O	
InChI=1S/C7H12O2/c1-6(8)4-3-5(6)7(4,2)9/h4-5,8-9H,3H2,1-2H3	InChI=1S/C7H12O2/c1-6(8)4-3-5(6)7(4,2)9/h4-5,8-9H,3H2,1-2H3/t4-,5+,6-,7-
