17
gdb 46990	2.72166	1.78593	1.45794	3.8623	66.85	-0.2312	-0.023	0.2082	935.4448	0.138418	-458.991311	-458.984324	-458.98338	-459.022788	27.361	
O	 0.072105163	-0.0780967107	 0.0099867272	-0.310417
C	-0.0194472644	 1.1229593982	 0.0463415156	 0.418169
C	-1.3360094073	 1.8862482119	 0.1575383996	-0.327485
C	-1.2008717245	 3.1527195892	 1.0370643974	-0.225885
C	 0.1650424797	 3.8174027991	 0.8374642223	 0.058715
C	 0.4871010984	 4.1436097917	-0.6315080522	-0.096143
O	 1.0694036681	 2.932123988	-1.1252649615	-0.270558
C	 1.2043172349	 2.0531476056	-0.0169879157	 0.068056
O	 1.1930604285	 2.859349774	 1.1393666159	-0.248184
H	-1.6111937749	 2.1731190612	-0.865709122	 0.140545
H	-2.111086605	 1.2085131864	 0.5216521799	 0.128385
H	-2.0060787109	 3.8635758663	 0.8199245015	 0.107266
H	-1.2859071634	 2.8787086842	 2.0937506871	 0.123505
H	 0.3015700988	 4.6695443726	 1.5060202509	 0.097325
H	-0.400849483	 4.3961331373	-1.2207297593	 0.111762
H	 1.2155353667	 4.9576187563	-0.7162328426	 0.116344
H	 2.1387867951	 1.4912320385	-0.0801888342	 0.1086
103.3013	176.573	234.6772	341.4432	414.4095	424.6423	485.41	540.8486	660.2428	756.673	770.4787	812.7054	823.4886	902.455	922.795	955.7826	970.7494	1014.7774	1033.8099	1055.9644	1094.0211	1134.9943	1174.6773	1195.8863	1221.1676	1251.5118	1292.6892	1306.1419	1313.127	1350.2172	1359.0587	1368.1965	1387.1676	1462.6327	1485.2985	1525.8305	1839.1274	3034.7061	3035.2994	3041.6855	3077.9188	3085.9555	3101.2514	3106.0617	3112.8394
O=C1CCC2COC1O2	O=C1CC[C@@H]2CO[C@H]1O2	
InChI=1S/C6H8O3/c7-5-2-1-4-3-8-6(5)9-4/h4,6H,1-3H2	InChI=1S/C6H8O3/c7-5-2-1-4-3-8-6(5)9-4/h4,6H,1-3H2/t4-,6+/m1/s1
