23
gdb 113584	2.66866	1.20187	1.0267	1.1429	85.95	-0.2309	0.0748	0.3058	1300.7632	0.206394	-388.282567	-388.273367	-388.272423	-388.316979	35.049	
C	 0.4552485209	 1.0194741057	-0.2947147717	-0.239201
O	-0.2626880537	-0.0128692576	 0.3512247126	-0.231169
C	 0.4937751253	-0.6710197993	 1.3186067638	 0.081945
C	-0.0133317081	-1.9984887374	 1.7799728017	-0.395052
C	 1.2687592154	-1.9281316048	 0.9739838788	 0.336801
C	 1.3091681129	-2.4452380231	-0.4645858008	-0.276888
C	 2.8085135336	-2.4469093228	-0.8094751589	-0.204905
C	 3.4695525765	-2.8929891784	 0.5062992229	-0.194797
C	 2.6470644425	-2.1846098086	 1.6093002718	-0.287533
H	 1.3401856659	 0.6375335324	-0.8233990251	 0.110366
H	-0.2217069484	 1.4804598437	-1.0179437407	 0.126071
H	 0.7863198397	 1.7871765275	 0.4214283466	 0.106341
H	 0.93948675	-0.0031257263	 2.0606440184	 0.073495
H	 0.0398183364	-2.2349392322	 2.8382958162	 0.106686
H	-0.895830573	-2.3765840452	 1.2729373678	 0.118421
H	 0.920206781	-3.4709682793	-0.5080596993	 0.094854
H	 0.6981142489	-1.8409594888	-1.139869461	 0.105864
H	 3.0548281791	-3.0945485399	-1.6558541686	 0.091376
H	 3.1360645193	-1.4319234685	-1.0680712673	 0.095383
H	 3.3723131002	-3.9802266464	 0.6096804899	 0.098796
H	 4.5367143981	-2.6592304567	 0.5574548898	 0.092028
H	 3.1204300341	-1.2370455732	 1.8945505143	 0.094669
H	 2.5808208935	-2.7893233607	 2.5195126589	 0.096447
43.2649	117.0422	144.1201	166.9809	217.9666	273.5823	321.6619	369.6069	459.0601	471.6794	542.4025	592.5569	731.9828	791.3283	830.3092	858.3649	869.7361	905.5356	908.6987	960.7266	976.7393	1011.1154	1029.411	1041.8231	1073.0855	1094.4565	1125.8475	1155.4478	1182.3625	1183.8004	1184.415	1219.7456	1245.8629	1247.0506	1268.5003	1292.667	1310.5018	1340.2017	1344.157	1363.8045	1406.8162	1470.3722	1484.4536	1487.35	1489.9213	1493.8226	1498.3079	1509.8937	1515.8309	2981.5174	3019.0862	3024.7963	3027.8782	3032.6147	3035.7315	3062.0469	3067.8277	3085.586	3092.5872	3098.2956	3116.5071	3119.5263	3207.9888
COC1CC11CCCC1	CO[C@H]1CC21CCCC2	
InChI=1S/C8H14O/c1-9-7-6-8(7)4-2-3-5-8/h7H,2-6H2,1H3	InChI=1S/C8H14O/c1-9-7-6-8(7)4-2-3-5-8/h7H,2-6H2,1H3/t7-/m0/s1
