13
gdb 131361	5.58317	0.86625	0.76398	1.8181	62.57	-0.2359	-0.0236	0.2122	1358.6725	0.089374	-489.915419	-489.90754	-489.906596	-489.948551	28.187	
O	 0.5712507964	 1.1626449402	 0.3320347149	-0.424136
C	 0.1870456079	-0.1081482764	 0.11367243	 0.45023
N	-0.2763613033	-0.5051383599	-1.0605180173	-0.326643
N	-0.5396330257	-1.8300662948	-0.8747525429	-0.273236
C	-0.2623718352	-2.2266012557	 0.3834679004	 0.478053
O	-0.5123287343	-3.5163941372	 0.74095461	-0.220446
C	 0.4654475584	-4.1868616466	 1.4359329741	 0.159785
O	 0.2856355476	-5.2823957257	 1.8562682238	-0.241675
C	 0.2220488494	-1.1410993778	 1.0813699321	-0.43918
H	 0.4299595208	 1.6488393343	-0.4906623614	 0.306908
H	-0.9353852528	-2.38005694	-1.6173341851	 0.286635
H	 1.3860489683	-3.5877400371	 1.5320348609	 0.115201
H	 0.5166452626	-1.0844278633	 2.1145053307	 0.128504
62.0823	121.6984	145.6484	272.2497	333.2672	372.0282	419.3087	436.5564	478.5844	519.9517	677.8044	706.9971	715.5521	773.1171	847.9989	995.5776	1043.7385	1058.0302	1096.6044	1142.6316	1189.4553	1239.1481	1326.1278	1405.1256	1453.0281	1547.9428	1568.3723	1619.2045	1887.0598	3012.4612	3287.036	3686.5913	3789.6043
OC1=NNC(OC=O)=C1	Oc1n[nH]c(OC=O)c1	
InChI=1S/C4H4N2O3/c7-2-9-4-1-3(8)5-6-4/h1-2H,(H2,5,6,8)	InChI=1S/C4H4N2O3/c7-2-9-4-1-3(8)5-6-4/h1-2H,(H2,5,6,8)
