18
gdb 127081	2.61333	1.37302	1.09676	4.329	75.42	-0.2117	0.0139	0.2256	1165.6502	0.148583	-431.426744	-431.417574	-431.41663	-431.461029	33.392	
C	 0.2558335616	 1.089012301	-0.4831407286	-0.322017
N	 0.0171983093	-0.1275170336	 0.295346064	-0.185825
C	 0.4592666855	 0.0123734916	 1.6849540159	-0.326519
C	-1.2933201756	-0.6298462699	 0.1694021638	 0.287082
C	-1.628979911	-1.889251036	-0.2912447194	 0.276133
N	-0.8234107593	-2.9567087774	-0.6607551302	-0.608233
N	-2.9778645667	-1.9094660415	-0.2229708389	-0.232208
N	-3.469234273	-0.720643208	 0.2428172439	-0.138999
N	-2.4447550742	 0.034856174	 0.4843265132	-0.240983
H	 1.3252941192	 1.3245202714	-0.4648628485	 0.111243
H	-0.0446393036	 0.9232969103	-1.5209222469	 0.118005
H	-0.299087978	 1.9588304964	-0.0986738627	 0.122595
H	-0.0766537216	 0.8091229176	 2.2249599498	 0.119468
H	 0.2992739823	-0.9295015262	 2.2158802455	 0.122574
H	 1.5300608288	 0.2422951212	 1.7029233718	 0.111736
H	 0.1400599869	-2.641462544	-0.7075382162	 0.259317
H	-1.0870204263	-3.395246691	-1.5351496404	 0.251994
H	-3.6157640442	-2.6575461859	-0.4393904961	 0.274638
37.2443	149.1309	154.8985	215.6465	235.6884	281.6713	287.0278	294.2721	375.2845	472.1189	505.8086	534.2562	620.8921	697.0768	739.1552	770.3586	815.0377	953.6437	1009.5231	1013.5737	1057.9055	1107.525	1116.3869	1185.4281	1213.2099	1227.5187	1237.0402	1306.3872	1357.5083	1411.7301	1438.9434	1466.6711	1478.2285	1492.4098	1500.5809	1512.4492	1540.3244	1630.9473	1670.828	2980.7248	2988.1115	3064.8725	3066.4913	3112.0734	3114.9124	3512.5778	3602.4277	3664.0696
CN(C)C1=C(N)NN=N1	CN(C)c1c(N)[nH]nn1	
InChI=1S/C4H9N5/c1-9(2)4-3(5)6-8-7-4/h1-2H3,(H3,5,6,7,8)	InChI=1S/C4H9N5/c1-9(2)4-3(5)6-8-7-4/h1-2H3,(H3,5,6,7,8)
