20
gdb 117574	2.81841	0.99909	0.81514	0.9729	82.16	-0.2394	0.0416	0.281	1470.8787	0.168156	-403.061089	-403.050959	-403.050015	-403.096791	36.127	
C	 0.414225989	 1.5291644656	 0.2824672272	-0.225865
O	 0.902746012	 0.2780817022	-0.1376605154	-0.229553
C	-0.0839433562	-0.518479627	-0.7445868519	-0.048432
C	 0.5412524645	-1.8740660359	-1.1068401124	-0.150018
C	 0.9942329773	-2.5949641953	 0.0889460671	 0.349305
C	 1.3341503745	-3.2254299776	 1.0553659469	-0.492637
N	-0.4173893539	-2.5929086585	-1.9612706496	-0.085095
C	-0.2604000647	-4.0303865789	-2.1465704887	-0.226497
C	-1.3912492032	-3.4903685337	-1.3427162699	-0.226484
H	 0.0245420555	 2.1209800331	-0.5610861525	 0.104378
H	-0.3904207643	 1.4236354363	 1.0272299186	 0.105471
H	 1.2480358971	 2.0691830108	 0.7372629056	 0.128488
H	-0.941265643	-0.6717572005	-0.0688202437	 0.091869
H	-0.4615202924	-0.0582265136	-1.6704598354	 0.100743
H	 1.4177150565	-1.6632387814	-1.732459102	 0.123191
H	 1.6535758792	-3.7620372064	 1.9146140579	 0.199733
H	-0.4180119836	-4.3847292881	-3.1612230436	 0.115946
H	 0.5287401299	-4.5349841049	-1.5940296999	 0.124994
H	-1.3375932315	-3.643008237	-0.2675025239	 0.12544
H	-2.3936558229	-3.439682929	-1.7575418844	 0.115024
66.6682	78.0024	95.7576	143.8916	161.7309	207.7563	236.0019	311.0364	330.3116	380.0233	430.6846	585.4825	591.369	630.3162	658.979	792.5878	822.9485	849.7579	903.0083	1000.9302	1025.0297	1051.6128	1078.9381	1108.2741	1121.0194	1130.8562	1169.2308	1175.8022	1185.6	1191.221	1233.3356	1243.8828	1297.9792	1320.8318	1355.3229	1407.6663	1479.8787	1483.5596	1485.4609	1502.8587	1512.5899	1527.3348	2223.1316	2963.6819	2975.3995	3009.5464	3014.7488	3037.3945	3105.9485	3109.4776	3115.8912	3188.2008	3201.8805	3500.9725
COCC(C#C)N1CC1	COC[C@@H](C#C)N1CC1	
InChI=1S/C7H11NO/c1-3-7(6-9-2)8-4-5-8/h1,7H,4-6H2,2H3	InChI=1S/C7H11NO/c1-3-7(6-9-2)8-4-5-8/h1,7H,4-6H2,2H3/t7-/m1/s1
