18
gdb 7774	3.31598	1.65005	1.17633	2.3893	69.23	-0.2477	0.0115	0.2591	1009.2757	0.154644	-384.949873	-384.942061	-384.941117	-384.981687	30.333	
O	-0.1244588985	 1.4331354726	 0.0515783561	-0.438174
C	-0.002852787	 0.0177330477	 0.0195367421	 0.115681
C	 0.7264380892	-0.529319764	 1.2557302917	-0.278864
C	 0.5514744065	-2.0200963386	 1.3942139957	-0.063509
C	-0.3718077571	-2.7130909696	 0.728093079	-0.088458
C	-1.3707438491	-2.0902105052	-0.2169201854	 0.090233
O	-2.6626571864	-2.6750702959	-0.0639821011	-0.436499
C	-1.410691074	-0.5640342201	-0.062188757	-0.220996
H	 0.7616456881	 1.8077309597	 0.0886017213	 0.279305
H	 0.5557568379	-0.2943494667	-0.8795677382	 0.068986
H	 1.795680868	-0.2800324102	 1.2084921296	 0.09395
H	 0.3357669021	-0.0131417691	 2.1446377092	 0.117429
H	 1.229696945	-2.5355362439	 2.0703974757	 0.091123
H	-0.4541465579	-3.7906246637	 0.8481755616	 0.093715
H	-1.0931879899	-2.3428531905	-1.2495603077	 0.097586
H	-2.9372970266	-2.5248867033	 0.8477422979	 0.274627
H	-1.9477099597	-0.3106227286	 0.8620525801	 0.092645
H	-1.9599393007	-0.1100413305	-0.8913478306	 0.11122
116.3909	159.3574	273.4051	286.3927	313.3695	342.3211	403.5792	440.4341	454.6979	486.4704	568.7492	689.8026	754.7693	865.5284	907.0028	931.805	960.2466	1010.2865	1049.4767	1053.0296	1071.0884	1106.447	1117.3586	1140.5401	1206.2467	1224.5167	1260.9008	1285.5142	1319.2733	1330.0498	1363.1039	1382.4224	1402.8191	1426.3555	1443.5853	1477.0805	1496.9761	1716.3125	2951.7946	3002.4614	3011.1288	3025.7561	3032.8051	3097.3711	3144.887	3169.5228	3795.3175	3812.1033
OC1CC=CC(O)C1	O[C@H]1CC=C[C@@H](O)C1	
InChI=1S/C6H10O2/c7-5-2-1-3-6(8)4-5/h1-2,5-8H,3-4H2	InChI=1S/C6H10O2/c7-5-2-1-3-6(8)4-5/h1-2,5-8H,3-4H2/t5-,6+/m1/s1
