14
gdb 15613	3.60284	1.87392	1.25224	3.5748	64.14	-0.2656	-0.0378	0.2277	925.5337	0.107269	-415.87167	-415.864011	-415.863067	-415.904705	26.023	
C	-0.0707175776	 1.4477145729	-0.0434072568	-0.341157
N	-0.1073980584	-0.0020658148	-0.0813666064	-0.280348
C	 0.5733626359	-0.6304329637	-0.9253200418	 0.368797
O	 1.4035729688	-0.0879809787	-1.8809370786	-0.25242
C	 1.988214222	-1.1323710672	-2.6330956797	 0.022286
O	 1.4998300841	-2.3608762829	-2.1223867483	-0.238693
C	 0.6384908902	-2.1118865549	-1.0859136275	 0.321742
N	 0.0254405831	-2.974796628	-0.4066614816	-0.502382
H	 0.5862806947	 1.9091273201	-0.7891593038	 0.125027
H	-1.089222297	 1.8270621264	-0.1824700172	 0.13859
H	 0.2476734372	 1.763324512	 0.9563359434	 0.138534
H	 1.7025528523	-1.0338351194	-3.6870603649	 0.132772
H	 3.0789945231	-1.0988093265	-2.5270865816	 0.132756
H	 0.2510621018	-3.9178037755	-0.7274698752	 0.234497
51.0503	107.3492	125.8677	196.8971	208.6423	358.6595	502.6607	570.7629	632.5545	762.7045	767.9037	785.8951	890.1353	981.5638	1020.8132	1059.5131	1088.1359	1128.8459	1148.5667	1171.657	1192.7187	1209.8931	1328.4311	1436.4918	1447.1664	1491.1767	1494.1863	1549.5614	1779.4372	1821.0173	3019.6219	3024.7119	3071.3956	3084.4651	3092.6526	3482.703
CN=C1OCOC1=N	CN=C1OCO[C]1[NH]	
InChI=1S/C4H6N2O2/c1-6-4-3(5)7-2-8-4/h5H,2H2,1H3	InChI=1S/C4H6N2O2/c1-6-4-3(5)7-2-8-4/h5H,2H2,1H3
