17
gdb 71864	3.15442	1.58013	1.29144	4.8443	71.82	-0.2554	0.0103	0.2657	1002.6339	0.137296	-421.847569	-421.840491	-421.839547	-421.878876	28.278	
C	-0.0555621232	 1.5174052755	 0.0034233001	-0.500967
C	 0.0277807193	 0.0199143019	-0.0419679596	 0.324285
C	 0.847084928	-0.8010173663	-1.0414972056	-0.299537
C	-0.0794807975	-2.0075960792	-0.7185034311	 0.072168
O	 0.5202735421	-2.8078640211	 0.3109069154	-0.235414
C	 0.529880235	-2.0734330395	 1.4703641078	 0.452781
O	 1.060268938	-2.4526561799	 2.4736940599	-0.352365
C	-0.2554909091	-0.823086564	 1.2210088186	-0.255577
C	-1.0669776528	-1.0258003612	-0.0299807445	-0.135007
H	 0.8905894659	 1.9539611684	 0.34218568	 0.134869
H	-0.2741627246	 1.9242781128	-0.9901191126	 0.125573
H	-0.8418184579	 1.8546175022	 0.6860793367	 0.126377
H	 0.6863434817	-0.4356370563	-2.0600441785	 0.109762
H	 1.9165589961	-0.9524884707	-0.8645717215	 0.112978
H	-0.4078159984	-2.6636299789	-1.5201777483	 0.101557
H	-0.6524001026	-0.2947841788	 2.0771213107	 0.115115
H	-2.14420722	-0.960924105	-0.1074406376	 0.103404
150.64	202.5039	206.9561	287.127	395.7685	448.6121	473.752	575.9061	647.8604	695.864	718.6795	815.2246	851.5991	884.2727	895.1726	898.2501	910.269	953.8389	999.5931	1005.4076	1028.2979	1070.6761	1113.2193	1158.6046	1163.5848	1197.0359	1201.6422	1228.5332	1280.8933	1309.6446	1351.2637	1406.2741	1427.4227	1485.4468	1490.0958	1498.0776	1882.8153	3028.6939	3047.2829	3091.5218	3103.0651	3104.6076	3157.6662	3202.7658	3219.6982
CC12CC3OC(=O)C1C23	C[C@@]12C[C@H]3OC(=O)[C@@H]1[C@@H]23	
InChI=1S/C7H8O2/c1-7-2-3-4(7)5(7)6(8)9-3/h3-5H,2H2,1H3	InChI=1S/C7H8O2/c1-7-2-3-4(7)5(7)6(8)9-3/h3-5H,2H2,1H3/t3-,4+,5+,7+/m1/s1
