19
gdb 92375	2.48094	1.85471	1.38764	2.8215	69.58	-0.241	0.059	0.3	973.0801	0.160921	-460.169563	-460.16186	-460.160916	-460.201191	31.497	
O	-0.321994589	 1.42051569	-0.0359120341	-0.455192
C	-0.085143398	 0.0125596586	-0.0165973595	 0.056302
C	 0.5991347304	-0.4949462882	 1.2856355514	-0.253942
C	-0.5235237564	-1.3404302187	 1.9306697348	 0.101483
C	-1.7854021289	-0.5510028421	 1.5772603841	-0.296663
C	-1.4820158017	-0.6472796504	 0.0572591207	 0.394653
O	-2.3994005005	-0.148430142	-0.8668647919	-0.51082
C	-1.2846141964	-2.1656208946	-0.0736764134	-0.108573
O	-0.6668149908	-2.5508144883	 1.1629882694	-0.28087
H	 0.5008344104	 1.8706679356	-0.2465592465	 0.290655
H	 0.4461549677	-0.2903012085	-0.9276613102	 0.072097
H	 1.4901372063	-1.0990229255	 1.0998646082	 0.107353
H	 0.8731854337	 0.3576815614	 1.9150735914	 0.100947
H	-0.3577511408	-1.6190739803	 2.9710490126	 0.076992
H	-2.7088013152	-1.0605159729	 1.8592193584	 0.105884
H	-1.7866104068	 0.4773375814	 1.9435986225	 0.108764
H	-2.2191431254	 0.7986276035	-0.9317172498	 0.286903
H	-2.2511974637	-2.6702067838	-0.1941346288	 0.108304
H	-0.6415491452	-2.4371416753	-0.9204360692	 0.095722
139.004	221.8339	248.4631	297.3298	350.8414	385.9723	422.042	454.4372	465.9636	520.5612	620.7542	642.7128	762.3615	808.4195	853.3593	872.8783	920.0214	934.763	956.612	975.4319	1020.8782	1044.5528	1073.6092	1098.2774	1122.8119	1158.0546	1180.1041	1197.1348	1210.8688	1243.6341	1264.0826	1265.1872	1306.1034	1325.0364	1347.6068	1379.6723	1419.9942	1427.0573	1464.89	1492.7691	1531.6261	3013.98	3021.8197	3054.6772	3055.3605	3079.3404	3114.3262	3122.4985	3140.4061	3768.4762	3837.5868
OC1CC2CC1(O)CO2	O[C@H]1C[C@H]2C[C@]1(O)CO2	
InChI=1S/C6H10O3/c7-5-1-4-2-6(5,8)3-9-4/h4-5,7-8H,1-3H2	InChI=1S/C6H10O3/c7-5-1-4-2-6(5,8)3-9-4/h4-5,7-8H,1-3H2/t4-,5-,6-/m0/s1
