16
gdb 6305	4.04562	1.17645	1.02702	3.2097	67.93	-0.2469	0.0408	0.2877	1149.3463	0.128933	-379.929519	-379.920349	-379.919405	-379.963671	33.096	
C	-0.0172066389	 1.5599935313	 0.0145133472	-0.389251
C	 0.039409671	 0.0201104796	-0.0072197494	-0.118315
N	 0.6794444759	-0.504213648	-1.212722008	-0.341429
C	-0.0406084942	-0.589878171	-2.383147901	 0.467646
N	 0.7226725886	-0.9377730424	-3.4916116669	-0.569359
O	-1.2355737802	-0.3627523973	-2.4484339186	-0.39639
C	 0.7160023779	-0.5107947099	 1.1771052298	 0.294651
C	 1.2928838699	-0.9119162244	 2.1519066044	-0.434727
H	 0.9911968118	 1.9845440137	 0.0045417281	 0.115396
H	-0.5660320382	 1.9086578515	-0.8631310265	 0.144942
H	-0.5277838398	 1.9103535391	 0.9157618776	 0.127902
H	-0.9886541967	-0.3551164562	-0.0392380875	 0.147201
H	 1.6829296884	-0.4213189271	-1.2632630726	 0.243473
H	 1.5147340535	-1.5444555619	-3.3385565316	 0.248938
H	 0.1496877315	-1.2076258113	-4.2771335006	 0.261213
H	 1.7847557995	-1.2798351256	 3.0182307556	 0.198107
44.2865	85.525	150.4765	181.8143	243.6764	294.7889	354.8883	392.7553	425.0896	445.292	542.9476	562.2708	573.6393	625.3521	643.534	662.1785	777.7699	854.0902	923.8417	1026.8348	1071.2307	1096.5946	1117.2761	1175.2135	1285.1917	1338.5382	1376.4847	1396.3191	1487.2732	1495.3	1528.6581	1627.1182	1794.3429	2240.4087	3044.122	3067.4756	3120.4369	3137.4226	3503.4431	3571.478	3624.7973	3684.9542
CC(NC(N)=O)C#C	C[C@@H](NC(=O)N)C#C	
InChI=1S/C5H8N2O/c1-3-4(2)7-5(6)8/h1,4H,2H3,(H3,6,7,8)	InChI=1S/C5H8N2O/c1-3-4(2)7-5(6)8/h1,4H,2H3,(H3,6,7,8)/t4-/m1/s1
