20
gdb 33495	2.60423	1.18478	0.91189	1.0542	85.29	-0.2372	0.038	0.2752	1333.5547	0.169987	-365.937399	-365.928162	-365.927217	-365.971781	35.065	
C	-0.3099460375	-1.1841064719	 0.4895714228	-0.468037
C	-0.2268559438	 0.0015985842	 0.3019096606	 0.31387
C	-0.1185697668	 1.4220291333	 0.0773253365	 0.139815
C	-1.2955178376	 2.1014245533	-0.6126673713	-0.292271
C	-1.4878321845	 1.6526237803	-2.0454099947	 0.043985
C	-2.3516810323	 0.462247221	-2.3769368288	-0.247513
C	-2.8145530997	 1.8534495736	-2.7327285152	-0.281701
C	 0.7288860123	 2.1927800007	 1.0405448701	-0.277514
N	 1.211117644	 1.9532843428	-0.3240630651	-0.345826
H	-0.3861475228	-2.2307813569	 0.650909793	 0.196239
H	-2.2080179683	 1.9138820762	-0.0333815467	 0.097824
H	-1.1118746804	 3.1818027054	-0.5867553947	 0.105994
H	-0.6038569537	 1.7898520106	-2.6617471398	 0.092465
H	-2.0344906555	-0.1975995716	-3.1766982794	 0.109009
H	-2.8492647037	-0.0449106534	-1.5574034792	 0.113697
H	-3.62644801	 2.2811614577	-2.1527288292	 0.106857
H	-2.8146187719	 2.1489955019	-3.7761084051	 0.109171
H	 0.4641050516	 3.2239291957	 1.2591263668	 0.121479
H	 1.1824235057	 1.6486817709	 1.8634243874	 0.122576
H	 1.8913100851	 1.1972338361	-0.320897928	 0.239883
58.7429	83.9664	135.8825	175.2451	229.2543	281.0807	336.6098	392.8738	415.0207	550.8237	568.2448	595.148	652.4525	704.3084	771.459	806.3684	821.8447	844.4572	908.3615	914.5883	931.9415	964.5615	987.9597	1015.718	1058.2834	1077.196	1081.358	1131.1672	1143.2107	1157.2099	1198.5686	1225.4311	1244.9945	1268.3227	1308.7066	1338.7378	1369.9593	1416.1247	1466.5709	1474.97	1504.4803	1509.4362	2230.1661	3026.2621	3069.6085	3110.8583	3127.854	3136.7912	3150.2401	3202.2303	3206.4042	3223.4608	3502.9933	3507.312
C#CC1(CC2CC2)CN1	C#C[C@@]1(CC2CC2)CN1	
InChI=1S/C8H11N/c1-2-8(6-9-8)5-7-3-4-7/h1,7,9H,3-6H2	InChI=1S/C8H11N/c1-2-8(6-9-8)5-7-3-4-7/h1,7,9H,3-6H2/t8-/m1/s1
