18
gdb 108957	3.35945	1.25276	1.19149	2.1295	72.02	-0.2092	0.0479	0.2571	1119.1012	0.149411	-435.249681	-435.241109	-435.240165	-435.282787	32.095	
C	-0.0397623493	 1.4044902676	 0.1108741374	-0.23507
O	 0.0143775834	-0.0254846214	 0.1228467825	-0.25899
C	 0.7135857601	-0.5579783695	 1.1244361507	 0.474518
N	 1.3268775671	 0.0784923262	 2.0590649255	-0.375579
C	 1.8236682445	-0.9428892668	 2.9516766855	-0.041657
C	 0.7986460181	-1.8085673302	 3.6693344581	-0.013473
N	-0.5706915678	-1.4033143923	 3.789893938	-0.530313
C	 1.4343081522	-2.3042849743	 2.37101672	-0.072607
N	 0.8036167319	-1.9351551513	 1.132298145	-0.355693
H	 0.9625294034	 1.8254887398	-0.0016255173	 0.145757
H	-0.6648595568	 1.6692910772	-0.7422870983	 0.131143
H	-0.4747601176	 1.7806662386	 1.0408007503	 0.138928
H	 2.7755189511	-0.7441686178	 3.4292466735	 0.09449
H	 1.2056073913	-2.308253159	 4.546923636	 0.092131
H	-0.6858076659	-0.4482365997	 3.4661773996	 0.238368
H	-1.1927727426	-1.9872073695	 3.2411919939	 0.220335
H	 2.0703052971	-3.1817365516	 2.3530128023	 0.098629
H	 0.0751295999	-2.488259726	 0.7084578771	 0.249083
97.491	136.3321	167.5782	200.7621	237.4987	253.9855	326.6015	388.2453	484.5875	557.5246	651.5326	690.5812	721.2332	762.3646	777.7666	817.0167	830.785	942.3239	976.8602	1028.2255	1038.091	1061.7053	1096.1628	1130.9301	1145.2953	1183.2968	1224.906	1248.1434	1264.7465	1296.2825	1330.0915	1356.4458	1396.1621	1448.1827	1477.1181	1496.5615	1510.3162	1660.3561	1676.2419	3048.7577	3113.4914	3123.4834	3155.7595	3169.3493	3181.9363	3498.6521	3571.1229	3631.0037
COC1=NC2C(N)C2N1	COC1=N[C@H]2[C@@H](N)[C@H]2N1	
InChI=1S/C5H9N3O/c1-9-5-7-3-2(6)4(3)8-5/h2-4H,6H2,1H3,(H,7,8)	InChI=1S/C5H9N3O/c1-9-5-7-3-2(6)4(3)8-5/h2-4H,6H2,1H3,(H,7,8)/t2-,3+,4-
