18
gdb 65617	3.27381	1.32764	1.20657	2.0004	78.1	-0.2322	0.0341	0.2663	1089.7576	0.146541	-401.864071	-401.855638	-401.854693	-401.896825	32.594	
C	 0.155766271	 1.463936145	-0.0115994258	-0.433281
C	 0.0322645001	-0.0556725648	-0.0018095777	 0.100066
N	 1.0155154314	-0.7523234263	-0.916955337	-0.365251
C	 1.4888027168	-1.6357153599	 0.1779982508	-0.044204
C	 2.7250340234	-1.0493074706	 0.8783427605	-0.071961
O	 1.8812261769	-0.2075417882	 1.7145728556	-0.293755
C	 0.6860443266	-0.8169721331	 1.2100365404	 0.07317
C	-1.3372452544	-0.5071991627	-0.2126927686	 0.312796
C	-2.4573125052	-0.9099659383	-0.3903137381	-0.474074
H	 1.1740615791	 1.7437555668	 0.2640156844	 0.136802
H	-0.066787646	 1.8526772744	-1.0091545436	 0.123291
H	-0.5435134753	 1.913688014	 0.6996186943	 0.122096
H	 0.5507046646	-1.2520150528	-1.6665430997	 0.225689
H	 1.4199491608	-2.7116223932	 0.0187528106	 0.084964
H	 3.2950868956	-1.7571066445	 1.4929839959	 0.101639
H	 3.3966082914	-0.4678911505	 0.2396075067	 0.113972
H	 0.0216879242	-1.1836621304	 1.9939712273	 0.088639
H	-3.450057381	-1.2525258047	-0.5492883162	 0.199402
98.8168	139.0498	178.5113	207.7686	247.9933	338.3836	411.2881	439.8152	478.3135	552.4791	625.4038	632.6326	642.5202	716.6872	796.839	807.446	864.0743	918.1583	941.7977	951.2398	1001.0508	1010.0151	1040.6567	1081.2134	1132.3677	1151.7938	1169.5325	1184.9878	1209.9863	1229.1595	1288.6853	1316.1685	1351.7027	1390.7179	1404.8554	1481.1871	1486.7514	1504.5627	2222.4202	3021.0364	3046.9574	3091.1375	3097.7217	3114.4059	3118.9072	3142.8043	3499.6653	3544.5003
CC1(NC2COC12)C#C	C[C@]1(N[C@H]2CO[C@@H]12)C#C	
InChI=1S/C7H9NO/c1-3-7(2)6-5(8-7)4-9-6/h1,5-6,8H,4H2,2H3	InChI=1S/C7H9NO/c1-3-7(2)6-5(8-7)4-9-6/h1,5-6,8H,4H2,2H3/t5-,6+,7-/m0/s1
