18
gdb 5619	3.13039	1.84909	1.18239	1.288	75.64	-0.1693	0.061	0.2304	1024.5055	0.154757	-344.014583	-344.006057	-344.005113	-344.047285	31.566	
C	 0.0540863405	 1.4103591897	 0.0623242739	-0.317881
N	-0.1133475194	-0.0270146352	-0.0354845157	-0.381577
C	 0.5778974915	-0.6799608341	-1.0660500616	 0.214937
C	 1.2084803948	-0.1118948351	-2.1545378324	-0.172078
N	 1.6881482105	-1.1451877599	-2.9359649559	-0.255217
C	 1.3825454205	-2.3442606497	-2.3544253431	-0.157654
C	 0.6893179305	-2.103371622	-1.1893097614	 0.193357
C	 0.1394646533	-3.1122018083	-0.2293118987	-0.518785
H	 1.1078693572	 1.7321220326	 0.1284420045	 0.101011
H	-0.3835273043	 1.8912020524	-0.8202573029	 0.126112
H	-0.4798432353	 1.7801249252	 0.941456641	 0.115253
H	 0.0147606178	-0.4883766777	 0.8552668075	 0.226938
H	 1.3468064571	 0.9163764846	-2.441487391	 0.105815
H	 2.1834248933	-1.029315935	-3.8005320815	 0.255196
H	 1.6737512586	-3.2782807553	-2.8091214788	 0.109412
H	 0.612942836	-3.0492233909	 0.7605867426	 0.111072
H	-0.9379715085	-2.9767748781	-0.0735245393	 0.126181
H	 0.2971501759	-4.1309966932	-0.5950361372	 0.117909
91.3199	142.857	178.7619	207.3188	243.9025	282.9695	306.2347	382.7907	490.4672	573.7807	616.7365	621.7171	639.6662	717.1641	737.0898	772.4758	907.1318	996.2805	1062.037	1065.4564	1084.7238	1125.804	1157.8688	1169.2002	1220.4381	1271.2989	1350.7223	1387.7725	1416.8664	1457.8817	1473.358	1480.7013	1481.2705	1496.2865	1503.6588	1524.0549	1578.0558	1644.4834	2953.7	3003.7855	3050.4963	3052.4887	3101.5245	3110.2813	3253.2541	3277.7478	3562.8053	3703.7177
CNC1=CNC=C1C	CNc1c[nH]cc1C	
InChI=1S/C6H10N2/c1-5-3-8-4-6(5)7-2/h3-4,7-8H,1-2H3	InChI=1S/C6H10N2/c1-5-3-8-4-6(5)7-2/h3-4,7-8H,1-2H3
