27
gdb 121842	3.72513	0.69099	0.68062	0.9224	93.74	-0.2494	0.0778	0.3272	1887.1217	0.248688	-390.701654	-390.689473	-390.688529	-390.739335	44.027	
C	 0.0147187856	 1.4865319278	 0.0102347629	-0.386183
C	-0.0015305776	-0.0327695609	 0.0020338433	-0.025254
O	-1.34307228	-0.470963303	 0.0123387531	-0.251837
C	-1.4775785076	-1.8763180466	 0.0060100638	-0.059959
C	-2.9663124194	-2.266900386	 0.0181576725	 0.243761
C	-3.6223685964	-1.6954324695	 1.2889373419	-0.409481
C	-3.646485748	-1.682008669	-1.2336952199	-0.409484
C	-3.0188058293	-3.8146752643	 0.0104262758	-0.184515
C	-4.4154812278	-4.4460753032	 0.0205360434	-0.401853
H	 1.0439995276	 1.8575846291	 0.0025011968	 0.113509
H	-0.5032410154	 1.8806909043	-0.868819037	 0.1257
H	-0.4864169566	 1.8709476312	 0.9032446698	 0.125699
H	 0.5184411315	-0.4205196194	-0.8909516345	 0.083641
H	 0.5352310396	-0.4302663042	 0.8806832804	 0.083641
H	-0.9872349093	-2.2981049622	-0.8890729661	 0.076774
H	-0.9702292861	-2.3077114877	 0.8869237294	 0.076771
H	-3.4650032481	-0.6157269896	 1.3433560563	 0.127887
H	-4.6999164398	-1.8830480486	 1.3033092191	 0.10781
H	-3.1907536222	-2.1445008641	 2.1912448005	 0.100976
H	-3.2322182911	-2.121378188	-2.148817703	 0.100979
H	-4.7241244618	-1.8696049455	-1.2294777595	 0.107811
H	-3.4901150366	-0.6017644952	-1.2796041439	 0.127886
H	-2.4764009978	-4.1758927051	-0.8740092602	 0.088805
H	-2.4594933332	-4.1852271276	 0.8803514556	 0.088805
H	-4.337664616	-5.5378912887	 0.0139427959	 0.111365
H	-4.9845744539	-4.1644966489	 0.9116424633	 0.118375
H	-5.0016514904	-4.1550387148	-0.8563482199	 0.118373
54.8308	67.827	90.8191	107.5237	152.5853	203.1484	231.5737	248.2458	250.7031	264.7056	305.0912	329.3075	331.0819	379.4103	419.101	491.5828	556.0075	740.6977	787.0618	821.0183	878.9028	904.0185	933.7509	962.3523	976.5068	999.5623	1024.2925	1044.7107	1082.8418	1100.5685	1144.8981	1163.5322	1187.4214	1222.4216	1228.7359	1266.9872	1278.9602	1295.747	1348.5774	1373.8062	1383.7464	1397.0482	1403.4282	1411.4086	1418.5884	1451.5359	1481.9735	1482.7334	1484.0949	1492.1258	1497.7144	1500.1922	1508.6188	1508.9894	1514.2433	1515.8378	1536.0677	2936.3126	2953.3638	2968.2246	2973.4245	3004.9329	3029.7938	3034.545	3037.9318	3040.3531	3044.1437	3095.9394	3098.3061	3104.7406	3110.9119	3118.4005	3120.1018	3123.6635	3126.9744
CCOCC(C)(C)CC	CCOCC(C)(C)CC	
InChI=1S/C8H18O/c1-5-8(3,4)7-9-6-2/h5-7H2,1-4H3	InChI=1S/C8H18O/c1-5-8(3,4)7-9-6-2/h5-7H2,1-4H3
