14
gdb 21120	5.35331	1.61854	1.25236	3.6437	71.48	-0.2202	-0.041	0.1792	922.0974	0.109117	-374.903765	-374.896594	-374.89565	-374.935789	25.449	
C	 0.0434151401	 1.4281838436	 0.0700817089	-0.332281
N	-0.0216826286	-0.0175719463	 0.1517650021	-0.315223
C	-1.1539273667	-0.6038550112	 0.0686364697	 0.342676
C	-1.1838980181	-2.0700946582	 0.155222882	 0.005425
N	-2.2478463148	-2.7923854184	 0.0879787665	-0.184024
N	-3.4061731742	-2.0848254666	-0.0767053772	-0.232939
C	-3.4344777478	-0.7297241791	-0.163011369	 0.119319
N	-2.4028381257	 0.0334811081	-0.1016612433	-0.33157
H	 0.7027610369	 1.7065128072	-0.7616053874	 0.121279
H	-0.9259152487	 1.91992873	-0.0624126484	 0.127917
H	 0.5186403172	 1.8132959693	 0.9810015672	 0.121283
H	-0.2427488109	-2.5945585155	 0.2859325233	 0.141777
H	-4.2409736704	-2.6441801643	-0.1299473194	 0.280122
H	-4.4291252482	-0.3024646986	-0.2936868352	 0.13624
67.6533	85.389	223.8184	247.2739	385.2007	451.2522	483.4802	558.4408	595.7914	676.3246	776.7681	808.6937	959.1241	968.252	972.7288	1013.8611	1070.954	1125.4739	1142.1234	1185.7177	1265.2449	1350.7596	1412.3566	1427.0155	1481.0117	1487.1887	1494.6396	1653.6079	1676.4297	1708.514	3010.6475	3060.3269	3091.9177	3128.7306	3192.5648	3657.4978
CN=C1C=NNC=N1	C[N]C1=NCNN=C1	
InChI=1S/C4H6N4/c1-5-4-2-7-8-3-6-4/h2-3H,1H3,(H,5,6,8)	InChI=1S/C4H7N4/c1-5-4-2-7-8-3-6-4/h2,8H,3H2,1H3
