21
gdb 70256	3.63151	1.0777	0.94796	0.8268	88.75	-0.2555	0.0576	0.3132	1311.6684	0.182662	-349.932411	-349.923643	-349.922699	-349.965343	34.873	
C	-0.8159949747	 1.4589398581	 0.3562296965	-0.479439
C	-0.1312565494	 0.1344058382	 0.1162311644	 0.357013
C	-0.8163410555	-1.1497100233	 0.5268362457	-0.331717
C	 0.4445505541	-0.7097532726	 1.236815551	-0.071839
C	 1.7630266957	-1.3072889679	 0.7777173751	-0.225401
C	 1.7159503185	-1.2116403467	-0.7771841904	-0.191703
C	 0.8322962703	 0.0376619757	-1.0613105832	-0.273391
C	 3.0265980669	-1.1660646824	-1.4069399031	 0.27933
C	 4.1133107008	-1.1140577944	-1.9193995213	-0.420666
H	-0.0857540061	 2.2708871913	 0.4560797434	 0.114619
H	-1.4861872029	 1.7177817518	-0.472246084	 0.116615
H	-1.4175337563	 1.4355595886	 1.2705838544	 0.113332
H	-1.7465310175	-1.0491508414	 1.0766046003	 0.103881
H	-0.7919633676	-2.017295562	-0.1256555837	 0.107062
H	 0.3614037545	-0.3869385754	 2.2695451742	 0.080218
H	 2.5961516602	-0.7063908408	 1.1580824349	 0.110665
H	 1.925337344	-2.3380714425	 1.1091667236	 0.104701
H	 1.1922501639	-2.0959298923	-1.1586818625	 0.108236
H	 0.3328932947	-0.0360079015	-2.0333302774	 0.10266
H	 1.4622768754	 0.9344154476	-1.0870239762	 0.107519
H	 5.0712122911	-1.074264668	-2.3752622518	 0.188305
99.4665	142.8509	199.6866	219.0778	270.6137	312.1648	364.9784	395.1671	495.7928	509.3618	542.1909	584.0272	619.1078	629.5548	709.6135	820.0565	843.8089	872.7623	899.6377	921.8315	958.7015	983.469	1028.4909	1047.3543	1053.5696	1071.3423	1095.9791	1104.5616	1122.6239	1184.4162	1229.049	1248.3734	1293.524	1295.6364	1315.9037	1331.4602	1365.9359	1407.6673	1420.8335	1487.601	1488.888	1493.0556	1499.0273	1510.4471	2235.2687	3019.2206	3029.5877	3036.2777	3043.6807	3076.4322	3078.6277	3085.302	3095.3962	3121.5434	3160.3745	3202.0663	3505.832
CC12CC1CC(C2)C#C	C[C@]12C[C@H]1C[C@@H](C2)C#C	
InChI=1S/C9H12/c1-3-7-4-8-6-9(8,2)5-7/h1,7-8H,4-6H2,2H3	InChI=1S/C9H12/c1-3-7-4-8-6-9(8,2)5-7/h1,7-8H,4-6H2,2H3/t7-,8+,9-/m0/s1
