19
gdb 74461	2.89289	1.35582	1.00721	2.7666	84.69	-0.2277	-0.0128	0.2148	1216.4107	0.158612	-385.925018	-385.916502	-385.915558	-385.958028	32.697	
C	 0.0367950073	 1.5104662409	-0.0041289158	-0.484126
C	-0.0056755059	 0.0162153151	 0.0067955654	 0.283371
C	-1.093561613	-0.7623780769	-0.0625852037	-0.262613
C	-0.7592364355	-2.2042509606	-0.0255642527	 0.236484
C	-1.5800272826	-3.2801942095	 0.6746576893	-0.297404
C	-1.4758013048	-3.2946671489	-0.812030647	-0.297484
C	 0.740138136	-2.2651762813	 0.0805648226	 0.333642
O	 1.4094956603	-3.2677524187	 0.1373774062	-0.333217
C	 1.2528973466	-0.8174372646	 0.1027173866	-0.43125
H	 0.6313405075	 1.8861070767	-0.8469807566	 0.126954
H	-0.9665905066	 1.9390350884	-0.0785231205	 0.123884
H	 0.508460866	 1.9025500518	 0.9062256938	 0.126957
H	-2.1120974446	-0.3959156031	-0.1375870317	 0.09503
H	-1.0106851405	-4.0184529274	 1.2292838281	 0.136832
H	-2.5120025902	-2.9666821278	 1.1322366696	 0.119043
H	-2.3344917483	-2.991552543	-1.4011298824	 0.119039
H	-0.8357440839	-4.0428449043	-1.2674073185	 0.13681
H	 1.9500459763	-0.6515161888	-0.72948238	 0.134039
H	 1.8287097658	-0.6345415781	 1.0197306474	 0.13401
91.7204	134.9516	188.6383	224.0984	228.8363	287.0572	368.3464	460.5726	462.3706	528.5452	586.7802	618.6755	729.7062	792.7243	824.8094	844.9985	884.8592	905.0172	953.5102	971.863	986.6961	1007.9747	1059.9693	1060.6932	1087.63	1105.0753	1157.0306	1163.855	1204.1469	1238.0288	1303.9179	1328.4421	1382.4582	1414.8212	1439.4197	1453.1597	1476.433	1484.3868	1489.0133	1703.7548	1833.9381	3014.2085	3022.3927	3050.1695	3059.7699	3107.8647	3131.7682	3132.8118	3183.5959	3218.0029	3232.9923
CC1=CC2(CC2)C(=O)C1	CC1=CC2(CC2)C(=O)C1	
InChI=1S/C8H10O/c1-6-4-7(9)8(5-6)2-3-8/h5H,2-4H2,1H3	InChI=1S/C8H10O/c1-6-4-7(9)8(5-6)2-3-8/h5H,2-4H2,1H3
