18
gdb 7463	4.10803	1.1228	1.02406	2.0287	76.86	-0.2469	0.0489	0.2958	1223.1487	0.151823	-347.762146	-347.752932	-347.751987	-347.798246	31.784	
C	 0.0568677356	 1.5259273496	-0.0900726279	-0.499985
C	 0.039954635	 0.0705264706	-0.0498167229	 0.073823
C	 0.024020547	-1.1338336234	-0.0153025466	 0.015778
C	 0.0071369276	-2.5856153252	 0.023274738	 0.102945
C	 0.9367024611	-3.2016583659	-1.0306620105	-0.449069
C	 0.159197386	-3.2527221951	 1.4254326963	-0.103128
O	-1.0334570402	-4.0334443439	 1.2313274336	-0.270939
C	-1.3939687469	-3.2706625683	 0.066073317	-0.103146
H	 1.0819627205	 1.9115201827	-0.1213541519	 0.148615
H	-0.4653819922	 1.9049043148	-0.9756297752	 0.14888
H	-0.4319692569	 1.9555054459	 0.7913175899	 0.148955
H	 1.970101763	-2.879834571	-0.8710172354	 0.125
H	 0.8993965716	-4.2941461933	-0.973794345	 0.124519
H	 0.6376189735	-2.8949843657	-2.0373692844	 0.125037
H	 1.0482120743	-3.8782845401	 1.5669148807	 0.103415
H	 0.0634057681	-2.5513030632	 2.2632281494	 0.102931
H	-2.2207429289	-2.5776258547	 0.2640682382	 0.102971
H	-1.6437478983	-3.9093801541	-0.7891140233	 0.103395
9.4542	73.4989	108.6515	124.1862	255.562	289.7871	293.3831	347.092	350.0456	494.662	523.437	554.1132	833.6244	856.351	912.1005	930.1729	972.6127	1014.0608	1039.4589	1052.4373	1053.6871	1076.251	1153.9315	1163.3816	1164.1469	1212.011	1302.9073	1311.4256	1367.0437	1410.1581	1415.3151	1477.9685	1478.8485	1489.4093	1495.7871	1508.17	1531.473	2366.5	3010.4953	3021.0236	3026.5567	3035.9852	3067.044	3068.3494	3086.9577	3087.5878	3111.8495	3113.6255
CC#CC1(C)COC1	CC#CC1(C)COC1	
InChI=1S/C7H10O/c1-3-4-7(2)5-8-6-7/h5-6H2,1-2H3	InChI=1S/C7H10O/c1-3-4-7(2)5-8-6-7/h5-6H2,1-2H3
