15
gdb 75694	2.31938	1.76259	1.30335	0.9959	65.38	-0.2567	-0.0505	0.2062	984.5528	0.111425	-457.780771	-457.772878	-457.771934	-457.81353	28.931	
C	-0.2766359465	 1.498000391	 0.0040764223	-0.408833
C	-0.0056050849	-0.0186916839	 0.0030096498	-0.232647
C	 0.8376746371	-0.4869603722	-1.1920426307	 0.413964
O	 0.4583261841	-0.6249601953	-2.3248132585	-0.309958
C	 2.2280097894	-0.8084323466	-0.6863922872	-0.083126
O	 2.741167256	 0.2934530828	 0.0739437457	-0.232167
C	 2.1906062284	-0.8161534249	 0.7959198944	-0.08312
C	 0.7764431384	-0.4996381679	 1.2341199238	 0.413959
O	 0.3404949968	-0.6493231501	 2.3448235655	-0.309957
H	 0.6592260557	 2.0603113221	 0.0307056069	 0.146928
H	-0.8283421755	 1.7758901309	-0.8975787236	 0.142661
H	-0.8733389917	 1.7666097698	 0.8795055741	 0.142659
H	-0.9625149343	-0.5510022763	-0.023919787	 0.137105
H	 2.9409823948	-1.3736348777	-1.2781445833	 0.131266
H	 2.8729789421	-1.3876706816	 1.4169594578	 0.131266
65.1713	161.4371	211.0107	214.1691	219.0532	347.3525	391.7409	503.276	571.2339	572.0112	681.6698	730.1271	813.7292	828.7854	854.9697	872.4872	967.5146	1025.4449	1039.8846	1080.3012	1100.9585	1157.2291	1215.8426	1235.7317	1246.5887	1288.7978	1298.2572	1367.7594	1400.6979	1492.6237	1505.0356	1835.4692	1869.0885	3051.3499	3064.097	3129.2874	3138.4724	3175.5038	3185.7919
CC1C(=O)C2OC2C1=O	C[C@H]1C(=O)[C@H]2O[C@H]2C1=O	
InChI=1S/C6H6O3/c1-2-3(7)5-6(9-5)4(2)8/h2,5-6H,1H3	InChI=1S/C6H6O3/c1-2-3(7)5-6(9-5)4(2)8/h2,5-6H,1H3/t2-,5+,6-
