17
gdb 84324	2.5706	1.43158	1.06384	3.9027	76.69	-0.2476	-0.0627	0.185	1138.7236	0.135554	-421.883881	-421.875555	-421.874611	-421.917241	30.94	
C	-0.0648881007	 1.5422406713	 0.0353306321	-0.403461
C	 0.0300722728	-0.0032408091	-0.0041984761	-0.136353
C	 0.7333117662	-0.4806179227	-1.2450554874	-0.054785
C	 1.9505989834	-1.0375625108	-1.2739175817	-0.16165
C	 2.7555521157	-1.2546024051	-0.0548473045	 0.370722
O	 3.7930447954	-1.8802328793	-0.0597579357	-0.320069
C	 2.2132173482	-0.6161184254	 1.2273751745	-0.417374
C	 0.6983170376	-0.5242373453	 1.2689223305	 0.374192
O	 0.0535332533	-0.832388704	 2.2410286113	-0.309024
H	 0.9275971232	 2.0019874686	 0.060228878	 0.129125
H	-0.5830658442	 1.9136716212	-0.8536660495	 0.13046
H	-0.6231202354	 1.8613497386	 0.9193478994	 0.144988
H	-0.9943485817	-0.3943253171	 0.0029562321	 0.116397
H	 0.1807239253	-0.3581177788	-2.1746827817	 0.118826
H	 2.3979749191	-1.383668435	-2.1999942096	 0.116658
H	 2.5949547155	-1.1378389217	 2.1057531871	 0.149495
H	 2.6072344163	 0.4110490846	 1.2454036913	 0.151855
61.2873	96.7203	213.4709	221.2458	232.2068	365.5085	412.4763	435.3096	476.7599	528.174	611.3015	628.3851	680.9186	797.8095	804.3156	870.9593	928.5344	933.3447	1008.8424	1026.4485	1059.3483	1091.7716	1115.4856	1164.6273	1222.2425	1256.9338	1278.8236	1301.4176	1340.5516	1393.3991	1411.7448	1431.0732	1495.9379	1496.5926	1679.1452	1783.191	1826.3751	3018.133	3040.563	3042.8919	3114.052	3125.9377	3135.2594	3148.4885	3193.2848
CC1C=CC(=O)CC1=O	C[C@H]1C=CC(=O)CC1=O	
InChI=1S/C7H8O2/c1-5-2-3-6(8)4-7(5)9/h2-3,5H,4H2,1H3	InChI=1S/C7H8O2/c1-5-2-3-6(8)4-7(5)9/h2-3,5H,4H2,1H3/t5-/m0/s1
