21
gdb 113008	2.29708	1.1655	1.04276	3.7292	79.91	-0.2394	-0.0162	0.2232	1298.7182	0.180291	-424.21563	-424.205679	-424.204735	-424.250889	35.746	
C	-0.1192949232	 1.4569048417	-0.2166172118	-0.238859
O	-0.0817166513	 0.1435748217	 0.2973142305	-0.240162
C	-1.2983249436	-0.5559371722	 0.1522407925	 0.117177
C	-1.4870178	-1.1796737334	-1.2597264694	-0.276141
C	-0.8954166813	-2.5266541178	-0.7327137661	-0.108885
C	 0.560196004	-2.7075707362	-1.0793043196	 0.156802
O	 1.0470777281	-3.7510186653	-1.4388701118	-0.262553
C	-1.1535967258	-1.9897938038	 0.7266732739	-0.001788
C	-0.1627775052	-2.2587200351	 1.8496276795	-0.415706
H	 0.8592033293	 1.9051994867	-0.0299613776	 0.13181
H	-0.3156563499	 1.4763019967	-1.2986524842	 0.109382
H	-0.8915581319	 2.0607181735	 0.2841955707	 0.108769
H	-2.1273280191	 0.0533493828	 0.541010302	 0.061677
H	-2.5378215488	-1.2828855835	-1.53975856	 0.111917
H	-0.951852122	-0.6898234956	-2.0775747843	 0.110934
H	-1.4258070489	-3.4424225026	-1.0001356513	 0.084761
H	 1.1774438072	-1.7874473503	-0.9841116634	 0.086651
H	-2.1497293902	-2.3360199481	 1.0210467057	 0.086811
H	 0.8187706463	-1.8328302994	 1.6322822403	 0.137354
H	-0.5143544452	-1.8164871449	 2.7876616996	 0.1166
H	-0.0461265484	-3.3356198547	 2.0092346346	 0.123449
64.6711	79.582	126.6925	177.6246	189.1155	207.7045	224.3689	308.5486	318.6441	395.622	443.2286	464.6688	553.9437	700.9992	795.0906	858.9814	880.9068	926.9632	957.6372	972.2989	1007.8965	1056.5914	1092.4759	1105.501	1145.7685	1159.7508	1180.447	1184.19	1199.2708	1237.6526	1262.2114	1266.5678	1286.1647	1329.2955	1366.3051	1385.6845	1410.4362	1430.7848	1470.7164	1480.7799	1487.5023	1489.4102	1502.2399	1509.2251	1820.8283	2897.1033	2979.6006	2991.9152	3029.9842	3039.5836	3053.0745	3063.9791	3096.5321	3101.1616	3118.9576	3119.6428	3132.158
COC1CC(C=O)C1C	CO[C@H]1C[C@@H](C=O)[C@H]1C	
InChI=1S/C7H12O2/c1-5-6(4-8)3-7(5)9-2/h4-7H,3H2,1-2H3	InChI=1S/C7H12O2/c1-5-6(4-8)3-7(5)9-2/h4-7H,3H2,1-2H3/t5-,6+,7+/m1/s1
