20
gdb 56201	4.6309	0.69028	0.62892	2.0107	76.28	-0.2432	0.0356	0.2788	1762.4288	0.17001	-440.305445	-440.295318	-440.294374	-440.342987	34.849	
N	-0.0756835337	 1.2397675793	 0.4475289204	-0.523654
C	 0.0280156465	 0.0023404493	-0.1196658686	 0.406746
O	 1.0567770137	-0.3910975267	-0.6356515482	-0.361694
C	-1.2541515474	-0.8267544857	-0.0861594599	-0.310025
C	-0.9691952583	-2.329420274	-0.1241517308	-0.187055
C	-2.2402067981	-3.1499431231	-0.2174642693	 0.152696
C	-2.1530311271	-4.6691595128	 0.050337281	-0.300317
C	-3.1727243267	-4.3861828108	 1.1707888813	-0.057814
O	-3.1077360275	-2.9645816506	 0.9337194857	-0.298724
H	 0.7331269923	 1.8390564398	 0.4413669812	 0.258686
H	-0.9076503559	 1.549335433	 0.9171215611	 0.25787
H	-1.8597698512	-0.5795868287	 0.7920734832	 0.12011
H	-1.8491366499	-0.5370819106	-0.9638183263	 0.125588
H	-0.321123846	-2.5512124276	-0.9788350127	 0.123293
H	-0.4176927094	-2.623091695	 0.7768290936	 0.101741
H	-2.7833485925	-2.9001739771	-1.1418396259	 0.068044
H	-2.4876431141	-5.3226589179	-0.7563127595	 0.10961
H	-1.1726043576	-5.0004910063	 0.3991714125	 0.1123
H	-4.1803878697	-4.7833563906	 0.9916377226	 0.099079
H	-2.8683960673	-4.646866014	 2.1912130285	 0.10352
24.8773	52.0575	89.3992	96.8817	103.8061	142.3642	233.6981	326.4562	447.9946	462.1945	528.9867	601.2795	670.5308	741.7396	782.6677	819.3685	858.3388	881.1106	932.8457	974.0206	1009.9898	1034.9709	1056.4426	1099.9242	1108.8955	1127.3702	1166.6298	1198.3056	1217.926	1245.8537	1260.3773	1287.6564	1311.3692	1336.018	1366.1366	1397.8057	1414.0671	1464.2914	1480.1988	1491.3789	1533.6324	1616.1572	1795.5362	2981.4068	3012.1866	3018.4496	3040.9939	3053.7353	3073.1593	3077.4876	3094.5138	3133.5392	3605.0208	3743.5195
NC(=O)CCC1CCO1	NC(=O)CC[C@H]1CCO1	
InChI=1S/C6H11NO2/c7-6(8)2-1-5-3-4-9-5/h5H,1-4H2,(H2,7,8)	InChI=1S/C6H11NO2/c7-6(8)2-1-5-3-4-9-5/h5H,1-4H2,(H2,7,8)/t5-/m0/s1
