25
gdb 94693	3.12923	1.29457	1.12714	0.083	92.07	-0.2717	0.0809	0.3526	1240.9606	0.2312	-352.372663	-352.363937	-352.362993	-352.405133	36.069	
C	-0.7943310921	 1.2607616907	 0.1703913394	-0.407949
C	 0.0767313345	 0.0196128373	-0.0491030208	 0.050847
C	 0.9429205152	 0.1673409547	-1.3246957083	-0.214555
C	 2.2304954679	-0.6880948678	-1.2976345193	-0.247565
C	 2.7706835689	-0.8658412259	 0.1367492779	 0.355853
C	 4.2045064635	-1.3670987532	 0.1607173896	-0.478795
C	 1.6977482109	-1.6411802243	 0.9574445961	-0.260441
C	 0.9860097529	-0.2790366389	 1.1601726404	-0.005514
C	 2.3875457253	 0.3805748121	 0.9986298572	-0.266262
H	-0.1753687854	 2.1448936496	 0.3652055892	 0.112804
H	-1.4098009496	 1.476089312	-0.7100214313	 0.108155
H	-1.4663273064	 1.1290295202	 1.0252100794	 0.107693
H	-0.5923595001	-0.8441678165	-0.1698856708	 0.065553
H	 0.3494510231	-0.0519450704	-2.2185308551	 0.089582
H	 1.2312247951	 1.2213086876	-1.4140271307	 0.097547
H	 2.0500579995	-1.68254298	-1.7262862046	 0.091549
H	 2.9908600059	-0.2144585651	-1.9310817474	 0.086563
H	 4.8849153149	-0.6504567976	-0.3147788404	 0.109574
H	 4.5515483644	-1.528669482	 1.1872392093	 0.105321
H	 4.3006311203	-2.3180708577	-0.3775691425	 0.110272
H	 1.1433197823	-2.4387225311	 0.4502925229	 0.080119
H	 2.1124359487	-2.0301918178	 1.8928301958	 0.084477
H	 0.4547042894	-0.1211466635	 2.1029825569	 0.05079
H	 2.9358707274	 0.3825455548	 1.9453313578	 0.08834
H	 2.4596870835	 1.3752751127	 0.5488534094	 0.086043
128.3032	202.5564	218.6719	251.1698	259.8708	313.5567	362.3841	393.2684	412.573	442.4233	508.6327	563.6806	645.3997	756.7321	793.0177	846.5797	866.7804	879.203	903.0453	932.5409	943.4198	971.9826	997.4938	1014.8513	1031.664	1057.1582	1067.0473	1083.0145	1091.1524	1141.0785	1188.8914	1200.5232	1211.2949	1236.5199	1250.4704	1273.1865	1282.614	1300.543	1330.306	1341.2992	1359.9721	1372.1071	1395.3246	1408.7128	1410.7172	1478.2362	1489.0457	1492.4408	1493.7992	1497.5323	1499.4853	1501.4453	1521.8968	2996.3777	3011.9902	3016.9027	3021.4625	3029.2674	3030.6501	3046.2525	3048.8728	3062.6279	3071.9427	3078.6918	3085.0263	3087.9988	3089.4273	3094.0628	3098.0983
CC1CCC2(C)CC1C2	C[C@H]1CC[C@]2(C)C[C@H]1C2	
InChI=1S/C9H16/c1-7-3-4-9(2)5-8(7)6-9/h7-8H,3-6H2,1-2H3	InChI=1S/C9H16/c1-7-3-4-9(2)5-8(7)6-9/h7-8H,3-6H2,1-2H3/t7-,8-,9+/m0/s1
