20
gdb 65318	3.47595	0.97752	0.95315	4.4028	84.76	-0.2656	0.0322	0.2979	1332.1601	0.170612	-366.00733	-365.998201	-365.997257	-366.041389	34.527	
C	 0.0707475524	 1.5766059921	-0.1188315452	-0.488145
C	 0.0245330552	 0.0618525291	-0.0753488062	 0.333967
C	 1.1087916172	-0.685160252	-0.8005877582	-0.32421
C	 1.1151808733	-0.6708587077	 0.7226420449	-0.21081
C	 2.1298397225	 0.0552956176	 1.4293097338	 0.285383
N	 2.9429646587	 0.6481558276	 2.001691808	-0.34836
C	-1.3281137729	-0.5996806601	-0.0179900869	-0.035323
C	-2.4503033217	-0.0936990012	 0.8558673889	-0.276706
C	-2.5618432633	 0.0038219429	-0.6452694123	-0.280799
H	 1.0997992333	 1.939334869	-0.0662715733	 0.143354
H	-0.36829595	 1.9495475045	-1.0491658942	 0.126703
H	-0.4728522612	 2.0227494896	 0.7196517331	 0.132065
H	 0.8691507805	-1.630112974	-1.2758449632	 0.125022
H	 1.8810991792	-0.1109202562	-1.2995676916	 0.134707
H	 0.8073537872	-1.584680947	 1.2201127571	 0.129015
H	-1.2644572023	-1.682852483	-0.0921176529	 0.081563
H	-3.0568252138	-0.8267041243	 1.3758441393	 0.116762
H	-2.2989531249	 0.8255434489	 1.4103069312	 0.121095
H	-2.4857791133	 0.989169045	-1.0902461014	 0.118307
H	-3.2456196264	-0.6609098508	-1.1612226608	 0.116409
54.8957	119.2154	135.5407	206.5188	246.7543	264.1402	338.4848	351.4209	405.9948	471.9896	555.6909	579.7914	684.8585	785.5355	793.5473	821.4518	840.5908	894.7305	919.8201	956.21	972.2944	989.8617	1057.9195	1066.2522	1081.9335	1083.2548	1104.0303	1110.6574	1134.9368	1142.5627	1199.2304	1224.771	1261.2164	1336.8141	1373.7854	1417.7239	1433.846	1465.7771	1484.1357	1496.2631	1505.8715	1510.1986	2347.0012	3044.0192	3107.7215	3124.9156	3126.3061	3137.7166	3138.886	3142.9437	3165.9824	3216.0488	3227.6133	3230.2364
CC1(CC1C#N)C1CC1	C[C@]1(C[C@H]1C#N)C1CC1	
InChI=1S/C8H11N/c1-8(6-2-3-6)4-7(8)5-9/h6-7H,2-4H2,1H3	InChI=1S/C8H11N/c1-8(6-2-3-6)4-7(8)5-9/h6-7H,2-4H2,1H3/t7-,8-/m0/s1
