18
gdb 69433	2.87415	1.29186	1.22123	4.1629	75.46	-0.2787	0.0174	0.2962	1111.2246	0.148294	-401.958003	-401.94983	-401.948886	-401.990692	31.142	
C	 0.1737100632	 1.4927673685	 0.1246971059	-0.49099
C	 0.1192246816	-0.0123724076	 0.0473893773	 0.330363
C	-0.9528023938	-0.8063669398	 0.7530795791	-0.351545
C	 0.4832143466	-0.9250768787	 1.1988339446	-0.089634
C	 1.2500361685	-2.0873837188	 0.5803939172	-0.052236
O	 0.9322321922	-2.0608663348	-0.804003296	-0.251891
C	 0.6906007528	-0.6999995619	-1.1834039876	-0.148199
C	 2.7062014061	-1.9382335568	 0.8078934558	 0.271318
N	 3.8412827512	-1.8148884862	 0.9853836185	-0.321478
H	 1.1957106461	 1.8607790394	-0.018452797	 0.130243
H	-0.4585519734	 1.9525517358	-0.6434017615	 0.126174
H	-0.1784552147	 1.8495162733	 1.0969628072	 0.124205
H	-1.621536964	-0.2608154145	 1.4097063744	 0.11865
H	-1.4046888893	-1.6495608659	 0.239632047	 0.127287
H	 0.8006770926	-0.5454719916	 2.1619620133	 0.113179
H	 0.9447795439	-3.0693891263	 0.9580430684	 0.134092
H	 0.0114032919	-0.7310710387	-2.0408892161	 0.118592
H	 1.6257563486	-0.2086229355	-1.4912654605	 0.11187
87.9009	140.7571	204.8621	237.2594	287.2746	315.326	375.7027	402.6055	478.4177	565.2475	582.7311	740.2113	754.3892	827.117	881.4384	922.148	935.17	952.3474	968.3599	1022.8702	1039.6741	1058.8359	1073.9245	1090.4443	1123.1752	1145.9415	1232.328	1265.5805	1274.5848	1309.0501	1347.2485	1360.3587	1414.3525	1426.7916	1484.2967	1490.4497	1501.6568	1515.6483	2354.1161	2997.7048	3029.1384	3057.0972	3081.6073	3089.6625	3107.1088	3128.3277	3193.9882	3218.487
CC12CC1C(OC2)C#N	C[C@]12C[C@H]1[C@@H](OC2)C#N	
InChI=1S/C7H9NO/c1-7-2-5(7)6(3-8)9-4-7/h5-6H,2,4H2,1H3	InChI=1S/C7H9NO/c1-7-2-5(7)6(3-8)9-4-7/h5-6H,2,4H2,1H3/t5-,6-,7+/m0/s1
