16
gdb 33657	2.93932	1.50193	1.49865	3.5333	73.45	-0.2646	0.0078	0.2725	955.1712	0.126259	-400.715193	-400.70845	-400.707506	-400.746308	26.816	
N	-0.0287844389	-1.1891903545	-0.0064367328	-0.348658
C	-0.0241020937	-0.0314065539	 0.0022360817	 0.110462
C	-0.0239152691	 1.3938883724	 0.0223296264	 0.244407
C	-0.6652193552	 2.3498362309	 1.1223942516	-0.112236
C	 0.7275851228	 3.0069340067	 1.3128469128	-0.241486
C	 1.2079139084	 2.3627923541	-0.0057098951	 0.055185
O	 0.6890965791	 3.0483042103	-1.1618182908	-0.296558
C	-0.582287112	 2.3779291614	-1.0624970922	 0.055185
C	-1.4965548043	 3.0257362817	-0.000100008	-0.241486
H	-1.1872704353	 1.9772791847	 2.0014168799	 0.097996
H	 0.778436833	 4.0966191248	 1.3709511427	 0.114558
H	 1.2524814456	 2.5670993693	 2.166642413	 0.118796
H	 2.2491798509	 2.0647304825	-0.1308084411	 0.10524
H	-0.9795164987	 2.0920312425	-2.0367643416	 0.10524
H	-2.5031205613	 2.598843194	-0.0503555953	 0.118797
H	-1.5583329214	 4.1163731433	-0.0084782612	 0.114558
142.427	146.1287	327.6446	341.9951	410.9726	511.8945	520.3723	542.6919	652.109	692.7655	820.7756	850.7708	857.5652	929.7943	932.8182	964.8802	975.4849	1022.0853	1028.1211	1029.5195	1111.1485	1121.8133	1125.4118	1166.5358	1187.3344	1203.556	1249.9768	1282.6927	1283.063	1318.7133	1326.5611	1350.9304	1464.1361	1475.8649	2342.101	3056.0247	3056.5214	3111.4377	3115.2268	3117.4625	3119.4021	3134.5378
N#CC12C3CC1OC2C3	N#C[C@@]12[C@H]3C[C@@H]1O[C@@H]2C3	
InChI=1S/C7H7NO/c8-3-7-4-1-5(7)9-6(7)2-4/h4-6H,1-2H2	InChI=1S/C7H7NO/c8-3-7-4-1-5(7)9-6(7)2-4/h4-6H,1-2H2/t4-,5-,6+,7+
