17
gdb 10299	2.72307	1.49199	1.20673	2.4026	64.27	-0.2754	0.0194	0.2949	1055.3434	0.140393	-401.010417	-401.001081	-401.000137	-401.044467	33.01	
C	 0.0267349146	 1.5492988834	-0.0118349291	-0.421209
C	 0.0058063701	 0.0253978834	 0.0854794985	 0.117612
O	 0.6933450891	-0.447314557	 1.2315560338	-0.427573
C	-1.4323423594	-0.5621846139	 0.0215450194	-0.158294
C	-1.4183075417	-2.1077685708	-0.0852188261	-0.076407
O	-2.7126122845	-2.6611734765	-0.1512286211	-0.418052
C	-2.1894537531	-0.1654447421	 1.2109194955	 0.252835
N	-2.753868235	 0.1161676271	 2.1807092167	-0.334089
H	 1.0576533629	 1.9072859482	 0.0458454869	 0.135044
H	-0.4091445922	 1.8929426578	-0.9552717036	 0.123907
H	-0.5432175473	 2.0018853537	 0.8075953823	 0.136029
H	 0.5530979962	-0.3992431562	-0.7642837348	 0.102102
H	 0.3076112553	-0.0227156011	 2.0078292843	 0.294453
H	-1.9506202326	-0.1637941768	-0.8586245097	 0.130966
H	-0.918548487	-2.3764979866	-1.0210173294	 0.120377
H	-0.8255687559	-2.5126660663	 0.7439982145	 0.124369
H	-3.1257467696	-2.5684064464	 0.7143918321	 0.29793
76.3401	99.5945	131.8755	174.0602	213.2166	247.814	328.0765	356.3482	366.771	374.8265	432.75	481.735	591.055	672.6865	809.2208	872.1836	940.7026	989.2699	1034.6655	1063.5493	1083.4907	1109.1908	1154.2035	1199.0999	1249.4612	1301.8066	1335.5951	1367.0194	1387.5575	1409.0853	1418.4094	1427.9023	1491.419	1497.6657	1509.0126	2344.5234	3032.1208	3035.3888	3047.1093	3053.0953	3093.5634	3106.326	3125.6635	3783.2099	3806.5917
CC(O)C(CO)C#N	C[C@@H](O)[C@@H](CO)C#N	
InChI=1S/C5H9NO2/c1-4(8)5(2-6)3-7/h4-5,7-8H,3H2,1H3	InChI=1S/C5H9NO2/c1-4(8)5(2-6)3-7/h4-5,7-8H,3H2,1H3/t4-,5-/m1/s1
