29
gdb 118059	3.18214	0.67929	0.59603	0.0571	100.34	-0.2901	0.0848	0.3749	2058.9359	0.273215	-354.776036	-354.763681	-354.762737	-354.814253	45.21	
C	-0.0398112807	 1.6542555736	 0.0628818029	-0.379089
C	-0.0127052023	 0.1339339891	-0.1207969264	-0.1713
C	-1.3632823151	-0.5267810091	 0.1851022995	-0.167889
C	-1.3875955037	-2.0642803041	 0.0255970275	 0.042794
C	-0.6514245797	-2.7177459661	 1.2073257027	-0.411716
C	-2.8427783258	-2.5870758111	-0.1633314121	 0.04212
C	-3.3870815962	-2.1932384381	-1.5477271475	-0.399633
C	-2.9721746633	-4.109703151	 0.0510393353	-0.179747
C	-4.3985644628	-4.6582951334	-0.0768832743	-0.391655
H	 0.930846362	 2.103322453	-0.1703917387	 0.109218
H	-0.7871585888	 2.1193381171	-0.5899538189	 0.112133
H	-0.2917768235	 1.924108482	 1.0946480829	 0.112669
H	 0.2759037263	-0.1040879258	-1.1533462828	 0.093347
H	 0.7717874624	-0.2903201895	 0.5173442309	 0.097109
H	-1.665827839	-0.2771831266	 1.2126824217	 0.08642
H	-2.116527689	-0.0670715686	-0.4644782837	 0.089586
H	-0.8349315091	-2.3170882363	-0.8927117865	 0.061073
H	-0.4749170272	-3.784494699	 1.0505230955	 0.114389
H	 0.3249465552	-2.2504350486	 1.3652333592	 0.109476
H	-1.2228542397	-2.6039338586	 2.1367911147	 0.11022
H	-3.4657366365	-2.0974136855	 0.6022975758	 0.062004
H	-4.4553605943	-2.4066731698	-1.6376820683	 0.114021
H	-3.254529554	-1.1293324084	-1.7596556162	 0.112172
H	-2.8686849041	-2.7530386794	-2.3361943238	 0.109071
H	-2.3169221493	-4.6294947591	-0.6628481441	 0.088787
H	-2.6009427728	-4.367390948	 1.0474563056	 0.096841
H	-4.7891145157	-4.5732210922	-1.094960744	 0.117461
H	-4.4298604707	-5.7178451749	 0.1966635419	 0.108995
H	-5.0877564427	-4.1254895516	 0.5888518513	 0.11112
43.0927	58.6054	85.9524	103.424	161.3766	188.8968	229.2358	235.8311	241.6863	283.8609	298.4693	338.1259	360.2053	381.5976	426.5022	498.1661	516.1042	738.7397	775.383	815.4598	846.2683	869.2279	900.2964	941.0022	961.1588	986.7369	998.599	1019.644	1037.0091	1051.9045	1084.0036	1099.1276	1162.7246	1176.4949	1184.5253	1195.8409	1254.7438	1280.7356	1304.602	1320.9759	1330.251	1355.5691	1358.1064	1373.5043	1386.6167	1394.2655	1408.5581	1411.7326	1414.2228	1417.2421	1479.983	1483.3848	1491.75	1496.4487	1498.6433	1499.2774	1499.8955	1505.4251	1510.1962	1515.1279	1519.747	2972.0325	2984.3109	3004.0409	3009.5547	3020.389	3027.5983	3029.993	3030.3886	3031.7687	3044.2063	3064.608	3073.671	3093.8663	3094.2374	3097.5739	3099.4004	3100.2398	3109.417	3115.5637	3118.164
CCCC(C)C(C)CC	CCC[C@@H](C)[C@@H](C)CC	
InChI=1S/C9H20/c1-5-7-9(4)8(3)6-2/h8-9H,5-7H2,1-4H3	InChI=1S/C9H20/c1-5-7-9(4)8(3)6-2/h8-9H,5-7H2,1-4H3/t8-,9+/m0/s1
