19
gdb 99334	6.55364	0.57756	0.53831	3.5801	79.88	-0.2474	-0.0124	0.235	2029.2849	0.154065	-422.992245	-422.981334	-422.98039	-423.030447	36.864	
C	 0.1452367833	 1.4918121802	 0.0519005409	-0.37717
C	-0.0716870987	-0.0114603294	-0.1062860937	-0.285389
C	-1.5375160626	-0.4192892905	-0.0138370236	 0.354218
O	-2.4402219984	 0.3779232293	 0.0072599472	-0.272402
C	-1.7792179277	-1.9273747254	 0.0516685959	-0.142881
O	-3.1474809474	-2.2039971553	-0.0095680674	-0.222811
C	-3.4200215214	-3.5904198329	 0.0778175726	-0.205535
C	-4.8560617944	-3.8207883906	 0.0053960156	 0.282426
C	-6.0342627004	-4.0434599543	-0.0518243144	-0.407335
H	 1.2031354519	 1.7437571576	-0.0610550197	 0.111038
H	-0.4281891866	 2.0450935982	-0.6951882371	 0.138586
H	-0.1879857188	 1.8335858985	 1.0354719887	 0.130309
H	 0.3027464135	-0.3591168758	-1.0799334192	 0.126679
H	 0.5004475547	-0.5803477385	 0.6391261761	 0.116586
H	-1.223314124	-2.4141763743	-0.7707326719	 0.104413
H	-1.3271682177	-2.3030895903	 0.9890946029	 0.108131
H	-2.9151166455	-4.1357352509	-0.7384414639	 0.118922
H	-3.0246330361	-4.0021129375	 1.0226564899	 0.119472
H	-7.0786943838	-4.2288795581	-0.1029429789	 0.202743
28.1089	39.2746	79.594	88.6613	111.4173	183.8679	195.1871	276.861	305.74	333.4357	388.7422	473.9844	560.3994	611.8096	655.6649	679.551	749.5614	839.1691	936.406	974.4857	989.8142	1011.7139	1032.6732	1074.8289	1117.0126	1129.2377	1183.4465	1245.1727	1257.8803	1292.1756	1360.9724	1382.3918	1413.8037	1430.2959	1452.9452	1483.6261	1492.818	1498.9856	1508.7858	1832.8499	2250.317	2930.7009	2950.1819	2953.1741	2968.2082	3014.2104	3043.2567	3052.5766	3122.0435	3132.2867	3506.3941
CCC(=O)COCC#C	CCC(=O)COCC#C	
InChI=1S/C7H10O2/c1-3-5-9-6-7(8)4-2/h1H,4-6H2,2H3	InChI=1S/C7H10O2/c1-3-5-9-6-7(8)4-2/h1H,4-6H2,2H3
