14
gdb 29681	2.44244	2.01463	1.11168	3.7383	65.05	-0.2753	-0.0506	0.2247	998.2711	0.103156	-470.105219	-470.097491	-470.096547	-470.138269	27.544	
C	-0.0418306365	 1.4590616005	 0.0089023787	-0.341687
N	-0.0055937562	-0.0061493337	 0.0005628729	-0.225202
C	-1.2258305054	-0.6485747285	 0.0046637547	 0.516461
O	-2.3005237183	-0.0943640071	 0.0144089333	-0.387657
N	-1.1064773245	-2.0421087374	-0.0033938039	-0.367756
C	 0.1032217865	-2.6637268233	-0.013760546	 0.114146
N	 1.2393301421	-2.0687567227	-0.0174339286	-0.315909
C	 1.256085018	-0.6681987145	-0.0107397935	 0.454741
O	 2.2809204028	-0.032971966	-0.011971271	-0.352617
H	 0.9884225137	 1.8054662404	 0.0011896378	 0.174217
H	-0.5784807182	 1.8234095146	-0.8699302002	 0.149105
H	-0.5616545438	 1.8140809545	 0.9016156617	 0.149022
H	-1.973854499	-2.5578242725	-0.0007085829	 0.282349
H	 0.0663152888	-3.7518469845	-0.0190441132	 0.150787
55.8427	99.5901	156.609	226.4331	339.4825	416.4975	440.3045	522.6125	543.1656	609.9498	619.0058	719.3899	771.9335	805.8221	901.6611	987.808	995.3797	1060.5196	1124.4371	1160.3213	1191.8591	1279.4864	1386.2878	1417.7517	1454.5477	1482.458	1494.8117	1506.0678	1694.4773	1798.2243	1840.2216	3065.1103	3129.1723	3154.7825	3195.7273	3632.6077
CN1C(=O)NC=NC1=O	Cn1c(=O)[nH]cnc1=O	
InChI=1S/C4H5N3O2/c1-7-3(8)5-2-6-4(7)9/h2H,1H3,(H,5,6,8,9)	InChI=1S/C4H5N3O2/c1-7-3(8)5-2-6-4(7)9/h2H,1H3,(H,5,6,8,9)
