18
gdb 73296	2.91252	1.86241	1.32951	2.1003	71.23	-0.2305	0.0548	0.2853	966.2808	0.148112	-439.018711	-439.01117	-439.010225	-439.050032	30.702	
C	 0.0222198101	 1.4941594242	-0.0784028565	-0.489895
C	 0.0304918331	-0.0008031084	 0.0220621606	 0.510324
O	 0.4229956872	-0.6217089597	-1.1960076766	-0.317674
C	 0.3463436118	-2.0217579004	-0.9072705918	-0.155809
C	-0.0998031501	-1.9789301447	 0.5500347006	 0.355813
O	-0.3736710937	-3.1543865328	 1.236838793	-0.476496
C	 0.6397730359	-0.7684507336	 1.232919787	-0.190426
N	-0.58403652	-0.4190998152	 2.0431679658	-0.348627
C	-1.1234586816	-0.814373192	 0.6898675052	-0.15393
H	 1.01929764	 1.8664779671	-0.3323660865	 0.124442
H	-0.6709028158	 1.8215291869	-0.859215769	 0.125426
H	-0.2871363863	 1.918743765	 0.8787355164	 0.148253
H	-0.3831105924	-2.5147184825	-1.5614606861	 0.110555
H	 1.3270310366	-2.4962731096	-1.0494884735	 0.094764
H	 0.438730356	-3.6668064996	 1.3128508341	 0.289606
H	 1.6534227184	-0.7186698223	 1.6362056772	 0.073748
H	-0.7673263429	-1.1919035713	 2.6889903879	 0.219308
H	-2.1886437462	-0.8206640908	 0.4536351423	 0.080617
214.3943	223.7355	268.1029	270.6925	297.9611	336.3885	420.9087	447.4071	507.8892	594.5363	695.3234	712.3087	729.0036	744.1779	844.9959	875.9952	903.8625	925.2181	1032.7357	1036.4036	1057.972	1078.8699	1089.0539	1145.2167	1148.3898	1151.8643	1172.3081	1196.7196	1232.1852	1275.5903	1285.8119	1297.7593	1345.9007	1356.7491	1398.7191	1427.6396	1485.302	1494.3214	1519.8241	3007.1691	3046.1789	3053.1469	3093.6182	3108.287	3110.4419	3141.3359	3408.4097	3802.9521
CC12OCC3(O)C1NC23	C[C@@]12OC[C@@]3(O)[C@@H]1N[C@@H]23	
InChI=1S/C6H9NO2/c1-5-3-6(8,2-9-5)4(5)7-3/h3-4,7-8H,2H2,1H3	InChI=1S/C6H9NO2/c1-5-3-6(8,2-9-5)4(5)7-3/h3-4,7-8H,2H2,1H3/t3-,4+,5-,6-
