21
gdb 89445	2.32844	1.70183	1.23468	1.7027	82.54	-0.2367	0.0141	0.2508	1095.6849	0.183293	-387.096649	-387.08832	-387.087376	-387.129156	33.552	
C	-0.2722780501	 1.4663026063	 0.2662030201	-0.480542
C	 0.0968908997	 0.0310425584	-0.0821904054	 0.359509
C	-1.0873445943	-0.9833355952	 0.0282635542	-0.325179
C	-0.4701207935	-1.5681131014	 1.3279898254	 0.161106
O	-0.4246278345	-2.9621415403	 1.4976497497	-0.435591
C	 0.8526395716	-0.7931645408	 1.0271299653	-0.141425
C	 1.8772084538	-1.5664704765	 0.2440030676	-0.10492
C	 1.9131663894	-1.2136979245	-1.043334044	-0.066352
C	 0.9346396304	-0.1125569132	-1.375548893	-0.32197
H	 0.6225259827	 2.0891671971	 0.3775459136	 0.114005
H	-0.8952133026	 1.9144315536	-0.5170133293	 0.114424
H	-0.8350802836	 1.5210813751	 1.2045926879	 0.113807
H	-2.0916578166	-0.5589396132	 0.1101916953	 0.097796
H	-1.0880221819	-1.7166693974	-0.7844699887	 0.091498
H	-0.9625793412	-1.1803461764	 2.2240508811	 0.087423
H	 0.050122675	-3.3261427011	 0.7413179254	 0.276346
H	 1.2866808743	-0.256015773	 1.8779867855	 0.064401
H	 2.5176001572	-2.3145450187	 0.7002622481	 0.098894
H	 2.5855151094	-1.6360319904	-1.7834241373	 0.093507
H	 0.3056693645	-0.3528627774	-2.2431357775	 0.102447
H	 1.4646803202	 0.8164911792	-1.631997094	 0.100815
79.7147	187.1279	240.434	259.7755	298.6747	322.6795	378.4964	416.4222	437.6809	528.7772	578.2981	642.4923	748.271	770.8733	788.3645	839.9179	890.439	924.0074	937.4783	952.4858	975.0911	980.8974	987.0653	1052.5043	1073.6243	1103.7266	1123.6651	1129.3187	1175.8124	1186.1059	1230.5567	1233.2679	1261.3913	1268.2257	1296.2187	1325.1346	1347.8871	1372.3172	1410.1306	1439.1815	1475.5062	1483.1323	1494.913	1496.0206	1671.7362	2998.4598	3019.4131	3032.3088	3037.2528	3047.3779	3070.8796	3084.2416	3090.1296	3103.9245	3171.853	3196.9539	3787.4756
CC12CC(O)C1C=CC2	C[C@]12C[C@@H](O)[C@H]1C=CC2	
InChI=1S/C8H12O/c1-8-4-2-3-6(8)7(9)5-8/h2-3,6-7,9H,4-5H2,1H3	InChI=1S/C8H12O/c1-8-4-2-3-6(8)7(9)5-8/h2-3,6-7,9H,4-5H2,1H3/t6-,7-,8+/m1/s1
