18
gdb 52480	5.55644	0.55394	0.52612	1.7875	104.24	-0.2205	-0.0105	0.2099	2126.6677	0.14544	-364.751431	-364.741147	-364.740203	-364.78917	35.675	
C	-0.0161468574	 1.4673469657	 0.0128817353	-0.517861
C	 0.0082742051	 0.0159172273	 0.01585159	 0.224997
C	 0.0292894371	-1.1946994618	 0.0182399062	-0.202707
C	 0.0526498716	-2.5533386438	 0.0197559387	-0.210957
C	 0.0653854171	-3.7660758235	 0.0329438073	 0.310446
C	 0.0958858297	-5.203108239	 0.0037303709	 0.108712
C	 1.2255510248	-5.8286208651	-0.7938263321	-0.452732
C	-0.4795432319	-5.9243036823	 1.1847242296	-0.262246
N	-1.2054899376	-5.9198757012	-0.0891279525	-0.341849
H	 0.992983913	 1.8790411975	-0.1023649136	 0.157135
H	-0.6288058461	 1.8535032339	-0.8097242647	 0.156313
H	-0.4297071375	 1.859189705	 0.9491185749	 0.156174
H	 2.196914176	-5.5464055028	-0.376970526	 0.126477
H	 1.131182273	-6.9170217305	-0.7749569359	 0.129051
H	 1.1894291839	-5.4972249827	-1.8356255595	 0.132088
H	-0.0521083146	-6.883476208	 1.465246017	 0.122987
H	-0.8555530949	-5.3278650955	 2.0103832026	 0.123413
H	-1.9651599313	-5.2444712132	-0.0494579384	 0.240558
10.0902	60.1865	70.5921	154.7999	178.7155	208.7819	298.2354	319.8451	325.3557	361.9885	483.4806	508.2869	520.5476	562.3627	567.4369	754.5474	795.2908	915.0209	927.2269	980.0428	1036.532	1047.2735	1048.2393	1076.2408	1100.6574	1132.6674	1220.6165	1270.4832	1333.4946	1375.6621	1411.0665	1414.6325	1471.4295	1472.3682	1480.533	1495.9032	1504.1129	2271.4409	2376.2438	3023.3664	3043.8552	3084.9552	3085.6729	3109.8475	3115.3993	3129.1548	3201.8488	3504.3993
CC#CC#CC1(C)CN1	CC#CC#C[C@@]1(C)CN1	
InChI=1S/C8H9N/c1-3-4-5-6-8(2)7-9-8/h9H,7H2,1-2H3	InChI=1S/C8H9N/c1-3-4-5-6-8(2)7-9-8/h9H,7H2,1-2H3/t8-/m0/s1
