21
gdb 118773	3.06682	1.05987	0.91665	2.9301	75.98	-0.2283	0.062	0.2903	1347.9064	0.179417	-461.344103	-461.333777	-461.332833	-461.378753	39.266	
C	-0.0789808978	 1.5077105007	 0.1568432896	-0.441395
C	 0.077791901	 0.0074579939	 0.074199268	 0.328567
O	-0.8558423311	-0.6246571516	-0.7700509163	-0.465806
C	 1.4594331411	-0.6249642282	 0.1577984589	-0.420592
C	 0.448107099	-0.7812219	 1.2940060565	 0.403472
O	 0.6593942625	-0.0137995131	 2.4459904447	-0.484889
C	-0.1737435651	-2.139987572	 1.5579305356	-0.263664
C	 0.7880420452	-3.1025077135	 2.2457042025	-0.086806
O	 1.1790564665	-2.5334632853	 3.502332033	-0.419258
H	 0.5938668412	 1.9295859585	 0.9045237515	 0.139013
H	 0.1396904893	 1.9721403674	-0.8128488253	 0.097555
H	-1.1066895781	 1.7635547955	 0.4330145217	 0.123884
H	-0.6375898244	-0.3801177176	-1.6762783319	 0.278722
H	 1.6501211125	-1.4795240598	-0.4842899655	 0.098754
H	 2.3079094066	 0.0255214049	 0.340209664	 0.10881
H	 1.0664079695	-0.6139799143	 3.0878418756	 0.285563
H	-1.0585284084	-2.0025594714	 2.1908350606	 0.113721
H	-0.5093187674	-2.5831615725	 0.6175122038	 0.120679
H	 0.3006624003	-4.0752282008	 2.4053635764	 0.093547
H	 1.6703484867	-3.2646601899	 1.6096246784	 0.096538
H	 1.9083649409	-3.047230381	 3.8604518482	 0.293584
69.9819	139.6044	157.2207	201.7241	224.4294	257.2953	278.8487	285.4692	307.5037	388.3802	412.5078	436.2527	441.6583	476.913	552.778	588.2445	691.9612	753.6555	867.8142	903.8121	912.6067	919.1317	959.47	975.4499	1012.0702	1042.0564	1084.4929	1094.454	1123.5323	1190.4029	1222.1959	1256.3824	1280.5413	1290.9999	1317.1128	1363.1627	1378.233	1409.3043	1426.7851	1449.3221	1466.0425	1485.6934	1488.3314	1514.8076	1533.1011	2987.8932	3020.9648	3026.559	3049.4096	3092.5019	3114.4412	3121.3595	3144.9756	3218.7117	3716.4142	3792.1287	3838.0042
CC1(O)CC1(O)CCO	C[C@@]1(O)C[C@]1(O)CCO	
InChI=1S/C6H12O3/c1-5(8)4-6(5,9)2-3-7/h7-9H,2-4H2,1H3	InChI=1S/C6H12O3/c1-5(8)4-6(5,9)2-3-7/h7-9H,2-4H2,1H3/t5-,6-/m1/s1
