25
gdb 119966	2.91477	0.80854	0.75255	0.9422	90.6	-0.2468	0.0788	0.3256	1706.976	0.226897	-389.471993	-389.460642	-389.459698	-389.509332	40.323	
C	 2.946192337	 0.5622118857	 0.708105895	-0.375399
C	 1.8299444565	-0.480881239	 0.5690544784	-0.195267
C	 1.6120116058	-0.8963675429	-0.8744517269	-0.028128
C	 2.36910477	-2.0246673683	-1.5478365968	-0.008043
C	 3.3884768744	-2.8911988577	-0.8375634057	-0.406181
C	 0.8802451333	-2.1563819432	-1.2974419975	-0.067326
C	 0.3234013954	-3.1484728525	-0.3113772129	-0.074397
O	 0.3228156398	-4.4288104981	-0.9184229198	-0.231693
C	-0.2502561551	-5.4170280151	-0.0994342634	-0.223792
H	 3.9034606014	 0.1636702158	 0.356761112	 0.120016
H	 2.7242161201	 1.4569702249	 0.1159465555	 0.113378
H	 3.0715925078	 0.874432393	 1.749707542	 0.108467
H	 2.0672130469	-1.345417799	 1.1966230726	 0.095417
H	 0.8948948206	-0.0667497109	 0.9692894394	 0.095235
H	 1.4172946549	-0.0392821951	-1.5170235414	 0.077247
H	 2.6302183133	-1.8387506182	-2.5868447034	 0.07939
H	 3.166518291	-3.0255583105	 0.2238873542	 0.112429
H	 3.4233745491	-3.8879119429	-1.2890415638	 0.127301
H	 4.3901993948	-2.4527846458	-0.9073756379	 0.11096
H	 0.2487897366	-2.0595220711	-2.1768255435	 0.084204
H	 0.9067192009	-3.1763218224	 0.6215308771	 0.08008
H	-0.70658257	-2.8663317951	-0.0301434462	 0.08291
H	 0.2967461439	-5.5330431687	 0.8507247133	 0.099013
H	-1.3023596022	-5.192792462	 0.1413639527	 0.099965
H	-0.2087465062	-6.362684501	-0.6459202929	 0.124214
49.8115	74.9463	88.2404	97.9401	139.8815	195.9599	219.4997	236.3817	255.5347	286.6375	293.5535	386.3522	494.5111	544.6528	559.8288	743.4678	773.784	814.7944	844.4931	935.2425	956.841	981.7869	1012.2471	1036.2468	1053.5773	1072.0854	1100.4214	1136.4572	1148.2371	1159.5609	1175.272	1192.8701	1194.5761	1226.7204	1265.6606	1278.088	1291.4895	1336.9466	1366.4754	1399.0455	1409.088	1419.4884	1427.747	1463.2171	1480.0244	1483.3026	1484.6267	1496.6028	1498.3142	1501.6988	1505.2767	1511.7898	1527.8745	2946.4837	2963.3801	2995.017	3002.525	3019.7019	3031.3604	3035.5016	3069.157	3093.6567	3098.9303	3105.3761	3109.5816	3111.2612	3113.0228	3128.9833	3143.1646
CCC1C(C)C1COC	CC[C@H]1[C@@H](C)[C@H]1COC	
InChI=1S/C8H16O/c1-4-7-6(2)8(7)5-9-3/h6-8H,4-5H2,1-3H3	InChI=1S/C8H16O/c1-4-7-6(2)8(7)5-9-3/h6-8H,4-5H2,1-3H3/t6-,7+,8-/m1/s1
