19
gdb 103360	3.18745	1.4234	1.27491	1.9811	74.91	-0.2323	0.0046	0.2369	1067.912	0.157996	-422.975491	-422.967066	-422.966122	-423.008234	32.977	
C	 0.0139820228	 1.5737871742	-0.1263148957	-0.406497
C	-0.0585614032	 0.064336135	 0.1444754629	-0.249787
C	-1.474381795	-0.5105942815	 0.0903409319	 0.431162
O	-2.3055140531	 0.0473486869	 1.0677782498	-0.480268
C	-2.0462651908	-0.7517037638	-1.3810014109	-0.064352
O	-1.1580808135	-1.9119142887	-1.4333326573	-0.284512
C	-1.5508745758	-2.0756422825	-0.0338276795	-0.035457
C	-3.0626159191	-2.3111090425	-0.1606352928	-0.074198
C	-3.3985197117	-1.4060758417	-1.0823037998	-0.069998
H	 1.0525839786	 1.9158188787	-0.1063778997	 0.126133
H	-0.4009408247	 1.8268905623	-1.1074325215	 0.125915
H	-0.5219679852	 2.1688234814	 0.6244403094	 0.106148
H	 0.5548411491	-0.4677204188	-0.584601114	 0.128985
H	 0.3547596954	-0.1482052673	 1.1388554629	 0.101203
H	-2.0424111059	 0.9615844238	 1.209379207	 0.280827
H	-1.9335339012	-0.0571602857	-2.2132733641	 0.072013
H	-0.9248425559	-2.7585863687	 0.5402910833	 0.074983
H	-3.6630547162	-3.0127937789	 0.3979713505	 0.109921
H	-4.3584359445	-1.1454757523	-1.5018022024	 0.107777
84.4818	149.9745	192.7572	214.3705	271.9799	314.2934	384.0319	394.9103	541.9591	582.801	612.387	635.5521	730.0064	787.6797	801.1216	848.4925	869.9083	888.3305	908.3409	910.6466	952.216	964.3492	998.9	1025.8534	1080.6271	1131.922	1142.0209	1154.1207	1208.8166	1230.5201	1237.4454	1294.3013	1299.3553	1305.8779	1339.0161	1397.915	1416.8824	1483.7129	1498.6499	1508.3917	1615.4148	3021.2479	3030.341	3080.4716	3111.4988	3121.2487	3123.8302	3127.6535	3236.1938	3263.0026	3826.5248
CCC1(O)C2OC1C=C2	CC[C@@]1(O)[C@H]2O[C@@H]1C=C2	
InChI=1S/C7H10O2/c1-2-7(8)5-3-4-6(7)9-5/h3-6,8H,2H2,1H3	InChI=1S/C7H10O2/c1-2-7(8)5-3-4-6(7)9-5/h3-6,8H,2H2,1H3/t5-,6+,7+
