17
gdb 12402	3.06143	2.08661	1.31471	4.1551	64.5	-0.2475	0.0169	0.2644	914.1199	0.144985	-401.049962	-401.04272	-401.041776	-401.08141	27.904	
O	 0.102251347	 1.3591018562	 0.2215549585	-0.444692
C	 0.0016323162	-0.0247491997	 0.0220316089	 0.066061
C	-1.4507798584	-0.49784396	 0.0364954764	-0.224455
C	-1.4831249396	-1.9972950051	-0.2722237611	-0.212898
C	-0.9112431331	-2.2779565287	-1.6637553236	-0.150928
N	 0.3464566987	-1.5629951394	-1.8836271005	-0.313203
C	 0.7076463462	-0.3943350717	-1.2890447991	 0.374697
O	 1.5878229047	 0.3317574922	-1.7280278874	-0.395648
H	 0.8503294275	 1.6325404816	-0.3341739386	 0.29147
H	 0.5463976067	-0.5714113765	 0.8156541312	 0.087549
H	-1.8984025131	-0.2816496593	 1.0109902757	 0.112421
H	-2.0194544274	 0.0668302492	-0.712695897	 0.109137
H	-0.8984930844	-2.5394957916	 0.4810449634	 0.113041
H	-2.5033968109	-2.3894342401	-0.2272424154	 0.10977
H	-0.7311638063	-3.3505190909	-1.7939758795	 0.115559
H	-1.6447155869	-1.9794000887	-2.4276765943	 0.113806
H	 0.8324984031	-1.7387972676	-2.7528183876	 0.248314
99.2743	153.2022	286.4994	316.0226	371.1234	408.9388	459.0754	506.086	539.83	611.8982	673.1657	704.4471	796.3551	881.0242	910.2016	930.1568	988.3601	1067.7635	1112.45	1118.347	1156.15	1185.8907	1219.0942	1279.6609	1300.8537	1323.5059	1333.3829	1377.931	1386.6835	1408.9125	1460.7657	1482.625	1490.6143	1504.0068	1529.6864	1773.1147	2917.8158	2991.4594	3033.438	3039.4382	3060.9458	3088.9313	3092.0177	3588.1352	3681.8782
OC1CCCNC1=O	O[C@H]1CCCNC1=O	
InChI=1S/C5H9NO2/c7-4-2-1-3-6-5(4)8/h4,7H,1-3H2,(H,6,8)	InChI=1S/C5H9NO2/c7-4-2-1-3-6-5(4)8/h4,7H,1-3H2,(H,6,8)/t4-/m0/s1
