19
gdb 85833	2.38227	1.35016	1.15541	4.6004	76.02	-0.251	0.0183	0.2694	1170.4992	0.157711	-419.20224	-419.192471	-419.191527	-419.23691	35.937	
C	-0.8872216372	 1.0838536177	-0.0648619852	-0.389323
C	 0.0602768979	-0.0974343168	 0.0335084678	 0.00819
N	 1.3426774786	 0.059715434	-0.6985417221	-0.342556
C	 2.134568528	-0.4955435488	 0.4242044167	 0.096349
C	 2.5802700858	-1.9539665147	 0.2791070446	-0.456258
C	 3.2743615447	 0.3638419431	 0.7751119328	 0.27891
N	 4.145698231	 1.0636098815	 1.0710973868	-0.346021
C	 0.8714016283	-0.2984308167	 1.3548121163	 0.104304
O	 0.9047643433	 0.7524609135	 2.2708644701	-0.416192
H	-0.3913839619	 2.014138835	 0.2235570289	 0.116078
H	-1.2452511499	 1.1994088183	-1.0929786506	 0.119877
H	-1.7556411767	 0.9380909458	 0.5853431799	 0.124357
H	-0.4749934254	-1.0226778129	-0.2246964084	 0.069531
H	 1.4366773153	-0.436419297	-1.5783168627	 0.221688
H	 3.2949051761	-2.0613120066	-0.5428186161	 0.138143
H	 3.0610065841	-2.309557873	 1.1953481001	 0.145798
H	 1.7133679721	-2.5886222213	 0.0718393602	 0.12673
H	 0.6116711711	-1.1909579619	 1.9269076474	 0.100334
H	 1.3063509047	 1.5269480807	 1.8595433637	 0.300061
39.465	134.4672	169.8784	199.5699	233.0564	241.939	258.5971	297.7295	334.2174	396.0052	416.8614	493.3564	580.1947	604.7323	637.7032	716.6219	788.2432	848.6864	917.0744	937.2505	969.4757	1016.3585	1074.2633	1119.051	1133.0203	1151.9641	1173.5629	1217.9751	1235.2939	1287.7806	1318.3039	1376.3419	1386.3064	1405.6764	1416.0301	1442.4803	1482.1286	1485.4906	1492.5928	1493.3082	2349.6119	2989.539	3036.8842	3040.6033	3098.8422	3108.5503	3113.048	3116.9029	3122.7545	3530.0614	3797.2969
CC1NC(C)(C#N)C1O	C[C@H]1N[C@@](C)(C#N)[C@H]1O	
InChI=1S/C6H10N2O/c1-4-5(9)6(2,3-7)8-4/h4-5,8-9H,1-2H3	InChI=1S/C6H10N2O/c1-4-5(9)6(2,3-7)8-4/h4-5,8-9H,1-2H3/t4-,5+,6+/m1/s1
