19
gdb 106559	1.99467	1.59982	1.1763	2.1671	71.59	-0.2491	0.0548	0.3039	1142.4697	0.157342	-460.096661	-460.087609	-460.086665	-460.130332	34.339	
C	 0.1818607019	 1.4751025628	 0.0802293182	-0.383301
C	 0.0011061076	-0.0363477946	-0.0995897678	-0.327728
C	 0.6058804481	-0.5651959504	-1.3630121494	 0.34335
O	 2.0603532161	-0.2878070912	-1.6338417008	-0.376923
C	 1.6148424132	-1.1057998165	-2.7896187793	-0.06771
C	 0.8901903927	-2.0449808895	-1.7902126009	 0.141442
O	 1.6639884593	-2.8208833349	-0.9369923065	-0.451227
C	 0.3503397146	-0.2033394175	-2.8423709393	 0.084483
O	-0.8536288251	-0.6629235861	-3.3902969009	-0.433029
H	 1.2418445694	 1.7428320251	 0.063987649	 0.136641
H	-0.316821029	 2.0318822215	-0.7194653989	 0.120025
H	-0.241584206	 1.8054249045	 1.0329788038	 0.11503
H	 0.4462216889	-0.5791417716	 0.7434522616	 0.113436
H	-1.0641105446	-0.2990549446	-0.1107726725	 0.119887
H	 2.3604224538	-1.3263950687	-3.554415655	 0.09065
H	 0.0515904397	-2.6350807456	-2.1570222975	 0.105615
H	 2.3931252998	-2.2452592995	-0.6637386515	 0.286109
H	 0.5830103613	 0.8389317542	-3.0836003797	 0.090019
H	-0.8569150216	-0.4659360673	-4.3320180827	 0.29323
71.8773	149.8872	169.8741	208.4956	244.8291	257.9183	270.1294	345.4232	424.4685	487.4687	582.883	603.403	629.9368	700.9555	739.0372	799.222	837.5854	887.9732	906.265	937.9957	955.3746	1000.3618	1079.8706	1126.7575	1132.1799	1144.3826	1163.5807	1183.9207	1206.7139	1222.9534	1270.2732	1292.0179	1304.1428	1321.6414	1379.3033	1409.7393	1423.0071	1467.8028	1471.972	1496.3331	1507.1813	3029.6706	3042.5005	3063.2239	3064.8999	3110.5193	3115.0788	3121.8926	3138.9109	3737.9033	3825.3617
CCC12OC(C1O)C2O	CC[C@@]12O[C@@H]([C@H]1O)[C@H]2O	
InChI=1S/C6H10O3/c1-2-6-4(7)3(9-6)5(6)8/h3-5,7-8H,2H2,1H3	InChI=1S/C6H10O3/c1-2-6-4(7)3(9-6)5(6)8/h3-5,7-8H,2H2,1H3/t3-,4-,5-,6+/m1/s1
