19
gdb 58144	1.80044	1.54881	1.14116	2.8843	72.48	-0.2572	-0.0616	0.1955	1174.1027	0.154012	-460.179282	-460.168488	-460.167544	-460.215598	37.747	
C	 0.1235810668	 1.6080503701	 0.0772821314	-0.432564
C	 0.028380317	 0.0850699907	 0.0940513325	 0.117978
O	 0.8207582717	-0.4841356261	 1.1312190418	-0.436332
C	-1.4270687617	-0.4619959903	 0.1700412888	 0.038068
C	-2.2615203911	 0.0627248976	 1.3407280553	-0.457526
C	-2.1525477563	-0.2143864177	-1.1538713305	 0.133424
O	-1.6083711204	-0.1587347508	-2.2271863891	-0.256758
C	-1.2930320898	-1.9975412886	 0.2645749567	 0.153321
O	-1.9210043477	-2.6845899006	 1.0220242516	-0.244827
H	 1.1725065013	 1.9035653528	-0.0080504617	 0.13519
H	-0.4232233157	 2.029967402	-0.7705519091	 0.136672
H	-0.2784547515	 2.046653973	 0.9975499144	 0.114049
H	 0.4596202969	-0.3030083369	-0.8332215719	 0.11764
H	 0.5804140454	-0.0636926543	 1.9639095629	 0.28477
H	-2.4935783576	 1.1250442074	 1.2271766969	 0.123515
H	-3.1985408957	-0.4938413989	 1.4162050308	 0.146984
H	-1.7369101683	-0.0801638153	 2.289570592	 0.123038
H	-3.2567752921	-0.1153729563	-1.0608181152	 0.096691
H	-0.5654275313	-2.4256808379	-0.4555357375	 0.106668
39.2699	80.9331	96.1938	165.9793	180.8503	237.5781	254.0072	275.6066	292.659	297.4397	311.399	369.0163	450.0425	479.4792	606.3814	652.5083	749.2587	847.1725	895.6333	917.6745	976.3942	1001.9645	1051.3104	1079.2434	1111.8045	1168.7637	1184.96	1219.377	1297.7801	1360.9659	1397.7886	1406.3122	1417.4652	1422.3312	1426.4843	1484.5224	1490.6851	1497.4576	1501.1575	1797.5543	1841.8037	2887.0414	2922.8603	3037.7638	3050.2997	3076.314	3110.6277	3118.959	3126.8753	3130.4425	3807.1443
CC(O)C(C)(C=O)C=O	C[C@@H](O)C(C)(C=O)C=O	
InChI=1S/C6H10O3/c1-5(9)6(2,3-7)4-8/h3-5,9H,1-2H3	InChI=1S/C6H10O3/c1-5(9)6(2,3-7)4-8/h3-5,9H,1-2H3/t5-/m1/s1
