14
gdb 33891	3.63412	1.51496	1.33181	4.1142	65.34	-0.2682	-0.0126	0.2556	934.9494	0.101944	-436.62463	-436.618185	-436.617241	-436.655508	25.56	
N	 0.0367625137	-1.0972870066	-0.0469120917	-0.332514
C	 0.0545190234	 0.0576135416	-0.0016617324	 0.223257
C	 0.023318242	 1.4879333766	 0.0806433259	 0.307086
O	 0.3387401506	 2.2416763638	-1.1027924878	-0.267673
C	 1.1780212479	 2.39799493	 0.0473510198	-0.029562
C	 0.6838804992	 3.4470328317	 1.080614623	 0.029189
C	-0.7810406562	 3.7134772805	 0.6664503319	-0.231669
C	-0.8498203979	 2.2434569835	 1.1332627121	-0.019646
O	 0.1708145319	 2.5589051421	 2.1359104132	-0.28931
H	 2.2111556782	 2.0865272468	-0.0514168364	 0.139935
H	 1.3814006783	 4.20425622	 1.43224321	 0.101293
H	-1.2716551665	 4.3637180913	 1.3888178161	 0.127596
H	-1.0192763277	 3.9708312734	-0.3629325367	 0.135092
H	-1.733657387	 1.7450511153	 1.5247406229	 0.106926
137.5509	156.3582	376.8421	404.2651	472.5524	534.9942	569.9473	592.7679	625.999	713.4299	811.535	853.3989	866.1993	895.2565	898.8605	943.6617	946.8715	1008.9138	1017.1002	1080.7087	1101.9532	1156.0529	1179.7328	1233.917	1261.7378	1270.5867	1282.9476	1298.7457	1413.2695	1475.0856	2361.9364	3111.1323	3151.3077	3157.8435	3185.6452	3198.9317
N#CC12OC1C1CC2O1	N#C[C@]12O[C@H]1[C@H]1C[C@@H]2O1	
InChI=1S/C6H5NO2/c7-2-6-4-1-3(8-4)5(6)9-6/h3-5H,1H2	InChI=1S/C6H5NO2/c7-2-6-4-1-3(8-4)5(6)9-6/h3-5H,1H2/t3-,4+,5+,6-/m1/s1
