18
gdb 95869	2.45418	1.34063	1.09965	3.2119	71.43	-0.2755	0.0158	0.2914	1147.9095	0.148811	-439.102001	-439.093624	-439.09268	-439.134941	31.747	
O	-0.0939918021	 1.4776625741	 0.0738294315	-0.434565
C	 0.0421053835	 0.0664529229	 0.0422272102	 0.11544
C	 0.7470945628	-0.4875665157	 1.287170886	-0.23506
C	 0.6851201668	-2.01597815	 1.3007615023	-0.096079
O	-0.6610731193	-2.4859597344	 1.2222385525	-0.241722
C	-1.3477511935	-2.0453663686	 0.069082145	-0.043754
C	-1.370646585	-0.5090553461	-0.0420705935	-0.217738
C	-0.785429688	-2.6661725121	-1.1568749921	 0.273636
N	-0.3391698549	-3.1495844664	-2.1070703213	-0.332248
H	 0.7875675752	 1.8643145565	 0.0871827028	 0.283916
H	 0.6033692616	-0.2454348957	-0.8540583167	 0.08771
H	 1.7950277884	-0.1637354147	 1.3145684322	 0.094854
H	 0.2498655641	-0.0869182023	 2.1779121768	 0.116164
H	 1.2745073977	-2.4354276755	 0.4714273124	 0.117215
H	 1.0797473301	-2.4238983979	 2.2339207618	 0.122507
H	-2.3707976811	-2.4193976187	 0.1766221375	 0.138645
H	-1.9593885819	-0.121277626	 0.7955299425	 0.123742
H	-1.8584374642	-0.2001624393	-0.9708181097	 0.127335
98.8509	123.4668	205.3021	252.3936	277.8637	340.7057	341.4626	400.6829	419.5146	477.3779	555.161	604.36	719.1614	801.3556	823.5256	876.3002	910.5151	956.4495	1008.0374	1024.62	1080.9401	1102.8038	1118.8417	1150.8226	1195.2578	1230.249	1267.6015	1292.9601	1308.3879	1336.1066	1351.9474	1367.7617	1390.7563	1414.6781	1443.2429	1471.1948	1488.6386	1503.8711	2350.7266	2968.0327	3000.0813	3029.616	3055.5267	3071.2775	3080.3424	3106.5491	3109.2312	3815.8993
OC1CCOC(C1)C#N	O[C@H]1CCO[C@@H](C1)C#N	
InChI=1S/C6H9NO2/c7-4-6-3-5(8)1-2-9-6/h5-6,8H,1-3H2	InChI=1S/C6H9NO2/c7-4-6-3-5(8)1-2-9-6/h5-6,8H,1-3H2/t5-,6-/m0/s1
