19
gdb 71348	3.27141	1.53489	1.22592	1.3485	80.71	-0.2449	0.08	0.325	1055.4919	0.15904	-385.793686	-385.786152	-385.785207	-385.825228	31.051	
O	-0.0635631752	 1.3409378279	 0.0457739462	-0.473144
C	 0.0621577517	-0.0331634661	 0.0597837928	 0.413899
C	 0.7822489796	-0.9391740407	 1.0809942908	-0.343682
C	 0.1073411988	-1.9049322606	 0.0855242976	-0.037425
C	-1.1641065062	-0.9924993702	-0.0695345601	-0.180769
C	-1.0612928016	-1.0207415593	-1.5926181866	 0.431523
C	-1.7848734504	-1.8150874609	-2.6294912999	-0.367374
C	-1.8031494982	-0.2903474406	-2.6581361905	-0.341624
C	 0.4007881069	-0.9932754506	-1.1560961553	-0.222278
H	 0.8152058821	 1.7271118862	-0.0367525237	 0.282752
H	 1.8776947729	-0.9198445094	 1.0801538825	 0.086014
H	 0.3927227759	-0.9319239524	 2.1039058959	 0.096037
H	 0.1069860869	-2.9921507586	 0.0806463547	 0.081706
H	-2.0438936444	-0.9980299444	 0.5758680831	 0.072074
H	-1.2061727696	-2.3295886591	-3.3906051274	 0.107812
H	-2.7000394104	-2.327518322	-2.348851252	 0.109025
H	-2.728639462	 0.212200718	-2.3953498303	 0.112209
H	-1.2362404489	 0.208610595	-3.4380311102	 0.107576
H	 1.3127201221	-0.9937065521	-1.7566650478	 0.065667
128.9008	217.0786	240.3047	261.1141	347.5759	376.9509	456.8011	506.9392	557.2916	680.8374	717.5252	767.5416	818.5649	849.5071	860.9777	885.6791	911.6785	918.1934	954.8173	973.5755	988.9583	1030.8189	1046.2384	1052.5695	1072.635	1075.2607	1087.3938	1118.3542	1147.4565	1172.5109	1174.8696	1181.5634	1210.3331	1232.4304	1266.0535	1295.9497	1378.6258	1424.9104	1461.7985	1513.0708	1519.4879	3033.8478	3093.663	3094.3723	3105.1484	3118.3554	3123.5953	3149.4945	3194.8691	3209.8249	3804.1587
OC12CC3C1C1(CC1)C23	O[C@@]12C[C@H]3[C@@H]1C1(CC1)[C@@H]23	
InChI=1S/C8H10O/c9-8-3-4-5(8)7(1-2-7)6(4)8/h4-6,9H,1-3H2	InChI=1S/C8H10O/c9-8-3-4-5(8)7(1-2-7)6(4)8/h4-6,9H,1-3H2/t4-,5+,6-,8-
