17
gdb 25669	3.62489	1.01023	0.79798	3.845	90.57	-0.2059	-0.0046	0.2014	1425.9098	0.136158	-380.892088	-380.882808	-380.881864	-380.928085	31.867	
C	-0.0584532249	 1.4378879642	-0.0203971624	-0.511626
C	-0.0255370151	-0.0155555573	-0.0169976362	 0.21506
C	 0.0222045863	-1.2216033697	-0.014438344	-0.072837
C	 0.0799314162	-2.6342665134	-0.0114652703	 0.177749
N	 1.1805228946	-3.3744756431	-0.0240482982	-0.317779
C	 0.7483430146	-4.6699965272	-0.014911046	-0.111399
C	-0.6235963113	-4.7247271622	 0.0033611105	-0.123333
N	-1.0518623131	-3.4215101225	 0.0055716897	-0.044948
C	-2.4291703501	-2.9695239668	 0.0225526819	-0.346416
H	 0.9575702388	 1.8469102787	-0.0309656362	 0.160513
H	-0.5817203504	 1.8257542294	-0.9017281598	 0.150869
H	-0.5651002124	 1.8302387667	 0.8686227043	 0.150848
H	 1.4442789039	-5.4953287355	-0.0219245417	 0.105906
H	-1.3206330915	-5.5468337682	 0.0147450485	 0.124199
H	-2.9429154053	-3.3254815319	 0.9207560137	 0.142344
H	-2.4350845772	-1.8791521415	 0.0196391217	 0.158505
H	-2.9664635031	-3.3303684197	-0.8597837153	 0.142345
23.5602	66.6228	89.9016	106.9781	198.8491	282.6088	283.0312	371.4211	473.699	486.2998	556.4523	634.4723	708.9793	727.8239	747.7605	854.3848	923.7837	1008.2733	1049.9584	1051.9763	1065.0276	1106.7189	1152.8473	1174.0566	1246.3184	1311.4758	1379.7705	1411.2411	1436.7346	1467.5608	1473.4722	1476.4029	1490.2725	1503.2454	1507.5873	1552.1325	2354.7445	3025.1311	3041.2247	3083.0582	3092.5072	3101.7704	3150.9034	3243.8999	3271.445
CC#CC1=NC=CN1C	CC#Cc1nccn1C	
InChI=1S/C7H8N2/c1-3-4-7-8-5-6-9(7)2/h5-6H,1-2H3	InChI=1S/C7H8N2/c1-3-4-7-8-5-6-9(7)2/h5-6H,1-2H3
