21
gdb 77415	1.83381	1.65305	1.55435	1.0458	82.56	-0.2008	0.0806	0.2814	1092.3916	0.180608	-387.012809	-387.003498	-387.002554	-387.046081	36.234	
C	-0.1977039001	 1.5956380978	 0.1022157778	-0.440973
C	 0.1148313346	 0.1056528282	-0.0440753391	-0.141716
C	 0.6042940219	-0.7054008612	-1.2387179489	 0.256818
C	-0.2010042526	-1.8054557743	-1.8688885057	-0.4912
C	 1.8361852448	-0.1095446051	-1.9909595704	-0.101137
C	 2.4266702758	 1.1654742566	-1.445015882	-0.313822
C	 2.6450437416	-0.1219145789	-0.7026489799	-0.119911
C	 1.4027401261	-0.6834195097	 0.0490127035	 0.317598
O	 1.5562396372	-1.7337050915	 0.9424981164	-0.459268
H	-0.2814413958	 2.1007391386	-0.8638290365	 0.130658
H	-1.158704229	 1.7203946241	 0.6111692217	 0.110176
H	 0.551129727	 2.1262966438	 0.6985029614	 0.12364
H	-0.6384721854	-0.5062960616	 0.4536641869	 0.091067
H	-0.8646851992	-1.4168096858	-2.651559762	 0.115392
H	 0.4490990028	-2.5574180928	-2.3315923733	 0.118753
H	-0.8210642383	-2.3145789488	-1.1251065772	 0.123293
H	 2.134800148	-0.5010070018	-2.9557202518	 0.086134
H	 3.3018014072	 1.5021563234	-1.9961510554	 0.109395
H	 1.8317666017	 1.9775328139	-1.0550873458	 0.112417
H	 3.6241611523	-0.555257098	-0.5434888202	 0.09067
H	 1.7076091394	-1.3637272169	 1.8199887403	 0.282017
111.8678	157.9509	183.8584	212.0938	242.5755	265.9584	268.266	320.535	353.2875	402.9923	543.0632	581.0423	592.9779	704.6755	707.1111	748.0914	786.4422	842.9472	887.9091	942.2971	948.8531	1008.0191	1012.343	1061.0485	1063.8637	1076.6452	1085.2198	1097.4405	1109.6682	1163.0151	1185.8094	1214.3108	1222.2637	1291.5071	1318.9806	1330.0056	1357.9972	1409.8429	1414.9093	1481.8678	1486.1583	1494.6887	1502.9888	1509.0816	1515.2839	3017.0174	3035.1913	3071.5478	3087.5506	3101.8578	3105.0098	3110.4467	3130.6994	3181.0321	3196.4029	3246.715	3776.3891
CC1C2(C)C3CC3C12O	C[C@H]1[C@@]2(C)[C@H]3C[C@H]3[C@@]12O	
InChI=1S/C8H12O/c1-4-7(2)5-3-6(5)8(4,7)9/h4-6,9H,3H2,1-2H3	InChI=1S/C8H12O/c1-4-7(2)5-3-6(5)8(4,7)9/h4-6,9H,3H2,1-2H3/t4-,5-,6+,7-,8-/m0/s1
