18
gdb 71036	3.83514	1.65477	1.36293	1.1916	75.	-0.2224	0.0828	0.3052	952.1214	0.1494	-401.841644	-401.834945	-401.834001	-401.872181	28.397	
O	 0.2159026708	 1.328520196	 0.0864904821	-0.467167
C	 0.0744349784	-0.0402639398	 0.0739662983	 0.380287
C	 0.6776033509	-0.9738854486	 1.1667555886	-0.396985
C	-0.0409655295	-1.9295882907	 0.1823913294	 0.324157
C	-0.4943140578	-3.2769041202	-0.3243583775	-0.372554
C	-1.2506240237	-2.6987129708	-1.6036378699	-0.154365
N	-1.0735516266	-1.2068974644	-1.5539560944	-0.173538
C	-1.198752872	-0.9210763	-0.0756592171	-0.109387
C	 0.3470971094	-1.0718580104	-1.0577144094	-0.109384
H	-0.2397184952	 1.6849449663	-0.6852404426	 0.292784
H	 1.7687934022	-1.0301265611	 1.2084940772	 0.105873
H	 0.2541656193	-0.8823915432	 2.1707129785	 0.105873
H	 0.3233984515	-3.9505180625	-0.5946207946	 0.105182
H	-1.1699269284	-3.804859268	 0.3540676464	 0.105182
H	-0.8279108983	-3.0826073097	-2.5361993648	 0.107103
H	-2.3176842922	-2.9372966795	-1.5897703841	 0.107102
H	-2.1549588759	-0.868899047	 0.4493586873	 0.074917
H	 1.2234996071	-1.1984318963	-1.6969273835	 0.074917
240.4771	263.0017	268.1984	328.5805	386.8243	486.5682	488.9418	592.5406	717.9971	737.6301	745.0089	822.0623	831.9339	848.4151	872.592	873.5914	938.6648	956.8581	990.8312	1019.3623	1023.1532	1047.4315	1089.6723	1111.4427	1127.8742	1138.9684	1161.5215	1166.806	1216.8085	1221.2312	1242.6385	1256.6031	1283.8266	1324.8571	1354.2132	1400.9075	1490.9778	1512.1111	1516.2765	3052.9232	3054.6232	3062.9483	3090.7056	3095.3393	3098.0098	3114.4693	3114.8921	3797.8001
OC12CC34CCN(C13)C24	O[C@@]12C[C@@]34CCN([C@H]13)[C@@H]24	
InChI=1S/C7H9NO/c9-7-3-6-1-2-8(4(6)7)5(6)7/h4-5,9H,1-3H2	InChI=1S/C7H9NO/c9-7-3-6-1-2-8(4(6)7)5(6)7/h4-5,9H,1-3H2/t4-,5+,6-,7-
