19
gdb 38792	2.64591	2.34311	1.91495	1.4257	76.24	-0.2377	0.0733	0.311	830.5518	0.163331	-385.853842	-385.848045	-385.847101	-385.883544	26.049	
C	-0.0229436262	 1.5646980984	 0.1091672306	-0.258687
C	 1.5341126398	 1.5475903811	-0.0099398266	 0.083753
O	 2.0534828521	 1.7881722346	-1.305414926	-0.255534
C	 1.845492782	 0.6501320912	-2.1224146135	 0.083753
C	 0.3757046444	 0.4157170374	-2.5953592	-0.258688
C	 0.1742650877	-0.5879129979	-1.4351482554	-0.044778
C	-0.0371568954	 0.0214433445	-0.0008196386	-0.044778
C	 1.5151891804	-0.0003467711	 0.2203428253	-0.056698
C	 1.7224624886	-0.5977491392	-1.1858529311	-0.056695
H	-0.3230945549	 1.8813421232	 1.1130474208	 0.098543
H	-0.5713139432	 2.160970748	-0.6244905372	 0.101139
H	 2.08057253	 2.1894596089	 0.6836432642	 0.077471
H	 2.6091466688	 0.6660089284	-2.90232023	 0.077471
H	-0.2706298786	 1.2943476884	-2.6643861398	 0.101139
H	 0.3655498176	-0.1034782973	-3.5589262474	 0.098544
H	-0.4012144753	-1.4915520594	-1.637347045	 0.064034
H	-0.7355578642	-0.5279174202	 0.6308949388	 0.064034
H	 2.0155370731	-0.4205046164	 1.0910529263	 0.062989
H	 2.3744642333	-1.4550097628	-1.3440140055	 0.062989
261.407	324.0747	416.9235	463.0379	627.1164	631.6835	634.815	724.5594	790.4288	798.1309	807.7928	860.3989	868.3023	876.0412	904.876	935.589	949.4873	959.4994	975.4218	1006.6223	1034.8711	1059.8529	1102.0962	1107.15	1121.1356	1131.216	1179.3328	1200.1063	1204.1404	1205.1631	1228.8402	1243.214	1261.6224	1276.6501	1285.3081	1309.1795	1309.5177	1343.9297	1382.2757	1461.6086	1483.1416	3048.5481	3051.7855	3088.6748	3092.5302	3092.59	3104.0059	3105.0855	3110.9492	3120.0953	3133.2947
C1C2OC3CC4C1C2C34	C1[C@@H]2O[C@@H]3C[C@@H]4[C@H]1[C@H]2[C@H]34	
InChI=1S/C8H10O/c1-3-4-2-6-8(4)7(3)5(1)9-6/h3-8H,1-2H2	InChI=1S/C8H10O/c1-3-4-2-6-8(4)7(3)5(1)9-6/h3-8H,1-2H2/t3-,4+,5-,6+,7+,8-
