17
gdb 55183	3.47777	1.30406	1.14826	5.5402	68.58	-0.2319	0.0124	0.2444	1082.7181	0.137584	-455.120055	-455.112285	-455.11134	-455.153067	29.729	
N	 0.5645248285	 0.3881561044	 0.9527544286	-0.514989
C	-0.0301249803	-0.0228340005	-0.1966298717	 0.35955
O	 0.3301819581	 0.2982962244	-1.3144557133	-0.364577
C	-1.2195337228	-0.9733358232	-0.0091468243	 0.068504
O	-0.9231435373	-2.2179749695	 0.6905479824	-0.313692
C	-2.1469363858	-2.1468580231	 1.4486893743	 0.121558
C	-1.9495288701	-1.6064839291	 2.8738115687	-0.186555
N	-1.8994703808	-0.2162696109	 2.322623841	-0.330067
C	-2.3686525687	-0.6874600619	 0.9851684325	-0.09901
H	 1.2793443611	 1.0937033218	 0.8670249795	 0.250984
H	 0.028885686	 0.3092373588	 1.8114161532	 0.265958
H	-1.5993844504	-1.184133922	-1.0152523576	 0.098604
H	-2.8072736901	-2.9990839655	 1.2772419109	 0.090258
H	-2.8192645319	-1.7963269204	 3.5147121744	 0.105815
H	-1.0370260294	-1.9196271921	 3.3889216663	 0.123441
H	-2.5319285156	 0.4349369701	 2.7707045492	 0.233139
H	-3.2955880106	-0.2534903814	 0.6105787758	 0.091081
37.763	126.9307	209.544	277.8904	363.1209	376.0428	423.3094	496.6107	600.8309	636.0317	713.3459	746.8034	754.8142	792.0905	824.3502	902.6045	943.283	979.3185	985.2931	1005.9173	1023.5491	1066.4494	1083.6366	1143.1559	1158.8844	1192.0624	1215.6374	1261.9887	1288.5443	1320.2272	1343.1093	1345.4912	1380.2836	1386.5075	1494.9684	1616.8376	1797.1674	3026.1963	3048.9077	3090.3343	3095.2806	3114.7274	3474.2456	3557.1555	3671.3099
NC(=O)C1OC2CNC12	NC(=O)[C@H]1O[C@H]2CN[C@@H]12	
InChI=1S/C5H8N2O2/c6-5(8)4-3-2(9-4)1-7-3/h2-4,7H,1H2,(H2,6,8)	InChI=1S/C5H8N2O2/c6-5(8)4-3-2(9-4)1-7-3/h2-4,7H,1H2,(H2,6,8)/t2-,3+,4-/m0/s1
