17
gdb 100482	4.58684	0.59905	0.5658	2.6028	76.03	-0.258	0.0072	0.2652	1913.5253	0.133769	-458.892287	-458.882574	-458.88163	-458.928852	33.949	
O	 0.0612295383	 1.208032312	-0.9190031136	-0.416344
C	 0.0042068605	-0.1717813048	-0.6511930213	-0.054717
C	-1.0520138892	-0.4561900049	 0.4347925994	-0.078671
O	-2.2952851139	 0.1426994564	 0.0444496297	-0.427852
C	-1.1790728884	-1.8823984129	 0.7135732667	 0.076576
C	-1.2822343091	-3.0721068317	 0.8794413112	 0.106345
C	-1.3839251975	-4.4840404031	 1.1288132008	-0.120407
C	-2.5163195885	-5.2843432718	 0.6207853363	-0.158672
O	-1.2381991621	-5.3706436793	 0.0067386621	-0.212208
H	-0.8585261203	 1.4965204892	-0.987984162	 0.287565
H	-0.2470406867	-0.7614487782	-1.5492158516	 0.087831
H	 0.9927280304	-0.4908441069	-0.3074903127	 0.120806
H	-0.757704374	 0.0820061288	 1.3431810658	 0.128675
H	-2.7150858478	-0.452412014	-0.5878993819	 0.289147
H	-0.884951638	-4.8329915185	 2.0321695251	 0.123595
H	-2.8352158809	-6.1622071648	 1.1811107171	 0.124506
H	-3.2888552827	-4.7906563356	 0.0344423288	 0.123824
21.6423	71.8814	78.4339	150.5248	194.0443	242.9855	318.0629	327.5042	368.1094	477.8859	506.6517	516.8158	561.5382	602.895	762.9721	835.3719	859.4006	917.0653	995.3891	1050.8003	1065.3018	1084.4494	1095.9955	1149.6026	1158.8636	1179.8246	1202.3509	1270.0987	1284.554	1296.227	1376.3948	1405.9249	1417.8603	1435.6796	1504.0347	1520.775	2355.323	2964.3094	3053.2203	3087.2786	3088.7636	3118.1696	3180.4358	3765.2213	3797.3699
OCC(O)C#CC1CO1	OC[C@@H](O)C#C[C@H]1CO1	
InChI=1S/C6H8O3/c7-3-5(8)1-2-6-4-9-6/h5-8H,3-4H2	InChI=1S/C6H8O3/c7-3-5(8)1-2-6-4-9-6/h5-8H,3-4H2/t5-,6-/m0/s1
