17
gdb 29584	2.92488	1.45479	1.02396	1.3073	75.4	-0.1925	0.0344	0.2269	1137.3379	0.13747	-417.988066	-417.980033	-417.979089	-418.020854	30.727	
N	 0.272039826	 1.3029082035	-0.4215024971	-0.616153
C	 0.0583167782	-0.0528477511	-0.1387471669	 0.139897
C	-1.0931999266	-0.7783928618	-0.0964213573	-0.081886
O	-0.8196310713	-2.0967388157	 0.151793674	-0.157892
C	 0.5292988702	-2.2092812441	 0.2661883658	-0.090027
C	 1.1239455204	-0.9947576111	 0.0966266965	 0.195174
N	 2.4744899308	-0.6187824228	 0.2029214927	-0.172401
C	 3.4950844597	-1.5836194221	-0.1888643588	-0.228775
C	 3.226352454	-0.3929588149	-1.0405805323	-0.221043
H	 1.0585255248	 1.6663632739	 0.1041619458	 0.251931
H	-0.5431072359	 1.8768675249	-0.2488420054	 0.242729
H	-2.1325239942	-0.5259457854	-0.2208267076	 0.120135
H	 0.909163592	-3.1896241358	 0.4981429467	 0.12717
H	 4.3741923226	-1.6193345209	 0.4472892703	 0.121094
H	 3.1597008386	-2.5459360626	-0.5685198748	 0.12117
H	 2.7031376757	-0.5572633737	-1.9785781974	 0.130044
H	 3.903117475	 0.4557006198	-1.0256744842	 0.118833
67.0287	157.1472	171.4422	251.1323	289.0155	323.1545	432.3181	525.1672	562.3063	594.7057	653.1566	699.182	714.6021	740.9016	795.1367	821.9073	875.4915	897.8533	927.2247	1040.0788	1068.5436	1104.4417	1114.355	1131.1159	1162.135	1173.9482	1200.3112	1214.97	1262.8992	1300.6484	1366.3529	1443.6212	1487.3923	1513.299	1601.8243	1641.2043	1683.2761	3108.4	3115.6981	3192.9444	3209.7867	3277.1055	3282.6992	3526.1557	3620.0565
NC1=COC=C1N1CC1	Nc1cocc1N1CC1	
InChI=1S/C6H8N2O/c7-5-3-9-4-6(5)8-1-2-8/h3-4H,1-2,7H2	InChI=1S/C6H8N2O/c7-5-3-9-4-6(5)8-1-2-8/h3-4H,1-2,7H2
