17
gdb 93413	3.00884	1.35707	0.96377	4.9395	76.99	-0.2061	-0.0083	0.1978	1172.1622	0.137654	-455.165561	-455.157255	-455.156311	-455.198207	32.207	
N	-0.0077960385	 1.3916218352	 0.0317472895	-0.57511
C	-0.0706335967	 0.0243910085	-0.0432100285	 0.344784
C	-1.1983624321	-0.7160847054	-0.0928505493	-0.262704
C	-1.1864517948	-2.1676114804	-0.0281580942	 0.388041
N	-2.2523057256	-2.8512537651	 0.1021731953	-0.543346
O	 0.044193662	-2.7949526554	-0.0698777597	-0.265138
C	 1.1219172332	-2.0547330212	-0.62543	-0.108667
C	 1.2657021836	-0.6801713963	 0.027927248	-0.001294
O	 2.2311045118	 0.1096359992	-0.6628898721	-0.432853
H	 0.8499438604	 1.792208386	-0.3187376615	 0.266489
H	-0.8446573596	 1.9027304038	-0.2029968951	 0.256403
H	-2.1802175139	-0.2585602782	-0.1104251415	 0.09772
H	-2.0206567016	-3.8459822454	 0.1177747639	 0.212133
H	 2.0190167523	-2.6607314303	-0.4680683976	 0.104517
H	 0.9832976661	-1.9088259795	-1.7050485351	 0.115688
H	 1.5485847143	-0.7919882297	 1.0857207818	 0.105195
H	 3.1067010093	-0.1487301559	-0.361268084	 0.298141
90.596	177.747	221.3916	242.6071	311.5718	348.548	376.9809	419.1228	483.4112	486.262	528.2815	578.8747	656.3373	694.4159	725.4931	786.6637	856.449	873.9038	883.0825	1033.1461	1058.1415	1086.1462	1108.202	1118.1624	1157.5196	1226.5232	1257.4292	1283.2979	1316.1693	1356.7392	1373.9184	1424.6648	1455.0439	1504.9654	1625.918	1697.5246	1724.8902	2989.6855	3021.9855	3089.6166	3203.4	3472.3738	3571.3878	3684.1529	3840.1976
NC1=CC(=N)OCC1O	N[C]1C=C([NH])OC[C@H]1O	
InChI=1S/C5H8N2O2/c6-3-1-5(7)9-2-4(3)8/h1,4,7-8H,2,6H2	InChI=1S/C5H8N2O2/c6-3-1-5(7)9-2-4(3)8/h1,4,7-8H,2,6H2/t4-/m1/s1
