22
gdb 60823	2.53232	1.04474	0.99013	1.8443	83.03	-0.2354	-0.0209	0.2145	1361.1941	0.191471	-404.331329	-404.321053	-404.320109	-404.366763	37.32	
C	-0.0820093517	 1.6464220024	 0.0122730015	-0.409543
C	 0.0145501908	 0.1107242889	 0.0752981051	-0.083421
C	 0.3957802417	-0.4473731063	-1.28032237	 0.152709
O	 1.250493218	-1.2710767294	-1.4913555951	-0.252429
C	 0.8882933179	-0.4381389544	 1.2209810962	 0.053021
C	 2.314944113	 0.1143515896	 1.2292995997	-0.408295
N	 0.2331796858	-0.1142665758	 2.493682227	-0.065007
C	-0.7880809855	-1.0486119449	 2.9578984121	-0.227642
C	 0.5436786997	-0.9853397905	 3.6201223933	-0.224638
H	 0.8766612979	 2.1029055106	-0.2504864173	 0.127384
H	-0.8171448492	 1.9600478387	-0.735705113	 0.115038
H	-0.3900844884	 2.0325437507	 0.9857805354	 0.146946
H	-1.0107099177	-0.2613539869	 0.2411282125	 0.100363
H	-0.2081827822	-0.0301438449	-2.1209744397	 0.077232
H	 0.9496681954	-1.5316568538	 1.0818988835	 0.07062
H	 2.8957320012	-0.3571087943	 2.027695209	 0.114311
H	 2.8116557396	-0.0966685694	 0.2798964393	 0.135859
H	 2.32044772	 1.1927764457	 1.4091031477	 0.121479
H	-1.6626900746	-0.6061968011	 3.4262286929	 0.115382
H	-0.9928030396	-1.9276959884	 2.3476908164	 0.110481
H	 1.2192058354	-1.8221482807	 3.4474787387	 0.113319
H	 0.6628849226	-0.4962322759	 4.5827021247	 0.116831
64.3337	97.654	113.647	157.2823	200.9407	212.9706	225.6037	273.8032	295.8417	340.5245	393.2228	477.0535	549.5955	655.67	753.0419	794.2013	842.7668	908.3587	914.5389	922.9661	957.8442	1002.8686	1014.1169	1034.7233	1089.4708	1111.2876	1119.6264	1128.4093	1159.2302	1169.974	1192.811	1204.8835	1296.8339	1314.0317	1317.9512	1374.6872	1377.6084	1400.3977	1407.202	1432.7162	1487.0695	1491.0406	1497.1893	1502.3685	1513.1602	1518.8784	1823.6396	2851.3805	2946.7256	2974.6751	3043.4975	3049.9495	3090.0779	3095.2621	3107.1158	3115.1415	3137.3192	3138.2379	3174.0411	3188.4109
CC(C=O)C(C)N1CC1	C[C@@H](C=O)[C@@H](C)N1CC1	
InChI=1S/C7H13NO/c1-6(5-9)7(2)8-3-4-8/h5-7H,3-4H2,1-2H3	InChI=1S/C7H13NO/c1-6(5-9)7(2)8-3-4-8/h5-7H,3-4H2,1-2H3/t6-,7+/m0/s1
