22
gdb 9556	2.76917	1.73294	1.47281	1.0081	77.96	-0.2408	0.0817	0.3225	1018.9716	0.198548	-350.194741	-350.185383	-350.184439	-350.228114	35.158	
C	 0.1480147303	 1.4716567326	-0.0865352078	-0.250795
O	 0.4803892645	 0.1043113381	-0.1691054506	-0.283298
C	 0.7347937091	-0.5445753392	 1.0626479894	 0.439921
C	 2.0064922893	-0.0222732689	 1.7311044505	-0.448144
C	-0.4695735733	-0.6769145096	 2.0469593088	-0.277138
C	-0.1502709251	-2.1909319158	 2.1771588875	-0.230213
C	 0.7431860056	-2.100045572	 0.9040132325	-0.034659
C	 0.0821135603	-2.6314166178	-0.3636357085	-0.390353
H	 0.9967613376	 2.0969233043	 0.2254667195	 0.10617
H	-0.1593573451	 1.7845446194	-1.0878433563	 0.124135
H	-0.6863816914	 1.6524799978	 0.6074140787	 0.105105
H	 1.9035606169	 1.0202421698	 2.0488347733	 0.112251
H	 2.2430785419	-0.612624602	 2.6218141723	 0.116623
H	 2.8514686288	-0.0927716248	 1.0383803467	 0.119406
H	-0.4445532526	-0.0734071938	 2.95798524	 0.090174
H	-1.4181719069	-0.5014613258	 1.5330467524	 0.105357
H	 0.4150555375	-2.4276950996	 3.082063656	 0.098372
H	-1.0003666991	-2.8747635183	 2.1149112427	 0.096444
H	 1.7400604854	-2.5413217135	 1.0075854091	 0.061042
H	-0.9278196431	-2.2305608724	-0.4919260262	 0.114322
H	 0.6558787581	-2.3599933097	-1.2537561574	 0.122203
H	 0.0097282012	-3.7236671888	-0.3183186627	 0.103075
101.5406	106.4128	183.7397	198.9948	227.3915	252.0949	292.509	306.1214	352.5962	404.0696	450.4774	501.4408	639.2578	725.3421	790.5198	881.1744	897.1019	907.8666	926.4605	964.9049	974.3863	1033.8079	1079.2391	1108.6517	1164.9787	1180.9511	1185.7722	1189.8252	1204.3742	1226.0386	1242.2701	1269.8086	1275.1358	1300.0484	1362.0013	1406.5118	1412.073	1473.3154	1475.3571	1484.4957	1488.8172	1492.2969	1494.9945	1495.9949	1507.2235	1511.8148	2985.1118	3030.1417	3035.1441	3036.2286	3040.7456	3055.3866	3063.034	3100.1639	3101.9776	3102.9824	3107.2965	3108.3632	3115.5234	3120.0485
COC1(C)CCC1C	CO[C@@]1(C)CC[C@H]1C	
InChI=1S/C7H14O/c1-6-4-5-7(6,2)8-3/h6H,4-5H2,1-3H3	InChI=1S/C7H14O/c1-6-4-5-7(6,2)8-3/h6H,4-5H2,1-3H3/t6-,7+/m1/s1
