22
gdb 61515	2.77067	0.97403	0.7973	4.2082	86.62	-0.2792	0.0391	0.3182	1497.1291	0.193071	-367.22478	-367.214652	-367.213707	-367.26028	37.614	
C	-1.0293361535	-3.3667885538	-1.6550288588	-0.395914
C	 0.246679932	-2.7113811784	-2.2230636096	-0.129276
C	 0.4460747421	-1.231714112	-1.7692902812	-0.286335
C	-0.1225126975	-0.1928471514	-2.7264149144	 0.382963
C	-1.6263865437	-0.1928058776	-2.9343108239	-0.464901
C	 0.5743906526	 1.1477515683	-2.7448425375	-0.315749
C	 0.7424833101	 0.195419286	-3.9054622571	-0.297101
C	 1.413973936	-3.5180427269	-1.8505292795	 0.263751
N	 2.3344711831	-4.1480560391	-1.5462784738	-0.328814
H	-0.9817992818	-3.4081922516	-0.5631432671	 0.137559
H	-1.9131629628	-2.7922382234	-1.9379235644	 0.129996
H	-1.1454324403	-4.3872926689	-2.0287902812	 0.135904
H	 0.197191806	-2.72541163	-3.3192425521	 0.130071
H	 0.0062986429	-1.110291234	-0.7711550569	 0.108895
H	 1.5173217461	-1.0423123335	-1.6569579469	 0.119641
H	-2.1608214262	-0.1056027898	-1.9809616003	 0.117104
H	-1.9297324152	 0.6503730635	-3.5622623877	 0.116479
H	-1.9734315808	-1.1049497661	-3.4322658506	 0.118774
H	-0.0330263689	 2.0341030025	-2.8941348877	 0.112784
H	 1.4204548701	 1.2987021518	-2.0827449052	 0.115057
H	 1.703107781	-0.295217586	-4.0240430752	 0.116816
H	 0.2522317186	 0.4389754805	-4.8420806289	 0.112298
39.5539	74.5461	150.9581	196.5145	217.2457	258.1241	268.2624	287.4859	336.4402	365.2397	383.4358	461.4538	543.5591	579.778	724.7361	787.4827	828.9275	863.3899	882.6936	912.1957	950.6415	956.4784	971.3037	1028.1544	1052.293	1062.8312	1083.4233	1095.5264	1127.8712	1139.9076	1188.2982	1242.4082	1282.7491	1314.8534	1334.9638	1355.7828	1388.2407	1415.9115	1421.6724	1469.2818	1481.2389	1490.628	1496.4107	1500.6894	1507.0775	1512.3621	2352.9639	3023.1396	3026.2574	3036.4575	3054.1402	3084.0613	3085.3944	3099.2691	3124.563	3127.4761	3132.5666	3143.5393	3205.6113	3219.8753
CC(CC1(C)CC1)C#N	C[C@@H](CC1(C)CC1)C#N	
InChI=1S/C8H13N/c1-7(6-9)5-8(2)3-4-8/h7H,3-5H2,1-2H3	InChI=1S/C8H13N/c1-7(6-9)5-8(2)3-4-8/h7H,3-5H2,1-2H3/t7-/m0/s1
