15
gdb 43255	3.47514	1.72789	1.4934	4.8255	70.84	-0.242	-0.0724	0.1697	877.583	0.11525	-416.744316	-416.738111	-416.737167	-416.774795	25.414	
O	 0.039633087	 0.094457645	 0.4604001259	-0.307517
C	-0.0185661966	 1.2152311048	 0.0388634193	 0.383331
C	-1.2131656797	 2.1094610227	-0.0416951441	-0.217396
C	-0.7540292762	 3.3327090235	-0.3558065278	 0.11378
N	-0.856896802	 4.4562064751	 0.5314048429	-0.32914
C	 0.3951842179	 4.093234998	 1.3160632511	-0.19704
C	 1.3833408247	 3.3728221051	 0.33559412	-0.038757
C	 0.651310138	 3.2237341832	-0.9214276119	-0.10602
N	 1.1704636274	 1.9925293341	-0.3209260234	-0.176549
H	-2.1076741168	 1.8867699377	 0.5243459152	 0.13454
H	-0.662297055	 5.3252589812	 0.0358434956	 0.231415
H	 0.8746629395	 5.0029157752	 1.6895265375	 0.126984
H	 0.094896371	 3.4739615504	 2.1637211712	 0.14584
H	 2.4386576613	 3.6104576581	 0.4079030795	 0.122463
H	 0.9416615095	 3.505244586	-1.927792191	 0.114066
123.6517	274.7318	369.4544	414.2506	476.2866	606.9644	633.4416	667.8871	675.8403	769.4542	791.521	815.0451	855.9465	871.4588	893.1834	906.9927	919.7574	960.7062	988.8393	1069.3139	1079.7913	1100.4072	1120.1068	1205.1938	1229.7733	1255.2953	1284.6896	1290.8911	1353.028	1394.0192	1473.8616	1639.1129	1843.9902	3063.1237	3122.6462	3169.1905	3184.661	3230.0997	3464.087
O=C1C=C2NCC3C2N13	O=C1[CH][C]2NC[C@@H]3[C@H]2N13	
InChI=1S/C6H6N2O/c9-5-1-3-6-4(2-7-3)8(5)6/h1,4,6-7H,2H2	InChI=1S/C6H6N2O/c9-5-1-3-6-4(2-7-3)8(5)6/h1,4,6-7H,2H2/t4-,6+,8?/m1/s1
