19
gdb 122713	3.34924	0.57589	0.49647	2.5488	79.55	-0.2503	-0.0205	0.2298	2116.149	0.158195	-456.363538	-456.353286	-456.352342	-456.400096	35.262	
O	-0.2288203139	 1.4570063241	-0.0228389542	-0.41739
C	 0.0279456498	 0.0689119481	-0.1484662502	-0.068464
C	-1.2473106957	-0.7779467564	-0.1441423631	-0.216365
C	-0.9421943199	-2.2642423908	-0.3646050081	-0.12841
N	-2.042061265	-3.21575845	-0.3739323079	-0.262651
C	-3.2318586871	-2.8212183868	-0.2093020508	 0.124422
N	-4.2745954051	-3.7444641844	-0.2227459509	-0.31013
C	-5.5962319146	-3.4131143598	-0.0447560025	 0.157701
O	-6.0083834747	-2.2928429357	 0.1451973813	-0.299171
H	-0.6534145817	 1.6032091818	 0.8285310532	 0.281442
H	 0.5503342794	-0.0469713908	-1.1047598778	 0.114437
H	 0.7154105595	-0.284662453	 0.6375742048	 0.088285
H	-1.7631514152	-0.6396068893	 0.8167608837	 0.095384
H	-1.9171981263	-0.3980823369	-0.9245316275	 0.117049
H	-0.409908118	-2.3871171635	-1.318342911	 0.117218
H	-0.2331036842	-2.6093130681	 0.4011248947	 0.11407
H	-3.5829097582	-1.8015530568	-0.0494961608	 0.13877
H	-4.0162548455	-4.7096500414	-0.373197405	 0.26312
H	-6.2498651235	-4.3041557102	-0.096030718	 0.090681
62.35	73.0921	92.4443	128.0419	175.8942	178.1777	221.7958	296.4302	304.9446	350.9672	380.3263	468.4508	600.7468	655.7671	755.8296	789.4722	860.6202	993.2965	1010.1492	1031.3066	1049.2323	1057.9098	1084.5547	1101.0462	1124.0089	1190.1632	1242.5272	1275.2385	1313.1809	1323.3632	1354.1753	1389.7191	1406.7752	1426.6831	1437.574	1476.1981	1494.2215	1504.3474	1516.6857	1756.4467	1817.1953	2959.5846	2969.8955	3004.1069	3010.4976	3026.5503	3058.174	3077.2121	3137.6249	3610.2745	3814.3997
OCCCN=CNC=O	OCCCN=CNC=O	
InChI=1S/C5H10N2O2/c8-3-1-2-6-4-7-5-9/h4-5,8H,1-3H2,(H,6,7,9)	InChI=1S/C5H10N2O2/c8-3-1-2-6-4-7-5-9/h4-5,8H,1-3H2,(H,6,7,9)
