15
gdb 124918	1.99511	1.91543	0.98411	4.2767	75.56	-0.2212	-0.0114	0.2098	1132.6589	0.114355	-413.041388	-413.032678	-413.031734	-413.075575	31.23	
C	 0.0077515313	 1.500807384	 0.084094441	-0.512556
C	 0.0056142652	 0.0150301528	-0.042772221	 0.297824
C	-0.0525674633	-0.7996315015	-1.1728302788	-0.016525
C	-0.1362074692	-0.3961447836	-2.5200712202	 0.176854
N	-0.1976689106	-0.0881094372	-3.6370387876	-0.367826
C	-0.0048039976	-2.1385414172	-0.6687168565	 0.312628
N	-0.1025285973	-3.2972535166	-1.4088352568	-0.591304
N	 0.0816108769	-2.1509755487	 0.6528107135	-0.303734
N	 0.0798812247	-0.8294254884	 0.9989608504	-0.260877
H	 0.9899702814	 1.8762408505	 0.392643598	 0.15049
H	-0.2376923666	 1.9555232035	-0.8774158829	 0.167702
H	-0.7272507919	 1.8406013835	 0.8210156019	 0.144128
H	 0.2551779507	-3.2325500859	-2.3504859427	 0.265006
H	 0.2202816852	-4.1200742745	-0.9204497675	 0.26025
H	 0.1325168811	-0.5900552606	 1.9744315592	 0.27794
31.7463	119.7065	139.3434	207.6808	259.2283	313.284	359.5001	413.2374	482.0923	539.906	551.288	589.7831	605.3688	651.7691	665.8681	762.7443	810.6135	1002.0802	1050.107	1058.9971	1097.467	1193.0767	1261.6689	1332.7948	1415.6377	1441.7059	1481.372	1483.3241	1527.7459	1560.9539	1615.5875	1652.0539	2330.7039	3037.2623	3093.1088	3138.146	3569.2458	3673.7078	3676.3314
CC1=C(C#N)C(N)=NN1	Cc1c(C#N)c(N)n[nH]1	
InChI=1S/C5H6N4/c1-3-4(2-6)5(7)9-8-3/h1H3,(H3,7,8,9)	InChI=1S/C5H6N4/c1-3-4(2-6)5(7)9-8-3/h1H3,(H3,7,8,9)
