18
gdb 65749	2.65497	1.22964	1.0751	3.5344	74.97	-0.2432	-0.0418	0.2014	1202.0087	0.145128	-439.090323	-439.081001	-439.080057	-439.124866	33.633	
C	-0.0205490718	 1.6385125662	 0.02971361	-0.440622
C	-0.052005995	 0.1125575308	-0.0149565158	 0.28946
C	 0.7174263525	-0.5157037946	-1.214307259	-0.282533
C	 1.9109892974	-0.8905781327	-0.2852272476	-0.34372
C	 1.0087738189	-0.5595994049	 0.9098538114	 0.358558
O	 1.0325331808	-0.810838359	 2.0797890039	-0.296128
O	-1.3811496594	-0.3851787646	 0.0749125683	-0.236591
C	-2.0004849313	-0.3256077608	 1.2807248086	 0.102008
N	-3.2185832882	-0.6458687566	 1.3574223805	-0.439985
H	 0.9968794142	 2.0162678037	-0.1109020489	 0.12605
H	-0.6543534907	 2.0370479039	-0.7682883964	 0.143205
H	-0.3900355904	 2.0109200013	 0.9895261647	 0.135046
H	 0.1870609882	-1.3914028049	-1.5900243454	 0.137451
H	 0.9347748196	 0.1627393698	-2.0397087182	 0.114322
H	 2.2815900415	-1.9172825552	-0.3196650498	 0.142932
H	 2.7665837323	-0.2117015865	-0.3565896705	 0.139054
H	-1.3460286581	-0.0204330047	 2.1021714205	 0.121532
H	-3.5304216205	-0.5753443914	 2.3241346036	 0.229962
65.5103	84.298	140.1935	155.518	215.4727	239.963	299.521	317.538	403.9174	460.358	541.7398	556.5619	704.9705	737.3109	771.3402	824.8831	877.0325	918.9613	941.2081	957.8001	1033.2181	1047.1628	1072.389	1094.7611	1152.4343	1183.764	1212.0637	1223.5739	1238.7256	1286.5603	1293.1386	1403.052	1427.0765	1439.5882	1479.0321	1486.6721	1491.0671	1737.4692	1885.561	3038.537	3063.8644	3089.128	3090.5596	3114.8088	3119.1411	3120.5537	3151.8716	3514.1196
CC1(CCC1=O)OC=N	C[C@]1(CCC1=O)O[CH][NH]	
InChI=1S/C6H9NO2/c1-6(9-4-7)3-2-5(6)8/h4,7H,2-3H2,1H3	InChI=1S/C6H9NO2/c1-6(9-4-7)3-2-5(6)8/h4,7H,2-3H2,1H3/t6-/m1/s1
