20
gdb 90326	2.82535	1.54332	1.16687	2.3618	82.55	-0.2288	0.0082	0.237	1109.8395	0.171754	-403.110132	-403.101957	-403.101013	-403.142538	32.222	
C	-0.0591918216	 1.4601864396	-0.0974748343	-0.32875
N	 0.017444842	 0.0218215316	 0.0899187078	-0.102109
C	-1.2117233608	-0.6877165044	 0.5922740256	-0.25787
C	-0.2647599058	-1.5406453439	 1.404715032	 0.242912
C	 0.2099864806	-2.7663101979	 1.5879401313	-0.206896
C	 1.7306816412	-2.692018891	 1.7085547852	-0.26628
C	 2.0880980214	-1.3432498343	 0.9875497594	 0.11162
O	 2.2760338148	-1.5408137893	-0.3957472999	-0.443767
C	 0.8080233235	-0.5056014414	 1.2454548997	-0.04777
H	 0.9329340582	 1.8459453176	-0.3510278801	 0.132538
H	-0.7341466341	 1.6916342678	-0.9277431138	 0.125363
H	-0.4208387316	 1.9924565675	 0.8000633108	 0.099098
H	-1.8521757056	-0.0223232047	 1.192345503	 0.100081
H	-1.8172261024	-1.1729615555	-0.179280486	 0.119921
H	-0.3400400397	-3.6990347058	 1.5419683084	 0.098468
H	 2.0792596332	-2.6918162597	 2.7507343594	 0.100112
H	 2.2252852152	-3.526251599	 1.2011616402	 0.116923
H	 2.9980328952	-0.8943646401	 1.4054527975	 0.062454
H	 1.4903083539	-1.1578755938	-0.8197067027	 0.278556
H	 0.9128029224	 0.2260933367	 2.0603391965	 0.065397
98.663	182.982	219.4092	243.8813	251.109	341.6739	382.9042	399.7748	491.6934	525.5516	654.3073	684.3163	782.8382	812.3032	839.4466	863.5299	877.5528	925.7551	951.7347	976.5466	1003.6679	1022.4317	1087.2276	1107.8345	1117.1758	1156.655	1174.7104	1191.7674	1198.856	1228.0132	1244.7713	1282.943	1303.0439	1319.1357	1341.2614	1363.225	1443.9037	1454.7487	1468.5524	1485.4201	1497.735	1505.1719	1744.6645	2950.5974	2978.5361	2990.4577	3009.8809	3029.9938	3066.384	3075.7948	3083.1742	3108.2141	3199.1321	3650.308
CN1CC2=CCC(O)C12	CN1C[C]2[CH]C[C@@H](O)[C@@H]12	
InChI=1S/C7H11NO/c1-8-4-5-2-3-6(9)7(5)8/h2,6-7,9H,3-4H2,1H3	InChI=1S/C7H11NO/c1-8-4-5-2-3-6(9)7(5)8/h2,6-7,9H,3-4H2,1H3/t6-,7+/m1/s1
