17
gdb 11008	3.83843	1.83938	1.51799	4.134	68.06	-0.2477	-0.0059	0.2418	876.8107	0.142562	-363.881609	-363.874265	-363.873321	-363.913157	28.057	
C	 0.0113714658	 1.527142039	-0.0498965393	-0.470343
C	-0.0105298392	 0.0197510857	-0.0007014989	 0.335396
C	 1.2273590967	-0.7592807191	-0.2153764637	-0.295477
N	 0.6575154632	-0.6196468877	 1.1595792527	-0.163207
C	-0.0990109044	-1.7901343092	 1.5137428997	 0.388829
O	 0.187289482	-2.509307636	 2.4276456059	-0.307554
C	-1.2977433352	-1.964445745	 0.5652578878	-0.342587
C	-1.3420858283	-0.6859217161	-0.2835783995	-0.288361
H	 0.9920789337	 1.9152030135	 0.235935252	 0.132425
H	-0.2178539302	 1.8803784006	-1.061565827	 0.121966
H	-0.7346475895	 1.9486705868	 0.6320865273	 0.125769
H	 1.1655303087	-1.7363615273	-0.6892206136	 0.123369
H	 2.1786464939	-0.2535116705	-0.3492337828	 0.131102
H	-1.1279053893	-2.8707583554	-0.025232575	 0.13923
H	-2.2038404983	-2.1414089581	 1.1482942479	 0.141334
H	-2.1604633401	-0.0345765788	 0.0388146069	 0.114782
H	-1.4860289095	-0.8778747523	-1.3508075704	 0.113327
84.4881	157.0806	202.7508	299.2119	365.8053	378.5669	500.7869	557.996	575.8157	639.4048	703.0694	775.5254	814.5236	851.0463	919.4205	936.0643	1005.1775	1013.688	1031.9195	1076.0442	1098.991	1119.1899	1152.0781	1177.6117	1243.8107	1273.8216	1278.3115	1332.177	1391.8877	1421.6566	1460.3803	1487.0493	1493.3101	1497.5754	1517.609	1864.8411	3033.5161	3052.4958	3063.4684	3089.6089	3097.0618	3107.5758	3116.7727	3122.5803	3195.8794
CC12CN1C(=O)CC2	C[C@@]12CN1C(=O)CC2	
InChI=1S/C6H9NO/c1-6-3-2-5(8)7(6)4-6/h2-4H2,1H3	InChI=1S/C6H9NO/c1-6-3-2-5(8)7(6)4-6/h2-4H2,1H3/t6-,7?/m1/s1
