15
gdb 79228	2.72908	1.64593	1.30624	2.2935	69.6	-0.2617	0.0036	0.2653	967.1916	0.113631	-416.748022	-416.740844	-416.739899	-416.77955	27.915	
O	-0.1352177041	 1.4728971084	-0.0981189156	-0.425336
C	-0.0222930898	 0.082333328	-0.0784091231	 0.103398
C	-1.3169444888	-0.7085229196	-0.0881712377	-0.078236
C	-0.7275092004	-1.7626524009	-0.9519042929	-0.097946
N	-1.8011980103	-0.8998546404	-1.4963393437	-0.142311
C	-0.8020021684	-0.1822347249	-2.352112198	-0.179622
C	 0.3233251803	-0.6764989403	-1.4175416937	 0.121939
C	 1.6864150003	-0.8536480274	-1.8293881882	 0.132663
N	 2.789223659	-0.9878629062	-2.1536986851	-0.33805
H	 0.7338920615	 1.8614983601	 0.0473344827	 0.298847
H	 0.6323212517	-0.2773448344	 0.7247688456	 0.101788
H	-2.0549677315	-0.7938070435	 0.697018557	 0.117819
H	-0.724844756	-2.8427614356	-0.9230012307	 0.122627
H	-0.7779851104	-0.6561207231	-3.3345119389	 0.13031
H	-0.9373844932	 0.8988238698	-2.4323926777	 0.132109
129.375	164.5104	239.5929	312.3037	322.4734	450.5304	499.6	540.3454	578.2409	629.1325	718.6629	771.5995	813.3954	863.969	901.3322	938.8111	976.7087	998.4273	1013.5598	1048.8378	1097.1079	1128.7003	1153.658	1172.5545	1191.7126	1226.6212	1245.556	1284.0144	1324.6363	1335.6766	1439.222	1498.3185	2344.9649	3039.979	3074.5507	3143.281	3218.457	3231.4787	3816.3445
OC1C2C3N2CC13C#N	O[C@H]1[C@@H]2[C@H]3N2C[C@@]13C#N	
InChI=1S/C6H6N2O/c7-1-6-2-8-3(4(6)8)5(6)9/h3-5,9H,2H2	InChI=1S/C6H6N2O/c7-1-6-2-8-3(4(6)8)5(6)9/h3-5,9H,2H2/t3-,4+,5-,6+,8?/m0/s1
