13
gdb 16784	3.56853	2.24767	1.51795	2.8373	60.07	-0.2777	-0.0259	0.2518	786.3329	0.097232	-398.642158	-398.636063	-398.635119	-398.672436	23.403	
N	-0.0649748362	 1.2643235415	-0.0694634048	-0.528927
C	-0.0544444754	 0.0128233724	 0.0391813608	 0.42246
O	 1.0985523036	-0.749518176	 0.212171544	-0.230998
C	 0.8380608358	-2.1042264798	 0.0103126936	 0.441082
O	 1.7178267324	-2.8999332244	-0.0929170045	-0.317595
C	-0.640906973	-2.2935885595	-0.0500992634	-0.185505
C	-1.3748187276	-1.8035402253	 1.1797193696	-0.289356
C	-1.2276052533	-0.8974949478	-0.0158538567	-0.110984
H	 0.8799503271	 1.6470114192	-0.0137766819	 0.239244
H	-1.0292296979	-3.1149049951	-0.6353966041	 0.13452
H	-2.35784191	-2.2281455117	 1.3447030846	 0.142617
H	-0.8115594639	-1.5891565843	 2.0808267579	 0.149039
H	-2.0934500615	-0.5904859292	-0.5846730551	 0.134403
146.5033	193.444	310.0613	376.0787	502.518	600.3724	628.2262	722.8053	765.5979	807.5043	827.0863	854.5026	903.6779	937.6336	949.6983	971.3534	1035.6732	1080.7571	1095.9223	1099.1903	1154.2728	1190.1709	1314.0082	1338.4248	1350.3225	1489.8767	1795.5949	1916.1918	3145.6446	3223.1721	3227.8659	3239.7648	3485.8599
N=C1OC(=O)C2CC12	[NH][C]1OC(=O)[C@H]2C[C@@H]12	
InChI=1S/C5H5NO2/c6-4-2-1-3(2)5(7)8-4/h2-3,6H,1H2	InChI=1S/C5H5NO2/c6-4-2-1-3(2)5(7)8-4/h2-3,6H,1H2/t2-,3+/m1/s1
