14
gdb 124250	2.09516	1.6848	0.93931	2.4475	71.03	-0.2582	-0.0791	0.1791	1156.4608	0.098427	-470.046442	-470.037159	-470.036214	-470.080981	32.233	
C	-0.0199312785	 1.3946546617	-0.0976538671	-0.499387
C	-0.0173893422	-0.1212989413	-0.0301064229	 0.350566
O	-0.0338984552	-0.704930907	 1.0451849963	-0.349409
C	 0.0055091014	-0.8679881709	-1.2892939241	 0.019237
C	 0.0125873007	-2.3590398746	-1.4984907469	 0.393994
N	-0.0042720422	-3.06792567	-0.3485199913	-0.557198
O	 0.031905954	-2.8314037522	-2.6210067486	-0.393424
N	 0.038614161	 0.3588832702	-3.4009543068	-0.183826
N	 0.0227891825	-0.190566336	-2.4186143432	 0.211744
H	 0.8713152636	 1.7674355268	-0.6138031622	 0.150259
H	-0.8949990026	 1.7632376182	-0.6436224452	 0.150247
H	-0.0380145176	 1.785885732	 0.919370434	 0.157265
H	-0.0206148108	-2.5841128715	 0.5407156137	 0.285561
H	-0.0013883142	-4.0715355352	-0.4165846455	 0.264372
73.9695	93.0736	127.6477	146.3061	193.3444	224.7699	351.2023	356.4598	385.9999	477.0406	541.6462	564.1111	572.2806	620.0704	683.5236	693.0021	768.1552	934.2368	1041.1548	1062.1196	1131.5682	1262.9495	1327.2456	1356.4493	1391.0623	1465.5629	1481.2555	1594.7896	1728.6784	1784.5573	2240.408	3041.4603	3104.2575	3160.5075	3514.7115	3708.8137
CC(=O)C1=C(N)ON=N1	CC(=O)[C](C(=O)N)[N][N]	
InChI=1S/C4H5N3O2/c1-2(8)3-4(5)9-7-6-3/h5H2,1H3	InChI=1S/C4H5N3O2/c1-2(8)3(7-6)4(5)9/h1H3,(H2,5,9)
