22
gdb 107015	2.91103	1.24305	1.04166	1.8474	82.25	-0.2254	0.0625	0.2879	1267.4122	0.192817	-404.31105	-404.301124	-404.30018	-404.345696	37.065	
C	-0.2664188305	 1.4551509997	 0.164700307	-0.374554
C	 0.1549987022	-0.0186182131	 0.0773172938	-0.303768
C	 0.751027259	-0.3586324629	-1.2592490971	 0.375029
C	-0.0299044658	-0.8152776142	-2.426298071	-0.290105
N	 0.8882787136	-1.7841244884	-1.7910408912	-0.197264
C	 2.2797832803	-1.4384661222	-2.2683082523	 0.031814
C	 2.5954306363	-1.6617311476	-3.7361835431	-0.410777
C	 2.1574256527	 0.0166977627	-1.708589644	 0.005229
O	 2.1862834927	 1.1106279939	-2.6043558708	-0.430366
H	 0.5813902965	 2.1203977741	-0.0280964914	 0.125806
H	-1.0387523977	 1.686841727	-0.5755609428	 0.120819
H	-0.6636175627	 1.691868906	 1.1563262848	 0.11054
H	 0.8813239603	-0.2443349178	 0.8691323903	 0.096036
H	-0.7076070808	-0.6712239077	 0.2546784088	 0.106972
H	-1.0726017957	-1.0625564951	-2.2493810949	 0.114962
H	 0.1792715661	-0.4250215183	-3.4166607369	 0.123704
H	 2.9710898169	-2.0235375831	-1.6538315377	 0.077385
H	 2.0229883194	-1.0032571328	-4.3933629871	 0.128382
H	 3.6582092271	-1.4756835223	-3.9281797071	 0.109274
H	 2.3825620252	-2.6995293886	-4.0123184874	 0.127967
H	 2.8323722924	 0.1885043498	-0.8599422066	 0.068621
H	 3.1051886823	 1.3029435207	-2.8177226233	 0.284293
68.2017	98.2501	166.2169	178.3099	200.9833	206.4913	272.8806	293.9308	326.8421	367.3958	450.09	526.5944	586.9899	698.885	716.9273	788.8214	801.3531	809.6948	851.2504	939.7419	953.3627	993.0628	1020.6164	1056.5128	1091.4232	1096.9869	1115.1836	1129.6516	1141.9802	1176.7696	1192.2395	1244.431	1280.507	1289.6347	1328.9059	1356.8695	1377.3044	1391.7771	1406.0059	1413.9758	1441.9164	1482.6195	1486.4244	1495.5981	1497.0422	1507.5083	1512.4791	3009.8892	3020.7293	3035.7215	3037.2008	3055.2383	3061.6123	3098.0152	3107.8712	3109.224	3121.1236	3126.7356	3209.6168	3813.2204
CCC12CN1C(C)C2O	CC[C@]12CN1[C@@H](C)[C@H]2O	
InChI=1S/C7H13NO/c1-3-7-4-8(7)5(2)6(7)9/h5-6,9H,3-4H2,1-2H3	InChI=1S/C7H13NO/c1-3-7-4-8(7)5(2)6(7)9/h5-6,9H,3-4H2,1-2H3/t5-,6+,7+,8?/m0/s1
