15
gdb 45325	2.96616	1.66459	1.31248	3.7472	65.54	-0.2465	0.0084	0.255	952.4143	0.114961	-453.966928	-453.959759	-453.958815	-453.99918	26.682	
O	 0.2644037552	 0.057505612	 0.2605828262	-0.349019
C	 0.1262655409	 1.2420926106	 0.1404855016	 0.404248
N	-0.9417714162	 2.0916172425	 0.2738582385	-0.323629
C	-0.2184254528	 3.3405945134	-0.002133713	-0.014114
C	-0.0794108677	 4.3159630323	 1.1679741635	-0.176225
N	 0.9132844333	 3.9584461277	 2.1752215464	-0.256618
C	 1.8926232934	 3.2421472658	 1.8328654948	 0.130967
O	 2.1508121666	 2.6596757442	 0.6274675178	-0.223869
C	 1.0461870275	 2.4540734568	-0.2305733107	-0.043616
H	-1.9102700567	 1.9159307541	 0.4997345767	 0.257471
H	-0.5811019123	 3.852620933	-0.8998708887	 0.094107
H	 0.1934303574	 5.3019507587	 0.7672344136	 0.125366
H	-1.0472642476	 4.4473127295	 1.6643417673	 0.115981
H	 2.7034700616	 3.0287350597	 2.5257946385	 0.134866
H	 1.4306364874	 2.4274045393	-1.2502450327	 0.124085
65.5905	101.7742	221.0796	335.6597	375.1336	463.8421	518.8348	532.9082	598.4969	711.0107	755.0354	797.3427	869.9321	893.8843	928.1939	968.1367	997.7638	1037.973	1064.6933	1085.5899	1171.5495	1174.7929	1199.1397	1243.2043	1302.2281	1345.2992	1359.6616	1379.7764	1399.319	1414.2482	1479.0476	1743.0024	1907.9107	3015.8348	3047.8548	3059.0613	3121.1328	3170.0332	3606.1508
O=C1NC2CN=COC12	O=C1N[C@H]2CN=CO[C@@H]12	
InChI=1S/C5H6N2O2/c8-5-4-3(7-5)1-6-2-9-4/h2-4H,1H2,(H,7,8)	InChI=1S/C5H6N2O2/c8-5-4-3(7-5)1-6-2-9-4/h2-4H,1H2,(H,7,8)/t3-,4+/m0/s1
