16
gdb 52009	3.11248	0.96052	0.76647	3.0668	78.74	-0.2601	0.0169	0.277	1430.3896	0.120739	-400.664862	-400.65506	-400.654115	-400.700398	34.594	
N	-0.4252727018	 1.1799490927	 0.2652729282	-0.44097
C	-0.4678241369	-0.0620207569	 0.4727507104	 0.133328
O	-0.7507042034	-0.901553373	-0.5504105012	-0.177849
C	-0.8565108042	-2.2818538375	-0.2646155613	-0.091987
C	-2.3440711144	-2.7110750629	-0.1143434201	-0.346334
C	-2.4286839027	-4.1726887442	-0.0706010673	 0.322306
C	-2.4509362053	-5.3729039765	-0.0475588815	-0.440683
C	-2.9673536947	-2.090318506	 1.0572687989	 0.338379
C	-3.4575519769	-1.5684523933	 2.0213261575	-0.453727
H	-0.1815447586	 1.6665916277	 1.1252167121	 0.230562
H	-0.2819377443	-0.5810976962	 1.4214461422	 0.094834
H	-0.4240839533	-2.8191947639	-1.1116045382	 0.136503
H	-0.303350067	-2.5498281272	 0.6427488179	 0.125724
H	-2.8604161469	-2.3509129118	-1.0149626851	 0.156256
H	-2.4905347989	-6.4341267043	-0.024638753	 0.206145
H	-3.9068203905	-1.1098297967	 2.8675799009	 0.207515
56.3682	63.2032	128.2132	137.7704	152.5508	193.0899	336.4492	341.1165	370.8568	454.3004	549.2253	561.0066	640.402	648.1392	656.6848	660.2245	666.6057	813.5841	832.2864	960.6524	999.8477	1035.9569	1051.3277	1084.3409	1148.9943	1228.7218	1272.8322	1311.8796	1350.2741	1394.5925	1421.9161	1496.9562	1747.0669	2241.1432	2246.4406	3017.414	3037.5134	3046.93	3115.0692	3501.8946	3503.0831	3521.3779
N=COCC(C#C)C#C	[NH][CH]OCC(C#C)C#C	
InChI=1S/C7H7NO/c1-3-7(4-2)5-9-6-8/h1-2,6-8H,5H2	InChI=1S/C7H7NO/c1-3-7(4-2)5-9-6-8/h1-2,6-8H,5H2
