17
gdb 93259	2.84524	1.31343	0.9403	3.8402	64.6	-0.2688	-0.0074	0.2615	1188.4983	0.136107	-496.131668	-496.123252	-496.122308	-496.16475	31.644	
O	-0.016028482	 1.4143959923	-0.0470883294	-0.422083
C	-0.0086650571	-0.0015923264	-0.0177563512	 0.072696
C	 0.6719610014	-0.4864970967	 1.2670741256	-0.092771
O	 0.5514537411	-1.901184359	 1.5137062398	-0.225689
C	-0.572780009	-2.5624057532	 1.179869961	 0.395136
O	-0.8517580707	-3.6027464411	 1.7189080101	-0.33969
C	-1.4254828374	-2.0247090526	 0.025212235	 0.01305
O	-2.7220901336	-2.5486465942	 0.1087900758	-0.4366
C	-1.4466763298	-0.4998402501	-0.0348754782	-0.232582
H	 0.8807065034	 1.7246629673	-0.2095160643	 0.290895
H	 0.5261271355	-0.4099531267	-0.889983138	 0.082705
H	 1.7474517434	-0.2895114704	 1.2510059101	 0.118137
H	 0.2344763509	 0.0531133631	 2.1152800719	 0.131647
H	-0.913326124	-2.3950500728	-0.8848008704	 0.100108
H	-2.6400957478	-3.361989473	 0.6292117974	 0.296549
H	-1.9888402621	-0.0994439303	 0.8292782955	 0.123359
H	-1.9648320221	-0.1633723262	-0.9364302005	 0.125133
84.0775	132.6904	198.2307	275.133	287.8772	322.7623	389.6103	409.4708	414.1975	457.7383	482.3626	584.153	598.794	731.7907	809.2124	912.7411	931.7232	1027.6364	1066.4591	1091.0068	1096.6643	1107.7419	1159.0025	1180.3769	1210.1417	1246.8224	1283.8133	1298.6612	1316.3467	1364.5204	1386.539	1407.6187	1448.655	1454.7993	1500.4658	1515.7269	1826.5544	2909.9808	2978.5985	3041.2288	3053.4615	3099.5706	3108.3256	3722.5852	3818.2434
OC1COC(=O)C(O)C1	O[C@H]1COC(=O)[C@@H](O)C1	
InChI=1S/C5H8O4/c6-3-1-4(7)5(8)9-2-3/h3-4,6-7H,1-2H2	InChI=1S/C5H8O4/c6-3-1-4(7)5(8)9-2-3/h3-4,6-7H,1-2H2/t3-,4+/m1/s1
