19
gdb 90231	2.60425	1.6931	1.51111	1.6161	73.89	-0.2262	0.0536	0.2797	973.2188	0.159081	-422.942746	-422.934932	-422.933987	-422.974771	31.252	
O	 0.2672874329	 1.1648685665	-0.5833181125	-0.428639
C	 0.0977192399	-0.123066122	-0.0386526159	 0.053437
C	 0.1992899291	-0.2364713916	 1.5391315425	-0.344605
C	-1.2898963548	-0.6613611706	 1.5496310997	 0.403273
C	-2.4584186233	 0.3310279441	 1.7781913792	-0.296879
C	-2.5160256856	 0.5371725611	 0.2129228231	-0.300776
C	-1.4001536676	-0.5300242633	 0.0445700877	 0.193217
C	-1.7445494283	-2.0300063217	 0.0861086852	-0.157614
O	-1.5890019199	-2.0728624832	 1.5435681596	-0.338717
H	 1.1829344286	 1.4300481844	-0.4481537272	 0.286147
H	 0.7167297981	-0.8626495124	-0.567845497	 0.067824
H	 0.890386031	-0.9938794524	 1.915000751	 0.11085
H	 0.4036023889	 0.7226750802	 2.0242925787	 0.101551
H	-3.3393375417	-0.1509037347	 2.2073534335	 0.114275
H	-2.2223533558	 1.2233987282	 2.3637967423	 0.101783
H	-3.4705118922	 0.2954417872	-0.2614621357	 0.101686
H	-2.201873493	 1.5284464333	-0.116247692	 0.128564
H	-2.7644495287	-2.2965743817	-0.2177902341	 0.103512
H	-1.0354967876	-2.7027606313	-0.4138028283	 0.101113
82.5805	214.1031	256.2218	279.8965	289.6904	343.6638	379.168	448.2048	546.3295	662.743	695.8334	714.039	727.6849	799.5314	869.4838	881.2567	903.5815	912.6438	921.6769	952.2334	1003.6773	1047.3262	1105.7835	1144.7083	1158.5472	1173.7973	1181.673	1205.6339	1232.987	1242.1601	1251.5233	1262.8296	1274.3692	1282.9283	1320.7372	1341.2555	1409.7754	1445.4954	1461.2298	1477.5996	1511.5713	2979.7423	3004.3652	3052.9041	3054.3849	3060.9266	3067.6498	3117.6982	3123.9741	3137.6601	3813.1899
OC1CC23CCC12CO3	O[C@H]1C[C@@]23CC[C@@]12CO3	
InChI=1S/C7H10O2/c8-5-3-7-2-1-6(5,7)4-9-7/h5,8H,1-4H2	InChI=1S/C7H10O2/c8-5-3-7-2-1-6(5,7)4-9-7/h5,8H,1-4H2/t5-,6+,7-/m0/s1
