18
gdb 118024	3.71966	0.8128	0.69458	5.1873	69.97	-0.2796	0.0078	0.2873	1582.5501	0.144749	-476.208303	-476.197831	-476.196887	-476.244454	36.192	
C	-0.1662818111	 1.3544693848	-0.0312894752	-0.232911
O	-0.0752772508	-0.0534156629	-0.0692566322	-0.253168
C	 0.7733214851	-0.5355041079	-1.0918390658	-0.08496
C	 0.6492765421	-2.0570104609	-1.0498021282	 0.092136
O	-0.6982054622	-2.4482997585	-1.177611375	-0.43569
C	 1.4171792674	-2.7100512443	-2.2136361338	-0.023235
O	 2.7773712368	-2.3194142406	-2.2491961433	-0.41329
C	 1.2852300466	-4.1790363195	-2.1680732127	 0.271153
N	 1.2473811259	-5.3321553259	-2.1113474697	-0.316518
H	 0.8136955329	 1.8159278076	 0.1600644687	 0.114586
H	-0.5625475924	 1.7597449257	-0.9744328478	 0.114308
H	-0.8464505133	 1.6144964236	 0.7827397708	 0.135202
H	 0.4442694667	-0.1608056727	-2.0756810455	 0.095753
H	 1.8135623	-0.2196966146	-0.9338986532	 0.107124
H	 1.0777746102	-2.4161245826	-0.0982467417	 0.081682
H	-1.2009853544	-1.8556417463	-0.6044766064	 0.299674
H	 0.9730643042	-2.3580542945	-3.1510449653	 0.148157
H	 3.2387436163	-2.7560470502	-1.5236501436	 0.299997
54.4762	90.858	99.5781	118.086	185.2619	230.7766	240.1953	252.2373	311.4592	364.8918	392.1837	417.3556	462.9281	487.9908	612.9955	626.523	885.1702	921.3035	996.7759	1049.5397	1084.6644	1111.1009	1141.0308	1167.2208	1183.9003	1218.2212	1229.5656	1257.5979	1294.1271	1317.1837	1359.6018	1402.2374	1410.2308	1450.9968	1480.3112	1486.8102	1500.2651	1521.6397	2360.5348	2957.5819	2971.1236	2985.3081	3033.7463	3037.2641	3069.1779	3122.6773	3781.0969	3801.8029
COCC(O)C(O)C#N	COC[C@@H](O)[C@@H](O)C#N	
InChI=1S/C5H9NO3/c1-9-3-5(8)4(7)2-6/h4-5,7-8H,3H2,1H3	InChI=1S/C5H9NO3/c1-9-3-5(8)4(7)2-6/h4-5,7-8H,3H2,1H3/t4-,5+/m0/s1
