19
gdb 88347	2.10865	1.31417	0.89355	0.8682	87.12	-0.2591	0.0364	0.2955	1336.3757	0.155818	-348.667882	-348.657889	-348.656945	-348.702991	37.04	
C	 0.2279139574	 1.5417652174	-0.3771097989	-0.410431
C	 0.067942187	 0.0667043584	-0.0763441892	 0.000374
C	 1.2588886502	-0.8638252247	-0.0474328867	-0.307282
C	 0.50501114	-0.5666893597	 1.2232790646	 0.023206
C	 1.1640135984	 0.2446753077	 2.3453841203	-0.392637
C	 0.1576161305	 0.9520688868	 3.1486205834	 0.345362
C	-0.6831279114	 1.5274309178	 3.7846798238	-0.455092
C	 2.0081214887	-0.6143959914	 3.1859527718	 0.335069
C	 2.6984726293	-1.3330314268	 3.8560597359	-0.439706
H	 1.1921835387	 1.9311686717	-0.0367976899	 0.114907
H	 0.1740013094	 1.720000651	-1.4564156512	 0.117603
H	-0.5579126334	 2.1346149002	 0.1024343743	 0.129739
H	-0.8447638456	-0.3594898618	-0.4852360224	 0.087128
H	 1.1766682221	-1.8540759329	-0.4813238464	 0.113382
H	 2.2412775245	-0.4138070771	-0.1595473896	 0.112556
H	-0.132262642	-1.3560496619	 1.6087033925	 0.100621
H	 1.8162270863	 0.999534129	 1.8856480652	 0.130792
H	-1.4193023794	 2.036938339	 4.3556992064	 0.197675
H	 3.3088443393	-1.9621404125	 4.4553956363	 0.196733
49.0828	101.6252	124.3024	153.788	182.3241	232.6471	298.4898	340.1453	389.9709	423.2488	497.7405	550.6134	563.6844	630.7734	633.7441	642.1744	644.8125	775.0751	830.7094	855.7019	892.7883	937.2827	987.7743	1035.1029	1058.8936	1073.8639	1109.3477	1145.343	1151.5485	1196.0904	1244.6782	1259.4777	1302.3295	1382.2671	1412.7329	1425.1144	1491.7639	1494.2361	1503.9417	2238.7856	2244.4745	3014.424	3034.2992	3095.1969	3102.1937	3125.7035	3136.465	3160.4391	3210.9973	3503.5893	3504.4489
CC1CC1C(C#C)C#C	C[C@H]1C[C@H]1C(C#C)C#C	
InChI=1S/C9H10/c1-4-8(5-2)9-6-7(9)3/h1-2,7-9H,6H2,3H3	InChI=1S/C9H10/c1-4-8(5-2)9-6-7(9)3/h1-2,7-9H,6H2,3H3/t7-,9+/m0/s1
