16
gdb 43136	2.54709	2.00659	1.65494	3.9107	68.	-0.2276	-0.0137	0.2139	872.5457	0.126024	-437.797886	-437.791211	-437.790267	-437.828706	26.869	
O	 0.1554006436	 0.0487616783	 0.0980656892	-0.32133
C	 0.0332728968	 1.231500402	 0.0613135465	 0.460997
C	-1.0683060852	 2.2741630765	-0.0569745839	-0.243105
C	-0.7338703112	 3.0079574379	 1.3163857944	-0.189087
N	 0.7979534718	 3.0046922181	 1.3722325273	-0.400776
C	 0.9990640038	 2.4723787996	 0.0303989291	 0.168938
C	 1.9370915966	 2.3695280132	-1.1659982181	-0.188346
O	 0.7350535669	 2.4422554952	-2.0161783239	-0.303912
C	-0.036933755	 3.0472169036	-0.93306557	 0.102149
H	-2.1213687934	 2.0864552792	-0.2616070628	 0.096245
H	-1.1307731009	 4.027672027	 1.3335357543	 0.116815
H	-1.1499075846	 2.4517469209	 2.159054168	 0.139095
H	 1.1172171224	 3.9683166688	 1.4191514954	 0.22564
H	 2.5926205368	 3.2305527255	-1.3430522391	 0.113493
H	 2.480037894	 1.4314078389	-1.3051881722	 0.138342
H	-0.1886636224	 4.1202567754	-1.077268804	 0.08484
161.2632	243.5048	256.9666	289.7702	407.4699	483.1635	542.7099	649.9025	683.6072	766.281	794.1533	824.4745	848.8573	861.7949	896.0258	928.4848	954.1314	987.5314	998.9897	1048.0743	1076.9272	1101.8965	1134.9073	1144.4356	1166.6232	1232.6821	1241.7326	1266.0866	1303.6397	1318.3709	1352.5894	1394.0537	1505.1728	1508.6603	1931.1346	3031.2302	3051.7696	3078.4714	3109.3047	3111.3783	3134.9067	3494.9535
O=C1C2CNC11COC21	O=C1[C@H]2CN[C@]31CO[C@@H]23	
InChI=1S/C6H7NO2/c8-4-3-1-7-6(4)2-9-5(3)6/h3,5,7H,1-2H2	InChI=1S/C6H7NO2/c8-4-3-1-7-6(4)2-9-5(3)6/h3,5,7H,1-2H2/t3-,5+,6+/m1/s1
