18
gdb 64611	2.77957	1.42765	1.33212	4.1516	80.63	-0.2527	-0.0086	0.2442	1052.0495	0.148526	-364.825819	-364.817836	-364.816892	-364.857981	31.316	
C	-0.1281897941	 1.5992508232	 0.0247769211	-0.420227
C	 0.011751109	 0.0607599873	 0.0130816451	 0.072664
C	 0.8213115148	-0.4636493079	-1.1763904501	-0.115221
C	 1.8028934885	-1.2823290309	-0.7970994958	-0.078123
C	 1.8859365732	-1.4115718606	 0.6852887273	-0.075753
C	 2.2308176304	-0.1197757207	 1.4026773835	-0.305364
C	 0.7883348328	-0.5120194737	 1.2195416189	-0.056597
C	-1.3387163026	-0.5305122289	-0.0222154832	 0.258196
N	-2.3997677402	-0.9892160987	-0.0480807017	-0.345471
H	 0.8604910875	 2.0621171094	 0.0561525767	 0.12682
H	-0.6473666223	 1.9481621146	-0.8721350971	 0.133783
H	-0.6978589289	 1.9284636208	 0.8977811854	 0.136425
H	 0.5893235433	-0.1594563916	-2.1897661795	 0.111606
H	 2.4992942435	-1.7696320336	-1.4698969291	 0.109688
H	 2.1378185763	-2.361177781	 1.1426036041	 0.100023
H	 2.6199720132	-0.1916880645	 2.4129603188	 0.119301
H	 2.6524379864	 0.685736922	 0.8115703929	 0.119317
H	 0.2170180691	-0.7842766352	 2.0977608827	 0.108936
122.3189	149.336	217.1727	235.7903	262.0894	366.2937	409.4532	490.9559	521.4319	573.5154	627.8433	715.1391	773.1754	785.0911	810.3587	852.6318	907.3513	926.134	954.7143	979.0476	999.5602	1042.0255	1071.835	1077.6754	1102.0661	1114.3988	1134.5382	1185.0611	1198.4983	1213.4854	1303.6092	1365.0639	1377.7767	1411.4477	1475.1802	1488.4959	1496.1967	1668.9317	2348.2506	3049.0011	3122.8064	3129.5763	3134.6859	3178.7075	3193.2619	3194.8392	3218.7806	3219.9274
CC1(C=CC2CC12)C#N	C[C@]1(C=C[C@H]2C[C@@H]12)C#N	
InChI=1S/C8H9N/c1-8(5-9)3-2-6-4-7(6)8/h2-3,6-7H,4H2,1H3	InChI=1S/C8H9N/c1-8(5-9)3-2-6-4-7(6)8/h2-3,6-7H,4H2,1H3/t6-,7+,8-/m0/s1
