22
gdb 76302	1.78306	1.70226	1.21459	3.9709	85.44	-0.2918	0.0316	0.3235	1183.1953	0.193791	-367.23307	-367.223247	-367.222302	-367.267188	37.027	
C	-0.4228218867	 1.5017079199	-0.0560334822	-0.411104
C	-0.0537462377	 0.0200316557	-0.001534054	-0.018949
C	 1.1583057977	-0.4117603063	-0.8917471645	 0.026831
C	 1.5549514267	 0.3903592997	-2.1202886498	-0.422758
C	 2.0763869147	-0.3938628124	 0.3853928818	-0.205876
C	 2.8737570257	 0.8124256443	 0.5423362467	 0.297179
N	 3.5021700351	 1.7764817332	 0.6661648311	-0.354389
C	 0.7649773281	-0.4308395617	 1.253217099	 0.026831
C	 0.6974125171	 0.3487630183	 2.5561726624	-0.422758
H	 0.4368925425	 2.1579010705	 0.1074520576	 0.140682
H	-0.8526029681	 1.7556271957	-1.0304022627	 0.117396
H	-1.1711382256	 1.7401758146	 0.7066833668	 0.117396
H	-0.9575152759	-0.5733287712	-0.172538721	 0.068423
H	 1.0318083727	-1.4626658285	-1.1711593461	 0.084022
H	 1.7420784037	 1.440544386	-1.8821305604	 0.140042
H	 2.4679939272	-0.0138608962	-2.5702696873	 0.121618
H	 0.765353021	 0.3485460126	-2.8781061914	 0.117838
H	 2.7406624451	-1.2548891227	 0.4995445046	 0.114055
H	 0.5508933579	-1.4859934838	 1.4514430426	 0.084022
H	 0.9535594979	 1.4022928102	 2.4180121482	 0.140043
H	-0.3095529635	 0.2964175719	 2.9837025985	 0.117838
H	 1.3926696144	-0.0660289498	 3.29379633	 0.121617
81.4959	136.631	169.5258	218.1431	226.2443	235.6587	241.0479	268.6663	339.516	365.4646	469.2677	475.5934	504.0601	629.9177	701.6998	749.9448	787.6617	835.9193	872.5622	957.9677	982.6494	990.9604	1030.3078	1046.6101	1074.853	1134.8332	1138.585	1169.6231	1182.1038	1192.3273	1263.0149	1268.5382	1278.1326	1344.7058	1349.9057	1374.0742	1389.6612	1416.5619	1419.8671	1423.7887	1489.5164	1490.9695	1496.3763	1499.0851	1508.2792	1510.8758	2341.6962	3035.3819	3036.5414	3039.1628	3039.8146	3049.6311	3057.787	3075.2562	3097.1978	3098.2641	3101.7995	3112.7461	3121.9623	3123.8008
CC1C(C)C(C#N)C1C	C[C@H]1[C@@H](C)[C@@H](C#N)[C@H]1C	
InChI=1S/C8H13N/c1-5-6(2)8(4-9)7(5)3/h5-8H,1-3H3	InChI=1S/C8H13N/c1-5-6(2)8(4-9)7(5)3/h5-8H,1-3H3/t5-,6+,7-,8+
