21
gdb 52106	4.71957	0.72427	0.6834	2.7202	84.57	-0.2434	-0.0192	0.2242	1669.9336	0.18168	-387.074426	-387.065263	-387.064319	-387.109602	33.654	
O	-0.1833521981	-0.0534187305	-0.0187069556	-0.236492
C	-0.0813587401	 1.143429189	-0.1007544577	 0.15726
C	 1.2176599698	 1.9123988359	-0.0770711572	-0.265841
C	 1.4020548862	 2.763191946	-1.3528862678	-0.339431
C	 2.6433978978	 3.6104223186	-1.3053458073	 0.409195
C	 2.6893348923	 4.9580889554	-0.6349254398	-0.318647
C	 3.0217544084	 4.8643943599	-2.1013770646	-0.116664
C	 4.4547324368	 4.3515021799	-2.2779786602	-0.217687
C	 4.0781701646	 3.0739861298	-1.4571326226	-0.28697
H	-0.9874133329	 1.7863619353	-0.2158730898	 0.066675
H	 1.1957463386	 2.5846864278	 0.7923148215	 0.120489
H	 2.0419364666	 1.2060637569	 0.0560894272	 0.1239
H	 1.4379443382	 2.0966666254	-2.2246031593	 0.110165
H	 0.5239121312	 3.4080220144	-1.4895550004	 0.101114
H	 1.7216496474	 5.3960676692	-0.4075907753	 0.106043
H	 3.4654321103	 5.1966498947	 0.0901973114	 0.102702
H	 2.4431793213	 5.3983748452	-2.8466335701	 0.084314
H	 4.7055381376	 4.1161461981	-3.3144766163	 0.10441
H	 5.244126383	 4.9886408743	-1.865545691	 0.096869
H	 4.6296024706	 2.8989925736	-0.527405256	 0.09504
H	 4.1274839206	 2.166280921	-2.0645946893	 0.103556
48.534	66.2709	98.5319	126.4392	238.6951	280.0727	325.1124	379.5364	429.8751	519.5123	667.9819	723.9811	769.2535	786.733	838.7082	863.8688	887.6443	932.834	951.2394	971.3285	988.9602	1010.4509	1029.6947	1052.8993	1079.1702	1089.8171	1120.5963	1154.5554	1183.2289	1221.9547	1241.3714	1248.3633	1260.9145	1278.388	1296.0993	1337.4003	1365.0895	1405.4706	1430.3994	1464.2223	1481.6313	1486.0467	1489.9611	1513.1633	1835.6671	2841.5015	3011.2006	3020.7185	3040.6851	3049.3499	3050.4995	3090.2233	3096.986	3102.6338	3111.1559	3172.5202	3189.0438
O=CCCC12CC1CC2	O=CCC[C@]12C[C@H]1CC2	
InChI=1S/C8H12O/c9-5-1-3-8-4-2-7(8)6-8/h5,7H,1-4,6H2	InChI=1S/C8H12O/c9-5-1-3-8-4-2-7(8)6-8/h5,7H,1-4,6H2/t7-,8+/m1/s1
