16
gdb 24644	4.62541	1.19392	1.02485	1.3442	77.78	-0.2642	-0.0457	0.2184	1145.6493	0.127565	-396.973109	-396.966001	-396.965057	-397.005184	26.664	
C	-0.1406806639	 1.4199484814	-0.1402097459	-0.256124
C	 1.2576298099	 0.9754141058	 0.1189643327	-0.256134
C	 0.145852262	-0.0628750488	 0.0537077055	-0.087519
C	-0.2952386856	-0.7291056798	 1.2900477653	 0.385689
N	-0.2846214352	-0.0286109144	 2.4364876877	-0.291702
C	-0.6955945182	-0.696525674	 3.5075483558	 0.079246
N	-1.1054608707	-1.9665980652	 3.5368483479	-0.248099
C	-1.0734339938	-2.5615262656	 2.3431074779	 0.079231
N	-0.68579131	-2.0106342887	 1.1963806696	-0.289673
H	-0.6677549558	 1.9130884558	 0.6678584886	 0.137721
H	-0.4176466344	 1.7340143978	-1.1399614329	 0.121864
H	 1.9707923966	 0.9747624789	-0.6972778052	 0.121857
H	 1.6713006151	 1.1694967422	 1.1013984373	 0.137731
H	 0.1039300453	-0.7028848641	-0.8181144612	 0.107292
H	-0.6992147403	-0.1567328053	 4.4527397989	 0.12921
H	-1.3970032111	-3.599967936	 2.3027815281	 0.12941
71.1906	137.9568	193.7964	301.1613	359.4468	405.6592	578.9399	595.2804	707.0162	778.6761	812.7725	827.435	831.4209	922.4387	938.9678	992.1825	1004.7613	1049.47	1061.4541	1078.4364	1092.9836	1135.3771	1183.1714	1194.4107	1208.0533	1217.4441	1265.5924	1322.7515	1412.2019	1424.8729	1455.7571	1481.1124	1488.0452	1575.2161	1611.567	3142.9849	3144.8574	3154.7346	3158.792	3200.6179	3230.7268	3244.7493
C1CC1C1=NC=NC=N1	C1CC1c1ncncn1	
InChI=1S/C6H7N3/c1-2-5(1)6-8-3-7-4-9-6/h3-5H,1-2H2	InChI=1S/C6H7N3/c1-2-5(1)6-8-3-7-4-9-6/h3-5H,1-2H2
