16
gdb 91528	2.69726	1.49317	1.1278	2.4209	65.14	-0.247	0.0008	0.2478	1071.7049	0.123688	-475.010481	-475.00207	-475.001125	-475.043916	31.433	
N	-0.0817635355	 1.2896815737	 0.1200857867	-0.541712
C	 0.0486240321	-0.0685604715	 0.0489769312	 0.282143
O	 1.1007229821	-0.6641049024	 0.1430129767	-0.35064
C	-1.2666979545	-0.7516566056	-0.1857305486	 0.332917
O	-1.7116411306	-1.675404558	 0.8296337602	-0.28905
C	-1.6024561018	-2.1469284919	-0.5180689669	-0.047507
C	-2.9012669432	-1.7345728356	-1.2184537883	-0.293351
C	-2.5535998112	-0.237250902	-0.8531843813	 0.040689
O	-3.4135941878	 0.5074888169	-0.0317976937	-0.437454
H	 0.7300594121	 1.8282297608	 0.3780506756	 0.265188
H	-0.9926593327	 1.706386098	 0.2347053604	 0.272531
H	-0.9338242708	-2.9788075047	-0.6989657312	 0.132186
H	-2.9082694674	-1.9109985737	-2.2961247594	 0.118096
H	-3.8126771868	-2.135727477	-0.7695528101	 0.116038
H	-2.3614487239	 0.3639191879	-1.7447762045	 0.107534
H	-3.5018886501	 0.0042695551	 0.7885545233	 0.292392
57.7214	106.329	164.2434	194.7689	315.3884	377.3458	390.7972	455.3447	465.9094	520.2909	596.261	655.0208	676.0634	725.8578	763.2869	826.3473	881.6318	926.0396	952.8026	992.69	1041.7317	1097.6031	1101.2816	1137.8106	1159.1514	1197.3587	1240.6876	1270.8293	1304.5111	1328.0036	1434.7968	1452.6938	1477.9347	1623.8995	1812.1407	3071.6737	3095.6128	3133.2332	3212.2232	3576.2712	3711.4551	3767.7959
NC(=O)C12OC1CC2O	NC(=O)[C@]12O[C@H]1C[C@H]2O	
InChI=1S/C5H7NO3/c6-4(8)5-2(7)1-3(5)9-5/h2-3,7H,1H2,(H2,6,8)	InChI=1S/C5H7NO3/c6-4(8)5-2(7)1-3(5)9-5/h2-3,7H,1H2,(H2,6,8)/t2-,3+,5-/m1/s1
