19
gdb 113911	3.16474	0.93423	0.79845	4.9209	73.03	-0.229	0.0442	0.2732	1440.2515	0.158357	-456.335863	-456.326028	-456.325083	-456.371621	35.429	
N	 0.8720450413	-0.0157937367	-0.3089850001	-0.508627
C	-0.2342084558	 0.4372346401	 0.3344943809	 0.379292
O	-0.2568684189	 1.4192943115	 1.0508572389	-0.36713
C	-1.5031697107	-0.3800738526	 0.064242447	-0.263499
N	-1.2098094832	-1.6900600196	-0.5148375376	-0.102204
C	-1.1929775754	-2.8478614965	 0.377844317	-0.261329
C	-2.2758406064	-2.6847453452	-0.6338671109	-0.001979
C	-3.7200653986	-2.4165848589	-0.2309081558	-0.115378
O	-3.91628174	-2.0417464294	 1.1213987017	-0.397792
H	 1.7309693029	 0.501032726	-0.2287280439	 0.255895
H	 0.7959166574	-0.8154470033	-0.9160533073	 0.263977
H	-2.0835324855	-0.4168100044	 0.9922340839	 0.146119
H	-2.0947500054	 0.1937715191	-0.6601555946	 0.129832
H	-0.3908301595	-3.5644665872	 0.2232541517	 0.116269
H	-1.4550181943	-2.6698089373	 1.4187545964	 0.116272
H	-2.2073345241	-3.2678933077	-1.552568345	 0.09502
H	-4.1231611502	-1.5903293536	-0.8280403762	 0.125591
H	-4.3106894779	-3.3091944581	-0.4874751319	 0.101362
H	-3.7503928558	-2.8144411065	 1.6707033758	 0.28831
43.1796	63.0622	114.6492	121.2349	219.4446	250.2421	291.694	344.4045	375.783	436.0234	456.1528	535.541	567.6734	630.1027	698.7032	752.722	832.0862	874.2871	923.4226	966.7324	1001.2299	1007.4443	1067.5192	1086.9857	1096.0561	1126.5762	1158.5352	1162.6002	1232.3688	1266.152	1329.8211	1343.6323	1360.1978	1384.7513	1401.6017	1420.4327	1475.6434	1495.8266	1505.6817	1582.8109	1806.9352	2990.5386	3033.5889	3061.8375	3081.8133	3099.3742	3103.4027	3185.629	3589.1859	3735.6088	3819.9086
NC(=O)CN1CC1CO	NC(=O)CN1C[C@H]1CO	
InChI=1S/C5H10N2O2/c6-5(9)2-7-1-4(7)3-8/h4,8H,1-3H2,(H2,6,9)	InChI=1S/C5H10N2O2/c6-5(9)2-7-1-4(7)3-8/h4,8H,1-3H2,(H2,6,9)/t4-,7?/m0/s1
