19
gdb 15877	2.56413	1.86568	1.20248	2.7544	72.9	-0.2244	-0.0283	0.1961	1041.5366	0.163503	-365.048217	-365.039319	-365.038375	-365.082101	31.685	
C	-0.2099738573	 1.4839196383	 0.0954260595	-0.406025
C	-0.0431789544	-0.0298317413	 0.1568607085	-0.011629
C	 0.9612890999	-0.6300071712	-0.8623774402	-0.17286
N	 1.9741159312	-0.7036381566	 0.2056987259	-0.074244
C	 2.8790449634	-1.831231979	 0.2380447228	-0.327371
C	 0.9461991865	-0.5836311417	 1.2474230288	-0.05597
C	 1.3007885774	 0.3200024733	 2.4074622272	 0.143259
O	 0.669962974	 0.3818354803	 3.432143954	-0.251529
H	 0.7593132198	 1.9891337673	 0.0351756136	 0.128093
H	-0.7895708828	 1.765972633	-0.7898231233	 0.117839
H	-0.7383536331	 1.8627817328	 0.9760269793	 0.132589
H	-1.0180650735	-0.5191702296	 0.1784778872	 0.087696
H	 0.6428983478	-1.619083413	-1.2299818758	 0.085989
H	 1.2438435625	-0.0088154323	-1.7205329628	 0.100909
H	 3.5416134556	-1.7994011841	-0.6331943834	 0.124741
H	 3.5045951031	-1.7826793299	 1.1357207924	 0.124105
H	 2.3567583324	-2.8066344329	 0.2365764014	 0.094775
H	 0.5833044425	-1.5448190743	 1.6473770071	 0.078966
H	 2.196541405	 0.956964981	 2.2243705978	 0.080668
47.8832	95.1159	183.456	203.0868	229.0019	244.827	271.7998	328.6595	391.2528	463.9401	525.9291	671.2535	791.675	863.2296	912.8423	943.8581	980.2822	1016.6387	1036.1404	1099.1188	1117.3068	1122.8406	1174.0771	1176.4074	1215.6902	1229.5866	1259.0738	1271.9868	1314.86	1337.8215	1369.5349	1400.7988	1412.0678	1452.7231	1485.1773	1497.2116	1499.043	1502.2994	1521.7981	1825.0419	2872.2978	2930.3698	2964.7788	2972.5546	3033.7538	3047.0022	3057.697	3089.8582	3099.5657	3102.8601	3113.4101
CC1CN(C)C1C=O	C[C@H]1CN(C)[C@H]1C=O	
InChI=1S/C6H11NO/c1-5-3-7(2)6(5)4-8/h4-6H,3H2,1-2H3	InChI=1S/C6H11NO/c1-5-3-7(2)6(5)4-8/h4-6H,3H2,1-2H3/t5-,6-/m0/s1
