16
gdb 24563	2.10084	2.09621	1.17693	2.5927	86.19	-0.1988	-0.0187	0.1801	1028.6044	0.126815	-396.928178	-396.920635	-396.919691	-396.960246	28.776	
N	-0.0748810381	 1.3462094348	 0.0243633244	-0.302291
C	 0.9015070217	 2.3298670299	-0.1087621066	 0.07639
N	 2.0186036264	 2.3374641762	-0.7054977565	-0.212205
C	 2.7791620278	 1.3669636099	-1.2940402457	-0.029559
C	 3.329701038	 0.2469238919	-0.7667180083	-0.125313
C	 3.1325960185	-0.3520430744	 0.5278184357	-0.125315
C	 1.9870020063	-0.7544575023	 1.1289245388	-0.029558
N	 0.7206762834	-0.8673892104	 0.6285558006	-0.21221
C	-0.0926902382	-0.04302152	 0.1158091238	 0.076395
H	-1.0050121364	 1.7397443093	 0.0647973029	 0.256716
H	 0.5438700325	 3.2823961443	 0.287719005	 0.116146
H	 3.1641852554	 1.6922389747	-2.2597928582	 0.10432
H	 4.1364140245	-0.1801825374	-1.3604623467	 0.093008
H	 4.0419428423	-0.6509848552	 1.0469144282	 0.093008
H	 2.0921303527	-1.2871090289	 2.0733584407	 0.10432
H	-1.0524804369	-0.4381483223	-0.2234423681	 0.116147
119.2188	121.8884	208.9748	240.6305	367.477	370.7176	486.5392	550.7935	551.6529	621.0562	702.0862	742.0218	797.5247	822.638	849.6667	912.681	924.6514	944.947	958.8834	966.7074	977.6455	1005.8004	1109.5923	1230.7698	1303.9386	1328.614	1409.5634	1447.79	1466.1865	1505.669	1534.0568	1607.2781	1649.1547	1753.9796	1760.4678	3101.6283	3101.8482	3118.0408	3122.6974	3138.0981	3145.9498	3585.8924
N1C=NC=CC=CN=C1	[nH]1cnccccnc1	
InChI=1S/C6H7N3/c1-2-4-8-6-9-5-7-3-1/h1-6H,(H,7,8,9)/b3-1-,4-2-	InChI=1S/C6H7N3/c1-2-4-8-6-9-5-7-3-1/h1-6H,(H,7,8,9)/b3-1-,4-2-
