18
gdb 94666	3.59488	0.86665	0.74593	4.7895	70.45	-0.2439	0.0348	0.2787	1488.6831	0.146971	-476.217994	-476.208558	-476.207614	-476.253892	32.803	
O	 0.1722391488	 1.460674437	 0.0351523673	-0.418402
C	 0.0291530262	 0.0647426067	-0.04444926	 0.046058
C	-0.054016918	-0.7324641624	 1.2788237649	-0.101021
O	-1.3659712747	-1.2312136089	 0.9363389229	-0.303482
C	-1.4315506458	-0.3956563537	-0.2513116858	 0.105781
C	-2.5176577996	 0.6638264655	-0.1182376126	-0.167957
N	-3.792547188	 0.0181300189	 0.1375764522	-0.276395
C	-4.8842779016	 0.1746016536	-0.6549806051	 0.153881
O	-4.9494767375	 0.8952224856	-1.6291811732	-0.325686
H	 1.1087301798	 1.678198826	 0.0489542364	 0.294396
H	 0.7222577999	-0.3704775628	-0.7733951214	 0.087291
H	 0.6669888361	-1.5454835672	 1.4208628815	 0.10469
H	-0.0689960756	-0.0902622065	 2.168479848	 0.106582
H	-1.6134041138	-1.0099576745	-1.1408930088	 0.09043
H	-2.2671080336	 1.3583884308	 0.6897325113	 0.12138
H	-2.6211458177	 1.2388729667	-1.040648673	 0.152984
H	-3.8249285761	-0.6464268025	 0.8953272874	 0.25727
H	-5.7358849687	-0.4399000323	-0.3007626018	 0.072201
36.9572	67.1851	81.329	151.5088	199.7784	218.7798	267.9001	337.8644	408.09	485.3265	538.7203	588.2326	739.1722	762.0889	872.0395	895.1742	913.6207	992.0685	1017.7907	1032.9322	1062.0677	1078.1822	1109.7796	1155.7626	1181.8226	1199.9474	1214.6817	1256.9591	1286.8905	1308.635	1326.545	1352.2167	1411.4791	1429.681	1441.8855	1486.6976	1514.9217	1529.3035	1804.0474	2934.3133	3016.8919	3029.1949	3044.3823	3061.3179	3072.9339	3129.8722	3631.5081	3834.3826
OC1COC1CNC=O	O[C@H]1CO[C@H]1CNC=O	
InChI=1S/C5H9NO3/c7-3-6-1-5-4(8)2-9-5/h3-5,8H,1-2H2,(H,6,7)	InChI=1S/C5H9NO3/c7-3-6-1-5-4(8)2-9-5/h3-5,8H,1-2H2,(H,6,7)/t4-,5-/m0/s1
