15
gdb 29307	4.61326	1.10943	0.9352	2.1578	69.26	-0.2009	0.0179	0.2187	1201.2371	0.113633	-453.943202	-453.935593	-453.934648	-453.975948	28.334	
O	-0.3819408699	 1.2284851709	 0.0473612468	-0.432063
C	-0.0310652294	-0.064803451	-0.0790923286	 0.329285
C	 0.6040975551	-0.6674246451	-1.1109216189	-0.161602
O	 0.7353689816	-2.0071888097	-0.7631603668	-0.184899
C	 0.1659683999	-2.1006305284	 0.4484159986	 0.467165
N	-0.3158748023	-0.9833869192	 0.915435288	-0.41601
N	 0.2319346795	-3.3265102282	 1.0756363766	-0.155467
C	-0.8793700658	-3.7331382856	 1.9235791449	-0.212992
C	-0.6332296651	-4.4237880255	 0.6256978891	-0.228673
H	-0.8008370789	 1.3157774195	 0.911860825	 0.305097
H	 0.9953204379	-0.364391875	-2.0631084321	 0.142943
H	-0.5918810719	-4.2079760805	 2.8560789449	 0.131342
H	-1.7244886449	-3.0542672713	 1.9849198982	 0.14514
H	-1.3166370499	-4.2174859009	-0.1931428351	 0.136666
H	-0.1569285459	-5.3982341699	 0.6006097592	 0.134069
50.1154	140.1818	187.4826	292.6156	349.3198	386.0038	401.1869	534.4592	575.1167	627.7999	698.2789	719.7757	767.0457	817.8281	898.3995	932.3879	1001.8048	1031.7935	1051.1478	1107.32	1127.1608	1138.1973	1162.0075	1176.9316	1190.1471	1255.4922	1294.3382	1382.2593	1429.9177	1494.2973	1520.9806	1619.3655	1704.9112	3121.703	3126.8759	3209.1122	3222.3908	3322.274	3810.515
OC1=COC(=N1)N1CC1	Oc1coc(n1)N1CC1	
InChI=1S/C5H6N2O2/c8-4-3-9-5(6-4)7-1-2-7/h3,8H,1-2H2	InChI=1S/C5H6N2O2/c8-4-3-9-5(6-4)7-1-2-7/h3,8H,1-2H2
