20
gdb 117800	2.54849	1.11832	0.94641	3.3255	75.58	-0.2435	0.0277	0.2711	1333.0027	0.170038	-436.448251	-436.437399	-436.436455	-436.48437	38.283	
C	 0.2921112736	 0.8807531402	 0.4714853337	-0.256583
O	-0.4054947679	 0.1338063563	-0.514214721	-0.245714
C	 0.4107730174	-0.538957188	-1.4471797743	-0.096833
C	 0.4666641573	-2.0641276238	-1.1641213313	 0.032054
N	-0.8659403122	-2.656763359	-0.9936576496	-0.522501
C	 1.1886192798	-2.8019672906	-2.3337039593	-0.167399
N	 1.3669964132	-4.2328760921	-2.1719973733	-0.504606
C	 1.2331057483	-2.3046327309	 0.0741293329	 0.320134
N	 1.8740630654	-2.4871924954	 1.0187384868	-0.355335
H	 0.9394327755	 0.2484846792	 1.0904009497	 0.143105
H	 0.900186241	 1.6729411082	 0.0118316955	 0.113175
H	-0.4661721447	 1.3436580812	 1.1070305368	 0.133342
H	-0.0449305535	-0.4103343428	-2.4383982045	 0.104577
H	 1.4222734649	-0.1118205313	-1.4814081185	 0.106317
H	-1.3664498882	-2.1218847025	-0.2878629939	 0.250052
H	-1.3831685558	-2.5263468967	-1.8610586804	 0.232771
H	 0.5877418672	-2.6173135589	-3.2345800415	 0.107697
H	 2.1647999424	-2.3352134412	-2.5010055427	 0.120262
H	 2.0316303738	-4.4153219019	-1.4251913701	 0.242738
H	 0.4859977224	-4.6430368701	-1.872925605	 0.242748
55.5386	93.4775	117.512	137.5892	172.1943	178.2502	221.8607	274.5166	294.7626	324.1355	368.9712	395.4016	446.72	462.0325	590.925	663.5813	710.2322	863.1369	880.6245	920.3937	927.3057	977.5198	1012.2535	1083.532	1121.051	1136.7528	1168.2007	1182.4756	1214.258	1242.0727	1302.9416	1351.1547	1365.8512	1402.94	1412.5837	1473.6751	1481.1318	1488.827	1498.0419	1511.7746	1660.5129	1676.2638	2350.7161	2994.662	3003.3127	3018.9176	3049.4114	3070.0207	3082.4571	3124.9408	3472.3577	3489.6201	3553.4156	3565.4588
COCC(N)(CN)C#N	COC[C@@](N)(CN)C#N	
InChI=1S/C5H11N3O/c1-9-4-5(8,2-6)3-7/h2,4,6,8H2,1H3	InChI=1S/C5H11N3O/c1-9-4-5(8,2-6)3-7/h2,4,6,8H2,1H3/t5-/m1/s1
