21
gdb 90543	4.14069	0.94156	0.87902	3.2146	83.55	-0.2413	-0.0189	0.2224	1386.7093	0.182075	-387.076405	-387.06753	-387.066586	-387.111152	33.246	
C	 0.4986150639	 1.6264368266	-0.2470121913	-0.411633
C	 0.071656054	 0.1821470248	-0.0292920066	 0.048107
C	 0.7803372864	-0.9467353127	-0.8455061981	-0.262189
C	 0.9776848297	-1.7694464353	 0.4580818821	-0.032655
C	 2.3912393344	-1.6010757065	 1.1000579494	-0.071984
C	 1.8568239513	-0.3433494706	 1.8700870876	-0.267519
C	 0.4319486356	-0.5575020575	 1.2920336269	-0.033036
C	 2.7673211641	-2.7338020909	 2.0129036093	 0.153957
O	 3.788729508	-3.3696054229	 1.9510381918	-0.258998
H	 1.5822348531	 1.7513363829	-0.1496590063	 0.115435
H	 0.222179152	 1.9638800879	-1.2520535432	 0.11784
H	 0.0182273176	 2.298518831	 0.4729304285	 0.115861
H	-1.0113169659	 0.1074582405	-0.1764612308	 0.075473
H	 0.158406282	-1.4247545612	-1.6057933842	 0.103383
H	 1.7186706667	-0.6420236887	-1.3198169993	 0.099443
H	 0.5335982475	-2.7660449633	 0.4817234052	 0.07122
H	 3.2083821549	-1.4338110597	 0.394476477	 0.086747
H	 1.9036320838	-0.4548856434	 2.957355407	 0.108916
H	 2.3535619392	 0.5941657662	 1.6120254904	 0.11092
H	-0.3649853184	-0.647486175	 2.0320304902	 0.064672
H	 1.9984061602	-2.9646570223	 2.7907134643	 0.066041
26.6468	69.0988	163.9405	222.622	234.203	309.3638	331.5095	376.4132	450.8997	481.6822	642.2521	737.7273	753.3913	834.0255	856.9086	873.7815	888.9563	922.7952	950.3792	976.745	1006.0264	1023.3417	1047.5862	1106.9332	1111.6031	1127.5675	1152.2862	1177.3731	1210.0418	1214.8701	1233.2745	1256.6073	1270.9838	1272.3216	1295.1464	1313.0223	1336.2535	1366.8927	1409.8803	1432.2784	1473.0987	1485.0534	1494.4786	1503.1926	1827.7206	2830.5151	3027.3743	3036.8931	3049.2253	3056.2945	3082.7094	3084.956	3092.1219	3093.1855	3096.7097	3107.4475	3113.0936
CC1CC2C(CC12)C=O	C[C@H]1C[C@H]2[C@@H](C[C@@H]12)C=O	
InChI=1S/C8H12O/c1-5-2-8-6(4-9)3-7(5)8/h4-8H,2-3H2,1H3	InChI=1S/C8H12O/c1-5-2-8-6(4-9)3-7(5)8/h4-8H,2-3H2,1H3/t5-,6-,7-,8-/m0/s1
