18
gdb 42728	2.64024	1.82663	1.42429	2.4104	76.32	-0.2386	-0.0164	0.2222	963.5291	0.15035	-401.929261	-401.922217	-401.921273	-401.960571	28.44	
O	 0.0725835698	 0.069684942	-0.0116452137	-0.359396
C	-0.0104179552	 1.2709187177	 0.0351955299	 0.38659
C	-1.2225249939	 2.1892459969	 0.0104345979	-0.146005
C	-0.779838946	 3.2728779525	 1.0542188077	-0.241847
C	 0.3286016097	 3.573448822	-9.994*^-6	-0.110199
C	-0.7429275707	 3.2209752457	-1.0756325843	-0.240152
C	 1.1254729241	 2.2778330719	 0.0558484638	 0.29514
C	 2.4026665294	 1.9937462769	 0.7502091656	-0.3112
N	 2.3428323886	 2.0366612732	-0.7195717115	-0.380414
H	-2.2058489794	 1.725073229	 0.0022013971	 0.086219
H	-1.515026881	 4.0765082746	 1.1319675109	 0.111611
H	-0.4734483605	 2.9382463806	 2.0489401265	 0.107049
H	 0.8862605108	 4.5078945027	-0.0156453709	 0.079473
H	-0.3982624759	 2.8378072311	-2.0393339228	 0.114687
H	-1.4773318977	 4.0161031108	-1.2213360367	 0.110374
H	 2.9521835383	 2.8108627781	 1.2098224981	 0.123911
H	 2.5037526386	 1.0269719927	 1.2367161974	 0.130784
H	 2.3107964511	 1.0817102316	-1.0775605211	 0.243374
123.2024	206.0345	234.1674	261.4043	417.1478	462.1733	516.9705	574.9431	665.5005	762.9655	804.8795	825.4245	850.896	862.8272	890.7986	914.1366	948.7797	977.8896	996.1086	1009.6313	1019.0219	1045.8371	1066.3352	1096.4502	1099.7178	1128.9314	1169.9714	1223.7243	1237.6305	1241.3267	1261.411	1279.0157	1290.9203	1315.5644	1423.5187	1485.8789	1501.5768	1520.6547	1855.4792	3060.4701	3063.644	3105.8567	3124.0155	3125.902	3135.9649	3151.7718	3197.2697	3462.2736
O=C1C2CC(C2)C11CN1	O=C1[C@H]2C[C@H](C2)[C@]21CN2	
InChI=1S/C7H9NO/c9-6-4-1-5(2-4)7(6)3-8-7/h4-5,8H,1-3H2	InChI=1S/C7H9NO/c9-6-4-1-5(2-4)7(6)3-8-7/h4-5,8H,1-3H2/t4-,5+,7-/m0/s1
