17
gdb 22509	2.35219	1.23268	1.09984	4.1176	76.95	-0.264	-0.0191	0.2449	1194.0855	0.134199	-417.971655	-417.96235	-417.961406	-418.006805	33.548	
C	-0.1638350877	 1.5406603138	 0.2295073469	-0.436466
C	 0.003373407	 0.0269701715	 0.0281949172	 0.05693
C	 0.8423116632	-0.4016775439	-1.2435719029	-0.264433
C	 1.9431197552	-1.0193479225	-0.3276196483	-0.325323
C	 1.1148273457	-0.6131105267	 0.8689851941	 0.393786
N	 1.1995919219	-0.6800270419	 2.1281103643	-0.22082
O	 2.3872725139	-1.3043333166	 2.5257501935	-0.382438
C	-1.2836016843	-0.658094165	 0.131048935	 0.256268
N	-2.3021262312	-1.2017403921	 0.1934401981	-0.342549
H	 0.8076663717	 2.0348490055	 0.1418127728	 0.125611
H	-0.8391456026	 1.955414441	-0.5242948015	 0.137342
H	-0.5705762886	 1.7523521614	 1.2210577244	 0.152179
H	 0.3320038173	-1.1156801707	-1.8892260287	 0.135089
H	 1.1643083228	 0.454271519	-1.8383941345	 0.120929
H	 2.082360212	-2.0994540163	-0.4260926095	 0.14351
H	 2.9279883474	-0.5467293835	-0.3773959324	 0.136567
H	 2.3111082161	-1.3002340131	 3.4866772915	 0.313819
20.7798	101.2698	162.482	185.3897	225.2261	254.7957	307.6925	356.515	409.0018	453.1611	507.1702	534.1273	608.8277	643.5268	752.9635	768.7765	884.897	916.4082	943.9462	967.6263	997.7993	1081.7954	1114.2186	1139.4407	1189.0948	1211.6611	1241.3054	1250.9455	1284.4556	1403.0272	1411.9347	1457.9683	1483.4206	1487.8178	1493.6223	1780.2449	2351.7413	3045.3643	3063.5775	3089.4258	3105.8882	3121.943	3133.241	3152.159	3809.8056
CC1(CCC1=NO)C#N	C[C@]1(CCC1=NO)C#N	
InChI=1S/C6H8N2O/c1-6(4-7)3-2-5(6)8-9/h9H,2-3H2,1H3	InChI=1S/C6H8N2O/c1-6(4-7)3-2-5(6)8-9/h9H,2-3H2,1H3/t6-/m0/s1
