14
gdb 11650	3.35812	1.89759	1.507	3.6252	63.57	-0.2646	0.0034	0.268	837.0143	0.108352	-378.656894	-378.650138	-378.649194	-378.687759	25.778	
O	 0.1752957933	 1.447158991	 0.0914354331	-0.421854
C	 0.0516512787	 0.063223943	 0.0361614499	 0.104561
C	-0.0869351967	-0.6848737242	 1.3832506536	-0.068329
C	-1.5247141325	-0.1194137137	 1.5269761165	-0.232031
C	-1.369056911	-0.6308703643	 0.0674483834	 0.18851
N	-0.710720311	-1.8650505793	 0.6508199669	-0.334904
C	-2.3499961022	-0.684232342	-0.9864879371	 0.145013
N	-3.1120362358	-0.6904722677	-1.8564197024	-0.343596
H	 0.143542376	 1.8009989428	-0.8037086559	 0.300324
H	 0.7420008366	-0.4008677384	-0.6821989671	 0.083159
H	 0.6652209927	-0.8262250711	 2.157054475	 0.10341
H	-2.2006649589	-0.7091025667	 2.1444836339	 0.125914
H	-1.622285654	 0.9560536083	 1.6541054535	 0.132535
H	-0.0404534253	-2.2466652077	-0.0274984432	 0.217289
130.2683	175.3604	297.2833	324.854	338.7688	513.2075	525.7882	558.3365	583.2648	640.4191	778.4014	840.5633	916.3905	931.7186	955.413	969.7562	1047.9376	1095.2829	1124.4887	1163.4444	1171.7041	1208.8957	1221.5871	1251.3665	1272.3802	1301.5455	1309.2845	1429.505	1491.8153	2349.6097	3014.4814	3108.5365	3142.7529	3195.8414	3364.8342	3816.0818
OC1C2CC1(N2)C#N	O[C@H]1[C@H]2C[C@@]1(N2)C#N	
InChI=1S/C5H6N2O/c6-2-5-1-3(7-5)4(5)8/h3-4,7-8H,1H2	InChI=1S/C5H6N2O/c6-2-5-1-3(7-5)4(5)8/h3-4,7-8H,1H2/t3-,4+,5-/m1/s1
