18
gdb 78333	2.78779	1.37581	1.04924	4.5815	78.64	-0.2312	-0.0144	0.2167	1177.6903	0.147349	-401.910151	-401.90193	-401.900985	-401.942832	31.403	
C	-0.1091653914	 1.3992480862	 0.0059107091	-0.424236
C	 0.0573407074	-0.1026615872	 0.1010437038	-0.020357
C	 1.4409753521	-0.6643671131	-0.2211642343	-0.193635
C	 0.8606502781	-0.6767720118	 1.2223643091	-0.183334
C	 0.7839916248	-2.1928880742	 1.1763657822	 0.238822
C	 1.0893259148	-3.1675802676	 2.2492347919	-0.311433
N	-0.260913022	-3.0920793197	 1.6656981921	-0.359499
C	 1.3932645535	-2.1698708543	-0.2292172997	 0.380762
O	 1.8218177312	-3.0194291705	-0.9568771706	-0.323544
H	 0.7807410783	 1.9226702635	 0.3700569153	 0.120873
H	-0.2820230792	 1.7104731855	-1.0290512647	 0.131555
H	-0.9635185818	 1.7321383092	 0.6045117852	 0.126294
H	-0.8049110417	-0.6713109284	-0.2410054862	 0.107542
H	 2.2130141349	-0.0361525445	-0.6467900018	 0.111013
H	 1.2144368577	-0.0869292927	 2.0588507105	 0.104838
H	 1.6430003532	-4.0683633193	 2.0005511703	 0.141739
H	 1.2557349552	-2.7810112095	 3.2518406098	 0.118273
H	-0.8830377851	-2.5804151315	 2.288900398	 0.234327
116.2468	154.1493	197.7304	217.2221	246.5787	249.8653	361.0165	422.552	498.7685	640.8988	656.7271	754.3317	778.6632	847.7822	865.7152	876.9593	917.0571	956.864	962.0668	981.4127	985.8148	1032.0704	1056.2334	1090.6577	1111.8114	1130.6063	1150.1913	1197.9479	1230.1767	1255.5093	1275.0208	1284.5847	1401.5574	1416.6487	1421.8242	1492.6191	1501.0571	1505.6362	1884.8441	3034.1223	3100.0256	3104.0959	3107.0134	3128.1666	3191.4593	3198.2795	3203.8993	3484.2552
CC1C2C1C1(CN1)C2=O	C[C@H]1[C@H]2[C@@H]1[C@]1(CN1)C2=O	
InChI=1S/C7H9NO/c1-3-4-5(3)7(2-8-7)6(4)9/h3-5,8H,2H2,1H3	InChI=1S/C7H9NO/c1-3-4-5(3)7(2-8-7)6(4)9/h3-5,8H,2H2,1H3/t3-,4-,5+,7+/m0/s1
