15
gdb 17878	3.41575	2.11733	1.98908	1.9218	60.51	-0.2374	-0.0227	0.2147	746.0023	0.121345	-399.780678	-399.774419	-399.773475	-399.811012	24.368	
O	 0.0035752209	 0.0091295268	 0.1126406593	-0.306302
C	-0.0135202441	 1.1997390426	 0.0330649249	 0.429454
C	-1.0566625536	 2.3164254011	-0.0271833859	-0.05352
C	-1.2376463272	 2.8682784336	 1.4246040892	-0.201604
N	-0.0174752791	 3.5556527115	 1.8536397132	-0.260682
C	 1.2070963465	 2.900914186	 1.3876832907	-0.201604
C	 0.9971551902	 2.3438421567	-0.0581992024	-0.053519
O	-0.0503193289	 3.1403377448	-0.6883119384	-0.291691
H	-1.9814738992	 2.2046085121	-0.5963556927	 0.107106
H	-2.0693777122	 3.5766057922	 1.468086707	 0.119331
H	-1.4751232554	 2.0380059269	 2.1017291338	 0.126438
H	-0.0361280054	 4.4766140075	 1.4326053273	 0.233717
H	 2.0205609757	 3.631204177	 1.4063207369	 0.119331
H	 1.4869823972	 2.0775485569	 2.0569955948	 0.126438
H	 1.9070145448	 2.2565153542	-0.6550795076	 0.107106
133.9038	228.8957	238.3057	448.7354	448.9102	547.1111	552.8831	743.961	748.2079	789.3733	840.8768	853.3402	876.9478	896.9106	957.087	984.3884	1047.1626	1063.9724	1103.3931	1107.8331	1155.1733	1232.4811	1246.1936	1262.5583	1267.4556	1334.3439	1335.5508	1379.9596	1492.5019	1500.6751	1522.5966	1914.6139	3029.2098	3031.5427	3091.672	3091.9949	3105.7292	3107.5312	3550.4816
O=C1C2CNCC1O2	O=C1[C@H]2CNC[C@@H]1O2	
InChI=1S/C5H7NO2/c7-5-3-1-6-2-4(5)8-3/h3-4,6H,1-2H2	InChI=1S/C5H7NO2/c7-5-3-1-6-2-4(5)8-3/h3-4,6H,1-2H2/t3-,4+
