18
gdb 58382	2.82212	1.00545	0.89601	3.0169	72.7	-0.2732	-0.0556	0.2176	1343.9186	0.145332	-439.110916	-439.101046	-439.100102	-439.146196	34.907	
C	-0.0604713319	 1.5780002089	-0.1706046048	-0.428807
C	-0.0524052524	 0.0623416102	 0.0457862445	 0.130705
O	 0.6412321357	-0.3134793048	 1.2241949362	-0.44138
C	-1.4705104974	-0.5555845653	 0.0269312706	-0.111317
C	-1.3663402736	-2.1073576015	 0.0300352389	-0.353505
C	-2.6596721437	-2.7851956356	-0.0058503686	 0.254325
N	-3.6926391635	-3.3023276467	-0.041730713	-0.3042
C	-2.3309402698	-0.1110809808	 1.2015908999	 0.154056
O	-1.906742853	 0.4430711941	 2.1887070885	-0.25534
H	 0.9676067114	 1.9486382731	-0.1616124257	 0.133819
H	-0.5110847384	 1.8364939882	-1.1349138044	 0.114365
H	-0.616040302	 2.0906307624	 0.619179653	 0.136905
H	 0.5123637	-0.397437888	-0.77561944	 0.090089
H	 0.1535494616	 0.0868412274	 1.957500983	 0.296038
H	-1.9986212632	-0.2564628897	-0.8883948924	 0.113006
H	-0.7854854782	-2.4230366255	-0.8432622468	 0.162565
H	-0.8043684391	-2.4200000372	 0.9154780143	 0.180366
H	-3.4106467226	-0.3508066393	 1.1125142769	 0.128309
60.8084	90.7117	110.497	137.8516	218.9789	233.1882	250.7004	295.1638	366.8446	393.5427	450.4554	478.3497	546.0675	584.9475	766.3103	772.8259	882.2438	900.4713	946.796	963.0437	1001.7749	1057.227	1084.2516	1110.64	1154.9815	1201.0062	1266.2378	1299.7606	1319.7898	1364.238	1385.1063	1406.2098	1432.0422	1449.3819	1471.375	1492.6609	1504.6042	1806.8135	2360.3745	2927.8516	3022.8313	3030.6627	3042.4914	3055.2983	3102.6024	3113.8665	3130.6191	3748.712
CC(O)C(CC#N)C=O	C[C@@H](O)[C@@H](CC#N)C=O	
InChI=1S/C6H9NO2/c1-5(9)6(4-8)2-3-7/h4-6,9H,2H2,1H3	InChI=1S/C6H9NO2/c1-5(9)6(4-8)2-3-7/h4-6,9H,2H2,1H3/t5-,6+/m1/s1
