20
gdb 107828	3.29594	1.48855	1.2924	2.0002	77.43	-0.2336	0.084	0.3177	1051.5354	0.172318	-403.100804	-403.09309	-403.092146	-403.132767	30.789	
C	-0.0831978081	 1.3681852685	 0.0057208126	-0.260606
O	 0.0853184314	-0.0345648248	-0.0060972053	-0.308626
C	 0.7165186493	-0.5426577992	-1.1403539841	 0.439201
C	-0.0640454449	-0.4961519013	-2.5035434656	-0.316698
C	 0.2393712051	-1.9933308806	-2.6567028408	-0.039835
C	 0.7082849188	-2.095829153	-1.243617393	-0.121994
N	 1.6353792868	-2.3350777443	-2.334522601	-0.101351
C	 2.619375947	-1.2265410173	-2.4107961851	-0.168161
C	 2.1868093815	-0.1623759169	-1.371914144	-0.279406
H	 0.8779958923	 1.9002893297	 0.0319075917	 0.11146
H	-0.6511271199	 1.7195442454	-0.8680462536	 0.11028
H	-0.6442668599	 1.6125523133	 0.910669105	 0.128883
H	-1.1310208423	-0.3401961703	-2.3240284382	 0.111978
H	 0.2840799422	 0.1913075142	-3.2821477877	 0.08809
H	-0.3152425064	-2.7011019075	-3.2627732203	 0.092207
H	 0.5362812404	-2.8148724214	-0.4521365781	 0.092499
H	 3.6101401669	-1.6330490811	-2.1909620804	 0.111832
H	 2.6460034967	-0.8298076952	-3.4304264054	 0.107272
H	 2.3136176775	 0.8581668964	-1.7453734598	 0.098593
H	 2.7464878857	-0.2594976847	-0.435020207	 0.10438
106.3371	179.6792	205.9311	235.9798	347.902	375.398	423.4415	452.9474	590.3691	650.4374	715.3416	747.5584	800.9295	854.2746	863.1648	918.7036	935.0299	956.8052	970.4185	1006.468	1014.9103	1038.1144	1077.506	1113.5824	1135.5688	1171.039	1183.105	1191.0983	1202.3668	1215.9547	1226.0454	1254.3861	1262.8574	1278.2304	1328.1722	1329.8761	1371.4514	1480.3025	1485.0934	1489.5642	1492.8993	1508.5627	1513.8758	2989.6438	3037.0644	3039.9439	3043.768	3054.9599	3084.8156	3101.8829	3106.6506	3117.616	3168.5965	3192.2836
COC12CC3C1N3CC2	CO[C@]12C[C@@H]3[C@H]1N3CC2	
InChI=1S/C7H11NO/c1-9-7-2-3-8-5(4-7)6(7)8/h5-6H,2-4H2,1H3	InChI=1S/C7H11NO/c1-9-7-2-3-8-5(4-7)6(7)8/h5-6H,2-4H2,1H3/t5-,6-,7-,8?/m1/s1
