20
gdb 8457	3.86311	1.77079	1.60724	1.5867	74.31	-0.2398	0.0897	0.3295	914.9159	0.177695	-349.001683	-348.994126	-348.993182	-349.032866	30.35	
C	-0.0401685834	 1.5194563747	 0.0336926411	-0.410973
C	 0.030553106	-0.0048945083	 0.0387245178	 0.041596
C	 0.9555950176	-0.6145352293	-1.0675407618	-0.270876
C	 1.9683375956	-1.3307434655	-0.1413001152	 0.425331
C	 3.2184473043	-1.9269158248	-0.7230125038	-0.494943
C	 1.0492017935	-2.0528848205	 0.8786868101	-0.275122
C	 0.8091734696	-0.5782255442	 1.2482929408	 0.074234
O	 2.1961372442	-0.2978663983	 0.8841592714	-0.331624
H	 0.9634378846	 1.940830772	 0.1450537896	 0.130809
H	-0.4661747226	 1.8948626813	-0.9027008168	 0.110159
H	-0.6617577788	 1.8928434285	 0.8554398354	 0.106753
H	-0.9794624324	-0.4271943077	-0.0054718021	 0.065049
H	 0.4381991566	-1.3018191043	-1.7430106444	 0.093035
H	 1.4481541313	 0.1566983947	-1.6664432154	 0.100127
H	 3.7962327036	-1.163237745	-1.2542360022	 0.127569
H	 3.8497558493	-2.3531667953	 0.0614936087	 0.125561
H	 2.9660429513	-2.7189874924	-1.4357555421	 0.120378
H	 0.2142635747	-2.656943691	 0.5121268204	 0.088248
H	 1.6253066361	-2.5821325692	 1.6392318687	 0.103399
H	 0.5378795288	-0.2440303954	 2.2505975299	 0.07129
151.3747	197.216	245.1669	256.4609	311.9431	351.1347	424.3373	460.4483	571.8138	615.6422	707.8912	799.9464	806.0103	836.4514	885.8119	889.7803	928.4842	930.9767	981.8341	1014.3999	1032.3036	1049.8952	1067.7681	1122.8855	1151.3028	1190.4851	1212.4234	1216.6922	1232.5048	1269.6558	1285.1388	1309.0196	1345.5877	1373.3241	1405.6165	1415.3447	1477.7899	1481.5208	1492.8166	1495.4296	1498.3708	1507.9119	3029.0385	3036.2162	3041.0767	3053.9428	3060.0061	3091.8154	3102.3227	3106.3601	3112.7261	3114.2653	3115.9989	3134.4541
CC1CC2(C)CC1O2	C[C@H]1C[C@]2(C)C[C@H]1O2	
InChI=1S/C7H12O/c1-5-3-7(2)4-6(5)8-7/h5-6H,3-4H2,1-2H3	InChI=1S/C7H12O/c1-5-3-7(2)4-6(5)8-7/h5-6H,3-4H2,1-2H3/t5-,6+,7+/m0/s1
