19
gdb 31028	2.48352	1.21809	0.86702	0.3221	79.3	-0.1725	0.064	0.2364	1350.9866	0.159153	-419.241361	-419.231419	-419.230475	-419.276526	36.317	
C	 0.2191418764	 1.5235050056	-0.2345198164	-0.358558
C	-0.1295887709	 0.0635263379	 0.1037716335	-0.301963
C	 0.6391722304	-0.4840338086	 1.2700212421	 0.282765
C	 0.1265580003	-0.7928225328	 2.5095279102	 0.129059
N	-1.164852514	-0.7377115307	 3.0857234219	-0.617921
N	 1.177172858	-1.2526630614	 3.2959442753	-0.304389
C	 2.326564946	-1.2353917755	 2.5692809075	 0.386766
O	 3.4671904739	-1.6590361435	 3.1759263872	-0.438808
C	 2.0482344564	-0.7663485963	 1.308784983	-0.411915
H	 1.2827600767	 1.628117302	-0.4710533618	 0.116465
H	-0.3551904171	 1.8788502259	-1.0967874471	 0.103315
H	 0.0063705784	 2.1825829686	 0.6134167568	 0.110901
H	-1.2026911866	-0.0100504267	 0.3189770239	 0.079104
H	 0.0455419353	-0.5571913896	-0.7850763443	 0.098655
H	-1.5557716687	 0.1976853255	 3.0646540306	 0.240914
H	-1.8225681844	-1.3529560037	 2.6182966902	 0.240442
H	 1.0864146759	-1.5508293957	 4.2517550054	 0.261733
H	 4.1865979446	-1.5833144484	 2.5421712322	 0.304138
H	 2.7574906394	-0.6423589627	 0.5037163098	 0.079297
41.8403	108.2871	131.2724	191.9596	213.4412	231.9485	281.2695	282.7513	322.3686	398.9681	464.9041	522.605	584.9928	648.243	670.4828	678.4962	731.0078	760.7143	786.8987	808.8532	969.954	1039.5041	1047.7369	1081.4731	1161.0973	1165.6182	1191.2315	1203.6481	1252.6954	1284.0593	1346.0347	1356.6102	1406.0943	1460.2627	1481.1702	1495.314	1505.5523	1539.2919	1582.821	1639.0182	1665.6892	3011.879	3030.7208	3047.7141	3100.0794	3105.5221	3231.8029	3499.9911	3564.1482	3683.5632	3848.3095
CCC1=C(N)NC(O)=C1	CCc1c(N)[nH]c(O)c1	
InChI=1S/C6H10N2O/c1-2-4-3-5(9)8-6(4)7/h3,8-9H,2,7H2,1H3	InChI=1S/C6H10N2O/c1-2-4-3-5(9)8-6(4)7/h3,8-9H,2,7H2,1H3
