14
gdb 131426	5.04312	0.83234	0.77587	1.6416	66.03	-0.2535	-0.0418	0.2117	1396.9196	0.099733	-473.828141	-473.820043	-473.819099	-473.862439	28.592	
O	 0.1921560217	 1.3819312449	 0.2519275391	-0.414513
C	 0.0707481088	 0.0516965956	 0.1487803248	 0.481366
N	-0.1980070114	-0.5356236756	-0.9926882335	-0.255749
O	-0.2382102934	-1.902136671	-0.6880077106	-0.220723
C	 0.0097822061	-2.0711937138	 0.625239083	 0.439492
C	-0.0374092226	-3.4712054733	 1.1315637814	-0.387401
C	-1.4730446895	-3.9750110952	 1.297887558	 0.1588
O	-1.853776586	-4.5948132438	 2.2526173669	-0.222124
C	 0.2123487237	-0.8682382612	 1.2244718536	-0.438586
H	 0.0479035805	 1.7605900877	-0.6259608532	 0.31467
H	 0.4530486124	-4.1322106287	 0.4041526798	 0.156775
H	 0.4797785093	-3.5643481757	 2.0880358492	 0.147622
H	-2.1449735672	-3.7293133648	 0.4476217963	 0.105184
H	 0.4295211075	-0.6558700851	 2.2569741553	 0.135187
34.0046	64.3956	123.6834	253.0262	292.0313	400.4334	440.8332	453.1988	460.4963	620.966	682.5301	728.7547	747.7295	808.0409	812.8775	949.2844	999.4425	1029.8469	1038.2752	1054.3606	1155.4101	1185.8219	1231.3841	1286.4756	1329.8269	1419.0592	1443.702	1533.2754	1558.9855	1660.9241	1841.4827	2907.7946	3032.2996	3129.5166	3288.9014	3778.6514
OC1=NOC(CC=O)=C1	Oc1noc(CC=O)c1	
InChI=1S/C5H5NO3/c7-2-1-4-3-5(8)6-9-4/h2-3H,1H2,(H,6,8)	InChI=1S/C5H5NO3/c7-2-1-4-3-5(8)6-9-4/h2-3H,1H2,(H,6,8)
