18
gdb 98361	2.39507	1.02596	0.78019	0.5522	71.51	-0.256	-0.0061	0.2499	1463.8369	0.145025	-476.281207	-476.270753	-476.269809	-476.31853	35.124	
C	-1.0157559354	 1.4069270201	-0.051496143	-0.335753
N	-1.3064630136	-0.0064665896	 0.0911660241	-0.306733
C	-0.4345212492	-0.969062982	-0.2873325296	 0.383055
O	 0.659849193	-0.7694146318	-0.7860319495	-0.387332
C	-0.8929546807	-2.4175877678	-0.0476216817	 0.012565
C	 0.0697441462	-3.1464515468	 0.8831408057	-0.391198
O	-2.2238500805	-2.4418247637	 0.5048502847	-0.204955
C	-3.1609295567	-3.2070127581	-0.0948689954	 0.16909
O	-4.2882021711	-3.2602830119	 0.2910314116	-0.269369
H	-0.9847058698	 1.9053294597	 0.9234771734	 0.131764
H	-0.0392187024	 1.4956668756	-0.5287378533	 0.17157
H	-1.7678543907	 1.9026811926	-0.6742272026	 0.131847
H	-2.1702292336	-0.3018167832	 0.5170636324	 0.268699
H	-0.9030840776	-2.9022008351	-1.0318259167	 0.118422
H	-0.1851303058	-4.2075948741	 0.9480494757	 0.123713
H	 1.0848595498	-3.0401164044	 0.4964009046	 0.158586
H	 0.0260251447	-2.7152038698	 1.8872104892	 0.136881
H	-2.7649473767	-3.7628855498	-0.9661824896	 0.08915
27.8727	54.3437	87.7818	137.623	142.3248	185.8917	231.043	253.7103	301.1228	355.8446	418.5654	433.7383	572.2471	636.8815	677.9058	755.3361	864.6365	924.9373	1025.1964	1043.8134	1101.2713	1104.984	1132.6619	1155.4265	1178.6053	1187.6925	1271.8472	1322.4798	1355.0806	1399.5931	1431.9716	1441.0803	1487.9577	1493.1033	1498.9399	1499.7545	1574.2938	1781.1324	1868.175	2958.1088	3033.0691	3038.3947	3051.6034	3087.3173	3125.3654	3149.2318	3154.6454	3643.853
CNC(=O)C(C)OC=O	CNC(=O)[C@@H](C)OC=O	
InChI=1S/C5H9NO3/c1-4(9-3-7)5(8)6-2/h3-4H,1-2H3,(H,6,8)	InChI=1S/C5H9NO3/c1-4(9-3-7)5(8)6-2/h3-4H,1-2H3,(H,6,8)/t4-/m1/s1
