17
gdb 71350	3.3733	1.57417	1.25634	2.0132	72.72	-0.253	0.0755	0.3285	1000.0189	0.13546	-421.722644	-421.715471	-421.714527	-421.753974	29.2	
O	 0.0705368227	 1.3087888055	 0.0046087832	-0.470753
C	 0.0706209736	-0.0641831743	 0.0394111044	 0.428313
C	 0.771925752	-0.909481846	 1.1032799045	-0.314486
C	 0.1128114636	-1.932098445	 0.1493188	-0.044557
C	-1.1705997325	-1.0493254522	-0.0483777799	-0.23449
C	-1.0236864287	-1.1218545863	-1.5605893636	 0.493717
C	-1.7791398432	-1.6853472045	-2.669378151	-0.304197
O	-1.6387249314	-0.2544322607	-2.496785127	-0.30554
C	 0.4337529901	-1.0765848323	-1.127635761	-0.234495
H	-0.4408341053	 1.5931783254	-0.7630815615	 0.298324
H	 1.8654600081	-0.8788999378	 1.1125310816	 0.100961
H	 0.3693506602	-0.8534762338	 2.118973867	 0.100962
H	 0.124264176	-3.0179379754	 0.1937667607	 0.085937
H	-2.0598955392	-1.0420383152	 0.5808738111	 0.08149
H	-1.2599716216	-2.0965146966	-3.5340436601	 0.118663
H	-2.7850338356	-2.0706002382	-2.5081386851	 0.118664
H	 1.3515909112	-1.1000079526	-1.7140519533	 0.081489
109.6018	240.8487	276.2964	335.2852	346.1056	420.7844	476.852	506.533	574.5431	684.9274	704.4794	813.9031	842.8381	848.3619	873.7058	884.3749	925.1716	972.6799	981.6633	1028.5376	1044.269	1080.5133	1091.097	1111.9753	1117.0382	1131.2622	1147.1641	1151.108	1190.4023	1206.0208	1218.9586	1251.5798	1332.9315	1393.0446	1466.9471	1519.3766	1554.6841	3047.5783	3082.8479	3107.6492	3125.4496	3127.9376	3154.7791	3168.0686	3789.749
OC12CC3C1C1(CO1)C23	O[C@@]12C[C@H]3[C@@H]1[C@]1(CO1)[C@@H]23	
InChI=1S/C7H8O2/c8-6-1-3-4(6)7(2-9-7)5(3)6/h3-5,8H,1-2H2	InChI=1S/C7H8O2/c8-6-1-3-4(6)7(2-9-7)5(3)6/h3-5,8H,1-2H2/t3-,4-,5+,6-,7+
