18
gdb 56825	2.50023	1.20973	0.95285	5.0901	72.75	-0.2704	0.0158	0.2862	1257.7393	0.145625	-439.069779	-439.059839	-439.058894	-439.105008	35.559	
C	-0.0993651614	 1.5415010985	-0.1115922614	-0.413954
C	 0.0346842819	 0.0372933406	 0.0024468373	-0.081189
C	 1.3746310526	-0.6494731461	-0.1417133983	 0.075802
O	 2.5365692683	 0.1230360457	-0.2342823838	-0.410821
C	 0.6873239079	-0.6359802706	 1.2008483485	-0.08313
C	 1.257664107	 0.1943921294	 2.3377712119	-0.027566
O	 0.2706758938	 0.8907217905	 3.0841759473	-0.413612
C	 2.0703157581	-0.6641738645	 3.2278553334	 0.262346
N	 2.6679793931	-1.3520987352	 3.9384538882	-0.323046
H	 0.8422865774	 2.0494658138	 0.10840796	 0.127774
H	-0.3966351505	 1.8202322001	-1.1281971236	 0.113553
H	-0.8538265819	 1.9241416969	 0.5805738818	 0.137874
H	-0.8085490944	-0.5160188053	-0.4032338655	 0.093085
H	 1.4206002331	-1.6003229557	-0.6709230359	 0.098024
H	 2.5824708894	 0.4956399549	-1.1211694831	 0.296578
H	 0.251693886	-1.5776913883	 1.5233319842	 0.101822
H	 1.9179820271	 0.963103582	 1.9315650129	 0.154761
H	-0.3338752875	 0.2413304234	 3.4614633159	 0.291698
43.0123	106.9506	152.5361	162.8201	194.7479	225.5265	260.2451	289.2782	316.1626	338.1808	504.024	511.8563	547.5014	585.9561	650.304	775.6269	808.8084	885.9943	934.4353	990.993	1016.9027	1043.262	1064.6671	1118.6527	1151.5683	1154.8303	1179.029	1246.7782	1253.3207	1295.9691	1303.9227	1381.2128	1396.0316	1413.8618	1419.5401	1456.2549	1496.329	1504.3779	2354.5628	3042.4541	3105.2196	3106.8847	3109.6855	3124.6843	3137.6535	3149.8574	3801.5676	3807.916
CC1C(O)C1C(O)C#N	C[C@H]1[C@@H](O)[C@H]1[C@@H](O)C#N	
InChI=1S/C6H9NO2/c1-3-5(6(3)9)4(8)2-7/h3-6,8-9H,1H3	InChI=1S/C6H9NO2/c1-3-5(6(3)9)4(8)2-7/h3-6,8-9H,1H3/t3-,4+,5-,6-/m1/s1
