16
gdb 39718	3.57774	1.6885	1.48429	2.937	71.66	-0.2187	-0.0091	0.2096	900.6277	0.1257	-400.671986	-400.665622	-400.664678	-400.702495	26.288	
C	-0.0737517811	 1.5061798239	 0.0138496087	-0.276461
O	 1.1104133191	 0.6828496718	 0.0238368069	-0.280289
C	-0.15297656	 0.0485219887	 0.0126434468	 0.51192
C	-0.4891178568	-0.9780194784	 1.0580749967	-0.168275
C	-1.7097749148	-1.7870450596	 0.7018515842	-0.073139
C	-2.67603949	-1.2538896424	-0.3061738255	-0.083889
C	-1.9909054935	-0.8551914487	-1.3779205916	-0.083986
C	-0.5196653835	-0.993785454	-1.0643088912	-0.180936
N	-0.4303300694	-2.0846098237	 0.0239230203	-0.127314
H	-0.2611457913	 2.060695379	 0.9322162192	 0.117532
H	-0.2431430856	 2.0623600219	-0.9071755843	 0.116235
H	 0.0012769706	-1.0555834804	 2.0231333976	 0.109199
H	-2.0264331606	-2.526118984	 1.4324363117	 0.0988
H	-3.7455047857	-1.209221215	-0.1499751144	 0.110924
H	-2.3799260256	-0.3748999462	-2.2660815121	 0.112619
H	 0.1821914584	-1.1185927931	-1.8875073029	 0.097061
145.0289	247.1202	315.1395	413.29	443.7644	528.4878	617.8321	722.9193	740.2138	756.6336	786.366	800.1022	858.5348	887.3435	894.7264	922.6776	954.5461	959.8122	993.3079	1044.7961	1046.3635	1088.2137	1116.4438	1123.11	1150.8046	1157.1052	1192.6531	1197.9478	1263.3815	1299.5353	1333.023	1372.8177	1450.8617	1538.8171	1658.0067	3082.8235	3132.0083	3151.3891	3169.0265	3170.2602	3212.0546	3236.8051
C1OC11C2C3C=CC1N23	C1O[C@]21[C@H]1[C@H]3C=C[C@@H]2N13	
InChI=1S/C7H7NO/c1-2-5-7(3-9-7)6-4(1)8(5)6/h1-2,4-6H,3H2	InChI=1S/C7H7NO/c1-2-5-7(3-9-7)6-4(1)8(5)6/h1-2,4-6H,3H2/t4-,5+,6-,7+,8?/m1/s1
