24
gdb 8709	2.35945	1.56594	1.2321	1.3198	80.81	-0.2633	0.0684	0.3317	1155.6775	0.221202	-351.411872	-351.40113	-351.400186	-351.447047	39.51	
C	-0.0832173321	 1.541594852	 0.1864949049	-0.40405
C	 0.0370980144	 0.0193577775	 0.0536616867	-0.179162
C	 0.7191841737	-0.5149430715	-1.2321917235	 0.266626
C	 0.7655765936	-2.0535973697	-1.1527194837	-0.419708
C	-0.0057007398	-0.0584490738	-2.523259763	-0.195042
C	-1.4800496876	-0.458241791	-2.6518325439	-0.400288
C	 2.1640467023	 0.0084276988	-1.3282431487	-0.091557
O	 2.868415268	-0.3242332547	-0.1384003572	-0.428346
H	 0.8983106095	 2.0250667738	 0.2064394276	 0.11896
H	-0.6615908783	 1.9878817629	-0.629001048	 0.112103
H	-0.5890824388	 1.8001051677	 1.1223541903	 0.11019
H	 0.6020854817	-0.3628219587	 0.909477706	 0.111887
H	-0.9616924906	-0.427085873	 0.1247991198	 0.087391
H	-0.2280997924	-2.4800062889	-0.9858378125	 0.107271
H	 1.1637597852	-2.48392516	-2.0791871659	 0.098657
H	 1.4114406819	-2.3700777822	-0.3299638316	 0.129318
H	 0.0723161057	 1.0324637755	-2.6114343131	 0.091763
H	 0.5444238938	-0.4651313805	-3.3826814835	 0.08781
H	-1.6143559561	-1.5435895806	-2.6175297113	 0.118456
H	-2.0935167357	-0.0219506434	-1.8575037344	 0.119664
H	-1.8855421043	-0.108559661	-3.6065830074	 0.110714
H	 2.6483155636	-0.4434462574	-2.2089882787	 0.079252
H	 2.1560863086	 1.098029294	-1.4841172686	 0.081523
H	 3.7768801937	-0.025614796	-0.2334088102	 0.286569
54.7918	97.5435	138.5004	192.6596	216.6862	230.1458	238.8924	273.7165	289.2578	316.2733	335.5706	381.3435	405.8411	481.791	543.2407	703.9646	766.1891	794.2682	880.0923	907.1707	950.3686	1010.4564	1017.1321	1020.1151	1047.0483	1070.1541	1100.5297	1109.7878	1189.2519	1209.0461	1221.269	1274.525	1285.2556	1323.1999	1332.3628	1378.0957	1386.2989	1405.8696	1409.9064	1414.9522	1451.9215	1482.3051	1483.8805	1494.4298	1500.7625	1502.3501	1507.2106	1512.6953	1514.7559	1523.7533	2965.1999	2997.2251	3012.3073	3029.9031	3035.3612	3036.3113	3041.6539	3046.6401	3077.1018	3095.5496	3099.3816	3102.5703	3107.5007	3111.3556	3121.9733	3838.7321
CCC(C)(CC)CO	CCC(C)(CC)CO	
InChI=1S/C7H16O/c1-4-7(3,5-2)6-8/h8H,4-6H2,1-3H3	InChI=1S/C7H16O/c1-4-7(3,5-2)6-8/h8H,4-6H2,1-3H3
