21
gdb 63850	2.21495	1.58111	1.25522	0.7081	89.89	-0.2291	0.0403	0.2695	1132.674	0.180559	-349.905902	-349.896638	-349.895694	-349.938999	36.784	
C	-0.0859350331	 1.5624605429	 0.0708731934	-0.453314
C	 0.0184866403	 0.0399385914	 0.0085689997	 0.266417
C	-1.3457096019	-0.5813090183	-0.2921423523	-0.446456
C	 1.1375077569	-0.5655217791	-0.9166513272	-0.280358
C	 1.7520632075	-1.2848529366	 0.2857591865	-0.103186
C	 2.1657678875	-0.2911790667	 1.3216659223	-0.335836
C	 0.6975605334	-0.6570736316	 1.2278719966	 0.191729
C	-0.0006322333	-1.2361155468	 2.3247770641	 0.189839
C	-0.6108539166	-1.7143979134	 3.2468600149	-0.4349
H	 0.8768090663	 2.0360360227	 0.282671878	 0.111186
H	-0.4482449649	 1.9627170407	-0.883008731	 0.112854
H	-0.7905214017	 1.871434852	 0.8509925683	 0.120712
H	-1.7236574722	-0.2228520903	-1.2560521354	 0.108147
H	-1.2846997868	-1.6732561798	-0.3329901988	 0.117529
H	-2.0756928593	-0.3193880683	 0.4805824949	 0.122421
H	 0.726850623	-1.2382312104	-1.6725328121	 0.10264
H	 1.7977740205	 0.1547275445	-1.4118225197	 0.094306
H	 2.1114261908	-2.3063475661	 0.2962583255	 0.099164
H	 2.6676998591	-0.6955342194	 2.1939147281	 0.125671
H	 2.5048441721	 0.6997400045	 1.0302583971	 0.109643
H	-1.1446068276	-2.1400632719	 4.0597169574	 0.181794
109.4595	140.7801	200.1794	221.6795	261.2875	281.344	340.502	358.5328	425.4615	434.6778	487.8413	550.7438	560.3823	607.7267	627.3818	648.2683	802.8314	830.6095	867.675	873.8066	921.8996	954.2287	977.3964	993.1401	1018.3394	1036.6579	1046.0527	1087.9194	1136.6487	1171.7178	1216.6964	1236.7121	1252.7585	1280.5995	1301.2216	1364.8947	1404.183	1421.8769	1476.9714	1481.5256	1487.3824	1497.6447	1504.0616	1507.1114	2224.3051	3025.826	3030.8637	3043.2677	3089.7349	3099.2774	3102.1606	3105.8802	3108.7125	3114.6312	3188.762	3210.4621	3503.4734
CC1(C)CC2CC12C#C	CC1(C)C[C@H]2C[C@@]12C#C	
InChI=1S/C9H12/c1-4-9-6-7(9)5-8(9,2)3/h1,7H,5-6H2,2-3H3	InChI=1S/C9H12/c1-4-9-6-7(9)5-8(9,2)3/h1,7H,5-6H2,2-3H3/t7-,9+/m0/s1
