16
gdb 54804	2.49658	1.66436	1.12929	1.4328	69.37	-0.2425	-0.0245	0.218	1052.9421	0.124345	-437.910841	-437.902761	-437.901817	-437.94397	30.385	
N	-0.0252765821	 1.2481733621	 0.3365209661	-0.522955
C	 0.141222064	-0.0335533819	-0.103197867	 0.378737
O	 1.1854849137	-0.4800770602	-0.5327195361	-0.361822
C	-1.1443006248	-0.8472564737	-0.0181026962	-0.247902
C	-1.0803545328	-2.376486902	 0.0564213163	-0.043896
C	-0.3814746768	-2.791591593	 1.2940511795	-0.273477
C	-1.8469163838	-2.3658038261	 1.4135914488	-0.174977
C	-1.9161822198	-0.877778838	 1.3309241374	 0.408782
O	-2.4460150893	-0.0039324352	 1.9629216973	-0.337703
H	 0.7959282712	 1.8268379907	 0.4157254084	 0.260791
H	-0.8395801744	 1.4880602983	 0.8835716901	 0.274684
H	-1.8449278306	-0.491167287	-0.7822390735	 0.134654
H	-1.2623064514	-3.0423749381	-0.7751226889	 0.113762
H	-0.2355832401	-3.8578502924	 1.4318209147	 0.132348
H	 0.4096135838	-2.1783244338	 1.7125455404	 0.141661
H	-2.5978238369	-3.0338872698	 1.8147150528	 0.117313
57.802	119.7772	150.3809	199.4288	351.2786	410.8277	439.0156	462.3259	561.0203	584.5123	633.2348	674.8461	707.6735	763.5276	850.6881	860.6648	905.7069	958.0322	966.823	1004.721	1038.0034	1063.7176	1086.7152	1112.7408	1128.5576	1154.769	1182.9813	1264.0283	1299.2991	1334.2013	1360.6959	1499.9803	1627.7668	1803.7176	1864.3606	3058.128	3133.7048	3204.9485	3215.0362	3224.8418	3560.8014	3699.8036
NC(=O)C1C2CC2C1=O	NC(=O)[C@H]1[C@H]2C[C@H]2C1=O	
InChI=1S/C6H7NO2/c7-6(9)4-2-1-3(2)5(4)8/h2-4H,1H2,(H2,7,9)	InChI=1S/C6H7NO2/c7-6(9)4-2-1-3(2)5(4)8/h2-4H,1H2,(H2,7,9)/t2-,3+,4-/m0/s1
