13
gdb 131114	3.36051	1.20055	0.91297	2.7148	62.97	-0.2832	-0.0369	0.2463	1163.8828	0.089496	-452.732424	-452.724665	-452.723721	-452.765902	27.442	
O	 0.6126502522	 1.564247188	-0.2126767687	-0.396354
C	 0.1594236935	 0.2439866573	 0.0157449702	-0.138437
C	 0.3441550698	-0.612473845	-1.178791002	 0.269865
N	 0.5049127149	-1.2784243361	-2.1087377937	-0.31483
C	 0.7982214612	-0.3867348725	 1.2264642799	 0.11271
C	 1.2362143563	 0.2530473475	 2.3448448409	-0.003327
O	 1.7318181702	-0.6261067113	 3.2216634676	-0.156195
N	 1.6283658573	-1.9083722632	 2.6906823173	-0.125411
C	 1.0775159265	-1.7538649916	 1.5136625007	-0.043516
H	 1.5658586791	 1.5306282176	-0.3612778844	 0.298777
H	-0.9218928849	 0.3463539047	 0.1703280686	 0.164112
H	 1.2599809766	 1.2908283471	 2.6369949139	 0.172223
H	 0.8995999471	-2.6201041124	 0.8920913096	 0.160383
36.382	113.9029	176.1166	220.8035	299.8629	370.7991	426.4662	487.0837	594.5735	615.8073	651.7097	781.113	870.0871	894.6759	920.4097	923.279	938.0868	1031.9009	1071.6996	1154.9457	1205.5436	1262.8014	1273.0193	1323.4281	1385.0891	1421.832	1476.7145	1639.5995	2360.3848	3041.9627	3249.0084	3275.869	3789.1949
OC(C#N)C1=CON=C1	O[C@@H](C#N)c1conc1	
InChI=1S/C5H4N2O2/c6-1-5(8)4-2-7-9-3-4/h2-3,5,8H	InChI=1S/C5H4N2O2/c6-1-5(8)4-2-7-9-3-4/h2-3,5,8H/t5-/m0/s1
