21
gdb 79525	2.92603	1.68782	1.60203	1.8614	79.75	-0.2311	0.0817	0.3127	968.4289	0.186435	-387.100852	-387.093986	-387.093042	-387.131638	29.404	
C	-0.1526855698	 1.5638240536	 0.0324265685	-0.42823
C	 0.0292166639	 0.0461320168	 0.0367955308	 0.035213
C	 0.9105231552	-0.5265721696	-1.0768390675	-0.068223
C	 2.3999300271	-0.3649426517	-0.6315240344	 0.104751
C	 2.2934510309	-0.0609957602	 0.8778711876	-0.234187
C	 0.865774446	-0.5771993595	 1.1894514098	-0.040559
C	 0.821813242	-2.0756656117	 0.7934619957	-0.234886
C	 1.2136447722	-2.0066944391	-0.6995375269	 0.096332
O	 2.6404877631	-1.7830397268	-0.8138568929	-0.303974
H	 0.7987621307	 2.1010828052	-0.0199438378	 0.118151
H	-0.7494090697	 1.8768091056	-0.8310023221	 0.115329
H	-0.6757268476	 1.900160487	 0.9341398859	 0.114599
H	-0.9634853269	-0.4214727113	 0.010305817	 0.066501
H	 0.6706224192	-0.3093109005	-2.1161843391	 0.066775
H	 3.1054507824	 0.24863812	-1.1953490849	 0.071375
H	 3.0773577598	-0.5862571741	 1.4297200458	 0.104768
H	 2.3892026645	 1.0088493313	 1.0865850937	 0.094883
H	 0.5127473436	-0.3630989666	 2.2004160008	 0.05586
H	 1.5206081601	-2.7060331266	 1.3497926248	 0.102899
H	-0.1887939772	-2.4804842026	 0.9209168055	 0.091236
H	 0.8743954805	-2.8390019493	-1.3197886904	 0.071387
181.2641	221.5571	278.7256	353.7955	398.5481	485.0644	500.1793	603.7309	645.9371	732.4868	822.3681	844.5018	849.0178	874.1471	884.5028	896.3744	926.6896	936.5723	968.5835	985.2614	1005.3424	1015.1628	1044.2715	1074.5591	1090.1375	1100.4976	1138.1791	1149.5381	1161.6687	1222.1099	1241.1356	1258.0452	1271.6203	1284.6189	1303.0159	1312.8486	1343.1406	1348.4208	1360.3512	1388.3484	1411.1932	1472.1508	1484.9421	1499.0738	1507.4558	3019.8661	3034.7014	3039.3577	3054.3334	3086.1054	3087.0373	3091.3672	3094.6499	3100.5358	3103.8875	3112.6209	3133.7847
CC1C2C3CC1CC2O3	C[C@H]1[C@H]2[C@H]3C[C@@H]1C[C@@H]2O3	
InChI=1S/C8H12O/c1-4-5-2-6-8(4)7(3-5)9-6/h4-8H,2-3H2,1H3	InChI=1S/C8H12O/c1-4-5-2-6-8(4)7(3-5)9-6/h4-8H,2-3H2,1H3/t4-,5-,6-,7+,8+/m1/s1
