15
gdb 131880	5.69988	0.79274	0.7283	2.6262	63.84	-0.2758	-0.0435	0.2323	1477.222	0.112092	-491.023219	-491.015041	-491.014097	-491.057312	28.833	
O	-0.0238362812	 1.4294532072	 0.0133489863	-0.414533
C	-0.002065369	 0.0174628015	 0.0000722748	-0.071878
C	-1.3957164857	-0.5802971013	 0.035434719	-0.086936
O	-2.0467771985	-0.1635551946	-1.1860439811	-0.282063
C	-3.314413602	-0.5364645521	-1.3347331536	 0.416674
N	-3.9983074275	-1.2576499528	-0.4853296265	-0.175222
O	-5.2436401543	-1.3900174842	-1.0583891931	-0.16548
N	-5.3132028626	-0.7478934735	-2.2598919719	-0.047947
C	-4.1417305742	-0.2161442033	-2.4523141217	-0.115587
H	-0.5340374533	 1.7107073394	-0.7537410489	 0.292104
H	 0.5384529586	-0.3752754468	-0.8752086061	 0.102775
H	 0.5387370912	-0.301453913	 0.8967534245	 0.124035
H	-1.3716083791	-1.6749052034	 0.0782995668	 0.128868
H	-1.968632963	-0.2033215317	 0.8887602789	 0.139953
H	-3.9116062994	 0.3572807586	-3.3357508774	 0.155237
47.9788	75.0023	137.2701	175.0037	287.8702	355.6746	377.3857	455.3196	489.8563	625.2135	724.9591	750.4021	878.7736	886.4909	902.7255	913.541	922.2945	1023.8813	1039.0711	1077.6408	1098.4239	1126.1362	1219.7921	1233.0249	1266.4565	1383.1149	1393.8495	1429.478	1452.7295	1489.3371	1494.5517	1520.2194	1633.8383	2990.9952	3043.7498	3087.3199	3100.755	3278.3472	3814.3886
OCCOC1=NON=C1	OCCOc1nonc1	
InChI=1S/C4H6N2O3/c7-1-2-8-4-3-5-9-6-4/h3,7H,1-2H2	InChI=1S/C4H6N2O3/c7-1-2-8-4-3-5-9-6-4/h3,7H,1-2H2
