19
gdb 41232	3.28963	1.82145	1.7178	1.8653	76.75	-0.2414	0.0775	0.3189	879.8784	0.163468	-385.839954	-385.833977	-385.833032	-385.869791	26.777	
C	 0.049298254	 1.5024580777	-0.2172846436	-0.179562
O	 1.4726341989	 1.4491116883	 0.1430711164	-0.366386
C	 1.1880765479	 0.2600538368	 0.9106918369	 0.427078
C	 1.825851049	-1.1285697685	 1.0373462808	-0.311498
C	 0.517118803	-1.7615051179	 1.5955120778	-0.057236
C	-0.1771533993	-0.7205274843	 2.4555655072	-0.052384
C	 0.6821822475	 0.5256469229	 2.3566968146	-0.280263
C	-0.7222758971	-0.9848742308	 1.0666801069	-0.131305
C	-0.0673073048	-0.0201876479	 0.1002276004	-0.011037
H	-0.5033830087	 2.1867053608	 0.434624396	 0.108437
H	-0.0825807377	 1.794464533	-1.2619593135	 0.110026
H	 2.1352377343	-1.5502319786	 0.0777255993	 0.105143
H	 2.6497770501	-1.2081729869	 1.7531298258	 0.099395
H	 0.4547292131	-2.8184320225	 1.8180332202	 0.086783
H	-0.7301774975	-0.990825484	 3.3460498863	 0.083237
H	 1.5064420698	 0.5482079024	 3.0769788741	 0.097813
H	 0.1145156047	 1.4543362496	 2.4476016212	 0.099856
H	-1.6573666694	-1.5047775207	 0.9033871539	 0.083521
H	 0.1953874723	-0.5446629195	-0.8240992707	 0.08838
285.6854	329.946	398.0905	455.4989	479.8104	546.2641	643.7983	656.4926	725.0085	784.9638	794.7525	827.665	848.8818	902.1643	926.9249	931.8806	953.0863	969.9601	987.9181	1015.5881	1034.855	1058.9325	1067.5797	1077.4877	1106.3803	1117.507	1146.9506	1160.1927	1167.038	1230.1443	1240.1963	1266.3343	1270.5571	1309.2891	1316.6382	1330.8898	1363.6198	1401.5981	1486.7962	1504.8093	1520.3802	3041.8072	3049.051	3051.3111	3057.0301	3102.3699	3108.2244	3110.4551	3188.9723	3194.7466	3207.7454
C1OC23CC4C(C2)C4C13	C1O[C@@]23C[C@H]4[C@@H](C2)[C@H]4[C@@H]13	
InChI=1S/C8H10O/c1-4-5-2-8(1)6(3-9-8)7(4)5/h4-7H,1-3H2	InChI=1S/C8H10O/c1-4-5-2-8(1)6(3-9-8)7(4)5/h4-7H,1-3H2/t4-,5+,6-,7-,8-/m1/s1
