17
gdb 114581	2.62379	1.31438	1.00958	2.8022	77.06	-0.2457	0.0184	0.2641	1208.8948	0.132924	-421.735542	-421.726716	-421.725772	-421.769257	32.562	
C	-0.2437132897	 1.3366749181	 0.0642461977	-0.236796
O	 0.3495824239	 0.0681665746	-0.1137023407	-0.238355
C	 0.7558976959	-0.5241592142	 1.0775242777	 0.048102
C	-0.3124627035	-1.2010125981	 2.0245297903	-0.292447
C	 0.4573246056	-2.5112955029	 1.843641911	-0.066571
O	 0.4250385283	-2.8207021571	 0.4560043438	-0.27962
C	 1.4317433701	-1.8947228894	 0.9024203196	 0.305911
C	 2.8012187449	-2.1609709996	 0.6277937088	 0.194259
C	 3.9687775279	-2.3367527058	 0.4003467797	-0.411109
H	 0.4457431284	 2.0413821911	 0.5548668982	 0.107012
H	-0.4932018366	 1.7175063007	-0.9283618702	 0.134333
H	-1.1643608263	 1.279201828	 0.6638026602	 0.110272
H	 1.4064467714	 0.1473069408	 1.658646387	 0.081108
H	-0.3037324494	-0.7990819149	 3.0395291263	 0.109371
H	-1.3318345148	-1.2334190076	 1.6347588938	 0.121693
H	 0.6123438852	-3.3265024691	 2.5404082555	 0.119594
H	 4.9971460889	-2.5041967647	 0.1946089513	 0.193244
79.921	124.7616	145.8859	165.3362	195.2458	289.6723	367.7173	411.941	481.6595	543.2795	557.6995	605.5693	647.3501	670.4804	743.834	826.2892	875.8768	928.4618	949.1925	1012.3497	1025.31	1061.4106	1135.6504	1152.4846	1179.0851	1184.6869	1199.8242	1240.553	1264.6278	1273.9359	1376.7121	1418.0093	1465.9797	1484.101	1488.3647	1507.4925	2242.1521	2976.2518	2990.9926	3026.5145	3074.1205	3122.6102	3136.3819	3195.5839	3501.6969
COC1CC2OC12C#C	CO[C@H]1C[C@H]2O[C@@]12C#C	
InChI=1S/C7H8O2/c1-3-7-5(8-2)4-6(7)9-7/h1,5-6H,4H2,2H3	InChI=1S/C7H8O2/c1-3-7-5(8-2)4-6(7)9-7/h1,5-6H,4H2,2H3/t5-,6+,7-/m0/s1
