19
gdb 85677	2.32505	1.33744	1.13616	2.3658	78.01	-0.2458	0.0213	0.2671	1183.1984	0.155335	-422.97807	-422.968206	-422.967262	-423.012382	37.016	
C	-0.9860634309	 1.1850105214	-0.0036145119	-0.420091
C	-0.001098301	 0.0386191485	-0.0527006043	 0.155029
O	 1.2204085057	 0.372700017	-0.7591264075	-0.313587
C	 2.0234051289	-0.3577236443	 0.1969878845	-0.087734
C	 3.2523709176	 0.311319825	 0.5733297779	 0.311507
C	 4.272641521	 0.8491002593	 0.9142254958	-0.435493
C	 0.8055268783	-0.4091644618	 1.1927450043	 0.28059
C	 0.8823775456	 0.5736680446	 2.3478935799	-0.45767
O	 0.420452107	-1.6948666106	 1.6153606928	-0.465568
H	-0.5455692505	 2.0776655102	 0.4474203095	 0.123185
H	-1.3060416882	 1.4403355449	-1.0186235207	 0.132232
H	-1.8750781879	 0.8987427904	 0.5680396526	 0.123675
H	-0.4708553803	-0.8485141626	-0.501944785	 0.083489
H	 2.2380927239	-1.3731644861	-0.1656969054	 0.102003
H	 5.1764368285	 1.3274482333	 1.2014391584	 0.199804
H	 1.176986045	 1.5686662085	 2.0077661235	 0.14351
H	-0.0850411295	 0.6412068569	 2.8541238317	 0.124802
H	 1.636923796	 0.2464837143	 3.072964244	 0.117999
H	 0.847229881	-1.882233699	 2.4581404697	 0.282319
58.6667	136.6513	183.1012	204.9732	233.7569	264.0649	284.3258	285.1832	337.6224	383.1483	413.4358	493.6767	536.3644	557.4528	619.149	663.2108	673.1754	772.4578	861.8389	895.8254	957.8098	977.0827	1026.5346	1041.549	1103.3258	1110.4868	1166.6703	1175.9458	1189.7992	1239.7233	1319.2899	1343.7082	1385.2075	1399.0532	1411.1582	1427.0136	1476.7516	1484.9333	1495.916	1504.0204	2231.1706	2998.2612	3004.4543	3034.2964	3041.5219	3101.8378	3109.6376	3124.0779	3134.23	3501.4138	3809.1909
CC1OC(C#C)C1(C)O	C[C@H]1O[C@@H](C#C)[C@]1(C)O	
InChI=1S/C7H10O2/c1-4-6-7(3,8)5(2)9-6/h1,5-6,8H,2-3H3	InChI=1S/C7H10O2/c1-4-6-7(3,8)5(2)9-6/h1,5-6,8H,2-3H3/t5-,6+,7-/m1/s1
