22
gdb 110585	3.05186	1.33972	1.10142	1.0145	87.26	-0.2069	0.0928	0.2997	1214.1645	0.193488	-367.125003	-367.116299	-367.115355	-367.158066	34.197	
C	-0.1259927423	 1.6166663664	 0.0648219912	-0.378918
C	-0.1141858161	 0.0895341786	 0.0163691818	-0.126158
N	 0.6740217318	-0.4603397129	 1.1197030071	-0.152582
C	 2.1535207632	-0.5236179822	 0.9130086432	-0.008361
C	 2.2909056045	-1.7321870939	 1.8835575328	-0.0979
C	 3.1464026997	-2.5352455902	 0.886142327	-0.283959
C	 2.147319031	-1.789284513	-0.0192993834	-0.11374
C	 0.98202698	-1.9284147157	 1.0468761228	 0.384437
C	-0.0607197789	-2.9998022363	 1.1721897443	-0.53059
H	 0.8804759435	 2.0255090142	-0.0751028569	 0.113243
H	-0.7639478173	 2.0271556919	-0.7240938596	 0.108372
H	-0.4975526903	 1.964380924	 1.0329178395	 0.124204
H	-1.139306714	-0.2859659413	 0.1266033054	 0.095305
H	 0.2407853111	-0.2470339938	-0.9746379461	 0.07404
H	 2.7936586186	 0.3577237877	 0.8504963887	 0.07661
H	 2.3429993423	-1.6700752165	 2.9707128273	 0.075376
H	 4.1975737684	-2.244342012	 0.7984452285	 0.093273
H	 3.0580981743	-3.6252891202	 0.9256088392	 0.093254
H	 2.0676882902	-1.8226142894	-1.1061440195	 0.073579
H	 0.4038096062	-3.9913705451	 1.1689973939	 0.125569
H	-0.6189409833	-2.884213027	 2.1069091441	 0.130992
H	-0.7739935725	-2.9614040235	 0.3419079287	 0.123954
83.4923	163.7352	187.2994	209.6552	241.2893	259.5198	324.3354	351.2028	510.015	542.0332	631.4051	724.3103	748.0902	805.6917	818.1843	837.6996	852.0643	885.1918	911.879	947.0269	967.8161	979.8673	1019.1435	1057.3226	1082.8703	1099.5693	1130.9638	1132.9582	1141.9208	1151.8832	1175.0872	1183.1489	1196.4239	1245.4455	1260.7355	1280.7246	1311.0115	1361.2344	1387.1214	1407.2472	1410.7808	1480.1114	1489.5739	1491.7926	1493.7951	1511.2388	1512.6592	2937.6087	3030.9557	3035.6027	3038.4974	3042.9561	3096.1354	3097.8076	3098.6461	3103.2129	3105.7562	3110.4397	3117.0502	3120.1606
CCN1C2C3CC2C13C	CCN1[C@H]2[C@@H]3C[C@H]2[C@]13C	
InChI=1S/C8H13N/c1-3-9-7-5-4-6(7)8(5,9)2/h5-7H,3-4H2,1-2H3	InChI=1S/C8H13N/c1-3-9-7-5-4-6(7)8(5,9)2/h5-7H,3-4H2,1-2H3/t5-,6+,7-,8+
