20
gdb 58539	2.11514	1.42273	1.38501	1.3344	75.18	-0.2649	0.017	0.2819	1116.9246	0.169197	-440.286	-440.276244	-440.2753	-440.320311	36.248	
C	 0.1439991847	 1.5393450604	 0.0000299199	-0.418239
C	 0.004067607	 0.0090299102	-0.0169078223	-0.020572
C	-1.4708591668	-0.3972828839	 0.121138738	-0.415332
C	 0.6778832622	-0.5815239892	-1.2708024444	 0.277339
O	 2.0230535398	-0.1616152743	-1.4014143144	-0.479664
C	 0.5569413303	-2.105443218	-1.5052179143	-0.123774
O	-0.2524478949	-1.8624149009	-2.7055704394	-0.256929
C	-0.1092857238	-0.5032970546	-2.5772361659	 0.39136
N	-0.4661546843	 0.4453958977	-3.3170484173	-0.560553
H	 1.1943025732	 1.8419654094	 0.0100135737	 0.115228
H	-0.3404917839	 1.9839190738	-0.8757128066	 0.145447
H	-0.3282502343	 1.9539613421	 0.895671878	 0.113805
H	 0.5638817719	-0.3968545107	 0.8371852273	 0.08307
H	-2.0678470659	 0.0091669082	-0.7018184573	 0.136133
H	-1.6119750856	-1.4819288385	 0.137503246	 0.115468
H	-1.8807201043	-0.0013675425	 1.055058274	 0.117683
H	 2.015625975	 0.7010863019	-1.8310580496	 0.297174
H	 1.5046138005	-2.5809661372	-1.7622168051	 0.131886
H	 0.0019856293	-2.6921772996	-0.7722642637	 0.120144
H	-0.94011008	 0.1154548556	-4.1598749465	 0.230323
81.5243	102.3037	138.2549	207.6033	221.3275	248.0611	276.7617	302.4961	363.2546	405.651	416.7782	435.6045	543.7752	664.293	710.4238	767.1311	862.7497	877.9816	933.206	936.0531	940.7581	969.3371	973.4649	1023.9725	1083.5013	1124.1501	1153.4561	1183.3718	1205.2981	1225.8737	1249.4744	1325.0327	1340.3614	1372.9969	1384.2353	1400.8501	1422.908	1491.4407	1493.5135	1501.4865	1515.3035	1521.8439	1818.2748	3011.8054	3038.2171	3041.9551	3081.7926	3106.6316	3110.9074	3112.2041	3118.5203	3149.0958	3471.8433	3809.6806
CC(C)C1(O)COC1=N	CC(C)[C@@]1(O)CO[C]1[NH]	
InChI=1S/C6H11NO2/c1-4(2)6(8)3-9-5(6)7/h4,7-8H,3H2,1-2H3	InChI=1S/C6H11NO2/c1-4(2)6(8)3-9-5(6)7/h4,7-8H,3H2,1-2H3/t6-/m0/s1
