14
gdb 130631	5.08387	1.27829	1.02794	1.976	68.7	-0.2119	0.0003	0.2122	1058.8268	0.104346	-432.915346	-432.908427	-432.907483	-432.946787	26.421	
O	 0.0409555179	-0.0004239474	 0.0027383322	-0.348562
C	-0.0245725322	 1.2009831858	 0.0102994292	 0.416334
C	-1.2991168208	 2.094763439	 0.032833673	-0.507909
C	-0.7291108639	 3.4820612656	 0.0324063575	 0.175711
C	 0.640805322	 3.3756551519	 0.0129061389	 0.484816
N	 1.1710800137	 4.6087926604	 0.0121834181	-0.346904
N	 0.1837159143	 5.5613963707	 0.0308689989	-0.238317
C	-0.9578216001	 4.871738705	 0.0429317735	-0.141972
N	 1.0841411362	 2.0632045349	-0.0002489137	-0.454011
H	-1.9118014729	 1.8438626751	-0.8398333467	 0.151436
H	-1.8873324696	 1.8343674017	 0.9194493446	 0.151436
H	 2.1315627385	 4.9031759116	 0.000637804	 0.27526
H	-1.89252381	 5.4128685688	 0.0587088116	 0.115267
H	 2.0303972271	 1.721987847	-0.0155246713	 0.267416
89.9555	193.717	274.1121	349.7441	384.0988	431.2834	544.6507	547.0835	565.649	661.258	716.6699	731.9257	827.8593	844.3973	888.4413	962.8278	974.6667	1057.3163	1117.1795	1157.1783	1216.1034	1238.7434	1246.5606	1275.9283	1363.8014	1417.0697	1445.0538	1463.9961	1604.2762	1619.7851	1853.0704	3050.6128	3083.6331	3246.0827	3669.8318	3687.9583
O=C1CC2=C(NN=C2)N1	O=C1Cc2c([nH]nc2)N1	
InChI=1S/C5H5N3O/c9-4-1-3-2-6-8-5(3)7-4/h2H,1H2,(H2,6,7,8,9)	InChI=1S/C5H5N3O/c9-4-1-3-2-6-8-5(3)7-4/h2H,1H2,(H2,6,7,8,9)
