21
gdb 42035	3.13745	1.41315	1.04187	2.3503	77.91	-0.2439	0.0836	0.3275	1166.8851	0.186283	-424.235284	-424.227703	-424.226759	-424.267306	30.235	
C	 0.0163880601	 1.5621568998	 0.0968828976	-0.107689
O	 1.3962105987	 1.8943883692	-0.1398695287	-0.274961
C	 2.2248101733	 0.738235024	 0.0274238131	-0.112849
C	 1.3211772709	-0.2841570579	 0.7051669613	 0.125556
O	 1.6851829777	-1.6309272813	 0.5310468017	-0.262686
C	 0.7337433713	-2.4716795345	 1.1817427752	-0.072984
C	-0.7064173626	-2.2504429293	 0.6909538998	-0.205376
C	-1.1253546714	-0.7653886906	 0.7612597179	-0.259013
C	-0.033325024	 0.0403662857	 0.0670928079	 0.024035
H	-0.3011860413	 1.9600667085	 1.0735147152	 0.089981
H	-0.5921691328	 2.0397164436	-0.6779195681	 0.104246
H	 2.5674729328	 0.3557259907	-0.9450742055	 0.101318
H	 3.1009499089	 1.0163034994	 0.621444063	 0.104011
H	 1.2631408041	-0.0555101831	 1.7858913498	 0.063913
H	 1.055450722	-3.4985870801	 0.9888919685	 0.10854
H	 0.7828146688	-2.3012739323	 2.27105524	 0.088248
H	-0.7815493585	-2.5950282637	-0.3475138958	 0.107631
H	-1.3809056663	-2.8755465935	 1.2867945331	 0.09815
H	-2.1076146706	-0.6232674232	 0.2977955572	 0.098498
H	-1.2155222825	-0.4468210249	 1.8088807307	 0.097154
H	 0.0303386916	-0.2851582265	-0.9807924137	 0.084276
112.4267	167.9182	202.5519	326.9624	337.0622	356.4945	427.9748	496.814	524.1488	610.5263	668.8056	820.961	855.5144	889.7765	892.9076	916.5389	962.8156	974.9427	1027.9258	1053.5023	1070.5006	1106.4062	1114.5308	1138.7259	1164.6974	1170.5763	1189.2043	1209.3185	1240.7922	1242.8458	1302.6823	1315.0158	1328.633	1342.9704	1361.7975	1371.321	1373.7553	1402.9683	1419.0904	1433.6092	1479.4464	1493.253	1501.6107	1523.5759	1532.7191	2927.0778	2960.9725	2979.9563	3002.0187	3010.5352	3021.1519	3032.0241	3064.4526	3068.7556	3073.7651	3079.0653	3092.5519
C1OCC2OCCCC12	C1OC[C@@H]2OCCC[C@@H]12	
InChI=1S/C7H12O2/c1-2-6-4-8-5-7(6)9-3-1/h6-7H,1-5H2	InChI=1S/C7H12O2/c1-2-6-4-8-5-7(6)9-3-1/h6-7H,1-5H2/t6-,7-/m0/s1
