18
gdb 46887	2.92106	1.51782	1.18968	4.333	79.16	-0.2371	-0.0291	0.208	1061.2639	0.150973	-401.977301	-401.969822	-401.968878	-402.009228	29.704	
O	-0.0172031742	-0.0174762575	 0.4862299029	-0.376758
C	-0.0620497225	 1.1447667732	 0.1129675156	 0.351887
N	-1.2510903945	 1.8365494841	 0.1037160354	-0.320995
C	-1.5494079698	 3.0415836753	-0.6520844091	-0.195764
C	-0.8876366492	 4.3059569375	-0.127291898	-0.018593
C	-0.3013419624	 4.3760849626	 1.2441444032	-0.293141
C	 0.6244173852	 4.3324418354	 0.0304778728	-0.063731
C	 1.4625668254	 3.1626378041	-0.3010518457	-0.057632
C	 1.1764641286	 1.8515068156	-0.3028198507	-0.163471
H	-2.0304228504	 1.2583685011	 0.3801975601	 0.245473
H	-1.2822816215	 2.9156754814	-1.7113586097	 0.118361
H	-2.6349076785	 3.1720632313	-0.6143053421	 0.117733
H	-1.3274303341	 5.2148602279	-0.5290608849	 0.09326
H	-0.356539848	 5.310995736	 1.7900890135	 0.11799
H	-0.3478506639	 3.4837565756	 1.8564744677	 0.138722
H	 1.0982728454	 5.2784992282	-0.2087736826	 0.090493
H	 2.4804225593	 3.4241856547	-0.5847809023	 0.103458
H	 1.969258645	 1.1488724334	-0.5372829663	 0.11271
81.0605	192.9026	242.9244	296.8041	340.1422	413.9138	476.9743	489.5062	581.4008	666.1067	699.0914	746.1499	756.9512	787.4511	828.9536	856.3438	884.8275	934.3648	971.9768	1022.7478	1041.7798	1072.6913	1079.8744	1129.8495	1141.9226	1162.2664	1212.6145	1263.5594	1297.5627	1348.0332	1370.9692	1408.9258	1420.6095	1440.3928	1462.0748	1488.4603	1499.0869	1685.14	1760.3421	2999.6448	3080.0206	3136.288	3141.4214	3145.4652	3163.8781	3190.8319	3236.7711	3618.4138
O=C1NCC2CC2C=C1	O=C1NC[C@H]2C[C@H]2C=C1	
InChI=1S/C7H9NO/c9-7-2-1-5-3-6(5)4-8-7/h1-2,5-6H,3-4H2,(H,8,9)	InChI=1S/C7H9NO/c9-7-2-1-5-3-6(5)4-8-7/h1-2,5-6H,3-4H2,(H,8,9)/t5-,6-/m1/s1
