21
gdb 66093	2.49434	1.4744	1.30156	0.5402	87.13	-0.2541	0.0601	0.3142	1111.9424	0.182682	-349.928387	-349.919726	-349.918782	-349.961002	34.887	
C	-0.0258291097	 1.5459605564	-0.0042318298	-0.429264
C	 0.0118622246	 0.0057317207	-0.0025823353	 0.087066
C	 0.8211789019	-0.5698618957	-1.2103245648	-0.258849
C	 1.3601158396	-1.9358603141	-0.7370340184	-0.222573
C	 1.5552912683	-1.7753943647	 0.7647675508	-0.019407
C	 2.2476826272	-0.5221886557	 1.2432394162	-0.318907
C	 0.7396479617	-0.5875491876	 1.2168124647	-0.026239
C	-1.35741485	-0.520707628	-0.0260200274	 0.346363
C	-2.4816834721	-0.9479151439	-0.0431437242	-0.503706
H	 0.9903398401	 1.9474469346	 0.0552885908	 0.112654
H	-0.4974646104	 1.9242422564	-0.9161449923	 0.120517
H	-0.5957278635	 1.9226100968	 0.849898227	 0.121623
H	 0.2048691094	-0.6427030977	-2.1084751284	 0.108339
H	 1.6449610062	 0.1131282884	-1.4399242571	 0.09974
H	 0.61581341	-2.7187589051	-0.9201233215	 0.11085
H	 2.2746215564	-2.2229837519	-1.2671904731	 0.095584
H	 1.6264511664	-2.6684077518	 1.3756378447	 0.080563
H	 2.71639123	-0.556358457	 2.2207028756	 0.109472
H	 2.7758802954	 0.1014423703	 0.5293479193	 0.107786
H	 0.2034482579	-0.5918970563	 2.1587342366	 0.087548
H	-3.4739439793	-1.3254723542	-0.0587148734	 0.19084
112.6701	146.8018	205.8529	235.5207	262.1213	312.7086	373.9787	436.7555	460.1685	525.64	607.7254	622.8752	625.2817	644.4997	704.649	801.1651	821.5848	839.6771	894.3696	909.5263	954.1865	957.8849	1003.3125	1028.2048	1045.778	1069.1876	1082.8484	1112.8752	1129.2437	1159.6425	1187.716	1205.1835	1241.0124	1245.7345	1316.3372	1329.1561	1357.0128	1387.2409	1407.4733	1481.1731	1485.6495	1489.6454	1496.9183	1508.6842	2227.827	3037.4399	3039.0114	3053.7821	3077.7794	3110.7604	3113.1345	3114.8857	3129.8954	3166.8822	3177.6736	3211.3538	3501.8446
CC1(CCC2CC12)C#C	C[C@]1(CC[C@H]2C[C@@H]12)C#C	
InChI=1S/C9H12/c1-3-9(2)5-4-7-6-8(7)9/h1,7-8H,4-6H2,2H3	InChI=1S/C9H12/c1-3-9(2)5-4-7-6-8(7)9/h1,7-8H,4-6H2,2H3/t7-,8+,9+/m0/s1
