16
gdb 23328	3.61402	1.29658	1.21399	1.0105	66.93	-0.2513	0.0003	0.2516	1040.7081	0.125715	-474.981751	-474.974666	-474.973722	-475.013366	27.824	
O	-0.1295592317	 1.3387358284	-0.005750289	-0.387804
N	 0.0051715761	-0.0595486492	-0.0294355841	-0.259187
C	-1.1273255194	-0.627562731	-0.0029162047	 0.456925
C	-2.5355853194	-0.0651453408	 0.0668615078	-0.334179
C	-3.303105858	-1.4044975936	 0.0319686716	 0.176672
O	-3.2376232071	-1.9411513388	-1.2883887908	-0.275307
C	-1.9213135374	-2.5140260713	-1.3842105604	-0.089064
C	-1.3165104061	-2.130778212	-0.0148547461	-0.065985
O	-2.4889947328	-2.2624875885	 0.8142897256	-0.250098
H	 0.787811538	 1.633156255	-0.0034286323	 0.3089
H	-2.7006922702	 0.4776038717	 1.00310451	 0.135264
H	-2.7739315913	 0.5960674447	-0.768771243	 0.138846
H	-4.3332750544	-1.4090561985	 0.3844633773	 0.101229
H	-1.9965791893	-3.6008832994	-1.5019584748	 0.113201
H	-1.3779949794	-2.0855048857	-2.2314414371	 0.120147
H	-0.4917345073	-2.7369763508	 0.3498493299	 0.11044
99.2235	201.5485	233.4048	336.5063	389.6096	409.9011	471.9623	560.3448	624.2836	646.6357	763.1909	822.3964	838.338	871.7709	905.9828	951.8779	973.7904	983.3447	986.2403	1019.2201	1034.1715	1087.7523	1143.7677	1188.4126	1206.2194	1245.3563	1265.835	1280.2995	1319.8065	1336.6001	1373.9558	1410.0825	1456.3822	1519.1064	1783.9941	3036.0714	3062.2725	3092.8525	3120.4154	3144.0338	3170.7103	3814.7473
ON=C1CC2OCC1O2	ON=C1C[C@H]2OC[C@@H]1O2	
InChI=1S/C5H7NO3/c7-6-3-1-5-8-2-4(3)9-5/h4-5,7H,1-2H2	InChI=1S/C5H7NO3/c7-6-3-1-5-8-2-4(3)9-5/h4-5,7H,1-2H2/t4-,5-/m0/s1
