15
gdb 27320	3.36461	1.39313	0.99132	6.4429	72.23	-0.2194	-0.0246	0.1948	1129.5184	0.113968	-454.020451	-454.012506	-454.011562	-454.054053	29.363	
C	-0.0135560374	 1.4880135696	 0.0304670603	-0.488428
C	-0.0056731659	-0.0154408846	-0.0218733193	 0.392556
N	-0.0074925017	-0.6287968369	-1.1716911056	-0.357833
C	 0.0219017136	-2.0100620081	-1.2001366495	 0.320054
O	 0.0234571679	-2.6778347576	-2.2318121883	-0.411484
C	 0.0516978446	-2.7365504461	 0.0822575336	 0.241922
O	 0.0778294275	-4.0712867975	-0.0188745831	-0.423738
C	 0.0488990491	-2.0502235729	 1.2435436695	-0.120158
N	 0.0184119172	-0.6650214319	 1.1701454054	-0.322285
H	 0.9612444348	 1.8711231253	 0.3534092806	 0.14783
H	-0.2237066617	 1.8716548912	-0.966697385	 0.17121
H	-0.7693413627	 1.862693609	 0.7289863769	 0.134168
H	 0.0693721147	-4.2107025951	-0.9903846064	 0.307057
H	 0.0660766152	-2.497146727	 2.2276079353	 0.14
H	 0.0168949048	-0.1303944873	 2.0239883458	 0.269131
23.2275	120.6955	205.5769	307.6992	331.9911	362.2459	421.8167	481.7559	544.1404	546.0285	609.1614	649.1045	704.5146	745.2054	805.7676	818.8955	839.8471	954.9248	1055.7284	1059.1564	1160.8271	1206.4458	1277.9642	1312.1715	1330.4901	1406.0489	1464.6628	1474.778	1486.1764	1551.243	1621.8426	1713.0126	1737.2923	3037.8822	3094.6711	3168.6307	3230.5188	3523.1706	3640.9823
CC1=NC(=O)C(O)=CN1	Cc1nc(=O)c(O)c[nH]1	
InChI=1S/C5H6N2O2/c1-3-6-2-4(8)5(9)7-3/h2,8H,1H3,(H,6,7,9)	InChI=1S/C5H6N2O2/c1-3-6-2-4(8)5(9)7-3/h2,8H,1H3,(H,6,7,9)
