17
gdb 19520	3.62534	1.79602	1.6575	1.2807	68.57	-0.2168	0.0096	0.2264	851.2321	0.143747	-363.828063	-363.821	-363.820056	-363.859248	27.382	
O	 0.3560351848	 0.9655133337	 1.0534937925	-0.413302
C	 0.1094968242	 0.0686323226	-0.0270409738	-0.097367
C	-1.2769880475	-0.5311226141	 0.0237998088	-0.031709
C	-1.584385175	-1.9824484825	-0.2125994429	-0.092459
C	-0.4676846806	-2.9617195776	-0.1050511182	-0.07538
C	 0.0342432498	-2.9526909172	 1.1306809625	-0.085496
C	-0.7155508642	-1.9672247619	 1.9988634532	-0.212809
N	-1.7623280786	-1.373805229	 1.1286699604	-0.115445
H	-0.3582510259	 1.6110393517	 1.0710338695	 0.284534
H	 0.236190985	 0.5753053064	-0.9970150306	 0.090247
H	 0.8822310292	-0.697884516	 0.0462442269	 0.118595
H	-2.0514108649	 0.1703326857	-0.2936348593	 0.08521
H	-2.4797793415	-2.2508078681	-0.7693391675	 0.091601
H	-0.136201949	-3.5777251815	-0.9317157884	 0.101234
H	 0.8736046424	-3.5396850866	 1.4856007664	 0.101975
H	-1.2028674507	-2.4609839325	 2.8499086159	 0.110528
H	-0.0731211078	-1.1778777929	 2.4055896544	 0.140041
101.0761	173.0187	242.1507	299.632	350.9018	381.4096	559.3437	573.4928	720.3946	732.1095	761.5629	773.7947	850.6836	895.6147	936.4994	952.9056	992.0909	1023.829	1041.5063	1044.888	1073.7622	1108.0743	1123.3333	1129.4236	1212.4472	1231.7023	1284.0702	1313.6756	1344.6422	1360.4911	1376.6212	1406.3599	1437.9645	1496.7718	1513.3691	1666.7662	2978.6787	3015.004	3067.0861	3077.2129	3121.4155	3126.3896	3194.186	3220.4805	3810.5973
OCC1C2C=CCN12	OC[C@H]1[C@H]2C=CCN12	
InChI=1S/C6H9NO/c8-4-6-5-2-1-3-7(5)6/h1-2,5-6,8H,3-4H2	InChI=1S/C6H9NO/c8-4-6-5-2-1-3-7(5)6/h1-2,5-6,8H,3-4H2/t5-,6+,7?/m1/s1
