18
gdb 39752	3.18061	1.72262	1.53387	2.0021	74.35	-0.2375	0.0862	0.3238	925.6637	0.149856	-401.889028	-401.882337	-401.881392	-401.919906	27.511	
C	 0.0240049061	 1.4450922426	-0.0075943786	-0.289163
O	 1.215560221	 0.6395132078	 0.011993845	-0.285476
C	-0.0480864856	-0.012053073	 0.0069055661	 0.504785
C	-0.5860103554	-0.9168259061	 1.0871513617	-0.160007
C	-1.3416836642	-1.6915588321	 0.0406691398	-0.057317
C	-0.5451244915	-0.9745336759	-1.090798961	-0.182826
C	 0.5777827631	-1.9552458396	-1.4436114365	-0.218779
C	 0.8803161132	-2.6014539574	-0.0663313733	-0.163154
N	-0.2914424289	-2.3335978666	 0.8060374089	-0.10247
H	-0.1689842095	 2.0108069297	 0.903697933	 0.117386
H	-0.1589919125	 1.9875989312	-0.9345883304	 0.115796
H	-0.8487100558	-0.6449455667	 2.1036180422	 0.095753
H	-2.3577882893	-2.0642362951	 0.0311820632	 0.098319
H	-1.0821679982	-0.5321551209	-1.9292812461	 0.075748
H	 0.2346203524	-2.6969694328	-2.1723541345	 0.0994
H	 1.4480536953	-1.4407000127	-1.8589653983	 0.118691
H	 1.007926739	-3.6849338688	-0.1378852025	 0.107506
H	 1.778035301	-2.1840207639	 0.3966310812	 0.125809
135.9651	211.0331	263.4647	324.9407	439.974	520.8792	574.7357	670.5476	732.7688	771.5633	831.0814	840.0467	856.7972	878.7494	896.8743	920.6405	928.288	954.4335	986.3893	1016.9931	1031.9706	1047.5362	1091.4836	1119.0794	1161.3268	1165.5356	1179.0897	1208.1628	1220.5883	1236.0858	1251.4	1272.5478	1311.964	1330.0495	1358.1899	1449.7824	1485.1029	1507.317	1540.0254	3048.2554	3063.6196	3076.3618	3098.5315	3116.0878	3121.683	3161.0397	3171.2792	3199.1073
C1OC11C2C3C1CCN23	C1O[C@]21[C@H]1[C@H]3[C@@H]2CCN13	
InChI=1S/C7H9NO/c1-2-8-5-4(1)7(3-9-7)6(5)8/h4-6H,1-3H2	InChI=1S/C7H9NO/c1-2-8-5-4(1)7(3-9-7)6(5)8/h4-6H,1-3H2/t4-,5+,6+,7-,8?/m0/s1
