21
gdb 93689	3.15226	1.1824	1.09538	1.1908	74.4	-0.2485	0.0637	0.3121	1214.4468	0.181251	-461.369951	-461.360578	-461.359634	-461.403319	36.316	
C	-0.1426888897	 1.6094561259	 0.0100125416	-0.429898
C	 0.0210236584	 0.0811159873	 0.0041664241	 0.433583
C	-1.3278872687	-0.6252658854	 0.0047454762	-0.411783
O	 0.6863181468	-0.3672908957	-1.1700706928	-0.278806
C	 2.0684247758	-0.0589574469	-1.2421156473	-0.098619
C	 2.7962342323	-0.5958369883	-0.0118859605	 0.091313
O	 4.137073931	-0.1414308633	-0.081159759	-0.427282
C	 2.073371524	-0.065195255	 1.2306782214	-0.122144
O	 0.6910008892	-0.3748145935	 1.1751364924	-0.275722
H	 0.8125948285	 2.1378316709	 0.0049805141	 0.119762
H	-0.703165003	 1.9207635262	-0.8750463128	 0.125652
H	-0.6925117942	 1.9162594628	 0.9033186793	 0.124757
H	-1.8977855711	-0.3472017809	-0.8845809714	 0.121895
H	-1.1664052503	-1.7049436145	 0.0015311616	 0.12736
H	-1.895519729	-0.3518680264	 0.8970302394	 0.121092
H	 2.4436797448	-0.5258997434	-2.1560947033	 0.11523
H	 2.2507648822	 1.0235972892	-1.3182989753	 0.099973
H	 2.7365161306	-1.6941180623	-0.0202197948	 0.079197
H	 4.6404777237	-0.5745687287	 0.6150694539	 0.288675
H	 2.4526607015	-0.5323131975	 2.1460989959	 0.098237
H	 2.2559823971	 1.0175424697	 1.3067092772	 0.097526
104.1006	163.48	213.5378	244.9093	250.3296	279.7321	297.3138	325.8503	328.878	420.944	455.8789	473.9383	502.626	516.1887	672.0993	737.5187	843.1795	912.1892	923.4219	924.7063	947.9782	1008.7985	1065.6282	1083.1052	1109.7521	1119.1667	1163.853	1177.5692	1218.0335	1235.5484	1252.334	1280.6502	1310.5587	1344.346	1373.9793	1396.0049	1402.4892	1414.7562	1446.6464	1474.4171	1478.1506	1491.0447	1493.1213	1515.4998	1517.8003	2990.8869	2994.5929	3008.126	3055.5553	3060.8125	3067.6822	3098.0724	3128.799	3134.3684	3141.6454	3144.0297	3823.5586
CC1(C)OCC(O)CO1	CC1(C)OCC(O)CO1	
InChI=1S/C6H12O3/c1-6(2)8-3-5(7)4-9-6/h5,7H,3-4H2,1-2H3	InChI=1S/C6H12O3/c1-6(2)8-3-5(7)4-9-6/h5,7H,3-4H2,1-2H3
