19
gdb 118940	2.58725	1.12657	1.03882	3.5992	73.06	-0.2258	-0.0204	0.2054	1279.8664	0.156282	-460.153646	-460.143876	-460.142932	-460.188815	35.003	
C	 0.1341379251	 1.3837612157	-0.0450715278	-0.228877
O	 0.0838160945	-0.0252975255	-0.0176677396	-0.245936
C	 0.7017149399	-0.6348809975	-1.1295771062	-0.121253
C	 0.4503653706	-2.1364364222	-1.0055838647	 0.311201
O	-0.9203532084	-2.3983138051	-0.8847231591	-0.477444
C	 1.1757327845	-2.974800337	-2.0958242989	-0.290397
C	 2.2947408612	-3.3744937457	-1.0876730233	-0.345404
C	 1.390499467	-2.8283710633	 0.0335174276	 0.345252
O	 1.3307154178	-2.9994071944	 1.2142756239	-0.293199
H	 1.1714335194	 1.7504505149	-0.0306027195	 0.112389
H	-0.3648329762	 1.7899611647	-0.9382501066	 0.110442
H	-0.3813476752	 1.7448018891	 0.8474538904	 0.136472
H	 0.2514733615	-0.2755816293	-2.0706347079	 0.098683
H	 1.7800575891	-0.4074574716	-1.1599310202	 0.092284
H	-1.2588237106	-1.7581780765	-0.2443783404	 0.294453
H	 0.5534033513	-3.8215021364	-2.3894807909	 0.131143
H	 1.4896830858	-2.4291619798	-2.9877325872	 0.10546
H	 2.555360662	-4.4319231269	-1.0074493622	 0.134637
H	 3.2178947708	-2.7968424132	-1.1982111573	 0.130094
67.0646	76.672	103.9861	158.1085	195.9592	223.8446	284.8509	323.6977	373.4578	412.5474	458.0316	492.1983	560.3905	708.5465	731.9209	756.7158	895.8408	918.0467	941.8969	996.327	1019.6747	1054.9021	1065.0971	1148.0064	1158.2565	1182.2361	1203.2291	1206.3113	1225.4113	1248.9052	1253.5069	1304.2907	1379.1118	1417.9292	1443.3706	1477.1678	1482.5313	1486.2558	1496.9125	1518.1036	1895.7997	2954.4091	2980.9981	2993.1124	3029.2304	3061.5613	3080.6886	3118.6253	3123.5114	3141.7707	3768.7637
COCC1(O)CCC1=O	COC[C@@]1(O)CCC1=O	
InChI=1S/C6H10O3/c1-9-4-6(8)3-2-5(6)7/h8H,2-4H2,1H3	InChI=1S/C6H10O3/c1-9-4-6(8)3-2-5(6)7/h8H,2-4H2,1H3/t6-/m0/s1
