15
gdb 45450	2.85829	1.6949	1.22216	4.5259	67.98	-0.2414	-0.0719	0.1695	985.8596	0.11448	-453.944778	-453.937485	-453.936541	-453.976958	27.37	
N	-0.1078592091	 1.3236737675	 0.210843287	-0.535527
C	-0.0519211061	 0.0605500566	 0.0730433395	 0.274339
N	-1.1213233617	-0.8027492156	 0.0910331063	-0.311369
C	-0.8244968082	-2.1789997552	-0.237538846	-0.064373
C	-0.8346171539	-2.5631541744	-1.7380131375	-0.082066
O	 0.6055119946	-2.4392924981	-1.8146082863	-0.28064
C	 0.7127154046	-2.2235315448	-0.3863564752	 0.000608
C	 1.1899600514	-0.7986162821	-0.1100255719	 0.356238
O	 2.3197813713	-0.3925569972	-0.0722941403	-0.298093
H	 0.8459948228	 1.6901608384	 0.1861215199	 0.236046
H	-2.0621396301	-0.4416993986	 0.1035628305	 0.259696
H	-1.3088872048	-2.8792048384	 0.4453971197	 0.104944
H	-1.155613595	-3.5916767868	-1.9423664523	 0.113063
H	-1.350076837	-1.8687498803	-2.4092576652	 0.119266
H	 1.2899453212	-2.9984346609	 0.1241091019	 0.107867
83.3194	105.5064	220.0764	309.2458	384.564	406.2044	484.5036	521.2439	627.5501	659.7674	735.7137	804.5842	845.8495	868.2829	895.423	903.7212	988.0693	1018.3995	1044.2485	1083.5471	1124.7879	1161.7262	1178.1564	1234.1385	1246.626	1287.4095	1335.2313	1351.8109	1404.6703	1435.4991	1509.8221	1741.7507	1858.7296	3025.7996	3081.4069	3086.2246	3096.0816	3464.122	3636.9985
N=C1NC2COC2C1=O	[NH][C]1N[C@H]2CO[C@H]2C1=O	
InChI=1S/C5H6N2O2/c6-5-3(8)4-2(7-5)1-9-4/h2,4H,1H2,(H2,6,7)	InChI=1S/C5H6N2O2/c6-5-3(8)4-2(7-5)1-9-4/h2,4H,1H2,(H2,6,7)/t2-,4+/m0/s1
