19
gdb 121698	5.08973	0.58113	0.54845	3.2585	74.83	-0.2571	-0.0303	0.2268	2023.7131	0.155711	-460.212445	-460.201898	-460.200953	-460.250415	35.238	
C	-0.0294657824	 1.420367524	 0.1770844709	-0.384837
C	 0.19892421	-0.0880024412	 0.04510147	-0.191127
C	 0.6028229092	-0.4756084176	-1.3671894248	-0.048918
O	 0.7994328375	-1.9069729622	-1.3928865085	-0.237939
C	 1.1538099239	-2.4288946867	-2.576016183	 0.424186
O	 1.3203615322	-1.7882482498	-3.5849063147	-0.358159
C	 1.3279512821	-3.9324665823	-2.4894379987	-0.395093
C	 2.5793059551	-4.3930260389	-3.2262371992	 0.164616
O	 3.2717012634	-5.3009706641	-2.8517105272	-0.235208
H	 0.8773863253	 1.9843508757	-0.0662727173	 0.122659
H	-0.8244213422	 1.7647088476	-0.4932118341	 0.122032
H	-0.3193670175	 1.6818173387	 1.1983332594	 0.123364
H	 0.980548419	-0.4152283315	 0.7401173461	 0.112773
H	-0.7112657083	-0.6346508851	 0.3167978148	 0.111267
H	-0.1660544675	-0.2107995949	-2.1005903321	 0.123484
H	 1.5326193061	 0.0136126816	-1.6759490585	 0.124484
H	 1.3311015291	-4.2979219999	-1.4625950977	 0.147509
H	 0.4725129563	-4.3819343195	-3.0137521022	 0.162554
H	 2.7941715888	-3.8234395838	-4.1533180133	 0.112353
27.8096	53.3645	68.6515	94.9184	115.366	184.6514	232.4283	242.8332	300.9849	331.7617	452.8625	491.8755	602.8562	736.6167	760.5347	788.6654	891.492	910.0152	940.6306	1005.8531	1050.4269	1050.8643	1067.9525	1148.2431	1166.074	1188.4491	1233.2605	1269.7644	1314.3716	1320.3981	1341.95	1409.6292	1414.5899	1423.5787	1438.8752	1491.3845	1500.8737	1504.0831	1519.5299	1806.365	1841.3275	2935.3997	3029.3752	3035.4586	3038.3549	3049.3471	3067.9596	3092.5867	3107.8688	3114.195	3142.6158
CCCOC(=O)CC=O	CCCOC(=O)CC=O	
InChI=1S/C6H10O3/c1-2-5-9-6(8)3-4-7/h4H,2-3,5H2,1H3	InChI=1S/C6H10O3/c1-2-5-9-6(8)3-4-7/h4H,2-3,5H2,1H3
