19
gdb 46802	2.9181	1.59124	1.24185	4.1078	75.42	-0.2292	0.0606	0.2898	1039.1849	0.163277	-419.241684	-419.233955	-419.233011	-419.274302	30.268	
O	-0.0326672125	-0.0323045304	-0.4967802389	-0.42069
C	-0.006726444	 1.0970572455	-0.0281516772	 0.416925
N	-1.1880963377	 1.7385394703	 0.3067659674	-0.339751
C	-1.5614000202	 3.1363548039	 0.5111185221	-0.160712
C	-0.4539284255	 4.0585584358	 1.0089823562	-0.014731
C	 0.7352937813	 4.1869975409	 0.0186858824	-0.229634
C	 1.4296379657	 3.0308009349	 0.7983943232	 0.019859
C	 0.5149464408	 3.3729875237	 2.0122728849	-0.237044
N	 1.1882901417	 1.7228206575	 0.237529879	-0.323403
H	-1.9571522599	 1.1378098385	 0.0500450995	 0.24732
H	-1.9742266973	 3.565589428	-0.4163154195	 0.104523
H	-2.3744396573	 3.1405335178	 1.2486529934	 0.109994
H	-0.9171007166	 4.9956654916	 1.3287034369	 0.073333
H	 0.5412899106	 4.015091986	-1.0435070185	 0.103831
H	 1.2658226872	 5.1349056411	 0.1420641163	 0.101611
H	 2.5056964443	 3.1204257471	 0.955151205	 0.078164
H	 0.993059693	 4.0983559935	 2.675082902	 0.103491
H	 0.1376934282	 2.5340388357	 2.6000585664	 0.115723
H	 1.9741813183	 1.1694054288	-0.0586767206	 0.25119
66.2885	80.4688	302.6015	312.5444	357.0906	367.506	457.9413	464.5162	553.4719	594.5316	709.7209	754.5693	782.4575	794.8024	823.2108	880.341	898.327	925.0916	943.2612	1015.8079	1050.3917	1087.1008	1113.9003	1135.8182	1158.446	1162.0793	1222.1	1247.1817	1252.5196	1277.1142	1311.8125	1324.7821	1355.4334	1400.9582	1442.3516	1465.4074	1471.1111	1490.345	1497.827	1528.3383	1778.4406	2968.9214	3027.3098	3054.6968	3064.3066	3075.6483	3094.9581	3114.9201	3128.3219	3618.7042	3664.4871
O=C1NCC2CC(C2)N1	O=C1NC[C@@H]2C[C@@H](C2)N1	
InChI=1S/C6H10N2O/c9-6-7-3-4-1-5(2-4)8-6/h4-5H,1-3H2,(H2,7,8,9)	InChI=1S/C6H10N2O/c9-6-7-3-4-1-5(2-4)8-6/h4-5H,1-3H2,(H2,7,8,9)/t4-,5+
