19
gdb 48361	3.37016	1.1624	0.99712	2.7801	75.87	-0.2476	-0.0255	0.2222	1221.2262	0.158248	-423.004359	-422.995539	-422.994595	-423.038656	31.978	
O	 0.0218442971	-0.0317883158	 0.6563252115	-0.273956
C	 0.2646474712	 0.739862289	-0.2419755324	 0.088602
C	 1.2102199998	 1.8824788842	-0.1458283757	 0.228512
C	 1.4649594828	 2.4368614267	 1.2467563259	-0.290392
C	 2.5107851903	 1.5913508574	 0.6078633293	-0.285827
C	 1.2602323412	 2.7998821364	-1.3464147104	 0.045154
C	 0.1779897443	 3.8984994585	-1.5033873502	-0.291055
C	 1.3765581816	 4.8630546313	-1.5625857832	-0.064615
O	 2.302298695	 3.7963395936	-1.2484238311	-0.294762
H	-0.2249636443	 0.6199804552	-1.2361253208	 0.068765
H	 1.6534545734	 3.5021978292	 1.3105425592	 0.125829
H	 0.871478102	 2.0007370502	 2.0417092582	 0.136651
H	 2.6350955348	 0.5744359928	 0.9611353256	 0.135592
H	 3.3958179379	 2.0843752436	 0.2243368391	 0.143055
H	 1.3904278991	 2.1985793789	-2.2595258698	 0.079078
H	-0.4477251933	 3.840293752	-2.3946520301	 0.114058
H	-0.4523135896	 4.0190588343	-0.6205248183	 0.1179
H	 1.5782579588	 5.2905859013	-2.552538968	 0.10677
H	 1.4088565479	 5.663133401	-0.8152950889	 0.110641
60.8923	90.9354	101.3521	172.8378	233.9036	251.5768	292.3624	401.0728	443.5397	626.1865	719.6287	773.1418	801.995	829.181	836.8245	894.865	948.0051	952.0452	960.3504	1025.7147	1036.3104	1057.5527	1067.644	1080.3485	1098.1781	1116.6306	1170.6957	1209.5268	1217.5698	1255.3481	1257.4244	1283.7454	1332.3523	1359.6397	1394.2467	1437.6274	1441.761	1475.875	1489.4275	1532.2056	1806.4118	2859.354	2977.8248	3022.1787	3068.0983	3082.5375	3140.3559	3142.653	3146.864	3235.9239	3250.271
O=CC1(CC1)C1CCO1	O=CC1(CC1)[C@H]1CCO1	
InChI=1S/C7H10O2/c8-5-7(2-3-7)6-1-4-9-6/h5-6H,1-4H2	InChI=1S/C7H10O2/c8-5-7(2-3-7)6-1-4-9-6/h5-6H,1-4H2/t6-/m1/s1
