15
gdb 62491	2.2657	1.78623	1.29092	2.0489	61.27	-0.264	-0.0557	0.2083	986.7717	0.11036	-494.95007	-494.941487	-494.940543	-494.98345	31.08	
C	 0.099052028	 1.538533512	-0.0408603236	-0.436344
C	-0.1311946234	 0.0134768741	-0.0129807617	 0.122226
O	-1.4958732427	-0.3116304093	-0.003385742	-0.455295
C	 0.6077644139	-0.6262035516	-1.1900864368	 0.361066
O	 0.2581269554	-0.698010059	-2.3328677592	-0.285685
C	 1.925960384	-1.1586980513	-0.6186556272	-0.19868
O	 1.7839273026	-1.1339554824	 0.8107376237	-0.219214
C	 0.5960191285	-0.5969254506	 1.1854173364	 0.413877
O	 0.190587837	-0.6179786297	 2.3116557561	-0.348169
H	 1.1610134726	 1.8002051978	-0.0969189134	 0.12811
H	-0.4155364201	 1.9480384657	-0.9132303791	 0.154927
H	-0.3166573835	 1.9785367162	 0.8698988692	 0.14448
H	-1.76494811	-0.3262461553	 0.9258686267	 0.300105
H	 2.115221239	-2.1843764811	-0.9463244312	 0.163029
H	 2.7714737486	-0.5294832656	-0.9168315179	 0.155569
56.2377	165.25	187.417	224.8146	233.8297	269.4968	314.7974	354.9809	421.074	544.8699	593.3929	611.2005	647.8912	712.2326	753.6573	862.5741	932.9224	984.7398	1060.3668	1069.0225	1101.1092	1133.7419	1142.2739	1208.0734	1291.7172	1359.7256	1385.5827	1397.3375	1480.9371	1484.0975	1486.145	1862.2695	1899.6254	3038.5905	3054.2034	3109.8074	3114.6909	3137.5199	3754.2754
CC1(O)C(=O)COC1=O	C[C@@]1(O)C(=O)COC1=O	
InChI=1S/C5H6O4/c1-5(8)3(6)2-9-4(5)7/h8H,2H2,1H3	InChI=1S/C5H6O4/c1-5(8)3(6)2-9-4(5)7/h8H,2H2,1H3/t5-/m1/s1
