15
gdb 23330	2.25579	1.57247	1.08645	4.2383	74.19	-0.2534	0.0129	0.2663	1096.4489	0.112735	-416.713879	-416.706165	-416.70522	-416.74635	29.099	
O	-0.0989531639	 1.3680639998	-0.0921257086	-0.398
N	 0.05620811	-0.0350323885	-0.0718136695	-0.311157
C	-1.057407119	-0.6149945643	-0.0100956272	 0.511294
C	-2.5662114021	-0.4002256418	 0.0282526138	-0.14085
C	-2.6173924248	-1.5443626352	-1.044967823	-0.24387
C	-1.5599670976	-2.0443247001	 0.0002617484	-0.127969
C	-2.5866299678	-1.5613608336	 1.0965461798	-0.153435
C	-2.1134912647	-1.2975460931	 2.4454416384	 0.270319
N	-1.7574494453	-1.1016033319	 3.5274488537	-0.317098
H	 0.816239676	 1.6689438846	-0.0897218777	 0.310694
H	-3.1311803119	 0.5266633206	 0.0634438465	 0.119352
H	-3.5501195785	-2.1129113026	-1.083341392	 0.112725
H	-2.2404454584	-1.2979065484	-2.0369368716	 0.128897
H	-0.9924892406	-2.9714274866	 0.0044637459	 0.113714
H	-3.5187058414	-2.131502189	 1.1194178732	 0.125384
82.4928	166.171	203.377	206.9739	321.9839	396.4648	431.2178	520.1715	521.9895	553.253	721.0543	738.9325	764.6653	842.0336	887.3577	902.3914	956.9423	990.4929	1015.0129	1055.5171	1065.0357	1086.4918	1117.0505	1128.5098	1184.9175	1212.662	1220.961	1240.1195	1364.8046	1415.879	1512.6466	1837.5582	2358.7511	3067.7868	3085.8966	3154.8534	3161.9049	3172.3312	3818.2051
ON=C1C2CC1C2C#N	ON=C1[C@H]2C[C@@H]1[C@H]2C#N	
InChI=1S/C6H6N2O/c7-2-5-3-1-4(5)6(3)8-9/h3-5,9H,1H2	InChI=1S/C6H6N2O/c7-2-5-3-1-4(5)6(3)8-9/h3-5,9H,1H2/t3-,4+,5-
