15
gdb 94148	1.97882	1.52749	1.31049	4.7081	70.37	-0.2995	-0.0165	0.2831	1056.6254	0.112403	-416.81529	-416.806798	-416.805854	-416.848488	30.965	
O	 0.4973242365	 0.8643906538	-0.6905827499	-0.402476
C	 0.1278359414	-0.1940311686	 0.111707403	 0.140001
C	-0.0221927447	-0.0430637867	 1.6446800127	-0.277482
C	-1.2231313414	-1.0185913536	 1.6034895299	-0.253849
C	-1.3910544386	-0.7301187802	 0.0645640277	-0.057362
C	-2.2858969259	 0.3932401148	-0.186572403	 0.269416
N	-2.917123836	 1.3473400913	-0.3530494738	-0.326657
C	-1.6689591341	-1.8609445545	-0.8067381554	 0.242506
N	-1.8377469402	-2.7894858616	-1.4735630129	-0.322395
H	-0.0670050673	 1.6249102573	-0.5009490983	 0.30321
H	 0.7763101112	-1.0337159677	-0.1481426292	 0.134089
H	 0.8385787404	-0.3165972123	 2.2551972685	 0.129292
H	-0.3389560816	 0.9705652184	 1.9077746557	 0.129461
H	-0.930640952	-2.0589954481	 1.7512047328	 0.145949
H	-2.0918982775	-0.7924817223	 2.2197098921	 0.146295
110.744	126.7242	140.0116	159.3065	241.4013	331.3978	403.8204	435.3818	490.0025	511.6231	533.5861	590.0926	636.8981	687.1212	796.6121	888.5823	904.5493	955.3749	989.5487	1082.6441	1108.2896	1167.153	1186.2576	1218.7651	1251.6659	1262.2741	1307.9126	1345.5613	1439.6969	1483.0997	1495.9688	2353.2573	2360.4441	3068.7244	3096.4757	3100.7654	3137.5131	3163.0994	3776.9759
OC1CCC1(C#N)C#N	O[C@H]1CCC1(C#N)C#N	
InChI=1S/C6H6N2O/c7-3-6(4-8)2-1-5(6)9/h5,9H,1-2H2	InChI=1S/C6H6N2O/c7-3-6(4-8)2-1-5(6)9/h5,9H,1-2H2/t5-/m0/s1
