17
gdb 99326	5.92848	0.64921	0.60813	3.2666	66.57	-0.2716	0.0008	0.2724	1770.1989	0.133412	-496.097784	-496.088237	-496.087293	-496.134263	32.475	
O	 0.2139410228	 1.233286734	-0.1697652026	-0.418783
C	 0.007000963	-0.149296036	-0.2172832519	-0.14331
C	-1.4523587498	-0.4831524844	 0.0318998049	 0.41834
O	-2.2938790544	 0.3647069801	 0.2184175094	-0.370689
O	-1.6846307786	-1.7989978731	 0.0179407151	-0.239377
C	-3.0538066327	-2.2002248245	 0.2355174831	-0.092436
C	-3.0864637952	-3.6992022723	 0.2573062229	 0.074649
C	-4.2936664905	-4.4270073779	-0.1516300289	-0.179956
O	-3.1536987078	-4.3577053554	-1.0063173843	-0.223399
H	-0.6581925269	 1.6233274002	-0.0099061568	 0.297293
H	 0.2905833765	-0.5679703101	-1.1948183286	 0.129715
H	 0.6144930744	-0.6717394279	 0.536465778	 0.126306
H	-3.4027057467	-1.7798410344	 1.1844266256	 0.132657
H	-3.6805722435	-1.8081606625	-0.570255315	 0.134432
H	-2.4119479862	-4.1670298776	 0.9746922564	 0.107889
H	-4.5015149553	-5.4030696821	 0.283027216	 0.12489
H	-5.168529289	-3.874511186	-0.4923968932	 0.121779
27.4371	60.9791	81.2742	114.1798	168.4856	248.0494	296.8975	346.5086	360.7619	437.0081	518.0645	582.2503	712.5083	805.2278	870.5636	933.2072	950.307	995.9308	1010.5436	1040.9724	1101.1829	1129.6923	1152.3016	1163.4913	1173.9263	1242.1443	1257.1414	1268.7091	1292.8209	1317.2165	1371.9411	1454.4935	1469.5932	1489.4126	1498.3057	1532.8075	1805.3059	2997.0576	3018.8055	3054.5741	3086.7862	3104.3813	3120.9905	3174.6581	3722.2907
OCC(=O)OCC1CO1	OCC(=O)OC[C@H]1CO1	
InChI=1S/C5H8O4/c6-1-5(7)9-3-4-2-8-4/h4,6H,1-3H2	InChI=1S/C5H8O4/c6-1-5(7)9-3-4-2-8-4/h4,6H,1-3H2/t4-/m1/s1
