25
gdb 95998	2.28198	1.36622	0.99606	0.0869	91.64	-0.2652	0.0796	0.3448	1325.9722	0.230602	-352.363709	-352.354238	-352.353294	-352.39832	36.505	
C	-0.9979677008	 1.154867702	 0.4925488066	-0.409561
C	-0.2277599364	-0.1298449687	 0.1934806856	 0.044955
C	 0.6075264718	-0.0834385725	-1.1066741474	-0.207005
C	 1.7068548592	-1.1700995719	-0.9456754554	-0.204853
C	 1.5625105733	-1.7006104252	 0.505373838	-0.215308
C	 0.788328021	-0.6021314181	 1.267429483	-0.018062
C	 1.7077055187	 0.4954866897	 1.7767784122	 0.047826
C	 1.3570210987	 1.2962853046	 3.0059328185	-0.272893
C	 2.4824669842	 0.2925514245	 3.0554602008	-0.279112
H	-0.3225276252	 2.0076575992	 0.6120736665	 0.116714
H	-1.6910445384	 1.389883753	-0.3227771524	 0.106251
H	-1.5872336995	 1.0663961904	 1.4115918141	 0.106721
H	-0.9583577367	-0.9445816375	 0.0876506952	 0.063963
H	-0.01548441	-0.2416133043	-1.9920075338	 0.090846
H	 1.0597565803	 0.9085197205	-1.221734683	 0.0933
H	 1.5961149289	-1.976861708	-1.6755382494	 0.094676
H	 2.7003236265	-0.7417834292	-1.1089302492	 0.097451
H	 0.972824489	-2.6242533796	 0.5069968778	 0.089627
H	 2.5245583774	-1.9331525381	 0.9704270219	 0.092965
H	 0.2629687972	-1.0255290646	 2.1329892673	 0.052373
H	 2.236767145	 1.0438952928	 1.0007321415	 0.07838
H	 1.6042387447	 2.3521625978	 3.0290374598	 0.107261
H	 0.4371493921	 1.0476998698	 3.5254163016	 0.108775
H	 2.3146439274	-0.6281360028	 3.6057416385	 0.108119
H	 3.5008219218	 0.6612015063	 3.1121084017	 0.106593
61.4703	86.9774	114.2445	164.6329	235.0067	258.0734	288.271	322.6454	409.163	513.1948	580.5367	658.9672	759.2541	779.5926	814.3079	828.7903	848.1694	885.8418	894.9201	910.8664	932.9163	967.0732	988.7799	1010.6337	1042.1541	1056.1374	1067.9424	1077.095	1090.6578	1121.4475	1140.1462	1168.818	1198.0578	1212.6102	1227.3527	1230.7304	1239.2811	1287.4236	1298.0244	1312.0619	1328.4485	1336.8861	1354.0402	1382.9517	1410.5539	1432.7253	1469.4911	1488.0152	1492.453	1496.3354	1498.8241	1505.9904	1515.3041	2993.2656	3019.2403	3029.0502	3034.1516	3040.2277	3055.0144	3071.0317	3085.5967	3091.3327	3099.5102	3103.7757	3124.907	3127.7674	3132.1063	3201.8754	3217.3346
CC1CCCC1C1CC1	C[C@H]1CCC[C@H]1C1CC1	
InChI=1S/C9H16/c1-7-3-2-4-9(7)8-5-6-8/h7-9H,2-6H2,1H3	InChI=1S/C9H16/c1-7-3-2-4-9(7)8-5-6-8/h7-9H,2-6H2,1H3/t7-,9+/m0/s1
