19
gdb 65255	3.07482	1.4128	1.18822	1.4659	76.3	-0.2332	0.0146	0.2478	1104.027	0.158457	-423.007728	-422.999271	-422.998327	-423.041068	31.89	
C	 0.1749801481	 1.5080433278	-0.323737478	-0.473856
C	-0.0580227251	 0.036958803	-0.0591204121	 0.397048
C	 1.0259528325	-0.9348613867	-0.2534409062	-0.221708
O	 0.6393115987	-0.5098826558	 1.0619281472	-0.277203
C	-1.5120845334	-0.4357047283	-0.186073245	-0.000773
O	-1.6074439824	-1.8531853538	-0.0793590382	-0.27212
C	-2.2871901708	-2.2164467734	 1.121870528	-0.113809
C	-2.8203069088	-0.9235437591	 1.6690046063	-0.092607
C	-2.3975669345	 0.0865801856	 0.9202875761	-0.078938
H	 1.2354535808	 1.7490616317	-0.219561618	 0.130851
H	-0.1453811514	 1.7793051155	-1.3356727644	 0.121977
H	-0.3821782007	 2.1297675639	 0.3849484229	 0.126338
H	 0.7778770649	-1.9646871154	-0.4924210482	 0.128404
H	 2.0022201292	-0.58313933	-0.5862940376	 0.103208
H	-1.8736179763	-0.1356315546	-1.1831216492	 0.084022
H	-3.0797823939	-2.9386228604	 0.8780019404	 0.105848
H	-1.5938690152	-2.7057164365	 1.8227651384	 0.115966
H	-3.4430804394	-0.8651882772	 2.5524211447	 0.108224
H	-2.6073291422	 1.1377155137	 1.0664182629	 0.109127
69.0388	90.7131	188.0564	203.0908	257.8329	335.0216	360.9139	395.3775	470.904	531.5757	689.6539	757.071	786.9121	821.0214	879.3288	880.2025	931.8863	938.4596	954.5456	960.0542	1013.1592	1025.1097	1046.147	1100.8225	1119.7967	1129.9824	1136.44	1173.8272	1202.2363	1245.467	1290.8582	1351.2583	1355.0587	1383.4429	1394.8184	1416.4802	1484.1694	1495.9619	1511.9143	1521.2687	1693.5454	2969.5258	2987.7637	3012.8671	3036.5134	3088.6884	3099.0711	3124.079	3195.4572	3211.063	3236.0198
CC1(CO1)C1OCC=C1	C[C@]1(CO1)[C@H]1OCC=C1	
InChI=1S/C7H10O2/c1-7(5-9-7)6-3-2-4-8-6/h2-3,6H,4-5H2,1H3	InChI=1S/C7H10O2/c1-7(5-9-7)6-3-2-4-8-6/h2-3,6H,4-5H2,1H3/t6-,7-/m0/s1
