14
gdb 129879	4.32056	0.98394	0.8566	2.4848	69.76	-0.2239	-0.0175	0.2064	1281.8684	0.102475	-429.046849	-429.038797	-429.037852	-429.080436	28.771	
N	-0.1318496732	 1.3515934153	-0.1909690233	-0.591088
C	-0.0941200508	-0.0252729687	-0.0206938948	 0.337794
C	-1.0152619398	-0.9945415496	-0.3579864666	-0.180963
N	-0.4578679228	-2.1446157544	 0.1202954723	 0.076059
C	-0.9701778207	-3.4978788613	 0.0908540252	-0.275718
C	-1.2273049145	-3.9779601317	-1.2718779803	 0.271301
N	-1.455299697	-4.3553424901	-2.3388135002	-0.290961
N	 0.718019159	-1.9047034259	 0.718527376	-0.138324
N	 0.9431740363	-0.6231950121	 0.6330031011	-0.247681
H	 0.7793689727	 1.7644057953	-0.0394225382	 0.26076
H	-0.5231898515	 1.6524563169	-1.0724725456	 0.253632
H	-1.9582367549	-0.9741335521	-0.8758348134	 0.150976
H	-0.2129896943	-4.1220828639	 0.5722358063	 0.196934
H	-1.8957314585	-3.5735087478	 0.6729994815	 0.17728
43.0258	85.7658	211.0652	238.3118	283.2881	352.6056	373.494	434.4774	481.9565	630.307	686.3536	691.9331	710.0425	766.2098	820.7752	940.1957	969.9992	1036.0083	1049.905	1109.5407	1157.1534	1217.804	1291.0745	1349.1943	1379.5958	1412.7081	1456.4088	1498.2687	1618.9863	1655.4282	2371.9748	3049.4762	3116.3459	3289.942	3552.6607	3649.0736
NC1=CN(CC#N)N=N1	Nc1cn(CC#N)nn1	
InChI=1S/C4H5N5/c5-1-2-9-3-4(6)7-8-9/h3H,2,6H2	InChI=1S/C4H5N5/c5-1-2-9-3-4(6)7-8-9/h3H,2,6H2
