22
gdb 79262	2.30932	2.01982	1.5218	1.607	83.56	-0.2307	0.0787	0.3094	999.9427	0.196754	-367.223394	-367.215616	-367.214672	-367.254878	32.452	
C	-0.1276677351	 1.5491337252	-0.0539116516	-0.420297
C	 0.0389485911	 0.0372874575	 0.0221683387	 0.054493
N	 0.887627942	-0.4784455568	-1.0852014631	-0.131547
C	 2.2589837234	-0.5773777843	-0.5148639545	-0.039761
C	 2.2409547898	-0.1167390569	 0.9354814458	-0.269621
C	 0.7898879344	-0.5584590528	 1.2490523546	 0.274558
C	 0.2396492921	-0.2697126301	 2.631212	-0.491007
C	 0.8393174489	-2.0411120152	 0.7974973401	-0.265429
C	 1.3916977464	-1.7871428886	-0.5992888257	-0.038599
H	 0.8301494127	 2.0746104802	-0.0070515237	 0.118483
H	-0.6039634008	 1.8206690989	-1.0003362191	 0.127155
H	-0.7595380595	 1.9142960393	 0.7622036301	 0.112143
H	-0.9506152367	-0.4294178108	-0.0671596552	 0.067754
H	 3.0858901092	-0.3860197609	-1.1878825079	 0.085347
H	 2.9758342448	-0.6497985014	 1.5485824734	 0.096337
H	 2.4082980921	 0.9565532241	 1.0601440142	 0.098558
H	 0.2600086362	 0.8023020102	 2.8545294897	 0.116858
H	-0.7989508558	-0.6079105321	 2.7211135537	 0.113749
H	 0.8203951717	-0.7789328904	 3.4079980756	 0.11441
H	 1.5102383169	-2.6503430454	 1.4128715502	 0.094457
H	-0.1496082604	-2.5121479808	 0.7914958256	 0.095888
H	 1.5235025066	-2.5713963989	-1.335159621	 0.08607
189.1421	210.8826	233.0111	242.7492	306.2282	339.7775	438.9694	470.3045	538.1179	602.9223	671.3515	700.5952	764.3049	793.0479	847.5629	849.1685	908.5226	916.444	935.9226	946.802	988.1981	1010.8689	1035.5873	1051.6717	1073.9174	1101.8848	1123.6497	1144.75	1151.2038	1176.4161	1208.7344	1224.6875	1260.9225	1263.3449	1276.2605	1315.1883	1335.0651	1384.1806	1384.6463	1410.5286	1420.0042	1481.734	1491.848	1494.0789	1499.7962	1501.741	1513.855	3019.7252	3025.6174	3039.4809	3041.6432	3050.3981	3082.9729	3089.2885	3091.6449	3095.3718	3110.5778	3118.628	3178.9867	3189.9747
CC1N2C3CC1(C)CC23	C[C@H]1N2[C@H]3C[C@]1(C)C[C@@H]23	
InChI=1S/C8H13N/c1-5-8(2)3-6-7(4-8)9(5)6/h5-7H,3-4H2,1-2H3	InChI=1S/C8H13N/c1-5-8(2)3-6-7(4-8)9(5)6/h5-7H,3-4H2,1-2H3/t5-,6-,7+,8+,9?/m1/s1
