19
gdb 77818	2.30666	1.53105	1.31488	2.5286	76.3	-0.2389	-0.0204	0.2184	1087.0125	0.157843	-423.041545	-423.032706	-423.031762	-423.074869	33.221	
C	-0.0390237465	 1.607094066	 0.2385497244	-0.422124
C	 0.0453923691	 0.1022275379	 0.1191161274	-0.073155
C	 1.3295601335	-0.6701294328	-0.2627072037	-0.267418
C	 2.6460518869	-0.0010748823	-0.0627223205	 0.387451
O	 3.519167406	 0.1759712419	-0.8744795276	-0.321864
C	 2.7442616016	 0.3386570417	 1.4297501249	-0.203064
O	 1.5541416679	-0.1183158072	 2.0520752221	-0.299485
C	 0.7154851788	-0.7847724176	 1.1189408138	 0.41069
C	 0.0852181182	-2.0220824775	 1.6926218384	-0.461798
H	 0.7581814631	 2.0186224047	 0.8601017547	 0.133955
H	 0.0087570273	 2.0862803277	-0.7443259623	 0.129438
H	-0.9890761261	 1.8905559195	 0.7035804004	 0.126235
H	-0.8228443874	-0.3491033099	-0.3563101239	 0.09826
H	 1.2642112022	-1.4315126883	-1.0300590871	 0.112263
H	 3.6196103907	-0.1670922543	 1.8591598933	 0.134442
H	 2.8749748897	 1.4181667106	 1.5758766186	 0.13214
H	-0.5105055601	-1.7686205009	 2.5755906504	 0.134806
H	-0.5738090217	-2.4952241335	 0.9596542861	 0.121268
H	 0.8500334769	-2.7441921558	 1.9944851206	 0.12796
99.7053	133.3584	159.5126	201.9572	214.6971	240.043	315.456	409.725	457.477	518.8497	587.8616	617.5377	626.7017	689.0088	768.2258	841.3843	891.8075	923.1927	947.8122	1015.7261	1018.9817	1062.416	1089.6375	1109.2263	1122.7465	1144.6719	1179.7223	1203.3094	1225.2241	1259.8466	1337.235	1343.1079	1414.5348	1419.6698	1457.3145	1478.0002	1483.05	1491.4829	1497.9781	1508.417	1837.3375	3015.992	3039.0892	3043.1283	3053.7223	3100.2048	3106.4567	3120.4947	3126.6712	3142.4561	3192.8071
CC1C2C(=O)COC12C	C[C@H]1[C@H]2C(=O)CO[C@@]12C	
InChI=1S/C7H10O2/c1-4-6-5(8)3-9-7(4,6)2/h4,6H,3H2,1-2H3	InChI=1S/C7H10O2/c1-4-6-5(8)3-9-7(4,6)2/h4,6H,3H2,1-2H3/t4-,6-,7-/m0/s1
