27
gdb 96580	2.04442	1.35614	0.95943	0.1311	95.24	-0.2853	0.0813	0.3666	1399.0678	0.255444	-353.577508	-353.568065	-353.567121	-353.611032	38.099	
C	 0.1012424365	 1.653214786	-0.0265033959	-0.404623
C	 0.0450773132	 0.1177734509	 0.0154532793	 0.06569
C	 0.7174897856	-0.4436465523	-1.2575754423	-0.178491
C	 1.0359031251	-1.9442385133	-1.3079328398	-0.201973
C	-0.1462443767	-2.9238083186	-1.2762364471	-0.182857
C	-1.0041618821	-2.9626017739	 0.0054819223	-0.180111
C	-0.2222374364	-2.9287581818	 1.3388219202	-0.183569
C	-0.1261851577	-1.5550127139	 2.0290348628	-0.190186
C	 0.6529083976	-0.4210640785	 1.3367168719	-0.194085
H	 1.1359278528	 2.0083139702	 0.0540939057	 0.110704
H	-0.3098535047	 2.0430958335	-0.9643546338	 0.105971
H	-0.467042596	 2.095426971	 0.7986831563	 0.106112
H	-1.0154842181	-0.1594665546	-0.0025259147	 0.069576
H	 0.0964745925	-0.1772234369	-2.1239904787	 0.086751
H	 1.6658565423	 0.0951858219	-1.3969296497	 0.08693
H	 1.5941477573	-2.1307251879	-2.234217459	 0.087474
H	 1.7331906723	-2.1949991374	-0.4999484783	 0.095263
H	-0.8025871282	-2.729827442	-2.1350913281	 0.088011
H	 0.2654515872	-3.9289511667	-1.4378132608	 0.091387
H	-1.7364686224	-2.1480615494	-0.0012644836	 0.09628
H	-1.5995782608	-3.8822425426	-0.0345023551	 0.086676
H	-0.7168891801	-3.6015522472	 2.0493685025	 0.090002
H	 0.7828771848	-3.3466933216	 1.1956524982	 0.092191
H	-1.1486794742	-1.1980741787	 2.2195027941	 0.091255
H	 0.3220318391	-1.7104369499	 3.01891389	 0.08771
H	 1.695331309	-0.7256875273	 1.1749940314	 0.090652
H	 0.7034299821	 0.406467681	 2.0548597424	 0.087261
107.3715	147.5882	197.254	233.3719	250.1933	285.4285	310.9776	324.5797	365.6421	412.4372	444.3715	495.0426	521.701	734.7069	747.0828	804.3731	807.792	824.2381	866.8851	904.5061	939.6951	950.1007	998.375	1005.6409	1006.6227	1047.5759	1093.0807	1114.4574	1125.4601	1131.2859	1145.8128	1166.5389	1223.1019	1248.686	1272.1078	1280.3091	1307.1678	1319.7637	1344.7276	1347.5402	1373.0411	1382.705	1384.6924	1387.2355	1398.6298	1402.2087	1407.3195	1415.7846	1479.5793	1479.735	1485.7068	1488.1331	1490.8088	1498.318	1501.4442	1505.4469	1511.3913	2996.2166	3000.5229	3006.3063	3014.0005	3017.4626	3018.573	3022.293	3024.7003	3033.4493	3037.4328	3040.0079	3044.0362	3050.5246	3056.0423	3064.7526	3072.8176	3087.9557	3094.1074
CC1CCCCCCC1	CC1CCCCCCC1	
InChI=1S/C9H18/c1-9-7-5-3-2-4-6-8-9/h9H,2-8H2,1H3	InChI=1S/C9H18/c1-9-7-5-3-2-4-6-8-9/h9H,2-8H2,1H3
