18
gdb 49812	3.40767	1.21262	0.91992	3.0746	85.12	-0.2124	-0.0106	0.2018	1245.9948	0.150184	-401.987884	-401.979986	-401.979042	-402.020671	30.108	
O	 0.0333681505	 0.0285527994	-1.0162109112	-0.318958
C	 0.0263489444	 1.1743861992	-0.6386830214	 0.159288
N	 1.0260282552	 1.774907389	 0.1255011507	-0.12076
C	 2.1261522883	 0.9689496505	 0.473461525	 0.029706
C	 3.2842025398	 1.3198973019	 1.0359692854	-0.117874
C	 3.7736225535	 2.6751688308	 1.4585683595	-0.27073
C	 2.7233613431	 3.5491715077	 2.171021606	-0.270014
C	 1.5162373603	 3.8826363725	 1.3431934761	-0.11793
C	 0.8285644389	 3.114737341	 0.4953597682	 0.033248
H	-0.7926592703	 1.8801139475	-0.8625075369	 0.093344
H	 1.9406311217	-0.0599606703	 0.1934998635	 0.144402
H	 3.9716556306	 0.4941077576	 1.1957914488	 0.098964
H	 4.6330175737	 2.5448684547	 2.1253705634	 0.103799
H	 4.1514367087	 3.225465881	 0.5868237935	 0.121282
H	 2.4164188932	 3.0423498227	 3.0953617422	 0.121905
H	 3.1987327565	 4.4845358571	 2.4869801382	 0.103211
H	 1.1320039393	 4.8934110596	 1.4447193941	 0.095241
H	-0.0374166274	 3.5392197679	-0.0023284052	 0.111877
59.3728	164.5452	190.5461	266.0156	293.8125	353.2219	400.3263	474.6678	555.9519	583.5214	685.6599	732.8426	776.3491	790.3896	840.446	885.8907	942.3154	960.8577	977.7077	995.2187	1015.6788	1040.147	1086.6689	1193.88	1198.5147	1242.4058	1292.8212	1310.6426	1348.3478	1378.0766	1386.3074	1433.4702	1453.5081	1477.1169	1484.7569	1489.7666	1730.2376	1742.6015	1814.626	2977.8943	3016.4754	3022.2187	3059.9736	3062.5875	3161.0756	3165.0645	3183.9546	3224.6384
O=CN1C=CCCC=C1	O=CN1C=CCCC=C1	
InChI=1S/C7H9NO/c9-7-8-5-3-1-2-4-6-8/h3-7H,1-2H2	InChI=1S/C7H9NO/c9-7-8-5-3-1-2-4-6-8/h3-7H,1-2H2
