19
gdb 56011	4.37374	0.83401	0.81622	3.5261	79.4	-0.2359	0.0178	0.2537	1471.5624	0.161073	-419.262491	-419.25358	-419.252635	-419.297273	33.19	
N	-0.0135226332	 1.3810280224	-0.0648377428	-0.568143
C	 0.078246418	 0.0092007875	 0.1634591982	 0.450336
O	 1.0776119238	-0.5086295177	 0.6277665577	-0.390539
N	-1.0477118976	-0.6899542319	-0.207523525	-0.348491
C	-1.0826418528	-2.1452920408	-0.2038336658	 0.02198
C	-2.3204863977	-2.727170026	 0.5353716345	-0.2291
C	-2.7619502811	-3.9625681631	-0.2873493338	-0.253661
C	-2.1005553701	-3.7366892378	-1.6269784246	-0.068204
C	-1.1918896526	-2.7651163026	-1.5819447086	-0.089188
H	 0.7114989834	 1.8903089847	 0.4182191055	 0.25878
H	-0.9262866577	 1.8040794182	 0.0197733168	 0.243867
H	-1.7240528614	-0.22248812	-0.7918003532	 0.232769
H	-0.1453250595	-2.4403696202	 0.2788764263	 0.128821
H	-2.1083620512	-2.958196273	 1.5817270745	 0.107242
H	-3.1142774402	-1.9726005334	 0.5263431784	 0.095189
H	-2.4014911517	-4.8972576041	 0.1637799358	 0.112357
H	-3.8513298847	-4.0600823119	-0.3585067462	 0.102213
H	-2.3244992256	-4.3439804224	-2.4974301514	 0.095045
H	-0.553852838	-2.4475931875	-2.3993680865	 0.098727
38.2234	75.6724	84.6149	201.559	295.8306	353.3333	370.6371	409.4622	468.0822	535.6346	564.8744	607.7001	681.4732	754.4637	775.0968	783.6744	847.2559	902.7508	925.5335	963.6598	981.5794	1001.8874	1053.0505	1080.3206	1095.145	1120.7668	1160.6382	1187.1408	1230.4875	1286.9561	1296.9565	1310.955	1326.143	1364.3534	1390.1425	1484.2208	1501.008	1534.4808	1626.7893	1686.3742	1799.1258	3015.283	3043.8973	3058.0807	3067.8232	3107.7457	3181.1597	3207.1859	3568.2314	3613.8268	3681.4319
NC(=O)NC1CCC=C1	NC(=O)N[C@H]1CCC=C1	
InChI=1S/C6H10N2O/c7-6(9)8-5-3-1-2-4-5/h1,3,5H,2,4H2,(H3,7,8,9)	InChI=1S/C6H10N2O/c7-6(9)8-5-3-1-2-4-5/h1,3,5H,2,4H2,(H3,7,8,9)/t5-/m1/s1
