21
gdb 105475	2.11234	1.15541	0.87675	1.7093	88.	-0.2415	0.0355	0.277	1454.0834	0.18012	-387.055937	-387.045406	-387.044462	-387.092966	36.859	
C	-0.2216554029	 1.4553164786	-0.0441938117	-0.386716
C	 0.1108872533	-0.0378579298	-0.0390629945	-0.219102
C	 0.8656219519	-0.4903169042	-1.2943631211	 0.224638
C	 0.8813211353	-2.0296036262	-1.5440059633	-0.335987
C	 0.0268394226	-1.7057822848	-2.7814944348	-0.064685
O	 0.039050784	-0.2945425872	-2.4875683584	-0.308275
C	 2.1642692087	 0.1635134385	-1.4238431303	 0.104874
C	 3.243915205	 0.6884625206	-1.5267985997	 0.040326
C	 4.5440331805	 1.328894621	-1.6626828371	-0.500661
H	 0.6891312027	 2.0610158306	-0.0515671911	 0.12477
H	-0.8054119258	 1.7095720009	-0.9332658135	 0.135497
H	-0.8057669017	 1.726823576	 0.8400427359	 0.107239
H	 0.7160655731	-0.2986209092	 0.8381799192	 0.100138
H	-0.8126889471	-0.6260580824	 0.0181735012	 0.093633
H	 1.8658901919	-2.4497218381	-1.7462858905	 0.117616
H	 0.3865479735	-2.6113584274	-0.7641580965	 0.110146
H	 0.4970467846	-1.9242978595	-3.7477947862	 0.104806
H	-0.9910813117	-2.113592271	-2.7838905068	 0.101379
H	 5.3137195796	 0.6117340398	-1.9686316332	 0.147891
H	 4.5127452914	 2.1232438186	-2.4166091409	 0.153524
H	 4.8666263311	 1.7813044251	-0.7185135466	 0.148946
34.6747	56.4052	83.8507	116.7343	128.3154	212.4806	234.5287	291.4443	317.9454	361.7282	411.6442	497.3675	547.3261	602.3598	762.949	789.7762	847.4575	866.2261	929.5529	977.7552	1005.2523	1021.1051	1031.6092	1051.3577	1054.5467	1092.546	1126.1925	1156.0234	1167.4999	1212.0272	1256.2553	1259.9372	1324.8161	1347.259	1367.1334	1406.2647	1413.9247	1472.5994	1477.2134	1478.6184	1487.4184	1495.5315	1510.2471	1532.1588	2362.0075	3018.3011	3025.6842	3027.3708	3044.1648	3056.5449	3065.677	3084.3708	3088.1208	3089.5803	3113.3806	3123.1762	3147.1136
CCC1(CCO1)C#CC	CC[C@]1(CCO1)C#CC	
InChI=1S/C8H12O/c1-3-5-8(4-2)6-7-9-8/h4,6-7H2,1-2H3	InChI=1S/C8H12O/c1-3-5-8(4-2)6-7-9-8/h4,6-7H2,1-2H3/t8-/m1/s1
