21
gdb 126506	3.00094	0.98058	0.78919	2.6088	85.6	-0.2219	0.0285	0.2504	1510.6603	0.183345	-383.310345	-383.300557	-383.299613	-383.346195	35.02	
C	 0.0702542318	 1.6194484288	-0.1031579144	-0.378719
C	 0.0541157426	 0.0894957647	-0.0750034787	-0.148685
C	-1.3684523589	-0.4939083628	 0.0349268294	-0.321378
C	-1.4086749666	-1.9933203994	 0.045538221	 0.128797
C	-1.3678176539	-2.8441344373	 1.1405337524	 0.279831
C	-1.2917714544	-2.5775603788	 2.608506575	-0.506808
N	-1.3989533347	-4.1051112823	 0.631640175	-0.245324
N	-1.4617706987	-4.1469308932	-0.7137445004	-0.233749
C	-1.4644558157	-2.8665906238	-1.0678219305	-0.079056
H	 1.0909443726	 2.0073346196	-0.1780578958	 0.111465
H	-0.4962020012	 2.0062534073	-0.9578079144	 0.114099
H	-0.3790378307	 2.0380247584	 0.8047670247	 0.111022
H	 0.531386646	-0.3068709099	-0.979442957	 0.101617
H	 0.6554895903	-0.2748594256	 0.7672949654	 0.093867
H	-1.8433496384	-0.0979059458	 0.9423321194	 0.093684
H	-1.9692601014	-0.1203165788	-0.8041193106	 0.102229
H	-1.9174577568	-3.2740936652	 3.1772947898	 0.128833
H	-0.2680925617	-2.6645941883	 2.9924818402	 0.139228
H	-1.6387417528	-1.5652471085	 2.8302665275	 0.142191
H	-1.4009979468	-4.9700720029	 1.1456975767	 0.265143
H	-1.5158554206	-2.6015844064	-2.1149348547	 0.101713
42.2555	72.8605	86.0139	116.7992	231.5603	241.6785	253.9775	309.0637	370.3154	411.6139	501.3489	653.1036	682.2113	696.8173	743.3966	763.7478	870.3044	883.7366	899.015	951.8904	1000.8227	1042.3522	1058.0883	1069.6085	1110.3303	1141.8608	1190.8343	1235.5716	1267.9289	1302.7224	1312.8316	1326.2379	1376.7461	1392.2137	1410.7628	1415.7891	1447.9761	1479.2169	1486.1322	1487.9939	1493.321	1497.908	1509.9282	1524.7994	1625.7637	3012.3747	3025.942	3026.6864	3028.8885	3041.7346	3064.6527	3078.9378	3094.5114	3100.858	3116.9832	3231.7355	3666.3962
CCCC1=C(C)NN=C1	CCCc1c(C)[nH]nc1	
InChI=1S/C7H12N2/c1-3-4-7-5-8-9-6(7)2/h5H,3-4H2,1-2H3,(H,8,9)	InChI=1S/C7H12N2/c1-3-4-7-5-8-9-6(7)2/h5H,3-4H2,1-2H3,(H,8,9)
