16
gdb 20143	4.96588	1.5382	1.49227	3.0367	63.31	-0.2415	0.0695	0.311	882.8404	0.130338	-383.661508	-383.654693	-383.653749	-383.69284	25.83	
C	-0.4284143605	 0.946869115	-0.4137569404	-0.171455
O	 0.4786845017	 1.3892221995	 0.600007027	-0.238874
C	 0.473569456	 0.003868776	 0.2578974786	 0.068543
C	 0.0108909194	-0.9454101804	 1.332616771	 0.090472
O	-1.3618451921	-0.7463802097	 1.7781331844	-0.297587
C	-1.6411564936	-2.1327791127	 1.5594748277	 0.11445
C	-1.5213986385	-2.4925736576	 0.114359378	-0.298879
C	-0.2755452968	-2.4068500758	 0.976517675	-0.154543
H	-1.4767429672	 0.9606513289	-0.1282483681	 0.132965
H	-0.2001286093	 1.2831117205	-1.4243735849	 0.110943
H	 1.3676606269	-0.3347345101	-0.2710345623	 0.094152
H	 0.6806568626	-0.8654806042	 2.1988445683	 0.099141
H	-2.2409974631	-2.6487512486	 2.2994664702	 0.109241
H	-1.8126301992	-3.5086191533	-0.1341601165	 0.11797
H	-1.7323535112	-1.7537870313	-0.6517699212	 0.120392
H	 0.4034019949	-3.2348340363	 1.1257911833	 0.103067
81.3464	145.5507	193.7285	321.4697	403.0085	483.7659	597.2154	722.404	773.493	810.0835	842.8718	870.7637	924.2094	948.6175	973.2163	987.5281	1021.8122	1045.6177	1050.5369	1059.1196	1086.557	1099.4332	1124.6512	1160.4456	1175.1743	1198.2479	1250.7615	1280.3811	1294.1382	1356.0267	1370.0863	1436.1217	1474.1889	1519.2116	3024.0446	3083.0331	3093.837	3126.3909	3186.4112	3192.2145	3207.0029	3217.2043
C1OC1C1OC2CC12	C1O[C@H]1[C@H]1O[C@H]2C[C@@H]12	
InChI=1S/C6H8O2/c1-3-4(1)8-6(3)5-2-7-5/h3-6H,1-2H2	InChI=1S/C6H8O2/c1-3-4(1)8-6(3)5-2-7-5/h3-6H,1-2H2/t3-,4+,5-,6+/m1/s1
