15
gdb 77852	2.16249	1.66221	1.58203	2.65	71.93	-0.2493	-0.0141	0.2352	954.511	0.111605	-416.717211	-416.709239	-416.708295	-416.749546	30.546	
O	 0.1520510739	 1.4372914582	 0.1876156447	-0.421283
C	 0.03761069	 0.0623753977	-0.0086449182	 0.019326
C	-1.3193609694	-0.6572504667	 0.0115568059	-0.079957
C	-2.1306588104	-0.3754540888	-1.1960573226	-0.221678
C	-2.1060300603	 0.8841545142	-1.8912496221	 0.34513
C	-2.110939354	 1.9344663422	-2.479025323	-0.435673
N	-1.0086539068	-1.3740867529	-1.3023122362	-0.1572
C	 0.2053709271	-0.5730535392	-1.4059694191	 0.32285
N	 1.0160760491	-0.574328612	-2.3612886195	-0.499279
H	-0.4179214301	 1.8745296287	-0.4584803323	 0.293254
H	 0.7249318674	-0.4158620025	 0.6971840469	 0.127263
H	-1.7349199868	-1.2006837182	 0.8524474507	 0.115586
H	-3.0893354293	-0.8856829899	-1.2379722969	 0.139512
H	-2.1220300078	 2.8521477006	-3.0149966022	 0.2161
H	 1.7907203771	 0.0647557184	-2.1686088359	 0.236047
104.4234	131.3091	198.5582	245.0351	261.635	430.7652	440.1012	483.4958	533.9916	611.3803	626.5444	670.2796	673.9279	693.9524	778.8008	826.9512	865.9169	911.1088	938.1841	948.7966	972.0472	1062.2472	1092.3318	1154.1747	1205.4228	1217.4501	1275.1483	1302.3424	1340.4692	1391.6314	1444.5827	1808.8783	2228.5696	3068.1126	3148.9457	3185.0846	3459.5322	3495.4346	3761.2282
OC1C2C(C#C)N2C1=N	O[C@H]1[C@H]2[C@@H](C#C)N2[C]1[NH]	
InChI=1S/C6H6N2O/c1-2-3-4-5(9)6(7)8(3)4/h1,3-5,7,9H	InChI=1S/C6H6N2O/c1-2-3-4-5(9)6(7)8(3)4/h1,3-5,7,9H/t3-,4-,5+,8?/m1/s1
