20
gdb 119134	2.26962	1.42086	0.98506	6.6996	75.47	-0.2389	0.0368	0.2757	1237.2153	0.17184	-440.312382	-440.303372	-440.302427	-440.346428	34.19	
N	-2.0110155792	-1.6750678293	 2.1958780934	-0.50945
H	-1.3294989914	-1.9471901656	 1.4934231049	 0.248955
H	-2.256633831	-2.5132446716	 2.711944892	 0.250143
H	-1.3814435362	-0.3438401084	 3.0416093634	 0.325861
C	-3.194023487	-1.0660867819	 1.5586625302	-0.164577
C	-2.9134543051	 0.3912244469	 1.1616486359	-0.301254
C	-2.9635883594	 1.4318004198	 2.2781704794	 0.177732
C	-3.5539392195	 2.7836293835	 1.9137605673	-0.287279
C	-4.3450691737	 1.8541468395	 2.7757013756	-0.280719
C	-1.88494057	 1.5248590484	 3.3463027959	 0.356336
O	-1.7678541228	 2.5161134331	 4.0295366278	-0.352865
O	-1.074719898	 0.4806388672	 3.5156623017	-0.397268
H	-3.5179713447	-1.6313539307	 0.6737973779	 0.101336
H	-4.0167411176	-1.0969645066	 2.2803415631	 0.123783
H	-1.9454232287	 0.4401916861	 0.6440337482	 0.107295
H	-3.6633330172	 0.6763077687	 0.4157894488	 0.106213
H	-3.0973986072	 3.6388119053	 2.3945615319	 0.148184
H	-3.8633232467	 2.9242353475	 0.8838333801	 0.104816
H	-5.2024459266	 1.3451120511	 2.3462933542	 0.105334
H	-4.4318388681	 2.0956839969	 3.8281071482	 0.137425
53.7798	89.7257	201.1825	245.355	255.0537	283.1552	327.3006	341.6198	390.3606	464.3386	506.4258	580.1007	740.7551	761.1517	794.8338	851.285	869.2635	890.7512	922.2156	956.6762	978.6318	990.9909	1022.3845	1035.6398	1065.9142	1088.8615	1097.6409	1161.5848	1204.0754	1221.4932	1275.8519	1299.1032	1335.9592	1362.2284	1389.7585	1412.2824	1453.511	1472.3244	1477.1127	1488.0799	1506.4279	1652.1769	1815.8524	3001.3044	3018.7433	3066.6281	3080.7014	3097.3244	3130.9452	3143.3201	3225.5539	3246.9867	3501.8324	3582.3284
[NH3+]CCC1(CC1)C([O-])=O	NCCC1(CC1)C(=O)O	
InChI=1S/C6H11NO2/c7-4-3-6(1-2-6)5(8)9/h1-4,7H2,(H,8,9)	InChI=1S/C6H11NO2/c7-4-3-6(1-2-6)5(8)9/h1-4,7H2,(H,8,9)
