23
gdb 115707	2.41696	1.09837	0.83647	1.1123	81.78	-0.2519	0.0678	0.3197	1449.2764	0.204406	-425.409362	-425.398906	-425.397962	-425.444781	38.7	
C	-0.0547953898	 1.6540455785	-0.006025091	-0.404818
C	 0.0049189142	 0.1668973837	 0.3472062438	 0.119414
O	 0.3200010597	-0.0254074259	 1.7283985229	-0.434137
C	-1.277167472	-0.5655880064	-0.0363444244	 0.007339
C	-1.6218971041	-0.7533976644	-1.5421396908	-0.244027
C	-2.1308637216	-2.1834703751	-1.2150691908	-0.220387
C	-1.3965945344	-2.1134079541	 0.1552919888	 0.005502
C	-0.083866809	-2.8791331401	 0.1886591654	-0.097613
O	-0.406365295	-4.2652402907	 0.1692470322	-0.429575
H	 0.8722621637	 2.152527015	 0.2897306052	 0.121984
H	-0.2030826922	 1.8016662238	-1.0806855414	 0.120617
H	-0.8878950446	 2.1421663672	 0.5154594204	 0.104287
H	 0.8520047242	-0.2844337847	-0.1835394381	 0.084456
H	-0.4121328212	 0.3285832338	 2.2457740877	 0.275041
H	-2.116761479	-0.0760226057	 0.4767919936	 0.057556
H	-2.3312819974	-0.0513299829	-1.9866354121	 0.095078
H	-0.7208128809	-0.7659774081	-2.1644230719	 0.098193
H	-3.217445773	-2.2192016409	-1.101947073	 0.097214
H	-1.8271399628	-2.993625965	-1.8813278162	 0.106882
H	-1.9878094778	-2.4296553441	 1.01903872	 0.070786
H	 0.5384018036	-2.614033068	-0.6826659976	 0.07504
H	 0.4773432425	-2.6057410732	 1.0929405257	 0.10752
H	 0.4147158567	-4.7627371227	 0.2208229716	 0.283647
74.1224	107.3037	118.543	139.2586	205.1848	240.5599	251.1252	280.4063	295.3206	328.2847	368.135	434.7353	475.012	557.697	684.1384	769.9529	827.9479	884.4662	897.5267	924.0742	952.2436	974.861	989.3748	1047.5377	1062.6762	1077.2837	1088.9536	1104.1883	1160.8177	1180.4148	1198.1399	1232.1059	1244.5906	1251.4611	1262.3281	1279.9384	1289.4848	1303.6691	1336.5921	1364.9917	1398.164	1400.8152	1417.7291	1458.5891	1483.7729	1491.1606	1494.5527	1500.2441	1530.3714	2957.4576	3000.5998	3023.1633	3023.8487	3040.1339	3047.9561	3061.3185	3071.7239	3094.2111	3098.1449	3117.9083	3119.7993	3796.0476	3830.6294
CC(O)C1CCC1CO	C[C@@H](O)[C@H]1CC[C@H]1CO	
InChI=1S/C7H14O2/c1-5(9)7-3-2-6(7)4-8/h5-9H,2-4H2,1H3	InChI=1S/C7H14O2/c1-5(9)7-3-2-6(7)4-8/h5-9H,2-4H2,1H3/t5-,6+,7-/m1/s1
