23
gdb 119729	3.34221	0.96519	0.86362	1.905	85.32	-0.2375	0.0679	0.3053	1466.5758	0.205674	-388.264997	-388.255674	-388.254729	-388.299599	35.055	
C	 0.0865324395	 1.5922519	 0.079118441	-0.380217
C	 0.0080273743	 0.0658806212	-0.0077580194	-0.164472
C	 0.7518846227	-0.5068797517	-1.2231680639	-0.308029
C	 0.6867131575	-2.0171350647	-1.3051343852	 0.336345
C	 1.5083329114	-2.8638950774	-0.2818751418	-0.287541
C	 2.1402700812	-3.6805164989	-1.4528427734	-0.229887
C	 1.2731735802	-2.8923354324	-2.4572661803	 0.055271
O	-0.0082405729	-3.5099723094	-2.6949756699	-0.294717
C	-0.6489814403	-2.6836885391	-1.6967659299	-0.120527
H	 1.1257863564	 1.9308177746	 0.1562987753	 0.114334
H	-0.347714975	 2.0624119539	-0.8101877782	 0.115167
H	-0.4527204525	 1.9710148246	 0.9529320814	 0.112242
H	 0.4187736556	-0.3754152255	 0.9094387015	 0.100953
H	-1.044493033	-0.2442903976	-0.0482571394	 0.099489
H	 0.3330994398	-0.074402928	-2.142676089	 0.095379
H	 1.8032132962	-0.1886290841	-1.1864870076	 0.091669
H	 2.2367873546	-2.2722320469	 0.2790495167	 0.100028
H	 0.9119970234	-3.4362297467	 0.4339331918	 0.099183
H	 3.2131613304	-3.5051487028	-1.5718650176	 0.099404
H	 1.9539255371	-4.7564778013	-1.4593616217	 0.109987
H	 1.7286774341	-2.5135967754	-3.377597828	 0.067879
H	-1.1540968179	-3.2776049891	-0.9239643197	 0.095466
H	-1.3792510631	-2.0012800233	-2.1544622528	 0.092592
73.2488	93.7379	109.684	123.8685	251.1714	280.0589	304.1505	340.9992	385.5528	418.6612	669.2987	689.1339	741.23	744.9943	860.214	872.5211	879.8819	897.6978	932.1287	940.3478	956.6303	1005.3471	1029.0273	1041.9106	1049.2515	1067.9595	1112.9393	1138.5062	1153.6889	1194.5637	1217.9249	1226.9829	1247.3622	1269.1727	1284.7662	1297.2078	1315.3215	1328.7311	1336.1805	1376.8198	1394.6765	1413.4839	1464.03	1478.7515	1488.0128	1492.9217	1500.6699	1509.2612	1522.6364	2990.9583	3001.1204	3018.6971	3029.1042	3029.9101	3038.4192	3051.8224	3052.7393	3055.9968	3066.4285	3096.8613	3099.2562	3102.4364	3123.4269
CCCC12CCC1OC2	CCC[C@]12CC[C@H]1OC2	
InChI=1S/C8H14O/c1-2-4-8-5-3-7(8)9-6-8/h7H,2-6H2,1H3	InChI=1S/C8H14O/c1-2-4-8-5-3-7(8)9-6-8/h7H,2-6H2,1H3/t7-,8-/m1/s1
