21
gdb 78548	2.59776	1.45968	1.13918	1.6339	83.24	-0.2347	0.0778	0.3125	1166.3353	0.181176	-387.046181	-387.036982	-387.036038	-387.079785	35.401	
C	 0.0226875929	 1.5813444052	 0.0533441492	-0.498911
C	-0.006060432	 0.0806659984	 0.0368600284	 0.307031
C	-1.2923787273	-0.7627748948	-0.0396023331	-0.368866
C	-0.6645987733	-1.764295883	 0.9499075157	 0.37867
C	-1.3613745874	-2.4124080351	 2.1017602868	-0.348321
C	-0.8072183994	-3.2689847684	 0.9818944911	-0.339378
C	 0.6130386646	-0.9533367837	 1.0258655347	-0.257222
C	 1.1662793418	-0.7725754591	-0.35690928	 0.078689
O	 1.1179959675	-1.7574023568	-1.3517616058	-0.436995
H	 1.0297199957	 1.9576406992	 0.2623553791	 0.117283
H	-0.2875984203	 1.9903281773	-0.9162104605	 0.123368
H	-0.6509677952	 1.9900429845	 0.8156563073	 0.11532
H	-2.1603216547	-0.2482870951	 0.3822848806	 0.101721
H	-1.5448313911	-1.1415388712	-1.0352189445	 0.101777
H	-0.8527398466	-2.4394045125	 3.0603991137	 0.114279
H	-2.4392709303	-2.305459799	 2.1723153419	 0.11359
H	-1.5162639409	-3.7323757354	 0.3028326728	 0.11645
H	 0.0695656712	-3.8732094508	 1.195754431	 0.113707
H	 1.2023019956	-0.799372021	 1.9243992224	 0.080412
H	 2.107794445	-0.227642696	-0.3959036846	 0.092261
H	 0.7449485042	-2.5530368628	-0.9585755562	 0.295133
81.2898	125.9029	187.36	196.2895	225.8003	247.4279	297.2316	344.9323	379.5464	487.3295	512.5197	618.1055	657.9549	780.1115	783.1787	830.4905	858.7312	883.4844	922.6391	945.5275	963.2434	979.2746	992.4801	1004.0432	1045.8714	1070.3509	1078.4702	1107.3676	1142.1018	1175.0147	1190.2378	1204.4951	1223.7966	1256.691	1292.2008	1296.5891	1368.3527	1391.5602	1416.2609	1453.7633	1463.3457	1482.5452	1489.6687	1498.9528	1503.6525	3017.3775	3043.4306	3075.1073	3091.9472	3096.2669	3117.1873	3122.7094	3126.8981	3158.051	3196.5523	3211.7013	3813.7913
CC12CC3(CC3)C1C2O	C[C@]12CC3(CC3)[C@H]1[C@H]2O	
InChI=1S/C8H12O/c1-7-4-8(2-3-8)5(7)6(7)9/h5-6,9H,2-4H2,1H3	InChI=1S/C8H12O/c1-7-4-8(2-3-8)5(7)6(7)9/h5-6,9H,2-4H2,1H3/t5-,6+,7-/m0/s1
