20
gdb 110619	2.97529	1.35803	1.19119	2.1866	78.91	-0.2425	0.0868	0.3293	1137.3941	0.170672	-403.078391	-403.069747	-403.068803	-403.111616	32.915	
C	-0.3951116947	 1.0525273714	 0.1183710479	-0.237222
O	 0.5355490838	 0.0183035572	-0.1328821946	-0.236111
C	 0.9486667644	-0.6312900154	 1.0256283145	 0.130294
C	 0.1363065799	-1.7083076442	 1.7054223075	-0.149874
C	-0.5978118244	-2.5621032555	 0.6975973724	-0.095539
N	-0.0706401003	-3.9296135797	 0.6141580772	-0.372695
C	 0.6786705123	-2.8569517887	-0.0467412305	 0.352844
C	 0.9534186996	-2.9429142722	-1.5183218585	-0.484747
C	 1.4671251227	-2.0264547921	 0.9543379208	-0.20991
H	 0.0309544589	 1.8304032731	 0.7703283439	 0.106149
H	-0.6483702241	 1.4989968696	-0.8456542341	 0.129189
H	-1.3101059208	 0.6681190217	 0.5910402235	 0.11241
H	 1.4821250049	 0.0221833227	 1.7228551032	 0.085053
H	-0.034316435	-1.7063822586	 2.7774054201	 0.087369
H	-1.5871081554	-2.3808845629	 0.2945370053	 0.095065
H	 0.3570203239	-4.2224732527	 1.4905101282	 0.22116
H	 0.1406564827	-3.4693193682	-2.0250097777	 0.127401
H	 1.0532760637	-1.9403888195	-1.9425104409	 0.137275
H	 1.8811699214	-3.4939233671	-1.7133731617	 0.113929
H	 2.4273992565	-2.3020518688	 1.3788714235	 0.087959
84.6213	130.0153	164.6726	205.7352	228.2427	281.9099	324.8654	381.5264	465.4347	587.1362	631.9674	678.9553	744.1917	796.862	806.235	859.5764	926.204	951.9975	969.2994	991.1212	1006.8626	1067.3142	1078.9629	1085.5621	1095.0767	1115.6075	1132.7895	1173.4888	1181.8287	1199.1447	1242.5596	1248.6969	1275.6532	1312.6229	1327.9198	1395.8871	1422.23	1440.6278	1484.8691	1486.8725	1490.6822	1495.6343	1508.8477	2983.0526	3033.7078	3035.2424	3058.762	3100.0806	3121.7864	3131.0264	3155.0962	3165.5597	3184.308	3467.5239
COC1C2C3NC3(C)C12	CO[C@H]1[C@H]2[C@@H]3N[C@]3(C)[C@@H]12	
InChI=1S/C7H11NO/c1-7-4-3(5(4)9-2)6(7)8-7/h3-6,8H,1-2H3	InChI=1S/C7H11NO/c1-7-4-3(5(4)9-2)6(7)8-7/h3-6,8H,1-2H3/t3-,4+,5-,6-,7+/m0/s1
