19
gdb 65601	3.55691	1.17635	1.16224	2.7469	74.77	-0.2521	-0.0229	0.2292	1127.2766	0.158591	-423.034862	-423.026554	-423.02561	-423.067727	31.884	
C	 0.4334964967	 1.3283113815	 0.0318957405	-0.441469
C	-0.1115182508	-0.1029652426	-0.0008230188	 0.20878
C	 0.4423655715	-0.9199956525	-1.2176834926	-0.300674
C	 1.5939651462	-1.7342966891	-0.6667016729	 0.052469
O	 2.5258922306	-0.971297816	 0.1129377311	-0.25042
C	 1.5281302552	-1.7426238041	 0.7971396206	 0.052405
C	 0.3312824901	-0.9340810642	 1.2517061096	-0.300599
C	-1.63085263	-0.0959471077	-0.068616207	 0.124154
O	-2.3276689397	 0.8834444955	-0.0928070286	-0.248244
H	 1.5232182072	 1.3118597094	 0.080384954	 0.137209
H	 0.1224258332	 1.8793674311	-0.8601407797	 0.121521
H	 0.0440571492	 1.8690802051	 0.8991089353	 0.121562
H	-0.3136779359	-1.6117527802	-1.6138052993	 0.104588
H	 0.737832076	-0.2579813903	-2.0367433992	 0.123715
H	 2.0271057695	-2.5441302339	-1.2486618881	 0.099202
H	 1.9077605636	-2.559226065	 1.4063612028	 0.099215
H	 0.551569747	-0.2814336648	 2.1013667588	 0.123748
H	-0.4568686647	-1.629940134	 1.5704988383	 0.104615
H	-2.0810596749	-1.1187587382	-0.0958890748	 0.068224
75.3909	125.9577	224.763	262.5975	277.6552	347.5579	352.8671	388.8684	398.4994	496.9881	671.6417	727.3758	781.0583	804.834	865.1489	877.2591	916.8069	933.0063	950.6429	991.7163	993.6907	1035.2682	1035.8443	1102.0516	1151.6881	1164.5946	1173.4877	1219.9014	1263.9799	1307.6659	1308.3241	1328.6095	1340.7157	1401.3829	1428.3297	1449.7024	1470.6177	1477.5637	1493.5988	1504.1226	1834.5367	2829.3576	3020.114	3023.0329	3049.9632	3087.256	3089.3489	3115.5811	3140.5697	3148.6745	3153.2649
CC1(CC2OC2C1)C=O	C[C@]1(C[C@H]2O[C@H]2C1)C=O	
InChI=1S/C7H10O2/c1-7(4-8)2-5-6(3-7)9-5/h4-6H,2-3H2,1H3	InChI=1S/C7H10O2/c1-7(4-8)2-5-6(3-7)9-5/h4-6H,2-3H2,1H3/t5-,6+,7-
