21
gdb 122815	6.85959	0.50575	0.47798	1.1287	77.	-0.2663	0.02	0.2864	2287.4157	0.179627	-461.399893	-461.388646	-461.387702	-461.438707	37.766	
C	-0.0888851914	 1.4007025452	 0.1872585908	-0.370014
C	 0.0590201548	-0.0967502067	-0.0699941913	-0.301968
C	 0.7943649804	-0.4012372311	-1.3597693032	 0.444181
O	 1.2320782232	 0.4172201528	-2.1294909909	-0.354687
O	 0.901830301	-1.7335614543	-1.545735981	-0.247957
C	 1.5846222203	-2.1457262895	-2.743104876	-0.065759
C	 1.5979050535	-3.6650058804	-2.7622051987	-0.190251
C	 2.3022461347	-4.2168934401	-3.9958460818	-0.072905
O	 2.2580687744	-5.6321716538	-3.9155051129	-0.419141
H	 0.8885792496	 1.8855562829	 0.249664615	 0.131943
H	-0.6410737582	 1.8842863071	-0.6224594298	 0.131958
H	-0.6235141802	 1.5768999988	 1.1247293656	 0.111234
H	 0.5980082896	-0.5939435635	 0.7452204579	 0.131684
H	-0.9164365426	-0.5952223893	-0.1179348374	 0.13169
H	 1.0643981691	-1.7288298333	-3.6124589193	 0.119296
H	 2.5967287756	-1.7263952601	-2.7395298926	 0.119307
H	 2.1009284768	-4.0421945362	-1.8654997268	 0.118014
H	 0.5709455674	-4.0446845178	-2.7380287068	 0.118019
H	 1.801014214	-3.8522229364	-4.9075798736	 0.088983
H	 3.3415139295	-3.8504233308	-4.0288410593	 0.088992
H	 2.7004225285	-5.9914756835	-4.6899537879	 0.287383
23.6729	45.476	73.5674	84.936	117.8904	167.0737	209.9632	219.351	269.3184	274.5154	311.0619	460.6585	507.6244	580.4954	667.2886	773.9167	810.0393	882.2398	893.5351	984.8091	1024.5268	1033.959	1075.9737	1097.223	1107.602	1108.2894	1174.4735	1216.7879	1231.8359	1244.9251	1277.1381	1298.4793	1308.9805	1319.7222	1375.8585	1417.2782	1424.7311	1458.8742	1468.476	1494.2958	1498.4893	1500.8715	1517.2065	1532.7171	1817.5825	2959.828	2984.7437	3039.1923	3042.1632	3052.2054	3052.3072	3071.2228	3074.4254	3102.9594	3123.7753	3129.1705	3831.435
CCC(=O)OCCCO	CCC(=O)OCCCO	
InChI=1S/C6H12O3/c1-2-6(8)9-5-3-4-7/h7H,2-5H2,1H3	InChI=1S/C6H12O3/c1-2-6(8)9-5-3-4-7/h7H,2-5H2,1H3
