19
gdb 114847	3.00035	1.47393	1.31938	2.437	68.87	-0.261	0.0718	0.3328	1027.967	0.162287	-460.163705	-460.156249	-460.155305	-460.195966	29.391	
O	 0.0771888964	 1.3710365762	 0.1886558819	-0.427199
C	 0.0141091928	 0.0042763843	-0.1843151484	-0.076487
C	-1.4020481617	-0.5737711213	-0.0690034072	-0.030616
C	-1.4553429821	-2.1325618342	 0.0190497171	-0.259861
C	-2.0976469621	-2.3152079001	 1.4110667618	 0.043169
C	-1.1157044739	-1.840547022	 2.5037820194	-0.090129
O	-1.1548076622	-0.4098060018	 2.334097364	-0.287846
C	-2.0952092487	-0.2169172998	 1.2683017767	 0.173007
O	-3.0494988653	-1.2372458054	 1.4458813225	-0.244041
H	 0.0159257181	 1.3891680108	 1.1504920965	 0.292937
H	 0.3564190458	-0.0508279782	-1.223191839	 0.108438
H	 0.7091046209	-0.5977799746	 0.4182826354	 0.088386
H	-2.0189778273	-0.2014967942	-0.8919879999	 0.086597
H	-2.0930964391	-2.5649323233	-0.7542469533	 0.112988
H	-0.466854232	-2.5964854461	-0.0524253237	 0.102168
H	-2.591252663	-3.2664818273	 1.6032024717	 0.090723
H	-1.4602515848	-2.0960077622	 3.511568755	 0.112783
H	-0.0964668083	-2.2152227202	 2.3608678028	 0.104074
H	-2.5478190035	 0.7690392693	 1.3549179767	 0.100907
65.8023	143.9305	212.4024	306.6964	378.7662	404.3852	479.0035	571.5295	587.5197	633.9746	773.7895	820.5599	823.9171	876.7679	891.6094	918.1349	955.6888	975.3313	996.363	1020.7485	1034.2075	1058.1364	1078.3472	1108.9625	1112.8296	1170.3916	1195.4684	1226.3205	1256.2614	1264.7811	1303.9612	1305.9078	1334.2486	1342.5336	1358.2987	1379.7368	1410.0534	1421.3277	1491.3031	1502.657	1522.1118	3000.2255	3034.8694	3058.8569	3062.3409	3077.3112	3081.0455	3114.6515	3139.2947	3150.9456	3801.5851
OCC1CC2COC1O2	OC[C@H]1C[C@H]2CO[C@@H]1O2	
InChI=1S/C6H10O3/c7-2-4-1-5-3-8-6(4)9-5/h4-7H,1-3H2	InChI=1S/C6H10O3/c7-2-4-1-5-3-8-6(4)9-5/h4-7H,1-3H2/t4-,5+,6-/m1/s1
