20
gdb 40747	3.24742	1.36643	1.24712	1.2392	77.92	-0.2277	0.0751	0.3028	1085.7232	0.172231	-403.070096	-403.062342	-403.061398	-403.102767	30.333	
C	-0.3831661461	 1.1964028777	-0.2813479842	-0.228715
C	 1.0396589284	 1.0592018491	 0.1309856271	-0.227382
N	 0.1616961953	-0.1053660303	 0.0964201619	-0.082146
C	-0.2038573186	-0.7067542798	 1.3648692847	 0.037343
C	-0.6929417167	 0.1242469352	 2.6167960475	-0.280965
C	-2.0096092508	-0.671216071	 2.5944365924	 0.123228
O	-3.0125284117	-0.0378480883	 1.7677514257	-0.29941
C	-2.7226638972	-0.9266995738	 0.6589257242	-0.080724
C	-1.5244720097	-1.5355217567	 1.3944079729	-0.099513
H	-1.0648620903	 1.6989706038	 0.3995632911	 0.131154
H	-0.6380047341	 1.2992846363	-1.3327086081	 0.116015
H	 1.8353858467	 1.0758723619	-0.6086550276	 0.116228
H	 1.3130160642	 1.4645556441	 1.1039144535	 0.113291
H	 0.6387076273	-1.3431605858	 1.6516761609	 0.087048
H	-0.0771352013	-0.0527998022	 3.5029447525	 0.099068
H	-0.832526043	 1.2004979707	 2.4970165395	 0.111949
H	-2.4209487903	-1.0552277499	 3.5316915853	 0.07359
H	-3.5447131091	-1.6372729511	 0.5009635132	 0.098297
H	-2.5299775014	-0.3906849891	-0.2748045863	 0.116171
H	-1.4250172616	-2.6198663108	 1.397599204	 0.075473
61.9698	110.977	195.6073	261.7115	324.348	373.4519	453.7214	516.9158	647.1314	722.9019	785.5231	803.646	829.9531	879.7032	898.0783	910.0015	928.246	981.6693	998.8637	1008.7784	1029.5104	1040.5649	1076.8795	1093.7633	1114.7854	1123.4334	1150.8683	1167.8988	1179.673	1186.7156	1187.9898	1210.7942	1256.9511	1277.9967	1302.7895	1327.4402	1332.551	1356.139	1382.1573	1460.4728	1494.9061	1520.4956	1526.1637	3013.0644	3051.4846	3061.0047	3074.0153	3085.2961	3095.0886	3110.03	3120.7021	3122.196	3177.7754	3195.7927
C1CN1C1CC2OCC12	C1CN1[C@H]1C[C@H]2OC[C@@H]12	
InChI=1S/C7H11NO/c1-2-8(1)6-3-7-5(6)4-9-7/h5-7H,1-4H2	InChI=1S/C7H11NO/c1-2-8(1)6-3-7-5(6)4-9-7/h5-7H,1-4H2/t5-,6-,7+/m0/s1
