17
gdb 125370	2.4244	1.75699	1.03153	4.5583	79.98	-0.2212	-0.0301	0.1911	1131.5025	0.136597	-418.056302	-418.047718	-418.046774	-418.089467	31.717	
C	-0.0068897311	 1.5209945733	 0.0168792285	-0.478672
C	-0.0028991044	 0.0237080214	-0.0211685455	 0.152109
C	-0.0472671642	-0.6970552038	-1.1732112225	-0.051113
N	-0.0414690242	-2.0547481881	-1.1579858715	-0.235637
N	 0.0066374708	-2.809565642	-0.0483773889	-0.248064
C	 0.0509867577	-2.1820081166	 1.0937855523	 0.232515
C	 0.1054024689	-3.0015144008	 2.3455243683	-0.454833
C	 0.0512110477	-0.7088090631	 1.2353503145	 0.240563
O	 0.0943966576	-0.1683535601	 2.3397071044	-0.383541
H	 0.8878504328	 1.8927961158	 0.5273961887	 0.146195
H	-0.049264581	 1.9548960599	-0.9858891694	 0.109494
H	-0.8600433241	 1.8862967293	 0.5983497211	 0.146183
H	-0.0891912882	-0.245984905	-2.1595533148	 0.130279
H	-0.0746265165	-2.5846535824	-2.0130981655	 0.278322
H	 0.0971232213	-4.0662812657	 2.1087659989	 0.126587
H	 1.0043916587	-2.7537331911	 2.9193808682	 0.144766
H	-0.7423586217	-2.7562188611	 2.9935323131	 0.144847
99.4639	127.6113	131.1895	260.5163	261.237	288.489	298.9996	468.9389	476.2386	496.6774	522.7656	565.8332	611.674	684.4128	803.3163	884.2684	899.6955	929.8077	985.222	1049.4535	1052.9988	1063.0703	1104.5896	1257.0402	1293.233	1331.0908	1400.6709	1412.6346	1416.6851	1464.5877	1466.127	1466.3783	1487.3723	1528.7973	1622.3425	1666.4533	1706.1214	3036.0328	3044.753	3091.9841	3098.1748	3117.6646	3148.5521	3182.2255	3653.8926
CC1=CNN=C(C)C1=O	Cc1c[nH]nc(C)c1=O	
InChI=1S/C6H8N2O/c1-4-3-7-8-5(2)6(4)9/h3H,1-2H3,(H,7,9)	InChI=1S/C6H8N2O/c1-4-3-7-8-5(2)6(4)9/h3H,1-2H3,(H,7,9)
