17
gdb 55578	4.94319	0.75139	0.65491	3.4561	77.27	-0.2552	-0.0197	0.2355	1657.7954	0.136021	-451.383073	-451.373349	-451.372404	-451.418464	33.976	
C	-0.2192203394	 1.5836143305	-0.1435857235	-0.471122
C	 0.1824481676	 0.1604414461	 0.1523720193	 0.38433
N	 0.8116795559	-0.1426209243	 1.2083722216	-0.485503
N	-0.2282381567	-0.73195746	-0.8719443612	-0.441916
C	-0.0141328839	-2.0970071036	-0.9003383869	 0.559711
O	 0.5657073361	-2.7213310435	-0.0332698209	-0.384043
N	-0.5330803382	-2.7068735558	-2.035861202	-0.364149
C	-0.4327789077	-4.0687304001	-2.2715406717	 0.1096
N	-0.9285891928	-4.5643418608	-3.3301352847	-0.472131
H	 0.121046513	 2.219398732	 0.6721875538	 0.162079
H	 0.2279362873	 1.9338036434	-1.0814706646	 0.132377
H	-1.3076010367	 1.6754355643	-0.2395661162	 0.132417
H	 0.9994676101	-1.1451741971	 1.2432523599	 0.251918
H	-0.7223216582	-0.3176249573	-1.6467102637	 0.248353
H	-1.0128736442	-2.178251313	-2.750427045	 0.256367
H	 0.0937866379	-4.5867514224	-1.4684775911	 0.146431
H	-0.77342595	-5.5700024786	-3.355837083	 0.235281
58.3958	83.349	132.4179	142.2158	161.272	168.0501	277.3981	337.1339	400.0079	436.5624	515.5794	548.8956	552.2044	592.9905	763.6432	804.2232	826.8022	913.7545	965.4222	984.2874	1058.5028	1080.9668	1085.5258	1110.4857	1154.2078	1196.4668	1301.4442	1350.2241	1391.3431	1406.2644	1470.7103	1484.7861	1495.97	1523.9372	1726.7449	1748.2278	1807.172	3030.786	3085.302	3131.6956	3168.9205	3487.2113	3513.9855	3606.0079	3624.6486
CC(=N)NC(=O)NC=N	CC(=N)NC(=O)NC=N	
InChI=1S/C4H8N4O/c1-3(6)8-4(9)7-2-5/h2H,1H3,(H4,5,6,7,8,9)	InChI=1S/C4H8N4O/c1-3(6)8-4(9)7-2-5/h2H,1H3,(H4,5,6,7,8,9)
