21
gdb 108222	2.14392	1.31795	1.17227	1.652	79.09	-0.2305	0.0668	0.2973	1219.7021	0.180547	-424.18751	-424.177636	-424.176692	-424.222053	36.503	
C	-0.0126002694	 1.5383206285	-0.1369869057	-0.422917
C	 0.0627923903	 0.0271581017	-0.1595034457	-0.12974
C	 0.7296274619	-0.8082513731	-1.2567385577	 0.165339
C	 0.0255475713	-1.8878012514	-2.0189238969	-0.176187
O	-0.7145456719	-1.3895938095	-3.1294168973	-0.412405
C	 2.0276418981	-0.1250363596	-1.6712943712	-0.13756
O	 2.4685977055	-0.0266952157	-0.2902614252	-0.323738
C	 1.3098420258	-0.752665421	 0.151205174	 0.396708
C	 1.5104211942	-1.7454066807	 1.2505456417	-0.486926
H	 0.9705537941	 1.9790152989	-0.3170650419	 0.139898
H	-0.708924512	 1.9230775902	-0.8901808988	 0.110002
H	-0.3550642867	 1.8897732058	 0.8420855356	 0.118843
H	-0.8287918879	-0.4774328153	 0.213509517	 0.082405
H	 0.7483400727	-2.590935695	-2.448460841	 0.109918
H	-0.6198581169	-2.4631852143	-1.3351188661	 0.085097
H	-1.3253942994	-0.7270757941	-2.7897398881	 0.281891
H	 2.6941998857	-0.7834872786	-2.2410063479	 0.108128
H	 1.9695323617	 0.852149401	-2.1634165724	 0.104949
H	 1.8024642938	-1.233464532	 2.1747015611	 0.134352
H	 0.5860383666	-2.2953266577	 1.4485901662	 0.123118
H	 2.2989382223	-2.460782068	 0.9973397904	 0.128824
74.7563	112.9834	161.639	190.8493	194.6887	246.5527	259.4698	285.0181	311.154	355.5443	405.1807	505.368	576.7427	630.1019	755.9734	758.3616	809.6053	914.4877	921.9633	974.3086	984.6805	1011.069	1043.573	1062.2841	1099.4798	1114.4766	1124.1467	1149.2529	1161.2914	1205.7651	1262.0202	1280.9751	1318.4312	1352.9449	1371.2907	1408.4481	1409.1379	1422.1736	1473.2556	1483.4401	1492.0467	1496.665	1500.3305	1514.2161	1524.423	2968.8215	3023.311	3032.5433	3034.1599	3059.0455	3071.7641	3090.1933	3096.1334	3107.4355	3117.3208	3129.158	3810.4897
CC1C2(CO)COC12C	C[C@H]1[C@@]2(CO)CO[C@@]12C	
InChI=1S/C7H12O2/c1-5-6(2)7(5,3-8)4-9-6/h5,8H,3-4H2,1-2H3	InChI=1S/C7H12O2/c1-5-6(2)7(5,3-8)4-9-6/h5,8H,3-4H2,1-2H3/t5-,6+,7-/m1/s1
