19
gdb 98334	3.75765	0.88172	0.77585	3.6791	80.3	-0.2344	0.0413	0.2757	1503.3802	0.15681	-419.20095	-419.190048	-419.189104	-419.237939	37.417	
C	 0.115713043	 1.5017283593	 0.3265041312	-0.315342
N	 0.0235942368	 0.0925992621	-0.0159195526	-0.372323
C	-1.2178954915	-0.5091751671	-0.0289368052	 0.515522
O	-2.250410929	 0.1327039601	 0.1046321521	-0.427571
N	-1.2109578633	-1.8777261181	-0.2390317198	-0.13092
C	-0.0065218417	-2.6556401895	-0.4537526153	-0.359208
C	-2.4840453027	-2.5811406012	-0.1336918258	-0.315292
C	-2.8151387412	-3.3572571646	-1.3286718054	 0.308677
C	-3.0739112355	-4.0163968449	-2.2998608886	-0.458684
H	 1.0785197146	 1.8908067147	-0.0147560232	 0.117126
H	-0.6886232191	 2.0367257378	-0.178308619	 0.162244
H	 0.0189539567	 1.6873744318	 1.4045887345	 0.121193
H	 0.8244817575	-0.4742843347	 0.2051438755	 0.242021
H	 0.520186775	-2.9012497382	 0.4815368065	 0.115869
H	-0.2767913883	-3.5922496305	-0.9467242747	 0.149942
H	 0.6816864253	-2.1275736841	-1.1201009534	 0.138453
H	-2.481232393	-3.251252056	 0.7393879479	 0.12497
H	-3.2393290839	-1.8114922974	 0.0439356075	 0.182831
H	-3.3201520798	-4.5836506694	-3.1631969021	 0.200489
39.4815	66.6899	88.1593	125.3741	144.7469	166.8269	217.8399	253.0707	328.473	335.0308	363.6097	426.5066	464.0277	578.5851	612.4634	663.965	679.386	761.8556	846.5467	933.2586	967.4479	1033.2155	1104.4787	1148.134	1151.471	1169.3815	1200.0629	1248.2669	1300.261	1373.4734	1391.0053	1444.0375	1469.3909	1474.9306	1486.607	1501.224	1508.6086	1519.7783	1554.3434	1757.2881	2236.8711	2981.854	2987.8729	3015.6382	3077.537	3094.5231	3103.937	3121.9477	3155.5665	3504.8237	3651.548
CNC(=O)N(C)CC#C	CNC(=O)N(C)CC#C	
InChI=1S/C6H10N2O/c1-4-5-8(3)6(9)7-2/h1H,5H2,2-3H3,(H,7,9)	InChI=1S/C6H10N2O/c1-4-5-8(3)6(9)7-2/h1H,5H2,2-3H3,(H,7,9)
