18
gdb 30108	3.76068	1.07508	1.0232	2.9884	80.29	-0.2003	0.0318	0.2321	1233.6707	0.148611	-401.967598	-401.959406	-401.958462	-402.000788	31.099	
C	 0.0013616881	 1.4989302021	-0.3172275525	-0.427299
C	-0.0660349951	 0.0393457255	 0.039299249	 0.085499
O	 1.1492023368	-0.7150914745	-0.0176615828	-0.247859
C	 0.5416243665	-0.5442180723	 1.2624435431	-0.086035
C	 1.3087092863	 0.2214284412	 2.2626906054	 0.313643
C	 2.4756656665	 0.9494777509	 2.1580857172	-0.220105
C	 2.7760328335	 1.4693175142	 3.4473672052	-0.145515
C	 1.7878663653	 1.0443311494	 4.3037751971	-0.093455
N	 0.9055655462	 0.2838589239	 3.5773815006	-0.309498
H	 0.7936852014	 2.0050094245	 0.2382135886	 0.140158
H	 0.1900987602	 1.6199757131	-1.389041071	 0.12802
H	-0.9529937921	 1.98576306	-0.0883185428	 0.117591
H	-0.9227062767	-0.4991533282	-0.3734190191	 0.086361
H	 0.0647706866	-1.4482960821	 1.653215671	 0.082874
H	 3.0528243929	 1.0607042027	 1.2540631757	 0.106645
H	 3.62584349	 2.0777863495	 3.7157943136	 0.094361
H	 1.6387344796	 1.2106149732	 5.3584536503	 0.11639
H	 0.0768554141	-0.1493692633	 3.9463531213	 0.258226
57.626	122.346	168.4878	208.86	271.2861	382.2277	429.3577	463.8028	517.9266	628.3878	662.9928	709.7749	732.9016	795.2076	809.8693	855.7542	866.6594	896.6085	964.3644	992.214	1029.0225	1049.0089	1092.321	1119.3873	1138.3702	1160.4306	1171.5284	1237.9874	1270.2309	1292.2136	1385.8138	1412.4821	1435.9357	1451.3704	1479.1201	1491.2356	1497.2573	1502.3418	1615.2006	3037.6964	3053.1002	3079.3973	3099.2361	3135.6191	3246.324	3263.8737	3273.2669	3676.1926
CC1OC1C1=CC=CN1	C[C@H]1O[C@H]1c1ccc[nH]1	
InChI=1S/C7H9NO/c1-5-7(9-5)6-3-2-4-8-6/h2-5,7-8H,1H3	InChI=1S/C7H9NO/c1-5-7(9-5)6-3-2-4-8-6/h2-5,7-8H,1H3/t5-,7-/m1/s1
