15
gdb 27846	1.96873	1.8102	0.94403	4.4201	73.81	-0.1962	-0.0063	0.19	1154.8431	0.11457	-454.025575	-454.017756	-454.016812	-454.05756	30.819	
N	 0.0329546968	 1.3876763834	 0.1777249512	-0.580327
C	-0.0434894687	 0.0099930059	 0.0621141974	 0.472452
C	-1.2198306923	-0.6934268144	 0.0395171173	-0.343009
C	-1.1478180469	-2.109073543	-0.0022296184	 0.480807
O	-2.3455937387	-2.7430335844	-0.0172932722	-0.434426
C	 0.0485600272	-2.7823642128	-0.0360574016	-0.458992
C	 1.2963963072	-2.075491781	-0.0169856448	 0.441191
O	 2.4270801879	-2.5364697976	-0.0299948178	-0.416309
N	 1.1400006107	-0.6606006345	 0.0290212127	-0.428744
H	 0.8020538761	 1.823882921	-0.3117381294	 0.257416
H	-0.8394184739	 1.8644012307	 0.0035994499	 0.263969
H	-2.1786615922	-0.1953534929	 0.0467452064	 0.098718
H	-2.194116327	-3.6942175984	-0.0536501819	 0.303314
H	 0.0974468029	-3.8643556074	-0.0689072314	 0.092794
H	 2.0141492607	-0.1600264748	 0.1091135526	 0.251146
165.9423	197.2782	216.3759	285.2367	322.0684	359.7308	446.6244	501.6792	519.8713	560.831	585.5347	594.7345	628.3028	660.892	699.1019	730.5236	766.4317	807.0676	950.5139	1013.5923	1049.7303	1123.1576	1181.809	1218.6978	1238.8363	1300.726	1343.9244	1501.1816	1514.8535	1618.7957	1651.8895	1677.593	1781.2857	3197.4407	3231.8803	3563.3866	3606.4405	3665.2466	3811.4031
NC1=CC(O)=CC(=O)N1	Nc1cc(O)cc(=O)[nH]1	
InChI=1S/C5H6N2O2/c6-4-1-3(8)2-5(9)7-4/h1-2H,(H4,6,7,8,9)	InChI=1S/C5H6N2O2/c6-4-1-3(8)2-5(9)7-4/h1-2H,(H4,6,7,8,9)
