19
gdb 66871	3.02432	1.91009	1.69508	1.5565	84.83	-0.1897	-0.0165	0.1731	900.1851	0.160597	-348.658342	-348.651576	-348.650632	-348.688902	28.912	
C	-0.0541731026	 1.5209752153	 0.0169428844	-0.505645
C	-0.0714166536	 0.0209344138	 0.0465375039	 0.320946
C	-0.3887927267	-0.8137951606	-1.2640272691	-0.125538
C	 0.6042837951	-1.8928140835	-1.3715747084	-0.106136
C	 0.7191666896	-2.4779568668	-0.1546595652	 0.008189
C	 1.8420818968	-1.8868071289	 0.7133786743	-0.276406
C	 0.6729249764	-0.8823475095	 1.1008468959	-0.081574
C	-0.3975944397	-1.9613518987	 0.7820987067	-0.061849
C	-1.2319432834	-0.958131308	-0.0214679322	-0.139317
H	 0.9330279764	 1.9044576499	-0.269109058	 0.119967
H	-0.7797868072	 1.9062708524	-0.7072815739	 0.119741
H	-0.3068814974	 1.9527107388	 0.9927317716	 0.118021
H	-0.7629171011	-0.2311976389	-2.0998275727	 0.082961
H	 1.4423800697	-1.8043219078	-2.0576385403	 0.090939
H	 2.136029458	-2.453331106	 1.6048935053	 0.099265
H	 2.7285841349	-1.5182291939	 0.1933399399	 0.10236
H	 0.7104048308	-0.4217618628	 2.0916415514	 0.079833
H	-0.8112705796	-2.616570007	 1.5455870159	 0.0682
H	-2.3000473964	-0.7868892278	 0.0098738804	 0.086044
186.5354	208.3471	275.3342	354.4569	466.8803	517.0454	572.2309	636.0398	685.8469	703.5285	727.2354	790.222	818.2502	849.0003	865.7488	892.1238	893.9197	933.5857	948.0393	975.2308	1007.7855	1019.4476	1029.9237	1058.9978	1089.4571	1101.3746	1107.9226	1166.4786	1181.9366	1200.6564	1222.6537	1240.8343	1254.524	1292.5725	1318.5369	1393.4101	1417.0369	1483.4073	1495.0595	1499.0887	1566.5424	3015.7562	3029.9764	3070.1167	3077.8651	3090.9998	3111.0536	3131.3558	3155.3588	3167.4849	3196.8954
CC12C3C=C4CC1C4C23	C[C@@]12[C@H]3[CH][C]4C[C@@H]1[C@H]4[C@@H]23	
InChI=1S/C9H10/c1-9-5-2-4-3-6(9)8(9)7(4)5/h3,5-8H,2H2,1H3	InChI=1S/C9H10/c1-9-5-2-4-3-6(9)8(9)7(4)5/h3,5-8H,2H2,1H3/t5-,6+,7+,8+,9+/m1/s1
