19
gdb 95948	2.11198	1.57358	1.30147	2.9362	70.89	-0.2479	-0.0269	0.2211	1075.321	0.158536	-460.182773	-460.173903	-460.172958	-460.216568	33.719	
O	-0.1387355391	 1.4183872859	 0.1792188741	-0.444862
C	-0.1287568424	 0.0060163811	-0.0261347829	 0.062652
C	 0.6108016333	-0.7609139943	 1.0690326557	-0.237006
C	-0.4132845104	-0.8394357037	 2.2152304506	-0.231887
C	-1.738930493	-1.1460615472	 1.4871623939	-0.261241
C	-1.6131642286	-0.5478924191	 0.0554626228	 0.287766
O	-2.542155185	 0.47186441	-0.22853938	-0.487867
C	-1.7626664509	-1.6116132142	-1.0260967297	 0.123992
O	-1.4153912562	-2.7599044334	-0.9155097048	-0.258236
H	-0.176893652	 1.588945458	 1.1275880412	 0.293477
H	 0.3061624614	-0.1293945644	-1.0196428866	 0.095542
H	 0.82702641	-1.769849753	 0.7017243154	 0.133759
H	 1.5598948848	-0.284640785	 1.3313528058	 0.106404
H	-0.1528858957	-1.5938380311	 2.9614584958	 0.110862
H	-0.4715817351	 0.1168247774	 2.7529916265	 0.088774
H	-1.8732180998	-2.2280769683	 1.4066766841	 0.126657
H	-2.6169729636	-0.7253861205	 1.9802032426	 0.11361
H	-2.0354970245	 1.2988902419	-0.2116083733	 0.285675
H	-2.2067344134	-1.2094672	-1.9631009309	 0.091927
56.0355	82.5771	202.2261	248.1892	272.4003	287.006	355.1669	401.3529	409.6311	465.5403	560.111	600.7069	622.3078	676.6221	785.5376	821.0879	838.9236	899.1163	902.5411	977.094	989.089	1023.4295	1052.6988	1075.7777	1129.7301	1148.7055	1187.2156	1214.7602	1265.9694	1274.4951	1304.5313	1330.5541	1347.9847	1349.4078	1380.1551	1408.5058	1426.7582	1474.5243	1483.839	1507.9735	1822.2762	2901.0655	3011.1534	3052.5376	3069.87	3081.8162	3096.2707	3103.7781	3127.2143	3686.4711	3796.608
OC1CCCC1(O)C=O	O[C@H]1CCC[C@]1(O)C=O	
InChI=1S/C6H10O3/c7-4-6(9)3-1-2-5(6)8/h4-5,8-9H,1-3H2	InChI=1S/C6H10O3/c7-4-6(9)3-1-2-5(6)8/h4-5,8-9H,1-3H2/t5-,6-/m0/s1
