19
gdb 104705	2.56271	1.20074	0.97597	3.3946	72.07	-0.2468	-0.0249	0.2219	1253.2307	0.156164	-460.153532	-460.144001	-460.143056	-460.188116	35.135	
C	 1.0105060108	-0.0000338191	-1.2456151921	-0.262891
O	 0.2292850039	 0.1736833721	-0.0755088737	-0.300105
C	 0.5510842843	-0.6712142637	 1.0184589248	 0.363074
C	 1.8975421867	-0.2798714068	 1.6244221458	-0.101335
O	 1.9066743783	 1.083703583	 1.9909374247	-0.424033
C	-0.6067016396	-0.6641192141	 2.0559829615	-0.398565
C	-0.574716611	-2.1966564319	 2.0218139384	 0.413105
O	-1.0436678477	-3.0559587469	 2.7083555709	-0.287573
C	 0.3663655988	-2.2097203773	 0.8038398587	-0.419599
H	 1.0135275932	-1.0459505697	-1.5810454418	 0.117045
H	 0.5501268897	 0.6160528119	-2.0212438913	 0.136894
H	 2.0508054591	 0.3253426017	-1.1120246917	 0.119918
H	 2.0809123309	-0.8659630997	 2.5317681583	 0.113121
H	 2.7113885998	-0.5176979816	 0.9196006567	 0.088848
H	 1.450797504	 1.5539042521	 1.2816393608	 0.289502
H	-0.4191075228	-0.1757411847	 3.014275361	 0.14434
H	-1.5300018042	-0.2684130403	 1.6210945058	 0.141221
H	-0.1836843687	-2.4379808348	-0.1150405989	 0.138542
H	 1.2453799447	-2.8570117003	 0.8658407122	 0.128491
58.0156	99.7027	137.0311	195.807	207.6695	262.3245	344.6071	355.1705	386.1952	426.021	429.0258	461.6887	562.512	658.3734	687.2136	743.2802	843.6437	889.4609	939.4423	1000.6306	1009.3825	1081.9589	1087.1344	1115.4283	1128.1933	1157.1967	1182.9044	1190.7431	1207.6337	1230.3233	1282.2573	1289.4324	1358.4159	1416.1907	1434.8221	1439.9336	1480.504	1491.3848	1508.7215	1516.2702	1898.3267	2966.6327	3000.8095	3053.4471	3055.7842	3064.8291	3066.9127	3114.0495	3121.2627	3130.4673	3778.8305
COC1(CO)CC(=O)C1	COC1(CO)CC(=O)C1	
InChI=1S/C6H10O3/c1-9-6(4-7)2-5(8)3-6/h7H,2-4H2,1H3	InChI=1S/C6H10O3/c1-9-6(4-7)2-5(8)3-6/h7H,2-4H2,1H3
