20
gdb 40474	3.53228	1.41092	1.26699	1.0989	84.05	-0.2299	0.0892	0.3191	1072.4808	0.172104	-365.903375	-365.896062	-365.895118	-365.935232	29.751	
C	-0.1323352269	 1.3197181016	-0.2079876235	-0.236757
C	 1.2736013035	 0.8971420795	 0.0387022784	-0.236756
N	 0.1769554583	-0.0617182398	 0.1545653428	-0.175449
C	-0.1830326247	-0.4952458528	 1.4635659955	 0.416643
C	-0.2048073058	 0.2349640527	 2.8387174356	-0.324204
C	-0.6871921936	-1.198814562	 3.1316310934	-0.045388
C	-1.4848469089	-1.309020902	 1.7882835198	-0.086952
C	-0.8221387833	-2.6502206853	 1.4141144462	-0.266153
C	 0.2994410222	-1.8453763552	 2.1013445406	-0.086952
H	-0.5988947129	 1.9532365624	 0.5433333632	 0.115026
H	-0.4953467222	 1.466683471	-1.2210784205	 0.116962
H	 1.9540844096	 0.7304708018	-0.7912932754	 0.116962
H	 1.7438555219	 1.2490856471	 0.954400556	 0.115026
H	 0.7603999994	 0.5233455182	 3.2687201505	 0.089661
H	-0.9413716271	 1.034896997	 2.9701399629	 0.089661
H	-0.9848783323	-1.6325639587	 4.0851675408	 0.074271
H	-2.5075880404	-0.9655453447	 1.6210967989	 0.066271
H	-1.1819273174	-3.5396378338	 1.9409257347	 0.086306
H	-0.695188406	-2.8504815222	 0.3474642978	 0.105553
H	 1.3376719066	-2.1214271249	 2.2957633323	 0.066271
72.6947	179.1204	202.5742	306.3808	376.6097	475.9339	481.9634	564.6843	731.907	769.1303	808.8239	863.2159	868.1917	881.7753	882.9043	900.7677	920.3136	944.3074	988.4394	989.7698	1026.0689	1039.1217	1051.959	1080.9259	1111.4799	1112.2439	1119.6697	1126.1892	1146.5832	1160.2779	1171.1491	1176.963	1190.7415	1205.1497	1241.7385	1243.3967	1253.3097	1307.0488	1373.7582	1488.8116	1502.5676	1507.3714	1515.0691	3030.278	3047.3714	3087.9098	3092.4168	3096.2516	3102.5246	3106.0146	3112.1476	3128.2141	3182.9781	3197.5607
C1CN1C12CC3C1CC23	C1CN1[C@@]12C[C@H]3[C@@H]1C[C@@H]23	
InChI=1S/C8H11N/c1-2-9(1)8-4-5-6(8)3-7(5)8/h5-7H,1-4H2	InChI=1S/C8H11N/c1-2-9(1)8-4-5-6(8)3-7(5)8/h5-7H,1-4H2/t5-,6-,7+,8-
