16
gdb 7406	2.72455	1.70901	1.31999	4.4902	62.39	-0.2473	-0.0454	0.2019	978.4067	0.12593	-420.91073	-420.901293	-420.900349	-420.945721	32.264	
C	-0.0153320318	 1.4071181266	 0.1234835528	-0.488092
C	 0.0884047729	-0.0957230763	 0.0382229571	 0.37759
O	 0.2803719668	-0.797699874	 1.0050433096	-0.307557
C	-0.0743017293	-0.7840754126	-1.331195951	-0.058161
O	 0.1976748068	-2.1429000582	-1.2153977347	-0.414172
C	-1.5306051079	-0.5512585494	-1.837924054	 0.373514
C	-1.7197603439	 0.4949799898	-2.9172014612	-0.492433
O	-2.4343960826	-1.2065047638	-1.3874867937	-0.288138
H	 0.6119714313	 1.8895732719	-0.6327892804	 0.143924
H	-1.0500350705	 1.7179120209	-0.0631067463	 0.161146
H	 0.2774598949	 1.7396328322	 1.1199311615	 0.157149
H	 0.6258087885	-0.3167460102	-2.0401134957	 0.09649
H	 0.2050346375	-2.3223816313	-0.2605065861	 0.29895
H	-1.1994780059	 1.4267166715	-2.670612587	 0.133391
H	-1.2762989729	 0.1256150135	-3.8501355336	 0.156662
H	-2.7819674038	 0.6860727894	-3.0736120573	 0.149737
45.1602	64.2329	117.6323	134.6127	164.5139	262.1846	303.0059	339.6635	396.9241	436.0416	492.2873	581.6334	602.6499	653.587	801.7939	841.7673	946.0958	976.2475	1003.161	1064.6276	1143.0222	1158.1706	1207.905	1234.9977	1345.5319	1379.8306	1388.5348	1433.0489	1458.042	1463.2139	1473.9091	1477.5525	1799.0153	1834.8907	2997.9177	3034.4534	3039.8359	3094.715	3103.0341	3153.8013	3154.9243	3672.7356
CC(=O)C(O)C(C)=O	CC(=O)C(O)C(=O)C	
InChI=1S/C5H8O3/c1-3(6)5(8)4(2)7/h5,8H,1-2H3	InChI=1S/C5H8O3/c1-3(6)5(8)4(2)7/h5,8H,1-2H3
