20
gdb 61278	2.10623	1.14469	0.85793	1.1744	82.06	-0.2562	0.0325	0.2887	1430.577	0.167346	-403.135399	-403.124714	-403.123769	-403.171836	38.136	
C	 0.0188547412	 1.5407350959	-0.0183197433	-0.411342
C	-0.0282033596	 0.0169227884	-0.0121491943	 0.148493
C	 0.7377791783	-0.59710362	-1.1946119259	-0.366049
C	 0.6181224959	-2.0475500342	-1.2737667496	 0.306405
C	 0.5044264974	-3.2419144902	-1.3402665593	-0.443074
O	 0.6068765879	-0.4984004289	 1.1744266275	-0.25049
C	-0.1314851237	-0.6006422573	 2.2991935553	 0.402767
C	 0.6921840927	-1.2311343194	 3.3933120845	-0.46127
N	-1.3370405686	-0.2029755027	 2.3464726449	-0.523683
H	 1.0532143109	 1.8970931481	 0.0270454174	 0.116631
H	-0.44266919	 1.9318135623	-0.9306601927	 0.116024
H	-0.5315316977	 1.9313522975	 0.8392132892	 0.145826
H	-1.066221525	-0.3244393816	-0.0178458008	 0.121698
H	 0.3609718194	-0.1441575627	-2.1197770424	 0.130886
H	 1.794506848	-0.3127445974	-1.1136804782	 0.134399
H	 0.4083862927	-4.2973651364	-1.4015212937	 0.193322
H	 0.1193273947	-1.311811231	 4.318429056	 0.1245
H	 1.0229070152	-2.2272470888	 3.0842687989	 0.15117
H	 1.5912069788	-0.6354126596	 3.5783413592	 0.144891
H	-1.7333551786	-0.3755487321	 3.2669805373	 0.218897
57.2221	59.2902	103.3775	118.6081	155.6654	198.504	226.8189	293.8059	344.4183	365.4847	417.1381	467.4466	533.3519	578.9882	613.7351	618.2001	639.5876	822.1152	847.2958	882.9827	917.6417	950.2402	986.201	1036.9496	1068.1163	1085.7241	1107.7632	1123.5557	1149.4437	1252.0898	1308.2886	1351.6961	1380.2192	1392.7041	1404.8251	1425.4136	1457.7573	1470.8513	1481.8586	1485.3373	1502.9652	1723.5038	2241.9799	3026.3863	3041.0138	3049.2601	3062.1484	3089.073	3112.1203	3113.4437	3142.1824	3143.9841	3507.8021	3519.7106
CC(CC#C)OC(C)=N	C[C@@H](CC#C)O[C](C)[NH]	
InChI=1S/C7H11NO/c1-4-5-6(2)9-7(3)8/h1,6,8H,5H2,2-3H3	InChI=1S/C7H11NO/c1-4-5-6(2)9-7(3)8/h1,6,8H,5H2,2-3H3/t6-/m0/s1
