20
gdb 57611	3.42904	1.02617	0.96431	2.2987	80.7	-0.2399	0.0354	0.2753	1303.6157	0.168481	-403.091094	-403.081186	-403.080241	-403.125532	37.494	
C	-0.0341197227	 1.701502259	-0.1207964544	-0.416753
C	 0.0413828136	 0.1710671444	-0.0574614877	 0.309268
O	 0.7478640991	-0.2487609746	 1.1046159052	-0.47136
C	-1.3840625778	-0.4635546673	-0.0518577573	-0.374401
C	-2.1048147876	-0.1781760783	 1.1820694278	 0.262056
C	-2.6319703497	 0.0674053416	 2.2357552039	-0.423402
C	 0.8049896151	-0.3757372801	-1.2567374011	 0.011492
C	 2.2813519385	-0.4786190317	-1.2415481646	-0.252599
N	 1.4436179249	-1.695805246	-1.1847493641	-0.338365
H	 0.9714618205	 2.1222228861	-0.0460889572	 0.12805
H	-0.4820893981	 2.0362487898	-1.0624342602	 0.114012
H	-0.6407582748	 2.0934193841	 0.701459427	 0.12234
H	 0.1725567896	-0.093701504	 1.8639744322	 0.286848
H	-1.9507459679	-0.0985317661	-0.9164289558	 0.131821
H	-1.2795433066	-1.547769435	-0.1734652115	 0.146497
H	-3.1338037716	 0.2761330046	 3.1485164005	 0.202058
H	 0.3091680409	-0.1767852233	-2.2054250906	 0.084303
H	 2.8420739472	-0.3486606413	-2.1627759357	 0.11233
H	 2.7955879647	-0.176039075	-0.3353120176	 0.126841
H	 1.4108403727	-1.995289147	-0.2111512488	 0.238964
71.8697	101.9089	129.8702	209.9656	232.8586	277.2725	308.2136	353.2172	359.2044	379.8305	393.8247	434.5446	522.751	623.6917	627.4969	661.8416	756.2284	830.6549	865.1772	892.2187	924.4801	947.9288	972.596	988.744	1023.9327	1093.6564	1115.8379	1127.8967	1163.0054	1184.333	1223.312	1268.212	1279.9515	1303.9585	1318.4684	1367.311	1405.4056	1438.7274	1462.5984	1492.299	1496.1096	1503.5585	2227.6513	3035.3448	3038.9665	3075.7308	3106.4575	3116.342	3121.4376	3127.1843	3210.3142	3483.3841	3501.6118	3775.2006
CC(O)(CC#C)C1CN1	C[C@@](O)(CC#C)[C@H]1CN1	
InChI=1S/C7H11NO/c1-3-4-7(2,9)6-5-8-6/h1,6,8-9H,4-5H2,2H3	InChI=1S/C7H11NO/c1-3-4-7(2,9)6-5-8-6/h1,6,8-9H,4-5H2,2H3/t6-,7-/m1/s1
