23
gdb 91745	2.26164	1.77305	1.52489	0.263	88.54	-0.2313	0.0289	0.2602	1046.5481	0.209986	-351.188731	-351.18106	-351.180116	-351.220408	32.332	
C	-0.3103162023	 1.5328400109	-0.0521599128	-0.417603
C	 0.0120671504	 0.0381690874	-0.0040377336	 0.067035
C	 0.8243813323	-0.4767272958	-1.2408153421	-0.224555
C	 2.045583833	-1.2121367976	-0.6275808846	-0.03763
C	 1.4655813885	-1.7444553902	 0.6974618657	-0.225959
C	 0.808593203	-0.4619922626	 1.2425482232	-0.022761
C	 1.9167802533	 0.4944232564	 1.7327542342	-0.258118
C	 3.0771112273	 0.5614688974	 0.7705996251	-0.045247
C	 3.144749497	-0.216907095	-0.3095430715	-0.067494
H	 0.5958332295	 2.1391754205	-0.1512899488	 0.121428
H	-0.9492273933	 1.7599122057	-0.9124345728	 0.109186
H	-0.8424881436	 1.8608555666	 0.8479068679	 0.10735
H	-0.9437344284	-0.4998242793	 0.013331118	 0.068609
H	 0.2210198657	-1.1638343388	-1.8441379253	 0.087594
H	 1.1326678096	 0.3429942304	-1.8965087069	 0.092704
H	 2.4226998772	-2.0025109918	-1.2822725578	 0.055778
H	 0.7125985614	-2.5188938773	 0.5095845163	 0.084278
H	 2.2283023592	-2.1607082491	 1.3622787256	 0.090622
H	 0.1237354561	-0.6604790535	 2.0733996207	 0.054683
H	 1.5119252201	 1.4998874094	 1.903539076	 0.102067
H	 2.275951621	 0.1608515272	 2.7180143974	 0.098802
H	 3.8713786708	 1.270423461	 0.993088008	 0.079818
H	 3.9804254324	-0.1358369519	-0.9999943419	 0.079412
92.0338	250.4407	257.6864	311.2042	352.2879	402.0592	442.353	452.2626	504.6338	613.0737	690.5497	744.8435	757.1275	812.1638	841.7707	870.4769	893.9777	934.9252	937.5904	962.1529	991.8086	999.5693	1003.9333	1030.5554	1059.5938	1069.433	1104.414	1142.0579	1156.9533	1187.0166	1194.447	1222.1147	1236.4971	1278.4479	1306.4338	1313.3478	1333.5563	1352.0248	1360.2645	1374.8594	1382.2872	1407.3602	1413.8795	1475.7708	1489.6183	1497.8111	1504.4345	1511.2755	1712.9676	2994.8377	3012.7324	3026.7059	3031.2246	3038.1423	3039.035	3052.6976	3068.6378	3083.6948	3087.738	3090.3269	3102.7395	3141.6891	3166.7344
CC1CC2CC1CC=C2	C[C@H]1C[C@@H]2C[C@H]1CC=C2	
InChI=1S/C9H14/c1-7-5-8-3-2-4-9(7)6-8/h2-3,7-9H,4-6H2,1H3	InChI=1S/C9H14/c1-7-5-8-3-2-4-9(7)6-8/h2-3,7-9H,4-6H2,1H3/t7-,8+,9+/m0/s1
