23
gdb 59761	2.54001	1.31846	0.99703	2.6593	81.91	-0.2378	0.0622	0.3	1293.416	0.205223	-425.438399	-425.428475	-425.427531	-425.472999	37.365	
C	-0.1519423145	 1.5661826554	 0.0889909884	-0.397741
C	-0.0199990607	 0.0387902524	 0.0301150459	 0.03208
C	 0.8792877393	-0.4867649555	 1.1578424548	-0.401483
C	-1.4038670748	-0.6181522801	 0.0818167344	 0.155498
O	-2.2336059762	-0.1065616051	-0.9728552134	-0.287558
C	-2.920954848	-1.1670350626	-1.6287952404	-0.054796
C	-2.8284388485	-2.3659383802	-0.6803568575	-0.260672
C	-1.4417265815	-2.1509972939	-0.0594686751	 0.072031
O	-0.4023132628	-2.5565624844	-0.9436777269	-0.432845
H	 0.8292253401	 2.0423662817	-0.0090928453	 0.102635
H	-0.7982044045	 1.9328075179	-0.7112416209	 0.131802
H	-0.5822426535	 1.8873988225	 1.045924981	 0.102437
H	 0.4280266146	-0.2383577817	-0.929786927	 0.091941
H	 1.0630995322	-1.5593538693	 1.054609971	 0.121839
H	 1.8483673115	 0.0222352178	 1.1433882277	 0.1091
H	 0.4302492168	-0.3045862042	 2.1423528708	 0.104199
H	-1.8766417996	-0.3598368741	 1.0451685957	 0.06227
H	-3.9502084084	-0.8507075887	-1.8282131715	 0.099917
H	-2.4357336975	-1.3937080613	-2.5885871411	 0.098282
H	-3.5993214715	-2.3095124319	 0.0959073709	 0.106992
H	-2.9219620546	-3.3320874332	-1.1852396025	 0.091238
H	-1.3342304577	-2.6415974532	 0.9168164866	 0.068394
H	-0.4863681203	-3.5045326585	-1.0845015056	 0.284441
76.5513	89.1513	172.5058	185.038	226.7003	244.6204	269.6357	289.5068	316.0607	382.8667	422.1505	454.6072	501.9203	666.6787	785.5338	811.42	867.0291	885.8932	913.3304	928.9036	943.7189	974.0384	980.1959	1019.7644	1039.6188	1094.2467	1113.9771	1155.5151	1172.2643	1198.1349	1205.4112	1213.6292	1240.2375	1304.0566	1318.7432	1329.7195	1345.9274	1363.0953	1390.5442	1398.2026	1402.9401	1418.6524	1421.2001	1479.6599	1489.4899	1495.5581	1504.2929	1516.9703	1525.6051	2948.9775	3003.6246	3014.71	3023.817	3027.6601	3046.8423	3057.9481	3066.7542	3085.9481	3094.5817	3097.3389	3116.4505	3129.3452	3822.9849
CC(C)C1OCCC1O	CC(C)[C@H]1OCC[C@H]1O	
InChI=1S/C7H14O2/c1-5(2)7-6(8)3-4-9-7/h5-8H,3-4H2,1-2H3	InChI=1S/C7H14O2/c1-5(2)7-6(8)3-4-9-7/h5-8H,3-4H2,1-2H3/t6-,7-/m1/s1
