23
gdb 59876	3.96996	0.76907	0.7232	2.4167	87.73	-0.2414	-0.0084	0.233	1702.5771	0.203652	-388.313664	-388.303213	-388.302269	-388.350099	38.186	
C	 0.174948262	 1.6590332429	-0.1318176461	-0.388175
C	 0.0449956439	 0.1334553355	-0.0208741361	 0.050912
C	 0.6796155112	-0.5635614531	-1.2311308395	-0.39633
C	 0.6546944293	-0.3881486202	 1.2869766245	-0.306635
C	-0.1221373154	-0.037913454	 2.5488458542	 0.380346
O	-1.205475251	 0.5122734827	 2.5177065537	-0.338533
C	 0.5142755658	-0.4292106289	 3.8417575816	-0.098663
C	 0.2881877637	 0.4908892278	 5.0344687905	-0.246986
C	-0.4083410427	-0.8240175194	 4.9858495126	-0.24818
H	 1.2297142731	 1.9616135762	-0.1472558063	 0.101708
H	-0.2849950355	 2.0217382947	-1.0568663122	 0.108512
H	-0.3155534739	 2.157311415	 0.7072020947	 0.13427
H	-1.0239096291	-0.1097358407	 0.0029399069	 0.092384
H	 1.7563907777	-0.3612927793	-1.2856717283	 0.108658
H	 0.5475184143	-1.6501277234	-1.186316852	 0.106905
H	 0.2311462493	-0.2100105648	-2.1653329964	 0.112033
H	 0.7350743465	-1.4858950553	 1.2674479111	 0.118023
H	 1.6887432152	-0.0329392051	 1.408501787	 0.113904
H	 1.4725493458	-0.9322791635	 3.7755843154	 0.085661
H	 1.1168541921	 0.6242578729	 5.7202617994	 0.117178
H	-0.3039518085	 1.3761523728	 4.833144143	 0.137711
H	-1.4668144942	-0.8188589001	 4.7525456208	 0.138332
H	-0.0730228194	-1.6221291428	 5.6380760115	 0.116966
36.7077	52.3363	106.5417	134.9483	230.6368	250.1464	255.2292	268.3329	286.7672	345.1749	409.5927	431.5314	582.8621	662.6522	785.0923	815.0677	830.32	841.1967	855.6962	910.0013	925.6727	932.8682	969.987	975.5806	1048.7233	1079.7347	1092.1626	1109.3155	1117.735	1131.3064	1164.5899	1195.0439	1210.2552	1223.5789	1248.4019	1306.2417	1359.2716	1380.9412	1397.5473	1409.2111	1419.0771	1444.7018	1451.5669	1483.6473	1489.6157	1494.3454	1504.6663	1515.1587	1780.2046	2998.0269	3020.9648	3024.3633	3026.4852	3043.9139	3084.8972	3091.8642	3097.8656	3127.8947	3140.4198	3142.013	3171.5634	3227.9658	3242.5157
CC(C)CC(=O)C1CC1	CC(C)CC(=O)C1CC1	
InChI=1S/C8H14O/c1-6(2)5-8(9)7-3-4-7/h6-7H,3-5H2,1-2H3	InChI=1S/C8H14O/c1-6(2)5-8(9)7-3-4-7/h6-7H,3-5H2,1-2H3
