17
gdb 5063	3.25914	1.95546	1.24328	1.5514	71.98	-0.1855	0.037	0.2225	970.6225	0.14177	-363.899495	-363.890877	-363.889933	-363.932416	31.253	
C	 0.1196420494	 1.4907198968	-0.0315827475	-0.492284
C	-0.0516230141	 0.0132190441	-0.0409273995	 0.278698
C	-1.1416363495	-0.8034646789	 0.0435813286	 0.126637
C	-2.5833996765	-0.433273336	 0.1961935583	-0.520454
C	-0.6306983887	-2.1519129114	-0.0299308961	 0.136701
N	-1.4194387575	-3.3062654856	 0.1052233246	-0.604809
C	 0.7194098507	-2.0437328091	-0.154126509	-0.109068
O	 1.0861124479	-0.7226649927	-0.1549252711	-0.19136
H	 0.7894416479	 1.8091269102	 0.7753719003	 0.136626
H	 0.5491495522	 1.8532029544	-0.9730966921	 0.134833
H	-0.8434671786	 1.9851349556	 0.1120090539	 0.129958
H	-3.1801762983	-0.7330814233	-0.6758209974	 0.118001
H	-3.0285465844	-0.9224664376	 1.0706993369	 0.135016
H	-2.7121779306	 0.6454418307	 0.3171719607	 0.124536
H	-2.2878735596	-3.2431542077	-0.4122902613	 0.241773
H	-0.9321842738	-4.1474239696	-0.1765208648	 0.240784
H	 1.5202282135	-2.75942183	-0.2323719343	 0.114412
85.445	123.4918	156.5176	210.1642	243.8605	274.6297	288.1499	356.4401	478.8392	567.5803	611.4797	649.3955	681.0063	702.6648	747.5529	786.3918	928.1965	968.4258	1057.1931	1065.4492	1098.5116	1150.3985	1156.8664	1200.2773	1284.3772	1325.9843	1408.6212	1423.2343	1457.5453	1470.8881	1481.2565	1490.4205	1499.5371	1613.1746	1652.623	1696.9815	3012.767	3027.7863	3061.439	3075.926	3110.7303	3128.2067	3277.6536	3526.1465	3615.8093
CC1=C(C)C(N)=CO1	Cc1c(C)c(N)co1	
InChI=1S/C6H9NO/c1-4-5(2)8-3-6(4)7/h3H,7H2,1-2H3	InChI=1S/C6H9NO/c1-4-5(2)8-3-6(4)7/h3H,7H2,1-2H3
