17
gdb 65502	3.74459	1.06517	0.96358	2.0717	69.7	-0.2673	-0.0419	0.2253	1220.5856	0.133438	-458.937107	-458.928726	-458.927782	-458.970269	31.808	
O	 0.3750329655	 1.4798998613	-0.4098887026	-0.483149
C	-0.0289017694	 0.2319126552	 0.0469347134	 0.340785
C	 0.0969002674	-0.0288979533	 1.5932756267	-0.389087
C	-1.3187041586	-0.6004810927	 1.5607519892	 0.48277
C	-1.8192624933	-1.8521999607	 2.1321192256	-0.273527
O	-2.2276955675	-0.5715541574	 2.6383346025	-0.267418
C	-1.5786927766	-0.0043293545	 0.1792015978	-0.389112
C	 0.6306445513	-0.8613539576	-0.7539350569	 0.11545
O	 1.3960170865	-0.6209980098	-1.6568483193	-0.278837
H	 0.9894265949	 1.3096090265	-1.1424251216	 0.292581
H	 0.9121439624	-0.6624636588	 1.951645872	 0.113545
H	 0.132749173	 0.9371583469	 2.1032390369	 0.141276
H	-2.5936526356	-2.415090398	 1.6122822589	 0.120171
H	-1.1864964883	-2.4357396933	 2.799835029	 0.120172
H	-2.0707803001	 0.9694904216	 0.2436059247	 0.141263
H	-2.0797060358	-0.6185703311	-0.5732285208	 0.113531
H	 0.3733896942	-1.9018941643	-0.4674940754	 0.099586
66.9654	107.7236	245.1919	275.2191	303.3368	338.691	350.4375	395.3823	426.7366	450.3679	517.28	636.4449	785.9397	837.1534	839.3116	866.6104	870.9667	906.3838	945.9828	975.6771	1045.5087	1068.5837	1097.7472	1127.6539	1149.6598	1192.134	1195.4077	1219.3895	1232.7402	1312.1911	1387.6677	1434.3226	1444.459	1456.5274	1486.2814	1539.3498	1808.7392	2927.317	3062.0959	3065.3319	3079.9882	3124.3398	3125.0246	3168.0483	3680.0898
OC1(CC2(CO2)C1)C=O	O[C@]1(C[C@]2(CO2)C1)C=O	
InChI=1S/C6H8O3/c7-3-5(8)1-6(2-5)4-9-6/h3,8H,1-2,4H2	InChI=1S/C6H8O3/c7-3-5(8)1-6(2-5)4-9-6/h3,8H,1-2,4H2/t5-,6+
