18
gdb 108908	2.79282	1.07809	0.7897	5.2544	80.21	-0.2023	0.0041	0.2065	1403.9023	0.147497	-439.114405	-439.105117	-439.104173	-439.149848	32.231	
O	 0.0386335799	 1.4027181225	 0.0331639804	-0.410469
C	 0.0132230346	-0.0119815098	 0.0174777215	-0.170817
C	-1.4014539825	-0.4794186998	 0.0180842252	 0.212855
C	-2.4991826655	 0.278420543	 0.0336347042	-0.068127
N	-3.6722912752	-0.4920113734	 0.0185868182	-0.062037
C	-3.3289069645	-1.9233659438	 0.0850691124	-0.172231
C	-1.7800520016	-1.9460897796	-0.0411362588	-0.332959
C	-4.937329682	 0.0111213201	-0.0124676131	 0.139303
O	-5.2186247645	 1.1917439698	-0.040312331	-0.332668
H	 0.9562101632	 1.6881928526	 0.0463997478	 0.29213
H	 0.5321047233	-0.4152440538	-0.8722058442	 0.093999
H	 0.5414661568	-0.4341104051	 0.8924151171	 0.094242
H	-2.5908579567	 1.3521893038	 0.0485125444	 0.166766
H	-3.6570400037	-2.3466627944	 1.0403879021	 0.124781
H	-3.8238868262	-2.4773928553	-0.716834622	 0.126077
H	-1.4553423885	-2.4065175148	-0.9836630207	 0.116178
H	-1.3215941466	-2.5330478348	 0.763200026	 0.115347
H	-5.6974882202	-0.7953011473	-0.0119695695	 0.067629
41.2777	71.6336	119.1575	135.271	203.7551	234.4786	260.0276	327.6137	422.2302	482.165	500.1679	648.2374	758.92	834.9058	903.177	904.3937	942.3532	979.4849	1011.498	1024.3762	1077.3407	1090.2084	1152.7139	1202.5423	1214.3176	1241.9808	1245.6364	1253.3373	1276.8564	1316.7711	1348.2021	1438.4887	1441.7474	1477.344	1496.5435	1512.6239	1522.7392	1732.3961	1788.8846	2925.4092	2932.5353	2933.1102	3013.6995	3036.4408	3050.251	3089.4535	3285.1801	3841.6723
OCC1=CN(CC1)C=O	OCC1=CN(CC1)C=O	
InChI=1S/C6H9NO2/c8-4-6-1-2-7(3-6)5-9/h3,5,8H,1-2,4H2	InChI=1S/C6H9NO2/c8-4-6-1-2-7(3-6)5-9/h3,5,8H,1-2,4H2
