23
gdb 70745	2.38208	1.50852	1.12165	1.968	84.42	-0.2512	0.0798	0.331	1197.9797	0.207423	-388.301767	-388.293155	-388.292211	-388.334374	34.69	
C	 0.1366432547	 1.5222895089	-0.0617872693	-0.460445
C	-0.0286625023	 0.0208807093	 0.0322958349	 0.412981
C	-1.3138266353	-0.5382242698	-0.5651239195	-0.275828
C	-2.4765652954	-0.5854789381	 0.4451711312	-0.186615
C	-2.437126258	-1.7765212736	 1.4171746581	-0.177766
C	-1.2359569259	-1.8556578244	 2.3748978001	-0.186631
C	 0.1264572753	-2.0222348279	 1.6754955643	-0.238505
C	 0.6546527824	-0.7190635832	 1.1055048252	 0.006841
O	 1.1772697164	-0.7213309422	-0.2300015175	-0.306325
H	 1.049740149	 1.8478658554	 0.4426611704	 0.122901
H	 0.1959623145	 1.8321159877	-1.111196382	 0.123878
H	-0.7149960869	 2.0423613387	 0.3908427447	 0.11867
H	-1.5989478583	 0.0781409082	-1.4261377264	 0.092239
H	-1.1158049322	-1.5413689454	-0.9563277077	 0.109042
H	-2.5079408718	 0.3543850904	 1.0131750597	 0.093621
H	-3.4223556572	-0.6326135414	-0.1076192418	 0.093553
H	-3.3556726599	-1.7609123399	 2.0169812099	 0.091619
H	-2.4760114546	-2.7056441606	 0.8309080603	 0.094774
H	-1.2116522151	-0.9630941214	 3.0154033938	 0.092437
H	-1.3946776052	-2.7057053126	 3.0489427971	 0.094419
H	 0.8610514083	-2.4205522805	 2.3845473245	 0.096576
H	 0.0463644823	-2.7570252695	 0.8673934008	 0.109202
H	 1.2509614451	-0.1266169783	 1.8036571093	 0.079363
133.5646	160.3176	208.7067	239.7691	306.407	316.5729	347.6848	384.576	420.0699	460.7144	510.1335	555.1355	692.2166	759.3776	797.3184	849.3377	862.1105	886.3252	918.7562	966.5522	968.3491	994.6453	1021.9853	1063.0237	1080.7239	1108.1603	1113.4991	1142.8511	1160.8759	1221.9122	1227.8568	1257.5656	1283.5614	1298.4547	1345.7256	1366.6162	1372.8653	1380.6382	1390.271	1393.0445	1411.8909	1470.9868	1482.2931	1483.9581	1486.0311	1487.3954	1496.0846	1505.6582	1511.0545	3005.8939	3012.3326	3013.0305	3028.7858	3032.7288	3035.1702	3050.7956	3054.9198	3059.5268	3068.8056	3080.3544	3088.9825	3092.3949	3120.6574
CC12CCCCCC1O2	C[C@]12CCCCC[C@H]1O2	
InChI=1S/C8H14O/c1-8-6-4-2-3-5-7(8)9-8/h7H,2-6H2,1H3	InChI=1S/C8H14O/c1-8-6-4-2-3-5-7(8)9-8/h7H,2-6H2,1H3/t7-,8+/m1/s1
