15
gdb 31355	3.02955	1.34548	0.94245	5.8094	68.69	-0.264	-0.0511	0.2129	1189.4061	0.11267	-454.003271	-453.995181	-453.994237	-454.037218	28.523	
C	-0.0963851312	 1.5072511068	 0.1697443809	-0.376179
C	 0.0160601192	-0.0019693136	-0.0317575356	-0.291122
C	 0.7358734492	-0.3940042085	-1.2854996088	 0.428508
N	 1.2206719412	 0.4230496994	-2.1290395364	-0.336331
C	 1.8824128655	-0.0784936315	-3.280606484	 0.399003
O	 2.3570954382	 0.6596351268	-4.0984946748	-0.309249
N	 1.9639740484	-1.4945405813	-3.4325918133	-0.286714
C	 1.4435887753	-2.2090827548	-2.5270031599	 0.127822
O	 0.8067312506	-1.7633743795	-1.4111831143	-0.203358
H	 0.8911560922	 1.9711536408	 0.2194491296	 0.143608
H	-0.6357169637	 1.9744722329	-0.6571398684	 0.143629
H	-0.6298953988	 1.7195696126	 1.0997539147	 0.119156
H	 0.5379288461	-0.4801389879	 0.8075096215	 0.14107
H	-0.9734948354	-0.4766363015	-0.0613045459	 0.141093
H	 1.4558790333	-3.2958291507	-2.5538526753	 0.159065
43.8239	75.4186	154.1367	179.4537	235.0427	407.7559	424.3126	528.0278	555.4267	591.3053	598.9129	767.4133	802.2925	837.4818	880.9258	930.6081	983.0465	990.8264	1032.2279	1108.8319	1113.5085	1181.041	1255.7687	1281.1376	1386.6092	1408.0171	1422.6253	1458.136	1493.0314	1499.9256	1642.0163	1748.6793	1841.1957	3030.531	3057.2361	3058.8891	3132.4566	3138.5646	3179.5586
CCC1=NC(=O)N=CO1	CCc1nc(=O)nco1	
InChI=1S/C5H6N2O2/c1-2-4-7-5(8)6-3-9-4/h3H,2H2,1H3	InChI=1S/C5H6N2O2/c1-2-4-7-5(8)6-3-9-4/h3H,2H2,1H3
