16
gdb 55077	3.51253	0.84323	0.80575	2.2256	66.55	-0.2602	-0.0367	0.2235	1419.0093	0.122042	-475.039736	-475.030535	-475.029591	-475.075114	32.263	
N	 0.5816049208	-0.5622222072	 0.2067052556	-0.518797
C	-0.1124625233	 0.5762515766	-0.0745682979	 0.355538
O	 0.3893123443	 1.6396020506	-0.3759348145	-0.3509
C	-1.6142703238	 0.4313520716	 0.0290138205	-0.047047
O	-2.1513793479	-0.8586183181	 0.3433229511	-0.262299
C	-2.3172989035	 0.1926929294	 1.3062668879	 0.056809
C	-1.6315899055	 0.034038759	 2.645103104	-0.322629
C	-2.2884510153	-1.0478958496	 3.4852135037	 0.158679
O	-2.6149364134	-0.9119502525	 4.6347204728	-0.230404
H	 1.5747315379	-0.5651999438	 0.0382369718	 0.268617
H	 0.0843588305	-1.4364632736	 0.2593826459	 0.273191
H	-2.1428814216	 0.9851661066	-0.7444778438	 0.128593
H	-3.3423721352	 0.5616949807	 1.3613989659	 0.119059
H	-0.5848391503	-0.2539620275	 2.4894403408	 0.140646
H	-1.6543141503	 0.9752566761	 3.2020299548	 0.138814
H	-2.4421525233	-2.0113918883	 2.9497449911	 0.09213
51.7789	58.766	88.0796	143.3863	199.3836	271.7225	385.0198	405.1732	454.8675	473.0148	513.893	544.5225	636.2426	747.4117	781.7514	812.8681	864.4655	935.0287	977.039	1048.235	1074.7758	1094.4898	1139.2387	1143.9534	1237.3277	1270.1263	1301.0418	1341.2661	1393.702	1426.7021	1450.7898	1458.8516	1597.8113	1810.0396	1837.5903	2887.0631	3042.9039	3100.4472	3114.1934	3142.845	3588.1254	3724.3663
NC(=O)C1OC1CC=O	NC(=O)[C@H]1O[C@H]1CC=O	
InChI=1S/C5H7NO3/c6-5(8)4-3(9-4)1-2-7/h2-4H,1H2,(H2,6,8)	InChI=1S/C5H7NO3/c6-5(8)4-3(9-4)1-2-7/h2-4H,1H2,(H2,6,8)/t3-,4-/m0/s1
