23
gdb 89521	2.17644	1.6683	1.23604	1.2025	84.18	-0.247	0.0779	0.3248	1142.8284	0.206817	-388.30249	-388.293705	-388.292761	-388.335399	35.443	
C	-0.7853305188	 1.2807349494	 0.1028458033	-0.414375
C	 0.0279228158	-0.0012672929	-0.009732926	 0.049533
C	 1.2834663647	 0.0050939372	-0.9307018157	-0.310685
C	 2.1270491135	-0.6380294937	 0.2144177636	 0.436994
O	 2.4694795208	-1.9936955191	 0.0055489876	-0.498144
C	 3.2699034006	 0.2224805185	 0.7716634601	-0.277985
C	 2.5626672988	 1.3123989048	 1.5968020823	-0.214866
C	 1.3616392438	 0.5750961428	 2.2324382213	-0.223332
C	 0.9176212455	-0.4688684627	 1.1917023401	-0.054724
H	-0.1616886705	 2.1420304354	 0.3657415497	 0.114365
H	-1.2754884431	 1.5114272184	-0.8498039886	 0.111669
H	-1.5683543674	 1.193410521	 0.8646347849	 0.113344
H	-0.642171747	-0.817701565	-0.2964803756	 0.075016
H	 1.2134209587	-0.6103917204	-1.83126193	 0.091425
H	 1.6173224609	 1.0083409271	-1.2161965346	 0.087346
H	 3.1414868057	-2.0262207676	-0.6841670531	 0.271113
H	 3.8799225804	-0.4125798338	 1.4252749874	 0.100451
H	 3.9232259017	 0.6278440817	-0.0097045009	 0.083321
H	 3.2182377351	 1.7733773099	 2.3411769533	 0.095459
H	 2.2143017424	 2.1184198124	 0.9399458272	 0.100423
H	 1.6938603512	 0.0541621509	 3.1377533725	 0.098386
H	 0.5600565435	 1.2554994507	 2.535551275	 0.09442
H	 0.5763390636	-1.3959186251	 1.6557252262	 0.070845
75.528	203.9172	223.4113	250.8352	266.0075	280.0208	336.0839	365.468	425.5406	481.6295	554.9111	566.9163	640.9366	735.0452	802.2655	846.7371	864.2507	889.3739	900.381	914.6981	945.1786	962.1434	1001.2024	1023.4932	1049.3863	1072.392	1105.2078	1124.107	1152.7137	1184.6629	1205.0951	1208.5919	1255.2949	1258.2279	1265.2112	1285.7283	1309.301	1327.7655	1337.8224	1353.331	1364.4202	1383.3134	1409.6425	1470.0412	1481.2277	1487.9596	1494.6098	1501.5658	1510.8647	3023.6769	3027.9239	3033.47	3038.0859	3041.8086	3045.2839	3072.4014	3080.9156	3087.8515	3089.2849	3091.2134	3094.8704	3103.3511	3797.6238
CC1CC2(O)CCCC12	C[C@H]1C[C@@]2(O)CCC[C@@H]12	
InChI=1S/C8H14O/c1-6-5-8(9)4-2-3-7(6)8/h6-7,9H,2-5H2,1H3	InChI=1S/C8H14O/c1-6-5-8(9)4-2-3-7(6)8/h6-7,9H,2-5H2,1H3/t6-,7-,8-/m0/s1
