19
gdb 62167	5.99279	0.57825	0.55128	2.3694	74.78	-0.262	-0.0331	0.2288	1910.4821	0.155489	-460.195688	-460.185217	-460.184273	-460.233266	35.112	
C	-0.2244071625	 1.3767640467	 0.0236221244	-0.404523
C	-0.0400353529	-0.14380952	 0.1006761828	-0.000874
C	-1.38098267	-0.8785665212	 0.1626908562	-0.086883
O	-2.0972765451	-0.5023903888	 1.3432184333	-0.182419
C	-3.3557865682	-0.037204298	 1.2158210877	 0.172132
O	-4.0241066493	 0.2799951878	 2.1517022893	-0.270004
C	 0.7817394342	-0.6834951043	-1.0877880036	-0.285289
C	 2.2180138808	-0.2067051348	-1.049752943	 0.161319
O	 2.7874282746	 0.3453013688	-1.9538987265	-0.234342
H	 0.7403056893	 1.8921708022	 0.0033636295	 0.134114
H	-0.7663626254	 1.6596871993	-0.8866148429	 0.120603
H	-0.7841869185	 1.7467974791	 0.8858499464	 0.141729
H	 0.4977906569	-0.3857120554	 1.027682886	 0.100946
H	-1.9841858055	-0.6574143499	-0.7290464159	 0.111552
H	-1.2247426982	-1.9620012304	 0.2070341568	 0.120968
H	-3.687895962	 0.0152635197	 0.1601526266	 0.079858
H	 0.8101021961	-1.7826342351	-1.0430089866	 0.120474
H	 0.3432915723	-0.3939934622	-2.0482970258	 0.123646
H	 2.7384107634	-0.4141326634	-0.0844958147	 0.076993
35.7521	52.5455	61.4691	92.4244	139.2106	206.0172	238.8093	261.5942	293.8532	372.5154	406.3856	470.0734	533.8908	677.2788	783.7131	864.5066	925.6585	940.6061	986.551	1022.0219	1044.7153	1048.652	1130.7008	1138.3325	1156.479	1196.998	1239.4957	1276.7871	1306.6245	1355.2212	1383.1924	1397.6337	1417.7203	1427.9088	1436.4033	1461.9405	1492.8018	1502.7344	1507.9945	1838.717	1869.646	2851.7637	2943.6418	3005.2001	3009.3325	3020.3802	3035.9901	3070.8822	3089.3598	3103.2035	3126.4935
CC(COC=O)CC=O	C[C@@H](COC=O)CC=O	
InChI=1S/C6H10O3/c1-6(2-3-7)4-9-5-8/h3,5-6H,2,4H2,1H3	InChI=1S/C6H10O3/c1-6(2-3-7)4-9-5-8/h3,5-6H,2,4H2,1H3/t6-/m1/s1
