18
gdb 74511	2.99258	1.29145	1.01629	3.3149	79.56	-0.2268	-0.0246	0.2022	1198.764	0.146873	-401.946082	-401.937755	-401.936811	-401.978983	31.462	
C	 0.0401988656	 1.5187391776	 0.1021344905	-0.491083
C	-0.0024654474	 0.0279729239	 0.0064050382	 0.303319
C	-0.0719426427	-0.7335374292	-1.0879738703	-0.267272
C	-0.0481568089	-2.1755837745	-0.7227451355	 0.220062
C	 1.1954272655	-2.6374497562	-0.0049923873	-0.269324
N	 0.0292216322	-2.2596038751	 0.7711842303	-0.142639
C	 0.0274581485	-0.8549070091	 1.2429064123	-0.258036
C	-0.8900207972	-3.1762090764	-1.4269951626	 0.091337
O	-1.4389217498	-2.9758077188	-2.4821250927	-0.261908
H	 0.975764008	 1.8618171796	 0.56178659	 0.12968
H	-0.0453600014	 1.9870637043	-0.8814456448	 0.133456
H	-0.7738775464	 1.8963179069	 0.73375709	 0.131319
H	-0.1470034085	-0.3933052578	-2.111884648	 0.117774
H	 1.442432002	-3.6957807931	 0.0381787494	 0.123627
H	 2.0458708422	-1.9611659694	-0.0631082431	 0.122544
H	 0.9043766234	-0.6716205536	 1.8773156819	 0.117029
H	-0.8580461532	-0.6920271723	 1.8720925979	 0.119937
H	-0.9636791919	-4.1525304368	-0.8983510663	 0.080179
98.3532	141.9105	174.0783	204.0929	253.4434	320.826	390.9835	426.2905	457.3662	520.6988	594.4715	678.7025	758.5064	804.5872	847.3811	880.9265	907.8332	952.2658	979.7485	1014.3807	1027.3567	1050.7426	1085.6242	1118.4586	1149.4617	1170.5478	1217.4818	1259.5921	1302.66	1343.6156	1367.6523	1414.3677	1422.7802	1479.8332	1483.0803	1487.5554	1497.2098	1713.3895	1816.6792	2889.9776	3010.9615	3020.2277	3044.6452	3065.3405	3092.34	3118.0029	3183.3792	3229.9114
CC1=CC2(CN2C1)C=O	CC1=C[C@]2(CN2C1)C=O	
InChI=1S/C7H9NO/c1-6-2-7(5-9)4-8(7)3-6/h2,5H,3-4H2,1H3	InChI=1S/C7H9NO/c1-6-2-7(5-9)4-8(7)3-6/h2,5H,3-4H2,1H3/t7-,8?/m0/s1
