18
gdb 109644	2.85449	1.05935	0.9902	3.313	74.51	-0.2458	0.0183	0.264	1260.2803	0.148732	-435.244067	-435.234645	-435.233701	-435.277964	35.215	
N	-0.2228677069	 1.3428882547	 0.2677326264	-0.529834
C	-0.1716239935	-0.083127915	 0.0606897638	-0.016387
C	-1.4542601892	-0.8337214952	-0.0931687349	-0.075791
C	-2.7662839303	-0.0734665169	 0.0378513499	-0.103393
O	-2.9013842284	 0.4678224215	 1.3389454966	-0.422054
C	-0.5370150539	-0.6757098884	-1.3200208213	 0.075499
N	-0.9128124861	 0.2887221184	-2.3240010006	-0.561863
C	 0.1811472899	-1.8458593383	-1.7639045489	 0.237106
N	 0.7712368398	-2.7692007174	-2.139814	-0.346771
H	 0.7160966453	 1.7185349948	 0.3498554044	 0.243328
H	-0.649458994	 1.7810339871	-0.5465167651	 0.2542
H	 0.6314459957	-0.5731526081	 0.5992574046	 0.119527
H	-1.4624081526	-1.8329538002	 0.3296161597	 0.117052
H	-2.8375863623	 0.7026781449	-0.7353958829	 0.099223
H	-3.6106200161	-0.754755659	-0.1061242132	 0.11392
H	-2.1405060531	 1.0538757632	 1.4598734226	 0.295855
H	-0.111320608	 0.5299734549	-2.8991911156	 0.248393
H	-1.6264439064	-0.0840391411	-2.9425829254	 0.251992
101.172	129.686	151.5499	185.9712	231.5625	268.0249	304.858	344.4045	352.9901	421.6968	456.3518	551.5877	576.2419	599.9986	660.9672	719.2899	799.1503	832.5557	875.0249	933.3785	985.0422	1042.2995	1044.8959	1073.7519	1110.8128	1133.1939	1191.1233	1231.9193	1254.7134	1278.501	1299.0806	1360.725	1406.04	1453.1922	1466.0705	1518.1702	1653.4991	1662.8529	2329.9815	3018.3941	3078.0899	3166.1155	3182.8068	3477.5223	3498.0169	3568.7782	3573.5389	3730.0498
NC1C(CO)C1(N)C#N	N[C@H]1[C@@H](CO)[C@]1(N)C#N	
InChI=1S/C5H9N3O/c6-2-5(8)3(1-9)4(5)7/h3-4,9H,1,7-8H2	InChI=1S/C5H9N3O/c6-2-5(8)3(1-9)4(5)7/h3-4,9H,1,7-8H2/t3-,4+,5-/m1/s1
