18
gdb 133664	3.3001	0.72511	0.68268	2.2562	61.44	-0.2772	0.0641	0.3413	1635.3234	0.142069	-570.607692	-570.597805	-570.596861	-570.643747	35.292	
C	 0.0473599047	 1.5699461711	 0.067819555	-0.407045
C	 0.0189171464	 0.0426928167	 0.0367672111	 0.129322
O	 0.699789579	-0.5136368037	 1.1599971736	-0.427038
C	-1.4100496719	-0.5060341878	-0.0755365755	-0.204358
C	-1.4395366868	-2.0345216412	-0.1531737391	-0.329359
C	-2.8409524197	-2.5994184656	-0.1139659487	 0.279797
F	-3.5962810812	-2.1385400636	-1.1275420614	-0.088643
F	-2.8327641451	-3.9389241944	-0.2011132141	-0.079438
F	-3.4767700088	-2.2784859926	 1.0278130731	-0.088012
H	 1.0755103165	 1.9274334429	 0.1679201774	 0.128079
H	-0.3822765269	 1.9942944041	-0.8451005452	 0.120831
H	-0.5336399399	 1.9518052085	 0.9169611921	 0.10983
H	 0.5992930027	-0.3069589648	-0.8268950957	 0.091745
H	 0.2954665289	-0.1498389148	 1.9561020184	 0.27894
H	-1.9883968089	-0.175092521	 0.7972928127	 0.103734
H	-1.8998091394	-0.0770816451	-0.956681053	 0.113408
H	-0.9715425179	-2.3895238986	-1.0771402205	 0.126303
H	-0.880986982	-2.4622040203	 0.6830845995	 0.141904
38.985	65.6426	116.2154	148.4621	228.26	242.4321	298.9217	309.7638	360.6913	419.6849	465.0002	481.0742	538.7767	566.0814	654.7727	779.6431	836.2739	866.3952	938.2964	952.5761	1041.4817	1056.3889	1090.6826	1128.6831	1155.5174	1187.3358	1240.9435	1267.0301	1304.2621	1310.6047	1348.5787	1374.5276	1402.5613	1410.6407	1421.9611	1475.8582	1489.1038	1495.1754	1497.8539	3021.2916	3023.9888	3035.4855	3064.2484	3075.6733	3096.5823	3121.3313	3122.4217	3792.8536
CC(O)CCC(F)(F)F	C[C@@H](O)CCC(F)(F)F	
InChI=1S/C5H9F3O/c1-4(9)2-3-5(6,7)8/h4,9H,2-3H2,1H3	InChI=1S/C5H9F3O/c1-4(9)2-3-5(6,7)8/h4,9H,2-3H2,1H3/t4-/m1/s1
