22
gdb 14017	4.92316	1.1294	1.05911	0.1125	83.1	-0.2523	0.0922	0.3444	1237.2998	0.200261	-313.052603	-313.043872	-313.042928	-313.086115	32.926	
C	-0.0279017922	 1.5289710112	-0.5618490679	-0.369807
C	-0.0445426753	 0.1972451448	 0.1974077032	-0.194266
C	-1.4087608798	-0.4621481697	 0.2084542218	-0.05698
C	-1.8540727008	-1.3251474166	-0.9548538968	-0.350002
C	-1.5556962066	-1.9443568473	 0.3832544736	 0.371675
C	-0.4688353043	-2.9971510506	 0.6575414078	-0.288054
C	-1.5784218349	-3.9228047988	 1.2388940204	-0.205315
C	-2.5611911227	-2.7143890776	 1.2524966515	-0.294118
H	 0.9691051181	 1.9809281029	-0.5529152847	 0.10746
H	-0.3271576455	 1.3889851917	-1.605826752	 0.117006
H	-0.7233130389	 2.2470108306	-0.1131600715	 0.112118
H	 0.6834523909	-0.4900572474	-0.2515279987	 0.094025
H	 0.2917462646	 0.3616616399	 1.2301803041	 0.093036
H	-2.1915968625	 0.1404541496	 0.6680219771	 0.072896
H	-2.8886480023	-1.2692913241	-1.2800680503	 0.103851
H	-1.1426769356	-1.4915763673	-1.7599113747	 0.103364
H	 0.0864356647	-3.3764166632	-0.2048372215	 0.094992
H	 0.2520103713	-2.6762487236	 1.4170885985	 0.097901
H	-1.8841637835	-4.6969960259	 0.530938911	 0.103038
H	-1.368555651	-4.3966309236	 2.2002582439	 0.095578
H	-2.6806996456	-2.2786735817	 2.2502689719	 0.096415
H	-3.5552373983	-2.8823290331	 0.8281343932	 0.095186
63.6475	93.6305	133.2126	178.3161	251.5549	292.3634	338.3448	409.0236	429.4423	606.0514	704.5535	767.7491	789.4095	809.3158	865.3011	878.6082	909.4165	937.7074	941.0788	942.7794	984.5748	1027.8642	1049.0507	1076.0938	1098.32	1122.8588	1146.558	1187.1771	1195.0527	1223.7351	1228.6584	1254.828	1269.9561	1278.315	1298.1456	1327.79	1361.3909	1409.1257	1430.7048	1477.2698	1478.7312	1483.6153	1496.3202	1498.4715	1506.3314	1508.1394	3012.4454	3030.6421	3038.2552	3042.3001	3047.3003	3064.4936	3085.2513	3089.5207	3097.1182	3103.4441	3109.0495	3110.7664	3119.6161	3193.8111
CCC1CC11CCC1	CC[C@H]1CC21CCC2	
InChI=1S/C8H14/c1-2-7-6-8(7)4-3-5-8/h7H,2-6H2,1H3	InChI=1S/C8H14/c1-2-7-6-8(7)4-3-5-8/h7H,2-6H2,1H3/t7-/m0/s1
