21
gdb 111236	2.72292	1.38592	1.3408	1.4506	77.35	-0.2418	0.0817	0.3235	1109.3485	0.184205	-424.206314	-424.198187	-424.197243	-424.239156	31.906	
C	 0.0721280252	 1.5376116048	 0.0993869651	-0.382642
C	-0.166198103	 0.0318853092	-0.0598735544	-0.204497
C	 0.6360837808	-0.5729401298	-1.2000777706	 0.021323
C	 2.1935049027	-0.6736362823	-1.1165728807	 0.101105
O	 2.5540879829	-1.0908034288	 0.2039435163	-0.27681
C	 2.1410322442	-2.4164785816	 0.4656905849	 0.024479
O	 0.8868110076	-2.7311408435	-0.1029041977	-0.274389
C	 0.7163550939	-2.1209088328	-1.3861580849	 0.084485
C	 2.0899999596	-1.8921782601	-2.0747294197	-0.291948
H	 1.1200049829	 1.7457208436	 0.3392820726	 0.123977
H	-0.174995226	 2.0833408057	-0.8184911628	 0.107541
H	-0.5407500559	 1.9511572574	 0.9062710541	 0.111498
H	 0.0824564351	-0.4820149341	 0.872330425	 0.112345
H	-1.2322294297	-0.1581109274	-0.2410828308	 0.091352
H	 0.3602486235	-0.110505813	-2.1555042513	 0.068531
H	 2.825836608	 0.1799838461	-1.3650421812	 0.078012
H	 2.9025085742	-3.121146931	 0.0958823466	 0.091617
H	 2.046789465	-2.5233382239	 1.549636884	 0.118129
H	-0.0833117924	-2.6639731856	-1.892749661	 0.076883
H	 1.9592595525	-1.5655240676	-3.1077791638	 0.11008
H	 2.8492318187	-2.6745341853	-2.0365533297	 0.108929
59.4732	156.5046	184.9165	255.8309	297.9237	315.3631	415.2743	472.4824	533.7324	582.7301	627.4268	735.7385	800.9908	840.8194	842.6551	865.2369	926.5003	934.5831	964.2909	998.3653	1004.303	1057.7168	1068.8087	1079.0476	1134.4623	1152.696	1164.0727	1183.3287	1194.125	1227.013	1242.0773	1269.0622	1272.8599	1285.1741	1343.858	1354.9006	1370.7188	1400.0731	1412.4246	1441.9202	1484.7969	1486.3541	1501.3059	1507.0939	1541.5958	2968.2462	3025.4964	3029.8296	3037.7	3081.7167	3083.8587	3089.6699	3097.4751	3102.6603	3104.3324	3106.551	3138.5649
CCC1C2OCOC1C2	CC[C@H]1[C@H]2OCO[C@@H]1C2	
InChI=1S/C7H12O2/c1-2-5-6-3-7(5)9-4-8-6/h5-7H,2-4H2,1H3	InChI=1S/C7H12O2/c1-2-5-6-3-7(5)9-4-8-6/h5-7H,2-4H2,1H3/t5-,6-,7+
