17
gdb 10265	2.58102	1.70826	1.29362	2.6396	70.59	-0.233	-0.0305	0.2026	1008.675	0.138226	-363.812567	-363.803181	-363.802237	-363.846633	32.983	
C	-0.0756932309	 1.5422316672	-0.092032701	-0.320206
N	 0.0495209448	 0.1312471407	 0.2503935661	-0.059374
C	 0.7568843965	-0.064449629	 1.5124654605	-0.331321
C	-1.2224402046	-0.5881013965	 0.1872330445	-0.27863
C	-0.9285898776	-2.0952965787	 0.074602081	 0.158377
O	-1.5694281414	-2.9728007341	 0.5795598346	-0.230563
C	-2.1919903642	-0.2647377361	 1.2381733081	 0.382903
C	-2.9493795964	 0.043705128	 2.1188367354	-0.473632
H	 0.9219344498	 1.9895229037	-0.136452078	 0.122975
H	-0.5374340897	 1.6440210839	-1.0792041549	 0.119255
H	-0.6782253628	 2.1154131906	 0.6329118195	 0.112616
H	 0.2416713812	 0.3896679664	 2.3747192971	 0.116936
H	 0.8750489377	-1.133746875	 1.715251545	 0.128843
H	 1.7550464363	 0.3757387907	 1.4327356397	 0.123649
H	-1.6701919978	-0.339660587	-0.7894557769	 0.129736
H	-0.0413223388	-2.2866234423	-0.5681992863	 0.0958
H	-3.6315960021	 0.2979263875	 2.8923182158	 0.202637
71.7953	97.0921	131.2382	172.1976	228.7072	237.8131	248.967	343.2117	374.9344	380.1599	460.8009	598.6475	637.4545	664.9266	686.0034	763.2892	883.0668	1013.7694	1060.6169	1066.7488	1072.2083	1120.0465	1187.4967	1197.5675	1286.0031	1301.4669	1342.9641	1392.1836	1444.0884	1474.3358	1476.6159	1492.4912	1502.2674	1516.698	1849.0888	2230.121	2898.8048	2964.9607	2975.2696	2978.7141	3065.0632	3067.959	3105.4524	3109.31	3501.6443
CN(C)C(C=O)C#C	CN(C)[C@@H](C=O)C#C	
InChI=1S/C6H9NO/c1-4-6(5-8)7(2)3/h1,5-6H,2-3H3	InChI=1S/C6H9NO/c1-4-6(5-8)7(2)3/h1,5-6H,2-3H3/t6-/m1/s1
