23
gdb 42100	3.39002	1.21486	1.15384	1.2677	84.66	-0.2385	0.0806	0.3191	1210.0082	0.208643	-388.321931	-388.313517	-388.312573	-388.356664	32.744	
C	 0.2624774585	 1.281568011	 0.5753351325	-0.202985
C	 1.2267090673	 2.1093186515	-0.2993859497	-0.201178
C	 2.0630276766	 1.0606857598	-1.0827832309	-0.256329
C	 1.3950765163	-0.3192991153	-0.8340736432	 0.449651
C	 0.0010102973	 0.0383888146	-0.2816673612	-0.242294
C	 1.3789071735	-1.3179652365	-2.023335883	-0.318773
C	 2.3363294095	-2.4431195106	-1.5933228952	-0.210325
C	 2.2252950851	-2.3623556083	-0.0702193338	-0.078191
O	 2.1547166082	-0.9751356679	 0.2085168026	-0.299081
H	 0.7595030468	 0.9780650332	 1.5025478755	 0.111846
H	-0.6464183498	 1.8269271566	 0.8444414204	 0.085923
H	 0.6521694236	 2.7294484341	-0.9966309647	 0.093805
H	 1.8496533155	 2.7886986165	 0.2882032913	 0.095405
H	 2.0910971335	 1.294536294	-2.150656612	 0.091685
H	 3.0957026381	 1.0098775147	-0.7305252268	 0.109752
H	-0.443166767	-0.7998193664	 0.2637543948	 0.092038
H	-0.668160472	 0.2871282915	-1.1166568931	 0.087851
H	 0.367506471	-1.7140215375	-2.1638286222	 0.100733
H	 1.6752383046	-0.8455460344	-2.9625039837	 0.102417
H	 2.0635504479	-3.4214384523	-1.9973561101	 0.096928
H	 3.3627293144	-2.2194380194	-1.9012849661	 0.106322
H	 1.3219493266	-2.8893054702	 0.2826303389	 0.081491
H	 3.0867294543	-2.7705949285	 0.4663036698	 0.103307
18.3736	45.7383	192.3709	239.0837	304.7253	369.8412	420.4896	456.1723	574.0842	597.8678	695.1433	758.7545	786.3965	836.8908	854.6904	883.7915	897.7746	909.9049	933.0066	951.107	984.7294	999.0576	1019.0879	1033.6367	1058.4076	1084.2591	1118.572	1171.3203	1185.5461	1202.47	1224.3257	1235.3187	1256.1097	1260.8602	1286.1621	1302.4847	1322.9074	1333.2642	1338.5393	1347.3948	1359.6102	1389.3135	1474.7932	1477.4249	1486.0909	1489.7815	1499.3957	1509.8348	1521.191	2953.5959	3016.7527	3037.7117	3046.3383	3049.402	3051.1926	3060.221	3082.2764	3084.0807	3084.5377	3096.6362	3099.6988	3109.3485	3113.8318
C1CCC2(C1)CCCO2	C1CCC2(C1)CCCO2	
InChI=1S/C8H14O/c1-2-5-8(4-1)6-3-7-9-8/h1-7H2	InChI=1S/C8H14O/c1-2-5-8(4-1)6-3-7-9-8/h1-7H2
