13
gdb 123969	3.86722	1.66623	1.17472	2.8375	65.33	-0.225	-0.0451	0.1799	938.5355	0.091846	-448.908333	-448.90181	-448.900866	-448.939415	24.719	
C	-0.0076750638	 1.5187535871	-0.0485725327	-0.272399
N	 1.3613352517	 2.0482318453	 0.0400797671	-0.252415
C	 2.3619442555	 1.2902532102	 0.2511296367	 0.087188
N	 2.3602444852	-0.0867921695	 0.4479122976	-0.427454
C	 1.1373705618	-0.6944991381	 0.2147689006	 0.31415
C	 0.0112876108	 0.0259547044	-0.0102182499	 0.323944
O	-0.9895805892	-0.8308704501	-0.1895151949	-0.217686
N	-0.4203364377	-2.146776476	-0.0663452561	-0.025837
N	 0.8178353241	-2.0172297078	 0.1714110593	-0.214473
H	-0.6060395968	 1.9347646187	 0.7749941315	 0.140537
H	-0.4736473514	 1.8900725676	-0.9709229647	 0.142218
H	 3.3534290886	 1.7364126484	 0.3108064961	 0.130381
H	 3.2148031011	-0.6124902103	 0.3609484894	 0.271846
94.31	233.9197	324.223	335.1426	398.4924	488.5862	549.5625	612.5875	651.7849	658.7064	725.2353	766.9695	888.4258	941.8132	955.732	1014.3758	1032.8004	1099.6843	1229.8325	1237.0541	1274.0313	1343.3248	1378.7812	1409.6588	1413.9976	1494.3792	1531.6053	1674.5236	1736.0365	2997.7603	3024.689	3149.1791	3648.3491
C1N=CNC2=C1ON=N2	C1N=CNc2c1onn2	
InChI=1S/C4H4N4O/c1-3-4(6-2-5-1)7-8-9-3/h2H,1H2,(H,5,6)	InChI=1S/C4H4N4O/c1-3-4(6-2-5-1)7-8-9-3/h2H,1H2,(H,5,6)
