17
gdb 52066	2.69214	1.11174	0.88451	4.222	76.14	-0.2589	0.0099	0.2688	1313.5448	0.133308	-421.798466	-421.789189	-421.788245	-421.833378	33.35	
O	 0.4538928918	 0.0003657332	-0.0126049647	-0.276334
C	 0.6252897211	 1.1102349147	 0.3905260967	 0.179717
O	 0.6615608273	 2.1823169311	-0.4287643747	-0.177239
C	 0.9261946605	 3.4610342794	 0.1556196729	-0.163287
C	 2.3788307958	 3.8625773298	-0.0188094124	 0.156973
C	 2.8054366346	 4.3855837214	-1.3820735649	-0.281176
C	 2.670187757	 5.3427968337	-0.237296106	-0.301623
C	 3.3159973106	 3.0812041303	 0.7421081152	 0.260564
C	 4.0704443044	 2.4069825554	 1.3929278572	-0.453519
H	 0.7559803449	 1.3800871279	 1.45553495	 0.083323
H	 0.2749450136	 4.170979333	-0.3610032901	 0.119941
H	 0.6554147186	 3.4514891189	 1.2186002085	 0.121099
H	 3.8004178893	 4.1231489038	-1.7190412028	 0.137803
H	 2.0497094402	 4.3928513667	-2.1595577829	 0.132571
H	 1.8232519837	 6.0208124737	-0.2237575269	 0.123282
H	 3.5707121409	 5.7359237689	 0.2178943118	 0.136073
H	 4.7465052158	 1.8127721081	 1.9566181932	 0.201829
54.0586	61.2702	149.7576	161.3593	207.9183	257.3264	275.9909	386.7625	405.4279	533.7197	547.658	595.6966	664.8345	676.0665	710.0742	785.3517	882.9655	936.4751	945.12	961.5851	1028.3566	1038.9512	1054.6559	1072.8224	1090.1502	1153.2953	1192.8467	1285.1985	1293.184	1358.3737	1401.3408	1431.4659	1467.5813	1491.088	1501.0231	1868.482	2234.6289	2961.1789	3032.1152	3098.9846	3140.3567	3147.3903	3228.1889	3242.8446	3501.4531
O=COCC1(CC1)C#C	O=COCC1(CC1)C#C	
InChI=1S/C7H8O2/c1-2-7(3-4-7)5-9-6-8/h1,6H,3-5H2	InChI=1S/C7H8O2/c1-2-7(3-4-7)5-9-6-8/h1,6H,3-5H2
