17
gdb 112371	2.28249	1.46846	0.94184	2.2676	71.29	-0.2722	-0.0052	0.2671	1225.6602	0.136873	-455.21914	-455.210651	-455.209707	-455.25281	31.105	
C	-0.0199005136	 1.5492717372	-0.0554534793	-0.394969
C	-0.008913192	 0.0224565407	 0.0402057252	-0.180217
C	-1.4084961769	-0.5826437883	 0.0336020264	 0.045353
O	-2.08316113	-0.3110218393	-1.2164880362	-0.246919
C	-2.4637397643	-1.4638411179	-1.8192104112	 0.488561
O	-3.0348767615	-1.5362626733	-2.8665887849	-0.376419
N	-2.0686738084	-2.5194210524	-0.9998818345	-0.421331
C	-1.4164162548	-2.100679678	 0.1460557361	 0.376579
N	-0.9058012063	-2.7418251412	 1.1113382395	-0.537594
H	 0.9999420309	 1.9437725143	-0.0555265907	 0.12109
H	-0.513225938	 1.8809739191	-0.9731515979	 0.140911
H	-0.5509465221	 1.9947043653	 0.7929419829	 0.119642
H	 0.5598341418	-0.4104060384	-0.7913164038	 0.108689
H	 0.4740413723	-0.3133812412	 0.9637799596	 0.135445
H	-2.0161239859	-0.146728046	 0.8347980953	 0.127473
H	-2.2459240197	-3.474311519	-1.2656690103	 0.274804
H	-1.0062353616	-3.7517923315	 1.0058766037	 0.218901
76.828	109.9179	137.3347	172.3826	238.9029	307.0123	405.7536	422.436	513.6599	576.2635	628.8745	647.9702	702.1319	770.5619	791.7719	859.2992	879.3207	950.4631	968.8684	1010.0217	1075.7034	1095.7718	1129.9505	1148.3863	1195.0005	1285.1234	1299.4718	1352.5428	1361.8053	1389.4037	1401.9188	1413.8104	1477.4589	1497.5621	1507.9615	1779.4048	1909.1391	3038.0953	3040.4921	3053.5154	3087.6277	3109.6821	3124.0284	3474.5524	3662.0974
CCC1OC(=O)NC1=N	CC[C@H]1OC(=O)N[C]1[NH]	
InChI=1S/C5H8N2O2/c1-2-3-4(6)7-5(8)9-3/h3H,2H2,1H3,(H2,6,7,8)	InChI=1S/C5H8N2O2/c1-2-3-4(6)7-5(8)9-3/h3H,2H2,1H3,(H2,6,7,8)/t3-/m1/s1
