21
gdb 70912	2.52512	1.81964	1.32738	1.4619	81.75	-0.2171	0.0898	0.3069	1057.8353	0.182566	-387.08155	-387.073298	-387.072354	-387.113615	33.318	
C	-0.0106968272	 1.4399565142	-0.0924871131	-0.49936
C	-0.0368704431	-0.0497887124	 0.0000394711	 0.476451
O	 0.8188468339	-0.7849798339	-0.8832978377	-0.37553
C	-0.1110421284	-1.9329230265	-0.8092711616	 0.428065
C	-0.4675484449	-2.4468493615	-2.1806639139	-0.479504
C	 0.4969258778	-2.914379358	 0.1957017005	-0.233291
C	 0.6168540899	-2.0718604416	 1.4952504082	-0.236115
C	-0.303031148	-0.8741780218	 1.2483465659	-0.125264
C	-1.1258382881	-1.0784169148	-0.0129650491	-0.262571
H	 0.9774720523	 1.8257109926	 0.182706244	 0.129376
H	-0.2330909559	 1.7719452785	-1.1116818547	 0.125833
H	-0.7473707856	 1.8792717041	 0.5865449798	 0.121069
H	 0.4223277243	-2.8371223528	-2.6850446281	 0.12589
H	-1.2040400929	-3.254622311	-2.1101474681	 0.115455
H	-0.885337372	-1.6459310432	-2.7964822737	 0.124398
H	-0.1753244506	-3.769303103	 0.3357924266	 0.093282
H	 1.4608008978	-3.2946974955	-0.1553202291	 0.101805
H	 0.2989079878	-2.6367201481	 2.3763087599	 0.095399
H	 1.6489783516	-1.7521160717	 1.6669882425	 0.107442
H	-0.7553509247	-0.3515036801	 2.0846933497	 0.080798
H	-2.2002428539	-1.0216702234	-0.1283073292	 0.086374
181.7522	197.041	198.963	212.4622	258.7296	295.9463	346.6907	421.6674	497.7983	580.2534	596.0781	730.2498	744.3104	770.2954	813.343	849.4982	864.8928	891.8522	910.4129	923.6239	964.853	989.1911	1015.372	1033.8592	1064.5356	1094.1657	1112.6078	1129.4427	1179.9903	1215.2649	1233.2828	1258.925	1269.7597	1283.8303	1317.7644	1355.7147	1404.834	1409.9269	1461.2984	1473.0772	1473.8638	1483.5838	1492.0297	1498.4352	1503.4446	3031.6678	3032.1749	3037.3939	3053.9758	3082.6648	3095.3632	3098.8129	3105.0409	3113.7133	3117.075	3169.5477	3194.9919
CC12OC3(C)CCC1C23	C[C@@]12O[C@@]3(C)CC[C@@H]1[C@@H]23	
InChI=1S/C8H12O/c1-7-4-3-5-6(7)8(5,2)9-7/h5-6H,3-4H2,1-2H3	InChI=1S/C8H12O/c1-7-4-3-5-6(7)8(5,2)9-7/h5-6H,3-4H2,1-2H3/t5-,6-,7+,8-/m1/s1
