18
gdb 110662	3.47916	1.31259	1.20552	1.6547	77.71	-0.2131	-0.0457	0.1674	1076.8122	0.147683	-401.808952	-401.801358	-401.800414	-401.841038	29.998	
O	 0.6105673694	 0.5025675132	-0.4150160339	-0.415407
C	-0.2503080697	 0.4046715006	 0.7102691257	-0.086876
C	-1.599399478	-0.1802526852	 0.3297166788	-0.049253
C	-1.7438260971	-1.6955882893	-0.1368944524	-0.053076
C	-3.0624553762	-1.8153789821	 0.5109284286	-0.086794
N	-2.0794822418	-2.8193250389	 0.8513955238	-0.117538
C	-1.8660127281	-2.6468353447	 2.3172128854	-0.176468
C	-2.0514513229	-1.1478629841	 2.5332186795	-0.11414
C	-2.5980004857	-0.6419257706	 1.4085954881	-0.01663
H	 0.2471784144	 1.1651798663	-1.0111368772	 0.283543
H	 0.2596981861	-0.2535252453	 1.4202621699	 0.109598
H	-0.3846307613	 1.3800368152	 1.2044598578	 0.095452
H	-2.04242664	 0.4178331152	-0.4804313991	 0.076533
H	-1.4342849458	-2.0571572637	-1.111130914	 0.112172
H	-4.0484480531	-2.0338123826	 0.1179848138	 0.092917
H	-2.5601780047	-3.3316708005	 2.8213840078	 0.119527
H	-0.8490850168	-2.9233611396	 2.6196896036	 0.120979
H	-1.3614345586	-0.5975310438	 3.1656978237	 0.10546
90.1883	153.6879	192.7454	296.5936	339.528	374.8046	476.8917	542.1753	571.0294	690.9184	723.3903	775.1807	802.3404	808.8518	876.1731	891.9848	903.382	933.9717	973.2181	1002.8307	1023.0958	1045.8077	1069.0019	1077.3982	1115.6491	1158.3111	1190.7382	1194.5744	1213.3912	1221.5667	1278.2126	1286.4379	1323.7483	1350.5475	1397.11	1418.0313	1473.5571	1499.7913	1574.1176	2979.37	2995.0317	3019.5606	3065.7211	3084.7285	3171.0796	3174.8532	3187.4237	3816.5464
OCC1C2C3N2CC=C13	OC[C@H]1[C@@H]2[C@H]3N2C[CH][C]13	
InChI=1S/C7H9NO/c9-3-5-4-1-2-8-6(4)7(5)8/h1,5-7,9H,2-3H2	InChI=1S/C7H9NO/c9-3-5-4-1-2-8-6(4)7(5)8/h1,5-7,9H,2-3H2/t5-,6+,7-,8?/m1/s1
