23
gdb 105234	1.91677	1.45524	0.99522	1.9608	81.47	-0.2549	0.0759	0.3308	1322.6305	0.203112	-425.421713	-425.411049	-425.410105	-425.457094	39.827	
C	-0.457742278	-0.3689060132	 0.688968991	-0.388202
C	 1.0058859378	-0.804681479	 0.5304960111	-0.272824
C	 1.4345690575	-0.9543021063	-0.9174101762	 0.356691
O	 2.6050312684	-1.7706496681	-1.1421048762	-0.326873
C	 1.326386947	-2.2458286238	-1.6238742289	 0.026383
C	 0.8032638904	-3.5325676556	-1.040230845	-0.429697
C	 1.4634408564	 0.3235735548	-1.7781794392	 0.069145
C	 2.2104331775	 1.4791071933	-1.1002551837	-0.409437
O	 2.0383378841	 0.0464831701	-3.0443874564	-0.434565
H	-0.6417664415	 0.6158460285	 0.2480396419	 0.125259
H	-1.1376149036	-1.07938557	 0.2075636746	 0.12146
H	-0.7287729577	-0.3104110076	 1.7470806928	 0.119324
H	 1.6644848117	-0.0824333495	 1.0250796549	 0.110041
H	 1.1685109471	-1.7547572691	 1.0449411198	 0.108807
H	 1.2412937486	-2.1790492205	-2.7076574633	 0.102471
H	 0.8948835606	-3.571473092	 0.0463247679	 0.127038
H	-0.2507435765	-3.6651957991	-1.3080784048	 0.124288
H	 1.3581772083	-4.3808286955	-1.4549121548	 0.131327
H	 0.4305584953	 0.631813874	-1.9809024554	 0.090995
H	 1.686587645	 1.8511691275	-0.214715924	 0.114066
H	 3.216121287	 1.1656052207	-0.7987671048	 0.121847
H	 2.3074192968	 2.3023712095	-1.8120969262	 0.125368
H	 2.8251584478	-0.4842820988	-2.8531731049	 0.287086
74.8515	78.8601	145.9962	184.8084	188.7746	217.6584	251.8396	262.5426	324.274	345.3975	421.5942	436.661	468.7475	483.5589	533.2447	629.106	678.9689	778.7714	790.9476	882.3569	906.7696	946.6689	983.5606	1017.1285	1044.048	1065.7829	1084.4545	1113.889	1132.6715	1148.0877	1184.7087	1239.8868	1273.7961	1299.3972	1336.1573	1356.5893	1372.1224	1400.5496	1408.564	1414.1541	1436.8251	1463.5233	1482.0513	1492.1766	1496.0393	1500.8997	1502.0533	1504.8502	1518.8687	3035.3897	3037.6114	3039.3673	3041.2009	3054.864	3090.3722	3097.8701	3107.427	3110.2911	3113.6757	3119.4688	3124.6405	3141.88	3736.7569
CCC1(OC1C)C(C)O	CC[C@]1(O[C@H]1C)[C@@H](C)O	
InChI=1S/C7H14O2/c1-4-7(5(2)8)6(3)9-7/h5-6,8H,4H2,1-3H3	InChI=1S/C7H14O2/c1-4-7(5(2)8)6(3)9-7/h5-6,8H,4H2,1-3H3/t5-,6+,7+/m1/s1
