21
gdb 70869	2.66493	1.56594	1.18045	1.1438	83.	-0.2303	0.0802	0.3105	1125.9693	0.180782	-387.05232	-387.043241	-387.042297	-387.085203	35.705	
C	-0.095326588	 1.4680451201	 0.0271837838	-0.504252
C	 0.0328629224	-0.0264194956	-0.0256887853	 0.303925
C	 0.0451481997	-0.8734855285	-1.3031749053	-0.349687
C	-0.2150218799	-2.0837283214	-0.3655817056	 0.393116
O	-0.9404281484	-3.1932132295	-0.7743337002	-0.481789
C	 1.1019364225	-2.209453843	 0.4475976371	-0.349699
C	 0.7028465557	-0.8734241576	 1.0843005535	 0.303928
C	 1.29706383	-0.2922507937	 2.3340190343	-0.504252
C	-0.7558211866	-1.0814438144	 0.7256505427	-0.229643
H	 0.8052340075	 1.9603775267	-0.3596990695	 0.117267
H	-0.9431812682	 1.807271711	-0.5787681873	 0.118517
H	-0.2569057172	 1.830155157	 1.0469542966	 0.11875
H	-0.8344295337	-0.6595224743	-1.9186520826	 0.09622
H	 0.9481237766	-0.8896639994	-1.927688691	 0.075484
H	-0.4265312113	-3.6619642098	-1.4417626295	 0.278619
H	 1.0345749236	-3.0222671472	 1.1776983046	 0.096217
H	 2.0465377549	-2.2782449611	-0.10795787	 0.075489
H	 2.3334403873	 0.0283713991	 2.1721429438	 0.117267
H	 0.7349273636	 0.5762767956	 2.6901448014	 0.118751
H	 1.3028715997	-1.0322582253	 3.1423913668	 0.118516
H	-1.6653399002	-1.0378424586	 1.3079033817	 0.087256
164.2475	173.7131	179.0964	202.4538	220.4619	268.7149	291.3216	356.3624	423.8992	445.7938	463.4634	585.5855	592.7535	641.0741	751.3468	756.5852	870.062	885.6119	888.2168	943.4304	947.7549	978.4653	1018.3688	1028.7247	1051.68	1099.8586	1123.22	1154.3033	1164.4821	1169.5612	1184.978	1227.886	1231.4545	1306.4157	1355.081	1376.7118	1410.6431	1414.3881	1428.4706	1480.5803	1487.5784	1491.7047	1492.0116	1503.1351	1514.0312	3007.4684	3015.3338	3020.5782	3025.0521	3077.2474	3078.6916	3083.779	3085.9188	3096.3248	3105.5692	3218.0148	3794.3474
CC12CC3(O)CC1(C)C23	C[C@@]12C[C@@]3(O)C[C@]1(C)[C@@H]23	
InChI=1S/C8H12O/c1-6-3-8(9)4-7(6,2)5(6)8/h5,9H,3-4H2,1-2H3	InChI=1S/C8H12O/c1-6-3-8(9)4-7(6,2)5(6)8/h5,9H,3-4H2,1-2H3/t5-,6+,7-,8-
