18
gdb 90531	4.39026	1.03515	0.9628	4.4763	76.53	-0.2614	0.025	0.2864	1246.569	0.148098	-401.934438	-401.926289	-401.925344	-401.967542	30.673	
C	 0.4903559746	 1.5225010892	-0.338498377	-0.410249
C	 0.050840573	 0.1205939051	 0.0234150634	 0.149804
O	 0.7736563292	-0.9156348242	-0.7109546536	-0.307863
C	 1.0458331526	-1.64447893	 0.4886175376	 0.113423
C	 2.4757442293	-1.3183841072	 1.0441234492	-0.16451
C	 1.8266879119	-0.2126375902	 1.9559013096	-0.264583
C	 0.4262483665	-0.5337118209	 1.3751181168	-0.101855
C	 3.1433070986	-2.3942357784	 1.7532043336	 0.261579
N	 3.644651994	-3.2638348888	 2.3280618868	-0.324691
H	 1.5614563512	 1.6710258261	-0.1771138547	 0.122798
H	 0.2813638396	 1.7144953806	-1.3954218648	 0.136631
H	-0.0602268697	 2.2601071927	 0.2553358323	 0.124041
H	-1.0249286956	 0.0108345677	-0.1711386974	 0.086624
H	 0.7400749804	-2.6918624829	 0.4475514942	 0.10116
H	 3.1226577027	-0.9362777437	 0.2513154365	 0.133897
H	 1.9033499912	-0.4606158212	 3.0151509965	 0.135081
H	 2.209839941	 0.7984013044	 1.8086144876	 0.119329
H	-0.3815569604	-0.6928137082	 2.0869550932	 0.089383
58.2002	136.852	164.9258	217.8552	282.0005	348.9917	379.623	476.8345	505.5232	554.6867	656.1863	746.8295	817.6768	832.9485	870.3235	894.1	943.0283	981.2669	1008.0968	1026.032	1049.4847	1091.4287	1093.994	1126.7783	1173.166	1176.0275	1200.4697	1229.8206	1265.7201	1282.8728	1314.7977	1322.6486	1349.2173	1390.9186	1411.5609	1478.8331	1481.3815	1504.5527	2350.3666	3005.1756	3039.7763	3083.9381	3091.5733	3092.906	3109.7717	3120.1528	3127.2101	3141.0132
CC1OC2C(CC12)C#N	C[C@H]1O[C@H]2[C@@H](C[C@@H]12)C#N	
InChI=1S/C7H9NO/c1-4-6-2-5(3-8)7(6)9-4/h4-7H,2H2,1H3	InChI=1S/C7H9NO/c1-4-6-2-5(3-8)7(6)9-4/h4-7H,2H2,1H3/t4-,5+,6+,7+/m1/s1
