18
gdb 37867	3.18848	2.23463	1.78618	1.598	79.31	-0.2236	0.0083	0.2318	823.9806	0.151475	-364.74007	-364.73438	-364.733436	-364.769569	25.77	
C	-0.0665310696	 1.5643459904	 0.0325403613	-0.31853
C	 1.4529334479	 1.2079164642	 0.0534655268	-0.033706
C	 1.2066007924	 0.0233643217	 1.0014186178	-0.041257
C	 2.1438582902	-1.1017382073	 0.601453351	-0.254878
C	 1.7487262161	-1.1250547995	-0.9169782581	-0.072652
C	 0.4715510355	-1.9614705233	-1.0270069429	-0.064461
C	-0.5592781587	-1.2610424198	-0.5264035403	-0.214863
C	 0.0476368214	 0.0390872042	-0.1245044381	 0.298907
N	 1.1789083808	 0.2462959125	-1.1098233932	-0.126668
H	-0.4892240711	 1.9481384168	 0.9626197033	 0.096568
H	-0.4174712106	 2.1066818023	-0.84657129	 0.111364
H	 2.2992456108	 1.8971647443	 0.0391433798	 0.077109
H	 0.9589489069	 0.1814531893	 2.0523601996	 0.065412
H	 3.1984014659	-0.8415388744	 0.7406318755	 0.099797
H	 1.9480278204	-2.0471323912	 1.1142996051	 0.100139
H	 2.5499226298	-1.3793486379	-1.6106400027	 0.068769
H	 0.4554919975	-2.994037096	-1.3535974382	 0.100393
H	-1.5733536855	-1.5964811962	-0.3594677667	 0.108558
344.391	376.2999	410.9962	453.4853	537.8263	623.2908	673.8412	731.6183	743.8173	792.9865	804.1485	855.1618	855.8067	875.934	905.5028	926.4079	935.0141	978.704	986.8539	996.178	1017.4636	1041.0713	1063.4117	1076.8539	1101.7649	1132.4624	1166.4383	1193.8396	1201.6141	1208.6011	1211.1518	1261.9757	1290.7718	1309.8479	1321.0153	1367.3681	1491.0086	1497.2329	1602.8984	3048.5583	3074.8518	3092.9167	3098.2468	3106.3933	3115.0345	3148.9148	3204.7718	3235.1302
C1C2C3CC4C=CC13N24	C1[C@H]2[C@@H]3C[C@H]4C=C[C@@]13N24	
InChI=1S/C8H9N/c1-2-8-4-7-6(8)3-5(1)9(7)8/h1-2,5-7H,3-4H2	InChI=1S/C8H9N/c1-2-8-4-7-6(8)3-5(1)9(7)8/h1-2,5-7H,3-4H2/t5-,6+,7+,8-/m1/s1
