17
gdb 26577	2.33231	1.83447	1.04002	1.9622	78.62	-0.229	-0.0396	0.1895	1114.5937	0.136778	-418.095916	-418.087283	-418.086339	-418.129892	31.16	
C	 0.0524410605	 1.502479879	-0.0301158435	-0.483476
C	 0.0027326586	-0.0019384924	-0.0163844307	 0.2302
C	-1.191092852	-0.6775067218	 0.0064998471	 0.109273
C	-2.5297383637	 0.0079561169	 0.019682344	-0.504201
C	-1.1919612234	-2.1316394131	 0.0190990014	 0.375835
O	-2.1576733068	-2.8760817252	 0.0393343318	-0.391831
N	 0.1112207637	-2.6706750585	 0.0051497332	-0.338002
C	 1.2349050079	-1.917484422	-0.0174009465	 0.095986
N	 1.2364972746	-0.6242986528	-0.0286086608	-0.326204
H	 1.0898569484	 1.8370943372	-0.0476102637	 0.142328
H	-0.4672313935	 1.9083079894	-0.9055802502	 0.136614
H	-0.4425231904	 1.9235503762	 0.8524361893	 0.136607
H	-2.6688737082	 0.6407870081	-0.8646231747	 0.128564
H	-3.3208825087	-0.7427612256	 0.037181393	 0.157523
H	-2.6439652365	 0.6555503064	 0.8968439368	 0.128574
H	 0.1615139124	-3.6809747675	 0.0131751322	 0.266657
H	 2.176510627	-2.4612869843	-0.0261336286	 0.135553
50.7256	91.6608	124.0337	187.323	271.6084	291.0179	341.3899	501.021	501.233	539.2356	541.3088	613.7195	681.1645	738.9621	795.6218	867.5177	922.2246	946.6517	996.0558	1037.3947	1072.6518	1102.1321	1147.9814	1178.9607	1217.6534	1343.2066	1401.9936	1407.6155	1422.7138	1466.9881	1478.4392	1481.7953	1488.0156	1499.6828	1584.1547	1656.1934	1777.5223	3026.7979	3033.7071	3073.4433	3084.5751	3143.9535	3149.5765	3163.3675	3595.6238
CC1=C(C)C(=O)NC=N1	Cc1c(C)c(=O)[nH]cn1	
InChI=1S/C6H8N2O/c1-4-5(2)7-3-8-6(4)9/h3H,1-2H3,(H,7,8,9)	InChI=1S/C6H8N2O/c1-4-5(2)7-3-8-6(4)9/h3H,1-2H3,(H,7,8,9)
