19
gdb 107642	2.63963	1.5298	1.14081	3.131	70.16	-0.2531	0.0621	0.3152	1101.8008	0.159864	-460.153173	-460.144748	-460.143804	-460.186091	32.556	
O	-0.3881907897	 1.4027644817	 0.7446224032	-0.428359
C	-0.169994686	 0.0400047235	 0.4267088288	-0.148486
C	-1.4226765018	-0.6396231326	-0.0569435351	 0.349585
O	-2.3832625614	-1.0518668873	 0.9413144617	-0.305771
C	-1.7823690502	-2.0519830038	 0.1022951416	-0.019852
C	-2.6778627079	-2.4910040017	-1.0429909952	-0.251574
C	-3.2173707581	-1.1595780176	-1.6139329276	-0.251812
C	-2.1343379045	-0.1017595125	-1.2944282882	 0.072218
O	-2.6335096103	 1.2218448491	-1.1119686284	-0.44015
H	-0.9517891924	 1.7713013943	 0.0506910466	 0.289679
H	 0.6116897709	-0.0736530966	-0.3450786112	 0.084395
H	 0.1879040449	-0.4504665315	 1.3373264332	 0.111674
H	-1.1418723438	-2.7631542303	 0.6187936946	 0.097444
H	-2.0727628129	-3.0310518167	-1.7811702069	 0.109734
H	-3.4751926368	-3.1660718716	-0.7178140197	 0.116104
H	-3.4441025347	-1.210398408	-2.6805268687	 0.108841
H	-4.1376990017	-0.8779106959	-1.0951051739	 0.114438
H	-1.4128106414	-0.0182621448	-2.115799919	 0.096765
H	-3.2297907623	 1.1892566123	-0.3527237157	 0.295128
93.718	121.6823	185.2139	248.0373	284.0353	332.5886	360.3586	404.4207	464.9285	554.5801	583.2177	616.2153	663.5961	731.577	823.5209	849.1841	920.4443	949.6585	974.6758	998.8563	1015.776	1034.3741	1069.6376	1085.8311	1107.5598	1161.6849	1196.7345	1230.7036	1252.5802	1283.5474	1298.1467	1328.3643	1338.2537	1342.7229	1374.1725	1427.7018	1452.2665	1475.8795	1488.3138	1492.8513	1495.7918	2949.972	3040.4854	3047.0343	3069.0345	3077.7112	3088.1124	3121.3141	3145.0231	3742.2806	3777.6528
OCC12OC1CCC2O	OC[C@]12O[C@H]1CC[C@H]2O	
InChI=1S/C6H10O3/c7-3-6-4(8)1-2-5(6)9-6/h4-5,7-8H,1-3H2	InChI=1S/C6H10O3/c7-3-6-4(8)1-2-5(6)9-6/h4-5,7-8H,1-3H2/t4-,5+,6-/m1/s1
