17
gdb 49062	2.399	1.68632	1.39244	2.4866	73.17	-0.2424	-0.036	0.2063	996.7941	0.135911	-421.823434	-421.815649	-421.814705	-421.856464	28.919	
O	-0.6143214993	 0.708358257	-0.5067222328	-0.248764
C	 0.1019865212	 1.18070258	 0.3375804152	 0.093308
C	 1.3971566983	 1.9082836611	 0.0493120141	 0.345229
O	 1.4573092051	 3.1108134399	 0.8701757794	-0.33593
C	 1.7100919351	 3.9217846772	-0.3052905363	-0.087915
C	 1.5541908738	 2.717685068	-1.26080267	-0.128331
C	 2.8151364648	 2.1902945305	-1.9705224134	-0.289581
C	 3.3958019	 1.2168919614	-0.969899123	-0.053538
C	 2.6355902984	 1.0515746978	 0.1137250756	-0.150319
H	-0.1500406475	 1.1344116082	 1.4211489536	 0.08916
H	 0.9662936727	 4.7194863632	-0.4055489243	 0.111725
H	 2.7138584074	 4.364325715	-0.282818343	 0.104198
H	 0.6705120743	 2.7494614029	-1.8963545479	 0.102376
H	 2.575232724	 1.6904595732	-2.9170532981	 0.122017
H	 3.5217388596	 2.9930081817	-2.2184371587	 0.111842
H	 4.3417643399	 0.7126743129	-1.1396510794	 0.107227
H	 2.8588312523	 0.4063751602	 0.9552721692	 0.107296
48.3937	111.8267	167.853	222.993	301.9401	375.2402	451.552	524.2008	626.129	707.685	743.7051	762.039	831.7751	889.0099	918.1234	942.5648	957.3975	979.6059	996.599	1043.5639	1066.6903	1078.8652	1104.9711	1146.2401	1160.7728	1183.6293	1210.6598	1261.6668	1316.7972	1320.5728	1346.0961	1383.1532	1407.8994	1481.704	1518.8118	1668.7261	1829.3231	2883.3266	3018.9402	3023.8549	3051.1588	3070.2434	3127.748	3182.4918	3211.5973
O=CC12OCC1CC=C2	O=C[C@]12OC[C@H]1CC=C2	
InChI=1S/C7H8O2/c8-5-7-3-1-2-6(7)4-9-7/h1,3,5-6H,2,4H2	InChI=1S/C7H8O2/c8-5-7-3-1-2-6(7)4-9-7/h1,3,5-6H,2,4H2/t6-,7+/m1/s1
