20
gdb 7550	2.88396	1.47023	1.16994	2.537	71.88	-0.233	0.083	0.316	1123.633	0.174204	-386.119433	-386.109961	-386.109017	-386.153575	34.759	
C	 0.0956506303	 1.5063034866	-0.3213694172	-0.387716
C	-0.1397516687	 0.0060282533	-0.2917734489	-0.048132
O	 0.9338206623	-0.625176379	-0.9820375023	-0.306064
C	 0.8178915565	-2.0140712475	-1.163693929	 0.375807
C	 1.1007701201	-2.8507742108	 0.0607382957	-0.45656
C	-0.1739903456	-2.4800424465	-2.2184871252	-0.382705
C	 1.3115313911	-2.421772334	-2.5248785064	 0.095732
O	 1.8081334226	-1.4409155956	-3.3764815191	-0.434495
H	 1.0500329363	 1.7557713711	 0.1508725366	 0.129608
H	 0.1159031604	 1.8744313967	-1.3514198454	 0.125109
H	-0.7032903412	 2.0260359129	 0.2157010755	 0.119085
H	-0.1838432631	-0.3547328427	 0.7458418459	 0.097177
H	-1.0951071212	-0.2520734933	-0.7708073976	 0.096354
H	 0.3289316462	-2.7240692046	 0.828372166	 0.118012
H	 1.1305013281	-3.9122534153	-0.2014174248	 0.121251
H	 2.067427178	-2.5771398713	 0.4960682215	 0.126762
H	-0.6565051854	-3.4438326801	-2.0915928069	 0.109248
H	-0.7832189357	-1.7203390226	-2.6966659282	 0.11604
H	 1.8550735985	-3.3584894893	-2.6150774321	 0.095728
H	 1.7479329806	-0.611835738	-2.8812591982	 0.28976
58.1455	97.6712	155.2515	204.5328	231.6649	250.1529	265.1421	324.6471	380.1762	425.4118	442.4788	482.0501	601.818	705.897	815.288	820.1092	860.0696	905.932	931.9753	983.7713	1019.0536	1044.9522	1088.7491	1102.6855	1123.0097	1152.5828	1168.3693	1188.1176	1262.3207	1293.6984	1300.1238	1357.6002	1400.4527	1413.9419	1426.3599	1432.3383	1476.8938	1484.1824	1485.4334	1500.1722	1503.2159	1529.5625	2993.6965	3025.0367	3031.7998	3044.3789	3093.287	3113.0364	3118.4116	3121.8209	3126.3349	3143.7363	3219.2815	3739.6947
CCOC1(C)CC1O	CCO[C@@]1(C)C[C@H]1O	
InChI=1S/C6H12O2/c1-3-8-6(2)4-5(6)7/h5,7H,3-4H2,1-2H3	InChI=1S/C6H12O2/c1-3-8-6(2)4-5(6)7/h5,7H,3-4H2,1-2H3/t5-,6+/m1/s1
