14
gdb 46341	4.30117	0.75242	0.66974	2.6696	87.58	-0.2392	-0.0396	0.1995	1598.5293	0.098739	-399.476549	-399.467962	-399.467018	-399.510609	30.989	
O	-0.0986956734	-0.0102016269	-0.1020580016	-0.259994
C	-0.0831375759	 1.1703009379	 0.0237374567	 0.400117
C	-1.1213289889	 2.2772370354	 0.2391243117	-0.286859
N	-0.0081365455	 3.21337936	 0.5365311029	-0.300109
C	 1.0422625487	 2.2641841671	 0.0592353036	-0.383215
C	 2.1868312831	 2.0675986873	 0.9168194652	 0.465892
C	 3.1455606991	 1.873341546	 1.6299728876	-0.206859
C	 4.2214936906	 1.6600901936	 2.4332169889	 0.295517
C	 5.1784607226	 1.4715694877	 3.145217759	-0.556477
H	-1.6942961995	 2.4778512983	-0.6773732314	 0.130042
H	-1.8222987926	 2.125594317	 1.0665641598	 0.14662
H	-0.035029658	 4.0819133866	 0.0160881135	 0.233483
H	 1.3739586202	 2.4473262837	-0.9760788288	 0.127433
H	 6.0184877693	 1.3038286363	 3.7726706728	 0.194411
67.0822	74.7636	135.0424	189.5174	255.5331	365.8388	416.4738	449.7976	522.8582	539.5576	573.8784	587.6007	612.0721	614.4043	698.2057	786.0959	886.0771	974.0194	994.2289	1019.1202	1057.9934	1092.181	1186.2036	1203.7581	1270.2153	1334.6817	1372.1523	1475.4091	1932.7418	2181.8863	2356.9942	2969.9861	3010.3203	3075.7584	3503.8687	3554.9384
O=C1CNC1C#CC#C	O=C1CN[C@H]1C#CC#C	
InChI=1S/C7H5NO/c1-2-3-4-6-7(9)5-8-6/h1,6,8H,5H2	InChI=1S/C7H5NO/c1-2-3-4-6-7(9)5-8-6/h1,6,8H,5H2/t6-/m0/s1
