17
gdb 9363	5.2408	0.94546	0.84452	2.5404	62.93	-0.2463	0.0617	0.308	1350.7915	0.140927	-438.171321	-438.161706	-438.160762	-438.207397	32.014	
C	-0.2347775951	 1.2216604985	 0.0173915719	-0.229709
O	 0.3779137597	-0.0661044986	-0.0545557112	-0.266472
C	 0.7687722309	-0.5727705749	 1.1451522319	 0.524039
O	 0.6169616838	-0.0063743968	 2.2065442398	-0.421947
N	 1.3510714416	-1.7859345616	 0.9633039351	-0.361942
C	 1.7981722334	-2.6106249901	 2.0643406442	-0.145296
C	 1.1276897731	-3.9770070464	 2.0389005496	-0.075841
O	 1.4633939356	-4.5794964821	 0.7941715095	-0.42417
H	 0.4502936084	 1.9578133053	 0.4462948361	 0.136875
H	-0.4816228221	 1.4890618036	-1.0108561091	 0.126359
H	-1.1407967793	 1.1914612083	 0.6286894461	 0.135073
H	 1.3588200276	-2.1848231024	 0.0389613671	 0.259412
H	 2.88638068	-2.7504474744	 2.0198923132	 0.113999
H	 1.5587341559	-2.0810794305	 2.9886058012	 0.144962
H	 1.4888367736	-4.5780948416	 2.8875091726	 0.092706
H	 0.0393056927	-3.8553223971	 2.1418548856	 0.099136
H	 0.9490133902	-5.3853244091	 0.6946642865	 0.292816
25.8424	76.5614	92.1398	112.281	152.5225	216.6583	264.5707	308.4658	347.7907	471.1991	512.8895	534.9221	697.4235	781.0869	856.2592	911.0999	977.818	1064.5945	1098.0424	1105.8973	1177.5322	1183.1843	1213.2048	1220.5094	1253.707	1262.7211	1315.2395	1400.3826	1454.1832	1467.4462	1480.1653	1484.4297	1501.7538	1513.6113	1549.8687	1812.9247	2981.282	3011.1234	3031.7965	3046.8745	3118.915	3126.6747	3149.322	3656.6144	3838.4283
COC(=O)NCCO	COC(=O)NCCO	
InChI=1S/C4H9NO3/c1-8-4(7)5-2-3-6/h6H,2-3H2,1H3,(H,5,7)	InChI=1S/C4H9NO3/c1-8-4(7)5-2-3-6/h6H,2-3H2,1H3,(H,5,7)
