13
gdb 28081	5.02716	0.93357	0.79008	5.345	63.57	-0.218	-0.0039	0.2141	1321.2292	0.089318	-489.931434	-489.923487	-489.922543	-489.964916	28.26	
N	 0.0547136069	 1.3431082804	 0.1372272059	-0.585354
C	-0.0439419073	-0.013076088	 0.023305042	 0.492828
N	-1.1302993939	-0.7230628429	-0.0908920768	-0.419112
C	-0.6536132578	-2.0222343226	-0.0847563257	 0.366907
O	-1.4589279242	-3.1105038187	-0.2147393277	-0.231003
C	-2.7993231333	-2.9840821948	 0.0365225027	 0.151383
O	-3.5341096918	-3.9116808724	-0.1000045563	-0.262573
C	 0.6908732894	-2.0478201437	 0.0236359842	-0.175417
O	 1.0976594057	-0.7185624654	 0.0915834761	-0.180627
H	 0.9361241125	 1.7410397119	-0.1493206773	 0.272867
H	-0.7582316229	 1.8439362619	-0.1867830701	 0.278185
H	-3.0753848072	-1.9714914011	 0.3578946009	 0.134254
H	 1.452755204	-2.8025640348	 0.0560827422	 0.157661
42.6277	116.5633	155.1544	246.1009	318.1612	379.5028	390.7801	453.2521	532.5627	545.9608	633.3089	698.1018	727.2849	765.4626	843.9461	974.472	1021.1129	1043.6041	1106.23	1120.8476	1138.5308	1241.7948	1337.0645	1410.3171	1453.8923	1602.9584	1658.6061	1691.4893	1870.1826	3072.2019	3325.9019	3588.0991	3699.8685
NC1=NC(OC=O)=CO1	Nc1nc(OC=O)co1	
InChI=1S/C4H4N2O3/c5-4-6-3(1-8-4)9-2-7/h1-2H,(H2,5,6)	InChI=1S/C4H4N2O3/c5-4-6-3(1-8-4)9-2-7/h1-2H,(H2,5,6)
