17
gdb 71674	2.81801	2.07618	1.81442	1.7483	68.83	-0.2328	0.0722	0.305	830.2294	0.138624	-421.799318	-421.793208	-421.792264	-421.82934	26.602	
O	-0.1034563171	 1.4068257206	-0.0142465811	-0.488509
C	 0.0423872393	 0.0246620686	-0.0037009417	 0.382295
C	 0.9163182043	-0.7813611713	-1.0103927779	-0.302905
C	 0.7343610513	-1.919282685	 0.0295580124	-0.093718
C	-0.7794565722	-2.1710572876	 0.0734000063	-0.11153
C	-1.2914682172	-1.5150408847	 1.3397257478	 0.067934
O	-0.2098314193	-1.1209857174	 2.1465572486	-0.237141
C	 0.7226079895	-0.8112165883	 1.1486629068	 0.010704
C	-1.2897187739	-0.7316339319	 0.0461044636	-0.148306
H	 0.7719326564	 1.8064956727	-0.0045960413	 0.280542
H	 0.5250592379	-0.9369819524	-2.0182273631	 0.103257
H	 1.9486979342	-0.4169702323	-1.0573037162	 0.088426
H	 1.4013015254	-2.7775237892	 0.0732640218	 0.072004
H	-1.2684925834	-3.0044996868	-0.4113033508	 0.09147
H	-2.1768759081	-1.8173582321	 1.8819678919	 0.10723
H	 1.6693589159	-0.4711729173	 1.5630549305	 0.082235
H	-2.174966373	-0.3837275254	-0.4671060574	 0.096012
241.0105	304.3087	322.5989	430.1072	516.3953	584.8632	608.1655	697.7524	732.8689	753.9359	788.6446	814.9478	823.1238	883.1926	897.1909	922.172	961.4043	994.2562	1005.398	1008.5924	1029.8209	1057.0415	1065.5481	1071.0396	1102.0762	1119.705	1128.1615	1189.8454	1213.0098	1227.2105	1255.6754	1263.3063	1291.0825	1347.1398	1376.0367	1404.6857	1499.1287	3044.5375	3113.2119	3138.2927	3152.9026	3209.372	3214.1687	3225.3163	3819.4827
OC12CC3C4C(OC13)C24	O[C@@]12C[C@@H]3[C@H]4[C@@H](O[C@H]13)[C@@H]24	
InChI=1S/C7H8O2/c8-7-1-2-3-4(7)5(3)9-6(2)7/h2-6,8H,1H2	InChI=1S/C7H8O2/c8-7-1-2-3-4(7)5(3)9-6(2)7/h2-6,8H,1H2/t2-,3-,4+,5-,6+,7-/m1/s1
