13
gdb 21126	5.1099	1.73182	1.3398	3.9262	67.34	-0.2349	-0.069	0.166	871.3489	0.096362	-390.921413	-390.914497	-390.913553	-390.952837	24.815	
C	 0.1235023157	 1.4296028132	 0.0435009064	-0.331136
N	 0.229974474	-0.0158118524	 0.0603924775	-0.260859
C	 0.4621324068	-0.6648311804	-1.0010221728	 0.404043
N	 0.5289273529	-2.0668248073	-0.9781372237	-0.257776
C	 1.2197503235	-2.5856844472	-1.919391382	 0.097682
N	 1.8098541158	-1.8264614632	-2.9023302616	-0.242712
N	 1.2682187779	-0.5779967981	-3.1889334199	-0.042528
N	 0.6036381857	-0.0262196421	-2.2908113881	-0.191714
H	 0.92551238	 1.8459938508	 0.6650871373	 0.129851
H	 0.1683411467	 1.8880950616	-0.9492199896	 0.134583
H	-0.8188295504	 1.7098035985	 0.52789412	 0.131768
H	 1.3460239148	-3.6645289908	-2.0008032003	 0.14748
H	 2.2103236367	-2.2586118326	-3.7217655531	 0.281317
89.8591	118.4073	239.2001	253.2119	417.451	461.0248	535.473	596.27	613.6345	661.7172	752.0122	809.2633	886.5949	943.6185	1032.7367	1054.7562	1100.0815	1129.514	1153.8926	1216.6643	1395.3212	1416.4694	1432.5361	1488.7323	1494.1019	1605.8362	1698.1462	1742.6292	3019.5231	3073.681	3099.8199	3142.7902	3622.8876
CN=C1N=CNN=N1	CN=C1[N][CH]NN=N1	
InChI=1S/C3H5N5/c1-4-3-5-2-6-8-7-3/h2H,1H3,(H,4,5,6,7)	InChI=1S/C3H5N5/c1-4-3-5-2-6-8-7-3/h2H,1H3,(H,4,5,6,7)
