18
gdb 41807	2.44443	2.04582	1.53776	2.0851	72.17	-0.2433	0.0255	0.2688	919.5256	0.151283	-439.092761	-439.085705	-439.084761	-439.124435	27.525	
C	-0.062286555	 1.4616261363	-0.421009483	-0.074515
O	 1.0405209517	 2.0868489892	 0.234573838	-0.273752
C	 1.9465238201	 1.0884072426	 0.7088309754	 0.088784
C	 1.4788813259	-0.2401441364	 0.1046144364	-0.270402
C	-0.038019344	-0.0079736877	 0.0314947104	 0.003999
N	-0.7417645194	-0.1924819357	 1.2838134899	-0.270466
C	-0.355535361	 0.1907329311	 2.42293464	 0.141238
O	 0.7426980928	 0.8171222139	 2.9164060422	-0.235846
C	 1.9695752077	 1.0855107688	 2.2302077159	-0.064345
H	-0.9848839759	 1.9717684743	-0.1325121166	 0.118165
H	 0.0576540507	 1.5298378852	-1.5123784433	 0.092446
H	 2.9622274929	 1.3531833278	 0.3851676202	 0.084114
H	 1.8912316385	-0.3763784775	-0.9002529663	 0.107506
H	 1.7473571833	-1.1096204105	 0.7084563911	 0.112508
H	-0.5152941188	-0.6507768606	-0.7130763127	 0.082639
H	-1.0217273553	 0.0303302969	 3.2716333524	 0.121599
H	 2.7090852459	 0.3477001985	 2.5690516656	 0.109214
H	 2.2807761698	 2.0706391835	 2.5898874844	 0.127113
82.9825	147.9436	284.3589	308.0411	345.8464	411.8085	549.3828	565.7901	744.4987	752.4227	805.5651	824.4965	872.2366	882.8621	903.8736	947.0506	961.4733	980.8232	1007.1992	1049.567	1082.6615	1097.6573	1130.1474	1158.7066	1214.5145	1240.2516	1265.1111	1283.6781	1323.2164	1332.5851	1371.6602	1377.3388	1391.1654	1418.8539	1449.0178	1489.1354	1495.0481	1519.6738	1746.5977	2993.1719	3011.622	3026.1931	3055.321	3072.6311	3089.6843	3094.8192	3115.5651	3131.3102
C1OC2CC1N=COC2	C1O[C@@H]2C[C@H]1N=COC2	
InChI=1S/C6H9NO2/c1-5-2-9-6(1)3-8-4-7-5/h4-6H,1-3H2	InChI=1S/C6H9NO2/c1-5-2-9-6(1)3-8-4-7-5/h4-6H,1-3H2/t5-,6-/m1/s1
