16
gdb 29970	5.93604	0.82702	0.75287	5.8614	74.51	-0.219	0.0057	0.2247	1461.2978	0.123938	-437.934009	-437.925352	-437.924408	-437.968658	30.283	
C	-0.2356398617	 1.3858122088	 0.131836156	-0.336462
N	 0.0213959143	-0.0331553377	-0.0103566315	 0.025805
C	 0.0353543218	-0.7235582378	-1.1932840878	-0.071521
C	 0.2383687652	-2.059739649	-0.9249419049	-0.286509
C	 0.3387212267	-2.1643334711	 0.486059838	 0.304803
O	 0.6086281763	-3.3033483556	 1.2213800638	-0.217088
C	-0.2722638133	-4.3311358086	 1.1215579069	 0.150603
O	-0.0942147974	-5.3765917326	 1.6662961511	-0.266943
C	 0.1991035657	-0.9094483258	 1.0317419602	-0.19772
H	 0.4239438556	 1.8117877312	 0.892313612	 0.14678
H	-0.0338057023	 1.8837442197	-0.8184529948	 0.145288
H	-1.275101169	 1.5814888901	 0.4176285601	 0.144151
H	-0.0955100206	-0.2069724272	-2.1307593267	 0.12526
H	 0.3375218225	-2.8560619666	-1.6452583301	 0.113032
H	-1.1433330531	-4.0739131192	 0.4921298728	 0.089101
H	 0.2249180092	-0.5801441184	 2.056916575	 0.131419
41.1792	71.7023	123.892	145.1243	198.3617	301.8082	391.0314	449.4859	482.549	619.9709	643.4623	676.7122	695.1177	770.2318	804.0252	821.9318	1003.1535	1017.0139	1048.7274	1080.2219	1105.6192	1137.2104	1151.1297	1200.8738	1263.3455	1382.1913	1409.4612	1416.0261	1419.722	1457.6826	1486.5858	1516.7013	1546.3395	1598.2915	1870.421	2979.9757	3036.1616	3103.2213	3137.6046	3252.5251	3270.3238	3275.492
CN1C=CC(OC=O)=C1	Cn1ccc(OC=O)c1	
InChI=1S/C6H7NO2/c1-7-3-2-6(4-7)9-5-8/h2-5H,1H3	InChI=1S/C6H7NO2/c1-7-3-2-6(4-7)9-5-8/h2-5H,1H3
