19
gdb 55170	3.08982	1.23659	1.18562	3.8517	74.83	-0.2421	-0.0169	0.2252	1141.8317	0.158327	-423.008311	-422.999703	-422.998758	-423.042652	31.567	
C	-1.4022499468	 0.9969386743	 0.1671794565	-0.481914
C	-0.1194373968	 0.1859500788	 0.1078213983	 0.379832
O	 0.7206612841	 0.2525165018	 0.9773109553	-0.303034
C	 0.0303387624	-0.7406645226	-1.0829235286	-0.097118
C	 1.3997878922	-1.4436872689	-1.3077533686	-0.267733
C	 0.6929376068	-2.8229797181	-1.2952232686	 0.12491
O	 0.7467410887	-3.4816459696	-0.0187298191	-0.284358
C	-0.4993871499	-2.8734075688	 0.3959572839	-0.084839
C	-0.6621471511	-2.1447937468	-0.9555147644	-0.1117
H	-1.4099221077	 1.7353129457	-0.6433594892	 0.142059
H	-2.2772133098	 0.35443577	 0.0174080979	 0.136807
H	-1.4766389153	 1.5115531558	 1.1258222754	 0.143611
H	-0.337690413	-0.237775138	-1.9825438067	 0.082231
H	 1.8946400954	-1.1770265987	-2.2442096392	 0.101577
H	 2.0925917183	-1.3201897915	-0.473942326	 0.137467
H	 0.865734571	-3.5069693523	-2.1298563622	 0.077929
H	-1.2662529832	-3.6330801676	 0.5908891447	 0.103025
H	-0.3783777217	-2.2474273739	 1.2875910913	 0.120821
H	-1.5940421037	-2.2991170296	-1.4976507008	 0.080426
40.5088	75.9965	125.0131	159.5298	229.0443	349.1228	387.9076	399.4119	561.3802	594.9393	658.2005	732.317	764.3674	839.5531	890.018	909.6621	938.2294	962.5067	975.8311	1005.7341	1017.9618	1054.3963	1080.4751	1083.2509	1134.6232	1165.254	1183.394	1190.9494	1202.1195	1240.0175	1265.6245	1295.2636	1323.7576	1355.9992	1370.2091	1382.9377	1462.5096	1463.1476	1475.7133	1520.1082	1802.9671	3017.9832	3033.4553	3056.8186	3065.4125	3069.9264	3079.9083	3093.7607	3117.8611	3140.9237	3151.3713
CC(=O)C1CC2OCC12	CC(=O)[C@H]1C[C@H]2OC[C@@H]12	
InChI=1S/C7H10O2/c1-4(8)5-2-7-6(5)3-9-7/h5-7H,2-3H2,1H3	InChI=1S/C7H10O2/c1-4(8)5-2-7-6(5)3-9-7/h5-7H,2-3H2,1H3/t5-,6+,7-/m1/s1
