20
gdb 106387	3.29575	1.46079	1.27301	1.467	78.12	-0.2257	0.0847	0.3104	1062.8878	0.172649	-403.082462	-403.074889	-403.073944	-403.114412	30.856	
C	-0.1528768452	 1.3422950129	-0.0401697035	-0.258396
O	 0.0341376855	-0.0543514296	 0.0460263824	-0.30837
C	 0.6664993272	-0.5123092175	 1.1926313348	 0.462433
C	 2.1131772525	-0.0767663611	 1.6635651507	-0.289867
C	 1.6281134743	-0.7774048108	 2.9777176828	-0.055615
C	 0.2179734467	-0.2047334244	 2.6528260779	-0.296758
C	 1.5399939345	-2.237332854	 2.4839615905	-0.031745
N	 0.1607239344	-2.7545924565	 2.3012114079	-0.343878
C	 0.8461886975	-2.0429295876	 1.1955719149	-0.099508
H	 0.8010481445	 1.8879298808	-0.019012335	 0.108493
H	-0.6459121831	 1.5358017514	-0.9956032455	 0.126643
H	-0.7913911147	 1.7231600794	 0.7687360578	 0.113033
H	 2.9697038618	-0.5100583704	 1.1384470606	 0.088385
H	 2.2352870724	 1.0035266878	 1.7744770678	 0.093703
H	 2.1070490542	-0.5836107702	 3.9357685616	 0.066585
H	 0.1799520209	 0.8672191263	 2.8541125077	 0.088256
H	-0.6570414837	-0.717849991	 3.0449098544	 0.127444
H	 2.3647420543	-2.9260598537	 2.6265989604	 0.089307
H	 0.2187624756	-3.754584631	 2.115982257	 0.227837
H	 1.0899720305	-2.5529464007	 0.2713222547	 0.092019
77.6469	188.8882	219.6361	301.1573	369.3973	429.9829	444.12	528.5132	594.5109	617.6519	655.0519	783.0001	804.8701	855.4169	874.46	902.2242	915.8791	927.3765	939.0232	984.4916	1003.7462	1033.4947	1071.6972	1083.0635	1087.8933	1122.6461	1145.6602	1158.0872	1180.7678	1185.8467	1223.4205	1230.4097	1231.2868	1253.8693	1279.6436	1305.9397	1348.1016	1397.5046	1470.7866	1484.402	1490.6344	1505.7333	1513.9986	2993.1905	3045.1289	3052.9266	3087.9999	3115.8931	3118.512	3130.1613	3168.3612	3175.4263	3189.1731	3485.3833
COC12CC(C1)C1NC21	CO[C@@]12C[C@@H](C1)[C@H]1N[C@@H]21	
InChI=1S/C7H11NO/c1-9-7-2-4(3-7)5-6(7)8-5/h4-6,8H,2-3H2,1H3	InChI=1S/C7H11NO/c1-9-7-2-4(3-7)5-6(7)8-5/h4-6,8H,2-3H2,1H3/t4-,5-,6-,7-/m1/s1
