21
gdb 63065	3.13611	1.4158	1.33953	2.086	82.34	-0.2104	0.0697	0.2801	1081.1642	0.183609	-383.22235	-383.214103	-383.213159	-383.254484	33.256	
C	-0.2954643281	 1.593171855	 0.0577890028	-0.475898
C	-0.0535281716	 0.0996485951	-0.0418095539	 0.317358
C	-1.119592808	-0.7012231653	 0.692506424	-0.431935
C	 0.6034507016	-0.6043375875	-1.1912324441	-0.075962
C	 1.4874598634	 0.033790808	-2.2341861981	-0.051529
N	 1.7361751057	 1.491343263	-2.1446037186	-0.333166
C	 2.6993718975	 0.549284129	-1.5443217652	-0.03919
C	 2.4994603152	 0.3073054722	-0.0473085197	-0.180553
N	 1.2814922044	-0.5207586167	 0.1323040184	-0.152523
H	 0.4298013031	 2.1848937277	-0.4920876459	 0.15933
H	-1.2899238564	 1.8275797945	-0.3381561274	 0.111663
H	-0.2911612614	 1.8886166789	 1.1147527045	 0.10594
H	-2.1068152984	-0.5351750634	 0.2465816854	 0.108186
H	-0.896075393	-1.7702799806	 0.6642149874	 0.119037
H	-1.1681867367	-0.39421647	 1.7433676222	 0.113801
H	 0.2264696483	-1.5873187511	-1.4713117096	 0.076405
H	 1.5368390909	-0.4393896765	-3.2089991006	 0.08732
H	 2.096867644	 1.8178352565	-3.0384383359	 0.231078
H	 3.694361669	 0.4738891935	-1.9725861674	 0.089564
H	 3.3464862481	-0.2641459284	 0.3469572227	 0.107377
H	 2.4397039025	 1.2434592959	 0.5183237893	 0.113696
152.1711	172.9713	195.9538	242.662	275.8096	332.864	371.0187	396.2475	461.0441	565.2207	656.1213	710.5377	715.7445	750.7817	797.8585	861.1581	872.488	894.7411	933.4467	954.8577	972.2753	999.2972	1024.9421	1054.073	1081.8802	1091.2583	1117.7875	1145.9867	1160.5857	1174.281	1221.0403	1237.9651	1254.5543	1326.7957	1337.2777	1364.1108	1403.1554	1411.3912	1415.5117	1434.4452	1480.2919	1482.7255	1493.6377	1504.2355	1520.7653	3023.5319	3029.7105	3040.1359	3076.7383	3078.6348	3091.5163	3105.9677	3121.0918	3153.3929	3170.9742	3190.7282	3488.569
CC1(C)C2C3NC3CN12	CC1(C)[C@H]2[C@H]3N[C@H]3CN12	
InChI=1S/C7H12N2/c1-7(2)6-5-4(8-5)3-9(6)7/h4-6,8H,3H2,1-2H3	InChI=1S/C7H12N2/c1-7(2)6-5-4(8-5)3-9(6)7/h4-6,8H,3H2,1-2H3/t4-,5-,6+,9?/m0/s1
