15
gdb 44282	3.55446	1.90235	1.50313	5.2389	67.44	-0.2369	0.0335	0.2704	850.7779	0.114956	-416.763729	-416.757513	-416.756569	-416.794486	25.552	
O	-0.0209499725	-0.0818536286	 0.1110332005	-0.368611
C	-0.061980885	 1.1221685408	 0.0224123881	 0.436771
N	-1.2064765914	 1.8545705092	-0.0466889973	-0.342292
C	-1.1567752252	 3.2768173775	-0.1502474986	 0.021652
C	-0.0988819507	 4.0633427855	 0.5741532051	-0.11999
C	-0.0780830658	 3.9514829259	-0.952625595	-0.120002
C	 1.2410377051	 3.1313663602	-0.8505107382	-0.06659
C	 1.2208773194	 3.2396993094	 0.6284171626	-0.06658
N	 1.1305240985	 1.9222757892	-0.0198747425	-0.179262
H	-2.0841558785	 1.3618383532	-0.0227874333	 0.257027
H	-2.1375229152	 3.7362998665	-0.1972631146	 0.116702
H	-0.3082235182	 4.9186942159	 1.2023255153	 0.101024
H	-0.2686465552	 4.7057451747	-1.7041736062	 0.101023
H	 2.0577677036	 3.1795253595	-1.5591399067	 0.114564
H	 2.0181928712	 3.3922099111	 1.3443440109	 0.114565
66.5546	346.2297	393.0737	450.5224	510.4584	555.8133	578.8955	717.9176	722.5431	736.5335	759.114	800.958	837.8027	884.1156	897.7851	935.4607	942.6022	948.9177	1002.5633	1026.9673	1048.9474	1051.9054	1073.93	1144.4373	1207.3463	1224.7886	1256.8524	1274.7814	1324.7981	1356.1167	1431.4218	1475.6567	1838.457	3180.3451	3190.2184	3201.2304	3201.8078	3212.6714	3649.0991
O=C1NC2C3C2C2C3N12	O=C1N[C@H]2[C@@H]3[C@H]2[C@H]2[C@@H]3N12	
InChI=1S/C6H6N2O/c9-6-7-3-1-2(3)5-4(1)8(5)6/h1-5H,(H,7,9)	InChI=1S/C6H6N2O/c9-6-7-3-1-2(3)5-4(1)8(5)6/h1-5H,(H,7,9)/t1-,2+,3-,4+,5-,8?
