17
gdb 85993	2.26787	1.40051	1.20333	3.4773	72.31	-0.237	-0.0352	0.2019	1125.394	0.133442	-455.136692	-455.127028	-455.126084	-455.17167	33.674	
C	-0.0317833855	 1.2117593003	-0.6044499112	-0.347522
N	 0.063984183	-0.1456209337	-0.1372364239	-0.070359
C	-0.9818745001	-1.0409190521	 0.3852223165	-0.222237
C	 0.1711779185	-1.9781567613	 0.8662256078	 0.232557
O	 0.2378111105	-2.3074191411	 2.225977234	-0.478085
C	 0.3424895177	-3.2315115818	 0.0143182612	 0.127746
O	-0.1419531146	-3.3863590216	-1.0752929872	-0.244485
C	 1.1011166752	-0.8267477483	 0.4470583029	 0.295965
N	 2.3278962762	-0.6692934919	 0.7230936526	-0.572253
H	 0.9537651271	 1.5440867139	-0.9422412126	 0.141973
H	-0.7195778049	 1.2736990869	-1.4539083701	 0.143716
H	-0.3816623051	 1.9003332309	 0.1781960721	 0.128565
H	-1.5493218567	-0.6231701042	 1.2239130875	 0.11665
H	-1.6420607763	-1.4556485651	-0.3798904368	 0.132665
H	 1.065430175	-1.9379229899	 2.5611181801	 0.302117
H	 0.9694155231	-4.0038270803	 0.5091710584	 0.094838
H	 2.6883300871	 0.2423718893	 0.4402895787	 0.218149
72.6208	88.6393	102.7058	139.4772	209.6221	242.4	249.6575	282.9289	306.9196	392.3179	519.4039	577.6638	611.3397	712.1679	791.8031	810.2573	820.3749	922.5666	951.4737	1016.1171	1060.4611	1125.5539	1153.1058	1163.7522	1202.5596	1239.8033	1262.0171	1307.7996	1352.1099	1407.1656	1413.9113	1452.9366	1479.9827	1499.2566	1517.8952	1783.4035	1831.2178	2912.7374	2999.7801	3041.6723	3074.0833	3115.0767	3116.3785	3476.8045	3764.4334
CN1CC(O)(C=O)C1=N	CN1C[C@@](O)(C=O)[C]1[NH]	
InChI=1S/C5H8N2O2/c1-7-2-5(9,3-8)4(7)6/h3,6,9H,2H2,1H3	InChI=1S/C5H8N2O2/c1-7-2-5(9,3-8)4(7)6/h3,6,9H,2H2,1H3/t5-/m1/s1
