15
gdb 83306	2.51159	1.91972	1.52644	1.3753	59.6	-0.2537	-0.0422	0.2115	887.4466	0.11333	-494.903417	-494.896305	-494.895361	-494.935097	27.189	
O	 0.1708506742	 1.3601211486	 0.3312894381	-0.435344
C	 0.0044907756	-0.0040569101	 0.0832648629	 0.048356
C	-1.4419031406	-0.4857770762	-0.1927684527	 0.135748
O	-2.0354864228	 0.2652683624	-1.2374249799	-0.259769
C	-1.4759298545	-0.2631298537	-2.4499733993	-0.089448
C	-0.4607027717	-1.2953887353	-1.8995526687	-0.090646
O	-1.1786812009	-1.7687969796	-0.7460923347	-0.249156
C	 0.6336184234	-0.4470196803	-1.2501402647	 0.371571
O	 1.6806672154	-0.0604299166	-1.6976487602	-0.325235
H	 0.9994182416	 1.6241959302	-0.090646038	 0.298186
H	 0.403929021	-0.6286780519	 0.8997985507	 0.105754
H	-2.1172938149	-0.549822586	 0.6584184428	 0.111509
H	-2.2569918019	-0.7540734035	-3.040088763	 0.123483
H	-1.0116922353	 0.5351438768	-3.0362638434	 0.132989
H	-0.1590383185	-2.1037518147	-2.5601546998	 0.122002
87.6592	210.1653	229.4651	274.5215	310.9338	464.0648	519.0473	549.3881	617.2093	681.0724	731.4009	804.6715	865.1124	894.4854	901.5685	969.7226	985.4131	1018.5191	1030.1297	1077.8913	1131.0422	1178.2266	1185.2729	1203.4851	1239.7569	1257.8917	1306.8849	1324.0413	1353.8203	1375.9458	1397.988	1515.627	1864.6011	2969.6248	3042.9188	3098.6092	3149.0854	3170.4832	3758.3661
OC1C2OCC(O2)C1=O	O[C@H]1[C@H]2OC[C@H](O2)C1=O	
InChI=1S/C5H6O4/c6-3-2-1-8-5(9-2)4(3)7/h2,4-5,7H,1H2	InChI=1S/C5H6O4/c6-3-2-1-8-5(9-2)4(3)7/h2,4-5,7H,1H2/t2-,4+,5-/m0/s1
