15
gdb 11484	3.32728	1.49211	1.11782	2.9604	67.83	-0.2509	-0.064	0.187	1036.0854	0.117321	-362.606304	-362.598099	-362.597155	-362.640045	28.928	
O	-0.5613580198	 0.03875143	-1.1123967517	-0.274632
C	-0.0087117693	 0.984572717	-0.5967785054	 0.258224
C	 1.4222844506	 1.3902147267	-0.9272555769	-0.337058
C	 2.3904174731	 0.9783196697	 0.1702497962	 0.026592
C	 3.5909398565	 1.8034667384	 0.4533487204	-0.244799
N	 2.4876566409	 1.7375550819	 1.4255581839	-0.304909
C	-0.6792831344	 1.8036351085	 0.4026332229	 0.279534
C	-1.2310445754	 2.4993442182	 1.2160820809	-0.448176
H	 1.6886175881	 0.8986502695	-1.8679795031	 0.133037
H	 1.4675098254	 2.4769531298	-1.0679332233	 0.111987
H	 2.4585575578	-0.0980656549	 0.314687904	 0.109632
H	 4.5143966672	 1.3303977304	 0.7745932805	 0.124442
H	 3.7271451924	 2.7123744919	-0.1280312627	 0.11245
H	 1.9147697596	 2.5763311817	 1.3716916714	 0.23255
H	-1.7340554029	 3.0966082411	 1.9377641227	 0.221126
38.4058	78.0084	144.8878	180.8146	256.5828	344.1839	381.0659	458.5408	607.9075	652.7959	683.8008	711.1409	785.6525	813.3603	828.109	925.5209	939.0115	977.4734	1050.5744	1091.8685	1125.342	1160.9224	1214.0507	1246.3277	1267.417	1300.7221	1313.6046	1411.054	1458.7447	1512.335	1773.2809	2207.4566	3033.9049	3097.648	3106.5537	3132.0451	3192.4108	3492.7024	3501.7838
O=C(CC1CN1)C#C	O=C(C[C@H]1CN1)C#C	
InChI=1S/C6H7NO/c1-2-6(8)3-5-4-7-5/h1,5,7H,3-4H2	InChI=1S/C6H7NO/c1-2-6(8)3-5-4-7-5/h1,5,7H,3-4H2/t5-/m0/s1
