22
gdb 105625	1.93992	1.33612	1.19108	4.0687	86.29	-0.2951	0.0331	0.3282	1252.3236	0.193828	-367.232655	-367.222811	-367.221867	-367.266951	36.908	
C	 0.0270264098	 1.6327574388	-0.0951574639	-0.402469
C	 0.0131799204	 0.1087840547	 0.0568289236	-0.234846
C	-1.4005385038	-0.5083168781	 0.054241127	 0.149414
C	-2.0582595769	-0.5357721797	-1.3707851916	-0.255842
C	-1.617189454	-2.0131837711	-1.520627308	-0.242871
C	-1.4312204718	-2.0907853076	 0.0174876613	 0.010103
C	-0.2846168978	-2.8958592032	 0.6064750364	-0.421273
C	-2.2150234446	 0.0771008974	 1.1139208922	 0.241981
N	-2.8693788287	 0.5229161879	 1.9577513907	-0.361521
H	 1.0551888942	 2.0058021696	-0.106020302	 0.118657
H	-0.450968001	 1.9504026269	-1.0274354215	 0.120774
H	-0.4996632254	 2.1168240709	 0.7323910186	 0.146194
H	 0.5840007852	-0.3486179812	-0.7590671914	 0.10384
H	 0.5192713323	-0.1709237952	 0.9874397701	 0.115062
H	-3.1431331302	-0.42743358	-1.318053073	 0.124026
H	-1.6669821477	 0.1884227527	-2.088036431	 0.110914
H	-2.3324221188	-2.7052781989	-1.9691482502	 0.107016
H	-0.6659773959	-2.1086138833	-2.0527001849	 0.106421
H	-2.372070451	-2.4125155686	 0.4745945473	 0.095622
H	 0.6799893637	-2.6164254587	 0.1724085887	 0.117988
H	-0.2195183801	-2.7663219359	 1.69203654	 0.12867
H	-0.4379000681	-3.9625174876	 0.4099288815	 0.12214
103.5095	124.0422	151.2511	173.8536	189.9719	231.3632	238.0139	293.1232	337.6959	389.3562	473.9581	539.1609	563.1	597.9644	683.1524	789.9971	798.6123	882.7643	894.9918	943.4432	946.2554	959.1942	1011.08	1025.2999	1066.2758	1106.0986	1139.819	1172.5315	1178.93	1212.7589	1236.5645	1266.3783	1273.9761	1300.6842	1334.6498	1362.5194	1379.5417	1412.2236	1418.0521	1480.8945	1484.1008	1495.3959	1498.6873	1499.8908	1504.5682	1507.5739	2341.6995	3033.562	3037.7566	3041.7398	3055.0575	3062.0464	3074.6181	3075.9398	3097.7454	3109.619	3110.0918	3114.4555	3119.1125	3134.017
CCC1(CCC1C)C#N	CC[C@]1(CC[C@H]1C)C#N	
InChI=1S/C8H13N/c1-3-8(6-9)5-4-7(8)2/h7H,3-5H2,1-2H3	InChI=1S/C8H13N/c1-3-8(6-9)5-4-7(8)2/h7H,3-5H2,1-2H3/t7-,8+/m1/s1
