18
gdb 12637	3.27723	1.91342	1.38412	1.0658	68.93	-0.2521	0.0069	0.2591	923.5098	0.154021	-384.947594	-384.939462	-384.938518	-384.980202	30.723	
C	 0.1247594254	 1.6211974154	-0.023112542	-0.387294
C	 0.083390685	 0.088658307	-0.0041097364	-0.038482
C	 0.7922900274	-0.5706256594	-1.1663464641	-0.055558
C	 1.536721935	-1.6123945814	-0.8027457757	-0.139869
C	 1.4914238709	-1.8457628693	 0.6840146351	 0.078236
O	 2.773886661	-2.0263594237	 1.284771577	-0.441716
C	 0.7497740275	-0.5737993329	 1.2357409215	 0.069042
O	 1.6883083111	 0.3207095236	 1.8034853909	-0.435457
H	 1.1539710523	 1.9838110016	 0.0034555908	 0.132178
H	-0.3577802804	 2.0017806588	-0.9295828075	 0.103846
H	-0.399555462	 2.0394802653	 0.8408859452	 0.118911
H	-0.9723776547	-0.2192696912	-0.0235274468	 0.083586
H	 0.6573017963	-0.2254550661	-2.1868385763	 0.096311
H	 2.1063251991	-2.2557736223	-1.4646695101	 0.099239
H	 0.9376195789	-2.7576436668	 0.93701351	 0.09326
H	 3.3615282411	-1.382952386	 0.8712844177	 0.282782
H	-0.0029795525	-0.8539016153	 1.9863222946	 0.059212
H	 2.2735731989	-0.2284173973	 2.3410983561	 0.281773
48.9727	164.4182	212.8246	234.5009	267.117	329.3038	346.2447	462.4652	493.276	608.2326	619.2581	712.3117	763.3256	820.6343	835.057	840.7817	929.1252	980.3601	990.7207	1038.1237	1068.9354	1081.9216	1119.0442	1139.5284	1184.222	1214.5978	1256.0709	1305.8339	1318.3746	1331.1371	1343.869	1377.6492	1400.8071	1416.1117	1435.9361	1490.7415	1500.8471	1684.4594	2982.2415	3000.6832	3040.484	3042.0673	3106.533	3136.6091	3174.1837	3201.3955	3763.6654	3792.4243
CC1C=CC(O)C1O	C[C@H]1C=C[C@@H](O)[C@H]1O	
InChI=1S/C6H10O2/c1-4-2-3-5(7)6(4)8/h2-8H,1H3	InChI=1S/C6H10O2/c1-4-2-3-5(7)6(4)8/h2-8H,1H3/t4-,5+,6-/m0/s1
