16
gdb 80329	2.236	1.5561	1.35577	4.7956	68.91	-0.2552	-0.0121	0.2431	1030.8858	0.122761	-437.843696	-437.835187	-437.834242	-437.876682	31.431	
C	-0.0199691257	 1.5681235103	-0.0289702218	-0.504612
C	-0.0059853177	 0.0709835559	 0.0378797112	 0.197751
C	-0.8975437249	-0.7850866489	 0.9312555674	 0.081545
O	-1.7332408471	-1.7992190249	 0.4915268072	-0.424935
C	 0.5788327878	-0.9419770983	 1.0316754537	-0.022769
O	 1.0116774664	-1.8240908028	-0.0242040856	-0.304941
C	 0.6262955102	-0.8399820885	-1.0202103062	-0.071055
C	-0.2020848528	-1.379534227	-2.1024846335	 0.284761
N	-0.825142612	-1.7861130941	-2.986622795	-0.316688
H	 0.966715354	 1.9731968227	-0.2805525904	 0.126834
H	-0.7329524862	 1.9187247357	-0.7837286228	 0.145086
H	-0.3212920602	 1.9969702667	 0.9313867393	 0.13356
H	-1.3534726732	-0.2034939575	 1.7288963638	 0.117795
H	-1.1742930923	-2.5243218586	 0.1823781558	 0.30388
H	 1.21912677	-0.8635442191	 1.9028941896	 0.117399
H	 1.5268180336	-0.3934722117	-1.4589693128	 0.136388
110.5287	128.9918	183.4018	202.773	251.5056	287.6937	293.3366	394.9162	461.1516	527.044	559.3025	631.2389	673.2759	787.055	827.0332	904.0799	928.1552	966.7978	996.8153	1020.2121	1025.4335	1085.6499	1114.6739	1167.5988	1213.9673	1236.8544	1284.775	1292.7925	1349.6995	1381.6622	1420.0217	1470.8233	1485.8	1497.1116	2356.8855	3027.6092	3039.1641	3089.228	3106.5715	3150.8452	3182.5916	3770.6856
CC12C(O)C1OC2C#N	C[C@]12[C@@H](O)[C@H]1O[C@H]2C#N	
InChI=1S/C6H7NO2/c1-6-3(2-7)9-5(6)4(6)8/h3-5,8H,1H3	InChI=1S/C6H7NO2/c1-6-3(2-7)9-5(6)4(6)8/h3-5,8H,1H3/t3-,4-,5+,6-/m0/s1
