19
gdb 117569	1.87684	1.3243	0.86821	2.926	76.66	-0.2571	0.0086	0.2657	1375.1874	0.15839	-419.181373	-419.171605	-419.170661	-419.217023	34.185	
C	 0.0978211458	 1.2730518685	-0.4208247687	-0.389778
C	 0.0395392391	-0.1231774042	 0.1698927437	-0.053386
O	-1.0738415845	-0.8033437655	-0.4098574661	-0.250073
C	-1.2319318343	-2.1378506381	 0.0009492245	-0.046401
C	-1.6254708721	-2.2271986848	 1.4276221791	 0.272956
N	-1.9267820171	-2.292729135	 2.5412586901	-0.322656
C	-2.2866988546	-2.8064632601	-0.8756290771	-0.004428
C	-3.4529403909	-2.0333777064	-1.3569168205	-0.225563
N	-2.3782754068	-2.4386037664	-2.2874551412	-0.33056
H	 0.943722349	 1.8225983614	 0.0017580205	 0.12776
H	 0.2200093564	 1.230476516	-1.5067940509	 0.129611
H	-0.8195417363	 1.8239588526	-0.1965725503	 0.136626
H	 0.9623851807	-0.6833878274	-0.0466240362	 0.100645
H	-0.0786894553	-0.0830627324	 1.2616067413	 0.12354
H	-0.2791114643	-2.6839512361	-0.1062092104	 0.119833
H	-2.3928241285	-3.8683272171	-0.6686322306	 0.113715
H	-4.4046285125	-2.5337785924	-1.5055954389	 0.125145
H	-3.5124260775	-0.9883656292	-1.0712242389	 0.131604
H	-1.7771606165	-1.6325558731	-2.4483259394	 0.24141
65.7037	78.9759	89.4098	131.7595	148.0528	232.8117	261.1344	299.1315	359.5475	402.187	478.8385	579.6513	645.176	810.5199	824.0937	866.4858	895.3879	922.0042	969.7672	993.801	1014.535	1055.5971	1113.2285	1134.6844	1146.6815	1157.8779	1187.4225	1214.979	1275.4165	1300.7557	1307.3199	1320.7174	1354.9306	1404.3536	1414.6152	1437.4218	1484.2326	1499.2416	1503.4846	1526.8412	2352.5111	2962.4519	2985.8275	3032.1789	3048.6022	3123.9404	3125.8502	3127.039	3143.5244	3217.8325	3496.7249
CCOC(C#N)C1CN1	CCO[C@@H](C#N)[C@H]1CN1	
InChI=1S/C6H10N2O/c1-2-9-6(3-7)5-4-8-5/h5-6,8H,2,4H2,1H3	InChI=1S/C6H10N2O/c1-2-9-6(3-7)5-4-8-5/h5-6,8H,2,4H2,1H3/t5-,6+/m1/s1
