17
gdb 38029	3.90061	1.49159	1.17396	2.2729	82.15	-0.2158	-0.0256	0.1902	1037.0077	0.138349	-384.688856	-384.682152	-384.681208	-384.719954	27.136	
C	-0.0236248663	 1.4900260783	-0.0059555459	-0.250465
C	 1.4783322849	 1.9258525334	 0.0825773837	-0.362578
C	 2.2340421375	 0.6270680517	-0.0193785376	 0.322393
C	 3.4939891838	 0.1722244038	-0.1190084652	-0.306144
C	 3.4577119167	-1.3305194567	-0.1018933655	 0.0249
O	 2.9098832966	-1.8977506362	 1.1102437013	-0.257173
C	 2.0353794045	-1.7501672712	-0.0241528883	-0.163124
C	 1.2677981211	-0.4764560868	-0.0028463292	 0.382603
C	 0.0090083258	-0.026655426	-0.0096826212	-0.260084
H	-0.6125397477	 1.8799571112	 0.8329294659	 0.11527
H	-0.5060378372	 1.873982632	-0.914398216	 0.115014
H	 1.7505998734	 2.629718697	-0.7096603966	 0.120783
H	 1.6822182989	 2.4308276402	 1.032836321	 0.12717
H	 4.4079951165	 0.7494066381	-0.1660088806	 0.098857
H	 4.2295795503	-1.9322916396	-0.5730747262	 0.094997
H	 1.6438260884	-2.6736630745	-0.4394410511	 0.095105
H	-0.8934981572	-0.6270351048	-0.0233334085	 0.102475
106.1496	197.46	263.9733	400.5138	434.552	480.2679	611.1496	667.0996	735.1582	760.7398	789.6029	798.7207	834.0998	839.0441	849.5721	883.8409	907.0166	964.6598	976.5345	998.0966	1026.763	1078.0032	1110.4358	1159.7907	1184.2559	1232.6047	1236.0847	1268.6731	1271.6874	1296.6325	1325.7174	1358.4709	1389.3883	1468.2331	1490.6253	1673.7206	1716.3836	3021.5734	3045.347	3053.2147	3086.675	3153.7912	3164.8307	3199.3053	3217.8371
C1CC2=CC3OC3C2=C1	C1CC2=C[C@H]3O[C@H]3C2=C1	
InChI=1S/C8H8O/c1-2-5-4-7-8(9-7)6(5)3-1/h3-4,7-8H,1-2H2	InChI=1S/C8H8O/c1-2-5-4-7-8(9-7)6(5)3-1/h3-4,7-8H,1-2H2/t7-,8+/m1/s1
