21
gdb 61676	3.27509	0.80894	0.75831	3.7326	80.27	-0.2434	-0.018	0.2254	1585.5379	0.180522	-424.219066	-424.209005	-424.208061	-424.256203	34.968	
C	-0.0895213547	 1.5310325811	-0.1744415156	-0.418704
C	 0.0108737418	 0.0108480441	 0.0326270707	-0.049258
C	 0.7270118611	-0.3823899117	 1.3463805714	-0.227757
C	 2.1733325815	 0.083410334	 1.4115901743	 0.154278
C	 3.1076066859	-0.593254217	 2.4414434719	-0.301736
C	 3.9507280005	-0.9736225388	 1.2081952745	-0.05713
O	 2.9647820968	-0.4227704068	 0.3090335092	-0.291393
C	-1.3814524582	-0.5882898369	 0.0630820663	 0.156332
O	-1.7607356284	-1.5117886722	-0.6087397411	-0.248404
H	 0.901684433	 1.9837228649	-0.2546326234	 0.138089
H	-0.6327915445	 1.7642441856	-1.0953728283	 0.128628
H	-0.6158972999	 2.0132225023	 0.6577250655	 0.11689
H	 0.5483231014	-0.4502131146	-0.8010137607	 0.116727
H	 0.1874529888	 0.0308500137	 2.2107952234	 0.098005
H	 0.7073963534	-1.4745815876	 1.4438577817	 0.110843
H	 2.2228401324	 1.1804862366	 1.443724699	 0.075457
H	 3.5822631396	 0.0660794457	 3.1691497063	 0.111948
H	 2.6561578055	-1.440088211	 2.9626737148	 0.112263
H	 4.912430519	-0.4515014021	 1.1258583492	 0.1029
H	 4.1127214539	-2.0430336155	 1.0326973128	 0.109
H	-2.066069509	-0.0975749037	 0.7988109081	 0.063021
30.6505	46.2814	76.7863	96.3974	153.2497	211.4853	275.4569	314.4655	344.3471	388.5015	467.3231	569.9051	736.563	804.3259	848.3278	869.975	899.0285	921.5736	955.1079	977.2864	985.0856	1026.5137	1050.5328	1111.3653	1126.0881	1152.3607	1159.9917	1175.9828	1214.6943	1232.8121	1257.9473	1288.2533	1296.6735	1338.8811	1354.0535	1372.4479	1405.0665	1408.5386	1432.2138	1473.4592	1491.3964	1494.1131	1505.8538	1532.2505	1836.894	2826.2628	3003.1756	3009.896	3018.1255	3033.33	3060.6184	3061.3328	3078.2125	3081.2973	3102.3011	3120.4676	3134.6289
CC(CC1CCO1)C=O	C[C@@H](C[C@H]1CCO1)C=O	
InChI=1S/C7H12O2/c1-6(5-8)4-7-2-3-9-7/h5-7H,2-4H2,1H3	InChI=1S/C7H12O2/c1-6(5-8)4-7-2-3-9-7/h5-7H,2-4H2,1H3/t6-,7+/m0/s1
