19
gdb 90727	4.02451	1.11711	1.02233	0.8841	74.94	-0.2571	0.0648	0.322	1195.3736	0.158795	-422.970132	-422.962101	-422.961157	-423.002877	31.549	
O	 0.7716338802	 0.6773309973	-0.4242673375	-0.43253
C	 0.0867718792	-0.3441592148	 0.2567838897	 0.16264
C	-0.0990286329	-0.1918880758	 1.7972816113	-0.275524
C	-1.6048466863	-0.5106187335	 1.6422277094	-0.134162
C	-1.4639843534	-0.4373199494	 0.0752081918	-0.074789
C	-2.0201973398	-1.8781209778	-0.0598330504	-0.333229
C	-1.9563698435	-1.9971912285	 1.4696423228	 0.462145
C	-1.602154464	-3.1389125168	 2.3169305541	-0.267474
O	-2.9501890961	-2.6544294121	 2.2329116558	-0.272212
H	 0.3733133581	 1.5202663371	-0.1818341141	 0.277056
H	 0.5952441738	-1.2696765123	-0.031438258	 0.089011
H	 0.4988091557	-0.8340847105	 2.4502504072	 0.101282
H	 0.0622899947	 0.8492989061	 2.0979343026	 0.09575
H	-2.3275209224	 0.0671685632	 2.2195570768	 0.081791
H	-1.9087491236	 0.3491249265	-0.5358963533	 0.068083
H	-3.0581462399	-1.8976179787	-0.4050473545	 0.118759
H	-1.4354758039	-2.5877978378	-0.6531116785	 0.10413
H	-1.4285962023	-4.1150386235	 1.8650644734	 0.114571
H	-1.1071675335	-2.9749478985	 3.2736103515	 0.1147
55.2315	159.0433	239.7929	279.0616	334.3197	344.5284	356.7844	411.9797	487.3165	566.3199	670.8377	774.9746	828.3532	840.7685	859.8764	875.3228	903.5954	937.0345	966.1989	990.4264	1010.1466	1053.2234	1084.1751	1115.958	1127.0543	1132.1384	1150.388	1161.0356	1181.3232	1223.1357	1233.9902	1245.4448	1259.2538	1277.2687	1294.7687	1335.3331	1423.8117	1437.139	1471.3146	1475.0193	1531.4036	3040.375	3047.7186	3058.6284	3077.0966	3095.9668	3098.4544	3103.7808	3110.1568	3163.4769	3802.2963
OC1CC2C1CC21CO1	O[C@H]1C[C@H]2[C@@H]1C[C@]12CO1	
InChI=1S/C7H10O2/c8-6-1-5-4(6)2-7(5)3-9-7/h4-6,8H,1-3H2	InChI=1S/C7H10O2/c8-6-1-5-4(6)2-7(5)3-9-7/h4-6,8H,1-3H2/t4-,5-,6-,7+/m0/s1
