18
gdb 11653	3.0129	1.87042	1.48931	2.7969	73.44	-0.2439	-0.0271	0.2168	918.6764	0.153652	-347.764857	-347.757248	-347.756304	-347.796999	28.69	
C	-0.1477550499	 1.5767725186	 0.0233609909	-0.442668
C	 0.0279911631	 0.0671424991	 0.0296969932	 0.018036
C	 1.1895637941	-0.6430923235	-0.7404448165	-0.059695
C	 2.1793378322	-0.165605245	 0.3647994729	-0.26851
C	 0.9152515941	-0.6580943783	 1.119491381	 0.254228
C	 0.9082386011	-1.8874586301	 0.1503607688	-0.266068
C	 0.6719181201	-0.6798558368	 2.5866456657	 0.025966
O	 1.4312426191	-0.2374740892	 3.413672555	-0.247827
H	 0.7828686889	 2.124267056	 0.1875701869	 0.127176
H	-0.5589463102	 1.9010356035	-0.9391520566	 0.122146
H	-0.8554269638	 1.8856788876	 0.8001599325	 0.123955
H	-0.9424378803	-0.4209801279	-0.1182504139	 0.069196
H	 1.3566771759	-0.6379671433	-1.8183890534	 0.075478
H	 3.0786404789	-0.7702248926	 0.5023342701	 0.100565
H	 2.4159352872	 0.8963158558	 0.4174849324	 0.104534
H	-0.0486979281	-2.3953662792	 0.0040715032	 0.096215
H	 1.7299871888	-2.5958774496	 0.2793287878	 0.101492
H	-0.2982289512	-1.1427297049	 2.8866440302	 0.06578
61.84	167.6182	196.1709	202.029	334.125	342.2749	469.8213	543.2093	574.5816	699.6402	738.5322	788.2009	837.9885	892.693	942.0874	972.6739	998.8646	1009.1153	1024.2039	1055.4722	1097.0746	1118.0463	1137.5598	1145.3763	1161.0794	1177.6445	1217.4617	1235.8385	1243.9792	1305.1581	1405.706	1422.8619	1424.4119	1490.605	1494.0063	1510.5486	1545.2387	1813.8529	2848.7536	3032.3411	3038.9544	3054.78	3078.1567	3093.0942	3104.4316	3122.4281	3125.6721	3149.4278
CC1C2CC1(C2)C=O	C[C@H]1[C@H]2C[C@@]1(C2)C=O	
InChI=1S/C7H10O/c1-5-6-2-7(5,3-6)4-8/h4-6H,2-3H2,1H3	InChI=1S/C7H10O/c1-5-6-2-7(5,3-6)4-8/h4-6H,2-3H2,1H3/t5-,6-,7+/m0/s1
