21
gdb 95308	2.65096	1.72091	1.48558	2.059	75.97	-0.2479	0.0746	0.3225	1005.1079	0.185911	-424.250574	-424.243038	-424.242094	-424.282148	30.796	
C	-0.1095280624	 1.5661152448	 0.0687037792	-0.402341
C	 0.0142319471	 0.0413630319	-0.0252772364	 0.006047
C	 0.7793127685	-0.4024856841	-1.2907854409	-0.093342
O	 2.1913976991	-0.2497203327	-1.152239783	-0.262216
C	 2.680403033	-0.7388586178	 0.0784607485	 0.197914
C	 2.2887719468	-2.2084845741	 0.3532671583	-0.256949
C	 0.9536388746	-2.0672201727	 1.130954585	-0.244012
C	 0.7615683088	-0.5331852571	 1.1957299795	 0.087598
O	 2.1073590715	-0.0292624489	 1.1591455643	-0.252909
H	 0.8802196854	 2.0282995143	 0.0827662632	 0.143293
H	-0.6674157124	 1.9669299181	-0.7837114936	 0.10724
H	-0.6348906533	 1.8635439225	 0.9826825471	 0.107817
H	-0.989402014	-0.4022803993	-0.0646984021	 0.069427
H	 0.5363953403	-1.4485499366	-1.5311722196	 0.089289
H	 0.4957441728	 0.2045263586	-2.1552568391	 0.108302
H	 3.7535963334	-0.543751788	 0.0695835401	 0.087878
H	 2.2019454531	-2.7811365157	-0.5725727854	 0.113141
H	 3.0596327471	-2.6794291389	 0.9669412333	 0.109472
H	 0.1176680665	-2.5687231357	 0.6360733131	 0.102459
H	 1.0378397034	-2.4794155008	 2.1388833445	 0.107807
H	 0.3082551009	-0.1926670979	 2.1299903238	 0.074085
153.1604	196.7689	212.3724	254.4808	359.7807	387.3482	427.0347	486.1837	549.0314	667.347	749.7167	796.9173	802.4451	824.4466	858.7179	908.8411	934.8861	951.8438	970.7635	978.1674	986.004	1025.0773	1041.6445	1070.417	1111.2302	1149.7696	1156.2741	1187.4538	1244.2271	1261.3419	1274.8307	1288.0821	1315.4616	1324.2439	1330.3699	1367.3559	1375.1923	1389.7359	1406.2944	1421.1642	1482.6449	1492.3936	1499.1272	1504.4046	1514.978	2986.2692	3022.7899	3036.4324	3062.5941	3074.4704	3079.8811	3082.0052	3097.4333	3103.7312	3113.9421	3126.0068	3130.1796
CC1COC2CCC1O2	C[C@H]1CO[C@@H]2CC[C@H]1O2	
InChI=1S/C7H12O2/c1-5-4-8-7-3-2-6(5)9-7/h5-7H,2-4H2,1H3	InChI=1S/C7H12O2/c1-5-4-8-7-3-2-6(5)9-7/h5-7H,2-4H2,1H3/t5-,6+,7-/m0/s1
