18
gdb 12483	2.78855	2.22676	1.5227	2.8939	67.04	-0.2661	-0.0034	0.2628	880.8268	0.15562	-384.980094	-384.97271	-384.971766	-385.011959	28.035	
O	 0.4703526773	 0.0950911112	-0.0731680159	-0.311164
C	-0.0253748936	 1.1816560453	 0.0300512184	 0.407611
C	-1.5037491895	 1.4912056404	-0.0164205065	-0.300843
C	-1.7885352994	 2.629654551	-1.0279777742	-0.188933
C	-0.8652559608	 2.6538939298	-2.2703385596	-0.207134
C	 0.4922286911	 3.3577157847	-2.0537048926	-0.184261
C	 1.4334695868	 2.6442739338	-1.0813972371	-0.094135
O	 0.7220010052	 2.3318621704	 0.1301288279	-0.249176
H	-2.0234059508	 0.5680211952	-0.2839379039	 0.126744
H	-1.8449265915	 1.7849319652	 0.9827441592	 0.130768
H	-2.8283490227	 2.5300393425	-1.3560466388	 0.103499
H	-1.7144830498	 3.5960864969	-0.5192898726	 0.110304
H	-0.7055318128	 1.6315297066	-2.6396237345	 0.110032
H	-1.3864695784	 3.1842125833	-3.0746015095	 0.10174
H	 1.0088074244	 3.466848783	-3.0155584074	 0.099796
H	 0.302448408	 4.3721232971	-1.6814188995	 0.106346
H	 1.8383618266	 1.7187499111	-1.5066252137	 0.12359
H	 2.2701321398	 3.2852428225	-0.7936802998	 0.115217
62.0687	157.6033	243.2066	282.874	326.1543	380.038	451.8072	504.2116	621.5197	680.932	760.1988	809.3953	837.5878	865.4544	887.3507	971.6081	996.2133	1008.9284	1042.486	1093.8529	1113.2757	1165.9363	1211.8611	1223.9796	1251.2268	1281.1444	1299.0567	1347.3361	1372.4591	1381.1167	1387.6066	1400.7124	1463.9498	1474.6469	1488.6408	1490.7001	1507.1298	1842.4907	3019.4627	3024.1266	3041.3672	3043.4586	3053.0322	3066.3489	3071.1037	3082.2842	3108.6913	3112.502
O=C1CCCCCO1	O=C1CCCCCO1	
InChI=1S/C6H10O2/c7-6-4-2-1-3-5-8-6/h1-5H2	InChI=1S/C6H10O2/c7-6-4-2-1-3-5-8-6/h1-5H2
