15
gdb 127179	4.33495	1.05166	0.8509	1.8559	70.18	-0.2377	-0.0246	0.213	1256.7605	0.112954	-453.951483	-453.943404	-453.94246	-453.986424	28.556	
C	-0.0177585925	 1.451843689	-0.0213203214	-0.365211
N	-0.0111726925	-0.0045686244	 0.0221528394	-0.196186
C	-0.0200468776	-0.6401503016	 1.2425316183	 0.154792
O	-0.0329430985	-0.075340403	 2.3121018192	-0.329118
C	 0.0036840614	-0.7000346269	-1.1876458328	 0.221258
C	 0.011995965	-0.171532129	-2.4455169039	-0.011808
O	 0.0260179611	-1.1577330851	-3.3620343211	-0.164043
N	 0.027253098	-2.3769742074	-2.7169758913	-0.118023
C	 0.0141359345	-2.1085930768	-1.4357195688	-0.041651
H	 0.8766741213	 1.8227894665	-0.5336185801	 0.138284
H	-0.9062930381	 1.8143176847	-0.5497127149	 0.138272
H	-0.0287892623	 1.8115864075	 1.0060184243	 0.17887
H	-0.0141272294	-1.7383512147	 1.1462416278	 0.093618
H	 0.0096601745	 0.8342893291	-2.8296458156	 0.155213
H	 0.0126872451	-2.9310901781	-0.7369736291	 0.145734
8.2277	126.6483	190.1793	191.2461	295.3033	323.9306	382.702	455.2485	465.7168	612.1537	668.2847	789.316	806.5154	880.9834	927.082	938.8957	960.0513	1018.1203	1040.4073	1144.2637	1159.4458	1166.3778	1250.2278	1294.3632	1360.1432	1419.6956	1445.843	1450.9537	1487.921	1497.8948	1514.5381	1669.1512	1801.1211	3000.3452	3030.974	3087.6588	3173.3019	3259.0794	3286.9258
CN(C=O)C1=CON=C1	CN(C=O)c1conc1	
InChI=1S/C5H6N2O2/c1-7(4-8)5-2-6-9-3-5/h2-4H,1H3	InChI=1S/C5H6N2O2/c1-7(4-8)5-2-6-9-3-5/h2-4H,1H3
