17
gdb 55801	4.33409	1.02994	0.95277	2.8983	69.13	-0.2487	0.0067	0.2555	1256.5429	0.134098	-458.924272	-458.915881	-458.914937	-458.958823	30.188	
C	-0.1069637124	 1.4469310257	-0.0655873448	-0.481053
C	-0.026051503	-0.043527265	 0.1501385978	 0.425575
O	 0.8555839498	-0.630269437	 0.7208965126	-0.342978
O	-1.1031599964	-0.6654148558	-0.3962785245	-0.261168
C	-1.0984227309	-2.0847262474	-0.3117196233	 0.170606
C	-1.5527504427	-2.8026280916	 0.9838623272	 0.024728
C	-2.9945859155	-2.2799552105	 0.7692145555	-0.228723
C	-2.4421500688	-2.7901007798	-0.5841815831	-0.002862
O	-1.8734354237	-3.963003877	 0.1189414399	-0.307683
H	 0.7418379101	 1.9300742102	 0.4164304817	 0.15137
H	-0.1028736919	 1.6687623251	-1.1367464339	 0.153486
H	-1.043560432	 1.8368182913	 0.3425304362	 0.150583
H	-0.221619695	-2.5168182964	-0.7923633796	 0.113947
H	-0.9952472867	-2.9903281377	 1.8992316798	 0.109757
H	-3.77547513	-2.902077673	 1.2069024402	 0.113213
H	-3.1784330273	-1.2101465379	 0.8774446216	 0.109888
H	-2.9524009735	-2.9650607933	-1.5307607034	 0.101314
36.998	69.6396	99.0158	143.95	299.1633	350.4291	365.7429	557.5972	563.9353	608.2961	684.5367	743.2504	825.133	875.1531	894.5919	915.3167	938.9312	955.9874	1005.1394	1016.9367	1061.2814	1065.9404	1079.928	1108.9312	1163.7402	1174.6903	1197.5952	1222.246	1248.0066	1264.9623	1292.026	1367.9076	1398.0686	1468.8792	1475.4801	1482.1327	1831.2995	3057.6617	3083.2315	3122.3376	3127.0828	3135.9336	3149.7539	3162.723	3170.6177
CC(=O)OC1C2CC1O2	CC(=O)O[C@H]1[C@H]2C[C@@H]1O2	
InChI=1S/C6H8O3/c1-3(7)8-6-4-2-5(6)9-4/h4-6H,2H2,1H3	InChI=1S/C6H8O3/c1-3(7)8-6-4-2-5(6)9-4/h4-6H,2H2,1H3/t4-,5+,6+
