21
gdb 102182	2.32664	1.23616	0.87706	4.1143	83.61	-0.2387	0.0255	0.2642	1363.0615	0.181694	-383.252726	-383.242895	-383.241951	-383.287958	35.878	
C	-0.2731589298	 1.7306276663	 1.0592021889	-0.395191
C	-0.2171395852	 0.2899610534	 0.5585721478	-0.111982
N	 0.8198548539	-0.5314545246	 1.203642843	-0.077738
C	 0.6289932789	-1.9324890173	 0.8296642529	-0.285378
C	 1.351991709	-2.8764242548	 1.6912678022	 0.28905
N	 1.88970764	-3.6561826737	 2.3523851725	-0.317862
C	 2.1591468016	-0.081907394	 0.9085044496	 0.05174
C	 2.8030934347	 0.9752169991	 1.7682536562	-0.276742
C	 3.2891771242	-0.446889247	 1.8381817117	-0.284562
H	 0.6203327452	 2.2952248197	 0.786356888	 0.132632
H	-1.1368549717	 2.2345812156	 0.6144336153	 0.115998
H	-0.3812200464	 1.7584088344	 2.1472284447	 0.126807
H	-1.1807619139	-0.1900506145	 0.7640114265	 0.102174
H	-0.0950894053	 0.2881970572	-0.5422597994	 0.081947
H	-0.4359118866	-2.175344979	 0.9127089297	 0.14919
H	 0.9176530911	-2.142329937	-0.2178028705	 0.128701
H	 2.4099789272	-0.0501937416	-0.1583619557	 0.071726
H	 3.4191224957	 1.721397547	 1.2788142106	 0.113052
H	 2.2324304586	 1.3388256376	 2.6137624787	 0.124088
H	 3.0400132358	-1.0120672536	 2.7265189008	 0.144511
H	 4.2444310029	-0.7008778932	 1.3936481165	 0.117841
48.7935	86.8795	123.3363	153.4809	206.1198	252.8944	281.8349	307.4347	368.5348	388.1431	447.8978	449.3309	601.319	737.1022	793.7093	816.7166	837.0459	897.5678	936.299	959.5838	980.5998	1025.3594	1060.7213	1069.7557	1090.8032	1125.9951	1131.8227	1141.9514	1171.0054	1200.0401	1222.5937	1247.2936	1291.0751	1339.2976	1369.8235	1390.909	1407.3589	1440.1636	1460.8703	1470.0861	1489.1156	1495.1137	1501.4252	1517.6705	2364.8323	2913.6435	2929.3738	3023.032	3045.8315	3049.0017	3066.6368	3114.8392	3136.0294	3142.5107	3154.1776	3230.2921	3249.1786
CCN(CC#N)C1CC1	CCN(CC#N)C1CC1	
InChI=1S/C7H12N2/c1-2-9(6-5-8)7-3-4-7/h7H,2-4,6H2,1H3	InChI=1S/C7H12N2/c1-2-9(6-5-8)7-3-4-7/h7H,2-4,6H2,1H3
