19
gdb 16908	3.81572	1.85586	1.45571	0.5249	71.2	-0.2179	0.0891	0.307	914.4933	0.167228	-365.037723	-365.030421	-365.029477	-365.069062	28.575	
C	 0.0690798527	 1.5316780833	 0.0726819296	-0.405656
C	 0.0211942007	 0.0136185421	 0.008501856	 0.135147
C	 0.621709425	-0.5373275877	-1.2917264291	-0.160801
N	 0.9489271642	-1.9743103961	-1.2571189273	-0.104568
C	 2.2134135713	-2.3434796153	-0.6148595344	-0.240602
C	 0.9230119004	-2.6579907965	 0.044764382	-0.010127
C	 0.5064941809	-1.8840226363	 1.2806487678	-0.115999
O	 0.7340439456	-0.4968982685	 1.1326027708	-0.253153
H	 1.1072318683	 1.8778820339	 0.0611130861	 0.125596
H	-0.4518472383	 1.9694998082	-0.7844807561	 0.118083
H	-0.403763931	 1.8933174564	 0.9894891134	 0.123605
H	-1.0275168374	-0.3232427326	 0.0850353794	 0.066274
H	-0.0910158498	-0.3727644637	-2.1093496883	 0.102998
H	 1.5298966832	 0.0255624499	-1.5397233326	 0.101376
H	 2.7855254305	-3.119882567	-1.1167430282	 0.108894
H	 2.805731176	-1.5441131246	-0.1734208111	 0.11651
H	 0.5390730617	-3.6767244878	 0.0032577757	 0.088329
H	-0.5612205246	-2.0696584772	 1.4894673728	 0.091596
H	 1.0794292906	-2.2102971005	 2.1552776233	 0.112499
93.0255	202.8257	241.8719	304.4748	342.2856	382.4821	445.9535	486.5182	532.1196	695.7817	773.4804	790.4826	832.7994	913.8599	925.7905	943.4435	972.207	1048.9889	1057.1141	1102.646	1116.9493	1130.8429	1147.9854	1156.8411	1170.1334	1180.5088	1267.8545	1292.4761	1312.789	1338.3579	1381.6914	1388.0561	1405.4012	1409.5952	1429.0577	1481.1587	1492.2961	1495.1518	1502.0022	1508.716	2946.9919	2959.0475	3017.6304	3041.7585	3056.6968	3066.2618	3094.2465	3109.1801	3115.003	3121.4201	3180.4339
CC1CN2CC2CO1	C[C@H]1CN2C[C@H]2CO1	
InChI=1S/C6H11NO/c1-5-2-7-3-6(7)4-8-5/h5-6H,2-4H2,1H3	InChI=1S/C6H11NO/c1-5-2-7-3-6(7)4-8-5/h5-6H,2-4H2,1H3/t5-,6-,7?/m0/s1
