20
gdb 117289	4.21693	0.67678	0.61327	2.6813	77.64	-0.2448	-0.0292	0.2156	1842.5745	0.16881	-440.35283	-440.34243	-440.341486	-440.38983	36.812	
C	-0.2515623931	 1.3702034372	 0.1316045998	-0.387828
C	 0.4619986963	 0.0164192861	 0.1541102329	-0.164672
C	 0.4612339728	-0.6707433196	-1.2105393672	-0.278467
C	 1.1451694683	-2.023643458	-1.2337209897	 0.366248
O	 1.5920501367	-2.5355701931	-0.2262359034	-0.318661
C	 1.2572525581	-2.697767956	-2.5984098308	-0.401029
C	 0.9487408292	-4.2054863749	-2.6480001018	 0.382829
N	 1.5336293881	-4.9366002075	-1.6622916727	-0.509087
O	 0.2803739133	-4.6751500795	-3.5465401035	-0.354923
H	 0.2231729711	 2.061316892	-0.5739924237	 0.114911
H	-1.3006379429	 1.2641532102	-0.1666072438	 0.116473
H	-0.2334300751	 1.8403780027	 1.1192449234	 0.118875
H	 1.4972128183	 0.1408787076	 0.4904496908	 0.112045
H	-0.0087979403	-0.6477243855	 0.8864163047	 0.116097
H	-0.5651003782	-0.8231672694	-1.578199276	 0.133923
H	 0.9366193821	-0.0406052321	-1.9768425114	 0.125931
H	 0.62120497	-2.2134653801	-3.3399275391	 0.136159
H	 2.2989719088	-2.5658002863	-2.9218235028	 0.159055
H	 1.8660732857	-4.4530883456	-0.8382135557	 0.27533
H	 1.2713393109	-5.9074737584	-1.5977721	 0.256791
31.351	63.3048	80.3869	104.6078	143.2641	244.7141	249.5208	320.8324	374.4885	383.8815	471.3867	491.8821	552.2072	572.0706	672.4404	726.1881	743.167	822.7812	852.2266	903.7151	919.6442	943.2795	1050.2237	1063.1188	1089.9617	1137.0989	1147.9561	1187.3993	1253.4852	1295.7133	1322.6793	1329.4442	1356.922	1396.5635	1416.5688	1444.0976	1446.1798	1487.1837	1501.2636	1508.0464	1615.9235	1783.5904	1810.3182	3003.8736	3028.5665	3030.1252	3034.7495	3048.6742	3076.1291	3101.1986	3106.7407	3133.7231	3534.9069	3689.4707
CCCC(=O)CC(N)=O	CCCC(=O)CC(=O)N	
InChI=1S/C6H11NO2/c1-2-3-5(8)4-6(7)9/h2-4H2,1H3,(H2,7,9)	InChI=1S/C6H11NO2/c1-2-3-5(8)4-6(7)9/h2-4H2,1H3,(H2,7,9)
