13
gdb 125339	5.59021	1.34674	1.09268	6.9373	66.12	-0.2627	-0.0318	0.2309	1023.4969	0.090811	-448.90585	-448.899222	-448.898278	-448.936964	24.701	
C	 0.0734288472	 1.4553878866	 0.0399915164	-0.490298
C	-0.0822074655	-0.0165979808	 0.0046934541	 0.321875
C	-1.1356606215	-0.8296143333	-0.2396415514	-0.208576
N	-0.6302426727	-2.1245817132	-0.1215624357	 0.020847
N	-0.9684096602	-3.4353609182	-0.1994395996	-0.162216
N	 0.1397666314	-4.0731429687	 0.0583676786	-0.097295
N	 1.2009499529	-3.2451982757	 0.3044889035	-0.349889
C	 0.6753717655	-2.0521070894	 0.1817477865	 0.54161
O	 1.0634900845	-0.7709247605	 0.2712795208	-0.234296
H	 0.811273522	 1.7894983648	-0.6968498517	 0.161401
H	-0.8822438466	 1.9342376916	-0.182031226	 0.152305
H	 0.4115278794	 1.7905158223	 1.0260700594	 0.161401
H	-2.1596377064	-0.6051803754	-0.4776582849	 0.18313
143.326	151.8686	276.733	294.0453	356.1149	495.5725	571.5933	613.9515	695.0053	751.8682	772.2031	802.9206	845.9156	940.474	989.3532	1022.7088	1066.4822	1100.2445	1118.0337	1197.953	1253.0415	1304.8123	1382.1634	1424.1631	1466.5289	1471.7658	1488.2595	1593.2963	1680.2665	3042.2733	3100.1866	3140.1479	3308.0704
CC1=CN2N=NN=C2O1	Cc1cn2nnnc2o1	
InChI=1S/C4H4N4O/c1-3-2-8-4(9-3)5-6-7-8/h2H,1H3	InChI=1S/C4H4N4O/c1-3-2-8-4(9-3)5-6-7-8/h2H,1H3
