21
gdb 87490	4.02765	1.12559	1.03869	2.1361	85.14	-0.2119	0.0845	0.2964	1259.7199	0.182005	-383.157636	-383.148996	-383.148051	-383.19048	33.948	
C	 0.3882783305	 1.7407490947	-0.1342391903	-0.391781
C	 0.1526301182	 0.26526089	 0.0822933558	-0.131073
N	 1.3535166717	-0.6191590829	-0.0341291345	-0.420682
C	 0.6835231073	-0.481779258	 1.2290119975	 0.503087
C	 1.2745816032	-0.1516669647	 2.6102029844	-0.114
C	-0.1711664941	-0.3091710982	 3.1707980274	-0.249104
C	 0.0877941635	-1.5071722256	 2.2074950019	-0.133053
N	 1.5120018773	-1.6559525229	 2.7325356547	-0.110209
C	 1.7125540106	-2.2250301783	 4.0615348676	-0.32745
H	 1.3418199131	 2.0432427488	 0.3062825149	 0.126552
H	 0.4194980083	 1.9783269754	-1.2029877122	 0.120311
H	-0.4105369623	 2.3368975922	 0.3208234892	 0.113396
H	-0.7732937534	-0.1182526229	-0.3477050427	 0.081812
H	 1.1254997986	-1.5028047134	-0.4829265405	 0.230589
H	 2.043056829	 0.5760635629	 2.8728312245	 0.085255
H	-0.2666953962	-0.5408170957	 4.230202496	 0.103497
H	-0.9139358649	 0.4312670704	 2.8620599419	 0.098335
H	-0.5452819357	-2.3718066931	 1.9963941049	 0.077423
H	 1.6061207271	-3.3127091034	 3.9886633852	 0.119694
H	 2.7421370791	-2.0160384667	 4.3706573378	 0.122816
H	 1.0438689988	-1.8756806387	 4.8634904265	 0.094585
126.3645	138.7062	178.8572	189.8992	246.0314	284.6403	379.9922	416.9037	446.227	490.6748	596.3525	655.2976	750.4994	765.7785	792.347	829.6871	871.7677	897.7294	907.9183	994.1433	1009.588	1022.2987	1051.3699	1076.8003	1098.2222	1109.1549	1117.8245	1131.5201	1137.4463	1183.2473	1185.8617	1195.8437	1220.8809	1234.0007	1255.0543	1263.8584	1362.9926	1411.6661	1440.258	1477.0742	1483.1956	1493.0538	1499.0777	1519.6968	1543.3981	2977.2405	3032.5451	3060.1634	3069.1354	3092.8588	3094.3636	3095.3412	3096.0188	3114.586	3123.3496	3151.7536	3500.2047
CC1NC11C2CC1N2C	C[C@H]1N[C@]21[C@H]1C[C@@H]2N1C	
InChI=1S/C7H12N2/c1-4-7(8-4)5-3-6(7)9(5)2/h4-6,8H,3H2,1-2H3	InChI=1S/C7H12N2/c1-4-7(8-4)5-3-6(7)9(5)2/h4-6,8H,3H2,1-2H3/t4-,5-,6+,7-/m1/s1
