20
gdb 36812	8.94068	0.42228	0.40829	3.7108	86.95	-0.2667	0.0336	0.3003	2518.8521	0.169031	-366.005083	-365.994568	-365.993624	-366.041868	36.733	
C	-0.0565379705	-1.2498256861	-0.0040490535	-0.430926
C	-0.0589518812	-0.0479403029	 0.0024591525	 0.29022
C	-0.0260050576	 1.409236927	 0.0104381375	-0.357438
C	 1.4071600617	 1.9787529464	-0.0009927441	-0.181344
C	 1.4291262007	 3.510175065	 0.0075503958	-0.185031
C	 2.8497963679	 4.082321444	-0.0036762697	-0.187243
C	 2.8526111177	 5.6242808802	 0.0050715179	-0.342148
C	 4.2013171097	 6.1864920799	-0.0057254944	 0.257505
N	 5.2749094484	 6.6139296661	-0.0138070671	-0.303428
H	-0.0675725022	-2.3114161732	-0.0096390191	 0.195926
H	-0.57763009	 1.7922072025	-0.8584868728	 0.130318
H	-0.5596674199	 1.7822202396	 0.8947826206	 0.130332
H	 1.9508720064	 1.5921681838	 0.8687583117	 0.114944
H	 1.9328931066	 1.6021982168	-0.8860611567	 0.114943
H	 0.875804666	 3.8893291319	-0.8629016617	 0.101129
H	 0.8937371155	 3.8792750747	 0.8934008904	 0.101128
H	 3.4080028161	 3.7190118048	 0.8664234234	 0.123625
H	 3.3900871101	 3.7290383164	-0.8890778823	 0.123618
H	 2.3093666196	 6.0093176924	-0.8660650734	 0.151924
H	 2.327384785	 5.9992992708	 0.891512925	 0.151946
58.1952	64.503	67.0948	138.4742	143.3724	145.9287	211.6762	324.8987	348.7576	382.4848	399.62	532.1919	559.0715	619.582	640.3963	734.7496	752.7923	828.9123	933.7745	948.837	952.1615	1004.8587	1040.379	1063.421	1075.8607	1120.7954	1159.1242	1242.1654	1260.9882	1301.7971	1309.6363	1333.2676	1335.5018	1354.7636	1388.1015	1403.5275	1468.9559	1474.281	1486.562	1496.202	1512.2974	2240.2636	2362.7137	3006.1698	3014.3695	3035.1911	3035.6347	3039.1064	3042.0868	3047.7488	3068.164	3082.7471	3095.0056	3507.0254
C#CCCCCCC#N	C#CCCCCCC#N	
InChI=1S/C8H11N/c1-2-3-4-5-6-7-8-9/h1H,3-7H2	InChI=1S/C8H11N/c1-2-3-4-5-6-7-8-9/h1H,3-7H2
