19
gdb 67105	2.53006	2.04296	1.73761	2.0938	78.15	-0.2265	0.0794	0.306	903.3478	0.160101	-385.792565	-385.785527	-385.784583	-385.823469	29.353	
C	-0.1162390035	 1.5320453459	-0.0831155252	-0.531129
C	-0.0352895923	 0.0356642164	-0.1491455681	 0.317759
C	 0.7547276194	-0.8988711263	-1.0985989066	-0.1554
C	 2.2344346037	-0.8208985891	-0.5825761271	-0.220105
C	 2.0635854341	-0.8106427387	 0.9948679996	-0.355916
C	 0.5586459955	-0.9004125823	 0.9493384176	 0.44666
O	-0.6469045791	-0.9509573798	 1.7565742475	-0.402852
C	-1.0998442841	-0.9918726646	 0.3218546814	-0.045429
C	 0.0670702107	-1.8908417216	-0.1386305668	-0.09687
H	 0.8769212701	 1.9898767367	-0.1552555082	 0.118963
H	-0.7281141225	 1.9400181349	-0.8948782134	 0.121842
H	-0.5639538803	 1.8379302408	 0.8686244382	 0.136362
H	 0.610580388	-0.9163325423	-2.1796790809	 0.063284
H	 2.8209698917	-1.6828097546	-0.9134531358	 0.106249
H	 2.7434945635	 0.0800946313	-0.9371868045	 0.105734
H	 2.5480175709	-1.663323355	 1.4769428743	 0.112461
H	 2.4371218687	 0.11000227	 1.4512716563	 0.111224
H	-2.1768457708	-1.0554971861	 0.1702297736	 0.089031
H	 0.1373334862	-2.9762415557	-0.0780888619	 0.078132
196.1105	214.3181	221.8157	271.0342	410.5636	436.3044	536.9485	658.7176	680.3764	702.6187	728.7149	761.3755	812.0762	838.6512	852.2726	858.007	921.1582	928.1924	941.3592	951.4774	1031.2414	1037.5843	1053.8236	1103.512	1128.8008	1145.8897	1154.3276	1188.4614	1209.694	1221.2788	1232.9818	1247.6415	1290.1995	1315.2983	1323.8082	1385.9934	1411.3672	1482.8436	1491.8067	1492.92	1510.3806	3025.7562	3053.9816	3063.9649	3089.2861	3094.5546	3098.9758	3102.4138	3113.7699	3119.0413	3132.6502
CC12C3CCC11OC2C31	C[C@@]12[C@H]3CC[C@]41O[C@@H]2[C@@H]34	
InChI=1S/C8H10O/c1-7-4-2-3-8(7)5(4)6(7)9-8/h4-6H,2-3H2,1H3	InChI=1S/C8H10O/c1-7-4-2-3-8(7)5(4)6(7)9-8/h4-6H,2-3H2,1H3/t4-,5+,6+,7-,8-/m0/s1
