22
gdb 65507	3.4147	1.15967	1.12441	1.5863	85.78	-0.2253	0.0853	0.3106	1216.896	0.194844	-367.152268	-367.143692	-367.142748	-367.185354	34.314	
C	 0.0986137662	 1.600066341	-0.0566681461	-0.480245
C	 0.0427157702	 0.0762875356	-0.0500009553	 0.337952
C	 1.15900909	-0.6521165355	-0.9115998279	-0.279948
C	 1.6715024837	-1.3131200539	 0.3694955461	-0.034614
N	 2.084094197	-0.2060788877	 1.268805812	-0.344412
C	 0.6591927701	-0.6068322474	 1.196978907	-0.085989
C	-1.3205498038	-0.5278021514	-0.3404008345	-0.012942
C	-2.6228819208	 0.0770242393	 0.1244554125	-0.28707
C	-2.2864577858	 0.0428420365	-1.3478543498	-0.286805
H	 1.1025655866	 1.9231873654	 0.2264011859	 0.140438
H	-0.1226597128	 2.0072956326	-1.0488632553	 0.111191
H	-0.6086090489	 2.0381645561	 0.6556318369	 0.109453
H	 0.7294638859	-1.3523823254	-1.6312354583	 0.100212
H	 1.8806692811	-0.0034054829	-1.4149083328	 0.099811
H	 2.0989825679	-2.3018462338	 0.4840890072	 0.087051
H	 2.4683349598	-0.6317261766	 2.1122478241	 0.225211
H	 0.1265859208	-0.9293349907	 2.0847703734	 0.082807
H	-1.2983094783	-1.6155351969	-0.3052078642	 0.075619
H	-3.3922252316	-0.59168054	 0.4952210122	 0.107386
H	-2.6031930039	 1.041408242	 0.6189938064	 0.113636
H	-2.0388229348	 0.9843093467	-1.8248854011	 0.113468
H	-2.8268611686	-0.646400593	-1.9875042483	 0.107792
58.9938	158.8756	192.7401	230.308	280.6827	316.1123	348.5209	419.8323	464.4894	517.3546	639.9406	746.4262	790.4527	811.5243	824.6976	830.9886	849.377	883.0111	927.7373	937.0059	957.6389	961.5032	995.7409	1019.1246	1057.3477	1067.0439	1080.3407	1085.2644	1106.7576	1148.5529	1152.3728	1158.3276	1180.1736	1202.1039	1218.6833	1237.7187	1280.4556	1318.7377	1322.7776	1375.9626	1397.215	1418.8196	1468.5701	1476.5764	1493.2781	1508.6422	1511.8739	3035.6006	3060.7659	3096.7977	3114.0574	3121.0185	3127.4163	3134.9401	3139.5853	3170.8584	3188.3311	3211.7406	3226.3537	3468.3772
CC1(CC2NC12)C1CC1	C[C@]1(C[C@H]2N[C@@H]12)C1CC1	
InChI=1S/C8H13N/c1-8(5-2-3-5)4-6-7(8)9-6/h5-7,9H,2-4H2,1H3	InChI=1S/C8H13N/c1-8(5-2-3-5)4-6-7(8)9-6/h5-7,9H,2-4H2,1H3/t6-,7-,8+/m1/s1
