13
gdb 129246	3.07188	1.30527	1.05526	3.9861	64.78	-0.2374	-0.0167	0.2207	1088.0266	0.090193	-448.934358	-448.926647	-448.925703	-448.968043	27.062	
N	-0.0389994118	 1.3221855444	 0.1685128258	-0.601812
C	-0.00689243	 0.0670325709	 0.0554514514	 0.483305
O	 1.0944965536	-0.773787366	-0.0745905797	-0.201228
C	 0.5869535524	-2.0324308556	-0.1953875301	 0.093591
N	-0.6880847582	-2.1084831458	-0.1425024721	-0.211977
N	-1.0826921986	-0.7976743868	 0.0505361125	-0.060851
C	-2.4646081503	-0.4026509588	-0.0109527108	-0.28284
C	-3.0138001256	-0.4123851376	-1.3776856994	 0.273451
N	-3.4495339662	-0.4266044871	-2.4467154639	-0.292206
H	 0.8879720635	 1.7353358414	 0.1607417665	 0.24257
H	 1.2784203411	-2.8492742612	-0.3189131027	 0.178727
H	-3.0620777261	-1.0674035251	 0.6195939779	 0.177248
H	-2.5207458238	 0.6122278673	 0.3932370545	 0.202022
38.6405	60.4277	210.7917	245.3945	268.3248	363.8786	453.5683	533.4677	626.559	700.0248	721.243	733.6222	801.1585	834.3435	916.2767	929.7837	953.7765	985.7722	1089.3847	1140.1357	1225.2978	1299.7232	1342.9012	1386.2969	1413.3457	1445.2075	1651.6083	1802.5472	2368.259	3067.4769	3119.8019	3296.3064	3564.9525
N=C1OC=NN1CC#N	[NH][C@H]1OC=NN1CC#N	
InChI=1S/C4H4N4O/c5-1-2-8-4(6)9-3-7-8/h3,6H,2H2	InChI=1S/C4H5N4O/c5-1-2-8-4(6)9-3-7-8/h3-4,6H,2H2/t4-/m1/s1
