16
gdb 43977	3.21168	1.61125	1.45248	1.6545	69.01	-0.2601	0.0131	0.2732	931.4587	0.126016	-437.838548	-437.831721	-437.830777	-437.869658	27.187	
N	 0.0117686188	 1.1832177455	-0.1026659608	-0.552758
C	-0.0292939709	-0.0603423077	 0.0322199174	 0.386339
O	 1.0109231353	-0.9866539263	 0.1954393335	-0.297484
C	 0.0516011473	-2.0660612456	 0.0202871859	 0.322042
C	-0.9451534186	-2.0902183319	 1.1139422353	-0.358102
C	-1.1173091342	-1.0892507013	-0.0286331136	 0.058992
C	-1.9322408692	-1.4843488356	-1.2379353348	-0.155494
O	-1.440626222	-2.7930204033	-1.5982592199	-0.263783
C	-0.0593870278	-2.8963124524	-1.23177963	-0.151373
H	 0.9716761797	 1.5309289172	-0.067827568	 0.234602
H	-1.6550920308	-2.9107308982	 1.1023842156	 0.148808
H	-0.6578768149	-1.7281879623	 2.0940013806	 0.142667
H	-3.0056617869	-1.595652562	-1.0667792903	 0.124254
H	-1.7750972453	-0.757326906	-2.0463089278	 0.121189
H	 0.6123176322	-2.4747262692	-1.9947754084	 0.115317
H	 0.1547167272	-3.9617832008	-1.1155461448	 0.124783
126.2492	213.3088	246.2197	353.5829	387.6547	428.0661	599.192	612.7882	651.1451	656.9334	762.3831	848.8153	855.1594	875.9627	899.1171	910.4287	953.1835	959.99	984.9849	1029.1779	1042.6633	1085.0388	1139.4177	1189.8327	1211.0423	1220.3354	1260.1384	1310.2617	1360.0745	1367.2014	1382.6434	1467.7002	1507.2315	1518.2925	1826.9635	2999.5091	3019.2829	3096.5515	3099.2874	3140.6803	3236.7869	3479.3858
N=C1OC23CC12COC3	[NH][C]1O[C@@]23C[C@@]12COC3	
InChI=1S/C6H7NO2/c7-4-5-1-6(5,9-4)3-8-2-5/h7H,1-3H2	InChI=1S/C6H7NO2/c7-4-5-1-6(5,9-4)3-8-2-5/h7H,1-3H2/t5-,6-/m1/s1
