15
gdb 9924	3.27791	1.50402	1.46	4.6864	62.56	-0.2584	0.0187	0.2771	923.3324	0.11697	-399.787971	-399.779361	-399.778417	-399.820979	30.775	
C	-0.0338997758	 1.542356379	-0.0140450121	-0.449982
C	 0.019190296	 0.0238086873	-0.0125795134	 0.056199
C	-1.1421502467	-0.6443273418	-0.5349186654	 0.239004
N	-2.0658334722	-1.1980282273	-0.9600350764	-0.344121
C	 1.372967599	-0.7002870823	-0.2508457324	 0.075021
O	 2.5173769848	 0.0577361666	-0.4094239896	-0.422038
C	 0.737585202	-0.7249985626	 1.108422367	 0.005321
O	 1.340698736	 0.0967503809	 2.0709356169	-0.426913
H	 0.9549860069	 1.9596058104	 0.1753189647	 0.13264
H	-0.3718841198	 1.9011790876	-0.9893352334	 0.142407
H	-0.7220952551	 1.9125289789	 0.7501802574	 0.139653
H	 1.3565301637	-1.5859060224	-0.8771384968	 0.129896
H	 2.724392257	 0.42687292	 0.4615869946	 0.293113
H	 0.2750106187	-1.632975329	 1.485830647	 0.122849
H	 1.8501249355	-0.4651864552	 2.6649699716	 0.306953
82.0993	134.4496	161.7772	203.7857	226.9655	249.5219	295.5723	449.4319	455.3017	501.9824	562.4827	571.495	661.6209	699.7844	831.1373	857.1104	973.0443	1027.7717	1073.0148	1090.3368	1148.2196	1177.9858	1214.6735	1252.6737	1296.7329	1331.1025	1410.3665	1417.8612	1464.315	1484.8712	1497.7858	2342.5471	3059.0023	3125.8792	3143.9431	3154.7666	3172.733	3726.4887	3813.4662
CC1(C#N)C(O)C1O	C[C@@]1(C#N)[C@@H](O)[C@H]1O	
InChI=1S/C5H7NO2/c1-5(2-6)3(7)4(5)8/h3-4,7-8H,1H3	InChI=1S/C5H7NO2/c1-5(2-6)3(7)4(5)8/h3-4,7-8H,1H3/t3-,4+,5+
