15
gdb 128007	4.10286	1.15903	0.90928	3.7782	78.57	-0.2197	-0.0796	0.1401	1229.0497	0.111174	-450.083319	-450.074712	-450.073767	-450.116873	31.277	
C	-0.0859695741	 1.4626299347	-0.009077922	-0.320144
N	 0.0208487326	 0.0125862477	 0.0089736079	-0.32862
C	-1.0346398565	-0.6855475611	 0.0266657867	 0.46502
O	-2.2950666527	-0.0688143805	 0.0288625835	-0.29268
N	-3.5025162247	-0.8094675911	 0.0314544074	 0.055648
N	-3.4613051054	-2.0410043716	 0.053139452	-0.173683
C	-2.2491454216	-2.7634024953	 0.0663593517	 0.440157
N	-2.4654424569	-4.1128137233	 0.1445870256	-0.564739
C	-1.0607417529	-2.1222268012	 0.0436767079	-0.307504
H	 0.9191110633	 1.8903226236	-0.0322004763	 0.117492
H	-0.6371774305	 1.8273440066	-0.8862725985	 0.122674
H	-0.6053815984	 1.8502073576	 0.8776703272	 0.123433
H	-3.3866838816	-4.4209356571	-0.1249422532	 0.271646
H	-1.708178732	-4.7260483651	-0.1088820054	 0.267978
H	-0.1098014586	-2.638962914	 0.0421850854	 0.123323
68.7806	106.5821	140.6622	191.2259	281.1831	350.6134	398.0392	414.8313	449.1255	463.2107	527.2316	564.1447	682.3003	743.6463	752.9809	798.528	864.1688	897.1856	966.4514	1028.1551	1096.1203	1108.8369	1153.5324	1231.0306	1319.738	1391.1607	1439.6955	1486.3089	1499.0548	1602.6427	1634.5872	1711.706	1757.7705	3000.6992	3049.8714	3105.3258	3218.7932	3592.9851	3710.6945
CN=C1ON=NC(N)=C1	C[N]C1=CC(=N[N]O1)N	
InChI=1S/C4H6N4O/c1-6-4-2-3(5)7-8-9-4/h2H,5H2,1H3	InChI=1S/C4H6N4O/c1-6-4-2-3(5)7-8-9-4/h2H,5H2,1H3
