19
gdb 37009	3.35227	1.16363	1.14778	2.5592	76.04	-0.2281	0.0661	0.2943	1167.4473	0.158921	-422.959181	-422.950973	-422.950029	-422.992541	30.637	
C	-0.0548011917	 1.6853110106	 0.1068204356	-0.441189
C	 1.223906747	 0.8832159844	 0.0419692059	 0.201651
C	 2.2472535592	 0.7800885062	-1.0817315342	-0.128909
O	 3.312332761	 0.609436072	-0.115890581	-0.276268
C	 2.4098874488	 0.7980779356	 0.9949831125	-0.138924
C	-0.0896020863	 0.1878694701	 0.0995620854	 0.410207
C	-0.6424017786	-0.8099763896	 1.1114337931	-0.36458
C	-1.125528046	-1.5650910481	-0.146196691	-0.068271
O	-0.578015049	-0.5495636196	-1.0223558092	-0.306721
H	-0.2966621956	 2.2044626016	 1.0307307882	 0.115707
H	-0.371280031	 2.1946214391	-0.7992022912	 0.126895
H	 2.1378430242	-0.0878064068	-1.7427638252	 0.115302
H	 2.385543695	 1.6860768571	-1.6865057779	 0.100434
H	 2.6327644007	 1.7174416361	 1.5542954433	 0.099714
H	 2.4229275266	-0.053964469	 1.6887456253	 0.098424
H	 0.104347092	-1.3303027054	 1.7151063324	 0.117918
H	-1.4328816595	-0.4290386844	 1.7606842324	 0.117774
H	-0.6623822006	-2.5422339229	-0.3212556028	 0.110789
H	-2.2111673963	-1.6524908669	-0.2615721115	 0.110049
72.5602	107.4765	141.7874	160.2142	247.5452	369.1989	411.8974	464.9074	530.5017	616.9695	789.6643	845.96	860.1933	866.2808	876.0695	900.4789	961.4413	982.4323	992.6437	1015.4811	1026.9239	1036.0123	1102.5207	1131.7771	1147.3712	1148.6552	1159.7414	1166.9267	1200.871	1214.6464	1235.6037	1257.2922	1304.7173	1354.4812	1362.8409	1425.5507	1486.1615	1497.6494	1510.0465	1534.184	1535.4543	2990.861	3010.0984	3030.7559	3031.8337	3058.9366	3072.2885	3075.897	3109.499	3125.8741	3199.1898
C1C2(COC2)C11CCO1	C1C2(COC2)[C@]21CCO2	
InChI=1S/C7H10O2/c1-2-9-7(1)3-6(7)4-8-5-6/h1-5H2	InChI=1S/C7H10O2/c1-2-9-7(1)3-6(7)4-8-5-6/h1-5H2/t7-/m1/s1
