19
gdb 69976	2.48263	1.88817	1.39511	2.8126	74.6	-0.2368	0.0632	0.3	998.8998	0.157591	-422.968078	-422.959844	-422.9589	-423.000246	32.312	
C	-0.1427198201	 1.523852075	 0.0924346505	-0.518112
C	 0.1446846076	 0.0584702982	 0.0275661092	 0.374117
O	-0.743825272	-0.8249968492	 0.7199190386	-0.271531
C	 0.6527313742	-0.9277182977	 1.0097603677	-0.067046
C	 1.2949635271	-1.800861635	-0.0923985532	-0.185948
C	 0.3477751764	-2.7758955737	-0.8247416961	-0.08962
O	-0.0702454012	-1.7441193586	-1.7555928463	-0.324261
C	 0.7995175016	-0.7714087824	-1.1424983218	 0.39482
C	 1.6693139679	-0.0254893019	-2.1190750223	-0.487984
H	 0.7221385761	 2.1133187458	-0.2267376952	 0.12461
H	-0.985235538	 1.7801611952	-0.5597355812	 0.138285
H	-0.4052898492	 1.8123655021	 1.1139290774	 0.135213
H	 0.9534081197	-0.8126142901	 2.0457500608	 0.102542
H	 2.3472527467	-2.0555291962	 0.0232114452	 0.083046
H	 0.8570215485	-3.5932991394	-1.3482313824	 0.096835
H	-0.4905460486	-3.1648287131	-0.2406940785	 0.115696
H	 1.0525123549	 0.5893398205	-2.7842395878	 0.132343
H	 2.3700422565	 0.6348982452	-1.5974785711	 0.119467
H	 2.2415173019	-0.7240314748	-2.7357609036	 0.12753
151.0791	185.8098	211.0946	231.0367	259.3162	275.4768	343.8988	384.9329	503.6021	548.0553	603.8269	664.0503	779.3965	813.7895	818.0928	853.9542	883.7837	901.3442	971.8931	989.6466	1003.4255	1030.9844	1063.4897	1085.2181	1103.9451	1136.1735	1159.293	1166.9246	1223.0924	1252.8388	1290.3018	1303.6242	1348.3093	1399.3896	1407.5211	1446.4813	1478.4415	1483.8113	1486.9891	1495.1737	1505.5914	3029.5538	3032.2057	3036.1052	3094.9212	3098.4118	3101.2271	3114.8417	3119.9199	3128.8456	3173.4936
CC12OC1C1COC21C	C[C@]12O[C@H]1[C@H]1CO[C@@]21C	
InChI=1S/C7H10O2/c1-6-4(3-8-6)5-7(6,2)9-5/h4-5H,3H2,1-2H3	InChI=1S/C7H10O2/c1-6-4(3-8-6)5-7(6,2)9-5/h4-5H,3H2,1-2H3/t4-,5+,6-,7+/m1/s1
