17
gdb 33006	5.15807	0.9363	0.80043	3.4755	78.44	-0.2441	-0.0372	0.2069	1405.5586	0.137595	-418.054682	-418.046642	-418.045698	-418.087921	29.333	
C	-0.1345663641	 1.5564538234	 0.0120052703	-0.39335
C	 0.0161869649	 0.0468007901	 0.0037985557	-0.053921
O	-1.2951883304	-0.5192634498	 0.0111011696	-0.271108
C	-1.4131928756	-1.8648753643	 0.0056031758	 0.307124
C	-0.3682045493	-2.7901220712	-0.006692294	-0.097847
N	-0.5968105652	-4.1078017095	-0.0112282525	-0.244731
C	-1.8670432565	-4.4968253839	-0.0034879692	 0.062193
N	-2.9434654347	-3.7019960278	 0.0084585681	-0.242513
C	-2.7094818365	-2.3962235365	 0.0128918388	-0.043117
H	 0.8515437764	 2.0296098152	 0.0067088514	 0.125466
H	-0.6868562995	 1.8933463535	-0.8692177169	 0.13605
H	-0.6733547968	 1.8850650115	 0.9046395199	 0.13605
H	 0.5590501682	-0.2905349746	-0.8899974346	 0.114121
H	 0.5725211164	-0.2988595873	 0.886058966	 0.114121
H	 0.6718190348	-2.4793854989	-0.0130751963	 0.11296
H	-2.0528112933	-5.5672954527	-0.0071177302	 0.116668
H	-3.5621986489	-1.720722177	 0.0225532882	 0.121834
62.2052	112.8253	160.2942	226.8413	255.8503	341.9504	423.8811	435.8348	521.9098	625.6775	637.4429	751.9757	829.5813	831.5319	919.4105	936.1258	969.6415	992.5238	1043.7544	1067.1877	1135.1621	1151.831	1182.9957	1217.6486	1247.6803	1300.066	1312.9844	1369.0313	1402.0799	1423.5978	1460.8309	1474.2337	1484.6322	1499.505	1522.8857	1591.2011	1621.3934	2998.899	3037.9651	3050.3173	3126.1201	3130.274	3157.2486	3173.8824	3178.4517
CCOC1=CN=CN=C1	CCOc1cncnc1	
InChI=1S/C6H8N2O/c1-2-9-6-3-7-5-8-4-6/h3-5H,2H2,1H3	InChI=1S/C6H8N2O/c1-2-9-6-3-7-5-8-4-6/h3-5H,2H2,1H3
