21
gdb 65223	2.57653	1.40518	1.05864	2.5961	82.55	-0.2399	-0.0201	0.2198	1209.0813	0.181153	-387.092288	-387.083136	-387.082192	-387.126444	34.816	
C	 0.0431315998	 1.4898779989	 0.5200504296	-0.459133
C	 0.0404806857	 0.072639281	-0.0236613593	 0.345769
C	 1.0733532606	-0.2811367258	-1.0704138502	-0.307842
C	 1.2037560847	-0.8221643809	 0.3345508869	-0.303859
C	-1.342624622	-0.5377100409	-0.117304289	-0.167503
C	-2.3702960599	-0.0009879006	-1.1720537929	-0.247342
C	-2.7703123857	-1.4594757361	-1.5442052261	-0.335535
C	-1.5552651628	-1.9358683049	-0.7353087349	 0.387487
O	-0.9510929376	-2.9696403486	-0.6793214136	-0.306086
H	 1.0602335526	 1.8918940213	 0.5636776568	 0.114838
H	-0.5534589697	 2.1624795545	-0.1074325832	 0.116132
H	-0.3731272518	 1.5250822927	 1.5341905751	 0.113214
H	 0.8101503114	-0.9867288234	-1.8509100791	 0.116091
H	 1.7555361339	 0.4995142634	-1.3902925499	 0.105155
H	 1.977040463	-0.4100160405	 0.9747875351	 0.10363
H	 1.0063505727	-1.8782081517	 0.4735928192	 0.140447
H	-1.806439392	-0.5439066817	 0.8804578344	 0.099407
H	-3.1681856755	 0.6358245503	-0.7889787412	 0.107414
H	-1.8690183902	 0.5113999983	-1.9964560627	 0.115965
H	-3.7110499156	-1.7891280607	-1.0911336395	 0.132067
H	-2.7791082515	-1.7409308045	-2.6001508955	 0.129685
56.5099	82.7855	156.8402	202.3561	231.2142	292.4419	319.3556	354.5559	436.6482	465.6736	568.1501	618.2605	688.7586	760.7214	791.8972	818.2737	871.1215	909.4664	930.5397	936.1529	953.5831	1001.8394	1029.535	1051.0705	1068.125	1071.6912	1088.0561	1092.4658	1128.7269	1192.3234	1199.1534	1222.0411	1233.181	1257.6887	1270.1935	1347.2946	1351.9535	1416.6571	1439.5937	1464.2969	1488.6939	1490.5404	1497.1568	1508.8904	1875.6146	3000.2874	3019.0908	3057.7108	3075.8173	3078.5886	3097.4825	3111.638	3130.5621	3134.4861	3135.9562	3212.0438	3231.1709
CC1(CC1)C1CCC1=O	CC1(CC1)[C@H]1CCC1=O	
InChI=1S/C8H12O/c1-8(4-5-8)6-2-3-7(6)9/h6H,2-5H2,1H3	InChI=1S/C8H12O/c1-8(4-5-8)6-2-3-7(6)9/h6H,2-5H2,1H3/t6-/m0/s1
