19
gdb 109985	2.15348	1.4731	1.01541	4.6608	77.02	-0.2477	0.0164	0.2641	1221.9369	0.158349	-419.185765	-419.176177	-419.175233	-419.220547	34.269	
C	-0.1101703155	 1.4846353978	 0.1849606238	-0.251013
O	-0.0652314626	 0.1037147517	-0.1361683784	-0.22683
C	-1.2952575497	-0.5392665266	-0.0764342061	 0.118054
C	-1.2267311973	-1.9981238514	-0.6117672902	 0.015833
C	-0.0250313051	-2.4126396417	-1.4403944426	-0.385066
N	-1.2230321077	-2.4921059351	 0.7894220505	-0.31104
C	-1.6790662126	-1.1903994724	 1.3108365189	-0.181644
C	-0.9784429888	-0.72360542	 2.5064943804	 0.324605
N	-0.4424134591	-0.3345414056	 3.4538758102	-0.337918
H	 0.9001887285	 1.8732493478	 0.0447209585	 0.138256
H	-0.7995553856	 2.0218514477	-0.4836147745	 0.107993
H	-0.414105604	 1.6538215299	 1.2248165224	 0.135585
H	-2.0904713756	 0.0878362064	-0.499484399	 0.076281
H	-2.1576027728	-2.2361287423	-1.1478508972	 0.069379
H	 0.9007242638	-2.1225476918	-0.9415093524	 0.144574
H	-0.0246311072	-3.4986711715	-1.5795964089	 0.114381
H	-0.0550362568	-1.9432304996	-2.4289868832	 0.115669
H	-1.8286958261	-3.2777796564	 0.9977946348	 0.226054
H	-2.7602563356	-1.1123415171	 1.4930431831	 0.106845
54.9886	119.1146	135.416	166.5954	197.9358	204.7769	240.7298	311.3863	373.1078	412.8744	477.2051	565.5003	595.9847	683.1699	775.7605	822.9676	906.4512	958.4248	989.3147	993.2499	1070.7031	1084.9378	1100.0835	1147.1212	1158.2408	1184.1244	1199.7695	1232.6958	1261.6748	1307.8367	1341.7094	1381.6734	1391.9478	1403.8044	1413.7558	1481.485	1485.1015	1490.419	1494.0356	1507.3666	2353.8195	2983.7589	2991.8064	2998.5235	3023.158	3042.4177	3066.7091	3105.9278	3132.4248	3146.6608	3538.5607
COC1C(C)NC1C#N	CO[C@H]1[C@@H](C)N[C@H]1C#N	
InChI=1S/C6H10N2O/c1-4-6(9-2)5(3-7)8-4/h4-6,8H,1-2H3	InChI=1S/C6H10N2O/c1-4-6(9-2)5(3-7)8-4/h4-6,8H,1-2H3/t4-,5+,6+/m1/s1
