21
gdb 70611	2.33999	1.86542	1.32909	1.5054	82.21	-0.2262	0.0851	0.3113	1052.4557	0.182981	-387.07409	-387.065915	-387.064971	-387.106229	33.186	
C	-0.2987864769	 1.43604495	 0.047948219	-0.49769
C	-0.0669409356	-0.0542801052	 0.0441634237	 0.271066
C	-0.4247292474	-0.8966223462	 1.2501451614	-0.333748
C	 1.0213270217	-0.730135235	 0.8532905601	-0.098852
C	 1.5877623224	-1.816331918	-0.03989932	-0.11044
O	 0.5855390012	-2.0465960189	-1.0312774843	-0.297908
C	-0.0919060942	-0.8267386833	-1.2539067755	 0.414776
C	-1.2322342579	-0.894661527	-2.2134854625	-0.33598
C	 0.0530194688	-0.1817569203	-2.6095133249	-0.342873
H	 0.4303198628	 1.9608681126	-0.5781487351	 0.122254
H	-1.3006725072	 1.6882489292	-0.3199170245	 0.120133
H	-0.2156953365	 1.8362096176	 1.0626649138	 0.117418
H	-0.7596423084	-0.367281566	 2.1359074165	 0.10496
H	-0.8948368507	-1.8616024737	 1.0897440841	 0.121294
H	 1.6964126292	-0.1602772722	 1.4817776291	 0.0852
H	 2.5315284044	-1.4810573196	-0.4988102747	 0.091587
H	 1.7667324493	-2.7722901269	 0.4634230684	 0.106202
H	-1.4335908533	-1.8578421225	-2.6686626799	 0.122761
H	-2.1129937128	-0.2941514412	-2.0113804818	 0.112742
H	 0.0367859285	 0.8988396196	-2.699271023	 0.108748
H	 0.7012613826	-0.689324173	-3.3149872498	 0.118352
111.9721	208.2646	222.8635	234.1273	276.9572	363.2862	369.2794	414.8792	477.5356	566.5461	609.6573	696.0984	763.8774	803.4113	831.1668	878.5546	887.4553	897.2757	948.3748	966.6822	973.0219	985.9595	1021.4138	1050.4065	1065.0218	1071.3228	1090.3642	1097.4642	1116.9083	1129.1271	1184.0168	1189.5174	1238.4879	1273.1859	1284.8985	1370.2715	1389.2537	1400.5018	1424.3243	1448.5251	1482.9119	1491.9622	1498.0332	1505.9524	1517.6664	2977.4801	3025.7364	3067.3382	3085.5007	3104.3218	3127.2108	3131.6868	3135.2244	3175.4782	3215.2499	3215.8144	3229.7053
CC12CC1COC21CC1	C[C@]12C[C@H]1COC12CC1	
InChI=1S/C8H12O/c1-7-4-6(7)5-9-8(7)2-3-8/h6H,2-5H2,1H3	InChI=1S/C8H12O/c1-7-4-6(7)5-9-8(7)2-3-8/h6H,2-5H2,1H3/t6-,7-/m0/s1
