21
gdb 64027	2.25249	1.54637	1.16629	0.7163	89.	-0.2414	0.0188	0.2601	1160.4464	0.1811	-349.939944	-349.930685	-349.929741	-349.973245	36.501	
C	 0.0050799923	 1.5367276497	-0.1187479008	-0.420679
C	 0.0072823522	 0.0023026823	-0.0287809733	 0.288816
C	-1.4302048448	-0.5249221733	-0.0492141359	-0.444039
C	 0.8827342242	-0.5736268074	-1.1842053429	-0.292665
C	 2.2536915181	-0.7115213636	-0.5708321365	-0.080515
C	 2.2105677327	-0.6529445774	 0.7567879039	-0.071877
C	 0.7839832974	-0.4863458946	 1.2577312132	-0.224559
C	 0.6420156877	 0.3496759199	 2.4437248121	 0.331221
C	 0.5288444394	 1.0192944153	 3.4364169	-0.477476
H	 1.0240438648	 1.9354959945	-0.1097014232	 0.11935
H	-0.4771903522	 1.8556288051	-1.0489378518	 0.104529
H	-0.536977703	 1.9837040135	 0.7184303452	 0.124619
H	-1.9501761128	-0.2103734891	-0.9606768764	 0.111783
H	-1.455793191	-1.619418324	-0.0104174211	 0.108431
H	-1.9986628461	-0.1437258695	 0.806076883	 0.122053
H	 0.5094785249	-1.5540830188	-1.5146465752	 0.101412
H	 0.8680145755	 0.0750495923	-2.0679061072	 0.100818
H	 3.1495219823	-0.8759495532	-1.1594495755	 0.095843
H	 3.0483612166	-0.7514438853	 1.4363457933	 0.10393
H	 0.3987478631	-1.4845213785	 1.5227413692	 0.106418
H	 0.4320613586	 1.613779722	 4.3108576601	 0.192589
81.7812	145.7781	187.3524	240.985	265.2827	304.7906	335.7583	361.0302	385.9053	413.5774	511.2612	531.0484	591.975	616.6521	635.7908	702.952	755.2284	800.9227	873.6919	930.6609	957.1204	969.0441	969.3437	981.1799	1013.7397	1037.5826	1064.2521	1118.868	1144.0109	1190.1892	1224.3603	1238.6976	1279.7508	1323.9105	1329.1182	1362.1766	1401.5241	1422.0462	1480.4941	1486.9262	1495.3831	1503.5357	1510.1534	1687.9938	2230.687	2964.0033	3000.3911	3024.9274	3037.1001	3051.4953	3093.1333	3095.8943	3104.3016	3121.1074	3186.9236	3216.2275	3503.5387
CC1(C)CC=CC1C#C	CC1(C)CC=C[C@H]1C#C	
InChI=1S/C9H12/c1-4-8-6-5-7-9(8,2)3/h1,5-6,8H,7H2,2-3H3	InChI=1S/C9H12/c1-4-8-6-5-7-9(8,2)3/h1,5-6,8H,7H2,2-3H3/t8-/m1/s1
