21
gdb 86816	4.06243	0.82865	0.77099	3.9387	80.17	-0.2243	0.0382	0.2625	1540.4351	0.182287	-420.421961	-420.412201	-420.411257	-420.457286	35.798	
C	 0.5393099738	 1.7030320202	-0.3624550074	-0.392296
C	 0.1303382982	 0.2869184671	 0.0239266422	 0.011614
C	 0.896228761	-0.8418220399	-0.7184165765	-0.174586
N	 1.7863064354	-0.9793125152	 0.4551288519	-0.087079
C	 2.2294989153	-2.2994110504	 0.8505428255	-0.260591
C	 3.3508438495	-2.2906174209	 1.8989843118	 0.377164
N	 4.0457695009	-1.1239577898	 1.9448484959	-0.505768
O	 3.5890949903	-3.2602213647	 2.5916647271	-0.365071
C	 0.8080660732	-0.2636780925	 1.3073445497	-0.177707
H	 1.6290605882	 1.8113148601	-0.3520614547	 0.120531
H	 0.1855090937	 1.9559567278	-1.3677086069	 0.116732
H	 0.1208071486	 2.4378496462	 0.3336395009	 0.116968
H	-0.956561991	 0.1846202747	 0.0056986006	 0.078
H	 0.2689311793	-1.7297431442	-0.8908610868	 0.09001
H	 1.4089512394	-0.5832601343	-1.6521411225	 0.100103
H	 1.4208828561	-2.935688301	 1.2476398093	 0.108888
H	 2.6310637068	-2.8103621326	-0.0338809452	 0.12985
H	 3.8068055688	-0.3890513898	 1.2989440408	 0.260975
H	 4.8451704648	-1.0501295587	 2.5506657086	 0.257304
H	 1.2471155372	 0.4585457242	 2.0043433428	 0.100858
H	 0.1554376005	-0.9479867364	 1.8717815427	 0.0941
57.7176	71.1192	83.2765	167.3138	237.3521	276.8648	306.1572	316.3245	378.659	398.1293	430.0036	531.5161	570.4369	703.9278	744.537	817.9373	864.4236	886.6421	900.2745	914.7326	968.708	986.8286	1070.8279	1091.7289	1099.3076	1116.8692	1144.839	1157.1854	1221.8327	1234.6161	1244.2299	1275.3371	1295.3721	1334.8734	1349.3097	1369.1243	1376.095	1412.4202	1466.9947	1495.3941	1496.3241	1504.1437	1526.5066	1579.539	1809.8866	2970.2095	2978.2816	2986.764	3029.3451	3050.7331	3052.5089	3058.4239	3080.5692	3096.8698	3106.0433	3585.8659	3733.3487
CC1CN(CC(N)=O)C1	CC1CN(CC(=O)N)C1	
InChI=1S/C6H12N2O/c1-5-2-8(3-5)4-6(7)9/h5H,2-4H2,1H3,(H2,7,9)	InChI=1S/C6H12N2O/c1-5-2-8(3-5)4-6(7)9/h5H,2-4H2,1H3,(H2,7,9)
