19
gdb 92218	3.2189	1.71914	1.60766	2.4049	73.32	-0.2394	0.088	0.3274	926.9257	0.162061	-423.017867	-423.011166	-423.010221	-423.048631	28.117	
C	-0.2384197609	 1.5599041987	-0.0641436784	-0.400941
C	 0.0118526519	 0.0580641721	-0.0017066759	 0.111132
O	 0.8097019109	-0.3791217426	-1.1343021717	-0.271019
C	 2.038187519	-0.7843010924	-0.5939102401	 0.204996
O	 2.6885099865	 0.3481994634	 0.0128759164	-0.287254
C	 2.2487588146	 0.1802108227	 1.3780327327	 0.080794
C	 2.7734123665	-1.2333762352	 1.7096089698	-0.246546
C	 1.7012257746	-1.6230071189	 0.6648226176	-0.103449
C	 0.8213504109	-0.4448207287	 1.1968436172	-0.072875
H	 0.7058467621	 2.1079015043	-0.0419185213	 0.138326
H	-0.7623011005	 1.8161730938	-0.9893285167	 0.124519
H	-0.8610815721	 1.8796261155	 0.778901699	 0.106506
H	-0.9465116228	-0.4757147091	-0.0557618307	 0.078947
H	 2.6552390447	-1.2028452013	-1.3877605784	 0.089388
H	 2.4669623106	 1.0749454352	 1.9582850907	 0.082204
H	 3.8249005022	-1.4272732067	 1.4870196344	 0.1042
H	 2.5149805124	-1.575481527	 2.7146848546	 0.102176
H	 1.3256696937	-2.6319480745	 0.5048211524	 0.078775
H	 0.2687132357	-0.6218039392	 2.1185554683	 0.08012
155.839	231.7527	243.4811	415.2087	438.712	472.7049	540.2769	617.3412	671.4525	786.514	818.3338	830.8097	848.7672	885.8256	891.1775	928.7972	943.6061	948.4889	971.0353	1011.8311	1038.9769	1060.3604	1064.1919	1097.3981	1115.8048	1120.033	1146.432	1185.4032	1228.6535	1243.625	1253.234	1279.0175	1311.4196	1320.3021	1347.2381	1372.5436	1383.8278	1405.0602	1485.4136	1489.5749	1504.8859	3010.0896	3039.4245	3064.7799	3108.13	3126.0085	3129.19	3133.5051	3136.2501	3138.7566	3144.8733
CC1OC2OC3CC2C13	C[C@H]1O[C@H]2O[C@@H]3C[C@H]2[C@H]13	
InChI=1S/C7H10O2/c1-3-6-4-2-5(6)9-7(4)8-3/h3-7H,2H2,1H3	InChI=1S/C7H10O2/c1-3-6-4-2-5(6)9-7(4)8-3/h3-7H,2H2,1H3/t3-,4+,5-,6+,7+/m1/s1
