24
gdb 88657	3.57138	0.87852	0.79959	1.2753	90.59	-0.219	0.082	0.301	1564.5182	0.217166	-368.372977	-368.363215	-368.362271	-368.408053	36.898	
C	 2.7679325062	 2.5318668542	-1.7952559663	-0.390428
C	 2.3835057596	 1.0578539716	-1.7059608702	 0.031699
C	 3.5873209455	 0.0726966067	-1.7959038472	-0.253954
C	 3.557352629	-0.0798355856	-0.245511861	 0.040765
C	 2.1299709948	 0.5456818873	-0.2570208694	-0.24961
C	 3.7251915671	-1.4700142459	 0.3086596695	 0.002463
C	 5.0547024963	-1.976076152	 0.7641430152	-0.263294
N	 3.9755641799	-1.7700394369	 1.72157041	-0.08692
C	 4.1211244441	-0.6882467753	 2.6836647041	-0.311518
H	 3.5766237336	 2.7791104947	-1.0975082765	 0.111927
H	 3.1107289823	 2.7906279179	-2.803237047	 0.112462
H	 1.9158681315	 3.1771828364	-1.5544320145	 0.112764
H	 1.5729792539	 0.8521260344	-2.4115793215	 0.065272
H	 3.3174540623	-0.8626899653	-2.296471254	 0.096377
H	 4.5111298735	 0.44982262	-2.2439384657	 0.093112
H	 4.2745033193	 0.6054755597	 0.2124482432	 0.06713
H	 1.9060869213	 1.2977634588	 0.505259031	 0.092502
H	 1.3541179474	-0.225423358	-0.2194885197	 0.097588
H	 3.0468542283	-2.1926148396	-0.1490364572	 0.0795
H	 5.3560408759	-3.006330706	 0.5903503342	 0.110112
H	 5.8767033925	-1.2592064021	 0.7629255961	 0.099539
H	 4.7012365722	 0.1764761471	 2.3247562839	 0.09848
H	 3.1303307611	-0.3343097273	 2.9868788644	 0.122499
H	 4.6261767724	-1.0797107246	 3.5728848286	 0.121535
54.9101	68.8081	120.168	201.9575	232.0998	253.3947	287.0556	316.5492	368.2056	388.1559	438.5316	520.694	675.7476	753.225	792.9895	820.4015	868.1869	899.0401	902.9455	936.4721	955.7558	971.667	1025.9248	1039.1249	1052.061	1090.3163	1118.4723	1128.8694	1135.8222	1140.5607	1166.0143	1204.0633	1216.3469	1230.5414	1243.5553	1268.013	1275.0404	1281.0331	1318.6613	1340.4536	1368.6163	1414.1931	1435.241	1453.8197	1473.3956	1489.5745	1494.8353	1498.1466	1501.0633	1503.8446	1513.8104	2975.1214	3023.0647	3042.1482	3043.0597	3054.7129	3061.9422	3070.2825	3077.8025	3082.6936	3090.1051	3091.7155	3096.2455	3098.0257	3104.9047	3164.5813
CC1CC(C1)C1CN1C	C[C@H]1C[C@@H](C1)[C@H]1CN1C	
InChI=1S/C8H15N/c1-6-3-7(4-6)8-5-9(8)2/h6-8H,3-5H2,1-2H3	InChI=1S/C8H15N/c1-6-3-7(4-6)8-5-9(8)2/h6-8H,3-5H2,1-2H3/t6-,7-,8-,9?/m1/s1
