20
gdb 88764	3.81639	1.07375	0.93875	2.6556	79.42	-0.2206	0.0821	0.3028	1290.1709	0.170598	-403.068077	-403.059678	-403.058733	-403.101462	32.071	
C	 2.9155982191	-0.6894861446	 0.3813263786	-0.311349
N	 1.5973443397	-1.2948503867	 0.49288839	-0.08646
C	 1.4079963896	-2.3188469348	 1.5121545204	-0.266257
C	 0.7419212559	-0.9883885999	 1.6441838767	 0.015217
C	 1.1268763623	-0.0287874312	 2.7404485304	-0.036917
C	 0.8295611345	 1.5109947111	 2.5412561511	-0.280882
C	-0.0761040871	 1.4484026993	 3.7765835862	 0.035727
O	-1.0926437391	 0.4758461104	 3.5029235436	-0.242558
C	 0.1823776009	 0.0118711843	 3.9606111901	 0.007454
H	 3.4744487863	-0.6148794338	 1.3279839996	 0.095724
H	 3.5158563937	-1.2893399487	-0.3104899169	 0.123346
H	 2.8203666456	 0.3163473774	-0.0408270726	 0.122935
H	 0.8455709889	-3.1998858091	 1.2133176451	 0.114452
H	 2.2397009115	-2.5221977511	 2.1879501138	 0.098411
H	-0.3104077374	-0.9176216889	 1.3769140917	 0.103768
H	 2.1596743398	-0.1740370516	 3.0657767295	 0.078143
H	 1.7209147064	 2.127669917	 2.6772070894	 0.106458
H	 0.3234627088	 1.7945252752	 1.6153284582	 0.115995
H	-0.3150566248	 2.2217728716	 4.4969098852	 0.105124
H	 0.1917411454	-0.6077635958	 4.8503050696	 0.101668
62.3088	129.0169	148.0003	215.0085	236.2454	341.3169	387.2567	414.087	497.997	557.6231	735.9681	751.2274	814.6175	842.1553	866.2147	894.3062	905.7516	943.6982	958.4884	1003.6204	1014.8922	1036.2293	1050.738	1093.6127	1121.2287	1130.0822	1143.7797	1169.0644	1196.3355	1208.4976	1222.2235	1238.1295	1240.5173	1275.6897	1291.7993	1335.2453	1387.9772	1435.7705	1450.8966	1475.1515	1490.4209	1500.8736	1513.2665	2971.3998	3062.5143	3067.2189	3077.3153	3082.7672	3098.6015	3125.0194	3130.9715	3167.6026	3177.7107	3195.3588
CN1CC1C1CC2OC12	CN1C[C@H]1[C@H]1C[C@H]2O[C@@H]12	
InChI=1S/C7H11NO/c1-8-3-5(8)4-2-6-7(4)9-6/h4-7H,2-3H2,1H3	InChI=1S/C7H11NO/c1-8-3-5(8)4-2-6-7(4)9-6/h4-7H,2-3H2,1H3/t4-,5+,6-,7+,8?/m1/s1
