17
gdb 28934	3.02047	1.47986	1.0502	3.2756	73.73	-0.1977	0.0419	0.2396	1115.2039	0.137461	-418.019013	-418.011014	-418.01007	-418.052019	30.163	
O	-0.9494971626	 0.8943486283	 0.5600733101	-0.435948
C	-0.2516911015	-0.1928913523	 0.1497263336	 0.326889
C	-0.1049143463	-0.8524763231	-1.0409948335	-0.218155
N	 0.7577366753	-1.9201703842	-0.8749745465	-0.267054
C	 1.1158755887	-1.893759561	 0.3810357623	-0.002825
N	 0.5208710822	-0.8595743146	 1.0734826436	-0.05318
C	 0.7356113615	-0.4785097741	 2.4374681214	 0.028568
C	-0.4146189126	-0.5338185485	 3.406523619	-0.255672
C	 0.6984099858	-1.5450534496	 3.5005720657	-0.282557
H	-1.4290666267	 1.2457094377	-0.1965404238	 0.310587
H	-0.5656356328	-0.6296386276	-1.9912970188	 0.097238
H	 1.7906241994	-2.578325395	 0.871581326	 0.125901
H	 1.4510701755	 0.3288611351	 2.5641219971	 0.113335
H	-0.4776839026	 0.2495716647	 4.1524095141	 0.123366
H	-1.3684027445	-0.8707774927	 3.0194913778	 0.13306
H	 0.4815843468	-2.5582338918	 3.1837205918	 0.132125
H	 1.4126042444	-1.4672760012	 4.3118568202	 0.124322
56.9399	122.8596	170.924	248.6622	292.2881	337.2005	394.6541	506.8509	623.9247	669.3834	677.3506	721.302	769.4066	781.9184	785.4397	834.9439	904.9099	935.1437	966.3571	1065.0655	1082.979	1094.7139	1125.2655	1129.273	1153.3129	1195.9154	1214.974	1253.6983	1276.2332	1303.0369	1358.0658	1407.3622	1463.9537	1495.2129	1503.5074	1550.4157	1613.7281	3141.3902	3146.0877	3151.5534	3229.3052	3241.632	3243.4979	3255.6907	3842.073
OC1=CN=CN1C1CC1	Oc1cncn1C1CC1	
InChI=1S/C6H8N2O/c9-6-3-7-4-8(6)5-1-2-5/h3-5,9H,1-2H2	InChI=1S/C6H8N2O/c9-6-3-7-4-8(6)5-1-2-5/h3-5,9H,1-2H2
