21
gdb 71696	3.42007	1.47267	1.36776	0.1102	85.54	-0.2105	0.0929	0.3034	1064.3737	0.183299	-349.92615	-349.918321	-349.917377	-349.957732	32.343	
C	-0.0898644041	 1.4611339609	 0.0658411404	-0.494427
C	-0.029827021	-0.0419460964	-0.027404638	 0.327433
C	-0.379820912	-0.7732361122	-1.3143789575	-0.285963
C	-0.154038352	-2.1991412553	-0.8560773263	-0.128207
C	-0.4936968534	-2.3444571968	 0.6206331827	-0.144537
C	-0.4081888656	-0.901789606	 1.16919507	-0.117279
C	 1.0402149824	-0.8178813999	 0.7228913815	-0.189005
C	 0.9567763978	-2.2714182589	 0.1782350331	 0.357054
C	 2.0505072548	-3.2932320493	 0.2290759061	-0.515563
H	 0.5923012801	 1.9323642918	-0.6511462201	 0.115923
H	-1.0999150912	 1.8326669525	-0.1421369467	 0.116221
H	 0.1905689311	 1.8074528743	 1.0659779819	 0.115337
H	-1.415898874	-0.588858427	-1.624150062	 0.092491
H	 0.2819952098	-0.4884833879	-2.1416160982	 0.092015
H	-0.3088083315	-3.0454663687	-1.5160053522	 0.077007
H	-1.0463716168	-3.1724742434	 1.0446745458	 0.078457
H	-0.8752113918	-0.5170509673	 2.0661253235	 0.078021
H	 1.8903888996	-0.3628701014	 1.2152452484	 0.075594
H	 2.4441002736	-3.4112858032	 1.2456114337	 0.117146
H	 1.6875480244	-4.2724830606	-0.1008103813	 0.1163
H	 2.8901766899	-3.0148607751	-0.4202628147	 0.11598
186.452	201.8371	218.2222	225.7716	287.6142	327.4205	417.5347	518.3678	561.6614	611.4478	710.0232	747.2917	776.1038	794.6665	838.2585	873.155	875.8335	889.0524	921.3119	954.0168	965.2838	978.8683	1014.3397	1026.7137	1032.3095	1068.9934	1101.0196	1116.8602	1147.9452	1184.1908	1190.7558	1211.3999	1232.6088	1271.335	1288.3257	1329.0458	1385.464	1413.5747	1420.9439	1449.0719	1483.4817	1491.9339	1492.0889	1499.8866	1502.439	3014.8727	3021.395	3025.4104	3062.9633	3070.4813	3081.7496	3091.0364	3094.7637	3177.6272	3185.9422	3194.412	3203.2329
CC12CC3C4C1C2C34C	C[C@]12C[C@@H]3[C@@H]4[C@H]1[C@H]2[C@]34C	
InChI=1S/C9H12/c1-8-3-4-5-6(8)7(8)9(4,5)2/h4-7H,3H2,1-2H3	InChI=1S/C9H12/c1-8-3-4-5-6(8)7(8)9(4,5)2/h4-7H,3H2,1-2H3/t4-,5-,6+,7-,8+,9-/m1/s1
