20
gdb 80903	2.04589	1.72014	1.4701	1.7476	75.62	-0.2382	0.0601	0.2984	1045.8667	0.169612	-440.223953	-440.214952	-440.214008	-440.256671	35.724	
C	-0.0837284041	 1.5425044867	-0.0461061379	-0.48077
C	-0.0026114085	 0.0275817712	-0.0260959317	 0.432778
O	-1.277076406	-0.5335289078	-0.3311597543	-0.49857
C	 1.2631748679	-0.6754274294	-0.6195060303	-0.172746
N	 1.9976316764	-0.1198857813	 0.5851515791	-0.358136
C	 0.7121671347	-0.696462612	 1.162107452	 0.217577
C	 0.3661199047	-0.6432956252	 2.6208420375	-0.529033
C	 0.9277125044	-1.950456032	 0.2282635685	 0.134589
O	-0.0619464382	-2.8708751404	-0.0866764738	-0.446267
H	 0.8772358721	 1.9843536188	 0.2138811794	 0.156438
H	-0.3672949007	 1.8946828231	-1.0469319824	 0.10248
H	-0.848007929	 1.8898596998	 0.656782805	 0.122354
H	-1.6283308654	-0.0790632812	-1.1039424724	 0.286636
H	 1.676117996	-0.5950236038	-1.627081104	 0.071994
H	 2.7727056025	-0.7490878764	 0.816443943	 0.210408
H	 0.3445220553	 0.3885150691	 2.985930701	 0.128356
H	-0.6185630189	-1.0912865882	 2.7878711157	 0.136486
H	 1.0950119455	-1.2022808927	 3.2173220399	 0.123174
H	 1.8231816182	-2.5211522111	 0.5002784796	 0.073272
H	-0.8502603868	-2.3539456774	-0.3070891639	 0.288983
170.9912	185.5507	197.3373	205.2251	235.8187	285.0164	302.8636	378.0736	424.6549	455.5066	457.027	566.412	613.3984	666.4798	669.0972	685.5558	757.8318	821.0827	866.3372	880.1898	945.1253	967.7094	1052.0303	1076.1244	1101.3249	1121.3764	1146.3601	1151.0138	1182.3454	1199.0566	1227.232	1268.4255	1286.1511	1320.0918	1341.7255	1395.031	1397.7077	1416.1049	1482.8578	1484.9906	1487.0782	1493.2124	1504.6154	3021.3904	3033.5583	3047.0173	3086.1656	3097.0963	3101.9185	3109.6477	3161.2922	3387.4476	3720.072	3813.4621
CC1(O)C2NC1(C)C2O	C[C@@]1(O)[C@H]2N[C@]1(C)[C@H]2O	
InChI=1S/C6H11NO2/c1-5-4(8)3(7-5)6(5,2)9/h3-4,7-9H,1-2H3	InChI=1S/C6H11NO2/c1-5-4(8)3(7-5)6(5,2)9/h3-4,7-9H,1-2H3/t3-,4-,5+,6+/m0/s1
