16
gdb 77304	3.40672	0.96319	0.81643	1.7227	67.6	-0.2571	-0.0317	0.2254	1354.4838	0.121957	-475.018984	-475.009793	-475.008849	-475.054396	31.641	
O	 0.2121669027	 1.3794922689	 0.224326158	-0.420965
C	 0.1907839223	-0.017708118	 0.1100742951	-0.011085
C	-1.1957158253	-0.6980438532	 0.2810675932	 0.073828
C	-2.402328189	 0.2137541836	 0.4257069409	-0.284645
C	-3.706374265	-0.5071776465	 0.1441796316	 0.149993
O	-4.6386018785	-0.5405091088	 0.9051193924	-0.23389
O	-1.0738433535	-1.2499390919	-1.0855579951	-0.266852
C	 0.1048690466	-0.5745080747	-1.2985089345	 0.400594
N	 0.8127716477	-0.419609654	-2.3199232293	-0.54734
H	 0.7295581673	 1.7191493808	-0.5152797667	 0.30801
H	 0.9737980885	-0.4859472094	 0.7198714478	 0.112223
H	-1.2151789375	-1.5217177087	 0.9990534286	 0.111339
H	-2.4359954496	 0.6303009304	 1.4362695733	 0.138664
H	-2.2983387266	 1.0450919977	-0.2821921238	 0.135534
H	-3.7490756592	-1.0131045035	-0.844414324	 0.097172
H	 0.4269925892	-0.8952442128	-3.1369711674	 0.23742
53.556	62.6734	87.3109	156.3799	161.7396	250.992	265.3789	406.622	430.494	496.0536	562.9071	671.2872	759.8648	806.9487	846.9729	872.0934	906.0173	930.8861	1022.1182	1028.9187	1074.748	1116.9674	1153.5507	1195.0648	1227.9624	1238.0705	1270.0586	1336.4078	1366.2291	1382.5092	1388.7173	1426.3545	1449.6926	1829.6929	1833.8804	2904.9379	3028.5104	3045.4315	3085.8164	3113.8263	3483.0968	3802.3949
OC1C(CC=O)OC1=N	O[C@H]1[C@@H](CC=O)O[C]1[NH]	
InChI=1S/C5H7NO3/c6-5-4(8)3(9-5)1-2-7/h2-4,6,8H,1H2	InChI=1S/C5H7NO3/c6-5-4(8)3(9-5)1-2-7/h2-4,6,8H,1H2/t3-,4+/m1/s1
