15
gdb 25889	4.38885	1.01503	0.82902	4.0643	70.08	-0.1984	0.0002	0.1986	1291.6057	0.113799	-454.013864	-454.005481	-454.004537	-454.046944	31.578	
N	-0.0372216655	 1.3320929325	-0.0642409098	-0.54381
C	 0.0269091914	-0.0478225314	-0.0005299867	 0.303575
O	 1.0914457899	-0.6358476308	 0.0800417782	-0.365736
C	-1.2704509865	-0.7512196979	 0.0017911336	 0.208678
C	-2.5347372517	-0.2299019875	 0.1775211023	-0.198713
N	-3.4248039875	-1.2768754241	 0.1212232861	-0.301732
C	-2.7403362505	-2.4458387818	-0.0845989131	 0.412575
O	-3.4731987697	-3.5823697777	-0.1725226462	-0.433447
C	-1.401978424	-2.1693792722	-0.1614318707	-0.40705
H	 0.8507763834	 1.7830540376	-0.2259830639	 0.252516
H	-0.8312179508	 1.757005151	-0.5153830177	 0.247448
H	-2.8738191568	 0.771824991	 0.383264206	 0.126563
H	-4.422359344	-1.2217387395	 0.2361986039	 0.269733
H	-2.8703011637	-4.3223014664	-0.2930043797	 0.312148
H	-0.5895213542	-2.8601963627	-0.3161036023	 0.117253
68.4001	149.7991	166.3986	244.2436	314.5577	361.6101	414.8647	423.5881	470.0818	522.7105	533.9757	628.8539	647.03	650.9219	695.7816	730.3059	769.5471	819.3505	970.5224	1004.5699	1085.5091	1128.3363	1134.5154	1166.3499	1266.3168	1304.5989	1390.7858	1430.7441	1518.6531	1564.6033	1617.4685	1639.1765	1775.0982	3267.8058	3268.8358	3578.902	3677.2042	3702.1664	3847.7048
NC(=O)C1=CNC(O)=C1	NC(=O)c1c[nH]c(O)c1	
InChI=1S/C5H6N2O2/c6-5(9)3-1-4(8)7-2-3/h1-2,7-8H,(H2,6,9)	InChI=1S/C5H6N2O2/c6-5(9)3-1-4(8)7-2-3/h1-2,7-8H,(H2,6,9)
