21
gdb 104005	2.47711	1.40002	1.28078	2.5703	78.54	-0.2433	0.0811	0.3244	1145.9546	0.179267	-424.186098	-424.176395	-424.175451	-424.220052	36.515	
C	 0.1066933933	 1.327176498	-0.0427845725	-0.248458
O	-0.058765675	-0.050546314	 0.2104166853	-0.285923
C	-1.3650383046	-0.5534023406	 0.0615293718	 0.363471
C	-2.3423572965	 0.0291101249	 1.0826762555	-0.459436
C	-1.9708865791	-0.5980812417	-1.4020297926	-0.323617
C	-1.9882745112	-2.1233056694	-1.275786109	-0.043574
O	-0.6254622849	-2.5210641476	-1.0923601495	-0.288489
C	-1.3638477932	-2.1022729083	 0.0614350869	 0.392727
C	-1.410699828	-3.0274950175	 1.2342868146	-0.518886
H	 1.181743037	 1.5227597606	-0.0286866674	 0.129185
H	-0.2882474024	 1.6150511424	-1.0281748942	 0.106696
H	-0.3710672706	 1.9599550438	 0.7189765912	 0.104929
H	-2.5298782021	 1.0907683045	 0.8965370592	 0.120524
H	-3.3061895107	-0.487052155	 1.0354792576	 0.119052
H	-1.9414878469	-0.0768512889	 2.0956802199	 0.124631
H	-2.9546954772	-0.1284082994	-1.4754264539	 0.099566
H	-1.3182569049	-0.2322572784	-2.1972852626	 0.112413
H	-2.6654350894	-2.84339092	-1.7215737638	 0.099289
H	-0.4627353846	-2.9975007618	 1.7824007091	 0.139802
H	-2.2112539248	-2.7532779436	 1.9280171078	 0.123079
H	-1.5763517143	-4.053949298	 0.8967411965	 0.13302
98.5349	136.5392	162.2209	189.5693	195.5057	240.9899	270.6417	306.1663	360.2216	372.5174	446.7499	488.0546	550.4688	630.6	678.983	784.9118	860.1883	881.5232	891.3883	918.8078	956.9251	981.2127	1043.4031	1083.8943	1108.4952	1116.7306	1144.0011	1178.6926	1180.0195	1204.7826	1213.8939	1246.4355	1264.1784	1305.694	1399.7905	1402.2947	1449.1462	1469.868	1475.4585	1484.2471	1486.6596	1491.1824	1495.1177	1505.4911	1510.0876	2985.6744	3032.348	3037.6894	3039.7003	3066.9996	3102.5492	3107.714	3110.6586	3112.4146	3122.3125	3127.7383	3180.8153
COC1(C)CC2OC12C	CO[C@@]1(C)C[C@H]2O[C@@]12C	
InChI=1S/C7H12O2/c1-6(8-3)4-5-7(6,2)9-5/h5H,4H2,1-3H3	InChI=1S/C7H12O2/c1-6(8-3)4-5-7(6,2)9-5/h5H,4H2,1-3H3/t5-,6+,7-/m1/s1
