19
gdb 105449	2.69375	1.31657	1.15296	2.8777	76.46	-0.2526	-0.0326	0.2201	1137.2792	0.159119	-423.045958	-423.037372	-423.036428	-423.079254	32.553	
O	 0.1623511362	 1.1928743007	-0.4011136307	-0.428244
C	-0.0433720999	-0.1861357296	-0.1844817484	-0.113644
C	-1.5121245597	-0.5392629283	 0.1262176969	 0.196155
C	-2.4451252427	-0.1008825687	-1.0533599754	-0.311764
C	-2.69015046	-1.3840296262	-1.807050985	-0.057592
C	-2.2840653437	-2.4539364468	-1.1295764654	-0.058108
C	-1.6884546947	-2.087292739	 0.2090262638	-0.328839
C	-1.9605484508	 0.1384223462	 1.3997973628	 0.119235
O	-1.3299335239	 0.9718152541	 2.0082484616	-0.277426
H	-0.0269255625	 1.6178158841	 0.4456425259	 0.295334
H	 0.2563749772	-0.7013254258	-1.1033876154	 0.111848
H	 0.590911867	-0.5640117126	 0.6320686271	 0.09479
H	-3.394446863	 0.3262968593	-0.6971508969	 0.106239
H	-1.9555789583	 0.6842394384	-1.6374864166	 0.140433
H	-3.1698419442	-1.3990685033	-2.779318958	 0.10042
H	-2.3775802404	-3.48306137	-1.4573753206	 0.099722
H	-0.7300161648	-2.5828016518	 0.4076465359	 0.114519
H	-2.357120227	-2.3836569635	 1.0305503531	 0.10869
H	-2.9673841349	-0.1755793374	 1.760188415	 0.088232
89.8179	97.503	167.5449	219.3645	272.5713	330.3173	363.2118	384.8989	438.8678	477.0828	575.9465	687.9976	739.0235	772.8525	821.6165	901.4596	919.1168	938.9443	956.8175	973.3385	979.8277	1014.1386	1080.058	1089.9142	1121.1776	1130.8778	1131.9377	1185.9716	1240.1591	1296.4115	1310.9616	1342.122	1355.0946	1386.4558	1425.9728	1438.8268	1483.4307	1491.7787	1497.9091	1693.2027	1803.2155	2867.4474	2986.9912	2996.6766	3000.8254	3044.2533	3072.2925	3082.5804	3186.3934	3211.5628	3768.3189
OCC1(CC=CC1)C=O	OC[C@]1(CC=CC1)C=O	
InChI=1S/C7H10O2/c8-5-7(6-9)3-1-2-4-7/h1-2,5,9H,3-4,6H2	InChI=1S/C7H10O2/c8-5-7(6-9)3-1-2-4-7/h1-2,5,9H,3-4,6H2
