20
gdb 63536	2.99751	1.3265	1.18648	0.9784	79.31	-0.2357	0.0764	0.312	1140.5588	0.169329	-403.086463	-403.077692	-403.076748	-403.119486	33.977	
C	-0.0982132649	 1.5190440083	-0.0019686005	-0.437154
C	-0.0639298361	 0.0061685084	 0.0643229497	 0.253003
C	-1.2375720733	-0.6905120013	-0.5925791925	-0.460013
N	 1.2950045823	-0.5772559128	-0.1096167081	-0.429856
C	 0.6276831966	-0.6591773197	 1.1914080117	 0.323351
C	 1.2882859503	-0.1150064373	 2.4863099257	-0.336519
C	 0.8914962647	-1.4419186091	 3.1584785187	 0.032032
O	-0.5317434837	-1.5647373218	 3.0558974506	-0.242541
C	 0.2670104713	-1.9450345201	 1.9235907369	-0.08823
H	 0.7985682874	 1.9492718508	 0.4489901818	 0.127643
H	-0.1473732085	 1.8582798478	-1.0429648633	 0.116401
H	-0.9762691881	 1.9113177467	 0.522817659	 0.117392
H	-1.2765557087	-0.4570259838	-1.6631693948	 0.120178
H	-1.1757768437	-1.7775132069	-0.4843699417	 0.110165
H	-2.1840611461	-0.3648620262	-0.1477192404	 0.13039
H	 1.2321367663	-1.4734575686	-0.591128862	 0.222104
H	 2.36651194	 0.0061848628	 2.3572872989	 0.12003
H	 0.8572641087	 0.7807657682	 2.9394863788	 0.111684
H	 1.3812272311	-1.9746314096	 3.9648569109	 0.106961
H	 0.1492948346	-2.953502546	 1.5416699206	 0.102981
106.5257	159.5181	168.8021	189.9054	216.0085	312.7903	366.792	404.6556	439.168	466.2727	503.4227	593.0422	719.4891	782.0611	844.6631	847.0678	862.6392	932.1668	952.0625	960.2818	970.8811	987.128	1014.5491	1034.6168	1058.5825	1076.8512	1138.1738	1152.152	1167.2223	1223.4587	1238.3505	1241.4937	1268.441	1316.1777	1376.4148	1410.3619	1421.1368	1453.1595	1470.7987	1476.51	1487.5823	1497.67	1518.3314	3025.714	3032.2894	3066.2084	3087.9394	3092.7851	3105.4678	3126.5547	3127.5459	3172.6368	3194.3014	3468.1954
CC1(C)NC11CC2OC12	CC1(C)N[C@]21C[C@H]1O[C@@H]21	
InChI=1S/C7H11NO/c1-6(2)7(8-6)3-4-5(7)9-4/h4-5,8H,3H2,1-2H3	InChI=1S/C7H11NO/c1-6(2)7(8-6)3-4-5(7)9-4/h4-5,8H,3H2,1-2H3/t4-,5-,7-/m1/s1
