17
gdb 34848	2.64786	1.64799	1.50756	3.1597	76.06	-0.2464	-0.003	0.2434	952.8092	0.139254	-380.860889	-380.853866	-380.852921	-380.892214	28.099	
N	-0.1566173617	-1.2133859137	-0.2392391842	-0.33762
C	-0.0763532803	-0.0645811629	-0.1325257281	 0.281535
C	 0.0073723395	 1.3788674058	 0.0154715917	-0.159062
C	-0.1363638337	 2.0663212544	 1.415748805	-0.031987
C	 0.5916304125	 1.28155092	 2.5146669214	-0.247018
C	 1.9871529509	 0.9294372557	 2.0494051612	-0.047557
C	 2.3836432965	 1.3271136492	 0.8420324031	-0.033769
C	 1.3890723626	 2.1250085706	 0.0284575199	-0.073068
N	 0.7858724289	 3.1613211716	 0.9489654659	-0.311263
H	-0.6744004241	 1.8544609493	-0.6954699225	 0.120163
H	-1.1356433356	 2.3831611304	 1.7205565892	 0.084004
H	 0.6329735604	 1.8966673761	 3.4222181058	 0.123933
H	 0.0307275222	 0.3737887007	 2.7718508142	 0.126922
H	 2.6265698959	 0.3524879239	 2.7098455326	 0.102583
H	 3.3590259856	 1.0966142939	 0.4299321949	 0.100975
H	 1.7814605029	 2.4968160902	-0.9180824324	 0.082338
H	 0.2329944675	 3.7974797347	 0.3737827823	 0.218891
127.2189	142.6714	288.1276	340.8458	413.2221	466.8392	500.2324	547.4019	613.2402	658.603	738.0309	819.2846	839.9368	877.2947	889.4958	910.9748	953.0539	968.7667	993.0296	1018.538	1029.6862	1087.1306	1097.1825	1116.4863	1151.0007	1201.8109	1220.8739	1250.4631	1296.9256	1325.8643	1347.9476	1380.5428	1388.5148	1418.7035	1462.9145	1703.8426	2348.892	3025.4313	3058.4722	3070.5448	3093.7636	3112.8903	3176.5524	3204.2472	3448.0595
N#CC1C2CC=CC1N2	N#C[C@H]1[C@H]2CC=C[C@@H]1N2	
InChI=1S/C7H8N2/c8-4-5-6-2-1-3-7(5)9-6/h1-2,5-7,9H,3H2	InChI=1S/C7H8N2/c8-4-5-6-2-1-3-7(5)9-6/h1-2,5-7,9H,3H2/t5-,6+,7-/m1/s1
