22
gdb 109792	2.90975	0.99049	0.86336	1.4147	83.73	-0.2149	0.0726	0.2875	1438.6847	0.193193	-404.288704	-404.278686	-404.277742	-404.324138	36.759	
C	-0.5243742421	 0.589026711	-1.8654491667	-0.308897
N	 0.0663748981	-0.3303995421	-0.9014434079	-0.107672
C	 1.5208327987	-0.4556028318	-0.7979701464	-0.060281
C	 2.4828151773	 0.3211638951	-1.6686876782	-0.079213
O	 2.4919470777	-0.1467371508	-3.0131040134	-0.419263
C	 0.7223374387	 0.1675886437	 0.3085743298	-0.02451
C	 0.8073377262	 1.6163546682	 0.6791295707	 0.014208
C	-0.1352179607	 2.1580278612	 1.7304988816	-0.27176
C	 1.3258689735	 1.9854958121	 2.050214724	-0.274649
H	-0.0459729127	 1.5748226814	-1.9424299843	 0.099036
H	-0.4868077012	 0.1253691777	-2.8547280944	 0.13217
H	-1.5729449695	 0.7484288141	-1.5949026828	 0.118958
H	 1.8440080877	-1.4906981919	-0.6546173964	 0.075747
H	 2.2202772949	 1.3786432355	-1.734042818	 0.107351
H	 3.4883938005	 0.2667283553	-1.2211921591	 0.092125
H	 2.6646869011	-1.0939683532	-2.9922391721	 0.281682
H	 0.5249823323	-0.4616509529	 1.1790723713	 0.080507
H	 1.0634256187	 2.3069905127	-0.1153480901	 0.085805
H	-0.523099632	 3.1623307426	 1.6025597841	 0.113633
H	-0.8372310232	 1.4631542157	 2.179589316	 0.117073
H	 1.6068995837	 1.1764944084	 2.7166564453	 0.114365
H	 1.9459819226	 2.8700919979	 2.141148387	 0.113587
57.0756	82.6939	122.2758	133.0046	182.5615	251.0198	270.4054	303.3546	310.051	346.6695	500.4736	550.5762	576.4818	735.9064	770.6554	809.2583	830.5254	846.1275	925.1167	932.0037	1002.5237	1015.5125	1057.3252	1062.0861	1080.437	1092.8982	1116.7435	1130.0526	1146.8654	1158.3626	1170.2311	1199.7243	1215.4167	1226.4432	1238.0244	1318.2925	1349.446	1358.8612	1403.7024	1429.6879	1451.1395	1470.3731	1471.5294	1487.1413	1498.0994	1507.2244	1515.3756	2976.1177	3005.0696	3052.2226	3073.168	3075.5504	3109.2762	3114.563	3131.1407	3135.3603	3176.3538	3209.8817	3225.443	3808.0764
CN1C(CO)C1C1CC1	CN1[C@@H](CO)[C@H]1C1CC1	
InChI=1S/C7H13NO/c1-8-6(4-9)7(8)5-2-3-5/h5-7,9H,2-4H2,1H3	InChI=1S/C7H13NO/c1-8-6(4-9)7(8)5-2-3-5/h5-7,9H,2-4H2,1H3/t6-,7+,8?/m0/s1
