19
gdb 94013	2.96988	1.19999	1.07209	2.7736	78.28	-0.2359	-0.0277	0.2081	1208.8615	0.158701	-423.039021	-423.030406	-423.029462	-423.072451	32.305	
C	-0.171658267	 1.5543808093	 0.0153869129	-0.4028
C	-0.0151843892	 0.0274854028	 0.026125364	-0.039407
C	 0.6584750092	-0.4704977472	-1.2571682839	-0.093751
O	 0.9788698894	-1.8566945492	-1.1766308664	-0.249323
C	 1.9100057626	-2.1673849455	-0.175795733	-0.025903
C	 3.3608193163	-1.9517713985	-0.6260366473	 0.157016
O	 3.687694985	-1.4107444499	-1.6470476646	-0.237169
C	 1.6769758268	-1.4316545897	 1.1245309151	-0.114993
C	 0.7851674707	-0.4476615083	 1.2132248833	-0.051865
H	 0.8039216731	 2.0497064491	-0.036177227	 0.12442
H	-0.7633818724	 1.8825336874	-0.8453497593	 0.119097
H	-0.6772841948	 1.9030933359	 0.9215044557	 0.117463
H	-1.0187747747	-0.419256109	 0.0850133509	 0.093444
H	-0.0086629547	-0.372760565	-2.1177826298	 0.109286
H	 1.5639217059	 0.1166233936	-1.4595208423	 0.11301
H	 1.8133897661	-3.2498983405	 0.0092248813	 0.112272
H	 4.1146174464	-2.3451530653	 0.0970218444	 0.074477
H	 2.2652460442	-1.7471651548	 1.981379249	 0.101543
H	 0.6140503574	 0.048005305	 2.1664765669	 0.093182
69.5966	115.6922	189.4133	222.0002	256.5282	295.0042	319.2064	364.3369	480.1006	508.5452	533.6353	709.6248	751.9165	772.1519	786.1447	861.9622	932.9579	946.2995	979.4865	995.9657	1010.1498	1043.0069	1096.4533	1113.9153	1141.2273	1185.4576	1230.4618	1254.0175	1287.046	1312.9214	1341.1993	1359.1917	1386.5565	1401.578	1413.9619	1430.4641	1496.9873	1500.9375	1506.231	1713.2137	1842.9762	2847.342	2980.4255	2994.7653	3025.8331	3032.6557	3095.3985	3103.2112	3103.9827	3144.4575	3174.9762
CC1COC(C=O)C=C1	C[C@H]1CO[C@@H](C=O)C=C1	
InChI=1S/C7H10O2/c1-6-2-3-7(4-8)9-5-6/h2-4,6-7H,5H2,1H3	InChI=1S/C7H10O2/c1-6-2-3-7(4-8)9-5-6/h2-4,6-7H,5H2,1H3/t6-,7-/m1/s1
