14
gdb 28244	5.04915	1.29948	1.04986	3.0873	65.27	-0.1695	0.0246	0.1941	1060.4773	0.103766	-469.993473	-469.986353	-469.985409	-470.024802	27.274	
N	 0.0487370813	 1.3041547786	-0.2973189009	-0.581083
C	-0.0282601791	-0.0608382221	-0.0647421117	 0.361081
N	-1.0935938618	-0.8099504146	-0.2938332329	-0.390164
C	-0.5851449906	-2.0727546726	-0.1915620962	 0.295836
C	 0.7366139384	-2.1081251581	 0.0753689841	 0.19941
N	 1.1104248926	-0.7851288578	 0.2749455582	-0.391299
O	 1.0904651184	-3.300706854	 0.683820705	-0.272762
C	-0.0164165818	-4.1205395619	 0.2529549955	 0.00932
O	-1.1725272492	-3.2800501437	 0.0826919907	-0.261768
H	-0.8644116207	 1.6677241838	-0.5383755313	 0.268058
H	 0.4505026562	 1.8307335077	 0.469588399	 0.25424
H	 2.0370680233	-0.4109672023	 0.1426803148	 0.268729
H	 0.2385140596	-4.5643768015	-0.7221788048	 0.105614
H	-0.2222410467	-4.8789127015	 1.0083475904	 0.134787
141.9906	243.6537	253.9915	301.6837	307.5979	339.7886	478.9324	546.5129	590.3663	621.6288	684.4286	744.9024	760.6789	766.404	879.3083	898.7262	996.9989	1052.4266	1129.6432	1132.1525	1139.5654	1247.5213	1267.9313	1380.7548	1415.5489	1447.7684	1473.4575	1515.6793	1576.4631	1648.31	1653.5825	2978.7614	3135.2815	3528.2434	3631.5819	3635.9394
NC1=NC2=C(N1)OCO2	Nc1nc2c([nH]1)OCO2	
InChI=1S/C4H5N3O2/c5-4-6-2-3(7-4)9-1-8-2/h1H2,(H3,5,6,7)	InChI=1S/C4H5N3O2/c5-4-6-2-3(7-4)9-1-8-2/h1H2,(H3,5,6,7)
