20
gdb 65043	2.16139	1.70234	1.12954	4.07	83.04	-0.2621	0.0348	0.2969	1140.6937	0.170473	-366.005084	-365.996053	-365.995109	-366.039102	34.767	
C	 0.0357403528	 1.520988065	 0.0099412798	-0.48675
C	 0.010298818	 0.0028266095	 0.0020790023	 0.275102
C	 1.1143611938	-0.691294786	-0.7651928805	-0.305238
C	 1.1262872333	-0.6990825184	 0.7446012225	-0.305283
C	-1.3665045083	-0.6500661325	 0.009379274	 0.146636
C	-2.5383155734	-0.0342783056	 0.7696552553	-0.294613
C	-2.5490346917	-0.02819263	-0.7290221309	-0.294615
C	-1.3536685198	-2.0943597465	 0.0032347449	 0.226154
N	-1.3425674793	-3.2516673208	-0.0010790827	-0.366528
H	 1.0718260311	 1.8697957559	 0.0027670053	 0.124955
H	-0.4539916975	 1.9492271256	-0.8707780195	 0.123089
H	-0.4385158455	 1.9396526847	 0.9036374531	 0.123132
H	 0.8859392799	-1.6251154337	-1.2662345915	 0.136539
H	 1.8310111911	-0.0667979539	-1.2875418438	 0.110434
H	 1.8511104759	-0.079869501	 1.2619412537	 0.110422
H	 0.9058186953	-1.6380355153	 1.2395643326	 0.136615
H	-3.2051387005	-0.7124262488	 1.2882307732	 0.139997
H	-2.3510657176	 0.8978651022	 1.287702112	 0.129978
H	-2.3691119496	 0.9081061583	-1.242156624	 0.129975
H	-3.2232226781	-0.7021651288	-1.2435015057	 0.14
29.0917	153.8119	195.701	223.492	269.6185	273.1886	347.0016	363.732	374.9519	467.5539	552.4672	584.4151	603.1229	770.2248	790.7261	810.964	867.0323	872.4553	914.8013	940.4529	955.1608	981.8381	983.3239	1045.0377	1066.9583	1076.8324	1089.9451	1091.6274	1122.3425	1192.0995	1195.0696	1205.2165	1266.0845	1340.8363	1352.2318	1422.4997	1460.3089	1469.2418	1490.7837	1503.3033	1503.8691	1508.4149	2345.1679	3036.0029	3097.1923	3110.8322	3135.6693	3138.5962	3152.3917	3154.9844	3217.0869	3229.383	3235.1407	3248.675
CC1(CC1)C1(CC1)C#N	CC1(CC1)C1(CC1)C#N	
InChI=1S/C8H11N/c1-7(2-3-7)8(6-9)4-5-8/h2-5H2,1H3	InChI=1S/C8H11N/c1-7(2-3-7)8(6-9)4-5-8/h2-5H2,1H3
