17
gdb 98577	4.12672	0.93094	0.77055	2.4811	73.51	-0.2457	-0.0555	0.1902	1415.0682	0.134273	-458.964836	-458.955769	-458.954824	-458.999666	31.538	
O	 0.0064272068	 1.4019611263	 0.0340700176	-0.393502
C	-0.0239826592	 0.0030550069	-0.0089683545	-0.184091
C	-1.4682828375	-0.4843706482	 0.0213229045	 0.285642
O	-2.406380149	 0.2775928644	 0.0747014255	-0.294005
C	-1.6468780446	-1.9602556317	-0.0204227332	 0.195824
C	-2.8328001156	-2.5736941662	-0.0033530374	-0.168456
C	-2.6478943481	-4.0557227824	-0.0565063974	-0.108886
O	-1.2386380959	-4.2596239546	-0.1066566159	-0.268007
C	-0.557582958	-3.0087669251	-0.0877182549	-0.172941
H	 0.9261322001	 1.6821559004	 0.0160234723	 0.293976
H	 0.4456861935	-0.4086336178	-0.9210841556	 0.110472
H	 0.5013385442	-0.4641728857	 0.844103813	 0.110453
H	-3.7913346173	-2.0736984398	 0.0423400463	 0.137504
H	-3.0726730886	-4.5600150966	 0.8264165848	 0.117781
H	-3.1274094847	-4.5034340292	-0.9418979932	 0.117779
H	 0.0664057324	-2.9144781766	-0.9905780411	 0.110233
H	 0.1211865316	-2.9710947941	 0.7790388092	 0.110224
57.7935	95.3951	99.4728	146.9521	190.7156	242.1219	289.4295	361.1393	407.6388	462.8735	580.8299	737.5036	779.125	850.2776	865.5165	919.7527	964.0062	1008.1473	1019.3746	1031.1403	1065.6917	1107.7643	1142.5644	1177.0269	1206.3506	1228.1032	1258.5932	1259.3498	1280.4908	1364.8158	1395.1441	1444.2237	1494.9299	1509.4998	1527.9761	1683.0888	1796.0408	2938.806	2958.1683	2968.9501	2976.3711	2986.8469	2989.5693	3233.991	3835.4456
OCC(=O)C1=CCOC1	OCC(=O)C1=CCOC1	
InChI=1S/C6H8O3/c7-3-6(8)5-1-2-9-4-5/h1,7H,2-4H2	InChI=1S/C6H8O3/c7-3-6(8)5-1-2-9-4-5/h1,7H,2-4H2
