13
gdb 20701	5.94337	1.6119	1.27802	1.1486	63.46	-0.2386	-0.0699	0.1687	894.113	0.096249	-394.807198	-394.800424	-394.79948	-394.838331	24.826	
C	-0.0535991198	 1.4700643212	 0.043016375	-0.453429
C	 0.0017060046	-0.0285098007	 0.0024845779	 0.383297
N	 0.0333911624	-0.6221717212	-1.212246774	-0.256529
C	 0.0816816787	-1.9353335414	-1.2189501598	-0.064847
C	 0.0976338612	-2.6386268035	-0.0015906408	 0.428367
O	 0.1466227586	-3.9794127137	-0.0000582882	-0.406935
N	 0.0650042758	-2.0076826764	 1.1579218496	-0.279697
N	 0.0159688871	-0.6749590103	 1.1658830933	-0.227882
H	 0.8159323325	 1.8970923861	-0.4664947454	 0.14272
H	-0.9427638821	 1.832614021	-0.482301742	 0.142713
H	-0.0755216163	 1.8164173693	 1.0763734471	 0.145153
H	 0.1085771597	-2.4596292233	-2.1710057992	 0.138857
H	 0.1491294476	-4.254492417	 0.9293522465	 0.308211
95.8101	122.2998	313.1836	349.5587	423.7457	432.5556	500.5122	525.5811	590.636	662.0555	781.7006	802.6261	878.0768	959.0712	1004.8561	1064.3167	1069.1382	1158.2218	1209.3311	1300.0292	1327.2488	1403.4287	1418.1941	1461.9558	1479.3173	1492.4014	1582.5112	1624.757	3048.4329	3105.312	3157.694	3164.1912	3739.6807
CC1=NC=C(O)N=N1	Cc1ncc(O)nn1	
InChI=1S/C4H5N3O/c1-3-5-2-4(8)7-6-3/h2H,1H3,(H,7,8)	InChI=1S/C4H5N3O/c1-3-5-2-4(8)7-6-3/h2H,1H3,(H,7,8)
