16
gdb 29624	2.40959	1.97116	1.09153	1.4413	75.85	-0.2087	-0.0213	0.1874	1046.5954	0.127163	-434.125264	-434.117494	-434.11655	-434.157651	29.503	
C	-0.0309987251	 1.4543829433	 0.0084246908	-0.336881
N	 0.0167491229	-0.0091192285	 0.0005833367	-0.167522
C	-1.2296479256	-0.6941573625	 0.0042481221	 0.364395
N	-2.2878176414	 0.0329028552	 0.0144806977	-0.575223
C	-1.0952112392	-2.1342456036	-0.004329172	-0.194653
C	 0.131602645	-2.7057737586	-0.014152336	-0.004486
N	 1.3053800783	-1.9980212764	-0.0167402851	-0.418031
C	 1.1794834987	-0.7039328549	-0.009238735	 0.529116
O	 2.291529946	 0.0474933615	-0.0112082644	-0.401954
H	 0.9807736239	 1.8483148085	 0.0012982288	 0.154219
H	-0.5881932656	 1.7998280463	-0.8648748578	 0.155677
H	-0.5722646666	 1.7914211922	 0.8949933383	 0.155441
H	-3.1133803821	-0.5631168116	 0.0159709303	 0.213331
H	-1.9992080478	-2.7302821805	-0.0024744121	 0.098658
H	 0.2454274665	-3.7859132974	-0.0205657404	 0.113965
H	 3.0206722921	-0.5890125029	-0.0186502318	 0.313949
84.7554	136.2745	197.6431	245.5366	370.8351	388.9885	459.7594	515.5404	547.9493	554.1421	571.2318	708.401	713.421	776.2197	786.0645	846.3661	848.2974	986.7167	995.7231	1062.4452	1113.6838	1157.3828	1181.5191	1198.7046	1290.2798	1329.1393	1346.7701	1435.4841	1451.4529	1476.4557	1491.4254	1538.3272	1595.7541	1642.1682	1709.1916	3071.7257	3130.7552	3172.0673	3204.1142	3211.0026	3503.5896	3770.5916
CN1C(=N)C=CN=C1O	CN1C(=CCN=C1O)[NH]	
InChI=1S/C5H7N3O/c1-8-4(6)2-3-7-5(8)9/h2-3,6H,1H3,(H,7,9)	InChI=1S/C5H8N3O/c1-8-4(6)2-3-7-5(8)9/h2,6H,3H2,1H3,(H,7,9)
