17
gdb 68256	2.39369	1.53804	1.4521	2.965	73.25	-0.2657	0.0053	0.271	1007.232	0.135454	-417.940853	-417.932487	-417.931543	-417.973499	31.991	
C	-0.1154190109	 1.5363186647	-0.0262840239	-0.481879
C	 0.0633902539	 0.0210621227	 0.0355477034	 0.136369
C	-1.214929014	-0.6001398767	-0.3228377834	 0.233087
N	-2.2540548492	-1.0479228185	-0.5624515567	-0.344393
N	 1.2830163531	-0.6002893994	-0.7025194305	-0.160261
C	 2.1282102383	-0.1143274331	 0.495258158	-0.219257
C	 0.8861181901	-0.6984318421	 1.1771972019	 0.328236
O	 0.6562870106	-0.7064671972	 2.5320557455	-0.452539
C	 1.0500607104	-1.8560729336	 0.1585140225	-0.260316
H	-0.2756269122	 1.8474600684	-1.0625090073	 0.152761
H	-0.9977607065	 1.8227246954	 0.5521888317	 0.147697
H	 0.737819	 2.0837176743	 0.3723352915	 0.13512
H	 3.0578134079	-0.6751661119	 0.6018124156	 0.118464
H	 2.3151230459	 0.9566499825	 0.5215171129	 0.116435
H	-0.1409023967	-1.2181795756	 2.7144221566	 0.295941
H	 0.1757375632	-2.438564736	-0.1339528502	 0.140047
H	 1.9421022162	-2.4776690738	 0.2472886324	 0.114488
118.1481	127.7409	180.1894	204.327	297.6148	352.1556	374.7929	391.9348	520.017	524.6412	570.5406	628.9621	663.6199	693.9039	754.2984	810.4887	894.8339	923.1206	972.6317	986.0949	1037.1336	1064.3562	1095.9969	1135.4829	1163.8153	1189.8963	1190.4462	1224.1284	1249.19	1291.2328	1372.8839	1414.3721	1484.7167	1488.2473	1524.4734	1563.4527	2343.3293	3058.2978	3082.1121	3096.6538	3123.4851	3150.8496	3154.4575	3171.877	3796.4171
CC1(C#N)N2CC1(O)C2	C[C@@]1(C#N)N2C[C@]1(O)C2	
InChI=1S/C6H8N2O/c1-5(2-7)6(9)3-8(5)4-6/h9H,3-4H2,1H3	InChI=1S/C6H8N2O/c1-5(2-7)6(9)3-8(5)4-6/h9H,3-4H2,1H3/t5-/m0/s1
