20
gdb 107113	3.49629	1.13741	1.09601	2.5248	79.39	-0.1963	0.0619	0.2582	1215.3774	0.169957	-403.061163	-403.05228	-403.051335	-403.094357	34.358	
C	-0.0032196959	 1.518531314	-0.0165700436	-0.492889
C	 0.0315749816	 0.0189823985	-0.0029627962	 0.355417
C	-0.8795972755	-0.8560233542	 0.8144153289	-0.338577
C	 0.6120769283	-0.9358233755	 1.0376191347	-0.18488
C	 1.3365323156	-1.7082679276	-0.1055988262	 0.373999
C	 2.6985497537	-2.3149656451	 0.0030211066	-0.216629
O	 3.1548240371	-2.606548056	-1.3116674225	-0.421669
N	 0.3266480223	-2.229383519	-1.0558980018	-0.392775
C	 0.7615611132	-0.8034534713	-1.114982977	-0.17028
H	 0.9804308064	 1.9414332127	-0.2550026343	 0.113551
H	-0.7136105192	 1.8956360706	-0.7631133227	 0.119253
H	-0.3071619909	 1.9129296579	 0.9585313724	 0.11636
H	-1.4160179842	-0.3292783245	 1.5986788183	 0.099956
H	-1.4098752324	-1.6858067221	 0.3649108891	 0.139041
H	 1.0815521344	-0.694977093	 1.9838254426	 0.079579
H	 3.3743670619	-1.6103587702	 0.5147851116	 0.096158
H	 2.6511025471	-3.2287265793	 0.6188162509	 0.097415
H	 3.9504534671	-3.1414271971	-1.2449846563	 0.294586
H	 0.8666440786	-2.7108675875	-1.7764562	 0.237225
H	 1.2031110206	-0.3911632914	-2.0133061543	 0.09516
91.3636	156.8439	182.2254	211.8369	218.484	285.7595	315.8791	359.3517	435.0991	479.8868	545.5956	613.9912	664.0451	786.2828	792.9449	851.9551	885.2826	905.8362	929.525	952.886	970.057	988.271	1024.9693	1037.8138	1086.2401	1098.0988	1099.2062	1110.097	1141.2572	1198.7849	1222.7015	1227.1484	1254.5204	1288.81	1345.4169	1372.0383	1420.2657	1431.012	1470.4138	1482.2126	1485.3446	1501.0668	1518.1344	2957.637	2983.2983	3014.1626	3068.1475	3093.8866	3131.244	3181.4262	3196.6952	3227.5033	3466.086	3843.4922
CC12CC1C1(CO)NC21	C[C@]12C[C@H]1[C@@]1(CO)N[C@@H]21	
InChI=1S/C7H11NO/c1-6-2-4(6)7(3-9)5(6)8-7/h4-5,8-9H,2-3H2,1H3	InChI=1S/C7H11NO/c1-6-2-4(6)7(3-9)5(6)8-7/h4-5,8-9H,2-3H2,1H3/t4-,5+,6+,7-/m1/s1
