16
gdb 43684	3.36342	1.18741	0.90003	4.9561	79.81	-0.2224	-0.0329	0.1895	1225.9807	0.124784	-400.747804	-400.739715	-400.738771	-400.780487	30.916	
O	-0.0245817186	-0.0945701791	 0.1020494645	-0.350748
C	-0.0034129588	 1.1217773035	 0.0496976624	 0.347525
C	-1.3105771712	 1.9284187362	-0.0196044037	-0.30603
C	-1.1620666892	 3.3209640564	 0.6203282309	-0.166122
N	-0.0009732593	 3.9924967269	 0.0257463491	-0.291142
C	 1.1519188673	 3.2747724311	-0.0940396578	 0.026752
C	 1.2105601322	 1.9203367725	-0.039350565	-0.22324
C	-2.3587891366	 4.1428012134	 0.4765006623	 0.291162
C	-3.3467184651	 4.8169883047	 0.3656848263	-0.407649
H	-1.580838429	 2.0449202138	-1.0764771178	 0.136102
H	-2.1075233813	 1.3671144037	 0.4703898574	 0.136237
H	-0.9682980735	 3.1692763759	 1.6971556474	 0.117508
H	 0.0753595023	 4.9813958259	 0.2025214371	 0.256266
H	 2.0444701819	 3.8720297908	-0.2571222038	 0.12575
H	 2.1584571972	 1.4073283886	-0.1351049069	 0.102942
H	-4.2243588982	 5.4076167456	 0.2675909574	 0.204689
102.7717	135.3491	137.8362	265.4649	357.7739	420.5446	427.8993	441.8644	530.5608	546.6999	549.8169	630.1366	646.4162	677.5599	743.8259	801.8984	841.159	944.552	972.0143	1001.2708	1050.9466	1080.7064	1096.781	1183.9741	1241.73	1263.1739	1271.8218	1342.0756	1366.2307	1422.0121	1455.4473	1509.3787	1656.3533	1764.7326	2244.4445	2941.3884	3044.5402	3129.4883	3175.8503	3222.2591	3500.4306	3634.8497
O=C1CC(NC=C1)C#C	O=C1C[C@@H](NC=C1)C#C	
InChI=1S/C7H7NO/c1-2-6-5-7(9)3-4-8-6/h1,3-4,6,8H,5H2	InChI=1S/C7H7NO/c1-2-6-5-7(9)3-4-8-6/h1,3-4,6,8H,5H2/t6-/m0/s1
