18
gdb 48447	2.65197	1.41779	1.16236	0.5716	72.6	-0.2285	-0.0367	0.1918	1105.8183	0.146443	-439.024094	-439.015586	-439.014642	-439.057693	31.125	
O	-0.9050154404	 0.8592337117	-0.4046919098	-0.274265
C	 0.0752841522	 0.953912792	 0.289899633	 0.133735
C	 1.2387084374	 1.9089144431	 0.0926480538	 0.165821
C	 1.6216232713	 2.5440573917	 1.4649277831	-0.10594
O	 2.6707533272	 1.5817563131	 1.6722197578	-0.266734
C	 2.5784618464	 1.1391686711	 0.306471175	-0.105942
N	 1.2555138923	 2.832621361	-1.0136690505	-0.142159
C	 0.73514077	 2.4762242911	-2.334237623	-0.235111
C	 0.0420090947	 3.4941177719	-1.4948541655	-0.23511
H	 0.2067008204	 0.3037357113	 1.1869002737	 0.099775
H	 2.0011740352	 3.5639842355	 1.3331495315	 0.119001
H	 0.8760849581	 2.5203623518	 2.2675420821	 0.110211
H	 2.5610186715	 0.0464427823	 0.2275778207	 0.110208
H	 3.3727713151	 1.5501235225	-0.327455491	 0.118998
H	 1.364042051	 2.7862848094	-3.1644788914	 0.115597
H	 0.2266718586	 1.5266765603	-2.4596097045	 0.138158
H	-0.9154193369	 3.203884521	-1.0765288664	 0.138159
H	 0.160869496	 4.5531903293	-1.7074382387	 0.115596
80.8266	100.0444	111.5389	222.7909	239.4002	322.6255	342.8024	370.0424	462.3784	494.1823	690.9137	793.4063	833.6887	880.3383	897.5338	917.0139	940.1118	988.849	1008.0851	1036.2778	1049.4842	1110.7876	1112.8296	1136.496	1149.0038	1158.7216	1171.4485	1179.1679	1186.3221	1251.691	1302.8494	1358.251	1382.8958	1428.0483	1483.4289	1499.908	1509.4654	1526.8621	1823.0671	2857.769	3019.4083	3028.8372	3077.75	3078.9101	3115.478	3119.1867	3209.2427	3220.9269
O=CC1(COC1)N1CC1	O=CC1(COC1)N1CC1	
InChI=1S/C6H9NO2/c8-3-6(4-9-5-6)7-1-2-7/h3H,1-2,4-5H2	InChI=1S/C6H9NO2/c8-3-6(4-9-5-6)7-1-2-7/h3H,1-2,4-5H2
