15
gdb 124282	2.78162	1.55794	1.00567	1.9326	70.92	-0.2231	-0.047	0.1761	1109.7474	0.113917	-450.161661	-450.153334	-450.15239	-450.194917	30.357	
C	-0.0326454084	 1.5074809361	-0.007607441	-0.479994
C	 0.0263316464	-0.0038465328	-0.0113839791	 0.314308
O	 1.0870795986	-0.6150110729	-0.0005348862	-0.346331
C	-1.2320969681	-0.7446253345	-0.0219411086	 0.168397
N	-2.4565294923	-0.1901761357	 0.0273841679	-0.274545
N	-3.2568427032	-1.2240352045	 0.0382521662	-0.075886
N	-2.6944699487	-2.4447225644	-0.0018055085	-0.296625
C	-1.3900851158	-2.1610107854	-0.0460133925	 0.317234
N	-0.4060493542	-3.096109894	-0.1507795521	-0.595476
H	 0.9810011413	 1.9073396126	 0.0311158168	 0.137114
H	-0.543605563	 1.868051914	-0.9062720358	 0.148376
H	-0.6138966768	 1.8656187902	 0.8476931098	 0.148532
H	-4.2578916304	-1.1183946348	 0.0760410151	 0.296755
H	-0.6274034676	-4.0310676775	 0.1507196074	 0.260132
H	 0.5198034022	-2.7453720766	 0.0499632206	 0.278007
68.4203	109.5472	183.5669	185.6198	312.5335	336.5165	412.0458	428.9476	506.0609	517.8255	551.4562	599.7034	640.95	705.7658	761.3863	790.2654	953.1108	986.135	1046.6463	1082.2856	1123.0436	1189.142	1256.3922	1343.8304	1380.1391	1390.8722	1459.144	1469.2016	1471.6238	1535.6136	1571.6324	1648.1711	1741.8046	3047.6007	3110.6699	3157.5299	3564.957	3666.2915	3697.3163
CC(=O)C1=NNN=C1N	CC(=O)c1n[nH]nc1N	
InChI=1S/C4H6N4O/c1-2(9)3-4(5)7-8-6-3/h1H3,(H3,5,6,7,8)	InChI=1S/C4H6N4O/c1-2(9)3-4(5)7-8-6-3/h1H3,(H3,5,6,7,8)
