17
gdb 85721	2.48011	1.38892	1.01696	0.8266	79.79	-0.256	0.0302	0.2862	1173.1337	0.133408	-384.607639	-384.598569	-384.597625	-384.641311	34.502	
O	 0.5249831184	 0.3160406332	-1.192152932	-0.425707
C	 0.0409656279	-0.4002472352	-0.1024709756	 0.151342
C	 0.1764422406	 0.1703960524	 1.3322818483	-0.272477
C	-1.216635147	-0.4452010447	 1.667988775	-0.189419
C	-2.114448685	 0.2697748221	 2.5460133329	 0.326057
C	-2.8554194902	 0.8720057287	 3.2765934548	-0.437572
C	-1.5199571005	-0.507662821	 0.1163670392	-0.257129
C	-2.210471983	 0.6462590126	-0.418076361	 0.328399
C	-2.7115731657	 1.6300128349	-0.8979465895	-0.456569
H	-0.026644479	 1.1038660393	-1.2907048722	 0.283887
H	 0.4698842797	-1.4042304664	-0.1699270155	 0.097938
H	 1.0278445182	-0.1436305799	 1.9382314469	 0.11128
H	 0.1199781613	 1.2617317293	 1.3199876093	 0.11983
H	-1.0920029213	-1.4736363463	 2.0227046553	 0.112021
H	-3.5117297003	 1.403638465	 3.919902279	 0.195163
H	-1.9922716864	-1.4315774326	-0.2268265187	 0.108897
H	-3.198492518	 2.4831452784	-1.3021330463	 0.20406
78.3748	105.6642	145.8531	182.7026	253.4095	341.2607	408.6264	422.0177	428.5634	479.2695	522.7631	620.4481	631.9759	635.6513	647.5879	655.0334	681.0618	752.0465	812.0972	897.5511	953.5148	1042.0478	1051.9129	1078.2218	1081.0223	1165.1211	1175.1571	1230.467	1239.6229	1246.9895	1329.4135	1338.8456	1368.2164	1446.1677	1483.5337	2224.5286	2237.7812	3050.9641	3067.5498	3073.8546	3079.8414	3135.3196	3501.6716	3505.1689	3750.48
OC1CC(C#C)C1C#C	O[C@H]1C[C@@H](C#C)[C@H]1C#C	
InChI=1S/C8H8O/c1-3-6-5-8(9)7(6)4-2/h1-2,6-9H,5H2	InChI=1S/C8H8O/c1-3-6-5-8(9)7(6)4-2/h1-2,6-9H,5H2/t6-,7-,8+/m1/s1
