18
gdb 30289	3.00226	1.69839	1.12217	3.2948	79.53	-0.1697	0.0326	0.2023	1068.8431	0.151255	-398.153882	-398.146245	-398.145301	-398.185838	29.389	
C	-0.0997142467	 1.5040083101	-0.0159200163	-0.33293
N	 0.0918618038	 0.0671874762	 0.0395433515	-0.164567
C	 0.7304320421	-0.5482724989	-1.1498611311	-0.150163
C	 1.3840439962	-1.893146215	-0.6739872125	-0.35809
C	 1.573352415	-1.5444277401	 0.7665628982	 0.223462
C	 0.81496067	-0.4679097453	 1.1142728714	 0.362257
N	 0.8249932845	-0.2203124513	 2.4545346662	-0.364376
C	 1.5934480942	-1.1863850827	 2.9366486941	-0.009632
N	 2.0497211566	-2.0378529235	 1.9643760231	-0.369467
H	 0.8360514591	 2.0543223713	-0.2230933759	 0.095465
H	-0.8242953643	 1.7531713924	-0.7976612739	 0.114161
H	-0.4940574799	 1.8462404001	 0.9435073034	 0.146982
H	 0.0002205522	-0.6943931251	-1.9506277012	 0.106606
H	 1.5252952127	 0.1166491815	-1.5282579192	 0.09211
H	 0.6951667547	-2.7388187598	-0.813908401	 0.112652
H	 2.2916698495	-2.112924695	-1.2453638428	 0.107984
H	 1.8704346805	-1.3067260483	 3.9731791332	 0.124643
H	 2.6752198999	-2.8119589268	 2.1079065627	 0.262904
136.2497	162.5002	204.1699	226.1005	267.8061	380.9249	472.6031	486.1447	587.9883	642.5319	651.9439	729.704	747.3574	765.4998	840.0807	928.7991	961.0262	1000.3265	1068.5827	1076.8618	1112.7678	1146.9949	1172.9261	1199.5356	1226.057	1247.5799	1257.2909	1302.8644	1351.1795	1378.4232	1414.6433	1452.073	1464.0257	1486.7214	1492.5064	1498.9803	1514.3206	1545.8701	1634.6352	2941.2114	2957.5568	2994.2887	3059.9354	3068.4634	3082.712	3126.5571	3252.7438	3673.0493
CN1CCC2=C1N=CN2	CN1CCc2c1nc[nH]2	
InChI=1S/C6H9N3/c1-9-3-2-5-6(9)8-4-7-5/h4H,2-3H2,1H3,(H,7,8)	InChI=1S/C6H9N3/c1-9-3-2-5-6(9)8-4-7-5/h4H,2-3H2,1H3,(H,7,8)
