20
gdb 47525	2.51982	1.73494	1.26079	3.8072	78.47	-0.2308	0.026	0.2568	1047.5115	0.175401	-403.180169	-403.172752	-403.171808	-403.211855	30.132	
O	 0.0148818063	-0.091883325	-0.2068549986	-0.372484
C	 0.0151760142	 1.117548718	-0.0553441783	 0.359807
N	-1.1707143444	 1.7964128055	 0.124678516	-0.299861
C	-1.4416662334	 3.2161464352	-0.0869110826	-0.168422
C	-0.5807527658	 4.1832819796	 0.7374022504	-0.202048
C	 0.9368590583	 3.9621515615	 0.6368868414	 0.001664
C	 1.3923174394	 3.2716528225	-0.6821433829	-0.253515
C	 1.3161484895	 1.8971795039	 0.0519721133	-0.083614
C	 1.4179610885	 2.6915292257	 1.3913647403	-0.226987
H	-1.960668279	 1.1761698521	 0.0136342876	 0.241218
H	-1.3552039819	 3.473970471	-1.1524917652	 0.110755
H	-2.4905201493	 3.3761528333	 0.1796228538	 0.111141
H	-0.8293323035	 5.192789692	 0.3878847538	 0.100294
H	-0.8774948944	 4.1331184919	 1.7922182306	 0.105794
H	 1.4548787586	 4.8885036146	 0.8984945946	 0.06791
H	 0.7989049697	 3.4172403273	-1.5876643289	 0.102394
H	 2.4330496491	 3.5086380882	-0.9165482135	 0.104658
H	 2.110082676	 1.1828330067	-0.1612306639	 0.092569
H	 2.4586126984	 2.7794966153	 1.7136851688	 0.103094
H	 0.8126318136	 2.3408146706	 2.2311534432	 0.105633
101.4897	201.0968	263.3729	332.0203	348.1343	373.3123	433.1225	505.5364	592.7351	662.5529	720.2202	758.1743	781.2917	806.7629	850.3566	892.1393	917.953	935.2573	966.708	983.8852	1058.6886	1069.7333	1104.4668	1112.6118	1134.034	1174.9512	1179.9364	1237.4148	1262.8044	1275.4658	1277.0032	1297.8305	1332.3138	1349.0596	1366.5745	1390.0238	1413.0881	1469.2408	1476.8369	1484.7683	1505.9553	1523.4903	1774.713	2993.1587	3023.4711	3055.6748	3060.9243	3064.6387	3072.8766	3078.5178	3111.1227	3113.1643	3124.4901	3597.1098
O=C1NCCC2CC1C2	O=C1NCC[C@@H]2C[C@H]1C2	
InChI=1S/C7H11NO/c9-7-6-3-5(4-6)1-2-8-7/h5-6H,1-4H2,(H,8,9)	InChI=1S/C7H11NO/c9-7-6-3-5(4-6)1-2-8-7/h5-6H,1-4H2,(H,8,9)/t5-,6+
