14
gdb 49852	3.62912	1.29086	1.05023	1.7992	63.84	-0.2653	-0.0479	0.2174	1079.6264	0.100129	-473.813977	-473.806462	-473.805518	-473.846889	27.152	
N	-0.3687381088	 1.2292669987	 0.4231611457	-0.535295
C	-0.1513311542	 0.046322007	 0.0527418856	 0.439018
O	 1.0878936846	-0.5029860226	-0.1865774189	-0.263502
C	 0.9868406973	-1.7696751945	-0.8551824576	-0.006162
C	 1.8776478867	-2.7865089189	-0.1459242573	 0.148176
O	 2.3299347789	-3.7492453216	-0.7031288471	-0.233669
C	-0.4871477298	-2.1472621751	-0.7832520611	-0.000073
O	-0.9563621762	-2.1839067854	 0.5617543857	-0.241689
C	-1.1878965823	-0.9919347551	-0.2144787916	-0.052928
H	 0.5032251022	 1.755296791	 0.5056318179	 0.234463
H	 1.3118379638	-1.6704816416	-1.8969098896	 0.125925
H	 2.0500199717	-2.5663504842	 0.9273256571	 0.113193
H	-0.9158793877	-2.8562088807	-1.4831549499	 0.13419
H	-2.2180869563	-0.7174714269	-0.403190379	 0.138352
56.5968	97.9298	178.8962	240.0587	341.3918	392.4661	461.181	519.1148	626.6849	714.5184	792.6931	841.9023	872.8817	884.9162	900.8454	926.3484	985.3601	1012.058	1071.3631	1080.3927	1095.6222	1113.2024	1238.8484	1260.6938	1289.9132	1298.3033	1350.643	1398.4635	1407.853	1793.9123	1840.2108	2935.1821	3059.0317	3183.9559	3211.8841	3476.3417
N=C1OC(C=O)C2OC12	[NH][C]1O[C@@H](C=O)[C@H]2O[C@@H]12	
InChI=1S/C5H5NO3/c6-5-4-3(9-4)2(1-7)8-5/h1-4,6H	InChI=1S/C5H5NO3/c6-5-4-3(9-4)2(1-7)8-5/h1-4,6H/t2-,3+,4+/m0/s1
