18
gdb 130150	5.27113	0.74558	0.69193	2.6726	75.72	-0.1983	0.0335	0.2318	1606.5269	0.149087	-435.282543	-435.273222	-435.272277	-435.317609	33.719	
N	-0.1218959805	 1.3934173891	 0.1807443123	-0.589215
C	 0.0343569684	 0.011952953	 0.0539884756	 0.375567
N	-1.0256609661	-0.7878173118	-0.0204333361	-0.310069
N	-0.4905338637	-2.0362634886	-0.050657165	-0.26044
C	 0.863448175	-2.0476415833	-0.0036344898	 0.38506
C	 1.6591558379	-3.3118857468	-0.0669463437	-0.306404
C	 2.0909763709	-3.671014399	-1.4926377129	-0.061284
O	 2.8191904723	-4.8850347521	-1.4207322943	-0.416967
C	 1.2474849747	-0.720896418	 0.0640726332	-0.378738
H	 0.5577422018	 1.9214182542	-0.3498438813	 0.242631
H	-1.0608411754	 1.6810242458	-0.0647880128	 0.247512
H	-1.1083261602	-2.828640675	-0.0781342138	 0.265753
H	 2.5563236913	-3.2198271628	 0.5527496029	 0.128371
H	 1.0811882668	-4.1498520573	 0.3398656816	 0.111929
H	 1.2002199212	-3.7698282244	-2.1331224375	 0.089099
H	 2.7009354538	-2.8531771371	-1.9052923755	 0.096359
H	 3.1156862492	-5.1129565386	-2.3065562862	 0.288551
H	 2.2539017826	-0.3399527871	 0.1332089135	 0.092287
35.777	87.65	96.8779	250.2022	253.2492	265.4134	287.471	342.1542	367.6606	434.8636	464.012	644.0831	678.8889	717.1375	760.4399	777.6488	793.5458	813.3638	1000.9915	1003.7598	1041.9817	1050.5743	1079.9798	1096.92	1183.2596	1203.0634	1215.6894	1239.0665	1296.3022	1320.1832	1347.7125	1443.5042	1453.2633	1489.2851	1514.1278	1527.2963	1535.1627	1614.6442	1648.7464	2973.3541	3005.842	3043.7018	3093.0951	3258.3688	3541.8368	3637.3358	3680.5312	3831.5942
NC1=NNC(CCO)=C1	Nc1n[nH]c(CCO)c1	
InChI=1S/C5H9N3O/c6-5-3-4(1-2-9)7-8-5/h3,9H,1-2H2,(H3,6,7,8)	InChI=1S/C5H9N3O/c6-5-3-4(1-2-9)7-8-5/h3,9H,1-2H2,(H3,6,7,8)
