18
gdb 69437	3.82848	1.15996	1.00166	5.3152	76.06	-0.2747	0.0337	0.3085	1200.8394	0.148079	-401.970354	-401.96209	-401.961146	-402.003144	31.328	
C	 0.047728383	 1.495111663	-0.064236818	-0.484604
C	-0.0658180358	 0.0046627254	 0.0929068469	 0.411261
C	-1.3260289796	-0.7325897785	-0.3377733612	-0.286087
C	-1.1310984489	-2.1740997591	 0.1789707201	-0.233651
C	-0.2377724896	-2.0235982395	 1.4466361878	-0.171855
C	 0.551063104	-3.2148147701	 1.7518680641	 0.274602
N	 1.1733134861	-4.1571377451	 1.9978056195	-0.323771
C	 0.5972790323	-0.7795405842	 1.1446683424	-0.021347
O	 1.1272857438	-0.7612544152	-0.1795894763	-0.284211
H	 1.0024594621	 1.8534275758	 0.3276997336	 0.136266
H	-0.0131205748	 1.7755714953	-1.121254427	 0.134161
H	-0.7644213121	 2.0048987497	 0.4646256172	 0.125392
H	-2.1952424711	-0.2534899234	 0.1292872505	 0.108438
H	-1.477398406	-0.7004159813	-1.4211284306	 0.117913
H	-2.0697036116	-2.6834015218	 0.4034541333	 0.118093
H	-0.5937796873	-2.7675269317	-0.5613585302	 0.144716
H	-0.8591052537	-1.80194451	 2.324393919	 0.126145
H	 1.2245785092	-0.3467664694	 1.9195625689	 0.108539
95.5734	139.0152	183.2781	204.9963	277.7507	315.4127	384.3921	427.6387	496.5386	548.5743	581.2702	672.4427	702.8452	844.7438	852.5373	860.1305	925.3983	964.5855	996.4954	1004.3419	1028.045	1068.556	1082.6549	1111.7698	1179.6418	1220.0471	1241.3949	1286.4047	1297.9402	1313.0552	1339.1317	1362.1582	1411.9645	1452.63	1479.0963	1486.7899	1494.4999	1501.7209	2359.3677	3029.9776	3035.3822	3040.2256	3084.421	3092.6129	3100.6333	3127.1455	3141.5952	3152.4301
CC12CCC(C#N)C1O2	C[C@]12CC[C@@H](C#N)[C@H]1O2	
InChI=1S/C7H9NO/c1-7-3-2-5(4-8)6(7)9-7/h5-6H,2-3H2,1H3	InChI=1S/C7H9NO/c1-7-3-2-5(4-8)6(7)9-7/h5-6H,2-3H2,1H3/t5-,6+,7-/m0/s1
