18
gdb 17645	3.91089	1.44665	1.1627	3.6437	69.76	-0.218	0.06	0.278	1053.8448	0.154095	-381.136185	-381.127536	-381.126591	-381.169627	31.81	
C	-0.2146502016	 1.4852453118	-0.0792075954	-0.360508
N	-0.145200778	 0.0387865204	-0.0149399848	-0.106745
C	-0.1159328256	-0.6382416209	 1.2584333988	 0.081319
C	 0.4433786299	-0.0019844221	 2.5010336112	-0.301622
C	-1.0424515439	-0.2927167109	 2.3918382562	-0.289965
C	-0.0459765909	-0.747078044	-1.1439330753	 0.444843
N	 0.0332869097	-0.0497647766	-2.350215045	-0.577165
O	-0.0712844649	-1.9668764903	-1.1171302273	-0.407604
H	 0.7758563994	 1.9629854748	-0.1227949708	 0.118786
H	-0.7953533442	 1.7946947762	-0.9509811104	 0.14739
H	-0.7282804288	 1.8746059339	 0.8027216095	 0.137418
H	 0.0868372455	-1.6879061642	 1.0994076913	 0.141691
H	 1.0552079303	-0.6120252763	 3.1565328877	 0.119352
H	 0.745337121	 1.0391825387	 2.4626884093	 0.111007
H	-1.7088086706	 0.5565407933	 2.283417014	 0.113576
H	-1.4646144904	-1.1093533215	 2.96683775	 0.121049
H	 0.5609288517	 0.8098090088	-2.3693475464	 0.248723
H	 0.2655110312	-0.6779799809	-3.1053509125	 0.258456
54.0162	101.0876	161.2633	188.1942	223.5955	332.3232	393.0109	424.3237	442.7446	517.8282	582.75	611.9269	707.8852	776.3776	782.7842	811.4611	894.8452	931.9578	1012.07	1057.8354	1070.0327	1094.7559	1105.8415	1147.2679	1149.1451	1195.9941	1205.0731	1235.841	1328.7533	1382.864	1444.4101	1466.05	1479.3416	1503.3451	1506.4816	1530.9725	1623.4024	1778.0648	2987.475	3089.6492	3127.7672	3132.8392	3136.1303	3209.3753	3215.9678	3229.3768	3572.9384	3682.4204
CN(C1CC1)C(N)=O	CN(C1CC1)C(=O)N	
InChI=1S/C5H10N2O/c1-7(5(6)8)4-2-3-4/h4H,2-3H2,1H3,(H2,6,8)	InChI=1S/C5H10N2O/c1-7(5(6)8)4-2-3-4/h4H,2-3H2,1H3,(H2,6,8)
