19
gdb 58955	2.71878	1.28415	1.08417	2.516	70.95	-0.2341	0.0594	0.2935	1177.3484	0.157419	-460.106026	-460.096851	-460.095907	-460.139963	34.462	
C	-0.1912592145	 1.5133083604	-0.0036446386	-0.410297
C	 0.0085991287	-0.0049206481	-0.0584131975	-0.012394
O	 0.8085668773	-0.384347543	-1.1790331664	-0.437411
C	 0.6983514861	-0.5209971717	 1.1677183122	 0.289409
C	 2.1626417449	-0.2850097538	 1.5264603945	-0.151127
O	 2.2779713208	-1.6192999276	 2.112062355	-0.309889
C	 0.945771683	-1.9357738549	 1.686642296	-0.034308
C	-0.0042629604	-1.0445940671	 2.4132056566	 0.044701
O	 0.2718230852	-0.5851198251	 3.6972392339	-0.440018
H	 0.773696984	 2.0251746358	 0.0662637061	 0.127366
H	-0.7026870236	 1.8708674594	-0.904903645	 0.105839
H	-0.7987750562	 1.7950447719	 0.8615687993	 0.131773
H	-0.9807499869	-0.4883884358	-0.1242760185	 0.065461
H	 0.4443535146	 0.0418845982	-1.9616433393	 0.282331
H	 2.8093949127	-0.2019014438	 0.6493745271	 0.130375
H	 2.3866426455	 0.5038630537	 2.2526976958	 0.108853
H	 0.7629836869	-2.9249775611	 1.2820753396	 0.107554
H	-1.0602362243	-1.2589377151	 2.2684067737	 0.105145
H	 1.1530766262	-0.9225250021	 3.9114785055	 0.296637
57.1069	126.2966	188.864	229.4061	251.7411	256.1226	282.9984	326.2598	366.3299	451.0279	482.6922	571.136	646.6833	675.0979	793.9248	836.3563	875.9315	919.8759	949.0248	988.4406	1015.1505	1022.4299	1051.5302	1078.5747	1086.9883	1118.6455	1149.2116	1164.466	1209.0774	1238.0216	1266.1275	1313.5481	1328.3164	1359.4818	1387.4253	1404.1955	1425.9753	1471.9445	1492.4407	1503.7868	1508.6815	2954.5798	3029.081	3040.2474	3097.37	3106.4322	3116.9605	3148.5845	3177.6456	3742.3575	3814.5748
CC(O)C12COC1C2O	C[C@@H](O)[C@]12CO[C@H]1[C@H]2O	
InChI=1S/C6H10O3/c1-3(7)6-2-9-5(6)4(6)8/h3-5,7-8H,2H2,1H3	InChI=1S/C6H10O3/c1-3(7)6-2-9-5(6)4(6)8/h3-5,7-8H,2H2,1H3/t3-,4-,5+,6+/m1/s1
