18
gdb 84525	2.19618	1.75484	1.41925	4.1403	80.39	-0.2455	-0.0009	0.2445	1012.9036	0.14906	-364.828166	-364.820274	-364.81933	-364.860379	30.643	
C	-0.3471014193	 1.5359712082	 0.0251542228	-0.413034
C	-0.023912007	 0.0344257045	 0.0019929971	-0.043054
C	 0.6868453	-0.4569156289	-1.2464176947	-0.066257
C	 1.7296998552	-1.241491952	-0.9687003274	-0.091838
C	 1.9456934407	-1.3541465171	 0.5043788941	-0.099738
C	 2.3502665053	-0.0527799383	 1.2077278621	-0.191432
C	 2.9180527388	 1.0488562788	 0.4826216597	 0.312276
N	 3.4059566275	 1.9404356338	-0.07119259	-0.358646
C	 0.8858767965	-0.4763677646	 1.1249751115	-0.078152
H	 0.5555802679	 2.1438698809	-0.0653527361	 0.156275
H	-1.0139229219	 1.7952409474	-0.8034396339	 0.11664
H	-0.8537977187	 1.8072819679	 0.9566315776	 0.11567
H	-0.9791527085	-0.5060006735	 0.0911460997	 0.09272
H	 0.3644943312	-0.1696288109	-2.2407890126	 0.104918
H	 2.3825952694	-1.7129777429	-1.6928637439	 0.107661
H	 2.2900668456	-2.280190561	 0.9505701799	 0.103154
H	 2.7880835432	-0.1756857358	 2.1940584763	 0.132594
H	 0.4347224442	-0.7301666166	 2.0768834278	 0.100244
124.2772	126.7257	214.0321	232.1538	253.6546	356.6511	418.5167	498.5169	591.3556	627.6075	714.3947	734.681	761.1391	782.8774	804.1797	869.7658	911.5305	959.3639	968.8304	995.3267	1019.9772	1036.2613	1048.2664	1107.1939	1110.8686	1127.7918	1151.0116	1195.6798	1300.5314	1304.0841	1330.2664	1354.8055	1377.0114	1398.7135	1416.9083	1497.3737	1506.1512	1666.9795	2347.6686	2980.4276	3041.5251	3103.568	3134.948	3153.5358	3173.6309	3184.8402	3194.555	3219.7631
CC1C=CC2C(C#N)C12	C[C@H]1C=C[C@H]2[C@@H](C#N)[C@@H]12	
InChI=1S/C8H9N/c1-5-2-3-6-7(4-9)8(5)6/h2-3,5-8H,1H3	InChI=1S/C8H9N/c1-5-2-3-6-7(4-9)8(5)6/h2-3,5-8H,1H3/t5-,6-,7+,8-/m0/s1
