13
gdb 7223	5.18091	1.17285	0.96757	4.1048	59.65	-0.2667	-0.1076	0.1592	1117.1782	0.092012	-398.642317	-398.633623	-398.632679	-398.677024	28.666	
C	 0.0291738836	 1.504417824	 0.0092937503	-0.476572
C	 0.0362524625	-3.1083*^-6	 0.0012812914	 0.310007
O	 1.0283673405	-0.6899631655	-0.0120128964	-0.269642
C	-1.3518302291	-0.6869958508	 0.0111390124	 0.279323
O	-2.367066066	-0.0433628844	 0.0244087325	-0.244763
C	-1.2951467014	-2.217685089	 0.0025952194	-0.455934
C	-2.6109490171	-2.8400104397	 0.0116744177	 0.284379
N	-3.6478686774	-3.3472441526	 0.0187314439	-0.290941
H	 1.0530313383	 1.8776257374	 0.0015138336	 0.15088
H	-0.5227981371	 1.880267773	-0.8583162324	 0.165017
H	-0.5061876661	 1.8710639033	 0.8911284433	 0.165014
H	-0.7211066809	-2.541545405	-0.873273057	 0.191617
H	-0.7048901499	-2.5505831024	 0.8641905513	 0.191615
40.1196	52.7146	112.9252	125.3903	230.9267	327.7632	333.3129	380.4778	428.7329	521.0106	591.3648	610.4062	804.4596	887.7212	894.1942	986.0179	1038.4205	1057.6196	1192.2457	1239.2397	1337.9364	1386.9889	1416.0723	1451.8019	1459.3088	1807.2741	1827.2473	2376.6433	3050.0353	3056.7879	3086.3295	3110.6041	3166.3698
CC(=O)C(=O)CC#N	CC(=O)C(=O)CC#N	
InChI=1S/C5H5NO2/c1-4(7)5(8)2-3-6/h2H2,1H3	InChI=1S/C5H5NO2/c1-4(7)5(8)2-3-6/h2H2,1H3
