17
gdb 65707	2.60827	0.99762	0.87872	3.6253	71.68	-0.264	-0.0382	0.2258	1350.3285	0.132295	-458.980589	-458.971231	-458.970287	-459.01528	33.146	
C	 0.0476055451	 1.5525619864	-0.3766530963	-0.456017
C	 0.0077143389	 0.0830917987	-0.0292617175	 0.391401
C	 1.2103794587	-0.7791748584	-0.1226993656	-0.342085
C	 0.6171515487	-0.4926996005	 1.256177003	-0.167236
C	 1.3540834934	 0.3647148182	 2.2158114625	 0.159964
O	 1.2644179032	 0.2674645685	 3.413997436	-0.256876
O	-1.1822476932	-0.5556217326	-0.4657804945	-0.221673
C	-2.298284555	-0.3750224769	 0.2833719674	 0.158947
O	-3.3587894881	-0.8092214708	-0.0453703918	-0.262606
H	 1.0196828047	 1.9913213316	-0.1411998433	 0.132726
H	-0.1337496073	 1.6749676837	-1.4486902769	 0.148175
H	-0.7188017095	 2.1150152365	 0.1660242012	 0.13625
H	 1.0845453527	-1.7846152446	-0.5050979971	 0.150957
H	 2.1537992183	-0.3027461569	-0.3684478107	 0.132519
H	 0.0572725622	-1.2948337475	 1.7243074212	 0.126919
H	 2.0283904107	 1.1200313449	 1.7503376907	 0.071753
H	-2.1069925035	 0.1922019398	 1.2121524119	 0.096881
73.315	100.2934	123.7631	163.1231	211.1596	238.4982	270.821	362.7485	381.9803	394.9665	469.452	551.7536	574.074	734.7114	851.7566	902.6155	931.9822	960.7975	1024.1252	1048.0177	1053.2611	1078.5712	1082.0832	1114.6584	1163.615	1178.1807	1229.4239	1308.1863	1369.03	1418.3073	1421.6135	1445.8057	1472.6648	1483.6384	1502.4634	1818.3363	1871.398	2862.0889	2978.6791	3044.5081	3111.3804	3131.5708	3140.9964	3183.0413	3237.4291
CC1(CC1C=O)OC=O	C[C@]1(C[C@H]1C=O)OC=O	
InChI=1S/C6H8O3/c1-6(9-4-8)2-5(6)3-7/h3-5H,2H2,1H3	InChI=1S/C6H8O3/c1-6(9-4-8)2-5(6)3-7/h3-5H,2H2,1H3/t5-,6+/m0/s1
