25
gdb 122962	5.99549	0.45493	0.43756	2.3937	86.65	-0.2548	0.0621	0.317	2556.4377	0.227023	-426.633594	-426.622003	-426.621059	-426.6714	41.492	
C	-0.137527673	 1.5555250019	 0.0468664241	-0.379734
C	-0.0152022977	 0.0297891776	 0.0173747392	-0.163441
C	 0.6976933179	-0.4953400882	-1.2335613203	-0.162219
C	 0.8137830259	-2.0221532095	-1.2712860281	-0.175658
C	 1.5310564859	-2.547454642	-2.5199060652	-0.217173
C	 1.5902812209	-4.0721370879	-2.5983375517	 0.095652
O	 0.2835516789	-4.6674763379	-2.6178382017	-0.438689
C	 2.3785626318	-4.5865275104	-3.8056551575	-0.060778
O	 2.3441529066	-5.9950813712	-3.8702829729	-0.425508
H	 0.8486315815	 2.0327500086	 0.0225442781	 0.113207
H	-0.7027050626	 1.9245351382	-0.8163986547	 0.112526
H	-0.6502298067	 1.8986335548	 0.9509331788	 0.111623
H	 0.5240955799	-0.3124377661	 0.910548284	 0.095226
H	-1.0149671028	-0.4203326896	 0.078213385	 0.094968
H	 0.1614898849	-0.1480221346	-2.1283227878	 0.088596
H	 1.700689962	-0.0492862462	-1.2933536535	 0.090836
H	 1.3490941637	-2.3703425164	-0.3773521234	 0.095438
H	-0.1844651694	-2.4727843646	-1.2184019233	 0.104214
H	 1.0317769435	-2.1655338189	-3.4240861725	 0.085435
H	 2.5561328738	-2.1547440452	-2.5551594323	 0.101636
H	 2.0519504023	-4.47639171	-1.6890882524	 0.096104
H	-0.2153181347	-4.2460582302	-3.3285021095	 0.280701
H	 1.9644241207	-4.1296304175	-4.7246221694	 0.068206
H	 3.4288223161	-4.2817556191	-3.7358023501	 0.105141
H	 1.4427568807	-6.2354821356	-3.617347243	 0.283693
49.6388	63.0436	77.7061	122.1591	143.2083	158.9948	200.2266	248.7838	252.38	314.4164	344.0209	387.7229	450.3512	485.0328	520.0274	586.5744	733.3719	758.7327	833.8099	863.7652	902.5201	943.761	993.6445	1006.9161	1042.8027	1065.6871	1077.3304	1089.1874	1104.4498	1121.9776	1148.4899	1210.3657	1225.5172	1248.4476	1281.1189	1298.967	1319.7697	1330.3356	1339.7199	1355.8841	1384.2689	1396.8119	1401.8339	1414.4615	1421.5245	1446.4957	1476.7063	1484.3301	1490.747	1500.1765	1503.9404	1507.5846	1514.7444	2924.2533	2989.7722	2999.9564	3013.6975	3020.1607	3025.5835	3028.8979	3034.409	3046.7537	3050.0469	3065.8395	3073.4275	3094.9571	3101.0814	3757.892	3780.4276
CCCCCC(O)CO	CCCCC[C@@H](O)CO	
InChI=1S/C7H16O2/c1-2-3-4-5-7(9)6-8/h7-9H,2-6H2,1H3	InChI=1S/C7H16O2/c1-2-3-4-5-7(9)6-8/h7-9H,2-6H2,1H3/t7-/m1/s1
