19
gdb 71782	2.97931	1.92276	1.76074	1.6105	77.1	-0.2348	0.0644	0.2992	885.4789	0.160971	-385.820727	-385.814179	-385.813235	-385.851125	28.136	
C	 0.0070030384	 1.5332082567	 0.0289713348	-0.513416
C	-0.0544684834	 0.0270078104	-0.0281948985	 0.328746
C	 0.4623821127	-0.7685702066	-1.2516898077	-0.270603
C	-0.549638655	-1.8702494847	-0.8710080555	-0.077449
C	-0.1096918305	-2.5381127684	 0.4951685439	 0.090068
O	 1.1159070768	-1.9501789358	 0.9854946091	-0.288326
C	 0.3646767083	-0.7552828236	 1.2917299213	 0.042053
C	-0.9867757346	-1.5221803442	 1.2807591263	-0.088193
C	-1.3846857762	-0.8236127734	-0.0503916296	-0.110851
H	 1.0464758535	 1.8804023455	 0.0804076313	 0.120412
H	-0.4542987688	 1.9859558528	-0.8555165734	 0.115303
H	-0.5143708573	 1.9229374708	 0.9117444571	 0.114183
H	 0.1747417119	-0.2743886238	-2.1851050475	 0.091073
H	 1.5219860024	-1.0348193301	-1.2766547089	 0.105426
H	-0.9700232021	-2.5328007224	-1.6275370602	 0.063295
H	-0.1236287086	-3.6253163377	 0.5806519625	 0.076549
H	 0.7942177666	-0.1800056744	 2.1144542872	 0.070997
H	-1.6008354577	-1.7470274767	 2.1509077918	 0.070602
H	-2.3641386462	-0.4400154144	-0.3287821542	 0.060131
215.4085	235.6627	265.3856	388.4719	455.0218	525.0405	551.3486	680.6131	720.4989	775.1985	804.9137	822.6778	828.9894	858.4109	862.2964	897.9316	922.7106	954.5615	967.8664	980.0122	984.0106	1042.7024	1076.2577	1106.1578	1136.3104	1145.6112	1153.8331	1180.8538	1183.85	1211.023	1234.5685	1241.1719	1254.6665	1272.2429	1291.4451	1322.9491	1348.1063	1410.0186	1470.0861	1488.8192	1492.1842	3015.1717	3048.7373	3076.8245	3087.552	3090.0283	3099.0221	3109.3035	3110.7413	3123.4814	3137.305
CC12CC3C4OC1C4C23	C[C@@]12C[C@H]3[C@H]4O[C@@H]1[C@H]4[C@@H]23	
InChI=1S/C8H10O/c1-8-2-3-5(8)4-6(3)9-7(4)8/h3-7H,2H2,1H3	InChI=1S/C8H10O/c1-8-2-3-5(8)4-6(3)9-7(4)8/h3-7H,2H2,1H3/t3-,4+,5+,6-,7-,8+/m1/s1
