16
gdb 35800	3.85728	1.22731	1.02687	3.8621	69.12	-0.2522	0.0047	0.2569	1124.9533	0.124939	-437.858539	-437.85098	-437.850036	-437.890797	28.684	
N	-0.0222659939	-1.1345214837	-0.0557303496	-0.307588
C	 0.0075007401	 0.0192666922	-0.0243087222	 0.282345
C	-0.0175812088	 1.4832581525	 0.0348132071	-0.039045
C	-0.805326471	 1.9688601257	 1.2615437934	-0.094774
O	-0.8896191596	 3.3799485117	 1.2586891679	-0.255525
C	 0.2822267621	 4.0597229399	 0.9063260027	 0.094338
C	 1.5992928811	 3.8927822685	 1.6232495465	-0.344151
C	 1.4123100215	 3.3428039529	 0.2219745465	 0.05225
O	 1.3255068198	 1.9431076877	 0.1042061055	-0.262068
H	-0.5124047845	 1.8620405465	-0.8728993113	 0.128862
H	-1.8318057681	 1.5953620996	 1.2372723003	 0.137409
H	-0.3128076164	 1.5893000395	 2.1680957734	 0.122701
H	 0.024246365	 5.0538668606	 0.5584943259	 0.117643
H	 2.2138493801	 4.7743711986	 1.7672708528	 0.124029
H	 1.6764688223	 3.1479187674	 2.4069579671	 0.134809
H	 1.9243923904	 3.8010902502	-0.6199889861	 0.108764
89.7811	153.7132	169.6978	293.0309	343.8968	393.1843	473.6891	491.8713	539.8778	556.4861	698.3547	750.6476	802.6017	851.6389	916.7307	988.4288	994.2968	1028.7376	1055.591	1069.9023	1080.8403	1112.2105	1123.1647	1168.394	1187.6774	1256.1149	1267.1087	1313.0338	1346.7589	1370.8997	1393.4917	1420.7743	1472.8689	1497.9041	2370.5431	2992.2318	3012.6689	3107.9755	3136.2545	3141.8882	3173.5439	3233.2455
N#CC1COC2CC2O1	N#C[C@H]1CO[C@H]2C[C@H]2O1	
InChI=1S/C6H7NO2/c7-2-4-3-8-5-1-6(5)9-4/h4-6H,1,3H2	InChI=1S/C6H7NO2/c7-2-4-3-8-5-1-6(5)9-4/h4-6H,1,3H2/t4-,5-,6+/m0/s1
