21
gdb 89081	4.98074	0.6262	0.59237	0.9125	86.26	-0.247	0.0539	0.301	1909.1209	0.179602	-387.035909	-387.025569	-387.024624	-387.072212	37.28	
C	 0.3629150655	 1.5823447558	-0.1601147302	-0.396101
C	 0.2270309274	 0.0780553348	-0.0784808411	-0.028825
C	 1.4372897872	-0.7881744188	 0.2222554995	-0.32338
C	 0.3287432172	-0.6329258517	 1.2375561806	 0.126953
O	 0.5467213035	 0.1511107693	 2.3691186474	-0.247017
C	 1.2281870807	-0.5311296037	 3.403898598	-0.050564
C	 1.4036075905	 0.4563322298	 4.5624686065	-0.350958
C	 2.091018944	-0.142388486	 5.6982171763	 0.287698
C	 2.6601083557	-0.6620400391	 6.6203840595	-0.449239
H	 1.0433289425	 1.9540765426	 0.6091592535	 0.125903
H	 0.747286277	 1.8874903246	-1.139141702	 0.1135
H	-0.6045466762	 2.0736502828	-0.0104701984	 0.117654
H	-0.4936551838	-0.3488339628	-0.7712231562	 0.085676
H	 1.557785969	-1.7366071201	-0.2899481771	 0.109988
H	 2.3648491289	-0.2670972554	 0.4377819846	 0.115607
H	-0.3239513378	-1.4893400996	 1.4146863642	 0.082684
H	 0.6519533192	-1.407112455	 3.7389138218	 0.100893
H	 2.2070073831	-0.8918586496	 3.0567346107	 0.104895
H	 1.9589767407	 1.3287006282	 4.1978332092	 0.138183
H	 0.4148355102	 0.821518031	 4.8644328762	 0.140429
H	 3.1617538957	-1.1084400372	 7.442731057	 0.196018
46.1176	71.0269	85.9999	135.043	160.4348	194.7065	268.1464	313.8202	354.1528	361.1668	477.554	490.2668	590.1211	622.8191	648.1087	755.8461	796.6236	831.8242	874.743	922.1855	967.0252	987.7478	1024.0571	1055.5786	1072.7318	1089.8051	1102.348	1117.0834	1150.1313	1187.6083	1195.9139	1228.3975	1252.973	1299.1279	1307.1614	1369.3185	1397.4482	1418.4832	1435.1381	1477.0858	1484.5715	1493.7657	1504.4097	1526.3662	2242.0753	2986.4414	3023.6415	3035.0582	3035.8364	3072.8928	3084.3002	3093.3067	3122.2456	3128.6625	3143.2448	3216.4573	3507.1513
CC1CC1OCCC#C	C[C@H]1C[C@H]1OCCC#C	
InChI=1S/C8H12O/c1-3-4-5-9-8-6-7(8)2/h1,7-8H,4-6H2,2H3	InChI=1S/C8H12O/c1-3-4-5-9-8-6-7(8)2/h1,7-8H,4-6H2,2H3/t7-,8+/m0/s1
