10
gdb 131034	7.32567	0.94916	0.84028	3.0328	63.84	-0.3281	-0.1205	0.2077	1208.6225	0.054467	-463.777381	-463.770387	-463.769443	-463.809437	23.804	
O	-0.0923006266	-0.0275496482	-0.0019181912	-0.20196
C	-0.0494512442	 1.1587451677	 0.0077342687	 0.218183
N	 1.1862737491	 1.8950128266	 0.0006535006	 0.048045
N	 2.4151483997	 1.3405001348	-0.0174662582	-0.062919
N	 3.2508586696	 2.3230671659	-0.0181421803	-0.2118
C	 2.4966617148	 3.4728427251	 3.3569*^-6	 0.312887
N	 1.1980070132	 3.226085183	 0.0121306621	-0.252189
C	 3.0564471356	 4.7797514179	 0.0052385546	 0.293438
N	 3.5211363701	 5.8374848211	 0.0093482889	-0.303261
H	-0.8941434111	 1.8627302262	 0.0231777077	 0.159575
89.6505	139.3688	200.0536	253.194	254.6448	453.8366	516.5653	566.2057	660.6796	695.7839	780.9099	787.8747	986.0328	1027.8027	1088.5351	1184.7531	1249.1167	1327.2029	1397.5128	1422.5831	1519.0665	1875.7092	2376.9467	3054.2777
O=CN1N=NC(=N1)C#N	O=Cn1nnc(n1)C#N	
InChI=1S/C3HN5O/c4-1-3-5-7-8(2-9)6-3/h2H	InChI=1S/C3HN5O/c4-1-3-5-7-8(2-9)6-3/h2H
