21
gdb 83965	2.07111	1.89079	1.75144	1.6434	80.98	-0.2384	0.0173	0.2557	970.0523	0.186644	-387.110319	-387.102985	-387.10204	-387.141384	31.224	
O	 0.178061814	 1.3479699462	-0.2065305082	-0.447826
C	 0.008131365	-0.0326284498	 0.0213259364	 0.155945
C	 0.5025889184	-0.5890011538	 1.3863101975	-0.082733
C	-0.1522600835	 0.238706958	 2.5205689841	-0.225191
C	-1.6962773511	 0.1624432827	 2.4740836901	-0.189429
C	-2.276066604	 0.2562972701	 1.0433487142	-0.225195
C	-1.4497275631	-0.5728272009	 0.0283676838	-0.082736
C	-1.1863413536	-1.976094856	 0.5450968422	-0.075343
C	-0.0891189729	-1.9851852497	 1.308270317	-0.075344
H	-0.2908289259	 1.8408863546	 0.4733175765	 0.281014
H	 0.5640389302	-0.5216237492	-0.7837288428	 0.085229
H	 1.5921487539	-0.5694995309	 1.4818848088	 0.063768
H	 0.2030035708	-0.1032770613	 3.4987063032	 0.09703
H	 0.188596178	 1.2795666351	 2.4287320671	 0.089473
H	-2.0058857113	-0.7927915107	 2.907832842	 0.108127
H	-2.1306517758	 0.943120195	 3.1078805224	 0.090015
H	-3.3204494205	-0.0740987993	 1.0479544227	 0.097032
H	-2.2969247225	 1.3001550592	 0.6999330635	 0.08947
H	-1.9180963289	-0.540421365	-0.9596788843	 0.063768
H	-1.8323374253	-2.8232018794	 0.3441514198	 0.091463
H	 0.3145056281	-2.8409889447	 1.8373900541	 0.091463
196.8545	237.1398	308.2279	314.5944	328.7914	363.1249	460.2237	523.9543	563.7472	599.1109	695.7141	754.6307	764.4711	788.7578	823.1378	851.1755	894.2753	924.8253	952.0994	974.4058	988.1541	1040.4158	1043.4261	1080.2718	1093.3392	1114.6065	1123.1041	1135.6193	1179.3942	1247.4787	1250.3097	1277.0407	1291.5856	1312.5539	1326.3387	1333.0806	1339.7697	1377.7397	1381.0263	1388.5414	1432.2809	1492.3148	1497.8418	1509.6576	1656.2429	3010.1103	3010.1709	3045.5521	3058.2928	3059.4074	3063.1562	3065.5184	3076.9016	3089.4111	3181.2419	3206.2551	3830.005
OC1C2CCCC1C=C2	O[C@H]1[C@H]2CCC[C@@H]1C=C2	
InChI=1S/C8H12O/c9-8-6-2-1-3-7(8)5-4-6/h4-9H,1-3H2	InChI=1S/C8H12O/c9-8-6-2-1-3-7(8)5-4-6/h4-9H,1-3H2/t6-,7+,8-
