19
gdb 81890	3.14124	1.21694	1.0401	3.9371	77.71	-0.2432	-0.0229	0.2203	1197.4706	0.157653	-423.011336	-423.002252	-423.001308	-423.04494	33.86	
C	-0.1287097167	 1.6004173429	-0.0529641274	-0.411047
C	 0.0463391135	 0.0874141886	-0.0254545151	-0.02146
C	 0.7100813073	-0.6024512516	-1.2244115532	-0.097215
C	 2.1377561771	-0.232944911	-1.3749973368	-0.325488
C	 1.797872466	-1.2228669656	-0.281024679	 0.27725
C	 2.2758639472	-2.6109269621	-0.323028584	 0.042985
O	 2.6682426969	-3.1767918243	-1.3185888133	-0.27895
C	 1.1652792179	-0.5217919363	 0.9105564855	-0.01406
O	 2.0537871641	 0.3649469169	 1.5550028496	-0.424048
H	 0.8165736153	 2.1164756262	-0.2370254244	 0.130999
H	-0.8354206134	 1.8944574054	-0.8357885979	 0.121305
H	-0.525014526	 1.9648165083	 0.9018510507	 0.107654
H	-0.911344881	-0.39111487	 0.2010464994	 0.077451
H	 0.1876754378	-1.1603144982	-1.9921185768	 0.11019
H	 2.65210927	-0.6923854736	-2.211924026	 0.144809
H	 2.5026779741	 0.7449710991	-1.0802177411	 0.133241
H	 2.2302832695	-3.1406201676	 0.6567132792	 0.066402
H	 0.7393032647	-1.2420002813	 1.623309419	 0.073001
H	 1.5851359856	 0.7925043744	 2.2793334416	 0.286981
96.0924	135.8475	173.2152	187.5237	224.0244	228.401	302.3936	310.3051	364.0614	480.798	553.2629	625.7355	695.3249	722.5237	778.9451	812.4133	867.4101	946.5751	968.108	995.4932	1011.145	1051.1729	1060.0736	1087.4747	1111.1371	1138.1123	1154.2408	1183.3117	1227.1101	1254.6938	1291.0967	1323.9826	1363.5301	1378.3998	1414.7975	1420.4791	1444.2718	1483.3803	1494.124	1500.1684	1795.3713	2861.177	2998.2382	3033.8849	3057.9872	3093.7782	3124.3313	3138.5734	3191.4739	3230.8811	3814.9211
CC1C2CC2(C=O)C1O	C[C@H]1[C@H]2C[C@@]2(C=O)[C@H]1O	
InChI=1S/C7H10O2/c1-4-5-2-7(5,3-8)6(4)9/h3-6,9H,2H2,1H3	InChI=1S/C7H10O2/c1-4-5-2-7(5,3-8)6(4)9/h3-6,9H,2H2,1H3/t4-,5+,6-,7-/m0/s1
