14
gdb 27502	2.09774	1.87167	0.99015	6.3764	70.2	-0.2273	-0.0226	0.2047	1101.1383	0.10256	-470.077218	-470.069402	-470.068458	-470.109639	29.695	
N	 0.108103339	 1.3463124523	 0.2820736303	-0.579946
C	-0.031994091	 0.0053724948	 0.0257675714	 0.463935
C	-1.1973810958	-0.6890095381	 0.1590976442	-0.377638
C	-1.2349300646	-2.1016392053	-0.0648464555	 0.437624
O	-2.1691136663	-2.8480953396	 0.005964171	-0.338455
O	 0.0134060498	-2.6929896805	-0.4380200079	-0.264501
C	 1.1807973408	-2.020662378	-0.5508108065	 0.471697
N	 2.297416363	-2.5480166103	-0.82758403	-0.572204
N	 1.1119204645	-0.6456879317	-0.34304657	-0.402683
H	 0.8069344203	 1.8442424406	-0.2496826075	 0.264988
H	-0.7549776932	 1.8582044433	 0.3802102677	 0.274857
H	-2.1225742061	-0.1975323073	 0.4205995663	 0.111339
H	 2.1923992979	-3.5527276953	-0.9474016123	 0.237217
H	 2.0071400618	-0.182522445	-0.3282474613	 0.27377
99.4906	142.1028	183.18	317.4189	335.2341	374.6722	477.0719	494.8905	533.9882	538.2014	597.0409	643.1987	681.9783	713.0205	718.871	786.0451	822.0219	864.7888	974.5805	1066.2302	1087.9977	1134.334	1169.9753	1277.8628	1372.6811	1401.8924	1557.3978	1647.5231	1692.8435	1759.8176	1865.9089	3241.4037	3537.5295	3578.7975	3643.6637	3685.0318
NC1=CC(=O)OC(=N)N1	NC1=CC(=O)O[C]([NH])N1	
InChI=1S/C4H5N3O2/c5-2-1-3(8)9-4(6)7-2/h1H,5H2,(H2,6,7)	InChI=1S/C4H5N3O2/c5-2-1-3(8)9-4(6)7-2/h1H,5H2,(H2,6,7)
