17
gdb 45789	3.12356	1.42352	1.06117	3.223	76.75	-0.1989	0.0135	0.2123	1116.3053	0.137567	-418.0489	-418.040844	-418.0399	-418.082841	30.92	
O	 0.0371481479	-0.0555619007	 0.0017957335	-0.412476
C	-0.0229413658	 1.1597306518	 0.0095015683	 0.46737
N	-1.2312935244	 1.8418231451	 0.0292321311	-0.396147
C	-1.3204685302	 3.2285897411	 0.0397484108	 0.00949
C	-0.2358515046	 4.0054868402	 0.0288245865	-0.180595
C	 1.1222459558	 3.4164249439	 0.0045048504	 0.378421
C	 2.2331944513	 4.0964503563	-0.7683902085	-0.311879
C	 2.2579015065	 4.0905152051	 0.7456392048	-0.312014
N	 1.0816941715	 1.9698290414	 0.0001306566	-0.447426
H	-2.0501025414	 1.2590252828	 0.0377810469	 0.261985
H	-2.3271734228	 3.6275689688	 0.0572744805	 0.122143
H	-0.3282227161	 5.0831508285	 0.0371492655	 0.100284
H	 2.9392464156	 3.4585841214	-1.29098482	 0.115942
H	 2.0064389083	 5.0239841548	-1.2833642154	 0.119748
H	 2.0482195845	 5.0139436037	 1.2750262794	 0.119778
H	 2.9806265373	 3.4487722207	 1.2399381548	 0.115934
H	 1.9500020664	 1.458759585	-0.015035815	 0.249444
16.8734	91.8507	263.2383	269.0374	384.3052	398.1145	435.2012	486.0324	494.2689	555.9106	589.8039	694.7955	730.8149	755.5063	763.6481	882.0229	887.9216	907.9039	933.2686	953.4522	972.729	1015.8962	1059.6973	1066.1583	1099.4583	1189.2168	1211.8054	1257.3244	1318.5191	1393.247	1422.2011	1461.0156	1467.6601	1474.2163	1499.1759	1738.1706	1815.4473	3123.2533	3126.4847	3203.9777	3204.6412	3220.0444	3226.9125	3641.2613	3682.464
O=C1NC=CC2(CC2)N1	O=C1NC=CC2(CC2)N1	
InChI=1S/C6H8N2O/c9-5-7-4-3-6(8-5)1-2-6/h3-4H,1-2H2,(H2,7,8,9)	InChI=1S/C6H8N2O/c9-5-7-4-3-6(8-5)1-2-6/h3-4H,1-2H2,(H2,7,8,9)
