20
gdb 126514	3.1129	0.97709	0.79061	3.17	82.17	-0.2017	0.0378	0.2395	1485.1336	0.172438	-399.355504	-399.345891	-399.344947	-399.390737	34.884	
C	 0.0013459492	 1.6333202999	-0.0581189922	-0.377851
C	 0.0281692332	 0.1033044506	-0.0660721561	-0.149821
C	-1.3744516211	-0.5238276726	 0.0643648839	-0.336849
C	-1.3808056417	-2.0226009825	 0.0484641088	 0.167723
C	-1.3089542383	-2.8830602114	 1.1340882511	 0.27583
N	-1.16997209	-2.6532563733	 2.5087715399	-0.611796
N	-1.3349746442	-4.1442636995	 0.6332591922	-0.234754
N	-1.430013087	-4.1790222976	-0.7195039964	-0.240935
C	-1.4477108116	-2.8984700338	-1.0638998652	-0.078515
H	 1.0083737345	 2.0517005636	-0.1507681778	 0.112619
H	-0.5987444933	 2.023343533	-0.8880117935	 0.114517
H	-0.4346438965	 2.018939951	 0.8708437915	 0.108663
H	 0.491682106	-0.2587937876	-0.9915908424	 0.103731
H	 0.6629879847	-0.2644988791	 0.7500268265	 0.094897
H	-1.8412755064	-0.1571679198	 0.9908275981	 0.080597
H	-2.0067002559	-0.1476071041	-0.7499762781	 0.104419
H	-1.1400432123	-1.6629027334	 2.7140972566	 0.252663
H	-1.9101643837	-3.0753648695	 3.0593622728	 0.248922
H	-1.249662134	-5.0049543158	 1.1461263268	 0.265848
H	-1.5254955116	-2.6288731879	-2.1084831564	 0.100092
44.8767	85.7686	111.0204	155.9254	231.6953	252.7336	271.9066	307.9894	383.3733	431.2125	464.0216	668.3471	671.0896	702.7627	742.9365	770.0527	791.0633	868.9809	884.0074	897.6112	954.2702	1041.804	1067.0569	1106.6231	1109.8742	1124.8298	1218.9454	1239.6009	1272.2585	1311.3759	1327.8222	1344.7208	1378.5406	1393.2303	1410.6033	1454.6062	1480.9224	1492.435	1497.7676	1509.9765	1553.8739	1626.6642	1662.3993	2992.725	3024.9795	3026.8072	3038.8069	3062.4445	3093.2135	3101.3943	3228.3603	3515.1073	3614.7827	3675.5261
CCCC1=C(N)NN=C1	CCCc1c(N)[nH]nc1	
InChI=1S/C6H11N3/c1-2-3-5-4-8-9-6(5)7/h4H,2-3H2,1H3,(H3,7,8,9)	InChI=1S/C6H11N3/c1-2-3-5-4-8-9-6(5)7/h4H,2-3H2,1H3,(H3,7,8,9)
