20
gdb 86732	3.58183	1.06981	0.87857	3.1712	85.38	-0.2056	0.0019	0.2074	1363.7304	0.170725	-403.201436	-403.192071	-403.191127	-403.236356	34.182	
C	-0.1028351926	 1.5291725721	 0.0384434922	-0.390894
C	 0.006677942	-0.0019666064	-0.0179032451	-0.046322
C	 0.8828467973	-0.5099365704	-1.2033093698	-0.177732
N	 1.9616289168	-1.291715967	-0.5705738517	-0.092219
C	 1.7814106179	-1.2892725471	 0.8173366148	 0.002278
C	 0.7026157055	-0.5992160818	 1.1887443124	-0.169143
C	 2.9473412636	-1.8768878298	-1.320930971	 0.393392
C	 4.0089732876	-2.6579523309	-0.5631187924	-0.501329
O	 2.9537476406	-1.7661175227	-2.5357087755	-0.369708
H	 0.888428073	 1.986688713	 0.1226032313	 0.120684
H	-0.5843252198	 1.9213906469	-0.863762612	 0.117952
H	-0.696143745	 1.8488276888	 0.9013154938	 0.115149
H	-1.0089841311	-0.4089194551	-0.1081712598	 0.087503
H	 0.3335855263	-1.1446189843	-1.9032060061	 0.128488
H	 1.3173923948	 0.3098419639	-1.7833720188	 0.126858
H	 2.4862294538	-1.8180891205	 1.4419445496	 0.128784
H	 0.3695854151	-0.4628068659	 2.2078787521	 0.101551
H	 4.5532641435	-2.0178826776	 0.1389665526	 0.137992
H	 3.5695407612	-3.4820469295	 0.0081917916	 0.138028
H	 4.7089166595	-3.0625728857	-1.2933133982	 0.148689
34.3866	106.0348	144.8398	148.7786	193.068	240.9585	313.9908	334.7412	403.5465	532.2341	554.0838	595.2011	617.4556	731.1183	744.9465	840.5995	859.1851	918.3265	930.5069	935.3488	969.3987	1044.6184	1050.9325	1082.6445	1115.6574	1146.5969	1150.817	1233.5534	1252.6743	1306.2614	1321.7631	1348.3151	1375.5759	1398.7175	1411.0088	1446.9028	1476.3218	1486.585	1495.6213	1496.9003	1516.5025	1682.4101	1758.3774	3008.9037	3029.3158	3042.7892	3058.6703	3096.1586	3100.4887	3105.3719	3105.9988	3161.8833	3228.0312	3254.5902
CC1CN(C=C1)C(C)=O	C[C@H]1CN(C=C1)C(=O)C	
InChI=1S/C7H11NO/c1-6-3-4-8(5-6)7(2)9/h3-4,6H,5H2,1-2H3	InChI=1S/C7H11NO/c1-6-3-4-8(5-6)7(2)9/h3-4,6H,5H2,1-2H3/t6-/m1/s1
