21
gdb 95016	2.50401	1.78906	1.37784	1.61	80.02	-0.2354	0.0779	0.3133	1029.8994	0.184769	-387.062777	-387.055026	-387.054082	-387.094827	31.162	
C	-0.7531615882	 1.3496228317	-0.0032458515	-0.409548
C	 0.0093096	 0.0247413798	-0.0278470247	-0.005708
C	 1.0503084474	-0.0825570743	-1.1735236072	-0.09886
O	 2.1473112362	-0.8729195094	-0.7153197789	-0.2709
C	 2.1457890099	-0.9493343002	 0.6993433514	 0.099225
C	 2.9767365631	 0.064515292	 1.5113584903	-0.064369
C	 2.6541873108	 1.4766122512	 1.1264951282	-0.290494
C	 1.6758075745	 0.7325463987	 1.9930656465	-0.071621
C	 0.8354117046	-0.3107922363	 1.2272437309	-0.056393
H	-0.0803837755	 2.192712696	 0.1804208737	 0.125712
H	-1.2662085197	 1.5286572854	-0.9544549819	 0.114141
H	-1.5126559599	 1.3517357305	 0.7852881146	 0.114662
H	-0.7148493051	-0.7881298838	-0.1605871083	 0.077303
H	 0.6357330094	-0.5708672482	-2.0630008865	 0.098632
H	 1.3966018081	 0.9144231009	-1.482585701	 0.092691
H	 2.3367049561	-1.9859116424	 0.990488912	 0.076676
H	 3.8646941699	-0.1835586973	 2.0800306456	 0.082317
H	 3.2328455701	 2.227338251	 1.6565421519	 0.111705
H	 2.440214178	 1.7473784056	 0.0996362816	 0.116875
H	 1.4368089825	 1.084039127	 2.9894591382	 0.085027
H	 0.2864755478	-0.9514810881	 1.9199833551	 0.072928
111.8146	150.7752	204.057	223.4203	308.817	365.5724	485.2317	542.6015	603.0111	661.0963	750.5638	759.9385	788.0754	831.0009	889.5522	921.873	936.6855	949.0903	974.1527	983.172	1004.5316	1023.6611	1046.7723	1064.9999	1072.4767	1079.6257	1133.4772	1137.9308	1175.3949	1187.3942	1210.6615	1229.5296	1255.7426	1293.9254	1309.4502	1334.3123	1352.4515	1362.681	1375.7389	1397.5315	1411.5417	1493.8519	1497.1598	1499.8943	1537.4333	2991.8366	3021.2699	3033.5092	3051.5763	3065.7416	3089.7964	3095.8918	3110.0426	3135.7896	3176.6492	3187.1609	3216.4015
CC1COC2C3CC3C12	C[C@H]1CO[C@H]2[C@H]3C[C@H]3[C@@H]12	
InChI=1S/C8H12O/c1-4-3-9-8-6-2-5(6)7(4)8/h4-8H,2-3H2,1H3	InChI=1S/C8H12O/c1-4-3-9-8-6-2-5(6)7(4)8/h4-8H,2-3H2,1H3/t4-,5+,6-,7+,8-/m0/s1
