21
gdb 84951	1.99844	1.771	1.2774	1.0156	86.15	-0.235	0.0114	0.2464	1115.8721	0.183695	-387.078368	-387.069654	-387.068709	-387.112257	33.482	
C	 0.0551233633	 1.5083501662	 0.3453608892	-0.392787
C	-0.129722124	 0.0075892513	 0.0166011835	-0.059997
C	 0.0183768928	-0.294844741	-1.4685457627	-0.089521
C	 1.0926226964	-0.2863967984	-2.2557953481	-0.034784
C	 2.5253895007	 0.0574512286	-1.9640547978	-0.135401
O	 2.8285930251	 0.4950029398	-0.6584625147	-0.228429
C	 3.1316683365	-0.5101777938	 0.2827115134	-0.135395
C	 1.979758649	-1.11631301	 1.0322817653	-0.034792
C	 0.6683587433	-0.9026462105	 0.9404932799	-0.089478
H	 1.0804169952	 1.8210219876	 0.1476999705	 0.145158
H	-0.6224878104	 2.1157727859	-0.2637707646	 0.105035
H	-0.1737792198	 1.6961104417	 1.3996448483	 0.105035
H	-1.1782136625	-0.2166792217	 0.2429252462	 0.073105
H	-0.9190075996	-0.5555302109	-1.956135641	 0.08653
H	 0.9442282511	-0.5391060858	-3.3061775552	 0.082866
H	 3.1691150068	-0.7975256693	-2.2369205976	 0.099023
H	 2.8198184324	 0.8810432382	-2.630302998	 0.117707
H	 3.7193802014	-1.3134992938	-0.195907357	 0.099033
H	 3.804007737	-0.0401083051	 1.014743993	 0.117699
H	 2.3187003572	-1.8248495738	 1.7887632467	 0.082868
H	 0.0513317782	-1.4626567154	 1.6405445307	 0.086524
27.1227	144.2505	228.3054	230.2606	256.3097	260.5213	341.2971	425.4827	454.7811	480.7914	574.9096	689.6595	708.4675	739.9821	779.4401	818.5608	858.0936	877.3512	967.6005	993.4902	997.8799	1019.4008	1020.7287	1044.4724	1069.1866	1107.1434	1131.9954	1184.1632	1276.766	1281.3518	1302.0677	1332.5831	1351.1171	1388.9935	1393.8134	1395.5028	1417.7997	1419.9931	1438.1209	1465.2726	1481.0889	1491.2584	1517.4664	1734.5682	1744.0911	2946.6027	2951.7122	3014.8221	3018.2715	3024.801	3036.2818	3097.9038	3115.1221	3116.2344	3143.2196	3146.507	3157.713
CC1C=CCOCC=C1	C[C@H]1C=CCOCC=C1	
InChI=1S/C8H12O/c1-8-4-2-6-9-7-3-5-8/h2-5,8H,6-7H2,1H3/b4-2-,5-3-	InChI=1S/C8H12O/c1-8-4-2-6-9-7-3-5-8/h2-5,8H,6-7H2,1H3/b4-2-,5-3-
