19
gdb 41725	3.27934	1.71471	1.70743	1.8342	72.43	-0.2298	0.087	0.3168	892.9002	0.1641	-423.034331	-423.028178	-423.027234	-423.06452	26.421	
C	-0.0280729906	 1.5529237609	 0.0761654022	-0.078493
O	 1.3553667786	 1.9375649703	-0.0459608028	-0.288936
C	 2.1199748022	 0.7463832443	 0.0841253737	 0.118934
C	 2.1193222593	-0.1348140994	-1.1917188572	 0.080454
C	 0.5984554448	-0.2699782102	-1.4678808919	-0.234093
C	 0.0209443733	 0.0291916601	-0.0503963001	-0.063142
C	 1.2521456411	-0.2708809659	 0.8561176799	-0.067818
C	 1.9315458584	-1.6050318865	 0.5452786883	-0.110531
O	 2.6065328586	-1.3867507292	-0.7111393502	-0.273174
H	-0.4240437449	 1.8887157029	 1.0455968356	 0.091186
H	-0.6052550128	 2.0327725427	-0.7216573406	 0.103453
H	 3.109255623	 0.9832168659	 0.4756864204	 0.083355
H	 2.7387650532	 0.1805653081	-2.0306215937	 0.078009
H	 0.2319816522	 0.4409455608	-2.2134255593	 0.10289
H	 0.3810812735	-1.2805729956	-1.8212048015	 0.108218
H	-0.9099893875	-0.4815237863	 0.1988619231	 0.069735
H	 1.0939967142	-0.0698975326	 1.9164591055	 0.074947
H	 2.6767028772	-1.877838549	 1.3012914199	 0.106971
H	 1.2187111462	-2.4364220615	 0.4552520487	 0.098036
230.5557	261.343	353.7924	377.5875	459.8532	521.3843	648.4256	723.7832	749.3696	804.3494	850.6977	876.2387	893.7947	925.7784	945.9405	960.0309	971.828	980.9489	1002.1432	1021.016	1052.5946	1079.8741	1089.2679	1097.5313	1147.85	1175.8533	1193.4313	1206.97	1233.2242	1257.3179	1271.8317	1283.1471	1302.3492	1324.1007	1329.4658	1345.4171	1379.6273	1398.0397	1487.4106	1527.575	1528.0408	2996.7658	3004.5753	3052.0994	3060.0556	3064.4012	3104.7424	3110.4473	3114.3347	3121.8513	3132.4016
C1OC2C3CC1C2CO3	C1O[C@@H]2[C@@H]3C[C@H]1[C@H]2CO3	
InChI=1S/C7H10O2/c1-4-2-9-7-5(4)3-8-6(1)7/h4-7H,1-3H2	InChI=1S/C7H10O2/c1-4-2-9-7-5(4)3-8-6(1)7/h4-7H,1-3H2/t4-,5-,6+,7+/m1/s1
