20
gdb 28433	2.97542	1.29881	0.91516	1.3335	92.63	-0.1904	0.0138	0.2043	1297.9813	0.171994	-366.095006	-366.085993	-366.085049	-366.128079	35.023	
C	-0.0174639876	 1.5315534816	-0.0173232222	-0.49617
C	 0.0129721579	 0.023251342	-0.0034278542	 0.202984
C	 0.0089932574	-0.6989651336	-1.1966010127	-0.168207
C	 0.0350816078	-2.0885708201	-1.2213711263	-0.200264
C	 0.0677228955	-2.807708556	-0.023584991	 0.312549
N	 0.1584764316	-4.2046209641	-0.0211088932	-0.592119
C	 0.0703151167	-2.0892414594	 1.1788706323	-0.269955
C	 0.0443975121	-0.697060769	 1.2062612816	 0.261923
C	 0.0480071968	 0.0257469819	 2.5311243237	-0.4948
H	 0.8607159583	 1.9661479503	 0.4765425929	 0.122314
H	-0.0403633085	 1.9115313057	-1.0422238191	 0.116553
H	-0.8968350799	 1.9314389974	 0.5031377134	 0.121383
H	-0.0179317504	-0.1580700455	-2.1386967886	 0.08215
H	 0.0339089899	-2.617573224	-2.1699893044	 0.07638
H	-0.2176169569	-4.6464403783	-0.8479874942	 0.242606
H	-0.1988468783	-4.6435253847	 0.8155961606	 0.242286
H	 0.097585003	-2.6365955219	 2.118156671	 0.070039
H	 0.9158668482	 0.689414888	 2.6263213357	 0.12759
H	-0.8410034992	 0.6568223199	 2.65029058	 0.126188
H	 0.0729114756	-0.6778244	 3.3671619346	 0.116571
133.1042	143.3118	169.5844	216.9788	284.01	297.5861	310.5798	330.9296	451.5164	453.1839	485.6921	559.7798	578.0721	643.5366	727.7925	745.1412	759.0101	824.6327	865.6231	926.1853	957.3015	1011.6445	1023.4669	1042.6673	1070.779	1116.6446	1140.6101	1190.3078	1239.7297	1300.3243	1332.2795	1346.741	1410.2251	1422.4587	1462.8053	1477.0226	1492.904	1496.9702	1502.3374	1539.7453	1618.2981	1651.6614	1665.4854	3016.3132	3023.578	3060.0183	3071.0321	3107.2969	3113.0923	3149.2501	3154.266	3173.2437	3556.487	3653.3273
CC1=CC=C(N)C=C1C	Cc1ccc(N)cc1C	
InChI=1S/C8H11N/c1-6-3-4-8(9)5-7(6)2/h3-5H,9H2,1-2H3	InChI=1S/C8H11N/c1-6-3-4-8(9)5-7(6)2/h3-5H,9H2,1-2H3
