17
gdb 6331	5.28624	1.13129	0.9445	0.8311	70.67	-0.2199	-0.0011	0.2188	1225.3978	0.141159	-397.234171	-397.224793	-397.223849	-397.268999	32.686	
C	-0.4198816545	 1.7331639366	 0.7302113414	-0.333398
N	-0.7542146055	 0.3312170901	 0.5852185197	-0.330915
C	 0.2165921377	-0.4991485479	 0.5569327292	 0.463211
N	 1.5559087134	-0.2582939902	 0.6664154646	-0.565553
N	-0.1478261607	-1.859941084	 0.4476877102	-0.374352
C	 0.6467622568	-2.9598104345	 0.2578418321	 0.428201
C	-0.1212277473	-4.2666513885	 0.167749015	-0.493655
O	 1.8656610494	-2.9137349965	 0.1775814966	-0.376112
H	 0.1623999307	 2.1244464227	-0.1219287953	 0.101412
H	-1.3400342484	 2.3206341317	 0.7835846484	 0.122422
H	 0.1604448409	 1.9407065971	 1.6438681564	 0.110121
H	 1.8671848009	 0.6805691341	 0.4872062523	 0.256618
H	 2.1731296221	-1.0295104805	 0.4390413111	 0.281895
H	-1.1505976586	-1.9732865733	 0.4600059712	 0.261595
H	-0.591542276	-4.498595204	 1.1290920118	 0.150447
H	-0.9122747844	-4.212028888	-0.5867049916	 0.14245
H	 0.5754696733	-5.0630514049	-0.0905395231	 0.155612
37.9682	82.1233	111.6595	153.8559	189.7812	249.4084	315.3859	367.7882	396.2437	413.9278	566.7992	577.0723	622.344	679.3646	696.6349	734.5181	913.4223	962.2771	1002.7065	1053.2703	1072.5011	1115.6332	1140.2227	1208.8064	1257.156	1389.9666	1406.5662	1440.2566	1466.3061	1483.9171	1494.3345	1505.6667	1513.9262	1618.647	1749.7518	1770.7816	2950.4669	2994.766	3046.5325	3096.4069	3110.0778	3166.9572	3507.8499	3626.1665	3701.3362
CN=C(N)NC(C)=O	CN=C(N)NC(=O)C	
InChI=1S/C4H9N3O/c1-3(8)7-4(5)6-2/h1-2H3,(H3,5,6,7,8)	InChI=1S/C4H9N3O/c1-3(8)7-4(5)6-2/h1-2H3,(H3,5,6,7,8)
