17
gdb 85561	2.80718	1.41348	1.09832	5.5276	70.53	-0.2357	0.012	0.2477	1113.6346	0.136312	-455.194998	-455.186332	-455.185388	-455.228505	32.219	
C	 0.465600143	 1.3403762191	-0.3036291707	-0.398065
C	-0.0916638662	-0.0080596081	 0.1635502995	 0.036819
O	-0.1010506564	-0.9401200887	-0.9258521009	-0.231634
C	 0.959611324	-1.7623333652	-1.1367712337	 0.396528
O	 0.9943738309	-2.4387631894	-2.1265493287	-0.323849
C	 2.0375773834	-1.7794231158	-0.0626626997	-0.308814
N	 1.6530978571	-1.3585808658	 1.2704102372	-0.2971
C	 0.6685058105	-0.5561788477	 1.3578078388	 0.35667
N	 0.198774569	-0.1494694631	 2.586557441	-0.545915
H	 1.5246351705	 1.2563869878	-0.5640643684	 0.137562
H	-0.0851374899	 1.6817860392	-1.1834729854	 0.144267
H	 0.3676270816	 2.0938830674	 0.4841722204	 0.120607
H	-1.1477074818	 0.107260133	 0.4293544843	 0.111857
H	 2.4230637561	-2.802452318	-0.0307245681	 0.147686
H	 2.8732848656	-1.1645653687	-0.4315403328	 0.136368
H	 0.8279464006	-0.317495477	 3.3579577951	 0.261266
H	-0.320994158	 0.7114848207	 2.6390653221	 0.255748
59.7513	101.5043	223.4617	225.2121	243.1976	331.7083	367.3757	402.4263	440.0281	485.7125	531.2637	564.6207	593.6099	701.0699	745.5428	780.8611	850.0172	955.1918	995.162	1010.436	1060.5156	1107.4037	1150.2235	1192.0881	1209.9531	1250.6682	1306.135	1339.8354	1380.4818	1404.4156	1434.7163	1466.0362	1486.6418	1495.1149	1632.2359	1754.9077	1853.4923	2993.6071	3043.8111	3054.8638	3084.891	3117.124	3131.3276	3578.0399	3697.4036
CC1OC(=O)CN=C1N	C[C@H]1OC(=O)CN=C1N	
InChI=1S/C5H8N2O2/c1-3-5(6)7-2-4(8)9-3/h3H,2H2,1H3,(H2,6,7)	InChI=1S/C5H8N2O2/c1-3-5(6)7-2-4(8)9-3/h3H,2H2,1H3,(H2,6,7)/t3-/m1/s1
