17
gdb 17474	4.24732	1.9636	1.67398	2.5856	66.61	-0.2272	0.0721	0.2994	808.1742	0.143527	-363.81452	-363.807884	-363.80694	-363.844765	27.264	
O	-0.0028688745	 1.3836215867	 0.0212465146	-0.462371
C	 0.0274693699	-0.011576229	 0.0078508736	 0.398717
C	-0.4231363742	-0.7523602985	-1.2231694995	-0.365405
C	-1.2509008158	-0.8006892646	 0.0555213096	-0.045138
N	-1.1615800321	-1.8908828066	 1.0208176346	-0.100262
C	-0.247785939	-2.9969075737	 0.7078263078	-0.24849
C	 0.2194772789	-1.8783989193	 1.5643430181	-0.00842
C	 1.0057002625	-0.713498678	 0.9633632063	-0.327505
H	 0.6540533112	 1.7038719505	-0.6061192466	 0.282383
H	-0.8518626998	-0.142303431	-2.0121492958	 0.114729
H	 0.1277700077	-1.6152456062	-1.5796402054	 0.112884
H	-2.211626335	-0.2995167867	 0.0414260621	 0.106766
H	-0.5217930424	-3.94427819	 1.1645762484	 0.114962
H	 0.1515630168	-3.0943864429	-0.2968834837	 0.110639
H	 0.3091162569	-2.0391056055	 2.635459537	 0.093391
H	 1.9341827324	-1.0314949779	 0.475851015	 0.102985
H	 1.2713612866	 0.001888503	 1.7466336039	 0.120134
189.6589	247.0067	285.4614	367.6138	395.5136	438.9576	503.2244	594.9934	663.0189	719.2298	766.3002	812.5993	868.4513	881.1689	903.1798	929.7016	974.9841	998.2633	1039.878	1060.1754	1072.0514	1089.293	1115.057	1128.291	1161.8046	1182.1963	1245.0048	1272.5402	1286.3689	1289.3799	1329.3062	1385.9479	1397.3253	1475.1818	1488.7075	1524.6192	3042.6913	3095.5167	3113.323	3133.5971	3139.1703	3181.6138	3193.8097	3219.4924	3799.4005
OC12CC1N1CC1C2	O[C@]12C[C@H]1N1C[C@H]1C2	
InChI=1S/C6H9NO/c8-6-1-4-3-7(4)5(6)2-6/h4-5,8H,1-3H2	InChI=1S/C6H9NO/c8-6-1-4-3-7(4)5(6)2-6/h4-5,8H,1-3H2/t4-,5-,6-,7?/m1/s1
