15
gdb 23300	3.23659	1.30222	0.99008	3.274	69.74	-0.2519	-0.0241	0.2277	1130.1715	0.112234	-453.906991	-453.899328	-453.898384	-453.939511	29.003	
O	-0.1207458427	 1.3310264497	 0.0775189842	-0.385431
N	 0.03689549	-0.0597320677	 0.0331985575	-0.233458
C	-1.0908078145	-0.6426512431	-0.0511162153	 0.41905
C	-2.4731381739	-0.0523960891	-0.0306576351	-0.446544
C	-3.4015213677	-1.271521665	 0.0666180678	 0.387159
O	-4.5971445327	-1.2553235976	 0.0844947652	-0.297207
N	-2.6279166902	-2.4895724957	 0.1394240536	-0.135086
C	-1.961676805	-2.7747493569	-1.1523763557	-0.252513
C	-1.2040239005	-2.1275900079	-0.0481384313	-0.112302
H	 0.7870681214	 1.6407207004	 0.1696263406	 0.312852
H	-2.6122825563	 0.6111590943	 0.8294867208	 0.172688
H	-2.7158587782	 0.5442107502	-0.9158150587	 0.164737
H	-1.813197302	-3.8299020762	-1.3578162457	 0.144693
H	-2.2403688597	-2.1741932054	-2.0146083079	 0.136269
H	-0.474769058	-2.7017054199	 0.5121543701	 0.125092
69.8191	151.3873	196.7639	258.3406	364.6747	428.4502	463.1661	481.8418	508.5315	593.8394	619.0184	690.4042	756.4149	824.8564	852.9402	905.5929	954.6499	984.7233	1006.8217	1068.9015	1090.8645	1115.3423	1141.4449	1164.2171	1237.4885	1258.5564	1269.2347	1344.32	1415.3887	1432.8134	1506.5609	1758.7398	1875.3446	3061.0726	3093.6723	3114.6436	3181.8536	3208.2375	3814.1772
ON=C1CC(=O)N2CC12	ON=C1CC(=O)N2C[C@@H]12	
InChI=1S/C5H6N2O2/c8-5-1-3(6-9)4-2-7(4)5/h4,9H,1-2H2	InChI=1S/C5H6N2O2/c8-5-1-3(6-9)4-2-7(4)5/h4,9H,1-2H2/t4-,7?/m0/s1
