18
gdb 85381	1.87546	1.71111	0.94584	4.5697	73.37	-0.2432	-0.0247	0.2185	1220.0491	0.147584	-439.157595	-439.148934	-439.14799	-439.191475	32.335	
C	-0.2330751265	 1.4811483964	 0.0458823541	-0.413889
C	 0.0482986714	-0.0194258426	 0.0588224101	 0.033977
C	 0.6473560728	-0.5071040441	-1.2663845293	-0.298704
C	 1.1691317743	-1.9408139989	-1.20666086	 0.380256
O	 1.4765810141	-2.5527080337	-2.1994001503	-0.301467
C	 1.2856927187	-2.5450690371	 0.1880955625	-0.425632
C	 1.5960188325	-1.5444474864	 1.2991850239	 0.382373
O	 2.3164526301	-1.804478662	 2.2410420861	-0.362146
N	 0.9774234659	-0.3359679223	 1.1403851969	-0.309279
H	 0.6900439037	 2.0463239381	-0.1198270985	 0.132234
H	-0.9372007469	 1.729663672	-0.7526107572	 0.133184
H	-0.6727713075	 1.8064727632	 0.9944627348	 0.125943
H	-0.9068039237	-0.5441273268	 0.2241930655	 0.091387
H	-0.0730314974	-0.4312415426	-2.0861135912	 0.133929
H	 1.5030128722	 0.1286179888	-1.5311976409	 0.140293
H	 0.3068494561	-2.993170238	 0.4188858963	 0.152859
H	 2.0219889002	-3.3482466809	 0.19725982	 0.155919
H	 1.0935039101	 0.3171596971	 1.9015137871	 0.248762
52.9	99.2758	135.1083	256.6212	270.216	376.2267	389.0063	434.503	464.317	492.3257	529.7558	550.2428	577.1338	645.0643	786.2003	851.1373	908.7974	918.6485	952.1106	991.661	1065.5936	1099.4645	1152.6746	1179.5645	1213.8042	1237.177	1264.3446	1297.0296	1344.1966	1364.1018	1390.013	1414.3285	1428.7646	1434.0126	1459.4446	1494.277	1502.2497	1803.6084	1826.8791	2963.4636	3011.7731	3031.0257	3037.3909	3097.7067	3106.8674	3121.7266	3145.9856	3613.2083
CC1CC(=O)CC(=O)N1	C[C@H]1CC(=O)CC(=O)N1	
InChI=1S/C6H9NO2/c1-4-2-5(8)3-6(9)7-4/h4H,2-3H2,1H3,(H,7,9)	InChI=1S/C6H9NO2/c1-4-2-5(8)3-6(9)7-4/h4H,2-3H2,1H3,(H,7,9)/t4-/m0/s1
