19
gdb 73168	2.45302	1.43477	1.33158	2.7232	79.06	-0.2308	0.0196	0.2504	1081.3425	0.160094	-382.048397	-382.040066	-382.039122	-382.081512	31.761	
C	-0.2235415616	 1.3959354453	-0.1049779366	-0.47426
C	-0.0017252575	-0.094341871	-0.004607868	 0.372194
C	-1.2038182758	-0.9850433416	 0.398152482	-0.318391
C	-0.3357259608	-1.478332195	 1.5861073007	-0.168446
N	 0.8238580042	-0.6282046837	 1.1609230031	-0.156869
C	 1.7282024204	-1.3393457074	 0.2133479221	-0.188197
C	 1.0128856336	-0.714495198	-1.0281055245	-0.220818
C	 0.4984899678	-1.6155674625	-2.0408311592	 0.2787
N	 0.0654126511	-2.3499726823	-2.8230698853	-0.339095
H	 0.7278187004	 1.9336072544	-0.17027665	 0.123621
H	-0.8184543411	 1.6356595849	-0.9941564771	 0.128738
H	-0.7604271801	 1.7642458769	 0.7745879085	 0.128515
H	-2.0956004815	-0.4203254763	 0.678088436	 0.111191
H	-1.4891071043	-1.7433060236	-0.3340190455	 0.135064
H	-0.7026871764	-1.1857104525	 2.5736353647	 0.112692
H	-0.1120035689	-2.549950247	 1.6057691609	 0.110017
H	 2.7740379797	-1.0402889763	 0.3178787129	 0.120475
H	 1.6667647813	-2.4305866677	 0.2670145389	 0.121199
H	 1.6161912495	 0.0580563134	-1.5114733436	 0.123671
56.4346	141.6932	175.7298	227.7668	268.5814	339.5105	364.5868	432.6693	516.8952	543.8799	630.6305	667.1324	751.6283	793.2154	812.0952	886.5239	920.3248	953.9438	959.2506	979.133	1030.2034	1040.9224	1086.1518	1133.0688	1163.4438	1179.0753	1202.1934	1215.8186	1243.0516	1264.038	1287.3649	1307.0692	1315.5041	1352.1642	1408.6865	1481.4792	1483.4663	1492.4411	1497.2532	1518.2623	2347.2992	3028.9473	3043.1013	3050.7304	3072.0928	3077.7458	3089.6603	3099.8528	3103.9134	3109.3603	3127.141
CC12CCN1CC2C#N	C[C@]12CCN1C[C@H]2C#N	
InChI=1S/C7H10N2/c1-7-2-3-9(7)5-6(7)4-8/h6H,2-3,5H2,1H3	InChI=1S/C7H10N2/c1-7-2-3-9(7)5-6(7)4-8/h6H,2-3,5H2,1H3/t6-,7-/m1/s1
