16
gdb 125247	4.36812	0.86946	0.77232	2.7379	73.29	-0.2566	-0.0374	0.2191	1445.4217	0.122584	-437.901595	-437.892806	-437.891862	-437.936855	30.294	
C	-0.1037648775	 1.4833736209	-0.1175807185	-0.491373
C	-0.0751227009	 0.0064875811	 0.0548764319	 0.446232
C	-1.0092557463	-0.9737428909	-0.0770166295	-0.418207
C	-0.3033260615	-2.1681867982	 0.2461971813	 0.365707
C	-0.8072432632	-3.5797788442	 0.2393601173	-0.378848
C	-0.9780551255	-4.0994811735	-1.1834221365	 0.156725
O	-1.989945432	-4.5867630163	-1.6110364215	-0.230883
N	 0.9518749555	-1.9203229634	 0.5412771405	-0.201709
O	 1.0989514558	-0.5408727033	 0.4218517874	-0.206833
H	 0.1584438336	 1.9912043898	 0.8162318602	 0.15444
H	 0.6156966297	 1.8017932425	-0.878821527	 0.154476
H	-1.1002458389	 1.8075388156	-0.4224860759	 0.144813
H	-2.0443213602	-0.867836144	-0.3569975939	 0.126377
H	-0.063765379	-4.2129809778	 0.7383983135	 0.150552
H	-1.7637196813	-3.6730298602	 0.7598270609	 0.134549
H	-0.0675027983	-3.9932226179	-1.8140290202	 0.093983
39.2018	56.8335	94.1976	130.2538	238.1786	258.588	386.0361	398.916	456.5285	610.1038	646.4091	712.8434	738.8503	815.4179	840.8459	931.7556	999.6073	1013.7932	1032.2881	1036.6318	1060.3653	1066.1184	1153.0746	1197.4539	1280.5448	1301.385	1413.268	1418.5788	1443.8632	1457.7151	1473.6232	1489.8368	1519.252	1642.7923	1838.0738	2891.0514	3044.8102	3046.0043	3102.1816	3114.8737	3141.5403	3274.6848
CC1=CC(CC=O)=NO1	Cc1cc(CC=O)no1	
InChI=1S/C6H7NO2/c1-5-4-6(2-3-8)7-9-5/h3-4H,2H2,1H3	InChI=1S/C6H7NO2/c1-5-4-6(2-3-8)7-9-5/h3-4H,2H2,1H3
