16
gdb 8045	3.50472	1.85685	1.51824	5.4159	70.08	-0.2539	0.0252	0.2791	870.1023	0.131502	-342.734867	-342.727733	-342.726789	-342.766043	27.244	
C	-0.0081287777	 1.4753953044	 0.0525305335	-0.514395
C	 0.015008654	-0.0207616809	-0.0305189174	 0.330839
C	 0.6101511285	-0.9570235982	-1.1265315939	-0.279718
C	 0.0889373513	-1.8569679315	 0.0214596677	-0.022373
N	 0.6462781884	-0.89449107	 1.0514370519	-0.337282
C	-1.2099507743	-1.0011332363	 0.0354284998	-0.171046
C	-2.0331478834	-0.9925785415	 1.2320152923	 0.283122
N	-2.7435001194	-0.9769284516	 2.1438432151	-0.33229
H	 1.0094468441	 1.8793770406	 0.0328958349	 0.128639
H	-0.5589531588	 1.9020660315	-0.7915833835	 0.130558
H	-0.4888209503	 1.7959220255	 0.9813497393	 0.153863
H	 0.1121028213	-1.0046330085	-2.1008309705	 0.099934
H	 1.6973983563	-0.9163268503	-1.2319521622	 0.101685
H	 0.1596380203	-2.9373343353	 0.1409122946	 0.1033
H	 1.6663155066	-0.8571571246	 0.9566013545	 0.209057
H	-1.8266274269	-1.0517117334	-0.8637065662	 0.116105
126.6332	170.5068	205.3416	302.3232	311.2508	432.1097	503.485	532.7956	644.6001	650.2947	757.2409	793.7755	882.2842	896.5921	914.6249	959.4115	1017.9736	1033.7079	1075.3876	1085.4857	1112.0679	1145.9395	1174.6008	1197.6016	1220.9082	1278.3137	1295.9253	1325.6994	1382.2413	1414.9537	1482.6957	1487.4164	1513.0237	2358.5635	3037.1421	3039.2694	3103.0421	3107.3506	3113.8525	3119.74	3129.8678	3386.6877
CC12CC(N1)C2C#N	C[C@@]12C[C@@H](N1)[C@H]2C#N	
InChI=1S/C6H8N2/c1-6-2-5(8-6)4(6)3-7/h4-5,8H,2H2,1H3	InChI=1S/C6H8N2/c1-6-2-5(8-6)4(6)3-7/h4-5,8H,2H2,1H3/t4-,5-,6+/m1/s1
