18
gdb 116874	4.22253	0.56138	0.5167	3.9176	83.26	-0.2623	0.0113	0.2735	2123.6478	0.144799	-401.916982	-401.906318	-401.905374	-401.955436	35.625	
C	-0.2944526836	 1.4806541071	-0.4360383133	-0.220938
O	-0.3756728435	 0.0735337808	-0.4740095288	-0.228685
C	 0.8958094864	-0.5267172136	-0.6104913008	-0.200927
C	 0.761394689	-1.9780276226	-0.6357017618	-0.001639
C	 0.6749952956	-3.1768632471	-0.6483767997	 0.188781
C	 0.5471111871	-4.6344977246	-0.6941111588	-0.307104
C	 0.7535687388	-5.2003328917	-2.1210897743	-0.381853
C	 1.4770322059	-5.2743740849	 0.2535992607	 0.290147
N	 2.2047729017	-5.7976887038	 0.9820036599	-0.32032
H	 0.3071648765	 1.8328731934	 0.4167049246	 0.108966
H	 0.1451781187	 1.8902724893	-1.3593282442	 0.107116
H	-1.3134741014	 1.8585764342	-0.3308963789	 0.134408
H	 1.3898617545	-0.1828090147	-1.5361993244	 0.118224
H	 1.5564782437	-0.2343517505	 0.2243432058	 0.123788
H	-0.4665429995	-4.9007422434	-0.3638502055	 0.161741
H	 1.7580524969	-4.9686340503	-2.4806087781	 0.148359
H	 0.6190811723	-6.2845462846	-2.1206721449	 0.139643
H	 0.024905441	-4.7472199929	-2.7963737974	 0.140293
10.4259	63.7173	77.0863	108.4818	163.196	215.2914	228.0182	234.8596	296.8108	333.5514	369.2641	472.6873	497.7117	574.5467	588.2871	764.75	867.8717	977.1487	996.7069	1027.3589	1073.5458	1090.6125	1145.9248	1182.1792	1189.6946	1220.7846	1253.202	1296.443	1323.5776	1408.1659	1410.7624	1478.156	1484.6134	1489.7121	1494.6865	1496.9759	1515.9986	2363.3761	2382.8829	2947.3	2966.009	2972.3112	3016.7201	3019.1853	3057.683	3124.224	3140.7173	3146.1243
COCC#CC(C)C#N	COCC#C[C@@H](C)C#N	
InChI=1S/C7H9NO/c1-7(6-8)4-3-5-9-2/h7H,5H2,1-2H3	InChI=1S/C7H9NO/c1-7(6-8)4-3-5-9-2/h7H,5H2,1-2H3/t7-/m1/s1
