19
gdb 119135	2.25593	1.45155	1.00009	7.6911	71.95	-0.2368	0.0274	0.2642	1208.7128	0.160368	-456.347043	-456.338121	-456.337177	-456.381084	33.415	
N	-0.9436373115	 1.4781937867	 0.4553036862	-0.50792
H	-2.0743056942	 0.9495187463	 1.6158007777	 0.326099
H	-0.7142295983	 0.6580810293	-0.0987047562	 0.251087
H	-1.2040423972	 2.2127289961	-0.1939851837	 0.252953
C	 0.203509657	 1.8793325555	 1.2885954057	-0.162972
C	 0.3207933075	 0.9999568687	 2.5444412396	-0.309361
C	-0.6962680115	 1.264706405	 3.6525619838	 0.149706
C	-0.1857551337	 1.4048971115	 5.0426633195	-0.256848
N	-0.6611804878	 2.5949547012	 4.3229256267	-0.333971
C	-2.1269570953	 0.7193978898	 3.5556579923	 0.389772
O	-2.7517819643	 0.4330571888	 4.5457623469	-0.33709
O	-2.6492315955	 0.5715777067	 2.339643121	-0.394048
H	 1.1505455602	 1.8416571595	 0.7326901324	 0.104968
H	 0.0482436193	 2.9222362449	 1.5845075649	 0.123999
H	 0.2866896998	-0.0573153693	 2.2495371072	 0.1159
H	 1.3203206869	 1.1621105345	 2.9641420975	 0.108136
H	-0.8310884392	 1.08294438	 5.8512180208	 0.152982
H	 0.8822982734	 1.28196467	 5.2019020519	 0.103576
H	 0.1379230344	 3.1191566451	 3.9686374358	 0.223032
52.5403	88.1701	206.5554	239.8755	251.6702	290.9853	326.8441	347.4321	385.5895	461.7228	511.5606	595.4181	737.529	751.2221	843.4635	864.0962	876.8052	900.5314	951.8368	972.4164	983.2712	999.1525	1033.3774	1082.8979	1092.6349	1144.9847	1154.996	1238.0442	1264.2618	1279.0739	1314.9663	1334.4547	1381.1012	1396.1671	1418.4727	1471.2498	1481.7052	1495.6308	1503.9018	1652.9281	1838.3114	3003.3294	3023.5747	3063.7176	3078.0159	3110.257	3118.0344	3226.761	3465.6663	3502.5322	3583.6252
[NH3+]CCC1(CN1)C([O-])=O	NCC[C@]1(CN1)C(=O)O	
InChI=1S/C5H10N2O2/c6-2-1-5(3-7-5)4(8)9/h7H,1-3,6H2,(H,8,9)	InChI=1S/C5H10N2O2/c6-2-1-5(3-7-5)4(8)9/h7H,1-3,6H2,(H,8,9)/t5-/m0/s1
