19
gdb 86429	2.54987	1.59812	1.17568	2.3031	69.68	-0.2461	0.063	0.3091	1069.0218	0.160861	-460.148721	-460.140747	-460.139803	-460.181072	31.38	
O	 0.0135544053	 1.381402488	-0.2278246838	-0.437893
C	 0.0404118148	-0.0129286873	 0.0311009186	 0.113094
C	 0.5659167862	-0.4091367983	 1.4234093457	-0.301784
C	-0.0566634164	-1.79815541	 1.689090165	 0.139725
O	-0.1489759031	-2.1590669258	 3.0470863997	-0.441856
C	-1.442410144	-1.7076257391	 1.0254296532	 0.080699
O	-2.3382991472	-0.952674937	 1.8807891224	-0.314706
C	-2.3942137014	 0.1380166784	 0.9230911203	-0.07974
C	-1.3928099862	-0.5644777568	-0.0146085324	-0.080899
H	 0.9123825704	 1.7175316872	-0.1574377273	 0.286233
H	 0.6329491649	-0.5293292355	-0.7416904384	 0.06984
H	 1.6572051078	-0.4150333617	 1.4916026963	 0.096154
H	 0.1877546964	 0.3022110231	 2.1664570406	 0.112306
H	 0.535219862	-2.5790193816	 1.1961340299	 0.084649
H	-0.8923121249	-1.6466031636	 3.3951920722	 0.288534
H	-1.8719867874	-2.6769762193	 0.7558531862	 0.077246
H	-3.4055142992	 0.253077601	 0.5182627504	 0.106224
H	-2.0618186179	 1.0893781883	 1.3487389131	 0.120932
H	-1.7497111001	-0.7558124199	-1.0257862814	 0.081244
114.665	138.2949	242.3094	254.4459	267.7612	345.1649	440.7256	486.483	503.7158	532.9121	584.3991	638.8783	796.0958	837.5911	870.1421	906.7842	935.3147	954.8069	990.3985	1010.8047	1063.3519	1073.9024	1098.2918	1104.7354	1130.3266	1159.8376	1183.1469	1214.5592	1237.658	1253.3031	1258.6926	1302.276	1315.4709	1334.1558	1351.1497	1361.1777	1387.2878	1427.7565	1446.2843	1491.0149	1529.5689	2963.2993	3036.2095	3036.9891	3049.7822	3066.4164	3091.5669	3101.5518	3119.3769	3745.5858	3823.2695
OC1CC(O)C2OCC12	O[C@H]1C[C@@H](O)[C@H]2OC[C@@H]12	
InChI=1S/C6H10O3/c7-4-1-5(8)6-3(4)2-9-6/h3-8H,1-2H2	InChI=1S/C6H10O3/c7-4-1-5(8)6-3(4)2-9-6/h3-8H,1-2H2/t3-,4-,5+,6-/m0/s1
