18
gdb 89272	2.52207	1.7703	1.3103	1.0772	70.71	-0.2542	0.0098	0.264	1006.8616	0.148194	-439.090012	-439.082087	-439.081143	-439.122319	30.94	
C	-0.1018926817	 1.5321427452	 0.2783190526	-0.466484
C	 0.0800039613	 0.059824557	-0.0340955178	 0.309512
C	-1.1852329246	-0.8546362729	 0.0628193915	-0.314732
C	-0.5157178309	-1.6464149222	 1.2352778107	 0.145094
O	-0.4449726417	-3.0423217757	 1.1728280964	-0.435553
C	 0.8010775925	-0.8613256456	 1.0064792641	-0.007256
O	 1.7462204119	-1.6064765642	 0.2025280016	-0.248122
C	 1.6676496426	-1.0623596296	-1.0502088764	 0.09427
N	 0.8234341911	-0.1530013965	-1.2920593015	-0.279845
H	 0.8646443669	 2.043060924	 0.3280600482	 0.123596
H	-0.6997553067	 2.0117488625	-0.5023940051	 0.134875
H	-0.6152853703	 1.668458289	 1.2358082643	 0.114301
H	-2.1221074578	-0.3505796953	 0.3118686686	 0.105601
H	-1.332237942	-1.4582264229	-0.8351766244	 0.111146
H	-0.9636292045	-1.3889520678	 2.2001323805	 0.093445
H	 0.2769531509	-3.2590470914	 0.569695629	 0.287808
H	 1.3312952019	-0.4529487	 1.8695251207	 0.086852
H	 2.3727306011	-1.4835609637	-1.7581689729	 0.145492
73.4146	223.5314	228.5372	257.2356	294.8067	334.6282	379.0943	414.0186	525.8703	593.5044	622.8417	671.6095	795.1381	830.6842	839.8835	914.1986	914.49	939.5416	953.1944	965.6638	1043.7865	1059.9172	1078.2647	1134.0694	1161.9486	1194.3878	1205.1286	1230.0189	1267.6968	1312.0108	1314.9098	1331.7081	1351.9742	1410.8149	1434.7601	1474.0711	1485.6244	1493.7837	1697.1657	3035.3125	3059.5543	3067.366	3088.8257	3106.8255	3113.8958	3129.1178	3217.2465	3777.6759
CC12CC(O)C1OC=N2	C[C@]12C[C@@H](O)[C@H]1OC=N2	
InChI=1S/C6H9NO2/c1-6-2-4(8)5(6)9-3-7-6/h3-5,8H,2H2,1H3	InChI=1S/C6H9NO2/c1-6-2-4(8)5(6)9-3-7-6/h3-5,8H,2H2,1H3/t4-,5-,6+/m1/s1
