15
gdb 53863	4.05877	0.84536	0.70273	3.1038	70.34	-0.2507	-0.0329	0.2178	1509.7599	0.110298	-453.93421	-453.924668	-453.923724	-453.969639	33.589	
N	-0.0118120828	 1.2797399581	 0.0034008034	-0.523235
C	 0.0347120349	-0.0730388343	-0.0007199817	 0.351716
O	 1.0427629461	-0.7450626823	-0.0122556649	-0.342504
C	-1.366784999	-0.6981584365	 0.0105622442	 0.355822
N	-2.3934387627	 0.0496010123	 0.0257676585	-0.547162
O	-1.2767117928	-2.0382463618	 0.0020285752	-0.210745
C	-2.5056682985	-2.7702961437	 0.0114202845	-0.268656
C	-2.2141175518	-4.1930499435	 0.0005655301	 0.282102
C	-2.0135007027	-5.3759240857	-0.0080512634	-0.378228
H	 0.8503026305	 1.7965539672	 0.0005672716	 0.265725
H	-0.9047562727	 1.7445364027	 0.0168679887	 0.279729
H	-3.2810436485	-0.4485683506	 0.0324396848	 0.234782
H	-3.0862446108	-2.5060417243	 0.9066740542	 0.145141
H	-3.1055385197	-2.496463781	-0.8680997653	 0.145136
H	-1.8243705596	-6.4212101565	-0.0159065099	 0.210376
41.1453	77.0263	102.7009	131.6693	232.4426	278.848	318.4229	336.6155	390.9724	470.9568	476.5716	572.5904	625.6916	627.8648	641.2055	691.1125	823.7785	834.7868	850.7076	986.2632	1013.4872	1037.4438	1095.7659	1144.5824	1259.3054	1282.403	1379.9493	1425.5862	1498.4354	1588.1293	1711.0457	1821.2285	2255.9871	2997.6539	3031.0253	3504.2528	3512.3664	3599.5294	3745.4611
NC(=O)C(=N)OCC#C	NC(=O)[C]([NH])OCC#C	
InChI=1S/C5H6N2O2/c1-2-3-9-5(7)4(6)8/h1,7H,3H2,(H2,6,8)	InChI=1S/C5H6N2O2/c1-2-3-9-5(7)4(6)8/h1,7H,3H2,(H2,6,8)
