18
gdb 17359	4.15327	1.2868	1.08765	0.0014	68.98	-0.2377	0.0845	0.3222	1100.3817	0.152733	-384.894265	-384.885908	-384.884964	-384.927326	31.487	
O	-0.1023327769	 1.4742834585	-0.0429853296	-0.417767
C	-0.0268716261	 0.0767298182	-0.0019463963	 0.085602
C	-0.4418388181	-0.6481419559	 1.2546918727	-0.338541
C	-1.3295949852	-0.6704515092	 0.0223473317	-0.008876
C	-2.6260577493	 0.0729581481	 0.0165345667	-0.008836
C	-3.5135471138	 0.0510805307	-1.2160123858	-0.338529
C	-3.9287911309	-0.6742430637	 0.040259901	 0.085585
O	-3.8533931497	-2.0718201881	 0.0808242354	-0.417772
H	 0.5990352215	 1.8232993374	 0.5164683372	 0.286629
H	 0.7861658976	-0.3494859784	-0.5903441503	 0.080942
H	 0.0811916826	-1.5529888076	 1.544596186	 0.108971
H	-0.7715304513	-0.0270568983	 2.0816974223	 0.110185
H	-1.3515481965	-1.6062693886	-0.5250762192	 0.092837
H	-2.604275344	 1.0085679393	 0.5643206278	 0.092828
H	-4.0365109159	 0.9560292525	-1.5057143189	 0.108978
H	-3.18365847	-0.569709405	-2.0431617358	 0.110181
H	-4.741947886	-0.2482383307	 0.6286443076	 0.080951
H	-4.5541364281	-2.4205993393	-0.4795562324	 0.28663
50.3185	128.9785	199.9944	209.5609	307.9795	308.2525	344.8935	429.0651	465.9601	500.8697	622.3792	749.2057	794.1089	818.6878	839.3108	871.0543	930.9725	988.0964	1005.6828	1030.0433	1032.7846	1054.8369	1063.3475	1129.9306	1132.1545	1172.247	1181.9405	1207.5458	1233.2287	1244.5116	1290.5676	1304.5598	1313.5913	1411.2689	1415.8739	1445.6137	1482.2427	1500.833	3091.5606	3091.9863	3126.9777	3127.3114	3167.0981	3176.2232	3216.4215	3217.0232	3807.5278	3807.5763
OC1CC1C1CC1O	O[C@H]1C[C@H]1[C@H]1C[C@H]1O	
InChI=1S/C6H10O2/c7-5-1-3(5)4-2-6(4)8/h3-8H,1-2H2	InChI=1S/C6H10O2/c7-5-1-3(5)4-2-6(4)8/h3-8H,1-2H2/t3-,4+,5-,6+
