20
gdb 121061	3.83543	0.84215	0.807	3.3693	76.2	-0.2369	0.038	0.2748	1493.6333	0.171752	-440.323693	-440.314446	-440.313502	-440.358559	33.329	
C	-0.2263031591	 1.3396995201	-0.42418773	-0.231492
O	-0.0709575523	-0.0342074856	-0.1569983592	-0.233948
C	 0.7054308864	-0.7015125437	-1.1271205951	-0.0587
C	 0.7775938845	-2.1833009292	-0.7647221688	-0.022262
C	-0.6268892765	-2.8411942327	-0.8005363944	-0.177402
N	-0.6906700205	-3.3892007853	-2.1441336268	-0.297108
C	 0.5191655115	-3.5660147833	-2.7597357941	 0.404578
O	 0.7053428554	-4.0949896785	-3.8333463507	-0.380231
C	 1.5757500049	-2.9748516377	-1.8174373927	-0.358151
H	 0.7419504231	 1.8642349517	-0.4403472502	 0.106778
H	-0.725825113	 1.5139493945	-1.3901895403	 0.107287
H	-0.842192307	 1.7609333068	 0.3739526852	 0.128822
H	 0.2620881956	-0.5760175399	-2.1306151628	 0.095597
H	 1.722925453	-0.2772072077	-1.1655201401	 0.09057
H	 1.2090652695	-2.2646928262	 0.2356254281	 0.089351
H	-0.7173384318	-3.626140101	-0.036782917	 0.102891
H	-1.4134466642	-2.1035772476	-0.6213278685	 0.127056
H	-1.5210722166	-3.8031147058	-2.5368997553	 0.25002
H	 2.2903540855	-2.3711305278	-2.3825632573	 0.126816
H	 2.1355398315	-3.8044792311	-1.37289351	 0.129528
56.6596	90.2193	113.6369	154.6251	189.864	235.0328	319.4419	368.4572	438.5309	488.4694	514.2994	595.9385	676.399	733.279	848.01	866.2405	910.17	953.5479	990.1479	1026.6998	1049.0285	1089.6697	1133.5017	1158.3582	1183.2811	1194.9868	1215.8409	1242.8104	1245.974	1266.4093	1276.5922	1311.9862	1349.6388	1374.4901	1422.4094	1445.2284	1469.4959	1480.8699	1486.2337	1502.4799	1527.1848	1539.1275	1831.8764	2949.2442	2973.7515	2981.3085	3002.4948	3017.5291	3057.6279	3084.9731	3090.2541	3106.8994	3115.7194	3643.3659
COCC1CNC(=O)C1	COC[C@H]1CNC(=O)C1	
InChI=1S/C6H11NO2/c1-9-4-5-2-6(8)7-3-5/h5H,2-4H2,1H3,(H,7,8)	InChI=1S/C6H11NO2/c1-9-4-5-2-6(8)7-3-5/h5H,2-4H2,1H3,(H,7,8)/t5-/m1/s1
