17
gdb 64828	3.05003	1.07923	0.97613	1.9421	70.07	-0.2616	-0.0842	0.1774	1266.822	0.132508	-458.980568	-458.971266	-458.970322	-459.015353	33.075	
C	-0.1962290514	 1.7169184094	-0.4587590866	-0.467653
C	-0.0992727553	 0.2402232163	-0.1704241324	 0.456159
C	 1.0907633321	-0.5687732423	-0.5829384788	-0.317152
C	 0.809599822	-0.3134671092	 0.8857833983	-0.301157
O	-1.3344654681	-0.4648369118	-0.3673182816	-0.260594
C	-2.3024636197	-0.2752000202	 0.5302001532	 0.324031
O	-2.2682194507	 0.4368566116	 1.5024923898	-0.341431
C	-3.5569319762	-1.0976591619	 0.2070780555	 0.093606
O	-3.6713143144	-1.834776842	-0.7305798774	-0.212199
H	 0.7939143178	 2.1744724163	-0.3827487106	 0.124354
H	-0.5722625147	 1.886306113	-1.4729295737	 0.129415
H	-0.8592725963	 2.2119096214	 0.254441092	 0.150046
H	 0.899753759	-1.5664566994	-0.9604368953	 0.134075
H	 1.9149267798	-0.0493270319	-1.058660555	 0.120543
H	 1.4341867103	 0.3864078427	 1.4293580338	 0.12549
H	 0.4462007351	-1.1455700119	 1.4768106094	 0.128044
H	-4.3519002992	-0.9239433103	 0.9601302894	 0.114423
51.4175	95.0628	129.4828	144.4131	218.9492	222.1425	311.016	352.6046	395.9192	442.1745	524.0828	611.0046	632.3541	766.0542	780.1153	865.8255	876.7168	939.4726	964.8473	990.4343	1029.3135	1042.6326	1068.7046	1081.8303	1142.7356	1186.1784	1254.4373	1310.4278	1357.1387	1377.7508	1416.6117	1457.1818	1481.2292	1497.3342	1511.9072	1805.6838	1842.8155	2944.0427	3044.5018	3114.356	3132.0245	3141.6869	3145.1717	3225.5589	3238.7484
CC1(CC1)OC(=O)C=O	CC1(CC1)OC(=O)C=O	
InChI=1S/C6H8O3/c1-6(2-3-6)9-5(8)4-7/h4H,2-3H2,1H3	InChI=1S/C6H8O3/c1-6(2-3-6)9-5(8)4-7/h4H,2-3H2,1H3
