17
gdb 34949	3.57066	1.57773	1.36654	4.9805	75.58	-0.2494	0.0209	0.2703	952.9894	0.139299	-380.82032	-380.813869	-380.812925	-380.851042	26.556	
N	-0.0369897753	-1.1281674522	-0.0373604316	-0.33724
C	 0.0132607465	 0.0251448198	 0.0136084753	 0.292895
C	 0.033877901	 1.4866461528	 0.0696166437	-0.104801
C	-0.4015791792	 2.1049918984	 1.422503282	-0.071841
C	 0.6514638052	 1.4691607271	 2.366512122	-0.255234
C	 1.6220113986	 2.3180164308	 1.5496326734	 0.017248
C	 0.5295772714	 3.4012607781	 1.3433483286	-0.048041
C	 1.0451347301	 3.527789117	-0.0835915658	-0.192416
N	 1.4238198907	 2.0599654538	 0.0126507039	-0.154432
H	-0.5463434369	 1.8538830632	-0.7810474462	 0.121507
H	-1.4623680587	 2.1447835508	 1.6615726576	 0.087176
H	 0.5812001034	 1.869961825	 3.381208831	 0.11221
H	 0.7467453322	 0.3816503669	 2.3956968987	 0.136121
H	 2.6636328381	 2.507216494	 1.7987806156	 0.091026
H	 0.3226561636	 4.2191373086	 2.033443755	 0.081301
H	 0.379713711	 3.7817847776	-0.9146707353	 0.106481
H	 1.9531592084	 4.1333439982	-0.1429747779	 0.11804
150.324	163.9614	368.2668	437.9196	468.4199	492.891	551.5703	691.7998	703.0916	769.2438	835.008	842.8622	854.5656	882.6223	906.4254	946.824	970.1146	1002.0992	1014.7721	1034.4127	1048.2246	1056.5633	1091.3577	1116.0693	1161.2658	1192.2438	1201.4217	1228.066	1241.2945	1260.5846	1282.664	1291.9414	1306.4037	1373.2456	1495.3736	1514.9845	2360.383	3048.4913	3067.7499	3077.3074	3109.0826	3116.5684	3126.9584	3140.9731	3148.6703
N#CC1C2CC3C2CN13	N#C[C@H]1[C@H]2C[C@@H]3[C@H]2CN13	
InChI=1S/C7H8N2/c8-2-7-4-1-6-5(4)3-9(6)7/h4-7H,1,3H2	InChI=1S/C7H8N2/c8-2-7-4-1-6-5(4)3-9(6)7/h4-7H,1,3H2/t4-,5-,6+,7-/m0/s1
