14
gdb 124383	5.15071	1.0433	0.87225	1.7157	64.64	-0.2575	-0.0154	0.242	1246.5212	0.101614	-470.037575	-470.029563	-470.028619	-470.071597	27.754	
C	-0.0550459103	 1.4319429705	 0.2851062026	-0.484018
C	-0.563912921	 0.1317414468	-0.2778745994	 0.419324
O	-1.1646232385	-0.0149820305	-1.3055909784	-0.318342
O	-0.2356138614	-0.8896627592	 0.5721338575	-0.24767
C	-0.5870848098	-2.1751852908	 0.2850403965	 0.385368
N	-0.2290617026	-3.104905112	 1.1645594397	-0.283069
N	-0.7039932907	-4.2143827911	 0.6117495064	-0.068116
N	-1.3351135352	-4.085310039	-0.5429798047	-0.192675
C	-1.2787236333	-2.7742594591	-0.7864248504	-0.14475
H	 1.0298712278	 1.3841293288	 0.4140428709	 0.160251
H	-0.3169368156	 2.2441684043	-0.3912196459	 0.154539
H	-0.4917342202	 1.6080848282	 1.2721464384	 0.160246
H	-0.5864591326	-5.1102956593	 1.0555923911	 0.298568
H	-1.7087985467	-2.3347745176	-1.6657344342	 0.160345
43.5912	75.9	99.172	179.8523	351.9646	362.8351	384.2915	502.385	593.9678	602.4765	721.4928	727.5314	752.4258	881.5664	933.8392	990.4768	1012.641	1049.5379	1062.7344	1158.2243	1222.9397	1247.333	1261.7333	1355.1743	1396.9896	1423.0216	1467.7602	1473.8608	1491.1777	1563.4194	1845.6987	3059.5778	3124.6576	3174.505	3333.4682	3675.1102
CC(=O)OC1=NNN=C1	CC(=O)Oc1n[nH]nc1	
InChI=1S/C4H5N3O2/c1-3(8)9-4-2-5-7-6-4/h2H,1H3,(H,5,6,7)	InChI=1S/C4H5N3O2/c1-3(8)9-4-2-5-7-6-4/h2H,1H3,(H,5,6,7)
