24
gdb 5849	2.79301	1.35104	1.18329	1.3166	80.95	-0.2615	0.0758	0.3373	1185.2389	0.220599	-351.410842	-351.400149	-351.399205	-351.445572	40.103	
C	-0.182687872	 1.5333787258	-0.046924548	-0.421394
C	 0.0724350558	 0.0161267431	-0.0396236998	 0.056482
C	 0.7805460831	-0.3756703899	-1.3440369077	-0.0988
O	-0.1294150376	-0.1413081203	-2.4145875272	-0.422754
C	 0.7910642903	-0.518247715	 1.2425283134	 0.256569
C	 0.087116703	 0.0283443958	 2.5010292443	-0.409806
C	 0.6981364248	-2.0581464268	 1.2937054829	-0.409566
C	 2.2759633515	-0.1058588327	 1.2864212117	-0.409272
H	 0.7434488849	 2.1019367242	 0.097361873	 0.106533
H	-0.6030477455	 1.8212177447	-1.0131744672	 0.131918
H	-0.8873078054	 1.8370998538	 0.7305944639	 0.110957
H	-0.9077861136	-0.479621239	-0.0777055189	 0.077258
H	 1.6927220764	 0.2282346649	-1.4706722754	 0.083609
H	 1.083965404	-1.4316551591	-1.326925305	 0.083235
H	 0.3397477018	-0.2820393388	-3.2416844755	 0.284268
H	-0.9864992899	-0.1910138948	 2.4830174928	 0.107934
H	 0.5056398693	-0.4359490883	 3.4006226572	 0.104706
H	 0.2078445204	 1.1100595845	 2.6035418489	 0.113233
H	 1.2174552474	-2.5383055024	 0.4595873402	 0.109565
H	 1.1498740425	-2.4372302799	 2.2169227992	 0.106308
H	-0.3456130915	-2.3906491991	 1.2739187871	 0.110119
H	 2.3995221334	 0.9802580906	 1.2310367129	 0.112313
H	 2.7351805846	-0.4399284358	 2.2233191379	 0.107539
H	 2.8482804123	-0.5520970854	 0.4667835993	 0.109048
60.2234	107.6012	203.7871	212.9246	228.4428	248.0552	253.3216	282.3972	296.4952	332.7949	339.2871	368.8343	381.165	446.1667	477.6873	525.9465	733.677	843.9522	918.6809	929.294	931.4162	935.9387	956.5457	1006.3029	1027.8526	1050.5742	1080.4811	1116.4975	1166.1684	1203.7848	1238.283	1259.6949	1273.1105	1281.6759	1341.4025	1367.698	1396.1692	1398.6493	1403.0653	1432.6836	1455.2876	1480.2929	1485.6851	1487.1041	1495.9112	1505.2692	1510.4871	1512.0128	1523.2966	1524.8007	2975.2247	3005.1721	3018.8263	3026.2044	3027.8078	3034.7051	3038.903	3087.9505	3090.8603	3096.5584	3099.7384	3106.5482	3108.2856	3111.9974	3130.2389	3833.7486
CC(CO)C(C)(C)C	C[C@@H](CO)C(C)(C)C	
InChI=1S/C7H16O/c1-6(5-8)7(2,3)4/h6,8H,5H2,1-4H3	InChI=1S/C7H16O/c1-6(5-8)7(2,3)4/h6,8H,5H2,1-4H3/t6-/m0/s1
