19
gdb 97979	6.80646	0.48338	0.47661	1.8253	82.73	-0.2505	0.0314	0.2819	2298.7352	0.15664	-422.955543	-422.945306	-422.944362	-422.993068	35.354	
O	-0.0049943457	 1.2104371423	 0.6320645707	-0.401885
C	-0.0502343506	 0.1220812799	-0.2799527831	-0.19416
C	-1.363489383	-0.5124961625	-0.3725682576	 0.129827
C	-2.4480900968	-1.0354967932	-0.3910655328	-0.014559
C	-3.7675942546	-1.6457174455	-0.4518388253	-0.212291
O	-3.8370996036	-2.750972811	 0.4399373223	-0.249538
C	-5.0824032895	-3.3777375831	 0.409394643	 0.160608
C	-5.3651219593	-4.4007579016	-0.6630902908	-0.28889
C	-5.1014934017	-4.8255020466	 0.7692621943	-0.287661
H	-0.3661040881	 0.8985555226	 1.4684901021	 0.288657
H	 0.2364630421	 0.5365891877	-1.252922348	 0.140993
H	 0.7010983059	-0.6440860242	-0.0295213503	 0.121514
H	-4.5354041715	-0.8977926732	-0.1915972159	 0.119142
H	-3.9830541334	-1.9727943142	-1.4816197473	 0.122868
H	-5.9091944054	-2.7482053342	 0.7426725795	 0.083934
H	-6.3715438522	-4.4810756513	-1.0588053472	 0.114218
H	-4.5746481192	-4.588458454	-1.3812976177	 0.121957
H	-4.1403808166	-5.2804490704	 0.9788639069	 0.129422
H	-5.9247631968	-5.1986508977	 1.3675187873	 0.115845
25.723	39.6197	81.6115	107.7558	143.8597	209.6427	278.1454	303.143	350.5258	385.4744	446.0447	500.2064	573.3531	754.2209	788.0831	819.7507	845.7847	960.782	983.1221	988.1234	1027.7415	1044.6381	1047.8061	1072.3986	1077.185	1126.6615	1164.1465	1193.1327	1201.5205	1215.5748	1239.6331	1253.9475	1357.6247	1367.7575	1419.166	1429.2046	1452.3851	1488.3116	1494.6283	1501.3817	2365.3625	2963.0592	2976.9524	2989.3174	3062.5794	3086.4694	3135.7281	3143.8006	3220.8594	3236.4104	3816.568
OCC#CCOC1CC1	OCC#CCOC1CC1	
InChI=1S/C7H10O2/c8-5-1-2-6-9-7-3-4-7/h7-8H,3-6H2	InChI=1S/C7H10O2/c8-5-1-2-6-9-7-3-4-7/h7-8H,3-6H2
