14
gdb 24760	3.47508	1.6559	1.1215	5.2025	77.37	-0.2004	-0.0747	0.1257	993.5187	0.104066	-399.599755	-399.593233	-399.592289	-399.630573	25.936	
O	-0.0387572009	-0.0288133747	 0.0056290771	-0.311265
C	 0.0075148106	 1.1785531913	 0.0104997483	 0.265114
C	-1.2060433939	 2.1139902945	 0.0309363892	-0.186786
C	-0.791106258	 3.3928555301	 0.0307534908	-0.20635
C	 0.6805236913	 3.3767527865	 0.0103088204	 0.29759
C	 1.1810523159	 2.0916699162	-0.0020810546	 0.178376
C	 2.5957063646	 2.1779002875	-0.0214906608	-0.334417
C	 2.9030245977	 3.5247515972	-0.0199238309	-0.070576
N	 1.7184116827	 4.2482262149	-0.0003521032	-0.379777
H	-2.2211709374	 1.7443121379	 0.0432697368	 0.120035
H	-1.4113835768	 4.280145611	 0.0430554602	 0.116265
H	 3.3103700106	 1.3699669772	-0.0349118607	 0.116662
H	 3.853374377	 4.0333127563	-0.0309497846	 0.127283
H	 1.6595531665	 5.2526450042	 0.0047496619	 0.267845
151.4099	194.0612	301.8698	369.8777	523.2147	532.4423	600.9195	617.657	663.0825	670.6611	690.7185	724.4628	730.4051	828.1081	855.94	924.8028	934.9646	1014.1521	1030.2148	1080.5639	1094.459	1165.2562	1263.756	1296.3558	1356.8303	1433.9472	1466.9925	1519.4081	1571.127	1605.4757	1811.952	3210.3087	3249.6313	3254.1437	3274.102	3666.2682
O=C1C=CC2=C1C=CN2	O=C1C=Cc2c1cc[nH]2	
InChI=1S/C7H5NO/c9-7-2-1-6-5(7)3-4-8-6/h1-4,8H	InChI=1S/C7H5NO/c9-7-2-1-6-5(7)3-4-8-6/h1-4,8H
