17
gdb 77607	1.92969	1.72047	1.66971	3.0034	68.52	-0.2207	-0.0054	0.2152	971.74	0.134212	-458.937329	-458.928718	-458.927774	-458.969817	33.447	
O	 0.0455339709	 1.4465119949	 0.1203528345	-0.423276
C	-0.069961614	 0.0602387633	 0.0550308467	 0.021732
C	-1.3824824078	-0.6905040023	 0.0188948968	 0.293718
O	-1.5666969917	-1.8364651612	 0.7918231092	-0.477731
C	-2.6299711492	 0.087886636	-0.3740169817	-0.328208
C	-2.3438236248	 0.5385699397	-1.793332456	-0.087927
C	-1.1667271132	 0.0894725383	-2.2482659559	-0.196378
C	-0.4489415843	-0.6949953202	-1.2041120237	 0.226708
O	 0.3259439611	-1.8139648836	-1.5211726331	-0.468084
H	-0.3960468377	 1.8144677741	-0.6554518908	 0.284846
H	 0.7027417691	-0.4274571429	 0.6439171296	 0.11565
H	-0.9026287146	-2.4768027571	 0.5055859486	 0.282378
H	-3.5200960496	-0.5492866422	-0.314122472	 0.125133
H	-2.8013297378	 0.9440387175	 0.2904206222	 0.129354
H	-3.0203526086	 1.183006975	-2.3433873347	 0.106942
H	-0.7431426415	 0.2845649428	-3.2274635483	 0.108344
H	-0.2151071564	-2.402521322	-2.0620840814	 0.286798
158.3125	177.2409	201.5068	217.8237	264.3314	284.6177	329.8779	404.9488	430.0556	451.1077	529.1174	556.2455	649.0034	686.2641	753.422	763.3842	799.1364	892.8716	937.5582	959.4206	988.9646	1001.8377	1073.6341	1120.153	1137.2015	1163.6763	1188.0418	1235.2185	1253.1725	1297.7659	1330.4319	1367.8141	1371.4588	1408.5649	1454.1442	1474.8259	1648.2467	3032.1691	3067.4693	3155.0557	3185.1127	3209.0322	3763.7933	3765.5613	3772.8434
OC1C2(O)CC=CC12O	O[C@H]1[C@@]2(O)CC=C[C@@]12O	
InChI=1S/C6H8O3/c7-4-5(8)2-1-3-6(4,5)9/h1-2,4,7-9H,3H2	InChI=1S/C6H8O3/c7-4-5(8)2-1-3-6(4,5)9/h1-2,4,7-9H,3H2/t4-,5-,6+/m1/s1
