20
gdb 95520	2.53919	1.59384	1.2821	1.8034	80.92	-0.2382	0.0155	0.2536	1075.3921	0.172036	-403.125942	-403.117735	-403.116791	-403.158304	32.495	
C	-0.0581622918	 1.5994753734	 0.0382007929	-0.408486
C	 0.0425526753	 0.0686985351	 0.0422975981	 0.022614
O	 0.6713806964	-0.4317481822	-1.1365429372	-0.267227
C	 2.0337781891	-0.0685854409	-1.2761889625	-0.132725
C	 2.821525399	-0.1970227806	-0.0036893194	-0.090358
C	 2.2301598843	-0.4046365229	 1.171019586	-0.094616
C	 0.7515855995	-0.4773722075	 1.2774126443	 0.316857
C	 0.0612572686	-0.3817041085	 2.591748055	-0.290015
N	 0.2367450179	-1.6937152587	 1.9574407472	-0.361406
H	 0.9192531608	 2.068406983	 0.182197539	 0.126932
H	-0.4743063445	 1.9409321899	-0.9139827089	 0.122506
H	-0.7132040547	 1.9425244426	 0.8439370621	 0.116825
H	-0.9713990574	-0.3485359004	 0.0014116343	 0.074659
H	 2.4399419118	-0.7415452528	-2.04098107	 0.121154
H	 2.1324875177	 0.9552065915	-1.6799545859	 0.099297
H	 3.9021030589	-0.1186963719	-0.0873420965	 0.094807
H	 2.8067415582	-0.5407328304	 2.0811998494	 0.093883
H	 0.6397188584	-0.227196874	 3.4994804675	 0.116269
H	-0.9307318524	 0.0650139419	 2.6125242634	 0.108752
H	-0.6316611351	-1.9889248566	 1.5153015613	 0.230278
99.6233	194.5019	229.4631	236.3917	272.7627	310.6779	378.052	444.1605	453.1961	544.7283	564.7115	677.5072	728.859	833.128	844.9363	876.7895	912.2934	934.4703	945.3601	978.7095	988.2898	1018.9019	1038.2278	1060.5129	1082.6776	1118.563	1143.3818	1150.291	1196.1837	1257.376	1267.6314	1306.4794	1346.9651	1357.6071	1365.6228	1399.6698	1407.0632	1441.6222	1486.292	1489.7575	1505.651	1511.1891	1719.2548	2942.4518	3026.0368	3044.8361	3047.737	3094.8646	3118.192	3121.9072	3158.5185	3177.3285	3180.8221	3482.7483
CC1OCC=CC11CN1	C[C@H]1OCC=C[C@]21CN2	
InChI=1S/C7H11NO/c1-6-7(5-8-7)3-2-4-9-6/h2-3,6,8H,4-5H2,1H3	InChI=1S/C7H11NO/c1-6-7(5-8-7)3-2-4-9-6/h2-3,6,8H,4-5H2,1H3/t6-,7-/m1/s1
