20
gdb 80764	3.40838	1.02933	0.91561	3.8755	81.13	-0.2464	0.0314	0.2778	1330.996	0.17164	-403.14643	-403.137601	-403.136657	-403.180695	33.15	
C	-0.1241569904	 1.4951012335	-0.2125134533	-0.432504
C	 0.0489528957	 0.0087681682	 0.0337017567	 0.005536
C	 1.3069788901	-0.7777737749	-0.1954384667	-0.068015
C	 2.5510289683	 0.0102529031	 0.2346074537	-0.269778
C	 1.9835619601	 0.0468945092	 1.6985174664	 0.058823
N	 1.8607751254	 1.2942789251	 2.424106828	-0.293144
C	 2.6556828814	 1.6199815508	 3.4797644898	 0.151647
O	 3.5620912235	 0.9395869573	 3.9118177116	-0.323924
C	 0.7104443566	-0.6514827039	 1.2213135327	-0.114703
H	 0.7859243518	 2.0670672512	-0.0146491904	 0.118098
H	-0.394854108	 1.6804409574	-1.2577387273	 0.123252
H	-0.9262919593	 1.9076834681	 0.4106838163	 0.11687
H	-0.8314567669	-0.5600913959	-0.2618424583	 0.090997
H	 1.3268785756	-1.655384942	-0.8294141931	 0.090298
H	 3.4786111957	-0.5614809449	 0.1719388249	 0.114813
H	 2.7072823711	 0.9764564553	-0.2535554711	 0.099369
H	 2.5805887203	-0.6072522765	 2.3342053015	 0.124829
H	 1.1248882461	 1.9340178374	 2.1730979634	 0.248739
H	 2.3770972705	 2.6006242482	 3.915911802	 0.070573
H	 0.1808638822	-1.3964281867	 1.8045705633	 0.088224
34.2385	110.1441	175.86	205.7129	235.4256	268.1338	319.552	420.7016	447.3188	539.0696	587.7723	663.1372	719.5895	777.8926	795.3978	880.8581	890.3315	970.734	978.6712	985.3487	1019.3115	1034.7078	1052.7594	1070.5099	1072.9073	1103.5906	1139.9208	1163.2065	1210.0892	1227.003	1236.3599	1270.8145	1307.4338	1347.7904	1377.0551	1413.1069	1431.6269	1445.0834	1489.5447	1504.011	1507.3735	1525.7159	1805.2589	2927.4854	3029.8422	3059.2464	3085.8202	3107.6987	3110.7879	3124.7245	3126.62	3170.2106	3191.0754	3646.7687
CC1C2CC(NC=O)C12	C[C@H]1[C@H]2C[C@@H](NC=O)[C@@H]12	
InChI=1S/C7H11NO/c1-4-5-2-6(7(4)5)8-3-9/h3-7H,2H2,1H3,(H,8,9)	InChI=1S/C7H11NO/c1-4-5-2-6(7(4)5)8-3-9/h3-7H,2H2,1H3,(H,8,9)/t4-,5+,6+,7-/m0/s1
