21
gdb 40824	3.77152	1.05363	0.88215	0.3251	79.45	-0.2311	0.0925	0.3235	1354.87	0.184085	-424.208528	-424.200232	-424.199288	-424.241763	32.118	
C	-0.16921715	 1.4087057105	-0.1391481325	-0.273191
C	 1.2532061364	 0.9872614283	 0.1241038852	-0.267943
C	 0.1655830392	-0.0513067233	 0.0516564069	 0.012864
C	-0.277206407	-0.7645877176	 1.2995536949	 0.100403
C	-1.6786877811	-1.367620677	 1.1654847138	-0.091565
O	-2.034774901	-2.1097557591	 2.320826502	-0.252608
C	-1.090004878	-3.1361557869	 2.577142948	-0.077892
C	 0.3062556498	-2.5446843189	 2.7298747361	-0.078303
O	 0.6639313587	-1.8020965306	 1.5757264981	-0.26798
H	-0.7025599086	 1.9169554755	 0.6577350186	 0.113255
H	-0.4365581797	 1.7458921661	-1.134151046	 0.113563
H	 1.966695766	 1.0362837198	-0.6905040368	 0.113886
H	 1.676401742	 1.2030157023	 1.0991942233	 0.116588
H	 0.1524170136	-0.6746992061	-0.838224478	 0.087095
H	-0.2890408356	-0.0562893549	 2.1473454571	 0.06174
H	-2.4290491131	-0.5801054894	 1.052600005	 0.11034
H	-1.7077978566	-2.013694836	 0.2715509793	 0.086724
H	-1.4080942707	-3.6391239344	 3.4955945968	 0.105677
H	-1.0904007152	-3.8697596707	 1.7537738718	 0.091172
H	 0.3329085763	-1.8986496593	 3.6232056516	 0.090956
H	 1.0572791045	-3.3325516283	 2.8459973949	 0.105215
69.0337	114.928	162.6161	258.2673	271.1646	357.3472	417.6015	438.8103	464.2014	508.9813	606.842	776.0669	829.5343	848.9692	875.5737	898.3214	911.3628	948.7666	972.6242	998.4916	1059.7968	1072.0403	1080.5446	1106.2013	1126.6414	1136.8308	1138.2958	1149.6839	1196.9736	1205.3046	1226.7412	1250.6226	1282.2352	1307.1458	1325.8703	1355.9892	1387.462	1403.4931	1421.3697	1441.8345	1471.7038	1477.5595	1484.7594	1491.3816	1508.3443	2943.8278	2965.2043	2968.7541	2977.702	3080.906	3084.4588	3092.1724	3131.5423	3138.0924	3146.2812	3210.5348	3226.2702
C1CC1C1COCCO1	C1CC1[C@H]1COCCO1	
InChI=1S/C7H12O2/c1-2-6(1)7-5-8-3-4-9-7/h6-7H,1-5H2	InChI=1S/C7H12O2/c1-2-6(1)7-5-8-3-4-9-7/h6-7H,1-5H2/t7-/m1/s1
