22
gdb 116653	3.54434	0.69612	0.6626	4.365	84.95	-0.2442	0.0118	0.256	1822.2202	0.19088	-441.484904	-441.473665	-441.472721	-441.522184	39.463	
C	 0.0513437281	 1.2748076776	-0.0540632189	-0.250192
O	 0.0595747288	-0.1461058408	 0.0306078323	-0.193947
C	-1.1465639568	-0.7404338608	-0.0246008334	 0.12652
N	-1.2513275352	-1.9920408957	 0.0414089926	-0.234257
C	-2.5836142819	-2.5858671582	-0.017387679	 0.014596
C	-2.7355949209	-3.3391413383	-1.3441341134	-0.378216
C	-2.6931249659	-3.509560965	 1.2219194913	 0.163656
C	-4.0033814822	-4.2785061691	 1.3177244607	-0.397889
O	-1.6337287623	-4.4503712462	 1.2227550722	-0.443529
H	 1.0943518182	 1.5900935776	-0.0134402694	 0.149462
H	-0.3906750939	 1.6178339319	-0.9972331159	 0.12937
H	-0.4924318619	 1.7238359775	 0.7857329303	 0.129689
H	-1.9953386384	-0.0473867763	-0.1337727492	 0.077259
H	-3.3718136708	-1.8160726029	 0.0580555255	 0.053133
H	-3.7494256208	-3.7324249817	-1.459779055	 0.114014
H	-2.5319484816	-2.6705281328	-2.1852755262	 0.106916
H	-2.0309569879	-4.1731517151	-1.38462659	 0.135194
H	-2.6103131493	-2.8498483022	 2.1038010305	 0.053719
H	-4.1072794765	-4.9823908177	 0.4878302192	 0.125121
H	-4.0265675932	-4.8522203375	 2.248199726	 0.124168
H	-4.8594701337	-3.5960258997	 1.312126416	 0.105429
H	-0.8411570017	-3.9425280347	 0.9993465236	 0.289784
44.0659	65.2038	81.1216	144.2822	159.1597	206.7802	219.702	232.958	278.2375	293.755	322.2149	422.0491	445.1045	476.5247	525.0784	605.8496	670.5644	795.0998	907.9888	938.7876	988.2819	1009.4104	1021.8021	1057.1014	1066.8781	1137.7524	1151.7363	1175.9115	1179.0435	1181.7779	1272.6237	1303.0109	1329.1223	1346.3755	1379.363	1399.5076	1405.5951	1418.292	1448.2544	1483.5035	1485.2967	1489.4362	1495.0228	1498.2987	1500.4706	1510.1172	1772.9187	2932.567	2947.2866	2994.3314	3018.1326	3043.3077	3047.824	3080.4648	3114.1112	3114.9625	3125.755	3134.2319	3147.7751	3744.3287
COC=NC(C)C(C)O	COC=N[C@@H](C)[C@@H](C)O	
InChI=1S/C6H13NO2/c1-5(6(2)8)7-4-9-3/h4-6,8H,1-3H3	InChI=1S/C6H13NO2/c1-5(6(2)8)7-4-9-3/h4-6,8H,1-3H3/t5-,6+/m0/s1
