18
gdb 81552	4.33149	1.229	1.08979	2.6104	71.8	-0.2377	0.0703	0.308	1117.6554	0.148779	-438.989811	-438.98234	-438.981396	-439.021982	29.458	
O	-0.0412698889	 1.4857015342	-0.1920606623	-0.458692
C	 0.0289788913	 0.103783043	-0.0913735719	 0.223593
C	 0.0668067674	-0.5377147123	 1.3295464068	-0.180309
N	-1.3781463183	-0.0550784691	 1.4654503934	-0.379302
C	-1.2975038541	-0.6981058511	 0.0800557478	-0.180315
C	-0.458558489	-1.8414355641	 0.6906509904	 0.53587
C	 0.3291793672	-2.9529984394	-0.02672765	-0.389363
C	-0.4303117377	-3.8960982884	 0.9238928824	-0.084463
O	-1.1251600244	-2.7860573478	 1.5397708173	-0.333472
H	-0.6883316468	 1.7487725321	 0.4806932611	 0.291716
H	 0.745744053	-0.2644066985	-0.8267435741	 0.088868
H	 0.7973246565	-0.4034563931	 2.1286677907	 0.083927
H	-1.8848084472	-0.6778662793	 2.0986180948	 0.237057
H	-2.1627774004	-0.7514473308	-0.5823133515	 0.083926
H	 0.1036729178	-3.0720436897	-1.0879365846	 0.12054
H	 1.4114921368	-2.9181262543	 0.1095430322	 0.120537
H	-1.1282862085	-4.5941508627	 0.448745934	 0.109943
H	 0.1837991952	-4.4395194286	 1.6503756336	 0.109939
67.9632	160.0854	225.4537	282.3573	337.9257	432.142	463.6568	560.7966	591.9293	714.3014	725.2535	788.69	807.882	861.7724	864.9022	904.1725	910.7117	968.8582	1015.6389	1040.0895	1049.9284	1091.2201	1126.0226	1135.1126	1141.848	1165.5937	1178.8536	1189.9979	1196.178	1220.6003	1243.8724	1260.8784	1278.4509	1330.2221	1348.2607	1356.1465	1462.9194	1483.1324	1530.7034	3030.2087	3072.9585	3077.9461	3106.6904	3106.7872	3117.391	3132.1737	3433.9352	3713.9546
OC1C2NC1C21CCO1	O[C@H]1[C@H]2N[C@@H]1[C@]12CCO1	
InChI=1S/C6H9NO2/c8-3-4-6(1-2-9-6)5(3)7-4/h3-5,7-8H,1-2H2	InChI=1S/C6H9NO2/c8-3-4-6(1-2-9-6)5(3)7-4/h3-5,7-8H,1-2H2/t3-,4+,5-,6+
