17
gdb 67665	3.02361	1.90261	1.66543	0.7442	69.78	-0.2213	0.0744	0.2958	864.0891	0.137555	-421.770103	-421.763682	-421.762738	-421.800443	27.332	
O	-0.0758436556	 1.4030338262	 0.0471141159	-0.460787
C	 0.0277461493	 0.0256067478	 0.0481385543	 0.333733
C	-0.1070338173	-0.8115093851	-1.2085281262	 0.007609
O	 0.7099416187	-1.9391315172	-1.4027618567	-0.2567
C	 0.8866170912	-2.517025067	-0.1168553984	 0.080705
C	 1.8985588796	-1.6808189009	 0.7134194061	-0.256632
C	 0.7016264057	-0.8130585723	 1.1635358397	-0.114213
C	-0.2994072633	-1.9492494744	 0.782169986	-0.069756
C	-1.1115441275	-0.9953940634	-0.1083653983	-0.17764
H	 0.6845734683	 1.7674268995	-0.420373231	 0.286945
H	-0.372559065	-0.3065873028	-2.1294418726	 0.107322
H	 1.0452240534	-3.5899333661	-0.2344164082	 0.077168
H	 2.306258431	-2.256148993	 1.5506836799	 0.098925
H	 2.715872523	-1.2211625184	 0.1512374138	 0.096676
H	 0.6774244038	-0.3333799796	 2.1428597712	 0.074534
H	-0.7723187358	-2.596661789	 1.5147664959	 0.074608
H	-2.1840800097	-0.8938748843	-0.2044862914	 0.097503
214.3236	259.8014	319.9366	363.1494	427.7434	533.6531	605.9263	649.3985	695.8374	714.6159	792.2021	823.4576	859.9099	870.505	889.8722	912.5707	936.037	944.2721	966.059	1003.8179	1033.7482	1074.9805	1088.7375	1098.4919	1133.1631	1161.7047	1198.5676	1204.6552	1214.4304	1242.8985	1259.0087	1274.8101	1306.9349	1313.2576	1355.5123	1448.5852	1474.9576	3047.8055	3101.4795	3103.6814	3107.9894	3159.6094	3197.5785	3208.3047	3785.5746
OC12C3OC4CC1C4C23	O[C@@]12[C@H]3O[C@H]4C[C@@H]1[C@H]4[C@@H]23	
InChI=1S/C7H8O2/c8-7-2-1-3-4(2)5(7)6(7)9-3/h2-6,8H,1H2	InChI=1S/C7H8O2/c8-7-2-1-3-4(2)5(7)6(7)9-3/h2-6,8H,1H2/t2-,3+,4-,5-,6+,7+/m1/s1
