16
gdb 40897	3.98101	1.30506	1.28157	1.7057	67.79	-0.2443	0.0062	0.2505	1008.6594	0.125804	-437.843717	-437.836749	-437.835805	-437.87552	26.353	
C	-0.0349423233	 1.488722367	-0.1315103864	-0.140572
O	 1.3144768948	 1.5251624547	 0.3925107714	-0.274936
C	 1.3972323237	 0.0866571875	 0.4531206168	-0.144181
C	-0.0276164168	-0.0326758992	-0.0757260998	 0.241797
C	-1.0822038755	-0.9795661812	 0.3881082612	-0.024833
O	-2.4236604668	-0.5169969213	 0.2802673925	-0.209299
C	-2.620643595	-0.3104037959	-1.0500278054	 0.106292
N	-1.6846571591	-0.5891518685	-1.8651646569	-0.254939
C	-0.5755280041	-1.040336806	-1.0518729137	-0.118628
H	-0.7484959565	 1.9890085463	 0.5346100719	 0.11147
H	-0.1028671385	 1.9238433431	-1.1356347993	 0.11874
H	 2.1826072191	-0.3112086421	-0.2033239643	 0.107178
H	 1.5642398054	-0.2756552767	 1.4764566455	 0.104905
H	-0.9376032363	-1.6985084321	 1.1852413559	 0.118601
H	-3.5967147583	 0.0813096749	-1.3077024053	 0.150795
H	 0.0630857571	-1.8118148007	-1.4676713541	 0.107608
92.3777	149.0174	172.9255	276.7292	397.2693	481.4896	522.0281	677.689	747.9925	821.5235	863.08	875.838	894.9052	937.9078	970.0431	980.8647	1011.0145	1029.9804	1032.9582	1035.5015	1071.4871	1114.231	1133.581	1150.4919	1171.4265	1183.8186	1265.9862	1276.0238	1309.001	1335.5822	1370.0901	1440.4704	1511.2519	1534.7142	1663.4709	2998.2548	3019.2473	3040.3523	3063.6624	3172.5289	3190.2814	3234.5286
C1OCC11C2OC=NC12	C1OCC21[C@H]1OC=N[C@@H]21	
InChI=1S/C6H7NO2/c1-6(2-8-1)4-5(6)9-3-7-4/h3-5H,1-2H2	InChI=1S/C6H7NO2/c1-6(2-8-1)4-5(6)9-3-7-4/h3-5H,1-2H2/t4-,5+/m1/s1
