19
gdb 36339	5.08126	0.81559	0.77671	1.7343	82.3	-0.2265	0.0539	0.2804	1492.8406	0.15731	-385.818271	-385.809184	-385.80824	-385.85282	33.687	
C	-0.0100462063	-1.1467537785	-0.7189969569	-0.447578
C	-0.0236163257	-0.0435079369	-0.2424398398	 0.315012
C	-0.0146232536	 1.2961531759	 0.3385607814	-0.386709
C	 1.3671069885	 1.9340836904	 0.3484748741	-0.081842
C	 1.9158343844	 2.6216612146	-0.8946125354	-0.352833
C	 1.526820888	 3.4198442693	 0.3079480955	 0.445617
C	 0.4992485433	 4.5383101713	 0.4607099237	-0.358033
C	 1.600820108	 5.2103698872	 1.3088810605	-0.072406
O	 2.4961910532	 4.0910148981	 1.1144068259	-0.306519
H	-0.0051021933	-2.120948263	-1.1408363499	 0.194557
H	-0.7094191156	 1.9363412414	-0.2211527737	 0.126263
H	-0.4071884626	 1.2496021731	 1.3633356455	 0.132318
H	 2.1040493314	 1.4110724577	 0.951428647	 0.107469
H	 2.9751260432	 2.5140410474	-1.1011395559	 0.124461
H	 1.28250396	 2.6737336377	-1.7758493527	 0.114225
H	 0.2308858507	 5.0590686153	-0.4602453432	 0.116165
H	-0.4100882608	 4.2727527461	 1.0042387163	 0.114729
H	 2.0162412743	 6.1371458334	 0.8975391496	 0.10774
H	 1.3635528332	 5.3600749893	 2.3680682077	 0.107365
51.5498	81.3737	101.9138	180.1152	216.6315	331.2245	349.4947	377.6936	440.2892	502.5097	608.704	618.4461	636.2531	791.6761	834.2405	850.7274	873.5006	886.5951	909.4468	947.7048	971.1393	1007.9317	1021.317	1051.1122	1094.2733	1117.4537	1137.5537	1165.1135	1190.9773	1214.6667	1245.5704	1252.1113	1310.4799	1339.0882	1364.954	1416.451	1466.2571	1484.1988	1492.4066	1533.8004	2238.8421	3011.5994	3027.3246	3041.9182	3069.4764	3072.1579	3121.8824	3124.9419	3154.2435	3214.4143	3507.4491
C#CCC1CC11CCO1	C#CC[C@H]1C[C@]21CCO2	
InChI=1S/C8H10O/c1-2-3-7-6-8(7)4-5-9-8/h1,7H,3-6H2	InChI=1S/C8H10O/c1-2-3-7-6-8(7)4-5-9-8/h1,7H,3-6H2/t7-,8-/m0/s1
