16
gdb 65182	2.5676	1.36139	1.20376	2.2865	68.82	-0.2763	-0.0101	0.2661	1081.3433	0.122455	-437.85023	-437.841643	-437.840699	-437.884076	31.668	
O	 0.8619966182	 0.3004159985	-1.7140069009	-0.457968
C	 0.2270916782	-0.1959718425	-0.5679525258	 0.365187
C	 1.1030922038	-0.9654532575	 0.3755744828	-0.307851
C	 0.5596481223	 0.3897671584	 0.7771594113	-0.31742
C	-1.1525767925	-0.7068872368	-0.8631749042	-0.010032
O	-2.0679226869	-0.8427368215	 0.2188921487	-0.225491
C	-2.3628878226	 0.1453973041	-0.7702878422	-0.102743
C	-2.2721546823	 1.5348510321	-0.3756912153	 0.303158
N	-2.21583929	 2.658534542	-0.1098142163	-0.330268
H	 0.5237049937	 1.1884147073	-1.8803867049	 0.293735
H	 0.6904007392	-1.8445360734	 0.858139586	 0.127768
H	 2.1495047004	-1.0317057467	 0.1022847967	 0.131415
H	 1.2465448007	 1.227970421	 0.7782973373	 0.125888
H	-0.2202031033	 0.4241950907	 1.5280265384	 0.139613
H	-1.1957564086	-1.5112870735	-1.5989837368	 0.119345
H	-3.2189502104	-0.0805777123	-1.4030252649	 0.145663
39.8308	101.0479	175.122	237.3492	257.6779	321.3102	357.7354	396.1377	468.1913	496.5022	581.2262	609.2611	718.8677	773.7976	829.3612	875.3131	927.6633	937.4564	969.0349	983.2688	1014.6571	1059.8363	1085.3649	1089.8102	1142.1973	1192.5914	1251.6291	1260.1881	1323.0444	1364.7094	1380.3256	1442.0485	1446.2723	1492.0696	2357.8251	3106.8619	3137.9421	3141.2964	3147.649	3230.5297	3244.8886	3783.8286
OC1(CC1)C1OC1C#N	OC1(CC1)[C@H]1O[C@H]1C#N	
InChI=1S/C6H7NO2/c7-3-4-5(9-4)6(8)1-2-6/h4-5,8H,1-2H2	InChI=1S/C6H7NO2/c7-3-4-5(9-4)6(8)1-2-6/h4-5,8H,1-2H2/t4-,5-/m0/s1
