21
gdb 116220	2.30888	1.57088	1.09488	0.5686	78.8	-0.2582	0.0893	0.3474	1185.5534	0.182847	-424.21539	-424.206483	-424.205539	-424.249799	33.385	
C	-0.1252659309	 1.3601972519	 0.2282892723	-0.24036
O	-0.0388436174	-0.0517254052	 0.1693648328	-0.241015
C	 0.8582314243	-0.5932756037	 1.1063656044	 0.148524
O	 0.4228115772	-0.3979514052	 2.4363734856	-0.258504
C	-0.3689372727	-1.5293999518	 2.8057092043	-0.093516
C	 0.367610686	-2.7236478396	 2.1895854275	-0.308684
C	 0.94123842	-2.1121439125	 0.911270034	 0.315494
C	 0.718127917	-2.716422985	-0.4489018296	-0.296605
C	 2.0940378242	-2.7318920149	 0.1665462241	-0.320731
H	 0.8526930295	 1.8290587495	 0.0376997301	 0.102693
H	-0.8252456391	 1.6713919448	-0.5503307695	 0.123147
H	-0.4896542533	 1.6999958448	 1.2046179692	 0.125303
H	 1.8269773535	-0.0773667341	 1.0239413674	 0.066433
H	-0.4262822339	-1.5516803982	 3.8962883596	 0.106543
H	-1.385761203	-1.4361868617	 2.3994867116	 0.102833
H	 1.1687563578	-3.056729814	 2.8584807386	 0.107172
H	-0.2926038325	-3.5737625546	 1.9983117234	 0.103653
H	 0.1692417648	-3.6510792768	-0.5008799035	 0.108127
H	 0.5277771702	-2.0336790684	-1.2677842578	 0.128209
H	 2.8480824098	-2.0708389017	-0.2495627387	 0.112346
H	 2.4847961484	-3.6742573737	 0.5375231441	 0.108938
29.4412	115.3012	166.3282	198.9488	222.2411	270.5227	308.9405	386.6641	472.4635	486.1765	592.0144	656.4346	778.3621	812.3252	878.6231	905.1029	927.3407	949.7411	968.9519	988.4355	998.9212	1016.8319	1056.7635	1070.5439	1079.0515	1122.6177	1130.3007	1180.4895	1192.1219	1203.3098	1216.4621	1238.8014	1281.209	1309.6511	1323.557	1372.7443	1394.7391	1406.0577	1467.5877	1474.3337	1482.6156	1489.4584	1504.3648	1513.9919	1517.1343	2984.2481	2991.6579	3008.8144	3041.9683	3063.1586	3094.8329	3105.7759	3120.1814	3122.336	3136.6279	3202.0318	3230.9507
COC1OCCC11CC1	CO[C@H]1OCCC21CC2	
InChI=1S/C7H12O2/c1-8-6-7(2-3-7)4-5-9-6/h6H,2-5H2,1H3	InChI=1S/C7H12O2/c1-8-6-7(2-3-7)4-5-9-6/h6H,2-5H2,1H3/t6-/m0/s1
