20
gdb 90859	3.68841	1.42235	1.20822	1.5833	85.14	-0.2244	-0.0105	0.2139	1085.7455	0.172535	-365.929804	-365.922352	-365.921407	-365.961197	30.751	
C	-0.1155827153	 1.5895641701	 0.0787073496	-0.412493
C	 0.017223113	 0.0691227361	 0.0314020695	-0.006847
C	 0.7314383062	-0.4486045661	-1.268365495	-0.234133
C	 0.8306420377	-1.9823342017	-1.2548896264	 0.008286
C	 0.4550793984	-2.6882141125	-0.0183245723	-0.121895
N	 1.816249173	-2.9636042047	-0.5912356076	-0.168014
C	 2.445656482	-2.4739151966	 0.7111392381	-0.186616
C	 1.1165888662	-1.8326221395	 1.0493140333	 0.098058
C	 0.9068546794	-0.5152764797	 1.104255659	-0.118174
H	 0.8692200123	 2.070747728	 0.067596994	 0.114645
H	-0.6789200507	 1.9668016396	-0.7809086751	 0.113267
H	-0.6329665777	 1.9107448365	 0.9883019548	 0.119226
H	-0.9811518565	-0.3838633035	 0.0538888762	 0.08865
H	 0.1643170903	-0.1576626489	-2.1617154067	 0.099532
H	 1.7125473022	 0.0332568149	-1.3533980752	 0.106951
H	 0.5534365648	-2.4530545819	-2.1942583326	 0.101172
H	-0.2988747605	-3.4588002137	 0.1044604585	 0.0916
H	 2.718865863	-3.3790375003	 1.2621863731	 0.116192
H	 3.3166465906	-1.817540359	 0.6136290495	 0.103365
H	 1.6586285813	 0.1380756326	 1.5461133653	 0.087229
146.5957	207.2192	238.3348	285.5211	376.4891	423.0891	432.7593	480.0313	535.1651	638.4054	725.576	755.4066	779.5636	831.5194	871.7756	882.6482	900.9431	922.6438	959.4996	968.1691	1022.4716	1038.9296	1058.6685	1075.4849	1098.6053	1123.4327	1143.0315	1151.7316	1200.4226	1228.5442	1265.5141	1278.7992	1299.2674	1307.7937	1331.2327	1369.6977	1386.1295	1411.4277	1481.2144	1496.454	1498.4037	1504.5715	1689.5746	3022.9676	3028.7336	3031.335	3038.2841	3063.6444	3093.0658	3095.3266	3103.5445	3129.9551	3143.9902	3160.4719
CC1CC2C3N2CC3=C1	C[C@H]1C[C@@H]2[C@H]3N2C[C]3[CH]1	
InChI=1S/C8H11N/c1-5-2-6-4-9-7(3-5)8(6)9/h2,5,7-8H,3-4H2,1H3	InChI=1S/C8H11N/c1-5-2-6-4-9-7(3-5)8(6)9/h2,5,7-8H,3-4H2,1H3/t5-,7-,8+,9?/m1/s1
