18
gdb 29794	2.59539	1.58312	0.9983	4.3828	76.48	-0.1707	0.056	0.2267	1173.0768	0.147985	-435.32115	-435.311503	-435.310559	-435.35551	34.35	
C	-0.1072518809	 1.4273724211	 0.0070040062	-0.344279
N	-0.0630771847	-0.0136269599	-0.0301081944	-0.107466
C	 0.0091593022	-0.8249910961	-1.1743597124	-0.212386
C	 0.0168646473	-2.1109352023	-0.7566560324	 0.279711
N	-0.0381420476	-3.3261158196	-1.4499770477	-0.601057
N	-0.0335483364	-2.1046910581	 0.6357853766	-0.141523
C	-0.1098256529	-3.2503961842	 1.511690467	-0.349021
C	-0.0827477614	-0.7924777438	 1.1093220348	 0.470638
O	-0.1371259071	-0.431335972	 2.2753835253	-0.465422
H	 0.7856342839	 1.8665811205	-0.4530598452	 0.125182
H	-0.9940429911	 1.8136258093	-0.5088675597	 0.126205
H	-0.1491122242	 1.7199645774	 1.0575655356	 0.16838
H	 0.0427758389	-0.4110714193	-2.1668200459	 0.121274
H	-0.0843592971	-3.1749191059	-2.4498014521	 0.250192
H	 0.7540073383	-3.9299608216	-1.2506384613	 0.248573
H	 0.8385946018	-3.8000559815	 1.5522085096	 0.120801
H	-0.3330253864	-2.8696004391	 2.5098706189	 0.169615
H	-0.8992463227	-3.9338846651	 1.1859790369	 0.140582
96.9625	116.4684	139.4367	148.6399	196.641	226.6177	267.112	277.2621	319.2261	354.8896	576.2345	590.25	608.3528	612.6438	635.2472	745.0561	786.4052	811.1551	925.0334	1052.1401	1075.0633	1134.6223	1158.0524	1160.1811	1204.5189	1240.521	1320.4719	1336.0021	1413.5431	1427.8923	1458.4806	1488.4337	1494.1463	1504.0849	1514.9853	1519.0141	1637.0253	1703.6347	1801.8359	3020.139	3022.7787	3070.9457	3088.3138	3144.1318	3146.4962	3284.6766	3495.5068	3606.5116
CN1C=C(N)N(C)C1=O	Cn1cc(N)n(C)c1=O	
InChI=1S/C5H9N3O/c1-7-3-4(6)8(2)5(7)9/h3H,6H2,1-2H3	InChI=1S/C5H9N3O/c1-7-3-4(6)8(2)5(7)9/h3H,6H2,1-2H3
