21
gdb 104932	2.28431	1.40082	1.05236	2.9778	81.39	-0.2383	-0.0209	0.2174	1241.6949	0.178581	-424.218537	-424.208138	-424.207194	-424.253329	38.075	
C	 0.1584006034	 1.2415751727	 0.2579990346	-0.257075
O	-0.2524766619	-0.0429784067	-0.1947942468	-0.279457
C	 0.474737363	-0.5502448078	-1.2601352214	 0.293817
C	 1.8608915968	-1.1492184638	-0.9752097826	-0.393472
C	 0.7054520598	-2.0704603085	-1.2320645099	 0.26013
C	 0.1042771523	-2.8131678871	-0.051339169	-0.436002
C	 0.6758174578	-2.8751843381	-2.5219831357	-0.461263
C	 0.2907091658	 0.145102657	-2.5625752665	 0.117386
O	-0.4508271083	 1.081620328	-2.7366947099	-0.278345
H	 1.2246582064	 1.247652935	 0.5251295481	 0.102091
H	-0.0319799974	 2.0099298771	-0.4966660954	 0.143015
H	-0.4319319375	 1.4550052261	 1.151760178	 0.127389
H	 2.629208842	-1.0439942569	-1.7350845134	 0.11799
H	 2.2105144954	-1.0320164784	 0.0448875408	 0.128068
H	 0.0933374273	-2.2000294949	 0.8492277177	 0.13396
H	-0.9272104607	-3.1118615279	-0.2664100749	 0.123621
H	 0.6831429713	-3.7225698999	 0.1451860098	 0.114537
H	 1.1478199277	-3.8495595882	-2.3524774085	 0.122744
H	-0.3526387458	-3.0585745994	-2.851215087	 0.129248
H	 1.2126857805	-2.3935100245	-3.3420823199	 0.119656
H	 0.9193149121	-0.2486843439	-3.3910828779	 0.071962
101.3772	120.1842	148.1398	169.8072	195.8387	208.3148	224.1367	270.8827	329.4412	345.5287	375.5488	392.2311	436.4932	542.1006	551.8558	707.5461	810.2133	851.2612	907.4466	924.9023	973.7588	983.2899	1028.2232	1039.807	1058.2495	1074.2187	1138.2982	1146.4971	1178.8369	1222.7375	1256.168	1324.837	1355.7987	1407.1099	1420.4274	1438.1326	1469.2066	1479.8923	1483.1146	1485.5485	1487.9897	1504.398	1512.1737	1515.8648	1808.0933	2887.0051	3004.1122	3031.7327	3037.2418	3090.6632	3090.8345	3094.746	3119.0211	3126.5176	3130.3674	3152.5258	3217.3609
COC1(CC1(C)C)C=O	CO[C@]1(CC1(C)C)C=O	
InChI=1S/C7H12O2/c1-6(2)4-7(6,5-8)9-3/h5H,4H2,1-3H3	InChI=1S/C7H12O2/c1-6(2)4-7(6,5-8)9-3/h5H,4H2,1-3H3/t7-/m1/s1
