18
gdb 43790	2.42077	1.68383	1.18165	2.6634	78.52	-0.2431	0.0258	0.2689	1083.0544	0.147198	-401.91709	-401.909068	-401.908124	-401.949535	31.363	
N	-0.0122835674	 1.1288182991	-0.4269231129	-0.564044
C	-0.0351587057	-0.0608034576	-0.0315622374	 0.399696
O	 0.9647401089	-0.8676614844	 0.4941519763	-0.309265
C	 0.0375093533	-1.9774443979	 0.6332004429	 0.412358
C	 0.4630292101	-3.3794321642	 0.3849798001	-0.334343
C	 0.1060766985	-2.9048686359	 1.7922662105	-0.334343
C	-1.0721039608	-1.1262790178	 0.0647258517	 0.102973
C	-2.5118589129	-0.9742173805	 0.464812519	-0.319588
C	-2.1602220043	-1.4416993684	-0.9214781856	-0.319586
H	 0.9160807187	 1.5412642021	-0.3305326734	 0.228542
H	-0.2230371339	-4.0430730264	-0.1315760379	 0.121296
H	 1.5115318057	-3.5491763775	 0.1663490907	 0.134064
H	 0.9212596085	-2.76441855	 2.4934940733	 0.134064
H	-0.8238628519	-3.2442851662	 2.2371761321	 0.121296
H	-2.9134004599	-1.6994456956	 1.1650190137	 0.120994
H	-2.8778657228	 0.0384655956	 0.5919950442	 0.142447
H	-2.2844217164	-0.750481401	-1.7475867469	 0.142447
H	-2.3216859078	-2.4860948634	-1.1677463304	 0.120994
101.6387	176.8896	179.2615	202.2515	250.9484	331.2276	503.635	503.6634	531.8933	597.834	690.2907	755.3069	768.8415	815.2939	844.5766	863.9884	873.79	932.6931	954.531	960.2542	988.3329	1013.4759	1023.4976	1046.706	1065.73	1072.1209	1082.4333	1152.7682	1182.7783	1195.4313	1217.6998	1269.6825	1369.1603	1432.1309	1448.0088	1458.5679	1494.2057	1518.9166	1832.155	3130.3618	3132.398	3132.7637	3134.8772	3214.0923	3217.2578	3227.4622	3231.3634	3489.1928
N=C1OC2(CC2)C11CC1	[NH][C]1OC2(CC2)C21CC2	
InChI=1S/C7H9NO/c8-5-6(1-2-6)7(9-5)3-4-7/h8H,1-4H2	InChI=1S/C7H9NO/c8-5-6(1-2-6)7(9-5)3-4-7/h8H,1-4H2
