17
gdb 63342	2.59185	1.4897	1.18852	2.8794	69.9	-0.2593	-0.0162	0.2432	1078.2695	0.136121	-455.199279	-455.190713	-455.189769	-455.232442	32.297	
C	 0.193731912	 1.4674602745	-0.0209379761	-0.438493
C	-0.0783895678	-0.0526790678	-0.0758485091	 0.117255
N	-1.4946095075	-0.4076831823	-0.0400702656	-0.552826
C	 0.6824916095	-0.725524599	-1.2328270148	-0.321328
C	 1.9717441633	-1.1850952903	-0.6001930055	 0.410728
N	 3.0409404694	-1.4966837477	-1.1780613027	-0.514823
O	 1.8005485157	-1.2337185262	 0.7844909729	-0.217803
C	 0.5943183912	-0.6867182852	 1.1483937641	 0.44955
O	 0.1947104149	-0.7043999052	 2.2721922221	-0.334802
H	 1.2645197183	 1.6968417696	-0.0508573729	 0.132761
H	-0.2769960381	 1.9515275719	-0.8831527272	 0.123706
H	-0.2255223861	 1.8945974287	 0.8940398815	 0.138844
H	-1.8398801684	-0.2667201615	 0.9063954089	 0.246989
H	-2.0242831685	 0.2143535934	-0.6439130586	 0.230735
H	 0.1172613247	-1.5985865401	-1.5730144407	 0.153661
H	 0.8783672443	-0.0833805343	-2.0924886893	 0.137753
H	 3.7534612232	-1.7893215287	-0.5074758172	 0.238092
67.0301	137.8559	211.4003	238.2746	268.4124	313.5478	340.0841	369.645	421.4712	515.9506	581.163	614.2654	637.9387	747.4893	758.5388	870.6383	895.0598	908.3011	919.5951	943.0793	991.3004	1045.6487	1085.5231	1097.9112	1138.6122	1213.5741	1226.5972	1303.3317	1331.7284	1357.8196	1405.9773	1469.5643	1490.3091	1497.613	1646.2034	1795.9355	1908.0059	3030.7129	3069.9936	3100.6319	3121.0113	3132.3615	3480.9492	3484.2344	3564.7764
CC1(N)CC(=N)OC1=O	C[C@@]1(N)C[C]([NH])OC1=O	
InChI=1S/C5H8N2O2/c1-5(7)2-3(6)9-4(5)8/h6H,2,7H2,1H3	InChI=1S/C5H8N2O2/c1-5(7)2-3(6)9-4(5)8/h6H,2,7H2,1H3/t5-/m1/s1
