19
gdb 104918	2.04346	1.55905	1.05135	6.0436	77.38	-0.234	0.0333	0.2673	1201.1143	0.156384	-419.189079	-419.178827	-419.177883	-419.223877	37.516	
C	-0.4254566701	 1.3483183727	 0.1799895926	-0.330295
N	 0.3409905515	 0.1314053404	-0.0600640452	-0.346151
C	 0.8627283195	-0.5055298781	 1.113124169	 0.129877
C	-0.0477557238	-1.1344302534	 2.1956656665	-0.388664
C	 0.7799695594	-2.0121612919	 1.295977336	 0.340925
C	 0.1223240965	-2.8814523632	 0.2450459698	-0.454577
O	 1.9440927154	-2.5705461363	 1.8322622189	-0.445286
C	 2.0560470673	 0.1467634376	 1.6179302779	 0.314737
N	 2.9777967622	 0.7206324199	 2.014889634	-0.359835
H	 0.2249642101	 2.102220463	 0.6343013436	 0.149276
H	-0.7763928667	 1.742321742	-0.777172663	 0.125214
H	-1.2952720117	 1.208770775	 0.8433651203	 0.100319
H	-0.1588203553	-0.5211903833	-0.6462565363	 0.229506
H	 0.2632070068	-1.0315407448	 3.2289148351	 0.136668
H	-1.1157833083	-1.0701045233	 2.0162496498	 0.121786
H	-0.8083338205	-2.4514735539	-0.1348495532	 0.117666
H	 0.8046073118	-3.0597028192	-0.5913507283	 0.145364
H	-0.1309139966	-3.8519608965	 0.6863708898	 0.124004
H	 1.6877968124	-3.2446479466	 2.4716434726	 0.289468
71.9627	119.0323	151.3905	174.601	194.2314	230.4553	241.086	291.8063	331.2282	386.1276	401.9215	413.2963	482.5922	572.5828	596.6947	622.0356	680.5648	780.0761	895.9709	911.3412	916.4813	982.542	1034.6952	1046.6565	1083.8772	1101.6045	1156.3584	1186.4047	1235.2342	1304.9431	1323.1908	1371.9936	1412.865	1458.056	1461.6543	1474.901	1490.2565	1495.3995	1502.0745	1521.203	2356.1247	2966.9316	3035.9502	3075.1374	3099.7435	3119.9071	3121.1697	3134.3418	3232.4584	3594.7551	3798.8533
CNC1(CC1(C)O)C#N	CN[C@]1(C[C@]1(C)O)C#N	
InChI=1S/C6H10N2O/c1-5(9)3-6(5,4-7)8-2/h8-9H,3H2,1-2H3	InChI=1S/C6H10N2O/c1-5(9)3-6(5,4-7)8-2/h8-9H,3H2,1-2H3/t5-,6+/m0/s1
