18
gdb 55939	4.43486	0.89735	0.83241	4.1718	73.16	-0.2398	0.0515	0.2913	1391.1132	0.149042	-435.254286	-435.245717	-435.244772	-435.288596	32.12	
N	-0.0134735339	 1.3957512759	 0.07775146	-0.568549
C	 0.0833734898	 0.0128844419	-0.0382309227	 0.452707
O	 1.1480700905	-0.5631185348	-0.1589889038	-0.388066
N	-1.1320858636	-0.6367769132	 0.0267136949	-0.355077
C	-1.2103392954	-2.0742586152	 0.0648963789	 0.051925
C	-1.6033519843	-2.8458311353	 1.3633346713	-0.196527
N	-2.6773373238	-3.6140850952	 0.6374119859	-0.119853
C	-3.6445753464	-2.5960275985	 0.205954085	-0.245608
C	-2.4076885099	-2.7505045059	-0.5895183543	-0.055628
H	 0.8433943153	 1.8589027383	-0.1857243185	 0.26141
H	-0.8429871407	 1.8391857506	-0.2884639895	 0.246088
H	-1.9341850239	-0.1145173945	 0.3413015204	 0.235296
H	-0.2617185745	-2.4395776361	-0.3260396447	 0.13403
H	-0.825859923	-3.5167070094	 1.7316574598	 0.123528
H	-1.9848822135	-2.242611357	 2.1946246401	 0.099326
H	-4.5541720833	-3.0169127626	-0.2115920522	 0.126108
H	-3.8064665215	-1.7211947167	 0.835125226	 0.098824
H	-2.421131468	-3.1635246422	-1.5932550864	 0.100068
33.2542	85.1609	118.054	235.6196	335.467	367.7446	378.0296	443.2074	478.5753	548.9025	558.7598	626.2768	744.8257	756.2592	776.8069	793.7099	890.586	956.4842	982.0711	996.5984	999.2443	1065.7478	1080.1739	1102.8519	1109.5332	1120.1748	1181.9191	1208.35	1227.2492	1259.7587	1291.6817	1306.6479	1371.145	1395.842	1488.6749	1508.0658	1540.0006	1628.2772	1803.892	3042.7584	3088.8293	3120.0679	3138.6108	3161.4637	3190.0261	3570.7707	3629.6874	3684.2241
NC(=O)NC1CN2CC12	NC(=O)N[C@H]1CN2C[C@@H]12	
InChI=1S/C5H9N3O/c6-5(9)7-3-1-8-2-4(3)8/h3-4H,1-2H2,(H3,6,7,9)	InChI=1S/C5H9N3O/c6-5(9)7-3-1-8-2-4(3)8/h3-4H,1-2H2,(H3,6,7,9)/t3-,4-,8?/m0/s1
