16
gdb 79214	2.67269	1.68636	1.33199	4.6231	72.67	-0.2586	-0.0071	0.2515	983.9952	0.123974	-400.692594	-400.685129	-400.684184	-400.724399	28.97	
C	 0.0323837366	 1.5784714185	 0.0234471273	-0.426672
C	 0.061717756	 0.0625748054	-0.0520732033	-0.018105
C	 0.8047494723	-0.6613345299	-1.1804793379	-0.14559
C	 2.2548007492	-0.7912725003	-0.6818839679	 0.094039
O	 2.3516828961	-0.1312679169	 0.584688342	-0.315432
C	 1.0523498068	-0.71204461	 0.8862217759	 0.320488
C	 0.789574465	-0.9265892301	 2.2865114494	 0.178787
N	 0.5353770597	-1.1154849871	 3.3980202126	-0.334338
C	 1.2393082254	-1.7905824227	-0.2544532492	-0.196734
H	 1.0456740562	 1.9848635832	-0.0065378196	 0.139913
H	-0.5335136912	 1.9921959211	-0.8176460768	 0.120652
H	-0.4494705998	 1.9154026076	 0.9473354918	 0.130407
H	-0.9344007765	-0.3756116753	 0.06181983	 0.099191
H	 0.5365355147	-0.724548982	-2.2267563111	 0.10474
H	 3.1364234136	-0.8593950786	-1.3030361092	 0.125501
H	 1.160202026	-2.8672195929	-0.2842547941	 0.123156
126.2796	165.2307	200.1877	234.5949	283.998	477.0131	510.3326	536.9233	581.2365	624.0502	723.0779	768.5767	779.0116	822.6886	893.6064	918.8435	925.8877	953.4893	1001.2332	1019.9671	1029.3467	1047.2966	1086.6683	1118.2062	1136.1975	1174.6339	1203.1954	1266.8306	1298.8542	1357.7196	1379.8408	1407.5328	1488.7062	1501.4283	2360.6892	3039.6542	3071.4798	3102.3371	3133.948	3208.5404	3222.4531	3236.6299
CC1C2C3OC1(C#N)C23	C[C@H]1[C@H]2[C@H]3O[C@]1(C#N)[C@@H]23	
InChI=1S/C7H7NO/c1-3-4-5-6(4)9-7(3,5)2-8/h3-6H,1H3	InChI=1S/C7H7NO/c1-3-4-5-6(4)9-7(3,5)2-8/h3-6H,1H3/t3-,4+,5-,6+,7-/m0/s1
