19
gdb 93578	4.36794	1.00091	0.9198	2.1612	77.87	-0.2108	0.0204	0.2311	1325.2403	0.159922	-419.200312	-419.191559	-419.190615	-419.234266	32.14	
C	 0.3282971453	 1.6329466463	-0.6582686124	-0.378105
C	-0.0204809793	 0.3356941927	 0.0770260731	 0.045528
C	 0.3668765951	-0.9484458659	-0.7285949577	-0.195434
N	 1.5784489408	-1.3543142968	-0.0230261917	-0.338163
C	 1.5849256594	-0.7019229738	 1.1879631188	 0.367107
N	 0.7428451529	 0.2506245808	 1.3434401191	-0.338523
C	 2.5522996354	-1.1150978549	 2.2366187694	-0.007995
C	 2.5410046552	-2.4859345496	 2.7785246902	-0.173628
O	 3.5380032354	-2.0765586614	 1.8450106649	-0.236596
H	 1.3878481771	 1.6453714021	-0.9349413142	 0.120474
H	-0.2683792103	 1.7390468146	-1.5708591684	 0.105021
H	 0.1362450719	 2.494659286	-0.0136752824	 0.126215
H	-1.0911948863	 0.3378041128	 0.3064041959	 0.078963
H	-0.4146783495	-1.7192910321	-0.6729824787	 0.098184
H	 0.5655672669	-0.7382726776	-1.7844974389	 0.1075
H	 2.024607262	-2.2487630264	-0.1386055486	 0.250558
H	 2.9044103136	-0.3092711323	 2.8757513098	 0.122454
H	 2.8890371422	-2.6569872175	 3.795553986	 0.128567
H	 1.8127110023	-3.203472827	 2.4042513557	 0.117874
61.6804	100.8342	128.3489	178.3295	240.9014	270.5908	339.5962	408.9147	457.9304	493.6564	649.9941	709.3568	752.402	818.1274	857.6933	888.013	923.4387	935.402	976.2166	1011.6906	1049.5813	1072.3877	1093.0497	1114.7531	1145.8546	1151.8427	1167.2764	1221.9249	1243.5005	1274.2678	1311.4678	1317.8	1361.9692	1400.1188	1402.9823	1487.0968	1487.9235	1495.4446	1523.8371	1532.3325	1699.1318	2994.742	3031.9853	3044.2174	3065.2564	3089.1828	3101.9631	3120.3933	3152.2849	3180.7301	3659.0734
CC1CNC(=N1)C1CO1	C[C@H]1CN[C]([N]1)[C@H]1CO1	
InChI=1S/C6H10N2O/c1-4-2-7-6(8-4)5-3-9-5/h4-5H,2-3H2,1H3,(H,7,8)	InChI=1S/C6H10N2O/c1-4-2-7-6(8-4)5-3-9-5/h4-5H,2-3H2,1H3,(H,7,8)/t4-,5+/m0/s1
