25
gdb 102320	2.4048	0.8798	0.75443	2.5392	89.89	-0.2453	-0.0193	0.226	1689.5534	0.225596	-389.518179	-389.506507	-389.505563	-389.55601	41.539	
C	-0.1057760366	 1.5438066969	 0.1861889913	-0.393123
C	-0.0954138413	 0.0256750282	-0.0184528576	-0.193244
C	 0.7672926938	-0.4339292464	-1.2116289866	-0.067181
C	 0.8844685191	-1.9746860659	-1.2480482242	-0.201446
C	 1.6980732694	-2.5682968336	-2.4152615536	 0.03082
C	 3.1278512117	-2.0127917334	-2.4806562168	-0.388965
C	 1.7074048106	-4.0998983393	-2.3166219249	-0.391289
C	 0.1523074688	 0.0542404781	-2.5067048953	 0.176362
O	 0.7057306972	 0.7244501538	-3.3408882586	-0.262246
H	 0.9043119725	 1.9228767139	 0.3742547761	 0.122559
H	-0.4921716937	 2.0676436035	-0.6944585156	 0.127722
H	-0.7318393938	 1.8204002171	 1.0397736178	 0.116225
H	 0.2778015809	-0.4683715916	 0.8864007583	 0.102674
H	-1.1224491541	-0.338737915	-0.158790263	 0.099764
H	 1.7628068057	 0.0156751335	-1.1357148727	 0.093274
H	 1.3307736048	-2.2983440449	-0.2979914222	 0.098834
H	-0.1272469432	-2.4035617415	-1.2675349563	 0.094303
H	 1.1948052788	-2.2975578315	-3.3540597346	 0.083753
H	 3.6998034343	-2.5118596882	-3.2695795217	 0.111137
H	 3.1362909454	-0.9410668918	-2.6967342024	 0.133575
H	 3.6576640768	-2.1760367896	-1.5338863393	 0.106786
H	 0.6910239019	-4.5077886729	-2.2979449761	 0.108825
H	 2.2331179821	-4.5468738409	-3.1664277124	 0.112653
H	 2.2148922869	-4.4293257458	-1.4018651979	 0.111609
H	-0.9071537179	-0.2747876125	-2.6502437818	 0.066621
39.2506	60.0726	77.7825	122.3818	125.2616	220.9885	230.2396	243.2478	272.2498	301.2246	312.0975	347.8106	406.2081	427.3176	480.1938	550.1019	771.8254	806.0412	840.909	904.2724	932.2691	945.1451	959.7871	972.3274	1002.0712	1034.9448	1055.9367	1090.2535	1139.65	1165.0169	1179.433	1195.5922	1249.3566	1270.6973	1294.0942	1338.0823	1352.2712	1369.8218	1373.8972	1386.0643	1401.381	1418.6385	1421.0041	1426.622	1474.8815	1487.7447	1491.1661	1495.6991	1500.0502	1504.9251	1505.7827	1514.2008	1828.3418	2823.707	3003.1462	3006.2635	3016.4912	3022.899	3028.2118	3035.3717	3042.2522	3052.6042	3070.363	3088.2966	3093.0311	3100.2252	3103.4999	3107.9752	3114.1355
CCC(CC(C)C)C=O	CC[C@@H](CC(C)C)C=O	
InChI=1S/C8H16O/c1-4-8(6-9)5-7(2)3/h6-8H,4-5H2,1-3H3	InChI=1S/C8H16O/c1-4-8(6-9)5-7(2)3/h6-8H,4-5H2,1-3H3/t8-/m0/s1
