17
gdb 64666	3.25043	1.24846	1.04161	1.2807	72.5	-0.2366	0.044	0.2805	1153.6501	0.13397	-421.73682	-421.728426	-421.727482	-421.769794	32.328	
O	-1.1676049317	 1.154852292	 0.9398520502	-0.476535
C	-0.2084085045	 0.3818674447	 0.2841747123	 0.414232
C	 1.1101509346	 0.438442605	 1.0426639156	-0.418626
C	 2.2060785828	-0.3045003183	 0.4326279725	 0.290771
C	 3.1148336576	-0.9110219718	-0.0682584849	-0.451565
C	-0.5799536035	-0.9211412837	-0.4118011767	-0.18936
C	-1.9555408088	-0.7452194617	-1.0358858714	-0.116646
O	-1.5551492669	 0.51282524	-1.6675635936	-0.308822
C	-0.2071725357	 0.325091597	-1.2088710933	 0.005899
H	-1.7313556295	 1.5225509092	 0.2441613314	 0.296077
H	 1.3881802341	 1.4943999994	 1.147525149	 0.144257
H	 0.9317427655	 0.0675141531	 2.0603527601	 0.146984
H	 3.9202500499	-1.4461645787	-0.5070678671	 0.199646
H	-0.0450618753	-1.8504947205	-0.2749966309	 0.113096
H	-2.1952256213	-1.4870013491	-1.8037435391	 0.118928
H	-2.8048699233	-0.6139440839	-0.3567503883	 0.115891
H	 0.604159926	 0.5691549073	-1.8846102358	 0.115771
72.6842	121.4704	221.0879	239.6993	300.6929	333.5798	349.6947	435.1082	480.4895	533.247	626.0756	629.7304	657.761	682.8594	781.9694	834.8428	865.9654	938.9543	964.0657	973.1787	995.7099	1017.8811	1030.5272	1073.5407	1101.0861	1138.9374	1164.9029	1220.0318	1231.189	1241.0652	1298.0488	1343.0495	1388.068	1443.2625	1476.4119	1510.8771	2239.997	3023.8588	3038.5728	3056.2173	3092.2148	3183.4576	3215.0643	3505.2857	3733.766
OC1(CC#C)C2COC12	O[C@@]1(CC#C)[C@H]2CO[C@@H]12	
InChI=1S/C7H8O2/c1-2-3-7(8)5-4-9-6(5)7/h1,5-6,8H,3-4H2	InChI=1S/C7H8O2/c1-2-3-7(8)5-4-9-6(5)7/h1,5-6,8H,3-4H2/t5-,6+,7-/m0/s1
