18
gdb 12874	2.56901	2.33391	1.74787	1.3513	72.14	-0.2258	0.0201	0.2459	851.465	0.153778	-347.799002	-347.791369	-347.790425	-347.830264	30.004	
C	-0.094466028	 1.5317406274	 0.0847894293	-0.418269
C	 0.09422321	 0.0345723525	-0.0034278448	-0.067683
C	 0.7482038726	-0.682475685	-1.1752059901	-0.112081
C	 1.6638668445	 0.0957494963	-2.1194233973	-0.280134
C	 2.8113992156	 0.5325574914	-1.2310613503	-0.068577
C	 2.6715294221	 0.0876391435	 0.0194422285	-0.146365
C	 1.4109082326	-0.6973580399	 0.1908647474	 0.351687
O	 1.4445286557	-1.8682959202	 0.9548526842	-0.469553
H	 0.795132855	 2.0747108494	-0.2436564083	 0.124465
H	-0.9364819073	 1.8551291943	-0.5376575007	 0.115418
H	-0.3087505909	 1.8400531128	 1.1143551992	 0.111016
H	-0.7398754347	-0.5399711024	 0.3962164566	 0.084106
H	 0.2571381351	-1.5773904151	-1.5381121441	 0.091241
H	 2.0128428232	-0.5295135767	-2.9513229999	 0.110463
H	 1.1575232416	 0.9565380676	-2.5769122858	 0.110029
H	 3.6184075875	 1.1623559391	-1.5890380978	 0.094023
H	 3.3589895914	 0.2638984794	 0.8393850982	 0.089525
H	 1.228577674	-1.6376006846	 1.8643752157	 0.280689
181.8205	205.4131	213.9528	218.771	288.0243	330.5244	393.1467	518.1708	529.8456	612.6536	718.4904	725.5837	755.3765	844.8964	876.8791	907.6234	941.0651	957.6283	993.7514	998.7813	1034.6809	1095.9451	1099.6799	1122.2403	1145.5286	1186.9104	1219.2059	1251.7209	1307.7022	1323.3703	1338.0446	1376.2752	1415.036	1443.8031	1474.1364	1498.1924	1503.2897	1667.4153	3016.3329	3029.7812	3041.4737	3083.9797	3111.0834	3127.1532	3181.6595	3183.597	3206.7509	3803.1865
CC1C2CC=CC12O	C[C@H]1[C@H]2CC=C[C@@]12O	
InChI=1S/C7H10O/c1-5-6-3-2-4-7(5,6)8/h2,4-6,8H,3H2,1H3	InChI=1S/C7H10O/c1-5-6-3-2-4-7(5,6)8/h2,4-6,8H,3H2,1H3/t5-,6+,7+/m0/s1
