18
gdb 85547	2.44755	1.58665	1.07377	3.7969	71.31	-0.2397	-0.0141	0.2256	1107.2795	0.149172	-439.089773	-439.081837	-439.080893	-439.122577	30.813	
O	 0.0714324261	 1.3936529124	-0.153936356	-0.434502
C	 0.005494414	-0.0213825496	-0.0659122806	 0.125984
C	 0.8230638043	-0.546162019	 1.132056139	-0.333268
C	 0.6689606849	-2.0435523148	 1.3324098969	 0.373298
O	 1.6110203574	-2.797453073	 1.3901202165	-0.305952
C	-0.7669026114	-2.5545219138	 1.4694824477	-0.310163
C	-1.8109435616	-1.7006673135	 0.7714690201	-0.04153
N	-2.0641011783	-0.3552073187	 1.3221994713	-0.350092
C	-1.4334756895	-0.4916553285	-0.0066154467	-0.061009
H	-0.4026774537	 1.7375170288	 0.6131679575	 0.284472
H	 0.4565439798	-0.3842207556	-0.9969591006	 0.102589
H	 1.8793693563	-0.301286436	 1.0124708653	 0.125004
H	 0.4394985173	-0.0523331283	 2.0340825222	 0.129237
H	-0.7857273036	-3.5793075582	 1.0884020906	 0.129914
H	-0.9955332871	-2.6108466439	 2.5423537776	 0.138871
H	-2.680036481	-2.2508233698	 0.4184507934	 0.096566
H	-3.0464577867	-0.115297029	 1.2255271057	 0.237252
H	-2.0287407873	-0.2345081195	-0.8796224799	 0.093328
58.9403	121.6653	227.8968	314.0358	348.1295	390.63	408.1239	440.9667	496.1732	542.4192	613.5544	661.3924	777.9791	827.7898	832.5324	868.7063	911.9907	937.9305	981.8602	1012.9047	1054.9986	1076.293	1120.8183	1134.8745	1164.0336	1199.8683	1232.0781	1238.2419	1262.4588	1273.6748	1323.8322	1337.9813	1362.9713	1390.9756	1438.7329	1440.5171	1453.5697	1464.9118	1817.2151	3028.5999	3036.0577	3051.1578	3096.908	3130.5602	3130.8038	3142.2752	3513.9687	3784.9207
OC1CC(=O)CC2NC12	O[C@H]1CC(=O)C[C@H]2N[C@@H]12	
InChI=1S/C6H9NO2/c8-3-1-4-6(7-4)5(9)2-3/h4-7,9H,1-2H2	InChI=1S/C6H9NO2/c8-3-1-4-6(7-4)5(9)2-3/h4-7,9H,1-2H2/t4-,5+,6-/m1/s1
