16
gdb 96871	3.20574	1.29061	0.97708	2.3765	70.49	-0.2535	-0.0561	0.1974	1201.0553	0.123078	-475.070953	-475.062244	-475.061299	-475.104919	30.845	
C	-0.0377943598	 1.4242458854	 0.1929608976	-0.349828
N	 0.0398003538	-0.0163115292	 0.0253710031	-0.281087
C	 0.5443007133	-0.5381345929	-0.9963955643	 0.272691
O	 0.5955258836	-1.8964619035	-1.1338147069	-0.237796
C	 1.258422435	-2.2360829876	-2.343109916	 0.213083
C	 0.3944989251	-3.1290427586	-3.2036813559	-0.399654
O	 1.5475473408	-1.0080440893	-3.0169209097	-0.220646
C	 1.1637594103	 0.0430230027	-2.251923605	 0.349239
O	 1.3112019736	 1.1842222497	-2.5764665656	-0.322623
H	 0.4826664741	 1.6877751686	 1.1205403645	 0.136201
H	 0.3736403959	 2.0078797509	-0.6331061024	 0.157513
H	-1.0894437514	 1.6939908585	 0.3414739104	 0.13598
H	 2.2162975704	-2.7103405711	-2.0951616062	 0.116835
H	-0.5438173301	-2.6229902332	-3.4444347594	 0.141192
H	 0.9207930572	-3.3743802129	-4.1294337583	 0.143051
H	 0.1746703782	-4.0530054076	-2.6631530659	 0.145849
61.4473	110.9394	115.2389	222.9264	236.975	250.8121	331.8534	391.312	431.5426	480.8712	564.7065	656.3864	727.6547	738.8883	801.2285	900.0291	954.8739	1027.4634	1100.4719	1134.9745	1139.3393	1139.808	1146.0673	1187.6179	1288.0252	1378.0671	1396.0265	1419.2794	1441.7324	1483.3827	1484.0128	1496.0601	1497.6117	1791.3641	1881.5113	3030.7144	3035.6882	3054.8714	3081.637	3130.7903	3139.8381	3140.8922
CN=C1OC(C)OC1=O	CN=C1O[C@@H](C)OC1=O	
InChI=1S/C5H7NO3/c1-3-8-4(6-2)5(7)9-3/h3H,1-2H3	InChI=1S/C5H7NO3/c1-3-8-4(6-2)5(7)9-3/h3H,1-2H3/t3-/m1/s1
