18
gdb 119292	2.25506	1.2568	0.94625	2.8688	72.97	-0.2718	0.0066	0.2783	1293.9842	0.14571	-439.062755	-439.053269	-439.052325	-439.098106	33.059	
C	-0.0649143867	 1.5402542832	-0.0117213854	-0.386037
C	 0.0225359539	 0.0270813474	 0.0622728102	-0.074956
O	-1.3020367111	-0.4936689292	-0.0811047647	-0.280467
C	-1.4155177983	-1.8833986118	-0.0006765799	 0.21094
C	-1.3143412024	-2.5214233366	 1.4210393913	-0.113085
O	-2.6934459818	-2.9210877538	 1.3827350954	-0.261982
C	-2.8977151936	-2.3236177021	 0.0915810102	-0.110399
C	-0.6252810741	-2.5672399256	-1.037338961	 0.242772
N	 0.0015207486	-3.1000949007	-1.8492008649	-0.341712
H	 0.9321141619	 1.9784023969	 0.0891713183	 0.125351
H	-0.4862946871	 1.8527050319	-0.9708990359	 0.136293
H	-0.6995527008	 1.9310841949	 0.7883451905	 0.130978
H	 0.6657914955	-0.3701352093	-0.7347998833	 0.124484
H	 0.4472151163	-0.2934351725	 1.0254282264	 0.099722
H	-0.6355712381	-3.373840875	 1.5260162161	 0.125827
H	-1.113236396	-1.7781624838	 2.2015349408	 0.11657
H	-3.570515753	-1.4599519288	 0.1215477424	 0.127428
H	-3.2349387432	-3.0470906352	-0.6566637765	 0.128274
54.8067	72.5361	106.6015	145.7264	189.0818	208.9076	250.503	350.7504	395.9456	419.3957	532.5186	574.0178	676.1133	824.4253	832.2415	863.2447	940.3113	960.2135	997.7294	1052.0551	1057.7172	1080.0635	1139.9693	1155.0563	1164.2152	1186.7043	1198.4666	1249.9908	1302.4164	1309.5146	1374.1899	1403.3842	1430.9521	1484.1334	1494.7363	1499.6489	1520.1407	1525.927	2350.4487	2991.3756	3025.9617	3036.3138	3041.8462	3049.2285	3086.8989	3099.6418	3124.9017	3128.2004
CCOC1(COC1)C#N	CCOC1(COC1)C#N	
InChI=1S/C6H9NO2/c1-2-9-6(3-7)4-8-5-6/h2,4-5H2,1H3	InChI=1S/C6H9NO2/c1-2-9-6(3-7)4-8-5-6/h2,4-5H2,1H3
