20
gdb 13482	3.0712	1.63036	1.13278	2.5805	75.68	-0.2366	-0.0175	0.2191	1092.0589	0.175457	-349.025714	-349.016848	-349.015904	-349.0592	32.783	
C	 0.0041045635	 1.5987521499	 0.115810863	-0.391164
C	 0.0339622916	 0.0698919837	-0.0133268455	 0.020886
C	 0.8495781642	-0.5739171215	 1.1169844587	-0.397768
C	-1.3850725069	-0.5063938357	-0.0564085601	-0.071075
C	-2.3494576496	-0.1467176197	-1.2349979763	-0.259205
C	-2.7373119314	-1.6470220072	-1.396900928	-0.334877
C	-1.5690569977	-1.9842442832	-0.4575487438	 0.38535
O	-0.9597001886	-2.9889245539	-0.2215681944	-0.300029
H	 1.0189426359	 2.00991654	 0.1029105347	 0.113908
H	-0.5566839436	 2.065307589	-0.7005354095	 0.11334
H	-0.4649061593	 1.9012806752	 1.0597588318	 0.111749
H	 0.5189422346	-0.1815381418	-0.9678413035	 0.073049
H	 0.4184507323	-0.3273338441	 2.0950814316	 0.107061
H	 0.8642175983	-1.6618623114	 1.0188970541	 0.146234
H	 1.8815724526	-0.2079329981	 1.108886997	 0.107165
H	-1.8803674593	-0.3365544957	 0.9105362402	 0.095278
H	-3.1634177584	 0.5403471613	-1.0017192175	 0.108009
H	-1.8058022616	 0.2333110411	-2.1039393233	 0.112394
H	-3.7017503021	-1.8998211044	-0.9441367761	 0.131469
H	-2.6968155543	-2.0912030534	-2.394483853	 0.128228
68.2349	97.5727	152.1338	225.5798	237.8421	266.8186	314.7718	351.0338	439.271	452.0915	561.972	676.8549	711.908	767.2834	878.1756	911.3895	934.1528	936.9555	968.6748	982.8243	1005.9596	1043.2137	1089.8541	1146.2507	1170.3836	1197.897	1201.5541	1230.3888	1240.269	1260.9061	1291.4111	1347.4002	1374.151	1400.77	1421.938	1440.7711	1490.4331	1490.6397	1493.5377	1503.2209	1515.2285	1877.9456	2994.5151	3013.8037	3024.5782	3029.5937	3057.2809	3071.0474	3088.5549	3094.4546	3100.5353	3111.9391	3128.2141	3132.6387
CC(C)C1CCC1=O	CC(C)[C@H]1CCC1=O	
InChI=1S/C7H12O/c1-5(2)6-3-4-7(6)8/h5-6H,3-4H2,1-2H3	InChI=1S/C7H12O/c1-5(2)6-3-4-7(6)8/h5-6H,3-4H2,1-2H3/t6-/m1/s1
