18
gdb 108878	4.53012	0.88009	0.74719	4.4651	82.26	-0.2258	-0.0182	0.2077	1503.7828	0.146437	-439.09814	-439.088603	-439.087658	-439.13446	32.925	
C	-0.0455008451	 1.4574384181	-0.0727137919	-0.333838
N	-0.1113130704	 0.0072255691	-0.0729001432	-0.338308
C	 0.4948326739	-0.6491415194	-0.9650744738	 0.460363
O	 1.2500847079	-0.0999239576	-1.989529987	-0.263993
C	 1.7794950396	-1.146002901	-2.7987274116	-0.172997
C	 1.2764766026	-2.4220342558	-2.1744805	 0.284933
C	 1.6057697024	-3.7679027235	-2.7221013932	-0.181058
O	 0.9925261562	-4.7597328169	-1.925080633	-0.406546
C	 0.5333524998	-2.1059527544	-1.1119806434	-0.299435
H	 0.5534288546	 1.8878617272	-0.8830948784	 0.120872
H	-1.0628859428	 1.8621439151	-0.1358541236	 0.122032
H	 0.3657397565	 1.7971292928	 0.885570196	 0.122018
H	 1.4338483303	-1.0143868632	-3.834238979	 0.121491
H	 2.87707233	-1.0799562291	-2.8052957256	 0.121489
H	 1.2675982807	-3.8221958024	-3.7726696777	 0.105165
H	 2.7039554266	-3.8874159366	-2.7486719423	 0.105164
H	 1.2138758074	-5.6209471242	-2.2904031629	 0.294854
H	 0.0237672897	-2.7778124282	-0.4399965894	 0.137794
16.189	73.6424	104.4072	150.9321	197.9863	232.1771	243.804	290.5334	426.9154	436.6472	484.1373	670.7852	699.945	706.5746	874.3349	886.3467	930.2723	988.6258	1027.0582	1054.2074	1070.6258	1096.7004	1129.9808	1136.2316	1176.5277	1201.1651	1204.248	1228.8149	1253.7654	1324.5182	1381.1333	1436.6254	1470.4066	1494.482	1494.8695	1502.3429	1507.6973	1709.42	1781.8151	2938.5211	2950.5481	2996.3036	3011.8234	3021.6737	3065.7225	3083.8216	3273.6681	3839.4613
CN=C1OCC(CO)=C1	CN=C1OCC(=C1)CO	
InChI=1S/C6H9NO2/c1-7-6-2-5(3-8)4-9-6/h2,8H,3-4H2,1H3	InChI=1S/C6H9NO2/c1-7-6-2-5(3-8)4-9-6/h2,8H,3-4H2,1H3
