18
gdb 80248	2.75469	1.43062	1.28368	2.7688	72.74	-0.2097	-0.0112	0.1985	1057.3366	0.147166	-439.053002	-439.044854	-439.043909	-439.085295	31.732	
C	-0.0069461617	 1.4645925403	-0.1257023344	-0.333034
N	 0.025888645	 0.0091112301	-0.0225199906	-0.114741
C	-0.9113160848	-0.6655714996	 0.9472847677	-0.034138
C	-0.6986564407	-2.1258859275	 0.5021013585	-0.334362
C	 0.8492542016	-2.0657696457	 0.4420736981	 0.458905
O	 1.6344931704	-2.9292622592	 0.1697684358	-0.332035
C	 1.0917335309	-0.6073675811	 0.8556283807	-0.179335
C	 0.1261317848	-0.522809057	 2.0920909801	 0.144116
O	 0.0377430344	 0.7128906734	 2.753198204	-0.434208
H	 0.8287652691	 1.7836112938	-0.7579832411	 0.119279
H	-0.9312305502	 1.7477591462	-0.6412660564	 0.119272
H	 0.0425098632	 2.003026985	 0.8274833845	 0.12313
H	-1.92683255	-0.2815663144	 1.0418580974	 0.085008
H	-1.0410622326	-2.8856201236	 1.2108430482	 0.122687
H	-1.129812594	-2.3267351368	-0.4802271544	 0.139729
H	 2.1092897164	-0.2205363784	 0.8329639054	 0.082497
H	 0.180773301	-1.3537277984	 2.8137123317	 0.07755
H	 0.8221633073	 0.8199540229	 3.3014548448	 0.28968
119.4315	183.8508	244.2756	259.8696	274.3595	304.3256	309.7075	423.1231	458.4852	556.0015	592.003	623.1471	749.547	769.3341	834.5028	882.1275	931.9826	941.9331	959.1905	983.2616	1063.1132	1113.7831	1134.4004	1138.6	1157.0585	1171.3141	1172.6251	1203.1403	1231.6654	1247.1363	1283.1758	1300.7443	1322.972	1431.3029	1446.1197	1456.0486	1484.9278	1517.2314	1882.7596	2966.1131	3018.7175	3069.7644	3085.9068	3091.4892	3124.7253	3130.8319	3141.0713	3811.2269
CN1C2CC(=O)C1C2O	CN1[C@H]2CC(=O)[C@@H]1[C@H]2O	
InChI=1S/C6H9NO2/c1-7-3-2-4(8)5(7)6(3)9/h3,5-6,9H,2H2,1H3	InChI=1S/C6H9NO2/c1-7-3-2-4(8)5(7)6(3)9/h3,5-6,9H,2H2,1H3/t3-,5+,6-/m0/s1
