16
gdb 54137	3.3712	1.15524	1.00045	3.9514	66.04	-0.2494	-0.0276	0.2218	1169.0568	0.121385	-475.062212	-475.052957	-475.052013	-475.096962	33.81	
N	-0.2435677071	 1.482474979	 0.387794164	-0.534309
C	 0.0753995971	 0.236899247	-0.0311782664	 0.391859
O	 1.2043248137	-0.1294360987	-0.30840409	-0.386745
C	-1.0979039972	-0.7355040963	-0.1465102281	 0.27412
O	-2.2927368254	-0.075296978	 0.2276836846	-0.50367
C	-1.1682395574	-1.484845199	-1.5204882071	-0.37526
C	-1.2827196494	-2.7998826349	-0.7339316347	 0.375997
O	-1.6482079265	-3.9041055009	-1.0084910288	-0.284284
C	-0.8576813455	-2.1076125668	 0.5704377503	-0.37521
H	 0.4900310935	 2.1644433925	 0.4818453689	 0.264552
H	-1.1972165491	 1.7191408051	 0.5999426016	 0.279427
H	-3.0336040194	-0.6852702226	 0.1553892616	 0.290896
H	-1.9845033693	-1.2128954202	-2.1944763487	 0.128304
H	-0.2117356242	-1.4283042622	-2.0491158622	 0.163029
H	 0.2064811263	-2.2676468209	 0.768977816	 0.162967
H	-1.4403974402	-2.3054241831	 1.4736768689	 0.128326
37.0521	63.4419	157.686	207.3718	262.0107	297.7394	368.4465	381.8094	387.3117	433.461	489.361	538.7734	618.0294	637.8518	658.3618	722.9133	771.7148	887.0657	909.4484	968.6693	1014.7463	1045.4236	1094.9313	1118.8845	1123.7088	1190.6842	1213.901	1258.9353	1305.9009	1407.9638	1424.6858	1436.5416	1600.6451	1791.7663	1900.8192	3059.8558	3064.7977	3126.9038	3127.5548	3606.8737	3747.4964	3820.1899
NC(=O)C1(O)CC(=O)C1	NC(=O)C1(O)CC(=O)C1	
InChI=1S/C5H7NO3/c6-4(8)5(9)1-3(7)2-5/h9H,1-2H2,(H2,6,8)	InChI=1S/C5H7NO3/c6-4(8)5(9)1-3(7)2-5/h9H,1-2H2,(H2,6,8)
