23
gdb 52688	2.75585	0.86915	0.69041	0.1917	95.21	-0.2385	0.0625	0.301	1717.6139	0.2043	-351.130529	-351.119835	-351.118891	-351.168224	38.061	
C	 0.1158035179	 1.450709454	 0.0449229478	-0.497392
C	 0.0517736852	-0.0042924576	 0.0302064585	 0.049475
C	 0.0011789152	-1.2080686029	 0.0278502857	 0.085738
C	-0.0671997887	-2.6701044175	-0.0063500302	-0.183526
C	-1.5272916292	-3.1639023571	 0.0339963356	-0.390916
C	 0.6790643445	-3.2244149015	-1.2286208515	 0.084025
C	 2.2111027603	-2.9976714795	-1.3447513003	-0.228594
C	 2.3435702327	-4.4410073311	-1.9016885685	-0.216644
C	 0.9413016149	-4.7559475102	-1.3140035532	-0.238403
H	 0.7015254226	 1.8162966283	 0.8959089667	 0.144955
H	 0.5823218465	 1.8395335184	-0.8672429258	 0.14472
H	-0.8837056141	 1.8939908517	 0.1181751828	 0.144903
H	 0.4436759237	-3.056869669	 0.8887363374	 0.090218
H	-1.5612313083	-4.2578843872	 0.0390470942	 0.115188
H	-2.0393555416	-2.7982820686	 0.9279552038	 0.120168
H	-2.0786942195	-2.8060859483	-0.8411128376	 0.120787
H	 0.1778448562	-2.8748567288	-2.1385699166	 0.07248
H	 2.5569894563	-2.1703021152	-1.9677928821	 0.098074
H	 2.6718828258	-2.9014739235	-0.3559702177	 0.098519
H	 2.336051914	-4.4563720474	-2.9953764704	 0.100929
H	 3.1852568857	-5.0447268736	-1.5543872736	 0.094682
H	 1.0144394963	-5.2012820899	-0.3154527092	 0.095877
H	 0.2575648237	-5.3619290134	-1.9134269257	 0.094738
16.5021	61.2895	80.4749	126.7109	150.7066	195.365	239.0316	282.544	312.0967	360.5334	395.085	460.225	544.171	643.8183	733.4157	772.2705	786.9424	891.4723	933.2425	936.6552	956.8674	984.8167	1008.2715	1051.4344	1053.1903	1063.838	1067.8612	1118.4156	1161.8214	1196.0176	1205.3555	1235.3613	1255.3358	1261.2292	1271.8314	1291.7788	1308.1394	1335.0806	1377.0125	1405.0248	1415.2389	1477.8126	1479.5785	1479.6586	1485.9397	1492.6426	1498.9979	1509.3395	2366.4877	2983.0791	3023.6652	3036.096	3038.9749	3041.8856	3051.3855	3056.7897	3083.0001	3083.0827	3094.9452	3103.6443	3109.4229	3116.7527	3117.4684	16.5475	61.2876	80.4735	126.7092	150.7061	195.3646	239.0309	282.5444	312.0972	360.5331	395.0855	460.2254	544.1719	643.8185	733.4156	772.2703	786.9424	891.4727	933.2425	936.6553	956.8678	984.817	1008.272	1051.4336	1053.1893	1063.8383	1067.8615	1118.416	1161.822	1196.018	1205.3562	1235.3623	1255.3365	1261.23	1271.8322	1291.7798	1308.141	1335.0818	1377.0137	1405.0255	1415.2378	1477.8137	1479.5765	1479.6566	1485.9405	1492.6436	1498.9989	1509.3403	2366.4875	2983.079	3023.6653	3036.0959	3038.9749	3041.8855	3051.3854	3056.7896	3083.0002	3083.0827	3094.9452	3103.6442	3109.4229	3116.7526	3117.4683
CC#CC(C)C1CCC1	CC#C[C@@H](C)C1CCC1	
InChI=1S/C9H14/c1-3-5-8(2)9-6-4-7-9/h8-9H,4,6-7H2,1-2H3	InChI=1S/C9H14/c1-3-5-8(2)9-6-4-7-9/h8-9H,4,6-7H2,1-2H3/t8-/m1/s1
