22
gdb 55678	3.10058	1.05048	1.02511	2.3986	83.09	-0.2548	0.036	0.2908	1333.0227	0.192701	-404.357078	-404.347265	-404.34632	-404.391634	36.944	
C	-2.5203717268	 0.8067460145	-1.8902619032	-0.437758
C	-2.2032987803	-0.6471462757	-1.6727829648	 0.389922
N	-2.6424649287	-1.5442745945	-2.4569806518	-0.523385
O	-1.4324963338	-0.7818251738	-0.5581890308	-0.294166
C	-0.9245072913	-2.0593188997	-0.1530947684	 0.399101
C	 0.2174661235	-2.4960396414	-1.0662827671	-0.443304
C	-0.5344223326	-2.0295198146	 1.3459879661	-0.257124
C	-1.2266340693	-3.4071040709	 1.5267840185	-0.229735
C	-1.9675055924	-3.1718065266	 0.1836801419	-0.266485
H	-3.1548398598	 0.9152694296	-2.7686661802	 0.144387
H	-3.0278577637	 1.2184452018	-1.012327941	 0.134833
H	-1.5971861847	 1.3787475766	-2.0266323974	 0.135151
H	-2.3547267816	-2.4798754727	-2.1794296034	 0.216839
H	 1.002000413	-1.7330982347	-1.0677514064	 0.126903
H	 0.6533564694	-3.4345480987	-0.7104396991	 0.121282
H	-0.1171021593	-2.644568398	-2.0961474034	 0.131198
H	 0.5301400996	-1.949502745	 1.5791931817	 0.099635
H	-1.0745118182	-1.2289390494	 1.8561155874	 0.114259
H	-0.521015291	-4.2397003954	 1.4724520776	 0.108114
H	-1.8454438784	-3.5379513908	 2.4159258101	 0.10691
H	-2.9598650073	-2.7411159924	 0.3339287774	 0.121671
H	-2.0474218664	-4.0163440783	-0.5061432237	 0.101751
75.4041	111.093	151.0726	155.3807	171.109	232.278	299.0599	316.9537	374.8633	405.9214	443.4237	559.2849	569.4757	680.7382	724.9364	792.5978	862.5749	869.5048	889.1522	916.6076	933.0286	942.6491	956.1575	993.6282	1049.1832	1055.7633	1075.9907	1114.5213	1174.2938	1191.2921	1196.3855	1222.1175	1251.4622	1278.8716	1283.8531	1303.1327	1336.9087	1407.8309	1410.7162	1467.944	1474.0005	1478.0645	1481.6109	1485.7938	1500.1359	1506.4189	1725.6073	3042.0337	3049.9932	3058.251	3065.2787	3073.1816	3107.596	3110.5866	3112.5541	3120.9889	3122.4686	3133.9773	3168.5754	3521.8922
CC(=N)OC1(C)CCC1	C[C]([NH])OC1(C)CCC1	
InChI=1S/C7H13NO/c1-6(8)9-7(2)4-3-5-7/h8H,3-5H2,1-2H3	InChI=1S/C7H13NO/c1-6(8)9-7(2)4-3-5-7/h8H,3-5H2,1-2H3
