22
gdb 122319	4.78755	0.67624	0.65145	1.1846	82.77	-0.2278	0.0769	0.3047	1778.0673	0.194052	-404.299207	-404.289624	-404.28868	-404.334549	35.282	
O	 0.0690094446	 1.4074487314	 0.2454580391	-0.422369
C	 0.0749330917	 0.0131510022	-0.0213431685	-0.075204
C	-1.3548699615	-0.4949222039	 0.1041846367	-0.163219
C	-1.4771069875	-2.0001591295	-0.1711378479	-0.317523
C	-2.8934379644	-2.4895714187	-0.0590617134	 0.377473
C	-3.4911816541	-2.9833550081	 1.1989866184	-0.279574
N	-3.2541208316	-3.9599880887	 0.1148621973	-0.178035
C	-4.3909979909	-3.7479308937	-0.8506117624	-0.149683
C	-3.9869395805	-2.27409774	-1.1101876664	-0.306635
H	 0.9712406248	 1.7316537011	 0.1721717517	 0.285195
H	 0.4568713851	-0.1978693271	-1.0340908219	 0.08384
H	 0.7240771516	-0.5266413699	 0.6879664521	 0.084599
H	-1.7213583455	-0.2663240729	 1.1118706541	 0.10857
H	-1.9852924514	 0.0704918839	-0.5928563508	 0.108531
H	-1.0938707287	-2.2259840911	-1.1758863263	 0.096906
H	-0.8532505007	-2.5650192353	 0.5326232138	 0.106061
H	-2.8287684585	-3.126821265	 2.0477116671	 0.115052
H	-4.5165018579	-2.7292653148	 1.464221133	 0.104253
H	-4.2726688054	-4.400251002	-1.7179791585	 0.109908
H	-5.377075132	-3.9237247418	-0.4070830782	 0.102138
H	-4.7220193351	-1.4904850099	-0.9041781554	 0.101828
H	-3.585070912	-2.1203005961	-2.1145272135	 0.107887
52.0128	82.8586	98.7646	130.2122	227.105	261.945	276.6208	330.0075	354.1141	477.3537	488.7742	692.5932	745.455	762.3206	778.0437	809.7176	865.7602	891.2718	932.3689	974.011	999.9321	1025.5226	1036.1948	1053.0191	1081.6571	1098.5665	1106.4175	1134.1822	1194.0277	1201.4289	1219.3274	1233.0396	1245.1512	1271.9876	1292.1724	1306.2815	1314.3971	1340.4073	1372.7428	1403.0658	1464.137	1483.0441	1488.0333	1496.0786	1501.4511	1519.9122	1528.9152	2957.0185	2981.8135	3010.5356	3033.933	3042.2029	3051.0661	3054.3853	3080.174	3093.0224	3098.2007	3116.7355	3187.2609	3830.1221
OCCCC12CN1CC2	OCCC[C@]12CN1CC2	
InChI=1S/C7H13NO/c9-5-1-2-7-3-4-8(7)6-7/h9H,1-6H2	InChI=1S/C7H13NO/c9-5-1-2-7-3-4-8(7)6-7/h9H,1-6H2/t7-,8?/m0/s1
