14
gdb 28535	3.1958	1.45043	0.99822	2.2249	70.64	-0.1971	-0.0251	0.1719	1089.3882	0.102878	-470.078318	-470.070793	-470.069849	-470.109907	29.765	
N	-0.0969794515	 1.3655492218	 0.1184363198	-0.566361
C	-0.0411388714	-0.0011270855	 0.0158689077	 0.301578
N	-1.1671887075	-0.7051054177	-0.0034259595	-0.412823
C	-1.0656630658	-2.0362319201	-0.0479528845	 0.391558
O	-2.2145796357	-2.7499313403	-0.0627352445	-0.425545
C	 0.1577377699	-2.6898298073	-0.0852468526	-0.131575
N	 1.2963284867	-1.9747068842	-0.0787831873	-0.32069
C	 1.2067024102	-0.6709377494	-0.0276904129	 0.366182
O	 2.3324083881	 0.0961855724	-0.0253638792	-0.442403
H	 0.7279888209	 1.8693318397	-0.1649341374	 0.269981
H	-0.9811796233	 1.7853180072	-0.1222905325	 0.257943
H	-2.9332212965	-2.1052353345	-0.0271220645	 0.295789
H	 0.2260259633	-3.7698255075	-0.1253602457	 0.117234
H	 3.0779930724	-0.5165485046	-0.0744155869	 0.299131
134.7375	239.2895	294.9368	347.8108	388.7038	433.3976	440.2173	461.8313	464.8617	511.2304	525.5026	538.6116	609.1846	693.2009	742.0568	801.9059	807.9105	864.6698	1009.3539	1114.0133	1149.7295	1205.014	1285.6956	1316.4449	1338.7252	1430.0477	1500.3271	1525.7816	1606.1114	1638.3608	1666.7373	3205.2944	3588.561	3710.6853	3782.1985	3785.2318
NC1=NC(O)=CN=C1O	Nc1nc(O)cnc1O	
InChI=1S/C4H5N3O2/c5-3-4(9)6-1-2(8)7-3/h1H,(H,6,9)(H3,5,7,8)	InChI=1S/C4H5N3O2/c5-3-4(9)6-1-2(8)7-3/h1H,(H,6,9)(H3,5,7,8)
