21
gdb 52945	2.99717	0.97	0.8607	0.4115	95.54	-0.213	0.0472	0.2602	1482.4085	0.181007	-349.918456	-349.908518	-349.907573	-349.955979	36.154	
C	-0.045331542	 1.4793048865	 0.0565386079	-0.507411
C	-0.0274891553	 0.024463184	 0.0174694225	 0.218157
C	-0.0091008438	-1.1820011476	-0.0074138443	-0.190812
C	 0.0168827134	-2.6034800718	-0.0683293703	 0.191166
C	-0.2535072447	-3.4848624092	 1.137158858	-0.36765
C	-1.157534633	-3.6253025868	-0.0499553187	 0.297931
C	-2.634865454	-3.3725746333	 0.0097194302	-0.489154
C	-0.4476869555	-4.4626243143	-1.1231188803	-0.277077
C	 0.7354102818	-3.444140139	-1.1399943346	-0.29096
H	 0.9707122238	 1.8906739328	 0.0556791905	 0.146151
H	-0.5730445561	 1.9017341341	-0.8064007501	 0.143679
H	-0.5454850649	 1.8457246976	 0.9603096449	 0.145571
H	 0.4566280848	-4.268704416	 1.3962079948	 0.10174
H	-0.6784710107	-2.9659696521	 1.9900883116	 0.116938
H	-2.8636227094	-2.5442907869	 0.6878903685	 0.125022
H	-3.0358419768	-3.1174291093	-0.977659839	 0.117255
H	-3.1743924808	-4.2575580056	 0.3694897867	 0.118824
H	-0.2102323811	-5.4944919014	-0.8425039288	 0.093882
H	-0.989952025	-4.4779068317	-2.0718981068	 0.101102
H	 0.822066396	-2.9204808169	-2.0934850768	 0.110891
H	 1.7222487633	-3.8230931731	-0.8548251457	 0.094755
4.1069	77.6801	99.776	192.0211	202.2122	220.8499	301.1645	331.2872	379.887	401.3773	478.3104	519.2964	551.7488	651.3132	729.0905	785.9338	814.8675	909.2772	936.2532	954.3669	974.2495	999.1093	1042.2755	1051.6096	1053.4516	1078.4191	1105.9935	1133.8701	1150.3242	1217.8644	1243.2374	1248.2531	1278.4681	1346.2055	1395.164	1415.8917	1423.874	1476.8334	1479.9979	1481.537	1484.0597	1486.7511	1496.7795	1514.9111	2355.6933	3019.7876	3020.9899	3040.0237	3049.9413	3078.1178	3078.3098	3081.4801	3093.5026	3095.2871	3100.2787	3119.5941	3199.7674
CC#CC12CC1(C)CC2	CC#C[C@@]12C[C@]1(C)CC2	
InChI=1S/C9H12/c1-3-4-9-6-5-8(9,2)7-9/h5-7H2,1-2H3	InChI=1S/C9H12/c1-3-4-9-6-5-8(9,2)7-9/h5-7H2,1-2H3/t8-,9+/m0/s1
