16
gdb 49252	3.37671	1.21806	0.92128	2.313	75.22	-0.2547	-0.0646	0.1901	1202.7631	0.124684	-437.896385	-437.888339	-437.887394	-437.929858	28.903	
O	-0.031415646	-0.063626975	 0.2732428134	-0.27703
C	 0.0226330011	 1.1440500301	 0.3282211711	 0.107527
C	 1.205834612	 1.9483828109	-0.0372993358	 0.164739
C	 1.1168551949	 3.2806109721	 0.0494393188	-0.122262
C	 2.1571777143	 4.305960439	-0.2872284971	-0.210927
N	 3.5587604727	 3.9913402248	-0.4159606606	-0.264212
C	 4.1304308344	 2.8790851689	-0.2625823646	 0.134893
O	 3.6780992579	 1.6221099781	-0.0330566164	-0.215599
C	 2.4086938288	 1.1991465641	-0.539193946	-0.190784
H	-0.8487544883	 1.7463599138	 0.6691597692	 0.076976
H	 0.168113471	 3.7024502999	 0.3860157965	 0.106387
H	 1.8340325823	 4.8123481567	-1.2126487691	 0.143347
H	 2.0931133941	 5.1019819698	 0.4699043623	 0.141753
H	 5.2209377829	 2.853142042	-0.2818607427	 0.124813
H	 2.3168683295	 0.1506502396	-0.2522422478	 0.152082
H	 2.4416679585	 1.2432895452	-1.6361445512	 0.128298
47.5636	118.0872	151.8232	226.9014	292.4621	327.5388	359.8775	460.0901	509.7007	568.2308	706.6934	795.0087	816.7026	858.809	940.0349	956.8363	972.3394	1011.9971	1014.2886	1044.8351	1093.1707	1171.2761	1202.2943	1280.8235	1291.1646	1366.6963	1382.8047	1410.86	1433.9051	1436.7788	1443.0533	1494.3419	1724.8926	1775.004	1789.2567	2883.1936	2974.7015	3004.5251	3018.7464	3115.5639	3127.5335	3129.3678
O=CC1=CCN=COC1	O=CC1=CCN=COC1	
InChI=1S/C6H7NO2/c8-3-6-1-2-7-5-9-4-6/h1,3,5H,2,4H2	InChI=1S/C6H7NO2/c8-3-6-1-2-7-5-9-4-6/h1,3,5H,2,4H2
