20
gdb 97359	3.3852	0.8232	0.77847	3.1836	86.8	-0.2467	0.0259	0.2727	1581.6444	0.165791	-403.109168	-403.098275	-403.097331	-403.145153	39.192	
C	-0.0283179333	 1.3910818911	-0.0578370334	-0.315871
N	 0.0169555683	-0.0552917913	-0.0745498728	-0.210396
C	 0.5601548406	-0.6260514659	 0.9065443939	 0.138323
O	 0.6339505841	-1.9718332049	 0.9499885368	-0.246786
C	 1.2657340982	-2.6044054325	 2.0946936456	 0.15176
C	 2.74937047	-2.202604378	 2.1919037929	-0.409989
C	 0.4944638951	-2.2873501237	 3.3895606552	-0.409976
C	 1.1708083064	-4.041476256	 1.814260522	 0.342917
C	 1.1168792407	-5.2262626751	 1.628855798	-0.460592
H	 0.483278022	 1.7864286827	-0.943023155	 0.127272
H	-1.0696418431	 1.7282632163	-0.1172895531	 0.127268
H	 0.4302062945	 1.846053751	 0.8365269129	 0.09122
H	 0.9959787863	-0.0946063681	 1.763387431	 0.076095
H	 2.8570089307	-1.1432377809	 2.4400846842	 0.118704
H	 3.2397049519	-2.7877817167	 2.9737499996	 0.134681
H	 3.2510106921	-2.3986012398	 1.2418696342	 0.14488
H	-0.5603308156	-2.5419604011	 3.2662622804	 0.144885
H	 0.9021706781	-2.875523602	 4.2153750876	 0.134677
H	 0.57763418	-1.2288646751	 3.6505821283	 0.1187
H	 1.0611093829	-6.2719400799	 1.4504457716	 0.202227
57.8602	84.1697	110.2797	181.2719	196.6272	203.8169	233.5129	256.616	315.7599	323.1583	376.7807	390.7627	437.2398	482.8241	561.0024	613.5869	632.6319	675.8215	753.4573	898.6771	924.7773	966.3549	978.0022	1025.219	1064.9375	1140.7891	1146.5068	1175.6753	1184.5109	1228.1022	1273.5825	1395.3782	1401.9978	1422.7382	1449.6612	1478.5146	1480.0807	1482.2211	1496.1399	1501.9131	1505.6993	1770.9553	2246.8837	2959.2483	3018.1326	3050.079	3054.6967	3055.1903	3075.0762	3123.9883	3129.4825	3139.3598	3140.9767	3500.9498
CN=COC(C)(C)C#C	CN=COC(C)(C)C#C	
InChI=1S/C7H11NO/c1-5-7(2,3)9-6-8-4/h1,6H,2-4H3	InChI=1S/C7H11NO/c1-5-7(2,3)9-6-8-4/h1,6H,2-4H3
