19
gdb 55536	3.27836	0.998	0.81822	0.6659	80.57	-0.2478	-0.014	0.2338	1435.9985	0.158974	-419.240216	-419.230602	-419.229658	-419.276448	34.197	
C	-0.0157668635	 1.342357146	 0.2132665634	-0.49285
C	-0.3076682772	 0.0998722376	-0.615618213	 0.420392
O	-1.2432163029	 0.0391754202	-1.3873760861	-0.344961
N	 0.5992225815	-0.9181104995	-0.3849599905	-0.354831
C	 0.726173197	-2.2164132003	-0.9091348309	 0.36536
N	 1.7169870664	-2.8738161471	-0.4399049967	-0.530981
C	-0.2741261226	-2.6652035821	-1.9181298709	-0.09595
C	 0.1722615305	-3.5970879978	-3.0311583274	-0.261845
C	-0.696662442	-4.1238775125	-1.9350988454	-0.261827
H	 0.9804740097	 1.7369257982	-0.0125204118	 0.144869
H	-0.7649791873	 2.0980559203	-0.0184077616	 0.154062
H	-0.0487475075	 1.1139438536	 1.2837345496	 0.144881
H	 1.3325857321	-0.7323943852	 0.2860191106	 0.255874
H	 1.770844237	-3.8060951106	-0.8458953971	 0.219046
H	-1.0273971824	-1.9331295919	-2.1635623436	 0.146984
H	-0.2615102364	-3.433661236	-4.0110060238	 0.125314
H	 1.216931063	-3.8893561817	-3.0451908987	 0.120574
H	-0.2499941851	-4.7785967887	-1.194279272	 0.120572
H	-1.7396474702	-4.3301930225	-2.146195684	 0.125318
34.3412	52.8064	68.1198	130.214	172.0115	274.0562	290.0189	325.6005	415.4759	559.6799	585.7681	671.1096	677.9512	737.5253	738.734	802.8647	823.7268	857.8352	920.5933	936.1344	985.2505	999.9804	1052.0385	1058.6416	1081.7426	1108.3566	1131.9044	1152.6176	1207.9747	1225.4053	1249.2786	1310.0513	1386.0489	1456.8355	1466.1225	1471.6644	1483.3273	1502.1391	1507.3246	1697.2211	1797.4926	3043.4939	3106.4125	3134.3684	3137.3747	3167.1072	3215.2735	3227.5954	3244.5281	3505.5841	3593.728
CC(=O)NC(=N)C1CC1	CC(=O)NC(=N)C1CC1	
InChI=1S/C6H10N2O/c1-4(9)8-6(7)5-2-3-5/h5H,2-3H2,1H3,(H2,7,8,9)	InChI=1S/C6H10N2O/c1-4(9)8-6(7)5-2-3-5/h5H,2-3H2,1H3,(H2,7,8,9)
