23
gdb 112817	2.30771	1.19218	0.92349	2.1811	82.87	-0.2423	0.0757	0.318	1407.9884	0.203539	-425.409394	-425.398834	-425.39789	-425.445487	37.891	
C	-0.1118370869	 1.4746773944	-0.4428739408	-0.385961
C	-0.0004790269	-0.0117342678	-0.0904858252	-0.179306
C	-1.3593190582	-0.619578385	 0.2127057411	 0.118467
O	-2.2670315042	-0.5687879644	-0.9160981958	-0.316338
C	-2.496351728	-1.9983579642	-0.8849105419	 0.131232
C	-2.1820044049	-2.6579762885	-2.2125969231	-0.404604
C	-1.4837744131	-2.1579715508	 0.2904284828	 0.033906
O	-0.2794844296	-2.8253657269	 0.0237294429	-0.233295
C	-0.3213199913	-4.2125838546	 0.2828600098	-0.240834
H	 0.8670714341	 1.8952205798	-0.6915561678	 0.108795
H	-0.7728178222	 1.6145417777	-1.3029329131	 0.135331
H	-0.5224388658	 2.0530363159	 0.3926418575	 0.109095
H	 0.463422312	-0.5655075039	-0.9118997299	 0.109594
H	 0.6435624931	-0.1526594612	 0.7865111109	 0.096126
H	-1.808598998	-0.1154719541	 1.0814543565	 0.067112
H	-3.532886251	-2.2098897106	-0.5856642419	 0.066362
H	-1.1183341096	-2.5742232839	-2.4466530375	 0.130641
H	-2.4579350784	-3.7180840636	-2.200264202	 0.110105
H	-2.7558899245	-2.168078879	-3.0052500214	 0.126437
H	-1.9287780474	-2.5363602416	 1.2206056883	 0.066511
H	 0.6801904075	-4.6060455795	 0.0936244813	 0.130563
H	-0.5932280875	-4.4163576655	 1.3299763071	 0.108927
H	-1.0350392193	-4.7370906427	-0.367985798	 0.111134
46.9126	89.5853	115.2727	135.994	176.7094	213.5972	228.2109	249.4417	274.955	335.7838	388.4502	451.7386	496.2789	589.6146	757.2099	784.1673	829.1412	874.2474	900.9149	966.3906	971.7183	999.7754	1041.7209	1084.7148	1100.464	1122.6261	1142.9163	1162.4362	1182.8349	1188.2444	1232.87	1258.3316	1271.0925	1288.9499	1316.2109	1348.1188	1372.4503	1390.6832	1407.135	1407.3514	1419.739	1475.3397	1480.4415	1483.2683	1492.1842	1494.9589	1498.2171	1509.3796	1510.5158	2981.6024	2984.8328	2992.5765	3015.3316	3034.2363	3034.4243	3037.3503	3040.1353	3085.2729	3104.9568	3105.6471	3117.7262	3118.1889	3131.5812
CCC1OC(C)C1OC	CC[C@H]1O[C@@H](C)[C@H]1OC	
InChI=1S/C7H14O2/c1-4-6-7(8-3)5(2)9-6/h5-7H,4H2,1-3H3	InChI=1S/C7H14O2/c1-4-6-7(8-3)5(2)9-6/h5-7H,4H2,1-3H3/t5-,6+,7+/m0/s1
