19
gdb 111985	4.19035	1.08066	0.9528	0.6408	76.47	-0.2409	0.0056	0.2464	1267.2723	0.158289	-423.012737	-423.00394	-423.002996	-423.046062	33.262	
C	-0.1011389125	 1.541895283	 0.0630414926	-0.493349
C	 0.1241153956	 0.0596576766	-0.0258406602	 0.391534
O	-0.7346714069	-0.7672610713	 0.8096262257	-0.300529
C	 0.680451915	-0.7985327575	 1.0359198271	-0.061664
C	 1.3977649128	-1.9818278154	 0.3882504	-0.071811
C	 0.8928845057	-3.3381646424	 0.8840246535	-0.080556
O	 1.6148209881	-4.3465996812	 0.1896728256	-0.424263
C	 1.1467941722	-1.7477868359	-1.0917053711	-0.074891
C	 0.4670771331	-0.6220927733	-1.3177468807	-0.143252
H	 0.7651716245	 2.0895543402	-0.3228952975	 0.12559
H	-0.9747658577	 1.8367519925	-0.5288447507	 0.128477
H	-0.2759764336	 1.8430630586	 1.0986600805	 0.130611
H	 1.0039979782	-0.4158542593	 2.0013441986	 0.08914
H	 2.473459378	-1.9288237684	 0.6067977892	 0.090858
H	 1.0513571191	-3.4142797156	 1.9717363424	 0.085216
H	-0.186653063	-3.4049190324	 0.6944647973	 0.109482
H	 1.230732393	-5.1988791678	 0.4141295383	 0.288234
H	 1.4604997172	-2.4671025785	-1.8379262407	 0.11444
H	 0.1647912014	-0.2396553218	-2.2857649101	 0.096734
89.4096	134.0681	174.2694	192.9336	250.3514	261.8583	303.795	374.8172	433.1252	517.567	571.2956	629.791	718.4604	760.8337	819.6974	844.0487	857.8281	920.2082	951.4088	969.386	1018.0164	1039.5468	1067.4262	1084.265	1095.6266	1102.0787	1138.9633	1227.0654	1241.9109	1247.2394	1292.2185	1311.9098	1339.8822	1360.2792	1409.182	1439.9093	1455.9807	1483.6283	1495.1073	1525.5962	1664.5469	2972.062	3012.8845	3034.9722	3038.2266	3096.1644	3124.7769	3135.8675	3194.1627	3222.6465	3833.6911
CC12OC1C(CO)C=C2	C[C@]12O[C@H]1[C@@H](CO)C=C2	
InChI=1S/C7H10O2/c1-7-3-2-5(4-8)6(7)9-7/h2-3,5-6,8H,4H2,1H3	InChI=1S/C7H10O2/c1-7-3-2-5(4-8)6(7)9-7/h2-3,5-6,8H,4H2,1H3/t5-,6+,7-/m1/s1
