16
gdb 124984	2.94786	1.21315	0.93161	1.4069	72.62	-0.2492	-0.0442	0.205	1219.8214	0.122834	-437.896168	-437.887394	-437.88645	-437.931382	30.152	
C	 0.1267232571	 1.5167677331	-0.1640789979	-0.519699
C	 0.0484368855	 0.0273219736	-0.0355194987	 0.07957
C	-0.0224761906	-0.9154813966	-1.0203269341	 0.324237
C	-0.0089644776	-0.8266431984	-2.5121702613	-0.388306
C	 1.385853811	-0.4508041717	-3.0034730444	 0.157949
O	 1.6416685442	 0.5749405574	-3.5758641723	-0.231873
O	-0.0782759202	-2.1508680368	-0.4820573789	-0.210316
N	-0.055421172	-2.0475101477	 0.9037447828	-0.139946
C	 0.0176301986	-0.7635169827	 1.1494894818	-0.025631
H	 0.950502461	 1.9231886895	 0.4316389553	 0.140719
H	 0.2925124517	 1.8164437195	-1.2017591179	 0.148577
H	-0.7935574055	 1.99990008	 0.1831977334	 0.139305
H	-0.2811486045	-1.8049689564	-2.9233344303	 0.15021
H	-0.715815965	-0.076013875	-2.8744251107	 0.14313
H	 2.1724460936	-1.199780078	-2.7658892203	 0.099652
H	 0.0491067928	-0.4292175297	 2.1778534235	 0.13242
37.0088	55.5983	90.4765	156.0952	234.2702	259.0956	351.2325	381.2611	470.639	643.6101	651.5073	688.1752	723.0787	845.2826	913.4436	936.7599	955.8624	999.2178	1011.0599	1049.3913	1069.5782	1155.4191	1201.1923	1213.2316	1269.5547	1303.1337	1400.371	1418.7336	1430.3415	1453.5311	1490.1689	1491.2169	1510.4361	1670.9068	1831.9111	2900.1015	3035.7439	3053.7094	3089.7984	3117.3071	3123.0781	3235.3633
CC1=C(CC=O)ON=C1	Cc1c(CC=O)onc1	
InChI=1S/C6H7NO2/c1-5-4-7-9-6(5)2-3-8/h3-4H,2H2,1H3	InChI=1S/C6H7NO2/c1-5-4-7-9-6(5)2-3-8/h3-4H,2H2,1H3
