16
gdb 64902	2.01319	1.73672	1.11032	5.2266	76.63	-0.2452	0.0132	0.2584	1101.0751	0.122937	-396.876498	-396.867144	-396.866199	-396.910053	35.214	
N	-0.1177330621	 1.4163387754	 0.0262759007	-0.559686
C	-0.0085015165	-0.0259775586	-0.0028383626	 0.056796
C	-0.4678258216	-0.7426748483	 1.2491988416	-0.344516
C	-1.3742138648	-0.7610398745	 0.0232912834	 0.126413
N	-2.5548066823	 0.0510683071	-0.0735005665	-0.567796
C	-1.46795376	-2.0147351276	-0.6929978265	 0.300138
N	-1.5633509425	-3.0294525108	-1.2388671318	-0.349729
C	 1.0693941842	-0.5927736922	-0.7718375729	 0.324123
C	 1.9823002237	-1.0183009451	-1.428490337	-0.456021
H	 0.6078848162	 1.8058247898	 0.6208161729	 0.247653
H	 0.0274120116	 1.7914569536	-0.9066338489	 0.25072
H	 0.0555121886	-1.6495820725	 1.5260820015	 0.147637
H	-0.8019416974	-0.1142569507	 2.067417072	 0.129531
H	-3.2510923969	-0.2457045858	 0.6027163865	 0.239433
H	-2.2932652267	 1.0127723467	 0.1280499847	 0.249482
H	 2.7774034865	-1.4137420263	-2.0113192173	 0.205823
106.7467	112.9204	184.5168	197.9052	209.4433	290.6768	326.8079	362.252	415.2375	436.2767	468.011	546.7191	588.7253	616.922	633.6672	672.0141	674.1259	732.4925	819.6429	880.6503	901.5974	913.7971	957.3845	1062.7559	1084.8296	1199.6231	1252.724	1285.7016	1321.6164	1355.6548	1457.1401	1638.544	1657.1679	2235.1124	2356.2909	3141.3801	3243.5411	3483.6164	3495.1441	3501.0461	3570.3865	3572.4016
NC1(CC1(N)C#N)C#C	N[C@]1(C[C@]1(N)C#N)C#C	
InChI=1S/C6H7N3/c1-2-5(8)3-6(5,9)4-7/h1H,3,8-9H2	InChI=1S/C6H7N3/c1-2-5(8)3-6(5,9)4-7/h1H,3,8-9H2/t5-,6-/m0/s1
