14
gdb 47273	2.32674	1.79328	1.04894	6.2619	63.8	-0.2459	-0.1109	0.135	1056.3318	0.101347	-473.873103	-473.865245	-473.864301	-473.906486	28.305	
O	-0.0256953328	-0.0053058405	-0.2928250141	-0.25984
C	-0.0572686937	 1.1774771822	-0.0806551992	 0.311786
C	-1.3242333817	 2.0015109069	 0.0316505597	-0.322643
C	-1.2470454555	 2.9586573111	 1.2266620278	-0.180823
N	-0.0531407093	 3.7897595901	 1.1497679075	-0.323202
C	 1.1866778693	 3.4060626511	 0.7150277555	 0.304622
O	 2.1664914439	 4.1127997344	 0.7765865644	-0.32689
C	 1.2639856916	 1.9788326772	 0.1080131446	 0.21034
O	 2.3203995531	 1.5101878706	-0.2092102499	-0.232344
H	-1.4216915779	 2.5938497701	-0.8885942636	 0.146552
H	-2.1847932207	 1.3335586422	 0.1052336895	 0.142742
H	-2.118850258	 3.6179220221	 1.2269808778	 0.135457
H	-1.2754198864	 2.3863384657	 2.1647531008	 0.133437
H	-0.0697070318	 4.6959987267	 1.5973866892	 0.260807
36.7224	99.0907	203.2789	305.7423	339.2773	353.7874	412.8266	421.2051	532.8554	573.3921	615.0143	647.4608	703.3393	807.4496	905.8975	931.9861	995.2093	1052.4358	1102.825	1144.4624	1226.1034	1257.0389	1323.4585	1336.9304	1393.2745	1451.559	1473.8978	1525.6969	1804.5174	1821.7161	1843.0622	3004.895	3029.3439	3091.4279	3121.8323	3597.0109
O=C1CCNC(=O)C1=O	O=C1CCNC(=O)C1=O	
InChI=1S/C5H5NO3/c7-3-1-2-6-5(9)4(3)8/h1-2H2,(H,6,9)	InChI=1S/C5H5NO3/c7-3-1-2-6-5(9)4(3)8/h1-2H2,(H,6,9)
