17
gdb 126117	4.44682	1.00041	0.82497	2.1563	77.65	-0.2563	-0.0536	0.2028	1361.4632	0.136986	-418.054407	-418.045864	-418.04492	-418.088466	30.604	
C	 0.0773312286	 1.5184094986	 0.0094710494	-0.379352
C	-0.0495613558	-0.0031017034	 0.0031763047	-0.314515
C	-1.4986103792	-0.4816086515	 0.012158721	 0.306118
O	-2.4333321826	 0.2933548289	 0.0237169573	-0.316496
C	-1.735783937	-1.9372388536	 0.006666211	 0.306887
C	-2.9329347759	-2.6384259783	 0.0124236548	-0.274415
C	-2.5603517075	-3.9911402432	 0.0026280186	-0.004111
N	-1.2317373834	-4.1397702847	-0.0084852314	-0.21426
N	-0.7568021486	-2.8899972908	-0.0057675883	-0.271864
H	 1.1291118765	 1.8166939946	 0.0027288852	 0.111307
H	-0.4139917212	 1.9523470435	-0.8645333893	 0.136908
H	-0.400336615	 1.9439252488	 0.8951039072	 0.136927
H	 0.4464913096	-0.4323132771	-0.8791939174	 0.122389
H	 0.4600158317	-0.4406544726	 0.8736776393	 0.122421
H	-3.9180432839	-2.2032505712	 0.022291904	 0.132585
H	-3.1927261897	-4.8662927532	 0.0030705137	 0.12245
H	 0.2398593736	-2.7511688947	-0.0126726698	 0.277021
59.842	79.1433	144.1611	167.4693	206.6631	279.2916	367.6289	486.4373	531.9666	549.1749	673.8977	704.2765	708.7776	817.6965	847.7689	914.4832	928.5329	937.2202	1008.0145	1046.9463	1060.0057	1087.4617	1115.1964	1158.4463	1254.3847	1282.3735	1292.8946	1334.1071	1379.3479	1413.0888	1448.394	1460.4463	1473.6029	1490.0294	1496.6544	1584.3774	1772.6884	3007.1148	3037.4532	3054.6527	3126.7364	3132.9081	3252.2806	3286.5517	3669.4889
CCC(=O)C1=CC=NN1	CCC(=O)c1ccn[nH]1	
InChI=1S/C6H8N2O/c1-2-6(9)5-3-4-7-8-5/h3-4H,2H2,1H3,(H,7,8)	InChI=1S/C6H8N2O/c1-2-6(9)5-3-4-7-8-5/h3-4H,2H2,1H3,(H,7,8)
