17
gdb 107301	3.57822	1.27782	1.17307	3.2836	67.61	-0.2419	0.0488	0.2907	1080.7974	0.135125	-458.875896	-458.868078	-458.867133	-458.908477	29.623	
O	 0.1058777253	 1.4140946065	 0.1656080294	-0.418746
C	-0.004930985	 0.0374273426	-0.1642963533	-0.211119
C	-1.4441683269	-0.3430571016	-0.0341101613	 0.419136
O	-1.8775671972	-1.5457722453	-0.6638045477	-0.274189
C	-2.5688418869	-0.336068447	-0.9985682751	-0.069262
C	-3.5721360367	-0.0328049629	 0.1536793404	 0.097859
O	-4.1989707159	-1.1695311886	 0.7631990458	-0.285882
C	-3.1436820444	-1.2721293494	 1.75681498	-0.088075
C	-2.3979878266	-0.0585843487	 1.1575160307	-0.173921
H	 1.0399033094	 1.6318182198	 0.2335082597	 0.294537
H	 0.3237331179	-0.175950776	-1.1924308288	 0.10611
H	 0.598799667	-0.5873082944	 0.5138678767	 0.099494
H	-2.6156108729	-0.0740637488	-2.0502235588	 0.105084
H	-4.2374293151	 0.8199045869	-0.001793779	 0.083921
H	-3.5394107585	-1.1048904454	 2.7651437399	 0.099436
H	-2.628198174	-2.2356647402	 1.7078579718	 0.113985
H	-2.1412696395	 0.7913170726	 1.7842682297	 0.101632
78.5401	141.8049	202.9253	230.2398	268.2014	306.0924	435.066	528.5904	572.4906	661.1142	731.1854	811.0471	833.9925	857.4107	886.1532	928.3381	946.3947	988.537	1009.0059	1022.8133	1056.7038	1065.8438	1082.6661	1152.0248	1161.6772	1168.2273	1214.4678	1217.623	1253.8818	1266.3732	1285.8002	1308.9446	1353.8729	1418.4686	1492.0987	1505.8001	1513.8916	2970.8281	3011.5958	3029.9516	3084.738	3089.8484	3156.7029	3175.4627	3835.722
OCC12OC1C1OCC21	OC[C@]12O[C@H]1[C@H]1OC[C@@H]21	
InChI=1S/C6H8O3/c7-2-6-3-1-8-4(3)5(6)9-6/h3-5,7H,1-2H2	InChI=1S/C6H8O3/c7-2-6-3-1-8-4(3)5(6)9-6/h3-5,7H,1-2H2/t3-,4+,5+,6-/m1/s1
