22
gdb 113361	2.69819	1.00187	0.85692	3.0552	84.94	-0.2376	-0.0215	0.216	1474.4895	0.191351	-404.338174	-404.327685	-404.326741	-404.373968	37.828	
C	 0.2907384658	 1.5639107977	 0.1037322428	-0.378585
C	-0.2173922056	 0.1428567469	-0.1323301136	-0.116506
N	 0.5886505718	-0.5026243764	-1.1660117468	-0.122289
C	 1.7083472441	-1.3188383718	-0.7654724638	-0.287892
C	 0.4964722423	-1.9644079971	-1.3879404971	 0.210853
C	-0.3853453056	-2.895716209	-0.574195284	-0.266588
C	 0.2358005374	-4.2857003835	-0.3761526721	-0.387015
C	 0.5900519515	-2.2586641219	-2.8538900218	 0.147609
O	 0.085105244	-3.2078266539	-3.4000700095	-0.267547
H	 1.3239166878	 1.5535717372	 0.4657564134	 0.120376
H	 0.2630290377	 2.1414704441	-0.8239953887	 0.130351
H	-0.3254674449	 2.0713402547	 0.8521967864	 0.115129
H	-0.2103548354	-0.4102271172	 0.8203963959	 0.090802
H	-1.2547891291	 0.1681436957	-0.4845433678	 0.111093
H	 2.631980158	-1.1955720891	-1.3272244312	 0.119138
H	 1.8453450292	-1.5243064321	 0.2969003427	 0.116237
H	-0.5953082791	-2.4487571683	 0.4014548155	 0.098835
H	-1.3456313687	-3.0004379417	-1.0912816476	 0.117008
H	-0.4306582037	-4.9230119409	 0.2130212847	 0.112734
H	 0.4086788073	-4.7728886186	-1.3379509545	 0.146626
H	 1.1919119124	-4.2197028924	 0.1540819189	 0.110156
H	 1.1665745326	-1.4920420024	-3.4173531718	 0.079479
61.0255	92.5881	102.7016	144.3897	199.646	207.1246	229.6512	275.3942	303.8405	325.0616	378.7301	439.7538	503.5811	610.8033	717.7369	757.1229	794.967	816.5787	891.975	920.6086	956.926	1007.2395	1032.8329	1042.5354	1084.9944	1097.2353	1103.6496	1123.348	1168.0227	1198.2388	1282.687	1307.6799	1314.0591	1358.7301	1363.6951	1386.5255	1404.6159	1409.6795	1427.6068	1474.9121	1488.1434	1489.3719	1495.5632	1502.1275	1512.9995	1515.5068	1819.4347	2894.1128	2970.3207	3038.7803	3040.8174	3047.1695	3059.3514	3075.6834	3089.1094	3103.8153	3110.6622	3123.8079	3136.3166	3161.9578
CCN1CC1(CC)C=O	CCN1C[C@]1(CC)C=O	
InChI=1S/C7H13NO/c1-3-7(6-9)5-8(7)4-2/h6H,3-5H2,1-2H3	InChI=1S/C7H13NO/c1-3-7(6-9)5-8(7)4-2/h6H,3-5H2,1-2H3/t7-,8?/m1/s1
