16
gdb 124266	2.65473	1.48639	0.96421	2.61	72.34	-0.2587	-0.053	0.2057	1170.6253	0.12284	-437.913936	-437.905239	-437.904295	-437.947838	30.876	
C	-0.0270498758	 1.5053229841	-0.0281694963	-0.49704
C	 0.0413609822	-0.0122746729	-0.0192591224	 0.30257
O	 1.1043902068	-0.6022319462	-0.0353719616	-0.321714
C	-1.2336901185	-0.7481490288	 0.0092251037	-0.006695
C	-2.5117340888	-0.2692069799	 0.030247495	 0.006351
O	-3.3920072105	-1.262790669	 0.0525036908	-0.167715
N	-2.6948011353	-2.4851810697	 0.04705362	-0.188968
C	-1.4236012244	-2.1762724374	 0.0211495937	 0.312827
C	-0.3869875181	-3.2496149813	 0.0080280285	-0.47892
H	 0.9857536236	 1.9084511717	-0.0432494051	 0.148681
H	-0.5747325881	 1.8619602047	-0.9074900403	 0.141285
H	-0.5541533372	 1.8746073789	 0.8583781109	 0.140842
H	-2.9252448917	 0.7283622328	 0.0319619525	 0.162022
H	 0.2445398598	-3.1606642185	-0.879678624	 0.152629
H	 0.2762827406	-3.1513591081	 0.8712852233	 0.152619
H	-0.8669198947	-4.2298016404	 0.0220183813	 0.141227
64.3672	124.38	135.6465	170.3	190.7588	284.1973	296.6779	403.5637	492.7407	573.9547	617.9256	628.524	693.1643	712.0707	873.8063	877.7454	928.8388	946.3737	1031.6668	1044.6972	1069.3081	1088.5906	1179.351	1268.7548	1321.4448	1379.6528	1403.9094	1433.9411	1463.2027	1468.6577	1472.6711	1477.5507	1528.2923	1623.9219	1770.7218	3038.0364	3057.8584	3100.4503	3121.4743	3147.8821	3156.3968	3257.1451
CC(=O)C1=CON=C1C	CC(=O)c1conc1C	
InChI=1S/C6H7NO2/c1-4-6(5(2)8)3-9-7-4/h3H,1-2H3	InChI=1S/C6H7NO2/c1-4-6(5(2)8)3-9-7-4/h3H,1-2H3
