14
gdb 130126	3.26178	1.47104	1.01462	2.7585	70.19	-0.2087	-0.0446	0.1641	1079.727	0.103634	-466.229205	-466.221382	-466.220438	-466.261497	29.904	
N	 0.0033142377	 1.3542318579	 0.2139218209	-0.550535
C	-0.0434037784	 0.0015582909	 0.016439216	 0.283127
N	-1.1586021651	-0.641472544	-0.0639452456	-0.274966
N	-1.0838293632	-1.9846946057	-0.3315485647	-0.329687
C	 0.0498360184	-2.7402388357	-0.5324619021	 0.480331
N	 0.1462073606	-3.9851349992	-0.7999651202	-0.571972
N	 1.2172831207	-1.9850801785	-0.4036536996	-0.387881
C	 1.2941999467	-0.6466061264	-0.1257258575	 0.428291
O	 2.3402702548	-0.0410837466	 0.0085363128	-0.376924
H	 0.9000493611	 1.6956897358	 0.526264756	 0.275515
H	-0.8180448533	 1.7910879193	 0.5996686854	 0.263775
H	-1.9804803638	-2.4335118835	-0.4017895371	 0.270562
H	-0.7653638072	-4.4315225959	-0.8669920602	 0.211565
H	 2.081853081	-2.4975680984	-0.5165633343	 0.278798
78.8682	154.2863	270.1787	308.9946	373.2387	380.5353	449.3469	471.3688	482.0364	505.0166	546.5585	609.1844	676.7708	712.9355	713.4581	746.4366	807.6758	834.1481	983.8523	1055.5744	1124.0385	1231.592	1304.6537	1376.5268	1405.6283	1460.7524	1491.8968	1603.1672	1701.4107	1741.2534	1794.9652	3520.6208	3581.6903	3609.4841	3674.3877	3707.6255
NC1=NNC(=N)NC1=O	NC1=NN[C]([NH])NC1=O	
InChI=1S/C3H5N5O/c4-1-2(9)6-3(5)8-7-1/h(H2,4,7)(H3,5,6,8,9)	InChI=1S/C3H5N5O/c4-1-2(9)6-3(5)8-7-1/h(H2,4,7)(H3,5,6,8,9)
