15
gdb 62363	2.42281	1.80248	1.18665	4.4529	70.78	-0.2696	-0.0233	0.2464	1010.4217	0.112245	-416.760366	-416.752539	-416.751595	-416.792596	29.462	
C	-0.082802269	 1.5519581854	-0.005761657	-0.475214
C	-0.0254557343	 0.0239433862	-0.0018982272	 0.207795
C	-1.3176114449	-0.561309073	-0.3464748565	 0.224141
N	-2.3505089083	-1.0009488217	-0.6217053169	-0.326996
C	 1.2272502618	-0.6655431201	-0.6593790796	-0.182517
N	 2.0170588321	-0.1412323718	 0.5347547851	-0.323314
C	 0.7434822228	-0.6790667711	 1.1777059168	-0.18252
C	 0.9491219319	-1.8986033596	 0.2405917615	 0.441685
O	 1.0894671575	-3.0774209814	 0.2688722167	-0.309483
H	 0.8913041792	 1.9644071545	 0.2538907302	 0.159363
H	-0.3770454886	 1.9146271545	-0.9944323478	 0.141435
H	-0.8272584758	 1.9020542385	 0.7145114734	 0.141436
H	 1.5809037587	-0.5675115948	-1.6834092268	 0.119052
H	 2.816883159	-0.7442851122	 0.7409372176	 0.246085
H	 0.5465878278	-0.5964294834	 2.2443464905	 0.119052
119.2532	151.8272	209.2326	220.6133	258.3441	338.2148	471.1979	495.5625	539.0989	544.5426	611.246	703.4153	779.6072	800.247	823.5403	877.2727	929.8	963.0934	1041.442	1096.2881	1111.8652	1123.2137	1144.2253	1156.5415	1201.0069	1255.341	1270.017	1278.1851	1401.0634	1491.7077	1497.4857	1922.0169	2356.7816	3056.034	3120.1897	3153.9316	3156.7863	3165.4663	3434.369
CC1(C#N)C2NC1C2=O	C[C@@]1(C#N)[C@H]2N[C@@H]1C2=O	
InChI=1S/C6H6N2O/c1-6(2-7)4-3(9)5(6)8-4/h4-5,8H,1H3	InChI=1S/C6H6N2O/c1-6(2-7)4-3(9)5(6)8-4/h4-5,8H,1H3/t4-,5+,6+
