16
gdb 34620	3.45343	1.23061	0.97245	1.6949	80.97	-0.2331	-0.0391	0.1941	1179.304	0.124411	-400.713293	-400.705089	-400.704145	-400.746529	30.39	
C	 0.0628622431	-1.2518010085	-0.0513160748	-0.421033
C	-0.0151976115	-0.049545433	-0.015399082	 0.2277
C	-0.0438446424	 1.3696903041	 0.0201604354	 0.123914
C	-1.1845436383	 2.0753900046	-0.0136088156	-0.140744
C	-1.2356863372	 3.5850047376	 0.0175033723	-0.217882
N	-0.457024969	 4.2845931987	 1.0327648621	-0.262801
C	 0.6404224219	 3.9126491719	 1.52807674	 0.142794
O	 1.4656996885	 2.8629550546	 1.2833536299	-0.214464
C	 1.2846581492	 2.1014455657	 0.083945981	-0.181436
H	 0.1117819379	-2.3121873922	-0.0783461038	 0.199642
H	-2.132376466	 1.5476863297	-0.0693245814	 0.107082
H	-0.9662567356	 3.9855336895	-0.9738583725	 0.129448
H	-2.2762035365	 3.8903228731	 0.1680334146	 0.124173
H	 1.0819043988	 4.5054614169	 2.329988974	 0.123758
H	 2.1160002824	 1.3969446864	 0.0724328278	 0.13491
H	 1.3880007447	 2.7712338109	-0.7798551471	 0.124938
52.4257	137.2686	155.4808	212.0813	298.864	351.4635	400.6012	475.3222	533.1902	576.2415	608.1939	632.5361	645.6989	772.2734	836.8814	855.4935	939.1802	950.2386	963.5489	996.138	1022.6565	1074.5271	1156.7036	1195.5933	1260.9009	1294.7423	1345.8494	1382.6768	1404.4872	1436.0743	1474.9321	1496.7876	1693.8037	1763.7948	2217.8558	2971.0458	3020.8065	3059.5057	3133.2819	3135.9617	3172.4318	3502.5264
C#CC1=CCN=COC1	C#CC1=CCN=COC1	
InChI=1S/C7H7NO/c1-2-7-3-4-8-6-9-5-7/h1,3,6H,4-5H2	InChI=1S/C7H7NO/c1-2-7-3-4-8-6-9-5-7/h1,3,6H,4-5H2
