17
gdb 46626	2.95647	1.62484	1.10887	1.2065	74.03	-0.2272	-0.0325	0.1947	1059.8112	0.138846	-418.046388	-418.039119	-418.038175	-418.078301	28.194	
O	-0.1986373114	-0.0140091326	 0.1145937533	-0.294228
C	-0.0635284458	 1.1710988842	-0.0170169782	 0.360707
C	-1.2241270527	 2.1717346446	-0.2654302545	-0.275808
N	-0.6278062941	 3.4980559083	-0.0589160915	-0.377815
C	 0.6539679069	 3.362729137	 0.4217913964	 0.401191
N	 1.3613284039	 4.1094244291	 1.1703674388	-0.320097
C	 2.6088146595	 3.3585450871	 1.4323478161	-0.159093
C	 2.3183855195	 1.8584532341	 1.0917547071	-0.255458
C	 1.2058791761	 2.0084250571	 0.0470855771	-0.18234
H	-1.620269055	 2.0444808989	-1.2805830701	 0.140394
H	-2.0362617691	 1.9527751772	 0.4381440593	 0.141722
H	-1.1994313024	 4.2296032193	 0.3378945746	 0.252529
H	 3.4244866838	 3.7538442562	 0.8105542843	 0.103536
H	 2.9098790556	 3.4952743045	 2.4753137615	 0.109101
H	 3.1944133471	 1.3194891808	 0.7270015724	 0.110484
H	 1.9420667665	 1.3324858818	 1.9747184361	 0.118842
H	 1.6067884215	 2.0436545625	-0.9778581427	 0.126333
91.2687	148.7041	232.8909	271.0033	366.7957	462.8969	545.3084	571.1339	587.6791	638.149	693.9874	739.9164	783.0726	848.2817	915.3558	938.985	957.2078	994.4008	1006.4562	1049.4084	1094.764	1136.0093	1164.5061	1184.1076	1209.4091	1238.302	1264.9854	1289.0447	1315.6118	1326.3543	1384.031	1416.16	1490.1471	1492.8746	1507.7016	1758.8823	1866.7561	2996.9399	3008.5933	3026.1323	3060.573	3063.2383	3078.525	3121.5995	3608.3441
O=C1CNC2=NCCC12	O=C1CN[C]2[N]CC[C@@H]12	
InChI=1S/C6H8N2O/c9-5-3-8-6-4(5)1-2-7-6/h4H,1-3H2,(H,7,8)	InChI=1S/C6H8N2O/c9-5-3-8-6-4(5)1-2-7-6/h4H,1-3H2,(H,7,8)/t4-/m0/s1
