15
gdb 127742	3.36523	1.42811	1.00931	2.7148	74.12	-0.2342	-0.0583	0.1759	1112.145	0.113458	-450.144785	-450.13669	-450.135746	-450.177277	30.239	
C	-0.0195353601	 1.4173501385	-0.0297963619	-0.313478
N	-0.0152157949	-0.0402518404	 0.0144922624	-0.065562
N	-0.0657066193	-0.6577106071	-1.1605179086	-0.061571
N	-0.0674320836	-1.9319517919	-1.2213357531	-0.282697
C	-0.0150681623	-2.673552611	-0.0506640827	 0.468075
N	-0.0682842638	-4.0159767065	-0.2798464129	-0.554267
C	 0.0493361872	-2.0939260915	 1.1898175112	-0.379761
C	 0.0506450285	-0.672103048	 1.2963304197	 0.483177
O	 0.1002625804	 0.0223536981	 2.2966796035	-0.406667
H	 0.8850778654	 1.8042691933	 0.444352231	 0.156408
H	-0.0666107995	 1.7129240115	-1.0765538005	 0.15039
H	-0.8802362954	 1.8012438638	 0.5222294673	 0.156724
H	 0.0962871607	-4.3086483692	-1.2296344311	 0.2704
H	 0.212416516	-4.6495709158	 0.4486880497	 0.266132
H	 0.0943909505	-2.6730194736	 2.1038296358	 0.112698
120.464	133.067	176.3967	274.2461	316.8767	347.5152	362.7501	451.3031	472.5051	484.7444	545.0113	605.5982	726.4654	735.3133	766.2067	822.022	855.1014	952.9177	1046.9742	1083.4496	1151.5076	1186.1537	1258.313	1275.7853	1345.1185	1421.5923	1433.2032	1470.157	1498.4811	1503.9633	1614.5966	1666.6657	1786.3624	3064.1209	3131.403	3178.1857	3207.1586	3603.3291	3727.2655
CN1N=NC(N)=CC1=O	CN1[N]N=C(N)[CH]C1=O	
InChI=1S/C4H6N4O/c1-8-4(9)2-3(5)6-7-8/h2H,5H2,1H3	InChI=1S/C4H6N4O/c1-8-4(9)2-3(5)6-7-8/h2H,5H2,1H3
