14
gdb 130922	4.72525	1.19494	1.02011	1.9857	67.68	-0.2615	-0.0562	0.2053	1096.0023	0.10212	-432.850342	-432.843092	-432.842148	-432.883287	25.508	
O	-1.2272619857	 1.6709839401	-0.0092432226	-0.220125
C	-0.1903492719	 1.1193537745	-0.2633323331	 0.141723
C	 1.1633072399	 1.7048523729	 0.0929151883	-0.057909
C	 1.2817963918	 2.5088359052	 1.4524585339	-0.379705
C	 2.2871669987	 1.4289942016	 1.8320565918	 0.369122
N	 3.2991649724	 0.9571414948	 2.5304495835	-0.362837
C	 3.700363192	-0.0741173483	 1.7073212125	 0.029254
N	 3.0378267142	-0.2350246346	 0.5574897495	-0.283986
N	 2.1047692572	 0.7368965065	 0.7069810178	 0.057395
H	-0.1479663822	 0.1371116142	-0.7807071178	 0.114644
H	 1.5890686704	 2.2227068832	-0.7742831715	 0.145471
H	 1.6962456195	 3.5121975141	 1.3464005043	 0.151393
H	 0.3533848965	 2.5469464827	 2.0230668387	 0.161204
H	 4.5116228771	-0.736069847	 1.9728165745	 0.134354
46.1684	89.9444	163.3809	230.6132	333.191	436.2633	584.456	660.6122	699.764	720.7441	788.4503	866.2912	894.4533	924.1209	980.4404	1028.7715	1069.7706	1117.7055	1118.4403	1152.5864	1183.7372	1221.1997	1249.7599	1290.4434	1319.3629	1401.1424	1406.8028	1465.4006	1491.5782	1572.7032	1835.8868	2914.0071	3057.0145	3096.3843	3153.9491	3259.9366
O=CC1CC2=NC=NN12	O=C[C@H]1Cc2ncnn12	
InChI=1S/C5H5N3O/c9-2-4-1-5-6-3-7-8(4)5/h2-4H,1H2	InChI=1S/C5H5N3O/c9-2-4-1-5-6-3-7-8(4)5/h2-4H,1H2/t4-/m1/s1
