22
gdb 36870	4.43929	0.88145	0.77917	1.0288	89.89	-0.2266	0.0286	0.2552	1527.8167	0.19554	-367.194272	-367.185463	-367.184519	-367.228612	33.171	
C	-0.0237954976	 1.439504114	-0.3629281255	-0.280339
N	-0.093795665	-0.0002356029	-0.0887447941	-0.063866
C	-0.4352263755	-0.3852583539	 1.2778219116	-0.213238
C	-1.4275798447	-0.5270130448	 0.1783895137	-0.218776
C	 1.36538355	 1.9773721213	-0.1900138602	 0.37702
C	 2.0968133621	 2.5860370327	-1.1250656142	-0.172035
C	 3.4618794439	 2.9930990557	-0.6276612814	-0.242655
C	 3.3408126216	 2.8101935389	 0.9081506464	-0.208357
C	 2.1286677266	 1.8676877894	 1.1161056843	-0.295387
H	-0.353763677	 1.5979437578	-1.3956347657	 0.104515
H	-0.7238806218	 1.999190362	 0.2898895639	 0.079505
H	 0.0862541954	-1.253383751	 1.6705506833	 0.115654
H	-0.6112358098	 0.4076327891	 2.0034394125	 0.108076
H	-2.2631866529	 0.1720614118	 0.1725967315	 0.106352
H	-1.6461805352	-1.5006903326	-0.2506976551	 0.1157
H	 1.7758700416	 2.7434450355	-2.1499644844	 0.082118
H	 4.2381853197	 2.3435843596	-1.0574775082	 0.105041
H	 3.7340870766	 4.0174106994	-0.9074024656	 0.098504
H	 4.2579122922	 2.4281109501	 1.3636596941	 0.094979
H	 3.1312361922	 3.7791680604	 1.372452807	 0.102153
H	 1.5236758252	 2.1504403599	 1.9865149688	 0.091751
H	 2.4397072826	 0.8279141376	 1.2851141973	 0.113283
55.6478	89.0696	107.0553	144.7197	276.2739	292.3054	333.4144	419.3267	474.2411	640.4838	685.5925	766.8561	813.5583	834.9042	851.3015	880.5773	897.7857	915.609	917.094	948.9558	1008.1705	1022.8163	1038.2458	1046.8345	1069.0718	1111.7921	1118.804	1148.606	1168.2524	1178.5185	1180.1323	1230.3545	1251.8325	1261.2808	1298.0245	1313.3657	1320.7786	1328.8993	1368.4338	1384.2932	1480.0266	1483.3052	1487.0062	1492.9149	1506.74	1521.2459	1720.9108	2894.1597	3003.1315	3015.0635	3038.2579	3046.5785	3058.47	3059.5557	3090.7849	3096.2011	3099.6697	3174.661	3180.9861	3189.09
C(N1CC1)C1=CCCC1	C(N1CC1)C1=CCCC1	
InChI=1S/C8H13N/c1-2-4-8(3-1)7-9-5-6-9/h3H,1-2,4-7H2	InChI=1S/C8H13N/c1-2-4-8(3-1)7-9-5-6-9/h3H,1-2,4-7H2
