19
gdb 117498	2.2712	0.78922	0.60928	0.7874	86.73	-0.2475	0.0399	0.2874	1833.0275	0.155135	-385.822813	-385.811494	-385.81055	-385.861455	38.491	
C	-0.0479822527	 1.4759277121	 0.0499141493	-0.499641
C	-0.0071830791	 0.0219096127	-0.0093919291	 0.116556
C	 0.0347089422	-1.1792327771	-0.0629056174	 0.05076
C	 0.0561290419	-2.6452743499	-0.1164956702	-0.363584
C	-1.3755139169	-3.2273270746	 0.036840414	-0.164274
C	-1.3947035574	-4.7473119219	 0.1337734432	-0.087225
O	-2.7436515417	-5.1391947796	 0.3387832418	-0.422441
C	 0.7124571072	-3.1225372966	-1.3412401295	 0.35486
C	 1.2399740737	-3.5271310149	-2.3420192896	-0.476408
H	 0.5266477361	 1.8563157339	 0.9015615268	 0.148173
H	 0.3722371636	 1.9202878427	-0.8589779456	 0.151086
H	-1.0756335898	 1.8412096555	 0.1531090396	 0.149232
H	 0.6494886806	-3.0074061527	 0.7374666121	 0.130486
H	-1.8209203437	-2.804679221	 0.9423962067	 0.1183
H	-1.9888878656	-2.9067865205	-0.8100414395	 0.123591
H	-0.9823606794	-5.1849672944	-0.7865442734	 0.104113
H	-0.7530532502	-5.0744433456	 0.9698336039	 0.08195
H	-2.7822439901	-6.0996826638	 0.3215633449	 0.28651
H	 1.7128343812	-3.8739399344	-3.2272852879	 0.197955
17.8367	71.8258	81.4531	83.9815	109.8411	184.6977	236.3377	249.1506	259.1235	308.8798	376.4509	381.4915	464.294	537.1867	581.1035	629.7383	639.9623	783.7525	815.0303	889.6929	1024.107	1046.0012	1053.3895	1054.9515	1083.4526	1091.8038	1174.1476	1215.8397	1235.4211	1295.2124	1305.0282	1329.3165	1348.9208	1414.526	1463.9347	1478.1562	1478.4666	1490.6843	1529.0304	2237.3771	2378.0468	2955.4746	2982.3429	3015.4077	3027.6233	3060.7161	3088.6475	3089.4696	3110.7112	3504.1081	3832.1506
CC#CC(CCO)C#C	CC#C[C@@H](CCO)C#C	
InChI=1S/C8H10O/c1-3-5-8(4-2)6-7-9/h2,8-9H,6-7H2,1H3	InChI=1S/C8H10O/c1-3-5-8(4-2)6-7-9/h2,8-9H,6-7H2,1H3/t8-/m0/s1
