19
gdb 108325	3.13901	1.27397	1.06556	3.2033	71.56	-0.24	0.0517	0.2916	1172.874	0.157527	-460.102432	-460.093433	-460.092489	-460.136434	33.117	
C	-0.0966645919	 1.4376705662	-0.0927533076	-0.265553
O	-0.0799215144	 0.0230438477	-0.0440944303	-0.290993
C	 0.6821165619	-0.5556599502	-1.0491382745	 0.377044
C	 0.1523714998	-0.5807304909	-2.4969861242	-0.124299
O	 0.4631135765	-1.9895545197	-2.6067096548	-0.28053
C	 0.7859716973	-2.0984304698	-1.2083352874	 0.020644
C	 2.2982189121	-2.0308738377	-0.916477286	 0.140144
O	 3.0969131563	-2.7195950455	-1.8375904009	-0.424275
C	 2.2402093043	-0.4649667606	-0.9632168502	-0.356663
H	 0.9118762793	 1.8621834255	 0.0137380418	 0.112735
H	-0.5322125143	 1.8080940146	-1.0323361493	 0.113234
H	-0.7146207881	 1.7794929564	 0.7400799582	 0.132412
H	-0.9293671131	-0.4010211117	-2.5642282473	 0.100316
H	 0.677953925	 0.0205807384	-3.2479126355	 0.100325
H	 0.1721111642	-2.8375316016	-0.6879591696	 0.07926
H	 2.4762095963	-2.3678007419	 0.1163254312	 0.072244
H	 4.0158120025	-2.6318272355	-1.5656494868	 0.286003
H	 2.7188760909	-0.0309767056	-1.8444732601	 0.103697
H	 2.6114865053	 0.027241732	-0.0616683869	 0.104255
57.9707	107.797	176.5417	189.1105	223.6573	247.1447	336.7868	352.908	379.35	433.1688	570.0362	637.973	656.2908	793.8345	863.4961	914.1955	932.9422	949.0384	1005.7749	1028.0958	1055.7611	1059.6264	1133.7004	1149.9386	1171.5032	1182.1416	1189.9861	1195.5514	1203.5364	1223.0687	1246.2716	1280.5541	1324.9392	1328.5102	1371.5242	1428.8441	1466.0126	1483.3795	1489.2971	1506.6404	1514.3621	2979.3197	2987.9394	3003.494	3038.81	3060.7922	3062.9634	3083.9266	3123.6293	3124.3338	3819.7153
COC12COC1C(O)C2	CO[C@]12CO[C@H]1[C@@H](O)C2	
InChI=1S/C6H10O3/c1-8-6-2-4(7)5(6)9-3-6/h4-5,7H,2-3H2,1H3	InChI=1S/C6H10O3/c1-8-6-2-4(7)5(6)9-3-6/h4-5,7H,2-3H2,1H3/t4-,5-,6+/m0/s1
