16
gdb 123337	6.85124	0.73842	0.69444	2.755	77.89	-0.2562	-0.0147	0.2415	1557.2054	0.123771	-400.714669	-400.706285	-400.705341	-400.748933	30.198	
C	 0.0238550698	-1.2342796318	-0.1353147347	-0.435485
C	-0.021822887	-0.0335102299	-0.1174171378	 0.294759
C	-0.0385067704	 1.4224416076	-0.0866576668	-0.351462
C	 1.3722068415	 2.0191505516	 0.157478144	-0.312215
C	 1.3613601282	 3.5088660709	 0.1955078798	 0.438119
C	 1.650887624	 4.4284433729	 1.1569459011	-0.345431
C	 1.4144788752	 5.671432556	 0.5121878371	 0.037318
N	 1.0155767272	 5.5214454291	-0.7259249212	-0.137868
O	 0.9810388278	 4.1428894112	-0.9309756107	-0.211941
H	 0.0468501286	-2.2956259474	-0.1570881869	 0.198673
H	-0.4321270116	 1.814511108	-1.030999997	 0.155647
H	-0.7183338961	 1.7715228164	 0.6999469317	 0.139739
H	 1.7719856235	 1.6449792177	 1.1030928502	 0.132672
H	 2.0428092569	 1.6737185895	-0.6367901121	 0.142792
H	 1.9829221743	 4.2478456887	 2.1654855293	 0.120863
H	 1.5223117782	 6.6712611193	 0.9088690141	 0.133819
52.7329	61.3608	96.4259	183.91	303.0904	350.4664	371.88	473.9342	623.4575	648.2826	650.3837	673.6893	747.1691	770.7635	812.0366	918.0285	918.4194	943.6669	970.9045	1004.2694	1018.6517	1032.8898	1054.6689	1171.3675	1213.5211	1262.5904	1283.9878	1308.3997	1365.0298	1387.455	1473.6608	1485.0927	1514.2259	1636.4559	2241.2038	3034.6804	3055.0334	3071.741	3112.4227	3243.3595	3280.989	3506.6917
C#CCCC1=CC=NO1	C#CCCc1ccno1	
InChI=1S/C7H7NO/c1-2-3-4-7-5-6-8-9-7/h1,5-6H,3-4H2	InChI=1S/C7H7NO/c1-2-3-4-7-5-6-8-9-7/h1,5-6H,3-4H2
