29
gdb 59978	2.53826	0.801	0.71995	0.0549	99.66	-0.2921	0.0799	0.372	1827.8755	0.27259	-354.778376	-354.766043	-354.765099	-354.816873	45.786	
C	 0.7573324083	-0.1462557186	-1.3106339685	-0.379813
C	 0.0970661004	 0.0463877143	 0.0623934822	 0.034616
C	 0.0385963496	 1.5383999547	 0.4206458299	-0.387291
C	-1.3155358407	-0.5704838649	 0.1229839941	-0.175964
C	-1.4013794398	-2.1127960266	 0.062666654	 0.040525
C	-0.9111133384	-2.7151301195	 1.3903098749	-0.409385
C	-2.836306466	-2.5828763817	-0.3079802333	 0.047059
C	-3.1990929578	-2.2313351608	-1.760500699	-0.392867
C	-3.0502141636	-4.0906326294	-0.0962508598	-0.400106
H	 1.7589625204	 0.2963041818	-1.3288002239	 0.10811
H	 0.8600914165	-1.202277116	-1.5771463438	 0.113121
H	 0.1667416062	 0.3392708709	-2.0973050778	 0.109331
H	 0.7299629662	-0.4468552259	 0.8124109432	 0.072245
H	-0.3778093255	 1.6930923598	 1.4216520059	 0.107928
H	 1.0347797997	 1.9928614238	 0.3967276392	 0.106483
H	-0.5922023605	 2.0870187988	-0.2895539767	 0.109661
H	-1.803191968	-0.2441008666	 1.0526580898	 0.083015
H	-1.9012869573	-0.126576833	-0.690604136	 0.086925
H	-0.7355331317	-2.4732376429	-0.7348761283	 0.065396
H	-0.7982635373	-3.800535531	 1.3351001894	 0.113714
H	 0.061505666	-2.3043430034	 1.67641918	 0.111464
H	-1.6130779899	-2.4912290707	 2.2032789028	 0.109613
H	-3.5351975412	-2.0517662385	 0.3563908939	 0.065763
H	-4.2285100305	-2.5296490283	-1.9848416542	 0.108377
H	-3.1156077537	-1.1630077164	-1.9749919905	 0.113204
H	-2.5429397309	-2.7627165625	-2.4607533933	 0.110158
H	-2.9566785814	-4.3837750539	 0.9520872392	 0.113445
H	-4.0501526504	-4.3849986007	-0.4318687717	 0.106301
H	-2.3249939386	-4.6762209029	-0.6750052817	 0.108972
17.5112	54.7408	87.2767	164.122	204.7466	219.139	223.7254	242.9031	249.1491	277.1413	331.1694	347.1817	375.2279	397.2792	414.5005	437.5868	467.0879	513.9677	785.5671	825.9141	847.5421	894.8304	923.8989	926.9594	938.8171	962.6566	964.4251	974.6547	988.8431	1037.6731	1079.011	1105.801	1167.9255	1180.2958	1186.9556	1195.5833	1198.9566	1265.9133	1291.5954	1326.7343	1343.9209	1352.6351	1368.6162	1377.0831	1387.3644	1400.8663	1402.6298	1411.072	1421.8717	1423.4584	1477.3478	1485.5847	1488.5514	1491.1921	1494.714	1500.461	1504.6535	1506.4049	1507.4844	1511.6384	1521.5852	2983.0956	2997.063	3009.0727	3010.6112	3020.8187	3024.2098	3026.5731	3029.225	3030.5133	3056.1776	3084.6182	3085.0783	3091.4772	3092.4145	3095.7712	3097.03	3103.4962	3110.128	3112.589	3118.995
CC(C)CC(C)C(C)C	CC(C)C[C@@H](C)C(C)C	
InChI=1S/C9H20/c1-7(2)6-9(5)8(3)4/h7-9H,6H2,1-5H3	InChI=1S/C9H20/c1-7(2)6-9(5)8(3)4/h7-9H,6H2,1-5H3/t9-/m1/s1
