16
gdb 27299	3.17993	1.33226	0.94443	7.4873	77.15	-0.1995	-0.0087	0.1909	1190.062	0.124891	-437.944496	-437.936119	-437.935174	-437.977321	31.621	
C	-0.0178621762	 1.5228484538	 0.0595009619	-0.494011
C	 0.002373938	 0.0232276681	-0.0233131531	 0.398805
C	-0.0269204736	-0.6863741648	-1.1847188487	-0.329198
C	-0.0064738754	-2.1405239236	-1.241431569	 0.341953
O	-0.0323266867	-2.7937587611	-2.2782082072	-0.394833
C	 0.049563976	-2.776157104	 0.0934463944	 0.203641
O	 0.070203789	-4.1326567944	 0.0854493471	-0.413252
C	 0.0771303133	-2.0258163763	 1.2230883174	-0.125782
N	 0.0539295494	-0.6473962228	 1.1659277132	-0.380802
H	 0.8789361502	 1.9064562877	 0.5605965228	 0.137028
H	-0.0593008647	 1.9577925077	-0.9395850902	 0.15185
H	-0.8890877476	 1.8792065213	 0.6220620614	 0.137017
H	-0.0678129718	-0.1635064067	-2.1326388823	 0.103451
H	 0.1066048832	-4.4618636791	 0.9901792615	 0.293245
H	 0.1182268808	-2.4544423625	 2.2184833193	 0.111528
H	 0.0755826261	-0.1265746533	 2.0262414915	 0.259361
101.4002	119.2828	187.4684	301.8277	315.6723	329.3451	368.4632	426.8008	441.5171	445.6664	512.4564	596.0794	606.1199	728.2357	770.7234	778.2419	813.1207	878.1532	961.1584	1036.4646	1062.866	1139.5293	1185.3367	1226.6117	1244.6808	1310.3837	1376.5476	1416.2011	1447.3659	1481.7349	1484.4831	1559.8372	1647.0532	1680.7854	1727.3427	3027.6846	3078.6284	3145.3681	3183.064	3207.2866	3659.1446	3810.5142
CC1=CC(=O)C(O)=CN1	Cc1cc(=O)c(O)c[nH]1	
InChI=1S/C6H7NO2/c1-4-2-5(8)6(9)3-7-4/h2-3,9H,1H3,(H,7,8)	InChI=1S/C6H7NO2/c1-4-2-5(8)6(9)3-7-4/h2-3,9H,1H3,(H,7,8)
