21
gdb 126756	2.47972	1.3088	0.92645	2.2602	87.4	-0.2233	0.0319	0.2552	1348.5295	0.182324	-383.316362	-383.306399	-383.305455	-383.351814	35.708	
C	-0.1476484705	 1.5390061182	-0.1369839451	-0.374746
C	 0.062361018	 0.0251938829	-0.0579678354	-0.140757
N	 0.7984200906	-0.5005215987	-1.1936157247	-0.016475
N	 0.1409711926	-0.696226779	-2.361737042	-0.333467
C	 1.0680895558	-1.1112061351	-3.2219707375	 0.360664
C	 0.7002068513	-1.445304402	-4.6336706064	-0.490246
C	 2.3360399739	-1.1764143346	-2.6002094522	-0.394345
C	 2.1291950522	-0.7734736213	-1.295154847	 0.386543
C	 3.0883157843	-0.6397259487	-0.1566255516	-0.507667
H	 0.8081869161	 2.0719219338	-0.1322763475	 0.121112
H	-0.6790153932	 1.7947036216	-1.0570163899	 0.146257
H	-0.7385303661	 1.8855020313	 0.7166645802	 0.116332
H	 0.6052515962	-0.2453577606	 0.8519317801	 0.114579
H	-0.9017928576	-0.4897030078	-0.0349491974	 0.1314
H	 1.2498638309	-0.8243252237	-5.3499322528	 0.123687
H	 0.9273601131	-2.4905064916	-4.8720641883	 0.124089
H	-0.3688231975	-1.2828794186	-4.7875082807	 0.135195
H	 3.2745497261	-1.4833072557	-3.03536428	 0.091013
H	 3.1418864271	 0.3865856843	 0.2248541519	 0.133743
H	 2.8219015264	-1.2881740112	 0.6864451171	 0.135
H	 4.0901766703	-0.9225768836	-0.4864700611	 0.138088
48.0886	95.3788	111.2045	130.7429	188.8138	210.8519	260.3673	297.5275	312.6038	409.6345	477.7825	593.5674	638.8524	659.4207	689.4974	773.0164	787.4558	808.3428	971.026	989.0714	998.7295	1039.1671	1061.2794	1064.3069	1094.8162	1101.1015	1166.5041	1203.3009	1270.8585	1344.049	1391.8691	1403.8747	1407.928	1415.0798	1422.2745	1460.5021	1478.4198	1483.0075	1484.0726	1486.6527	1489.7481	1503.6938	1509.1183	1523.6673	1597.6471	3026.0592	3031.8356	3041.9028	3063.5218	3074.1078	3081.4223	3102.2288	3116.0592	3126.0614	3128.9808	3133.8595	3250.166
CCN1N=C(C)C=C1C	CCn1nc(C)cc1C	
InChI=1S/C7H12N2/c1-4-9-7(3)5-6(2)8-9/h5H,4H2,1-3H3	InChI=1S/C7H12N2/c1-4-9-7(3)5-6(2)8-9/h5H,4H2,1-3H3
