14
gdb 35181	3.94088	1.20975	1.09053	3.6711	67.24	-0.2655	-0.0156	0.2499	1078.3354	0.09998	-436.58403	-436.576905	-436.57596	-436.615914	26.946	
N	-0.1190035146	-1.1833172962	 0.096746167	-0.319132
C	-0.074606915	-0.0286974544	 0.0698307338	 0.311115
C	-0.022932626	 1.4138629096	-0.0027710998	-0.278231
O	 0.5850221402	 2.0953815541	 1.1251075345	-0.267404
C	 1.2616366302	 2.119695717	-0.0862799132	 0.581058
C	 2.7289302436	 1.7833419146	-0.3853720169	-0.067448
C	 2.4987777301	 2.2957928261	-1.8295536923	-0.221171
C	 1.8537798046	 3.3122642686	-0.8532995269	-0.073348
O	 3.051410636	 3.1795026755	 0.0137578692	-0.304823
H	-0.9256834768	 1.8846700577	-0.3859967476	 0.151785
H	 3.3599504845	 0.9812889749	-0.0091406656	 0.126376
H	 3.4036905106	 2.667591791	-2.3082869711	 0.12839
H	 1.8537837716	 1.7192036144	-2.4968180349	 0.114218
H	 1.455352101	 4.309812697	-1.0280930162	 0.118616
102.1976	126.9899	219.7103	296.9928	374.1006	438.83	513.9191	574.9297	633.1778	690.4044	763.2756	804.3676	864.1311	867.206	920.4006	961.9979	989.1838	1004.3029	1031.1805	1060.4856	1115.9807	1131.4501	1143.9724	1171.8742	1214.5034	1234.1052	1258.1792	1332.2175	1472.4584	1522.4658	2361.3391	3074.0797	3141.9552	3148.1725	3157.7362	3167.7838
N#CC1OC11C2CC1O2	N#C[C@H]1O[C@]21[C@H]1C[C@@H]2O1	
InChI=1S/C6H5NO2/c7-2-5-6(9-5)3-1-4(6)8-3/h3-5H,1H2	InChI=1S/C6H5NO2/c7-2-5-6(9-5)3-1-4(6)8-3/h3-5H,1H2/t3-,4+,5-,6-/m1/s1
