16
gdb 46117	3.13161	1.10693	0.89054	6.5516	69.	-0.28	-0.0019	0.2781	1262.3282	0.125096	-437.950143	-437.941988	-437.941044	-437.983908	29.305	
O	 0.1144799972	 0.1203376974	-0.3232538934	-0.318635
C	 0.0128178307	 1.2960890192	-0.149423395	 0.433377
C	-1.128904268	 2.0702649477	 0.5018723402	-0.360269
C	-0.8558596998	 3.5270792059	 0.1187692655	-0.258381
C	 0.6594048348	 3.5271484645	-0.1864010123	 0.109299
C	 1.5130620497	 3.9758920957	 1.0151825584	-0.355262
C	 2.9476729601	 3.9350853042	 0.7424105297	 0.273234
N	 4.0814844122	 3.9237445542	 0.5232301923	-0.292385
O	 0.987844878	 2.1767777033	-0.5339127763	-0.216896
H	-2.0872059377	 1.6807961695	 0.1567670362	 0.15113
H	-1.0803808582	 1.8980542291	 1.5825406437	 0.146116
H	-1.4100094229	 3.7981265298	-0.7831902274	 0.130831
H	-1.1190880505	 4.2452144197	 0.8981495007	 0.120313
H	 0.9082889602	 4.1466800971	-1.0511259587	 0.121538
H	 1.2376954542	 5.0024652623	 1.2827009415	 0.158699
H	 1.2961368199	 3.3444808604	 1.884475825	 0.157289
60.87	102.0436	113.7715	155.714	319.3693	382.461	399.4929	490.8905	536.2626	551.5912	658.9533	712.5041	801.8927	827.4437	907.4566	935.7159	948.1788	1005.7353	1031.3815	1077.0129	1085.2321	1155.1131	1173.1326	1231.6592	1244.6187	1288.7372	1309.2484	1335.0065	1376.913	1400.3457	1456.1893	1467.2555	1498.8195	1896.2049	2369.8382	3043.363	3062.5765	3070.7676	3079.58	3096.0511	3117.1173	3134.2088
O=C1CCC(CC#N)O1	O=C1CC[C@@H](CC#N)O1	
InChI=1S/C6H7NO2/c7-4-3-5-1-2-6(8)9-5/h5H,1-3H2	InChI=1S/C6H7NO2/c7-4-3-5-1-2-6(8)9-5/h5H,1-3H2/t5-/m0/s1
