13
gdb 24773	3.62831	1.70262	1.15883	4.04	73.5	-0.2542	-0.0929	0.1613	951.1186	0.092685	-415.662713	-415.656555	-415.65561	-415.693357	23.831	
O	-0.0281086139	-0.0355506016	 0.0032250703	-0.314466
C	-0.015456755	 1.1742129802	 0.009172275	 0.279249
C	-1.2046821498	 2.1024768723	 0.0317494365	-0.247568
C	-0.7684129746	 3.3709556041	 0.0316340474	-0.030723
N	 0.6431547082	 3.3818337266	 0.0104830757	-0.045681
C	 1.6971646365	 4.241332914	-0.0010107021	 0.030195
N	 2.8445574034	 3.5894699107	-0.0214959517	-0.279104
C	 2.513214631	 2.2509334311	-0.0234101839	-0.178078
C	 1.1472365245	 2.0973324231	-0.0036172818	 0.189793
H	-2.2297895145	 1.7662310401	 0.0454407135	 0.139712
H	-1.3133576369	 4.3036309795	 0.0445556323	 0.159824
H	 1.5812633781	 5.3149272303	 0.006196015	 0.152601
H	 3.2740507431	 1.4860172796	-0.0387413561	 0.144248
154.6658	185.8907	306.0476	385.1745	537.8551	617.7365	648.3683	668.9417	690.9271	723.1264	771.8339	818.9786	837.6151	897.8772	917.8106	946.4669	1053.1214	1080.5493	1121.2343	1177.9114	1233.7669	1284.96	1318.1618	1366.2153	1433.2181	1472.8142	1575.8591	1623.1828	1801.9431	3243.9436	3254.5778	3262.4938	3270.6953
O=C1C=CN2C=NC=C12	O=C1C=Cn2cncc12	
InChI=1S/C6H4N2O/c9-6-1-2-8-4-7-3-5(6)8/h1-4H	InChI=1S/C6H4N2O/c9-6-1-2-8-4-7-3-5(6)8/h1-4H
