16
gdb 69623	3.78786	1.18402	1.14494	3.0126	77.56	-0.219	0.0166	0.2356	1122.9106	0.121462	-400.617718	-400.609592	-400.608648	-400.65002	31.75	
C	-0.175002933	 1.530685805	 0.0383623488	-0.507781
C	 0.1042953073	 0.06632787	 0.0141235887	 0.441578
O	-0.7825742964	-0.841580717	 0.6756733105	-0.250756
C	 0.6019476364	-0.8928820627	 1.0003204675	-0.137149
C	 1.3673046259	-1.6936645281	-0.1271122729	 0.198885
N	 0.3512224526	-2.1130184901	-1.1384331958	-0.347744
C	 0.8371709932	-0.7256911005	-1.1371792276	-0.228106
C	 2.646648445	-2.2848736971	-0.0040130701	 0.171666
C	 3.732547005	-2.7859702409	 0.1395802603	-0.403385
H	 0.7185524814	 2.1002040383	-0.2378881659	 0.129341
H	-0.9707018085	 1.7861303261	-0.6704428959	 0.13752
H	-0.4926283493	 1.8394262096	 1.0375335032	 0.140186
H	 0.9065163183	-0.7988868841	 2.0358013017	 0.111161
H	 0.8681667614	-2.6082157035	-1.8667663721	 0.241287
H	 1.3538938701	-0.2854244739	-1.980274464	 0.112809
H	 4.6907741207	-3.2276445611	 0.2584706837	 0.190487
111.5179	146.4137	198.4586	251.2911	287.8406	402.2446	442.0007	470.7716	513.7034	553.3378	566.0384	590.3934	666.2982	694.3255	773.1817	789.3894	854.8699	873.3739	912.2624	941.5192	996.7551	1010.1557	1031.7063	1089.3901	1124.4633	1175.8041	1202.7023	1237.858	1319.2139	1380.6343	1407.1463	1468.5477	1485.782	1497.7679	2228.3766	3034.5082	3096.8254	3123.9993	3193.6482	3203.0852	3466.1957	3501.8856
CC12OC1C1(NC21)C#C	C[C@]12O[C@H]1[C@]1(N[C@@H]21)C#C	
InChI=1S/C7H7NO/c1-3-7-4(8-7)6(2)5(7)9-6/h1,4-5,8H,2H3	InChI=1S/C7H7NO/c1-3-7-4(8-7)6(2)5(7)9-6/h1,4-5,8H,2H3/t4-,5+,6+,7-/m0/s1
