16
gdb 56465	2.80151	1.11765	0.82296	1.7745	71.82	-0.2689	-0.0394	0.2295	1330.7532	0.123833	-434.115019	-434.105694	-434.10475	-434.150253	32.508	
C	 1.0104615504	 1.552412651	-0.6319910052	-0.381146
C	 0.2068358638	 0.4473044293	 0.0748684249	-0.224771
C	 0.0278452632	-0.7247566845	-0.7881618082	 0.26817
N	-0.1236384823	-1.6718641451	-1.4341901758	-0.327669
C	 0.8136721717	 0.0627341562	 1.4388401611	 0.404357
N	 1.5313371616	 0.9022950401	 2.0531020819	-0.498232
N	 0.4334782572	-1.214055456	 1.8941153998	-0.360145
C	 0.7633394172	-1.7712035072	 3.1085431077	 0.168243
O	 1.3986528686	-1.2288964244	 3.9831780753	-0.293121
H	 2.0075535343	 1.1935111078	-0.8951053354	 0.1464
H	 0.4948036916	 1.868049852	-1.5415262398	 0.1316
H	 1.1202087373	 2.397839957	 0.046120506	 0.163143
H	-0.8028907398	 0.8281827762	 0.2862432124	 0.158981
H	 1.8196171788	 0.538895482	 2.9622935047	 0.26191
H	-0.0628466386	-1.810616922	 1.245870373	 0.274718
H	 0.367737315	-2.7995490824	 3.2004868875	 0.107561
32.4736	81.2947	134.5607	199.0462	214.6376	238.2997	272.8055	319.1421	364.5645	484.5347	509.5421	579.9765	614.2272	646.0277	774.8552	865.0619	932.4168	969.6345	996.5851	1027.4212	1055.4209	1108.5795	1132.7463	1192.3144	1279.1304	1312.4047	1334.2908	1409.4618	1439.215	1485.3761	1495.0528	1522.0647	1734.8473	1814.9112	2350.0366	2968.1193	3015.1827	3066.7396	3142.5064	3168.7819	3484.6676	3587.5538
CC(C#N)C(=N)NC=O	C[C@@H](C#N)C(=N)NC=O	
InChI=1S/C5H7N3O/c1-4(2-6)5(7)8-3-9/h3-4H,1H3,(H2,7,8,9)	InChI=1S/C5H7N3O/c1-4(2-6)5(7)8-3-9/h3-4H,1H3,(H2,7,8,9)/t4-/m0/s1
