16
gdb 60504	3.23698	1.00218	0.87464	2.1026	70.15	-0.2826	-0.0925	0.19	1310.7966	0.121719	-437.87939	-437.870051	-437.869107	-437.914784	32.128	
C	 0.1325561297	 1.2571173616	 0.2220604447	-0.420796
C	 0.0107961441	-0.2489578439	-0.0986999073	-0.141936
C	-1.4372796602	-0.6870156467	-0.1744491592	 0.094321
C	-1.8891602836	-1.9761270553	 0.3571712002	-0.180489
O	-2.1088422123	-0.7609158441	 1.0813136272	-0.242063
C	 0.7370894518	-0.5803126452	-1.3875075327	 0.294556
O	 0.2170600649	-0.982739814	-2.3973195439	-0.269496
C	 2.2036440234	-0.3644445253	-1.3485249152	 0.240318
N	 3.3477598928	-0.2026450138	-1.3031978083	-0.299643
H	 1.1775238817	 1.5646314593	 0.3124903641	 0.148087
H	-0.3407868626	 1.8615092949	-0.5579435366	 0.137075
H	-0.3727636735	 1.4569524872	 1.1694463269	 0.157032
H	 0.5087511347	-0.8051361401	 0.7072287165	 0.122154
H	-2.0175623843	-0.2277800347	-0.974082164	 0.113549
H	-2.7813824422	-2.4447369274	-0.053250072	 0.128481
H	-1.1672449745	-2.6594821125	 0.8023612298	 0.11885
35.494	67.2871	123.8025	184.9537	203.2107	230.9364	270.7	297.3028	389.5571	453.6365	467.9917	610.7027	723.6968	793.5093	818.3514	880.3089	936.3266	972.6107	1038.126	1062.5575	1093.0816	1109.2639	1159.534	1168.5778	1195.0216	1286.6459	1298.4953	1317.4336	1407.2427	1449.1651	1497.2114	1501.4823	1531.5431	1792.7002	2335.9732	3026.7215	3047.5093	3089.473	3120.5381	3123.4514	3137.2073	3178.9167
CC(C1CO1)C(=O)C#N	C[C@@H]([C@H]1CO1)C(=O)C#N	
InChI=1S/C6H7NO2/c1-4(5(8)2-7)6-3-9-6/h4,6H,3H2,1H3	InChI=1S/C6H7NO2/c1-4(5(8)2-7)6-3-9-6/h4,6H,3H2,1H3/t4-,6-/m1/s1
