17
gdb 55889	3.41546	0.93663	0.79102	3.3982	76.33	-0.2359	0.0219	0.2578	1409.317	0.134209	-417.972805	-417.963407	-417.962463	-418.007874	34.228	
N	 0.8599145541	 0.057200145	-0.2610948524	-0.5077
C	-0.2786464318	 0.4180341282	 0.3839758266	 0.379003
O	-0.3707496869	 1.3704231749	 1.1330729076	-0.363802
C	-1.4945556435	-0.462591075	 0.069899939	-0.249935
N	-1.1181735367	-1.7457686002	-0.5166122837	-0.102794
C	-1.1015553115	-2.906215777	 0.3602124046	-0.246948
C	-2.1654855034	-2.7721541653	-0.6892584323	-0.174565
C	-3.5287451253	-2.5196529895	-0.312364336	 0.337718
C	-4.6794057188	-2.3049474647	-0.0361148666	-0.459957
H	 1.6840873464	 0.6230034836	-0.1497051405	 0.25873
H	 0.847330513	-0.7253698267	-0.894082022	 0.26654
H	-2.0844284114	-0.5477576779	 0.9909193004	 0.131519
H	-2.1103263603	 0.082995236	-0.6541945351	 0.142967
H	-0.289044858	-3.611584627	 0.2105308667	 0.125546
H	-1.4145860288	-2.7683892058	 1.3928505009	 0.13449
H	-2.049959747	-3.3469047545	-1.6053739162	 0.122619
H	-5.69353232	-2.1187531041	 0.218814159	 0.20657
47.564	68.5672	99.5342	189.1233	210.7919	292.0216	322.5379	376.6194	451.5501	519.1768	530.4259	561.708	609.0878	626.5288	674.5876	694.8667	770.0849	841.1135	881.4115	908.1243	1002.1524	1032.7471	1057.3481	1094.7688	1119.6317	1137.8057	1156.4779	1263.8689	1315.4039	1342.4104	1362.8332	1375.7067	1468.9124	1505.4545	1586.7684	1808.6567	2236.0755	3029.9459	3078.1702	3104.484	3130.3475	3196.0081	3502.0976	3591.6992	3735.9536
NC(=O)CN1CC1C#C	NC(=O)CN1C[C@H]1C#C	
InChI=1S/C6H8N2O/c1-2-5-3-8(5)4-6(7)9/h1,5H,3-4H2,(H2,7,9)	InChI=1S/C6H8N2O/c1-2-5-3-8(5)4-6(7)9/h1,5H,3-4H2,(H2,7,9)/t5-,8?/m1/s1
