19
gdb 91787	2.50136	1.66538	1.19549	1.8696	75.58	-0.2393	-0.021	0.2182	1090.9271	0.157775	-423.042824	-423.033919	-423.032975	-423.076361	33.305	
C	 0.5556008555	 1.5301974561	-0.0951764625	-0.400223
C	 0.0202370751	 0.1039972599	-0.0340292271	 0.025872
O	 0.4240807142	-0.6733432482	-1.1630581053	-0.279445
C	 1.0669147869	-1.8531206263	-0.740484907	 0.061797
C	 2.396711572	-1.6833859346	-0.0845887409	-0.355985
C	 1.1379060376	-1.9290937286	 0.7650148021	 0.181816
C	 1.0117624852	-3.159746697	 1.6266859264	-0.479077
C	 0.4632725558	-0.6715638556	 1.217428402	 0.319102
O	 0.2236436616	-0.345688732	 2.3538424546	-0.332712
H	 1.6488084656	 1.5415775953	-0.1272945907	 0.122755
H	 0.1802389189	 2.0403678982	-0.9858259697	 0.129796
H	 0.2257795339	 2.0766973524	 0.7928047948	 0.140636
H	-1.0796918103	 0.1319500044	-0.0119879076	 0.113681
H	 0.8429109667	-2.709815048	-1.3667961633	 0.109622
H	 3.0940472785	-2.5146907532	-0.1093234642	 0.124858
H	 2.8580743311	-0.7021257734	-0.0970128352	 0.128972
H	 1.528843017	-4.011872017	 1.1763393934	 0.116997
H	 1.4479881591	-2.9752440529	 2.6131323106	 0.142491
H	-0.0371894044	-3.4358392494	 1.7742680596	 0.129046
68.3619	137.7811	164.1361	204.5733	222.0012	260.6954	293.1833	396.6108	431.9926	475.468	589.4214	612.9336	633.9939	788.5551	802.4429	849.5025	875.6517	901.1781	962.3087	999.2652	1030.481	1039.6867	1087.3833	1089.912	1101.884	1122.6701	1131.9244	1164.641	1278.8624	1299.1585	1326.4255	1348.5777	1393.0442	1404.398	1416.4916	1478.6737	1485.2888	1486.3645	1496.8176	1497.2381	1831.6874	2993.3616	3038.3956	3046.4466	3105.8882	3113.8344	3122.4402	3129.6699	3130.0893	3172.68	3220.7642
CC1OC2CC2(C)C1=O	C[C@H]1O[C@H]2C[C@@]2(C)C1=O	
InChI=1S/C7H10O2/c1-4-6(8)7(2)3-5(7)9-4/h4-5H,3H2,1-2H3	InChI=1S/C7H10O2/c1-4-6(8)7(2)3-5(7)9-4/h4-5H,3H2,1-2H3/t4-,5+,7-/m1/s1
