19
gdb 66425	2.82012	1.53636	1.25062	1.2882	80.08	-0.2124	0.0759	0.2882	1085.5444	0.156717	-385.787391	-385.778791	-385.777847	-385.819843	33.837	
C	-0.0096954894	 1.5124932	 0.0303331335	-0.52073
C	-0.0036246315	 0.0183074284	 0.0092137677	 0.37321
C	 0.8563390444	-0.961336803	-0.7785975417	-0.202867
C	 0.8958800603	-0.9668258965	 0.7478554133	-0.245896
C	-0.2708362406	-2.0162895908	 0.7472637053	 0.338601
O	-0.5745768435	-3.069025206	 1.5704215161	-0.454503
C	-1.1719941696	-1.0179006853	 0.0240735198	-0.325965
C	-0.2976941738	-2.012995437	-0.764433711	 0.309111
C	-0.7003350386	-3.0801193295	-1.7270441021	-0.525692
H	 1.0142024235	 1.9023335769	 0.0137080621	 0.120248
H	-0.536862364	 1.9251026067	-0.8380689739	 0.119826
H	-0.4978447081	 1.9000592445	 0.9326594158	 0.117413
H	 1.6596820538	-0.7746598213	-1.481612219	 0.078663
H	 1.7290256573	-0.7739788383	 1.4123438038	 0.082944
H	-0.9901551753	-2.7238389387	 2.3693958829	 0.286837
H	-2.2502353795	-0.9154134843	 0.0195686292	 0.080975
H	-0.9827153293	-2.6614335358	-2.7001246491	 0.117328
H	 0.1126678459	-3.7968549221	-1.8927382189	 0.122419
H	-1.5585107319	-3.6387425578	-1.3390554537	 0.128078
163.9628	191.013	199.403	209.4711	220.6002	270.7952	320.3788	395.0386	401.4244	536.211	585.431	679.0718	693.621	766.4154	786.2776	818.4323	826.9977	851.7017	878.422	890.6966	941.5281	977.012	1029.3569	1059.9777	1069.1236	1096.0656	1107.8855	1139.8664	1172.3399	1216.9854	1245.0336	1286.5902	1357.1507	1402.4579	1414.3968	1433.7736	1478.8864	1481.8481	1486.821	1497.7949	1504.9209	3016.5072	3019.9047	3074.9522	3076.8123	3088.9988	3096.7509	3175.4	3189.2445	3192.3203	3774.6349
CC12C3C1C1(O)C2C31C	C[C@@]12[C@H]3[C@@H]1[C@@]1(O)[C@@H]2[C@@]31C	
InChI=1S/C8H10O/c1-6-3-4(6)8(9)5(6)7(3,8)2/h3-5,9H,1-2H3	InChI=1S/C8H10O/c1-6-3-4(6)8(9)5(6)7(3,8)2/h3-5,9H,1-2H3/t3-,4+,5+,6-,7-,8-/m1/s1
