17
gdb 48931	4.0991	1.50376	1.31283	3.0271	75.49	-0.2322	-0.0223	0.2099	966.7135	0.13698	-384.65781	-384.651027	-384.650083	-384.6891	27.274	
O	-0.2805654088	 0.5349890045	-0.8142962742	-0.27468
C	 0.1464545908	 1.1117148616	 0.1609174558	 0.042126
C	 1.3623221873	 1.94459232	 0.1742141763	 0.230487
C	 1.8840564298	 2.6606908565	 1.4048917718	-0.32261
C	 3.1060705947	 3.3150800115	 0.7941359074	-0.072711
C	 3.6932771502	 2.4486337668	-0.3058695959	-0.095928
C	 2.8624539552	 3.6671524335	-0.6626598052	-0.095925
C	 1.7080740524	 2.7362602042	-1.1020445351	-0.096031
C	 2.5255763792	 1.5372811727	-0.7509916452	-0.09604
H	-0.38020134	 1.0395384232	 1.1396504104	 0.068837
H	 1.1694281876	 3.3950295223	 1.7940528289	 0.107174
H	 2.1435352258	 1.9663968107	 2.2123693586	 0.107174
H	 3.7705240886	 3.939551205	 1.3795864224	 0.091319
H	 4.7482897624	 2.2622787319	-0.4469606739	 0.094457
H	 3.1573041917	 4.5956795491	-1.1301930434	 0.094458
H	 0.9859865837	 2.8732731542	-1.8942066573	 0.108946
H	 2.5609435694	 0.5633980723	-1.2179010114	 0.108946
85.3976	192.7401	201.5054	397.896	452.2255	524.21	665.761	710.0524	736.4248	740.552	775.5736	788.6366	818.9086	881.3577	899.9437	938.8757	949.1507	959.0766	982.1459	1012.8881	1024.7078	1037.3936	1053.1816	1085.9199	1095.3662	1157.3165	1185.3931	1201.0451	1209.203	1264.6836	1277.0971	1313.8058	1349.2632	1387.8057	1438.654	1492.9766	1794.6726	2870.4323	3034.1835	3076.18	3189.277	3207.7788	3219.2978	3219.3546	3229.0045
O=CC12CC3C4C3C1C24	O=C[C@]12C[C@H]3[C@@H]4[C@H]3[C@H]1[C@H]24	
InChI=1S/C8H8O/c9-2-8-1-3-4-5(3)7(8)6(4)8/h2-7H,1H2	InChI=1S/C8H8O/c9-2-8-1-3-4-5(3)7(8)6(4)8/h2-7H,1H2/t3-,4+,5-,6+,7-,8-
