16
gdb 36262	5.54101	1.00326	0.97293	3.1516	73.14	-0.2395	0.0174	0.257	1196.8198	0.125119	-396.807958	-396.800806	-396.799862	-396.840161	27.424	
N	-0.008646714	-1.2308493713	-0.0191035204	-0.304313
C	-0.0287660545	-0.0779448923	-0.0853208448	 0.280107
C	-0.0598819244	 1.3867429794	-0.1409307216	-0.295291
N	 1.294885068	 1.935432178	-0.0400655186	-0.12685
C	 1.876943849	 1.9677532316	 1.3389893116	-0.038493
C	 2.7243347271	 3.2323485853	 0.9920879816	-0.028282
N	 2.284702682	 4.049484223	 2.1663039249	-0.34402
C	 1.0737686135	 3.2403089465	 1.8215284616	-0.046518
C	 1.3532370892	 3.3947740297	 0.283550037	-0.006763
H	-0.4874000828	 1.6892627202	-1.1040031127	 0.156768
H	-0.7507758408	 1.7393273638	 0.6445174363	 0.133717
H	 2.1626720113	 1.069244964	 1.8882961159	 0.104915
H	 3.7156127615	 3.2778449363	 0.5440678493	 0.102524
H	 2.7136808224	 3.694540575	 3.024766623	 0.215666
H	 0.1399171974	 3.3198476975	 2.3783014955	 0.09546
H	 1.029200415	 4.1815911634	-0.3972306985	 0.101371
58.1039	126.1963	233.7757	298.3721	390.9216	461.5928	507.2586	597.749	745.6688	765.5183	791.0755	817.2529	843.3726	898.927	904.627	933.0126	966.7827	986.5586	1039.7434	1042.9254	1084.8876	1098.466	1109.2488	1153.8924	1163.8216	1171.5861	1178.5248	1214.6757	1263.4267	1292.4389	1297.6844	1344.642	1374.2724	1475.2742	2367.3967	2958.9232	3060.2621	3107.3004	3116.9181	3126.9913	3142.5199	3408.3851
N#CCN1C2C3NC2C13	N#CCN1[C@H]2[C@@H]3N[C@H]2[C@H]13	
InChI=1S/C6H7N3/c7-1-2-9-5-3-6(9)4(5)8-3/h3-6,8H,2H2	InChI=1S/C6H7N3/c7-1-2-9-5-3-6(9)4(5)8-3/h3-6,8H,2H2/t3-,4+,5-,6+
