15
gdb 14302	3.88863	1.90325	1.82602	2.5745	60.63	-0.2229	0.0464	0.2693	783.3351	0.121277	-395.971644	-395.964541	-395.963597	-396.002824	27.175	
N	 0.0523268895	 1.4366840218	-0.0443705413	-0.530696
C	 0.0018458524	 0.0065100223	 0.047903743	-0.032198
C	-0.4898764496	-0.7172549388	 1.2839936614	 0.01805
O	-1.2629553181	 0.0639344045	 2.1853090521	-0.242995
C	-2.3767637205	 0.4241333424	 1.4813500265	 0.45113
N	-3.2019641306	 1.2910474788	 2.1428524055	-0.57635
N	-2.517578008	-0.0232652101	 0.2891950866	-0.344958
C	-1.3167303682	-0.7677079105	 0.0118699308	-0.058231
H	-0.8245817252	 1.7998050543	-0.4039042441	 0.24416
H	 0.1960352011	 1.8598076526	 0.8664532116	 0.235732
H	 0.8178170967	-0.5191011368	-0.4468099634	 0.095497
H	 0.049244825	-1.5164344456	 1.7755821286	 0.107929
H	-3.1930784067	 1.2068850019	 3.1484156497	 0.264755
H	-4.1220798932	 1.361096074	 1.7356858961	 0.270873
H	-1.4138359147	-1.6341442406	-0.6310226732	 0.097304
100.219	150.3487	243.6384	301.8291	358.7743	434.1889	553.1275	568.9772	638.3602	700.2101	739.5684	771.6811	781.5726	813.4642	832.3818	928.4354	964.6143	1011.173	1047.5578	1079.5041	1085.901	1114.4324	1194.6735	1248.1503	1264.6426	1292.3513	1344.3079	1393.3414	1424.3613	1614.0529	1666.3906	1729.7496	3107.9762	3181.334	3198.8113	3504.3504	3575.0044	3581.1036	3693.8477
NC1C2OC(N)=NC12	N[C@H]1[C@H]2OC(=N[C@@H]12)N	
InChI=1S/C4H7N3O/c5-1-2-3(1)8-4(6)7-2/h1-3H,5H2,(H2,6,7)	InChI=1S/C4H7N3O/c5-1-2-3(1)8-4(6)7-2/h1-3H,5H2,(H2,6,7)/t1-,2+,3-/m1/s1
