15
gdb 94258	2.10579	1.61949	1.17616	5.2058	66.51	-0.2653	-0.0563	0.209	1062.5674	0.111294	-453.923931	-453.915174	-453.91423	-453.957819	31.163	
O	 0.0773563132	 1.3716218951	-0.256330475	-0.416206
C	 0.0327470451	-0.0082833988	-0.0629936502	 0.126744
C	 0.3948958502	-0.518702202	 1.3527306238	-0.214014
N	-1.0510290605	-0.605955807	 1.6632011472	-0.345639
C	-1.42446899	-0.6139253621	 0.2320982695	-0.024278
C	-2.58377547	 0.3200795951	-0.1168639123	 0.148786
O	-3.3141027032	 0.1762512834	-1.0553436131	-0.222675
C	-1.5855074425	-1.9407183817	-0.3583332231	 0.265929
N	-1.6702373753	-3.0161627924	-0.7742326647	-0.330107
H	-0.1728361006	 1.8125397818	 0.5639116206	 0.299466
H	 0.5377149755	-0.4694208061	-0.9102684133	 0.131966
H	 0.9210371166	-1.4804832506	 1.3271737753	 0.129032
H	 0.9533843071	 0.1803092421	 1.9843839252	 0.116551
H	-1.3596084724	-1.40599114	 2.2047557507	 0.244788
H	-2.6709419831	 1.1659808232	 0.5969260593	 0.089657
75.8193	88.6372	135.6377	177.814	230.9409	287.5819	373.5185	414.4856	438.3997	456.7248	531.8651	567.4457	701.5363	742.6108	847.7824	862.8108	944.898	1001.9365	1043.0535	1070.9274	1100.445	1115.1083	1161.6366	1186.4795	1243.5062	1309.206	1314.8174	1383.9628	1397.4899	1436.7745	1514.1622	1844.8669	2347.9349	2916.2327	3027.2904	3078.5146	3137.7713	3542.2211	3799.6818
OC1CNC1(C=O)C#N	O[C@H]1CN[C@]1(C=O)C#N	
InChI=1S/C5H6N2O2/c6-2-5(3-8)4(9)1-7-5/h3-4,7,9H,1H2	InChI=1S/C5H6N2O2/c6-2-5(3-8)4(9)1-7-5/h3-4,7,9H,1H2/t4-,5-/m0/s1
