14
gdb 64921	2.34493	1.46757	1.08541	3.41	65.44	-0.271	-0.0572	0.2138	1085.6214	0.097344	-473.813305	-473.804365	-473.80342	-473.846824	32.365	
O	-0.0650309844	 1.3738122018	 0.0202416287	-0.443531
C	-0.0060003228	 0.0051466	 0.0272306921	 0.323878
C	-0.4904875234	-0.7150356719	 1.2564184673	-0.405101
C	-1.3651101139	-0.7659776416	 0.0201063815	 0.177545
O	-2.472569064	 0.0597765972	-0.0688644983	-0.421101
C	-1.4664005911	-2.0193620533	-0.6960041316	 0.245227
N	-1.5572142159	-3.0285506464	-1.2551892252	-0.34167
C	 1.1064200194	-0.5538397175	-0.7929679064	 0.095466
O	 1.8209136701	 0.1829242369	-1.4307792876	-0.272535
H	 0.5417966451	 1.6502855223	-0.6866345273	 0.305183
H	 0.0145840794	-1.6214663753	 1.5721786637	 0.149112
H	-0.8469375825	-0.0636951546	 2.0466161542	 0.158064
H	-3.1720467334	-0.3028146231	 0.4881426263	 0.304634
H	 1.2293287074	-1.6523760246	-0.7969545476	 0.12483
99.7347	115.0336	159.1936	236.706	250.9745	272.9029	305.5059	354.8964	405.3258	445.4122	468.0593	538.7041	583.153	652.9256	712.9091	803.9875	851.1753	910.5889	929.8753	1035.2068	1073.9161	1098.2704	1227.8956	1240.6735	1336.1475	1360.2072	1389.5366	1436.1329	1477.5998	1798.4058	2339.8795	2974.866	3136.398	3238.3682	3681.5066	3787.032
OC1(CC1(O)C#N)C=O	O[C@]1(C[C@]1(O)C#N)C=O	
InChI=1S/C5H5NO3/c6-2-4(8)1-5(4,9)3-7/h3,8-9H,1H2	InChI=1S/C5H5NO3/c6-2-4(8)1-5(4,9)3-7/h3,8-9H,1H2/t4-,5+/m0/s1
