18
gdb 58411	1.73058	1.51161	0.90215	0.9896	69.81	-0.2562	-0.0395	0.2168	1283.6335	0.144976	-476.254803	-476.2448	-476.243856	-476.290323	35.275	
C	 0.1545623439	 1.542930965	-0.3014060946	-0.414004
C	 0.0714463283	 0.0340550353	-0.1058771888	 0.11611
O	-1.2751514605	-0.4214682427	-0.027852745	-0.425323
C	 0.8040446418	-0.7720185291	-1.2250928916	-0.092162
N	 2.181482286	-0.3909784327	-1.444122071	-0.281694
C	 2.5376523139	 0.465228905	-2.4420520498	 0.150462
O	 1.7626751382	 1.1419056275	-3.0858772643	-0.324524
C	 0.7558881489	-2.2505303214	-0.8752332877	 0.160132
O	 1.7451878919	-2.9337081396	-0.7662431313	-0.262716
H	 1.1871599388	 1.8935038762	-0.2435337376	 0.136724
H	-0.2338840723	 1.8326330432	-1.283122794	 0.136267
H	-0.4269900063	 2.0388393675	 0.481013894	 0.123781
H	 0.5194052745	-0.2319035575	 0.8595693804	 0.09992
H	-1.7743292961	 0.0170174578	-0.7262685951	 0.287137
H	 0.2369954626	-0.6081053178	-2.152858307	 0.119132
H	 2.8600860032	-1.0753765568	-1.1330022575	 0.260708
H	 3.6337323071	 0.4924875825	-2.5930130838	 0.087942
H	-0.2573484738	-2.6492586223	-0.6904776653	 0.122108
51.2411	81.2654	115.7377	183.6559	207.1653	237.506	251.9766	311.9072	321.0709	344.47	420.2382	448.028	488.4656	611.1609	700.9604	784.7274	841.0869	907.3352	952.3689	996.3565	1033.8795	1075.1397	1105.512	1120.2578	1153.0255	1228.1991	1243.3359	1295.0958	1340.2426	1374.3453	1398.9216	1406.1095	1418.5757	1427.1162	1479.2623	1495.8452	1512.8882	1793.6661	1817.3419	2954.3637	2985.6901	3016.1968	3039.4197	3044.6964	3119.3734	3134.1977	3568.198	3799.3358
CC(O)C(NC=O)C=O	C[C@@H](O)[C@@H](NC=O)C=O	
InChI=1S/C5H9NO3/c1-4(9)5(2-7)6-3-8/h2-5,9H,1H3,(H,6,8)	InChI=1S/C5H9NO3/c1-4(9)5(2-7)6-3-8/h2-5,9H,1H3,(H,6,8)/t4-,5+/m1/s1
