21
gdb 91360	2.09618	1.9626	1.39442	1.7065	76.33	-0.2489	0.0642	0.3131	1031.4912	0.184992	-424.237838	-424.229771	-424.228827	-424.270178	32.423	
C	-0.1312322301	 1.5751379042	-0.0294790838	-0.413354
C	 0.0250874617	 0.0548759625	-0.0025491239	 0.067115
C	 0.7621273038	-0.5737288385	-1.2276626448	-0.249946
C	 1.7168229287	-1.5692809578	-0.5317492681	 0.093394
C	 2.9236219771	-0.8123634876	 0.0598968247	-0.269643
C	 2.2703793871	-0.1631714556	 1.3220039073	 0.130947
O	 2.3948906689	 1.2439489955	 1.4247552255	-0.430703
C	 0.797795954	-0.6151980764	 1.1638535921	 0.015939
O	 0.9867517707	-1.9441587022	 0.6555144425	-0.268871
H	 0.8269358868	 2.0799926663	-0.1531801579	 0.132375
H	-0.7910351755	 1.8668886875	-0.8539868123	 0.10314
H	-0.5811159354	 1.943384346	 0.8988144259	 0.109774
H	-0.9766767518	-0.3861408678	 0.0478282237	 0.078853
H	 0.0677839906	-1.0867089121	-1.8975486317	 0.099478
H	 1.3047960559	 0.1731646019	-1.8145082265	 0.096593
H	 1.9601037404	-2.4650886775	-1.1032540118	 0.073194
H	 3.728640368	-1.5001556708	 0.330338298	 0.097821
H	 3.3262480286	-0.0484467781	-0.6110741435	 0.098475
H	 2.6644601247	-0.6400502691	 2.2291773858	 0.076006
H	 3.3120835322	 1.4474383798	 1.6297156564	 0.286491
H	 0.2456146437	-0.6548341102	 2.1036706223	 0.072922
78.7503	178.6965	262.036	269.8939	287.7616	339.0849	394.8475	431.9307	512.3838	557.1447	574.231	696.9783	797.1031	806.754	832.9275	867.5733	905.2842	938.6175	965.7955	977.7009	1006.9611	1026.8979	1032.7566	1086.9246	1104.2748	1128.2406	1149.0237	1154.4881	1201.9035	1226.1648	1247.8701	1259.88	1297.2602	1317.4979	1318.7399	1333.1515	1361.3967	1367.1763	1375.019	1414.811	1434.6652	1482.3295	1495.488	1501.3036	1503.4585	3005.1112	3031.2409	3037.888	3055.7243	3060.2586	3090.89	3101.022	3108.5694	3111.6667	3119.8448	3148.6045	3828.0129
CC1CC2CC(O)C1O2	C[C@H]1C[C@H]2C[C@@H](O)[C@@H]1O2	
InChI=1S/C7H12O2/c1-4-2-5-3-6(8)7(4)9-5/h4-8H,2-3H2,1H3	InChI=1S/C7H12O2/c1-4-2-5-3-6(8)7(4)9-5/h4-8H,2-3H2,1H3/t4-,5-,6+,7+/m0/s1
