16
gdb 50750	3.04917	1.40039	0.99317	5.2054	67.15	-0.2436	-0.0364	0.2072	1129.0703	0.12484	-475.063539	-475.055476	-475.054532	-475.09694	28.967	
O	-0.2978257407	 0.0149167268	 0.0264054945	-0.255884
C	-0.0905974161	 1.1938920396	 0.0116583892	 0.166061
N	 1.1561666289	 1.8413407812	-0.0191016873	-0.159386
C	 1.1333430454	 3.3127168145	-0.0981402298	-0.169605
C	 2.4096920588	 3.9028950747	 0.4746915609	-0.098013
O	 3.5194991814	 3.3739343523	-0.2194346339	-0.237056
C	 3.6532503304	 1.9912663365	 0.0229408043	-0.189974
C	 2.3771859836	 1.1406665621	-0.0413765	 0.386771
O	 2.4650695619	-0.0597633452	-0.0530421073	-0.304918
H	-0.902965632	 1.9501160302	 0.032016691	 0.08205
H	 1.0318867964	 3.6317555904	-1.1424947977	 0.134686
H	 0.2621686979	 3.6784451123	 0.4547595683	 0.126286
H	 2.4219718557	 4.9858433116	 0.3282080215	 0.127275
H	 2.4829678626	 3.6953128965	 1.5549081159	 0.105476
H	 4.3461534763	 1.5890305106	-0.7187668831	 0.154673
H	 4.0869833696	 1.804147426	 1.0195898934	 0.131555
48.1607	118.1752	175.2696	236.7328	254.1559	346.826	381.206	471.4667	489.027	558.0182	607.1352	673.2224	739.4087	902.6519	976.4069	1010.2175	1016.8765	1030.7704	1120.1667	1128.8042	1174.0059	1202.6822	1238.6716	1261.7386	1307.6957	1338.9411	1366.6262	1404.1832	1419.1478	1466.444	1468.8166	1496.7501	1504.6251	1791.2721	1870.8846	2910.9752	2975.4504	2980.3472	3030.5754	3082.7906	3103.2989	3117.9132
O=CN1CCOCC1=O	O=CN1CCOCC1=O	
InChI=1S/C5H7NO3/c7-4-6-1-2-9-3-5(6)8/h4H,1-3H2	InChI=1S/C5H7NO3/c7-4-6-1-2-9-3-5(6)8/h4H,1-3H2
