15
gdb 98719	2.97025	1.11791	0.94277	2.8938	68.92	-0.269	-0.0155	0.2535	1256.1856	0.109188	-457.725475	-457.716231	-457.715287	-457.760501	31.95	
C	-0.1500499617	 1.5323775421	 0.6948418302	-0.242947
O	-0.1794756822	 0.0982461786	 0.7204898639	-0.237948
C	-0.9840265474	-0.4733718817	-0.1968511752	 0.446595
O	-1.6605330484	 0.1247098594	-0.9881977492	-0.35276
C	-0.8854271044	-1.9694047074	-0.0769614567	-0.065241
O	-1.9333702592	-2.7203013226	-0.6614577262	-0.215454
C	-0.6504381861	-2.8101402926	-1.2840128701	-0.164097
C	-0.4880267954	-2.2696274597	-2.6044747963	 0.359071
C	-0.3082327647	-1.8758696302	-3.7248874465	-0.409599
H	 0.5414143653	 1.8292081288	 1.4830164742	 0.136782
H	 0.1972449873	 1.8911445223	-0.2771460224	 0.145827
H	-1.1465752152	 1.9385889441	 0.8843447114	 0.146524
H	-0.5086077358	-2.3338916131	 0.8767870142	 0.119438
H	-0.1410149778	-3.7581103852	-1.1097718133	 0.126389
H	-0.1679137744	-1.5071859327	-4.7112410079	 0.20742
43.5213	95.7307	113.6966	148.2956	188.6534	231.8567	285.9171	322.7264	416.7635	521.0359	546.2832	643.4151	674.7369	704.0424	777.0023	817.3502	870.3618	942.6625	999.2986	1027.776	1092.7902	1129.8006	1179.2122	1203.7345	1222.5039	1272.8382	1384.0996	1434.0419	1475.1218	1481.4878	1496.61	1841.3054	2246.1727	3054.5853	3108.9928	3130.5318	3137.5902	3163.4771	3502.0981
COC(=O)C1OC1C#C	COC(=O)[C@H]1O[C@H]1C#C	
InChI=1S/C6H6O3/c1-3-4-5(9-4)6(7)8-2/h1,4-5H,2H3	InChI=1S/C6H6O3/c1-3-4-5(9-4)6(7)8-2/h1,4-5H,2H3/t4-,5-/m0/s1
