21
gdb 120060	4.24421	0.92036	0.88414	1.4581	81.6	-0.2448	0.0818	0.3266	1386.7842	0.183522	-387.029852	-387.021516	-387.020572	-387.0634	32.341	
O	-0.0388677053	 1.4523202411	 0.0568191499	-0.421262
C	 0.000655868	 0.0418227165	-0.1063897401	-0.068368
C	-1.4117441569	-0.4967561514	 0.0851118788	-0.214264
C	-1.4858536394	-2.0167033786	-0.0200495195	 0.029556
C	-2.8308690579	-2.7429340877	-0.0060587214	-0.089232
C	-3.3299175845	-2.8519846979	-1.4585714468	-0.058798
C	-2.2882016849	-2.1980781479	-2.3625175342	-0.233885
C	-1.2334249282	-2.7645515991	-1.3723907401	-0.078504
C	-2.3144879457	-3.8291358325	-0.9160326603	-0.087738
H	 0.8486901607	 1.7955443556	-0.0809874027	 0.283374
H	 0.3722391713	-0.2309021066	-1.1077640156	 0.08564
H	 0.6781502717	-0.4249257928	 0.628169023	 0.080832
H	-1.7685752445	-0.1842241684	 1.0747409876	 0.101233
H	-2.0737763605	-0.0182419819	-0.6436294362	 0.107316
H	-0.8397784271	-2.4706071469	 0.7424047798	 0.066121
H	-3.521069701	-2.8479063548	 0.8221849148	 0.079381
H	-4.3762965838	-3.0361663374	-1.6669101161	 0.081539
H	-2.2328082216	-2.7129525014	-3.3260155359	 0.096492
H	-2.3178467079	-1.116182054	-2.5333998881	 0.090223
H	-0.2197191912	-2.9802603377	-1.7048160694	 0.06383
H	-2.3110217013	-4.9056719561	-0.8299298276	 0.086513
62.259	93.8793	125.3994	257.6254	273.7451	332.0454	363.4019	477.4276	592.2741	705.6498	735.026	772.0069	787.7977	800.3115	817.849	871.9657	927.4732	938.3198	992.5179	993.8374	1006.9314	1028.5834	1031.8522	1038.7359	1050.0383	1083.5001	1096.5228	1118.4084	1148.5777	1167.7803	1173.3688	1201.6656	1229.7796	1234.5892	1256.5239	1275.616	1309.7878	1326.4384	1326.908	1368.8638	1405.6898	1459.6725	1488.826	1512.0774	1528.228	2955.8737	2980.8423	3021.2908	3033.0472	3037.3097	3084.1773	3091.7535	3129.2021	3185.0564	3194.7978	3224.73	3829.1068
OCCC1C2C3CC1C23	OCC[C@H]1[C@H]2[C@H]3C[C@@H]1[C@@H]23	
InChI=1S/C8H12O/c9-2-1-4-5-3-6-7(4)8(5)6/h4-9H,1-3H2	InChI=1S/C8H12O/c9-2-1-4-5-3-6-7(4)8(5)6/h4-9H,1-3H2/t4-,5+,6-,7+,8-/m1/s1
