19
gdb 102204	3.26065	0.91626	0.76605	0.8542	83.38	-0.2429	0.0362	0.2792	1484.904	0.154433	-385.810181	-385.799343	-385.798399	-385.847051	38.127	
C	 0.2149300658	 1.3316772109	 0.3036682053	-0.241551
O	-0.188270001	 0.0344753649	-0.092488141	-0.244149
C	 0.521292458	-0.5121615914	-1.1859339876	 0.114424
C	 1.2173377082	-1.8122225688	-0.7303803124	-0.363672
C	 2.2453877515	-1.5767031537	 0.2748572025	 0.300678
C	 3.1039918824	-1.3710853408	 1.0904788176	-0.436898
C	-0.4709857458	-0.7973314126	-2.3331815698	-0.363675
C	-1.0703477457	 0.4162865756	-2.8723915141	 0.300707
C	-1.546103336	 1.4238607019	-3.3231330673	-0.436912
H	 1.2639160054	 1.3471345176	 0.6283833426	 0.116836
H	 0.0746724832	 2.0625782063	-0.5038967468	 0.116849
H	-0.4193426495	 1.613588156	 1.1479085338	 0.125942
H	 1.2832941726	 0.1925157852	-1.5423388842	 0.092035
H	 0.4498833883	-2.4849453798	-0.3274879054	 0.138887
H	 1.6593220762	-2.3155521894	-1.5996431311	 0.125669
H	 3.8586431129	-1.1985790177	 1.8171163814	 0.19514
H	 0.0423225492	-1.3433296134	-3.134870657	 0.125666
H	-1.2554616398	-1.4599294829	-1.9466099431	 0.138883
H	-1.977037346	 2.3086275021	-3.7215568933	 0.195139
43.965	54.9348	91.3938	98.7779	159.9097	184.5849	281.2417	319.4619	338.3485	348.3117	349.7455	431.4461	505.8469	606.2709	615.5703	615.803	638.5678	641.0418	822.1609	874.3188	925.702	999.5698	1046.4057	1055.2757	1056.2001	1150.668	1178.5599	1207.3083	1209.2937	1275.471	1281.6615	1345.8693	1371.652	1399.1654	1453.9972	1465.0925	1483.7181	1490.9618	1505.9534	2239.1663	2239.4882	2997.6412	3019.7905	3023.2842	3030.5088	3058.0941	3058.3571	3069.0419	3115.7754	3506.3397	3506.6474
COC(CC#C)CC#C	COC(CC#C)CC#C	
InChI=1S/C8H10O/c1-4-6-8(9-3)7-5-2/h1-2,8H,6-7H2,3H3	InChI=1S/C8H10O/c1-4-6-8(9-3)7-5-2/h1-2,8H,6-7H2,3H3
