16
gdb 34750	3.03469	1.67487	1.49005	5.0191	70.92	-0.2453	0.022	0.2673	916.1304	0.126757	-400.72804	-400.721363	-400.720418	-400.759183	26.444	
N	-0.1392443538	-1.2104095698	-0.1659749996	-0.340331
C	-0.0741316312	-0.0623140744	-0.045909489	 0.28908
C	 0.008180016	 1.3905274103	 0.0741705389	-0.155863
C	-0.2476341483	 2.0569103453	 1.4306005667	-0.115707
C	 1.0036157929	 1.9716240584	 2.2847766244	 0.122409
O	 1.9448022052	 0.9576676665	 2.0290749231	-0.263824
C	 2.4709354014	 1.1973730597	 0.7159215731	-0.086997
C	 1.4246828231	 2.0851000997	 0.0489011305	-0.096861
C	 0.9464302239	 2.9985408531	 1.2120670617	-0.135165
H	-0.6318929213	 1.838294495	-0.6906592344	 0.129135
H	-1.2256650863	 2.2694447052	 1.8451922775	 0.103149
H	 0.9190862851	 2.2330208613	 3.3323358883	 0.115875
H	 3.4417542104	 1.7106721294	 0.778670603	 0.102019
H	 2.6043403335	 0.2319498443	 0.2197468837	 0.136314
H	 1.7210159599	 2.5287929373	-0.899394244	 0.093085
H	 1.0420001896	 4.0712738087	 1.303608346	 0.103684
119.3849	148.5101	257.476	368.3504	453.4126	529.8624	567.2392	659.5829	725.3583	770.3782	805.4473	821.2375	836.8646	894.2722	928.8487	964.2839	996.0342	1015.664	1029.141	1052.8156	1059.7451	1071.4811	1084.3245	1131.4833	1167.8234	1212.3906	1227.9337	1245.5283	1284.7492	1315.7948	1337.6349	1365.3524	1417.1255	1511.839	2351.7024	2999.1328	3077.6563	3094.7951	3140.3745	3184.5746	3199.0207	3215.4704
N#CC1C2C3OCC1C23	N#C[C@H]1[C@H]2[C@H]3OC[C@@H]1[C@@H]23	
InChI=1S/C7H7NO/c8-1-3-4-2-9-7-5(3)6(4)7/h3-7H,2H2	InChI=1S/C7H7NO/c8-1-3-4-2-9-7-5(3)6(4)7/h3-7H,2H2/t3-,4+,5-,6+,7-/m1/s1
