18
gdb 81151	2.62856	1.50021	1.2945	3.5723	76.65	-0.2439	0.0124	0.2562	1043.0639	0.151065	-398.113273	-398.105549	-398.104605	-398.14518	30.751	
N	 0.2477091982	 1.5090039459	-0.0645234725	-0.531573
C	 0.0311671277	 0.0965574362	 0.0193745068	 0.014725
C	 0.0665675126	-0.6372547792	 1.3847658477	-0.026146
C	-1.0200560777	 0.0711717128	 2.2115364866	-0.214606
C	-2.15365564	 0.0917418281	 1.13544078	-0.249379
C	-1.3860929616	-0.6290393385	 0.0052003414	 0.197945
N	-0.7546053496	-1.7591485786	 0.7855856351	-0.343069
C	-2.078479696	-0.9276251698	-1.2253823645	 0.145093
N	-2.6003772387	-1.1370420708	-2.2364434476	-0.340669
H	 0.2115595385	 1.8390039171	-1.0224115232	 0.243885
H	-0.4219144067	 2.0440133595	 0.4757889206	 0.237081
H	 0.6850661917	-0.4079126294	-0.6973444234	 0.094664
H	 1.0006524095	-0.9005411002	 1.8788747629	 0.082292
H	-1.2949570208	-0.5165909177	 3.0881387528	 0.121401
H	-0.7140928915	 1.0671446302	 2.5418708063	 0.10624
H	-3.0352506899	-0.4759089094	 1.4336019929	 0.130426
H	-2.4677963984	 1.0962005263	 0.8405138775	 0.105215
H	-0.1540946374	-2.2779242826	 0.1420129706	 0.226474
131.1288	158.4071	255.9812	266.1488	279.0612	366.7696	491.9847	518.2235	525.4999	560.2126	617.044	719.2256	777.1874	797.5805	835.0444	843.4741	885.0031	909.4805	944.0014	968.0267	1022.1025	1042.241	1105.9916	1115.0297	1163.9395	1171.6582	1213.3779	1223.5106	1237.6863	1266.8748	1278.4073	1296.1312	1321.5691	1366.8579	1441.267	1484.1585	1504.4906	1660.8584	2346.6266	3069.5606	3078.5928	3080.0906	3123.4135	3135.0092	3139.9721	3444.4303	3521.7534	3604.8144
NC1C2CCC1(N2)C#N	N[C@H]1[C@H]2CC[C@@]1(N2)C#N	
InChI=1S/C6H9N3/c7-3-6-2-1-4(9-6)5(6)8/h4-5,9H,1-2,8H2	InChI=1S/C6H9N3/c7-3-6-2-1-4(9-6)5(6)8/h4-5,9H,1-2,8H2/t4-,5+,6-/m1/s1
