21
gdb 62919	2.62058	1.66993	1.5577	1.4712	82.07	-0.2355	0.009	0.2445	1000.1635	0.184054	-387.094956	-387.087073	-387.086129	-387.126452	33.107	
C	-0.0614037353	 1.5420001327	 0.0095808037	-0.436076
C	-0.003036094	 0.0208742439	 0.0138849418	 0.437242
O	-1.3263838935	-0.4095871393	 0.216379806	-0.488556
C	 0.808700664	-0.5946191432	-1.1836482034	-0.074319
C	 2.0778869164	-0.4361109186	-0.3000140511	-0.236168
C	 1.1296067238	-0.5870586786	 0.9290567207	-0.110621
C	 0.8481602115	-2.0648124441	 1.1012347191	-0.084003
C	 0.5349072383	-2.778906399	 0.0146793704	-0.086933
C	 0.4610375866	-2.0878895918	-1.3315179801	-0.269708
H	 0.91352058	 1.9994682406	-0.1694301795	 0.11281
H	-0.7486151339	 1.8782418441	-0.7732922796	 0.122588
H	-0.4448043003	 1.9010667078	 0.9694237379	 0.119947
H	-1.290925174	-1.3461225072	 0.4491859333	 0.276069
H	 0.7710978185	-0.0747268182	-2.1448285442	 0.057683
H	 2.85523681	-1.1963086114	-0.4011672215	 0.095922
H	 2.5268637483	 0.554957825	-0.3776951825	 0.101021
H	 1.3737122374	-0.0792010435	 1.8639490922	 0.057449
H	 0.9034795927	-2.5148882994	 2.0877009928	 0.091609
H	 0.3346207762	-3.8455178725	 0.0663151546	 0.092084
H	-0.5459297817	-2.1972269161	-1.7569460064	 0.114313
H	 1.1431961792	-2.5714268211	-2.043926994	 0.107649
181.9117	216.5488	233.1134	260.3789	373.9427	387.1758	420.1488	462.1344	475.8558	523.5577	574.4009	624.1619	706.591	749.595	833.7001	844.7191	859.5248	900.2464	930.1647	951.8465	979.1755	983.9868	991.449	1060.8352	1074.0221	1086.0789	1098.1477	1111.2893	1168.5529	1175.2472	1206.8254	1227.8091	1244.4321	1281.3268	1295.6502	1316.4565	1360.9618	1388.6501	1398.2312	1419.619	1472.5241	1480.5617	1491.4719	1503.7504	1684.7118	3010.8356	3036.4683	3043.2666	3064.7762	3074.3318	3089.4935	3108.2607	3124.4928	3135.3047	3157.9685	3182.2375	3751.23
CC1(O)C2CC1C=CC2	C[C@@]1(O)[C@H]2C[C@@H]1C=CC2	
InChI=1S/C8H12O/c1-8(9)6-3-2-4-7(8)5-6/h2-3,6-7,9H,4-5H2,1H3	InChI=1S/C8H12O/c1-8(9)6-3-2-4-7(8)5-6/h2-3,6-7,9H,4-5H2,1H3/t6-,7+,8-/m0/s1
