23
gdb 116294	2.33515	1.23803	0.91066	0.6026	82.08	-0.2537	0.0847	0.3384	1392.0704	0.20571	-425.438786	-425.428763	-425.427819	-425.474158	36.211	
C	-0.0874016271	 1.692891193	 0.0536870717	-0.386921
C	-0.0302283221	 0.1785952959	 0.279348594	-0.190385
C	-1.3543626837	-0.5282510118	-0.01538319	-0.008511
C	-1.8249380871	-0.5171982138	-1.4831428969	-0.247613
C	-2.8163358188	-1.6908503537	-1.5262773545	-0.081118
O	-2.5060760091	-2.5354704454	-0.4053576597	-0.268352
C	-1.3746509807	-2.0349617066	 0.2708426717	 0.212619
O	-0.1780865352	-2.5980191368	-0.2083890998	-0.248075
C	-0.0810428158	-3.9922090738	 0.0080266697	-0.239276
H	 0.8663905992	 2.1641502256	 0.3103017552	 0.112443
H	-0.304824276	 1.9368002294	-0.9914874907	 0.116879
H	-0.8644840918	 2.1590416166	 0.670480093	 0.110934
H	 0.7550857205	-0.2671180463	-0.3387272262	 0.114558
H	 0.2527014899	-0.0214030123	 1.3208375195	 0.093034
H	-2.1440202202	-0.0869895276	 0.6078180003	 0.0755
H	-2.2884254758	 0.4250456571	-1.7828158551	 0.10215
H	-0.9720450592	-0.7044438864	-2.1427148626	 0.114945
H	-3.8547672342	-1.3550214091	-1.4149072129	 0.100313
H	-2.7462531589	-2.2706622777	-2.453252912	 0.103405
H	-1.5050080469	-2.294448738	 1.3323061052	 0.064622
H	 0.8858130221	-4.3126833137	-0.3866497748	 0.122084
H	-0.1257770979	-4.2342278832	 1.0813358628	 0.102455
H	-0.8834842213	-4.5353204212	-0.5046489481	 0.124311
82.0548	94.7128	112.7563	134.6721	158.3681	197.6799	222.8693	262.668	335.2731	381.2892	482.9979	553.0424	642.5427	752.5897	776.4273	841.8312	899.7014	936.1889	938.982	961.3411	985.0619	1014.9925	1041.5483	1067.3316	1096.9613	1140.6101	1158.1135	1170.3146	1181.9002	1208.2129	1225.7968	1236.0742	1281.1744	1311.3035	1324.5639	1340.0137	1363.5923	1391.8698	1395.9869	1407.0436	1413.7861	1476.9278	1483.9982	1486.9145	1491.4667	1501.3346	1508.1532	1514.8381	1531.034	2985.2466	2994.8159	3017.7412	3023.0229	3028.2237	3029.6623	3053.5416	3062.0411	3065.6968	3077.3425	3101.0322	3103.095	3114.958	3121.0831
CCC1CCOC1OC	CC[C@H]1CCO[C@H]1OC	
InChI=1S/C7H14O2/c1-3-6-4-5-9-7(6)8-2/h6-7H,3-5H2,1-2H3	InChI=1S/C7H14O2/c1-3-6-4-5-9-7(6)8-2/h6-7H,3-5H2,1-2H3/t6-,7+/m0/s1
