20
gdb 94083	3.97637	1.00538	0.87218	1.6507	77.07	-0.2145	-0.0306	0.1839	1351.3412	0.171069	-440.291494	-440.28261	-440.281665	-440.325127	33.343	
C	-0.0956517876	 1.4905860106	 0.1272191726	-0.403334
C	 0.0242563688	-0.0176324791	-0.0121872158	 0.131016
C	 0.7550643679	-0.4538638996	-1.2885682267	-0.164081
N	 1.0350743006	-1.8858714989	-1.3468855313	-0.303183
C	 1.6007436146	-2.4084964742	-0.1172937204	-0.065598
C	 0.8509490516	-1.8998383325	 1.145629812	-0.089176
O	 0.7444115002	-0.4938798156	 1.1277967707	-0.25697
C	 1.5720272026	-3.9181463354	-0.1083169958	 0.147264
O	 0.8771040945	-4.5790590848	-0.8390407777	-0.249991
H	 0.8953083504	 1.955187121	 0.1228595206	 0.125598
H	-0.678325022	 1.9072648002	-0.6999990467	 0.116947
H	-0.590313235	 1.749846333	 1.0668228087	 0.126448
H	-0.9809440187	-0.4770492314	-0.0068436538	 0.059871
H	 0.1758202512	-0.1744114031	-2.1746571784	 0.104483
H	 1.7098562677	 0.0887479302	-1.3365658981	 0.104249
H	 0.2170844307	-2.4320826962	-1.5964787601	 0.229062
H	 2.6471871618	-2.0794417905	-0.0253995171	 0.098521
H	-0.1514127926	-2.3610529187	 1.1764530702	 0.093073
H	 1.3852787558	-2.1642413293	 2.0638846413	 0.109913
H	 2.2097625674	-4.3945438457	 0.6687705359	 0.085889
76.8653	117.1621	193.9791	205.1293	235.6394	279.2317	311.4682	349.6743	439.6574	475.2579	489.9872	591.8909	705.7355	748.0605	809.9196	851.581	903.5228	914.4512	925.9914	991.1368	1067.8939	1091.9685	1097.1749	1132.5008	1152.8302	1162.025	1199.6591	1261.23	1265.1648	1316.757	1331.6613	1365.8181	1373.9915	1403.6737	1405.5245	1411.2674	1424.8543	1469.9921	1481.5026	1484.2659	1491.6411	1501.3218	1820.6433	2888.8053	2937.3559	2957.2368	2999.3451	3011.1206	3042.8406	3075.0812	3079.0539	3115.3574	3122.6631	3531.9476
CC1CNC(CO1)C=O	C[C@H]1CN[C@@H](CO1)C=O	
InChI=1S/C6H11NO2/c1-5-2-7-6(3-8)4-9-5/h3,5-7H,2,4H2,1H3	InChI=1S/C6H11NO2/c1-5-2-7-6(3-8)4-9-5/h3,5-7H,2,4H2,1H3/t5-,6+/m0/s1
