19
gdb 94098	4.73326	0.80859	0.74191	2.8397	80.21	-0.2364	-0.034	0.2023	1536.917	0.157171	-423.043701	-423.034284	-423.033339	-423.079668	33.052	
C	 0.1581372458	 1.5929016927	-0.1239403725	-0.387491
C	-0.0420534936	 0.0885989435	 0.0611174524	 0.110531
O	 0.5202194791	-0.6189814055	-1.0527811718	-0.277699
C	 1.4248170536	-1.617396373	-0.604751637	-0.152891
C	 1.4951343276	-1.4570923055	 0.8948371491	 0.278547
C	 2.3698491454	-2.3237988376	 1.7508279468	-0.383578
C	 1.8143965507	-3.7408861546	 1.8532710794	 0.160055
O	 2.4150061153	-4.7358675693	 1.5475869369	-0.229102
C	 0.6510671192	-0.4965699132	 1.2620882029	-0.221435
H	 1.2237633258	 1.8395593796	-0.136655258	 0.1193
H	-0.2856812319	 1.9149807972	-1.0700027883	 0.128898
H	-0.3224166703	 2.1490465206	 0.6880428982	 0.111192
H	-1.1257733689	-0.1178371766	 0.0984204152	 0.082762
H	 1.0672667266	-2.6195319609	-0.8964599643	 0.109353
H	 2.4067644694	-1.4794544462	-1.0843141316	 0.108729
H	 3.390463618	-2.3908717075	 1.3599764424	 0.129272
H	 2.4103755902	-1.9153332869	 2.7687097451	 0.128184
H	 0.7712990419	-3.7859208641	 2.2417973849	 0.082964
H	 0.468940116	-0.1504041729	 2.2725504802	 0.102408
38.8357	43.0525	88.9345	126.8043	224.1175	228.0039	282.6847	371.9247	446.758	477.4502	515.7373	629.4342	727.4706	814.9917	843.479	856.6047	915.7631	919.6052	1006.3876	1022.1131	1026.0652	1069.5948	1078.0055	1104.9845	1134.8662	1178.3871	1202.2391	1214.1139	1288.0473	1302.8206	1345.7158	1371.9274	1389.3117	1401.2168	1417.287	1456.7129	1485.6172	1494.329	1521.677	1722.3179	1837.7083	2874.045	2946.7977	2961.216	2987.0953	3029.0634	3037.5172	3090.8139	3111.1157	3122.3815	3206.7397
CC1OCC(CC=O)=C1	C[C@H]1OCC(=C1)CC=O	
InChI=1S/C7H10O2/c1-6-4-7(2-3-8)5-9-6/h3-4,6H,2,5H2,1H3	InChI=1S/C7H10O2/c1-6-4-7(2-3-8)5-9-6/h3-4,6H,2,5H2,1H3/t6-/m1/s1
