23
gdb 86339	2.15633	1.39956	0.97172	1.6579	85.65	-0.2373	0.0862	0.3235	1315.5445	0.204874	-388.26945	-388.259693	-388.258748	-388.304687	36.493	
C	-0.8494623517	 1.0072457393	-1.0538480049	-0.401249
C	 0.0812407607	-0.1477930218	-0.7447858576	 0.150348
O	 1.3321538926	-0.060791802	-1.4659489072	-0.314031
C	 2.0991595215	-0.3676841933	-0.278536538	 0.150348
C	 3.2862052413	 0.5565849765	-0.0982830746	-0.401249
C	 0.8321200717	-0.2317794979	 0.6175480961	-0.101424
C	 0.7448118807	 0.9469877386	 1.5513433339	 0.040606
C	-0.286683874	 0.9598209917	 2.6546063226	-0.280702
C	 1.1739368546	 0.8006535881	 2.9920984089	-0.280703
H	-0.3834584953	 1.9705329469	-0.8318537884	 0.11697
H	-1.1111892436	 0.994740616	-2.1167863925	 0.123428
H	-1.7741446377	 0.9229984221	-0.4734740768	 0.116485
H	-0.4257145535	-1.0959350924	-0.9815881566	 0.064725
H	 2.4527471105	-1.409599032	-0.3165060992	 0.064725
H	 2.9780736852	 1.6042292791	-0.0551593682	 0.11697
H	 3.8285876263	 0.3124744265	 0.8210646666	 0.116485
H	 3.9744089393	 0.4405649374	-0.9417345456	 0.123428
H	 0.6031029165	-1.1427963501	 1.1790795947	 0.062261
H	 0.9536872392	 1.9132897714	 1.1030887911	 0.086708
H	-0.7724652003	 1.8990574282	 2.8946250704	 0.112232
H	-0.928060131	 0.0905548634	 2.7587275582	 0.110702
H	 1.5137117947	-0.1755305365	 3.3229243996	 0.110702
H	 1.6882319022	 1.6309095605	 3.4631963178	 0.112232
41.6563	68.8307	149.4522	183.8369	212.1962	213.4924	291.7964	307.8733	368.9899	403.0959	474.3124	549.9571	714.0288	771.9774	797.8069	842.8704	843.4014	875.3571	908.6345	920.2922	950.1348	1002.8546	1020.651	1050.944	1061.6218	1074.5734	1078.3361	1120.5233	1141.953	1143.7531	1171.4098	1199.007	1217.0674	1235.0115	1239.0072	1282.6758	1311.6811	1338.5805	1370.2089	1399.0778	1402.324	1421.1095	1440.4616	1471.6517	1477.5293	1482.6517	1494.8776	1498.2976	1506.8489	2972.8064	2977.898	3038.9196	3039.1885	3054.7371	3106.9143	3107.1551	3121.9803	3122.0888	3128.2998	3133.005	3153.9655	3206.1309	3221.4953
CC1OC(C)C1C1CC1	C[C@H]1O[C@@H](C)[C@H]1C1CC1	
InChI=1S/C8H14O/c1-5-8(6(2)9-5)7-3-4-7/h5-8H,3-4H2,1-2H3	InChI=1S/C8H14O/c1-5-8(6(2)9-5)7-3-4-7/h5-8H,3-4H2,1-2H3/t5-,6+,8+
