18
gdb 106439	2.71506	1.36722	1.08282	2.0173	79.43	-0.2458	0.0244	0.2703	1162.7771	0.146312	-401.822664	-401.814073	-401.813129	-401.85611	32.41	
C	 0.0165044509	 1.3715059639	 0.0159239258	-0.265863
O	-0.0553488816	-0.0414179953	-0.0733482007	-0.280891
C	-1.3328884545	-0.5439855174	-0.0397671854	 0.393644
C	-2.3966725293	-0.5315538514	 1.0902274129	-0.238145
N	-3.0624574901	-1.3784990488	-0.0043275407	-0.145594
C	-2.5415354166	-0.3168913998	-0.9885756415	-0.254665
C	-1.6641686596	-2.0503255755	-0.1537291391	-0.235073
C	-1.4066631216	-2.788138812	-1.370406695	 0.338695
C	-1.1690658692	-3.4260222776	-2.3614828083	-0.422287
H	 1.073583175	 1.6396145524	-0.0282567111	 0.135843
H	-0.5103825939	 1.8561967159	-0.8175843977	 0.117159
H	-0.4063184797	 1.7398083924	 0.9610684211	 0.114799
H	-2.1863464477	-1.0860233376	 2.0082869251	 0.106645
H	-2.9332813416	 0.398010435	 1.2891581115	 0.105307
H	-3.0863091027	 0.6268986587	-0.9178793173	 0.102584
H	-2.4669319792	-0.6725992415	-2.0163892233	 0.125767
H	-1.4189466567	-2.6527977352	 0.7258290586	 0.10426
H	-0.9624683321	-3.9862989261	-3.239787365	 0.197816
66.1695	119.0999	173.5955	178.651	219.6553	355.8281	373.5475	452.4678	520.9409	550.3636	612.4603	630.6593	655.0928	658.4862	775.4731	818.1448	886.1948	913.7257	974.6728	993.1902	1054.7132	1072.5111	1086.0251	1106.0108	1159.2311	1163.9195	1178.2753	1179.546	1187.1565	1230.7959	1246.5768	1303.3466	1391.988	1485.3226	1490.0168	1504.8288	1505.4135	1547.6705	2234.97	2995.1452	3049.0387	3061.2541	3067.709	3076.504	3129.9628	3134.4079	3150.9979	3501.8655
COC12CN(C1)C2C#C	CO[C@@]12CN(C1)[C@H]2C#C	
InChI=1S/C7H9NO/c1-3-6-7(9-2)4-8(6)5-7/h1,6H,4-5H2,2H3	InChI=1S/C7H9NO/c1-3-6-7(9-2)4-8(6)5-7/h1,6H,4-5H2,2H3/t6-/m0/s1
