21
gdb 64185	2.08662	1.53304	1.38275	2.963	78.18	-0.2478	-0.0268	0.221	1103.733	0.179164	-424.231814	-424.22183	-424.220886	-424.265958	37.828	
C	-0.1278968186	 1.4451135331	 0.1193315631	-0.459948
C	 0.0155335713	-0.0764561372	 0.0105472745	 0.280458
C	-1.3355871557	-0.712784979	-0.3074810253	-0.471351
C	 1.2232726368	-0.4830730014	-0.8867675999	-0.257106
C	 2.1233157085	-0.5900631695	 0.3692748466	-0.279669
C	 0.8467939278	-0.6390607568	 1.25494278	 0.268579
O	 0.8055420129	 0.0662003783	 2.4729935	-0.485813
C	 0.450781883	-2.0560856775	 1.6195173547	 0.139404
O	 0.6755468158	-3.027567115	 0.9424997896	-0.262238
H	 0.8353984568	 1.9475688823	 0.2656512694	 0.105889
H	-0.5580324088	 1.8450869413	-0.8049226145	 0.123777
H	-0.7905586849	 1.7245464593	 0.945226967	 0.125221
H	-1.7245732875	-0.3195877434	-1.2537963723	 0.113805
H	-1.26151069	-1.7986046398	-0.4054419888	 0.136495
H	-2.0757395485	-0.4880328493	 0.4697337503	 0.116381
H	 1.0712644432	-1.4591782579	-1.3507612041	 0.122445
H	 1.5196369468	 0.2373174999	-1.6533884486	 0.093654
H	 2.7844815272	-1.4551166033	 0.4384230547	 0.118975
H	 2.7003667233	 0.3186926108	 0.5622720349	 0.095603
H	 1.0661345077	 0.9771556155	 2.3088787724	 0.284409
H	-0.0848845971	-2.1251367704	 2.5913331463	 0.091029
80.1638	109.4367	203.6679	221.7078	245.7862	267.764	272.786	284.6761	311.7714	353.0082	381.1137	430.5989	477.2966	575.46	623.0462	689.5916	749.417	849.7604	891.1156	918.7446	951.1184	960.5019	971.8115	1005.4918	1028.7806	1085.775	1122.0944	1171.3048	1194.2434	1216.6856	1240.8527	1258.0914	1269.4775	1292.5336	1360.8607	1398.5959	1414.1413	1420.8617	1467.0881	1486.3761	1488.9468	1493.3587	1504.7165	1515.652	1825.849	2901.5599	3022.842	3027.2587	3061.4691	3066.4043	3084.4601	3088.8005	3100.5397	3118.0012	3120.0692	3133.4338	3836.964
CC1(C)CCC1(O)C=O	CC1(C)CC[C@]1(O)C=O	
InChI=1S/C7H12O2/c1-6(2)3-4-7(6,9)5-8/h5,9H,3-4H2,1-2H3	InChI=1S/C7H12O2/c1-6(2)3-4-7(6,9)5-8/h5,9H,3-4H2,1-2H3/t7-/m0/s1
