19
gdb 92768	3.48445	1.14301	0.96749	2.9099	77.94	-0.2409	0.0158	0.2567	1268.2193	0.160851	-419.206213	-419.197727	-419.196783	-419.240252	31.22	
C	-0.1498354617	 1.6264181788	-0.2591891655	-0.39809
C	 0.1097315959	 0.1745669752	 0.1072143249	 0.102766
C	 0.7444702904	-0.6853105574	-1.02235461	-0.201171
N	 2.0565528402	-1.0965473586	-0.5097300242	-0.326837
C	 2.1528944586	-0.6127080393	 0.661257387	 0.422062
O	 1.1097809174	 0.112671743	 1.1621175025	-0.28377
C	 3.3051522998	-0.7718126144	 1.5659293909	-0.08608
C	 3.7068011143	 0.3633306328	 2.4484361901	-0.232289
N	 3.0858092983	-0.8297097121	 3.0253472912	-0.318389
H	 0.758660272	 2.0906238967	-0.6561224175	 0.129041
H	-0.9283311412	 1.6842920388	-1.0270098701	 0.124521
H	-0.482404324	 2.199461366	 0.6107626445	 0.128474
H	-0.798396454	-0.28403013	 0.5112153409	 0.09321
H	 0.1440064088	-1.568972005	-1.2639382123	 0.116674
H	 0.8640882313	-0.1124022338	-1.949841518	 0.11261
H	 4.0595421042	-1.4495091908	 1.1834149631	 0.117836
H	 4.7594918617	 0.4950658903	 2.6804698492	 0.126505
H	 3.123644902	 1.2766227096	 2.384579002	 0.127029
H	 2.103764346	-0.6369636198	 3.2105947915	 0.245899
45.6027	80.7761	168.417	176.0353	236.8687	321.0133	368.111	439.0547	444.8799	647.7594	713.9323	731.5356	825.7673	841.8727	882.1681	919.822	935.5827	952.5428	974.1432	997.6364	1023.1435	1071.1158	1101.6135	1119.7201	1138.0778	1142.3638	1173.9131	1230.9325	1272.2281	1276.1811	1303.4524	1329.48	1352.2644	1382.4039	1409.5217	1415.1797	1485.6837	1494.7583	1500.2719	1504.5773	1737.7079	3030.1783	3038.2609	3049.0274	3068.9144	3111.4055	3119.1322	3119.4932	3186.0973	3211.4703	3503.2246
CC1CN=C(O1)C1CN1	C[C@H]1CN=C(O1)[C@H]1CN1	
InChI=1S/C6H10N2O/c1-4-2-8-6(9-4)5-3-7-5/h4-5,7H,2-3H2,1H3	InChI=1S/C6H10N2O/c1-4-2-8-6(9-4)5-3-7-5/h4-5,7H,2-3H2,1H3/t4-,5+/m0/s1
