20
gdb 95007	2.94554	1.65287	1.24035	2.1782	78.74	-0.2101	0.0726	0.2827	1052.1725	0.173016	-403.076736	-403.069432	-403.068488	-403.108144	29.879	
C	-0.0529392743	 1.5030007121	-0.0359452528	-0.330154
N	-0.0164059385	 0.0509010176	 0.0041630068	-0.080326
C	-1.3400145503	-0.5386319551	-0.1792924906	-0.13911
C	-1.2959028	-2.054819709	 0.039717037	-0.266992
C	-0.4076230598	-2.3885044596	 1.2352972454	-0.009233
C	-0.1044563977	-1.2763865954	 2.2881513651	-0.001835
O	 1.1640779884	-1.948787097	 2.6106562073	-0.309899
C	 1.0847708943	-1.9858703601	 1.1382207677	 0.023666
C	 0.6622056381	-0.4929320912	 1.151768368	 0.052632
H	 0.9598837196	 1.9049529508	 0.0586312245	 0.122452
H	-0.4563244344	 1.8313628685	-0.9997451735	 0.118709
H	-0.6784073218	 1.9508242834	 0.7591454288	 0.095116
H	-2.0598247069	-0.100551216	 0.540499714	 0.079354
H	-1.7080071157	-0.2932075288	-1.1816539948	 0.100607
H	-2.3143171511	-2.4247509916	 0.1964822173	 0.104623
H	-0.9063494952	-2.5633905702	-0.8507406844	 0.108776
H	-0.568115086	-3.378103714	 1.6685690889	 0.077426
H	-0.7054231802	-0.9252082947	 3.1283238446	 0.086226
H	 1.8966209322	-2.4707143074	 0.5937052631	 0.085461
H	 1.4385912493	 0.1771342375	 1.5239529376	 0.082502
143.5707	203.0232	258.7018	297.4153	329.6793	436.8025	449.0388	488.9381	558.7719	660.4047	746.6969	796.7459	827.8677	874.2711	876.7417	899.4667	945.9527	957.1182	1006.0868	1034.6232	1071.7581	1085.349	1094.8198	1136.6104	1141.3218	1154.1783	1181.8615	1185.7823	1199.0268	1227.5042	1256.89	1259.4153	1272.8375	1315.5401	1340.64	1362.2167	1402.8605	1417.2831	1468.0909	1486.6441	1488.9336	1505.4914	1519.2596	2901.1805	2930.947	3031.0867	3054.8193	3059.7168	3076.7783	3093.0406	3101.8554	3103.3159	3108.1955	3118.0216
CN1CCC2C3OC2C13	CN1CC[C@@H]2[C@H]3O[C@@H]2[C@@H]13	
InChI=1S/C7H11NO/c1-8-3-2-4-6-5(8)7(4)9-6/h4-7H,2-3H2,1H3	InChI=1S/C7H11NO/c1-8-3-2-4-6-5(8)7(4)9-6/h4-7H,2-3H2,1H3/t4-,5+,6-,7+
