18
gdb 37726	3.23114	2.08485	1.72048	1.7419	73.34	-0.2219	0.0863	0.3082	838.6535	0.152143	-401.883745	-401.877885	-401.876941	-401.913741	25.336	
C	-0.01206069	 1.5395620615	 0.0894263234	-0.165732
C	 1.53765734	 1.3762123701	 0.0451125333	-0.075204
C	 1.7647033586	 0.6170063059	 1.3649428593	-0.126195
C	 1.995481459	-0.865556957	 1.2306872202	 0.116578
O	 2.6158965719	-1.4430069571	 0.1255460939	-0.268513
C	 2.0860731607	-0.9770446337	-1.1073929334	-0.095316
C	 1.1872920718	 0.2240374275	-0.930652619	-0.012855
N	-0.0486759328	 0.0199339136	-0.0623273595	-0.147729
C	 0.5788112228	-0.3600806561	 1.233278925	-0.083056
H	-0.4678803807	 1.9135224805	 1.0094266108	 0.103062
H	-0.451068682	 2.0214053516	-0.789083531	 0.10268
H	 2.2319878385	 2.1793231027	-0.2083423643	 0.066485
H	 2.0159305919	 1.159507034	 2.2688940307	 0.086858
H	 2.3090684005	-1.3851947095	 2.1308953132	 0.105552
H	 2.927368693	-0.7227129966	-1.7648875821	 0.106537
H	 1.5127833272	-1.7843436998	-1.5880749369	 0.109104
H	 0.8623559116	 0.5883692222	-1.9082261155	 0.08482
H	-0.1136804118	-0.6027636999	 2.0304142118	 0.092926
149.5946	330.6737	439.4423	493.7869	567.5347	623.0851	690.7973	731.1783	755.3548	770.5353	830.2552	848.1397	857.1066	876.4687	917.555	943.6062	988.8909	994.9892	1036.3518	1056.1807	1073.9538	1077.4195	1099.9911	1107.2672	1133.2341	1163.9205	1200.2225	1209.6658	1230.6584	1241.9341	1268.8489	1278.2971	1318.8344	1330.0056	1377.7643	1406.3927	1448.6449	1505.3852	1511.1692	2989.3173	3037.4898	3053.3125	3080.5206	3099.4639	3121.0564	3160.2356	3173.0344	3183.547
C1C2C3C4OCC2N1C34	C1[C@H]2[C@@H]3[C@@H]4OC[C@H]2N1[C@H]34	
InChI=1S/C7H9NO/c1-3-4-2-9-7-5(3)6(7)8(1)4/h3-7H,1-2H2	InChI=1S/C7H9NO/c1-3-4-2-9-7-5(3)6(7)8(1)4/h3-7H,1-2H2/t3-,4-,5+,6-,7+/m1/s1
