20
gdb 7366	3.65979	1.05946	0.88578	2.8015	72.47	-0.2637	-0.0252	0.2386	1351.3241	0.174072	-386.171632	-386.161702	-386.160757	-386.206916	35.006	
C	 0.0545411434	 1.5294018443	 0.1318908336	-0.385115
C	-0.052592688	 0.0084402423	-0.0005086466	-0.161055
C	 0.7901221653	-0.5482601653	-1.1528319111	-0.18939
C	 0.6269647989	-2.0725834261	-1.3107497416	 0.034491
O	-0.718683181	-2.4137989022	-1.5109870422	-0.436792
C	 1.4703883823	-2.6190180468	-2.4658709647	 0.36599
C	 2.9682027721	-2.4211509982	-2.4354006071	-0.480496
O	 0.9123398753	-3.1958135914	-3.3766440579	-0.320525
H	 1.0887721314	 1.8442446905	 0.3126142587	 0.109562
H	-0.28828977	 2.0312666099	-0.7798363324	 0.115871
H	-0.5548936647	 1.8985412806	 0.9625413032	 0.114788
H	 0.263011104	-0.4680612739	 0.9373900582	 0.091882
H	-1.0947314683	-0.2847795831	-0.1601267681	 0.126159
H	 0.4912141649	-0.0691417914	-2.094617102	 0.102748
H	 1.8480974241	-0.3073115795	-0.9879230621	 0.090909
H	 1.0007944081	-2.554371252	-0.3883937424	 0.083659
H	-0.7336745389	-2.8819810289	-2.3625211012	 0.29123
H	 3.2071356647	-1.3918132656	-2.7266286554	 0.156631
H	 3.3726163503	-2.5746232178	-1.4304991174	 0.139995
H	 3.4426736862	-3.1024523354	-3.1428321915	 0.14946
62.0126	92.3215	104.2805	119.6367	139.3568	248.4518	261.5577	326.6009	335.0847	407.9684	464.9001	478.6317	587.6893	637.5608	753.4557	815.448	870.3338	894.827	973.3959	979.8813	1016.8216	1050.0018	1105.6369	1135.674	1158.9939	1211.9178	1257.867	1269.9477	1304.9728	1331.3992	1367.2788	1385.8512	1387.2156	1413.1395	1441.2403	1464.1934	1471.8153	1477.952	1494.1538	1500.3843	1510.3294	1792.3117	2937.9773	3013.7743	3022.4032	3028.3123	3042.4872	3057.722	3079.0328	3101.144	3103.0695	3106.4428	3152.1982	3661.612
CCCC(O)C(C)=O	CCC[C@@H](O)C(=O)C	
InChI=1S/C6H12O2/c1-3-4-6(8)5(2)7/h6,8H,3-4H2,1-2H3	InChI=1S/C6H12O2/c1-3-4-6(8)5(2)7/h6,8H,3-4H2,1-2H3/t6-/m1/s1
