19
gdb 39344	2.81981	1.79618	1.3232	1.0407	73.84	-0.2472	0.0836	0.3308	996.8814	0.161692	-423.025632	-423.018313	-423.017368	-423.057641	28.759	
C	-0.0037772894	 1.4604160069	-0.2301944399	-0.066146
C	 1.4159668528	 1.9747349533	 0.158905184	-0.386343
C	 2.0448193338	 0.6904471306	 0.6460862679	 0.460083
O	 3.4194345853	 0.4370556257	 0.8787394471	-0.325236
C	 2.4922114425	 0.3216391378	 1.9887294788	-0.025395
C	 2.0316353049	-1.0809674598	 2.327742448	-0.24473
C	 1.4673401453	-1.6537636646	 0.9958292488	-0.255526
C	 1.2324123964	-0.4535604908	 0.0669027045	 0.055641
O	-0.0862635392	 0.0787999982	 0.1482746458	-0.274329
H	-0.8073915571	 1.987977904	 0.2893592931	 0.112843
H	-0.1695113956	 1.5644323849	-1.3119845726	 0.098513
H	 1.9506124226	 2.3724547298	-0.7087921736	 0.118842
H	 1.3884299871	 2.7539716042	 0.9236486915	 0.115901
H	 2.6423551873	 1.0613188743	 2.771457922	 0.094042
H	 2.8307049008	-1.7026756129	 2.7427687691	 0.111518
H	 1.2499193892	-1.0047322507	 3.0919588104	 0.112438
H	 2.1965099048	-2.3203433843	 0.5292683547	 0.115191
H	 0.5465276543	-2.2234678305	 1.1396038181	 0.117955
H	 1.4896947744	-0.682377476	-0.9795360878	 0.064739
75.9303	146.5295	200.3713	298.4014	359.2772	424.0082	529.5777	584.6624	700.7593	703.2518	771.8399	802.1847	818.955	866.6153	903.243	934.0599	945.6316	956.3864	976.5909	1029.2514	1051.9563	1079.4755	1098.1441	1115.9636	1189.2687	1201.2357	1224.5065	1233.3195	1253.108	1270.9571	1299.0236	1319.181	1330.1361	1356.1181	1366.5859	1389.8266	1467.2494	1486.7564	1490.7833	1496.3488	1521.2145	2974.725	2999.2959	3045.4681	3061.0239	3073.3314	3086.904	3088.5935	3111.4802	3121.0119	3144.1437
C1CC23OC2CCC3O1	C1C[C@@]23O[C@@H]2CC[C@H]3O1	
InChI=1S/C7H10O2/c1-2-6-7(9-6)3-4-8-5(1)7/h5-6H,1-4H2	InChI=1S/C7H10O2/c1-2-6-7(9-6)3-4-8-5(1)7/h5-6H,1-4H2/t5-,6-,7+/m1/s1
