20
gdb 57195	2.33415	1.37237	1.09384	3.9776	71.33	-0.2574	0.0233	0.2807	1186.719	0.168082	-477.468915	-477.458555	-477.45761	-477.503527	39.295	
C	 0.2757636255	 1.5021762014	 0.2949222829	-0.414855
C	 0.1623568371	-0.0152077868	 0.1226043074	 0.316683
C	 0.8955743634	-0.7572300548	 1.2431960981	-0.429604
O	-1.231401863	-0.3876208154	 0.0859924909	-0.472659
C	 0.7113020117	-0.4137334727	-1.2733718498	 0.038422
O	 2.0218957883	 0.0575456536	-1.4228313874	-0.441786
C	 0.7249227369	-1.9344351434	-1.5480928303	 0.362583
N	-0.4505127611	-2.5878077916	-1.4343439702	-0.513233
O	 1.77234031	-2.4611447727	-1.8987204606	-0.389836
H	 1.318616474	 1.8182552983	 0.2309037181	 0.14821
H	-0.294981846	 2.0161936813	-0.4837105799	 0.121007
H	-0.1212164584	 1.8053230536	 1.2708944003	 0.097861
H	 0.5633308422	-0.4044314853	 2.2260020781	 0.103177
H	 0.7139698058	-1.8340839136	 1.1854377188	 0.122254
H	 1.9708773248	-0.5798942215	 1.1629553037	 0.14311
H	-1.6118636087	-0.1946283993	 0.9488346058	 0.283744
H	 0.0413552383	 0.046840887	-2.0181800119	 0.096031
H	 2.5224889186	-0.7285437125	-1.7118940298	 0.295427
H	-1.215369324	-2.12749527	-0.9611229319	 0.273745
H	-0.4502365654	-3.5880386454	-1.5536927521	 0.259722
76.0941	91.7858	202.4002	218.8977	239.092	253.1653	278.6507	298.1043	351.362	361.4891	402.3655	421.2996	448.1539	503.0836	531.8109	571.7141	599.4577	671.4547	703.5945	800.5733	875.538	928.6821	930.7391	994.2627	1016.7542	1114.1843	1136.0783	1166.6501	1186.3587	1210.9902	1286.9983	1338.6868	1355.0845	1385.9619	1393.5352	1412.4097	1467.6278	1478.8414	1486.4619	1499.4737	1511.8166	1615.4986	1777.9714	2970.7481	3031.0632	3037.8161	3101.6558	3105.8973	3131.4696	3141.4158	3550.14	3594.7672	3699.6679	3819.8334
CC(C)(O)C(O)C(N)=O	CC(C)(O)[C@@H](O)C(=O)N	
InChI=1S/C5H11NO3/c1-5(2,9)3(7)4(6)8/h3,7,9H,1-2H3,(H2,6,8)	InChI=1S/C5H11NO3/c1-5(2,9)3(7)4(6)8/h3,7,9H,1-2H3,(H2,6,8)/t3-/m0/s1
