13
gdb 131240	5.54763	1.31573	1.0635	6.9934	65.01	-0.2103	0.0258	0.2361	1017.274	0.091613	-448.938073	-448.931084	-448.930139	-448.969313	26.547	
O	 0.2813812738	 1.3217689734	 0.0088399521	-0.418646
C	 0.0509893196	-0.0037405261	 0.0092701631	 0.408278
C	-1.088292456	-0.7474068397	 0.0741220974	-0.308438
N	-0.6575404217	-2.0862139594	 0.0317010603	-0.019756
C	-1.0163582398	-3.4123680326	 0.0377362023	-0.022908
N	 0.0604885963	-4.1627491604	-0.0402374791	-0.224964
N	 1.1826140871	-3.351760035	-0.1018191709	-0.361845
C	 0.7069519847	-2.1316318108	-0.0563032752	 0.518547
N	 1.1569657492	-0.8307035936	-0.0689311924	-0.462655
H	-0.5568366685	 1.7920585351	 0.0645454758	 0.31875
H	-2.1190110421	-0.4527535654	 0.1453611704	 0.144588
H	-2.0325481579	-3.7635704957	 0.0988188144	 0.139017
H	 2.1118414353	-0.5270875197	-0.1351925981	 0.290031
124.9016	217.9796	265.1923	331.8417	332.5653	345.2277	529.8341	581.8533	590.8022	650.0703	664.2972	743.9566	761.6145	803.4128	851.025	990.8638	1025.0968	1031.0433	1162.4121	1189.6373	1225.9888	1231.3452	1297.7583	1402.7821	1424.8636	1470.121	1517.5956	1649.1552	1671.9419	3285.1521	3299.2656	3703.6271	3840.4088
OC1=CN2C=NN=C2N1	Oc1cn2cnnc2[nH]1	
InChI=1S/C4H4N4O/c9-3-1-8-2-5-7-4(8)6-3/h1-2,9H,(H,6,7)	InChI=1S/C4H4N4O/c9-3-1-8-2-5-7-4(8)6-3/h1-2,9H,(H,6,7)
