19
gdb 118392	1.75093	1.14479	0.75584	4.3642	78.09	-0.267	0.0031	0.2701	1524.0301	0.158181	-419.246865	-419.236719	-419.235775	-419.283626	34.822	
C	 0.2524333198	 1.5240500503	 0.0698103	-0.381065
C	 0.2497726992	-0.0047611553	-0.0119677166	-0.177571
C	 0.5999648796	-0.6492902593	 1.3355641018	-0.176778
N	 0.5990265617	-2.1074178947	 1.3167355401	-0.047808
C	 1.6697891715	-2.8259534452	 0.6465567953	-0.306341
C	 2.9875879757	-2.5351600346	 1.2275702038	 0.269859
N	 4.0222300769	-2.2817103522	 1.6745730591	-0.305993
C	-0.3882031633	-2.8426747471	 1.9158101615	 0.160913
O	-0.4547297777	-4.0524219508	 1.9197064225	-0.332792
H	 1.235163147	 1.904089959	 0.368667101	 0.127603
H	 0.0036310691	 1.9690301177	-0.8973872035	 0.125113
H	-0.479706415	 1.8846134881	 0.8006449101	 0.121673
H	-0.7341630325	-0.3672312093	-0.3327093677	 0.109672
H	 0.9665015012	-0.3297793079	-0.7757975188	 0.10757
H	 1.5828009655	-0.3008306077	 1.6774688444	 0.137051
H	-0.1253323083	-0.3348009619	 2.0937348365	 0.123598
H	 1.4437195477	-3.8914318347	 0.7526638108	 0.197792
H	 1.7034387436	-2.5906714917	-0.4238165707	 0.158644
H	-1.1379038518	-2.1935191123	 2.40523005	 0.088861
36.7377	62.4104	73.3042	120.4931	178.8244	238.7902	278.0467	305.8822	335.5295	367.9874	378.7825	413.6692	596.6474	703.6411	748.8573	860.4673	883.2673	908.9759	948.985	998.6411	1035.1105	1043.7076	1118.4715	1137.9685	1206.0376	1253.0127	1298.2459	1322.2636	1335.5356	1369.9696	1407.2486	1417.2456	1429.5095	1444.0841	1469.4294	1485.4389	1493.8434	1501.7078	1510.8061	1793.9669	2362.5518	2962.5612	3025.0284	3032.6225	3037.0414	3040.8501	3058.9675	3082.9355	3098.6726	3103.8968	3114.6997
CCCN(CC#N)C=O	CCCN(CC#N)C=O	
InChI=1S/C6H10N2O/c1-2-4-8(6-9)5-3-7/h6H,2,4-5H2,1H3	InChI=1S/C6H10N2O/c1-2-4-8(6-9)5-3-7/h6H,2,4-5H2,1H3
