18
gdb 55929	3.92106	1.02383	0.98553	2.2161	72.07	-0.2465	0.0102	0.2566	1269.1577	0.14677	-439.07326	-439.064551	-439.063607	-439.108075	31.198	
C	-0.1593113487	 1.4157461196	 0.1262448778	-0.479863
C	-0.151489113	-0.061120004	-0.1826255458	 0.426965
O	 0.4369698577	-0.5883563224	-1.0925112783	-0.351793
O	-0.9071064656	-0.7444320145	 0.7084671216	-0.253039
C	-0.9503815742	-2.1650862371	 0.5111486991	 0.128416
C	-1.8780800901	-2.911136034	 1.4881066092	-0.209965
N	-2.6461955938	-3.5423768404	 0.3532393288	-0.130716
C	-3.2420944849	-2.4127150151	-0.3749600174	-0.236043
C	-1.8141305124	-2.7003274905	-0.6161782742	-0.043976
H	 0.4607045568	 1.9414431154	-0.5986966502	 0.149946
H	-1.182790045	 1.7998130703	 0.0901825751	 0.150374
H	 0.2170865755	 1.5900643396	 1.1381584345	 0.150806
H	 0.0690996654	-2.5509055416	 0.4810016541	 0.110431
H	-1.3732397012	-3.6743806694	 2.082066449	 0.119858
H	-2.4889597484	-2.2804534664	 2.1410083215	 0.11498
H	-3.9406055799	-2.7254588984	-1.1445280199	 0.126652
H	-3.5342242857	-1.5205293665	 0.1747727161	 0.118825
H	-1.4406938027	-3.0969766043	-1.5524769711	 0.108143
46.5095	59.1762	91.4802	149.4348	209.6189	338.4393	357.031	453.9356	545.1632	607.3002	657.4011	735.9124	752.3635	789.7943	847.7397	923.9994	962.3432	984.5473	1004.2947	1027.0557	1054.2674	1064.7402	1082.6855	1105.836	1116.3426	1142.56	1197.5753	1224.7829	1259.1634	1275.372	1293.1212	1369.9368	1385.4192	1402.9893	1469.0349	1475.712	1486.8195	1506.1291	1822.0602	3057.3856	3059.2626	3107.0011	3107.9001	3121.9756	3128.8145	3170.1015	3189.7509	3204.3601
CC(=O)OC1CN2CC12	CC(=O)O[C@H]1CN2C[C@@H]12	
InChI=1S/C6H9NO2/c1-4(8)9-6-3-7-2-5(6)7/h5-6H,2-3H2,1H3	InChI=1S/C6H9NO2/c1-4(8)9-6-3-7-2-5(6)7/h5-6H,2-3H2,1H3/t5-,6-,7?/m0/s1
