17
gdb 98155	2.33147	1.14628	1.09114	3.6329	71.21	-0.2632	-0.0385	0.2247	1227.7744	0.130518	-458.934347	-458.923891	-458.922947	-458.969929	37.46	
C	-0.326380273	 1.652779491	-0.0818543563	-0.410636
C	 0.0837003116	 0.1748628719	-0.0155066994	 0.092391
O	 0.938798583	-0.0833035962	 1.0984538824	-0.447567
C	-1.0911561868	-0.7045572837	 0.0213476638	 0.330702
C	-2.0478151437	-1.4302277041	 0.0802021418	-0.492946
C	 0.8960631703	-0.2147054798	-1.2777510645	 0.33977
O	 0.6535685371	 0.270543011	-2.3581033351	-0.327681
C	 1.9942803322	-1.250993225	-1.1296517802	-0.127517
O	 2.5536042693	-1.5703785077	-2.3702291535	-0.427379
H	 0.5707276523	 2.2758635131	-0.0445870032	 0.132468
H	-0.8627925168	 1.8535582417	-1.0104564593	 0.153346
H	-0.9691440386	 1.9003925855	 0.7667993499	 0.119371
H	 0.3867505898	-0.1635633426	 1.883336975	 0.293118
H	-2.8947107055	-2.0706651086	 0.1236915514	 0.213547
H	 2.7460940766	-0.8513893451	-0.4329764868	 0.136985
H	 1.5672326516	-2.1374467765	-0.6360846527	 0.128444
H	 2.1039862204	-1.0010576449	-3.0134618533	 0.293584
40.7252	99.3159	145.6182	172.1147	206.2076	222.6448	230.6937	294.2072	342.1948	354.1017	398.7938	407.9997	471.2782	550.033	577.9254	633.9953	645.7125	676.5447	790.7432	849.5446	934.9335	1003.7212	1042.7783	1112.3403	1137.952	1163.6357	1180.2156	1240.1211	1306.4795	1359.274	1397.2767	1445.6251	1475.5465	1482.3847	1486.6303	1806.2	2227.5602	3000.2007	3019.2345	3053.4096	3131.2244	3152.1993	3497.4064	3703.0277	3820.8424
CC(O)(C#C)C(=O)CO	C[C@@](O)(C#C)C(=O)CO	
InChI=1S/C6H8O3/c1-3-6(2,9)5(8)4-7/h1,7,9H,4H2,2H3	InChI=1S/C6H8O3/c1-3-6(2,9)5(8)4-7/h1,7,9H,4H2,2H3/t6-/m1/s1
