21
gdb 66930	2.18091	1.92052	1.48554	1.0177	81.74	-0.237	0.0774	0.3144	1020.9223	0.18138	-387.046738	-387.038015	-387.037071	-387.079108	35.024	
C	 0.0624066524	 1.4762776958	 0.0785918074	-0.519382
C	 0.0145457443	-0.0197953692	-0.0078576559	 0.351863
C	-0.9540319368	-0.8823493039	 0.8231155543	-0.129298
C	-1.0881258353	-2.2523418492	 0.1579371318	-0.254749
C	 0.407092342	-2.0863269213	-0.2162777549	-0.128567
C	 0.5428398408	-1.0439835933	 0.9661031837	-0.120371
C	 0.4636063984	-0.8711897478	-1.1978254668	 0.370103
C	-0.3373708391	-0.8792416041	-2.4935711105	-0.475486
O	 1.8174112289	-0.5080984375	-1.465097233	-0.488447
H	 1.0399419949	 1.8458908005	-0.2462503103	 0.136726
H	-0.7036837097	 1.9428888847	-0.5521478355	 0.114746
H	-0.1045923172	 1.8174349356	 1.1059204024	 0.114363
H	-1.6370697682	-0.4091228616	 1.5183135362	 0.080389
H	-1.2246652767	-3.0352999802	 0.9101760746	 0.097859
H	-1.8138720571	-2.4005716646	-0.6492274224	 0.084805
H	 1.050480476	-2.9465996561	-0.3983725144	 0.057536
H	 1.2071620402	-0.9580388205	 1.8130129151	 0.086842
H	-1.4030624951	-1.0472480505	-2.32244809	 0.122224
H	-0.2196515965	 0.0806063193	-3.0060717088	 0.124634
H	 0.0211307573	-1.6665202287	-3.169794295	 0.102194
H	 2.1611612966	-1.1278481374	-2.1173281381	 0.272017
183.5668	186.4865	201.1929	221.4919	238.209	269.561	305.9991	386.7177	414.8382	468.8395	549.8965	619.9231	642.9027	748.4914	802.5141	827.711	836.7184	881.164	908.0144	936.291	945.418	970.102	994.7895	1027.1059	1061.174	1083.9446	1092.4606	1111.4039	1145.8513	1158.3176	1174.7008	1199.0706	1216.3573	1246.2433	1260.9793	1292.8862	1373.4743	1403.1856	1408.256	1439.9287	1484.734	1487.3526	1491.9127	1501.5288	1512.7723	3021.672	3024.5316	3034.66	3084.0225	3084.6851	3091.7803	3103.5049	3118.7586	3124.6118	3184.5734	3226.65	3802.4726
CC12C3CC(C13)C2(C)O	C[C@]12[C@H]3C[C@H]([C@@H]13)[C@]2(C)O	
InChI=1S/C8H12O/c1-7-4-3-5(6(4)7)8(7,2)9/h4-6,9H,3H2,1-2H3	InChI=1S/C8H12O/c1-7-4-3-5(6(4)7)8(7,2)9/h4-6,9H,3H2,1-2H3/t4-,5+,6-,7-,8-/m0/s1
