19
gdb 48539	2.72812	1.49629	1.47345	2.8804	79.98	-0.2425	-0.0241	0.2184	1013.1775	0.160477	-385.862207	-385.854752	-385.853808	-385.894404	29.276	
O	-0.131220915	-0.0221366961	 0.0435752604	-0.257204
C	-0.0184201189	 1.1817231993	 0.0356143243	-0.008232
C	 1.2611951743	 1.9129487029	 0.0042562748	 0.325252
C	 2.7081859384	 1.3208288714	-0.0244655068	-0.098592
C	 2.9824809763	 2.1171904773	-1.3255171468	-0.225198
C	 1.6999229523	 2.9605013267	-1.1085564437	-0.097297
C	 1.8487658767	 4.0483261365	-0.0191471371	-0.224655
C	 1.7478403656	 2.9713380383	 1.0864144684	-0.097335
C	 3.0388091339	 2.1298831178	 1.2554984096	-0.225197
H	-0.9216701317	 1.8377258479	 0.0523670744	 0.06286
H	 2.918364171	 0.2525376874	-0.0237997716	 0.086394
H	 3.9309880482	 2.6596995548	-1.3982276953	 0.093661
H	 2.8764872789	 1.4741108081	-2.203810394	 0.109671
H	 1.0946511307	 3.1965697797	-1.9843504334	 0.076918
H	 2.7513272304	 4.6682321798	-0.0419079821	 0.094877
H	 0.9757985077	 4.7078903679	-0.0033778269	 0.103838
H	 1.18134634	 3.2161910246	 1.9854312384	 0.076912
H	 2.9713838839	 1.4954774376	 2.1438509794	 0.109668
H	 3.9894699674	 2.6728701379	 1.2814105979	 0.093659
62.4801	147.8419	222.8323	307.2741	337.0043	371.4358	472.0946	597.5906	613.3296	699.4575	814.1725	824.2156	827.5746	851.6538	929.268	939.6509	942.6737	946.8673	1023.159	1029.2556	1053.6582	1066.1202	1073.8013	1118.5405	1126.4726	1132.4892	1172.9342	1203.8267	1206.4644	1238.7675	1282.4858	1283.813	1287.8678	1324.6133	1332.5268	1335.2129	1426.5517	1475.8297	1477.7228	1494.1036	1798.4318	2841.1075	3038.4234	3040.0179	3043.3204	3087.9206	3093.2964	3094.7182	3101.476	3104.9192	3123.8522
O=CC12C3CC1CC2C3	O=C[C@@]12[C@H]3C[C@@H]1C[C@@H]2C3	
InChI=1S/C8H10O/c9-4-8-5-1-6(8)3-7(8)2-5/h4-7H,1-3H2	InChI=1S/C8H10O/c9-4-8-5-1-6(8)3-7(8)2-5/h4-7H,1-3H2/t5-,6+,7-,8+
