19
gdb 20031	4.58752	1.1422	1.01524	1.6221	73.38	-0.2323	0.0825	0.3148	1190.1418	0.164917	-365.002969	-364.994467	-364.993522	-365.036492	31.145	
O	-0.0463035479	 1.3101880345	-0.5740544849	-0.423419
C	-0.0099282131	 0.0649779428	 0.1169496626	-0.098079
C	-1.3971754965	-0.5187077084	 0.0915601234	-0.013415
C	-1.872423586	-1.2752289038	-1.1278740154	-0.303542
C	-1.6162600258	-2.0108975415	 0.1595336453	 0.039865
N	-0.4705661705	-2.8787335849	 0.2197908266	-0.063309
C	-0.283641117	-3.6260981479	 1.4601930199	-0.223067
C	-0.7448818493	-4.3124600585	 0.2214582708	-0.219821
H	 0.8352162198	 1.692870978	-0.5355479736	 0.282419
H	 0.691181422	-0.6391591482	-0.3497732994	 0.101645
H	 0.3132440191	 0.2075935293	 1.1613994237	 0.079177
H	-2.1389268339	 0.0908377964	 0.6000809145	 0.087828
H	-2.8956675344	-1.1468415328	-1.4620175197	 0.109164
H	-1.1482452489	-1.4249618808	-1.9210811939	 0.122015
H	-2.4938926534	-2.3448381905	 0.7215505283	 0.068731
H	 0.7424469043	-3.7298514304	 1.8014961429	 0.115778
H	-1.0160992414	-3.4855468433	 2.2534439392	 0.110653
H	-1.7858048191	-4.6296045207	 0.1870228198	 0.110932
H	-0.0618954179	-4.9259452691	-0.3591909402	 0.116443
61.2997	92.3358	131.5949	202.8903	259.0869	294.2612	318.4526	382.6202	483.324	601.1519	724.0612	806.6601	825.8116	849.6667	897.9027	914.7104	954.148	1002.7889	1046.2557	1054.2261	1065.5115	1070.1005	1111.2196	1118.4764	1119.9006	1135.6691	1170.0833	1175.4512	1208.0993	1226.77	1258.7679	1274.9228	1325.6592	1376.7401	1415.2306	1467.1787	1488.8387	1491.5371	1519.0831	1526.3979	2964.3565	3033.7154	3041.9967	3095.0331	3099.4668	3137.3848	3148.5412	3177.0504	3191.7603	3226.1846	3825.6767
OCC1CC1N1CC1	OC[C@H]1C[C@H]1N1CC1	
InChI=1S/C6H11NO/c8-4-5-3-6(5)7-1-2-7/h5-6,8H,1-4H2	InChI=1S/C6H11NO/c8-4-5-3-6(5)7-1-2-7/h5-6,8H,1-4H2/t5-,6-/m1/s1
