13
gdb 50060	2.87298	1.31325	1.17257	5.7785	66.	-0.2839	-0.0798	0.2041	1052.6208	0.087383	-452.743994	-452.735591	-452.734647	-452.777862	28.63	
O	 0.3930897457	 0.0821662604	 1.0554704403	-0.24131
C	 0.4557895208	 0.7956368393	 0.0882349728	 0.155529
C	 1.3866854054	 1.9761253263	 0.0063992527	-0.111492
C	 1.5897659431	 2.7409565979	 1.305945663	-0.238302
N	 2.6252913821	 1.9204961056	 0.74932519	-0.087783
C	 3.2053217639	 0.7775307831	 1.2726238763	 0.344892
O	 3.4013585318	-0.2417990378	 0.6644377113	-0.310459
C	 3.6903727905	 0.9779667955	 2.6506610362	 0.23979
N	 4.0651009327	 1.1082888216	 3.7358061986	-0.315327
H	-0.1878647193	 0.6407818357	-0.8008296296	 0.111807
H	 1.4239315471	 2.5070617202	-0.9405904689	 0.130211
H	 1.7565236794	 3.8128536321	 1.2653299878	 0.151732
H	 1.0513135668	 2.3597772401	 2.1695884195	 0.170712
56.3509	111.4415	131.385	155.1108	240.6927	281.4006	319.1404	368.4192	524.208	548.6922	688.6	742.3676	766.8238	844.0257	895.6383	973.1749	1023.6679	1052.3638	1102.4639	1127.2622	1148.5659	1166.1038	1343.7607	1412.9494	1432.1222	1495.6987	1791.4789	1826.4781	2350.6984	2936.3312	3118.3361	3160.6495	3220.3232
O=CC1CN1C(=O)C#N	O=C[C@H]1CN1C(=O)C#N	
InChI=1S/C5H4N2O2/c6-1-5(9)7-2-4(7)3-8/h3-4H,2H2	InChI=1S/C5H4N2O2/c6-1-5(9)7-2-4(7)3-8/h3-4H,2H2/t4-,7?/m1/s1
