21
gdb 116466	2.0937	1.63189	1.07699	2.4732	75.24	-0.2429	0.0754	0.3183	1197.9921	0.182295	-461.353382	-461.344191	-461.343247	-461.387425	34.039	
C	-0.0232568705	 1.4383540564	-0.1160590695	-0.236025
O	-0.0105301176	 0.0520161888	 0.1295197162	-0.237453
C	-1.2714610269	-0.5787462335	 0.0358649274	 0.118127
C	-1.7119011747	-0.8062530822	-1.4196798555	-0.116869
O	-0.8879352994	-1.7631556143	-2.0615374588	-0.229894
C	-0.8757776194	-2.9738205529	-1.3529465992	 0.023756
O	-0.381832743	-2.8393764247	-0.050138445	-0.247548
C	-1.1759595174	-1.9496469408	 0.7319224684	 0.109377
C	-0.5719887348	-1.8914804633	 2.1242011176	-0.406811
H	 0.9889219158	 1.8052947062	 0.0702064601	 0.13176
H	-0.2936330687	 1.6850727185	-1.1530459245	 0.109036
H	-0.7209379555	 1.9634224676	 0.555972566	 0.102091
H	-2.0395147259	 0.0258310518	 0.549606102	 0.059272
H	-2.7658098634	-1.1361004607	-1.4233558278	 0.085486
H	-1.6461177731	 0.1107531163	-2.0102712425	 0.111947
H	-1.900581811	-3.3967050079	-1.3236328469	 0.069192
H	-0.2033101307	-3.6494367234	-1.8850255457	 0.118239
H	-2.2051544388	-2.3490526139	 0.787303314	 0.060632
H	 0.4334205404	-1.4708500525	 2.0778298887	 0.146098
H	-1.1847221139	-1.2645278325	 2.779522144	 0.108743
H	-0.5215886813	-2.896947423	 2.5496551413	 0.120845
67.8491	118.3069	175.9616	199.1946	216.0464	242.225	301.8835	337.9993	373.77	422.2337	467.7384	581.2025	644.5355	749.5479	832.9793	863.7009	909.8501	955.7722	988.751	1037.071	1063.8963	1082.2604	1107.412	1133.0353	1164.5496	1181.9207	1190.2173	1217.4773	1226.77	1279.1562	1305.4664	1331.8124	1364.3789	1379.2558	1388.1399	1400.4986	1410.2728	1448.6244	1478.8492	1482.0949	1483.0738	1498.0104	1501.0251	1507.8484	1509.9267	2898.4918	2935.6788	2947.3484	2964.6936	2975.3069	3024.6531	3050.8154	3098.9032	3114.0276	3114.9583	3120.0569	3150.6121
COC1COCOC1C	CO[C@H]1COCO[C@H]1C	
InChI=1S/C6H12O3/c1-5-6(7-2)3-8-4-9-5/h5-6H,3-4H2,1-2H3	InChI=1S/C6H12O3/c1-5-6(7-2)3-8-4-9-5/h5-6H,3-4H2,1-2H3/t5-,6-/m0/s1
