12
gdb 132676	3.19467	1.35952	0.95367	2.3566	60.1	-0.2366	-0.0351	0.2015	1072.3373	0.077257	-521.939914	-521.933096	-521.932152	-521.971237	26.183	
O	 0.0705823574	 1.3778131829	-0.0742049949	-0.437375
C	 0.0540533834	 0.0210890444	-0.0610165839	 0.231263
C	 0.0235992839	-0.7122087796	-1.2421160916	-0.146634
C	 0.0075059014	-2.1029620092	-1.1824335785	-0.263411
C	 0.0230753758	-2.6902574697	 0.0751420355	 0.333725
F	 0.0084536281	-4.0154604614	 0.1774101877	-0.069807
N	 0.0518870218	-2.0199432369	 1.2108006321	-0.358912
C	 0.0664285217	-0.7150524331	 1.1252548708	 0.229008
F	 0.0958249169	-0.0177566545	 2.2700008884	-0.084659
H	 0.0909530854	 1.6846894625	 0.8406055607	 0.308264
H	 0.0129021839	-0.1871004923	-2.1900740679	 0.133633
H	-0.0162371696	-2.7160174433	-2.0736636084	 0.124905
145.2799	251.4236	299.0093	356.7523	386.2345	411.5468	484.5938	488.8271	542.435	601.3317	669.3742	741.7791	756.5714	817.6703	849.4047	960.2241	1005.5576	1107.9247	1181.2324	1270.9419	1290.6081	1337.2099	1424.8745	1475.2726	1515.6864	1647.2085	1661.5941	3205.8983	3225.5039	3799.8095
OC1=CC=C(F)N=C1F	Oc1ccc(F)nc1F	
InChI=1S/C5H3F2NO/c6-4-2-1-3(9)5(7)8-4/h1-2,9H	InChI=1S/C5H3F2NO/c6-4-2-1-3(9)5(7)8-4/h1-2,9H
