14
gdb 131742	2.00508	1.71138	0.95693	3.8931	65.65	-0.2552	-0.0619	0.1933	1140.993	0.102102	-470.006312	-469.99826	-469.997315	-470.039768	28.148	
O	 0.2215805806	 1.1395059401	-0.6558202911	-0.402041
C	 0.0012006621	 0.0224023711	 0.1921400832	-0.182531
C	-1.3951916893	-0.5192073293	 0.0898524438	 0.222529
N	-2.093395783	-0.8556105304	 1.1742112302	-0.260907
N	-3.2452662055	-1.2924193082	 0.6683732794	-0.064073
N	-3.3756643892	-1.2658932057	-0.6381642626	-0.231047
C	-2.1984662248	-0.7712102374	-1.0528910814	 0.14244
C	-1.8808444466	-0.5566024883	-2.4791185818	 0.069175
O	-2.6128727792	-0.8504007502	-3.3929942251	-0.25525
H	-0.3625170104	 1.8501435737	-0.3699106719	 0.291421
H	 0.7241465263	-0.7334437811	-0.1328101778	 0.137305
H	 0.2130010149	 0.2463410745	 1.2458365329	 0.125741
H	-3.9902928467	-1.6176794778	 1.265860282	 0.303357
H	-0.8927061191	-0.0841889511	-2.6441146398	 0.103881
62.223	122.199	150.403	202.9669	269.0311	299.089	365.1806	420.3751	532.7101	590.9453	673.4909	730.7803	761.6789	841.5543	974.819	1006.819	1047.946	1069.1688	1153.0547	1198.6786	1201.3895	1269.2131	1342.3432	1387.3248	1415.0515	1422.9292	1448.9004	1496.0868	1502.0097	1544.9147	1805.5647	2949.3845	3024.5226	3076.1094	3649.0221	3809.6259
OCC1=NNN=C1C=O	OCc1n[nH]nc1C=O	
InChI=1S/C4H5N3O2/c8-1-3-4(2-9)6-7-5-3/h1,9H,2H2,(H,5,6,7)	InChI=1S/C4H5N3O2/c8-1-3-4(2-9)6-7-5-3/h1,9H,2H2,(H,5,6,7)
