15
gdb 127898	2.51467	1.62736	1.00012	2.642	76.41	-0.2517	-0.0866	0.1651	1133.4813	0.109515	-450.035341	-450.026669	-450.025725	-450.069368	30.807	
C	 0.0236017461	 1.4325959979	 0.1215671239	-0.341594
N	-0.0138767928	-0.0156315222	 0.1683314944	-0.269553
C	-1.0967886962	-0.6540563831	-0.0257697675	 0.324212
N	-2.338732808	-0.003178147	-0.300148523	-0.173009
N	-3.3821607095	-0.6226001905	-0.4869128283	 0.065164
O	-3.3765584635	-2.0544156841	-0.4320212024	-0.241403
N	-2.2253247086	-2.7723791555	-0.1733271098	-0.124779
C	-1.1359537748	-2.1115745138	 0.0211345902	 0.335633
C	 0.1072184168	-2.8925846224	 0.3006977983	-0.460048
H	 0.7556848353	 1.730564462	-0.6377473363	 0.142021
H	-0.9363805189	 1.911679701	-0.0896610015	 0.145791
H	 0.4096372844	 1.7950336625	 1.0812047592	 0.14202
H	-0.1156133883	-3.960428553	 0.2960529729	 0.146985
H	 0.870514081	-2.6646777635	-0.4494745003	 0.154278
H	 0.5247350571	-2.5999822882	 1.2688816103	 0.154281
41.0196	111.2935	174.4681	194.0943	215.6518	292.6327	322.1447	459.2417	485.3097	507.7562	540.869	556.3446	605.5136	733.2754	788.4613	884.9504	920.0535	1031.8522	1055.5442	1081.7031	1108.5841	1123.1452	1185.0993	1373.0467	1415.5769	1427.1925	1461.9609	1464.8239	1483.9322	1488.0053	1613.2176	1669.1008	1719.4311	3025.9373	3050.6786	3081.5573	3111.003	3113.7104	3153.4109
CN=C1N=NON=C1C	C[N]C1=N[N]ON=C1C	
InChI=1S/C4H6N4O/c1-3-4(5-2)6-8-9-7-3/h1-2H3	InChI=1S/C4H6N4O/c1-3-4(5-2)6-8-9-7-3/h1-2H3
