21
gdb 61923	3.24925	0.80837	0.68271	1.2829	86.06	-0.2512	0.0364	0.2876	1676.6663	0.179232	-387.030107	-387.019774	-387.01883	-387.066401	37.447	
C	-0.2264520987	 1.3774216093	 0.0492989208	-0.408725
C	-0.0112129874	-0.1381191481	-0.0192216531	 0.143076
O	 0.6864494589	-0.5272838855	-1.202705456	-0.260234
C	-0.0750543295	-0.4375959015	-2.3899364279	-0.219675
C	 0.6541880039	-1.0578396413	-3.4897953189	 0.288457
C	 1.2340067728	-1.5581470631	-4.4147138216	-0.417555
C	 0.8033763709	-0.6424114144	 1.1470255738	 0.029846
C	 0.1158486033	-1.0188397306	 2.4357116924	-0.273335
C	 0.7200368547	-2.0863692881	 1.5577201225	-0.268034
H	 0.7361037617	 1.8961142233	-0.001603629	 0.125559
H	-0.8563234467	 1.7418599626	-0.7673328103	 0.114886
H	-0.7149482966	 1.6444273859	 0.9911046758	 0.121842
H	-0.9940522455	-0.6426709225	-0.0051696298	 0.056859
H	-1.0482320131	-0.9435843365	-2.2623723219	 0.113204
H	-0.2977517209	 0.608965781	-2.6525960946	 0.119388
H	 1.751934068	-2.0038628449	-5.2274732111	 0.198371
H	 1.7767833669	-0.1672770405	 1.2346552319	 0.087631
H	 0.6072721571	-0.7739783966	 3.3706538665	 0.112167
H	-0.9666728507	-0.9478499433	 2.4748502394	 0.109215
H	 0.0461304554	-2.7292175384	 1.0013076104	 0.113411
H	 1.6270693055	-2.5781539667	 1.8901954306	 0.113646
40.1571	73.5605	96.1777	115.2515	197.3115	218.3143	259.1079	306.9989	334.9713	403.3698	417.6096	487.1479	577.6577	606.0691	671.7288	765.3062	822.9814	831.2656	892.2949	939.6096	956.8177	971.7731	1004.2623	1033.3075	1059.1251	1075.4574	1080.5689	1106.9349	1133.918	1140.2394	1195.8616	1226.179	1231.3298	1257.4833	1318.4398	1357.5575	1402.5505	1413.0941	1439.9111	1470.9639	1490.5549	1495.8616	1504.8957	1510.0647	2247.2598	2940.0985	2951.1954	2982.8383	3040.8875	3112.8525	3116.1374	3128.4336	3136.7242	3145.366	3207.478	3224.0262	3506.5136
CC(OCC#C)C1CC1	C[C@@H](OCC#C)C1CC1	
InChI=1S/C8H12O/c1-3-6-9-7(2)8-4-5-8/h1,7-8H,4-6H2,2H3	InChI=1S/C8H12O/c1-3-6-9-7(2)8-4-5-8/h1,7-8H,4-6H2,2H3/t7-/m1/s1
