16
gdb 88883	3.6885	0.99812	0.85957	5.9428	75.07	-0.2452	-0.0358	0.2094	1312.2167	0.1235	-434.049025	-434.039958	-434.039014	-434.083288	33.218	
N	 0.0856640718	 0.9213035735	-0.9630738326	-0.553778
C	 0.1532732851	-0.0897257518	-0.0298714318	 0.262577
N	 1.1586137856	-0.5990652527	 0.569688448	-0.286499
C	 2.4939439001	-0.11375192	 0.3913883044	 0.00995
C	 3.5663430238	-1.0661264157	-0.0874983204	-0.324309
C	 3.2177284455	 0.1513995553	-0.9094626354	 0.050031
O	 2.494668806	-0.0020173701	-2.1010751249	-0.420765
C	-1.150925906	-0.6091781169	 0.3609555216	 0.276417
N	-2.2021292103	-0.99953234	 0.640966821	-0.32277
H	 0.8895976969	 0.9945385718	-1.5757152503	 0.28587
H	-0.8019293578	 1.0244056624	-1.4310125347	 0.265712
H	 2.7832934949	 0.5429234083	 1.2105170974	 0.116188
H	 4.5205050548	-1.1121441155	 0.4252421715	 0.117849
H	 3.1972517182	-2.0119539206	-0.4703931077	 0.129739
H	 3.9238386288	 0.9817392665	-0.9200154464	 0.094569
H	 3.0762784425	-0.3616240245	-2.7785614299	 0.29922
42.4481	112.3979	152.7915	214.5321	258.964	271.7904	311.7906	382.4313	437.0479	458.3533	492.8685	586.2376	638.8303	664.9073	723.5546	770.501	794.2053	831.598	894.9359	1011.0234	1029.5125	1068.6987	1105.3232	1127.1815	1161.1904	1188.0713	1247.0108	1286.458	1349.9486	1375.4604	1415.0011	1480.5386	1662.5218	1728.8158	2357.2005	3097.1288	3117.5358	3134.0355	3227.5034	3527.9693	3659.9913	3811.8564
NC(=NC1CC1O)C#N	NC(=N[C@H]1C[C@H]1O)C#N	
InChI=1S/C5H7N3O/c6-2-5(7)8-3-1-4(3)9/h3-4,9H,1H2,(H2,7,8)	InChI=1S/C5H7N3O/c6-2-5(7)8-3-1-4(3)9/h3-4,9H,1H2,(H2,7,8)/t3-,4+/m0/s1
