21
gdb 106226	2.46418	1.36944	1.16675	1.5308	83.42	-0.2285	0.0169	0.2455	1178.5029	0.18261	-387.085207	-387.076141	-387.075197	-387.118938	34.669	
C	-0.1796479141	 1.4920495164	 0.1105452171	-0.42261
C	 0.0309757837	-0.0035263619	 0.1684623729	-0.0298
C	 1.3373696926	-0.6923066321	-0.152372686	-0.123472
C	 2.6415673959	 0.1079687175	-0.1181230663	-0.284298
C	 2.7565016688	 0.5465969994	 1.3264556841	-0.074885
C	 1.7522485209	 0.0767894213	 2.0700893105	-0.15138
C	 0.7824281633	-0.7367576813	 1.2733540236	 0.288051
C	 0.1672812735	-1.9733725808	 1.8853433986	-0.168807
O	-0.8762376605	-1.6897856507	 2.812268884	-0.417003
H	 0.6566493944	 2.0438656381	 0.5457626615	 0.121443
H	-0.3010048116	 1.8254270844	-0.9264559011	 0.113282
H	-1.085373871	 1.7747921376	 0.6577815324	 0.118648
H	-0.8354101103	-0.5651893455	-0.1766497839	 0.085751
H	 1.2979933389	-1.5760205085	-0.7804480158	 0.080582
H	 3.4982871752	-0.5077633952	-0.4220447654	 0.107969
H	 2.6260095294	 0.9661346325	-0.8038699206	 0.111051
H	 3.5531647865	 1.1917032549	 1.6807171863	 0.093219
H	 1.6265075078	 0.2694772011	 3.1312534506	 0.081173
H	-0.2992331032	-2.5787928696	 1.1010624969	 0.104233
H	 0.9497890502	-2.5917286989	 2.3536374229	 0.085461
H	-0.4926110805	-1.2031636788	 3.5482882577	 0.281393
59.4299	140.9885	184.5235	208.4259	228.3057	237.9464	315.2811	354.6672	380.7678	511.001	529.0923	667.3842	715.9678	738.1442	760.062	836.6642	877.9425	911.591	941.8881	950.5487	960.3921	1006.883	1015.2203	1032.7563	1063.5604	1094.6754	1101.8444	1123.8966	1146.6926	1180.1666	1200.3993	1242.491	1287.1679	1314.7264	1352.0471	1375.2725	1385.1077	1411.139	1416.4618	1443.5243	1477.6343	1497.595	1500.054	1501.6303	1669.2062	2975.0967	3013.7866	3031.8533	3037.4508	3069.4816	3087.885	3111.6067	3127.547	3161.412	3167.9186	3199.5526	3821.5989
CC1C2CC=CC12CO	C[C@H]1[C@H]2CC=C[C@@]12CO	
InChI=1S/C8H12O/c1-6-7-3-2-4-8(6,7)5-9/h2,4,6-7,9H,3,5H2,1H3	InChI=1S/C8H12O/c1-6-7-3-2-4-8(6,7)5-9/h2,4,6-7,9H,3,5H2,1H3/t6-,7+,8+/m0/s1
