16
gdb 133577	2.85468	1.13894	1.07551	2.5329	58.09	-0.2838	0.0704	0.3543	1167.3181	0.118042	-569.384296	-569.375126	-569.374181	-569.418893	32.968	
C	-0.1489531627	 1.5549487542	-0.1037859821	-0.467855
C	-0.0750455601	 0.0517316837	 0.0499512335	 0.395486
C	-1.210532052	-0.7147364147	-0.5967969595	-0.450578
O	 1.2254361064	-0.5472431576	-0.1475527586	-0.274076
C	 0.6539704635	-0.6103879696	 1.1475704781	-0.180305
C	 1.3853725838	 0.1004751737	 2.2682802295	 0.283216
F	 2.1046545709	 1.1469982306	 1.8577278413	-0.06493
F	 0.5095703546	 0.5321516463	 3.1916626647	-0.077691
F	 2.2238570629	-0.7489705056	 2.8815473846	-0.075509
H	 0.7230400694	 2.0514237922	 0.3164605921	 0.147988
H	-0.2172765704	 1.809680967	-1.1665200826	 0.12806
H	-1.0476487528	 1.9402492673	 0.3890674052	 0.129275
H	-1.2501135688	-0.4927812095	-1.6682407142	 0.132941
H	-1.0782743278	-1.7922227247	-0.4745857328	 0.13118
H	-2.1711419434	-0.4259179831	-0.1580959065	 0.129097
H	 0.3234367165	-1.5973895002	 1.4740918475	 0.113701
37.9883	129.0606	152.0294	187.752	208.6929	288.9162	310.7931	369.1876	384.6365	433.6109	486.347	536.8582	593.6428	698.8042	721.876	809.7943	889.0806	947.8758	961.0697	1013.8718	1083.4883	1117.2581	1152.6146	1181.6526	1194.2345	1265.7109	1306.5061	1350.8368	1410.0521	1421.9412	1470.1699	1475.0957	1485.0605	1505.043	1523.188	3039.2811	3047.0383	3101.3473	3107.0688	3107.8738	3128.3207	3178.9176
CC1(C)OC1C(F)(F)F	CC1(C)O[C@H]1C(F)(F)F	
InChI=1S/C5H7F3O/c1-4(2)3(9-4)5(6,7)8/h3H,1-2H3	InChI=1S/C5H7F3O/c1-4(2)3(9-4)5(6,7)8/h3H,1-2H3/t3-/m1/s1
