19
gdb 35845	3.22796	1.20068	0.91391	1.5118	83.86	-0.2467	0.0152	0.2618	1272.0078	0.159056	-385.850891	-385.842266	-385.841322	-385.884527	32.881	
C	-0.1648341053	-1.1227993171	-0.3989045963	-0.410404
C	-0.0531386872	 0.0509918368	-0.169602688	 0.31483
C	 0.0447602233	 1.4817313794	 0.1257783413	-0.092545
C	-0.7808711449	 1.8512101732	 1.3715278547	-0.190214
C	-1.0720344017	 3.3484686475	 1.5208322991	-0.27295
C	 0.0848158026	 4.3151767479	 1.4839787593	-0.050388
C	 1.2540340013	 4.224728534	 0.849667095	-0.058091
C	 1.8011268696	 3.1105595498	-0.0065824013	-0.127517
O	 1.4189198791	 1.7924308382	 0.3231854366	-0.24312
H	-0.252679788	-2.1599250656	-0.6095920376	 0.195008
H	-0.3373739257	 2.0410992472	-0.74623684	 0.091608
H	-1.7332933316	 1.3115768189	 1.3383685018	 0.107241
H	-0.2254246523	 1.4780194528	 2.238122987	 0.120826
H	-1.7837289309	 3.6500721345	 0.7351951525	 0.114813
H	-1.6166811963	 3.4947491868	 2.461301309	 0.106549
H	-0.1066371507	 5.2460587299	 2.0155134188	 0.088912
H	 1.9197798188	 5.0851644495	 0.9047765393	 0.087662
H	 1.560071659	 3.3206639811	-1.0661219491	 0.100812
H	 2.893975051	 3.1104681353	 0.065826968	 0.116967
45.7145	133.5566	157.6587	200.7783	305.8346	341.1726	371.6021	421.6254	497.914	516.6163	558.3591	623.8157	665.2963	689.1148	754.428	802.4148	882.8656	900.8419	907.2191	997.328	1018.0743	1034.2143	1056.8024	1071.4714	1086.152	1163.7841	1205.5634	1246.7625	1277.6063	1300.1499	1313.9917	1374.0335	1380.8207	1388.8076	1410.7916	1429.0442	1469.6358	1476.6904	1477.6388	1737.3399	2242.282	2924.8527	2948.3359	2982.222	3040.4877	3052.536	3065.055	3093.8235	3122.6787	3147.1089	3504.4524
C#CC1CCC=CCO1	C#C[C@H]1CCC=CCO1	
InChI=1S/C8H10O/c1-2-8-6-4-3-5-7-9-8/h1,3,5,8H,4,6-7H2	InChI=1S/C8H10O/c1-2-8-6-4-3-5-7-9-8/h1,3,5,8H,4,6-7H2/t8-/m0/s1
