22
gdb 100787	3.218	0.9089	0.75566	1.4588	78.65	-0.2465	0.0582	0.3047	1556.7297	0.19207	-441.450977	-441.440155	-441.43921	-441.487601	38.926	
C	 0.3290870826	 1.4730347893	 0.3072330961	-0.386366
C	-0.0307404304	 0.0189231523	-0.0047650005	-0.189734
C	 0.6406881829	-0.5066007418	-1.2757614025	 0.115475
O	 2.0622502932	-0.4727489735	-1.1886296812	-0.427372
C	 0.14518309	-1.9164192635	-1.6591359971	 0.054541
O	-1.2661902237	-1.915073131	-1.8800344281	-0.42794
C	 0.895842318	-2.4753259157	-2.8498002317	 0.012138
C	 1.8792180091	-3.5719116079	-2.6845931924	-0.236424
N	 0.5791960928	-3.8323221019	-3.3212986887	-0.325001
H	 1.413377123	 1.5992363555	 0.3716360953	 0.125318
H	-0.0364628928	 2.1454797474	-0.4768431449	 0.113914
H	-0.112602723	 1.7956992048	 1.254679301	 0.110767
H	 0.2666780128	-0.6288868269	 0.8343289788	 0.080241
H	-1.112987471	-0.1017909153	-0.1143279126	 0.11783
H	 0.4022164364	 0.1665007425	-2.1125027005	 0.07762
H	 2.3228090833	-1.012280643	-0.433479763	 0.278429
H	 0.2849624047	-2.5881068528	-0.7990409412	 0.070331
H	-1.4280709677	-1.5244512855	-2.7463250265	 0.285855
H	 1.0588288566	-1.7611606316	-3.656935653	 0.089817
H	 2.7381845898	-3.6357696082	-3.3461445916	 0.121534
H	 2.0560544033	-3.9483321245	-1.6796440599	 0.103368
H	-0.0588811599	-4.2744454283	-2.6625723757	 0.235658
41.2926	60.8355	105.8462	133.1153	212.3472	229.3073	249.165	257.6853	289.5557	301.3672	338.6482	426.8197	451.0151	550.4841	572.9446	781.6777	816.6863	859.2347	895.8852	925.38	956.4146	988.0555	1023.3462	1057.6616	1065.4772	1076.9835	1112.0485	1126.956	1137.0207	1156.0696	1200.6897	1217.0979	1247.2343	1263.8334	1282.4506	1308.6661	1325.3615	1366.5981	1392.2797	1403.5769	1410.3611	1418.7838	1435.0323	1486.4724	1496.9606	1509.5587	1513.2582	2992.5085	2997.0671	3016.1009	3037.1075	3081.5845	3102.2238	3104.4323	3108.2576	3119.1788	3190.0703	3489.0461	3794.7714	3799.1551
CCC(O)C(O)C1CN1	CC[C@@H](O)[C@@H](O)[C@H]1CN1	
InChI=1S/C6H13NO2/c1-2-5(8)6(9)4-3-7-4/h4-9H,2-3H2,1H3	InChI=1S/C6H13NO2/c1-2-5(8)6(9)4-3-7-4/h4-9H,2-3H2,1H3/t4-,5-,6+/m1/s1
