19
gdb 110986	2.45182	1.2793	1.22069	1.1145	71.15	-0.2535	0.0571	0.3106	1137.531	0.158705	-460.097504	-460.088656	-460.087712	-460.130786	34.263	
O	 0.3022199986	 0.5240828695	 0.9547746691	-0.42614
C	-0.1810389922	 0.4282227523	-0.3795756293	-0.126828
C	-1.5073926416	-0.3176327848	-0.3907762197	-0.052072
C	-2.0875746804	-1.0905516823	-1.6231383323	-0.146454
C	-0.985842677	-2.1734640762	-1.411066093	-0.276272
C	-1.5151852542	-1.8389323153	-0.0002376658	 0.341538
O	-1.0185334869	-2.3911290612	 1.1728115395	-0.479227
C	-2.9468166686	-1.9326080382	-0.6211564981	 0.112915
O	-4.0680391679	-1.4174100128	 0.0374191875	-0.451426
H	 0.3342427834	-0.3751310965	 1.3037457718	 0.289429
H	-0.3164595341	 1.4575855898	-0.7290185665	 0.105905
H	 0.5649810171	-0.03581206	-1.0393256409	 0.092524
H	-2.230004015	 0.2934621758	 0.1638616659	 0.046706
H	-2.4150318373	-0.670056312	-2.5709549277	 0.087506
H	-1.2110012612	-3.1753396676	-1.7854136729	 0.100424
H	 0.0374075326	-1.8876289116	-1.6440429538	 0.110023
H	-1.6860150599	-2.2786290967	 1.860159928	 0.293256
H	-3.232366679	-2.9258403497	-0.9767940988	 0.088855
H	-3.9412551863	-0.4783031524	 0.2062436571	 0.289339
86.0195	129.7393	194.3322	229.5828	261.5496	296.0726	363.7471	385.8447	450.4506	457.2723	479.5026	553.8863	655.3943	674.7108	754.5061	795.0855	850.8201	914.6361	937.0206	956.8884	1000.469	1047.9801	1071.5519	1095.8743	1098.8362	1110.5434	1148.0387	1159.7708	1189.8938	1210.9502	1223.2738	1238.865	1279.028	1297.8776	1346.745	1376.4906	1429.5	1446.702	1456.6407	1506.9608	1540.3871	3005.2111	3023.7112	3066.1181	3074.5306	3088.7583	3148.5079	3161.3189	3780.4975	3793.7471	3817.5151
OCC1C2CC1(O)C2O	OC[C@H]1[C@H]2C[C@]1(O)[C@H]2O	
InChI=1S/C6H10O3/c7-2-4-3-1-6(4,9)5(3)8/h3-5,7-9H,1-2H2	InChI=1S/C6H10O3/c7-2-4-3-1-6(4,9)5(3)8/h3-5,7-9H,1-2H2/t3-,4+,5+,6-/m1/s1
