20
gdb 78484	2.63962	1.68997	1.55461	1.0017	77.18	-0.2261	0.0642	0.2903	981.9752	0.173302	-403.094355	-403.086825	-403.085881	-403.126007	30.299	
C	-0.0442161196	 1.5477769974	 0.1307730605	-0.44132
C	 0.0477002469	 0.0453790612	-0.0548504233	 0.033013
C	 0.4575098999	-0.7150835066	-1.2501223555	-0.089461
C	 1.721960138	-0.2003928751	-1.9488112044	 0.089097
O	 1.7758802102	 1.1650170689	-2.3288953117	-0.267989
C	 2.925602875	 1.7363712541	-1.6960510741	-0.077588
C	 3.0846284332	 1.0275891808	-0.3278397199	-0.269927
C	 2.4543936172	-0.345462986	-0.6096682544	 0.024396
N	 1.2093947664	-0.861891045	 0.0931222177	-0.185554
H	 0.5709838622	 2.1142016028	-0.5616627635	 0.150659
H	-1.0846626281	 1.8457551281	-0.0393824187	 0.119401
H	 0.2071533045	 1.8252071006	 1.1605718375	 0.119699
H	-0.7779887203	-0.452439452	 0.4552333199	 0.100959
H	-0.1351001953	-1.5346145099	-1.6452395804	 0.090881
H	 2.0610638177	-0.8495065484	-2.7641716997	 0.078402
H	 3.8196823317	 1.5745742905	-2.3174526375	 0.097062
H	 2.7584836203	 2.8143847415	-1.6198339129	 0.112367
H	 4.13533108	 0.9456969052	-0.0388866452	 0.10497
H	 2.564984453	 1.5620169285	 0.4677767572	 0.122543
H	 3.1853705572	-1.1541119768	-0.5728138715	 0.088388
141.5796	175.3209	220.874	271.7674	272.9333	348.5885	488.7757	611.6534	628.1156	646.3438	695.6148	733.9796	821.3375	847.1314	869.6001	884.0307	936.5716	938.3868	970.6345	1000.0286	1031.1604	1050.2896	1078.0536	1107.4531	1117.9982	1136.0849	1167.1025	1205.2648	1232.3225	1254.5057	1266.2371	1287.6527	1307.224	1338.5116	1349.0142	1370.5623	1389.1412	1409.8443	1451.9905	1486.7681	1500.2036	1514.0481	1523.6331	2986.3788	3036.2525	3038.6465	3076.9405	3086.1157	3087.9136	3096.8039	3098.8358	3133.3637	3155.8667	3195.349
CC1C2C3OCCC3N12	C[C@H]1[C@H]2[C@H]3OCC[C@H]3N12	
InChI=1S/C7H11NO/c1-4-6-7-5(8(4)6)2-3-9-7/h4-7H,2-3H2,1H3	InChI=1S/C7H11NO/c1-4-6-7-5(8(4)6)2-3-9-7/h4-7H,2-3H2,1H3/t4-,5+,6-,7-,8?/m0/s1
