13
gdb 133167	2.00679	1.00051	0.72481	3.6522	63.59	-0.2536	-0.0401	0.2135	1466.6264	0.081637	-494.092871	-494.081458	-494.080514	-494.135047	34.084	
C	-0.1281195626	 1.8584235528	-0.1101329446	-0.478854
C	 0.2501751947	 0.4034498597	 0.0658749616	-0.127051
C	 0.3809804277	-0.5021094465	-1.0742082983	 0.372558
F	 0.1745685333	 0.1678405448	-2.2321809933	-0.084655
O	 0.6235985299	-1.6696637125	-1.0863003702	-0.327135
N	-0.935702826	-4.1910316213	 0.6070645096	 0.012543
N	-0.8988729666	-3.352647547	 1.3157645272	-0.013009
C	 0.4668589832	-0.1301424083	 1.261226872	 0.417094
N	 0.7858286526	-0.5717528433	 2.3416374289	-0.49275
H	 0.6067285044	 2.375152443	-0.7344244915	 0.150019
H	-1.1027991896	 1.9545642673	-0.5978577548	 0.146127
H	-0.174964144	 2.3673594947	 0.8547567504	 0.133827
H	 0.0887199532	-1.0400161436	 2.918162443	 0.291288
7.4058	35.3219	40.9631	43.3765	79.6904	87.917	141.9653	150.0911	249.7333	253.5316	469.7632	502.7193	520.2126	656.2873	678.7154	755.1313	796.5366	930.0017	992.8923	1065.0986	1094.9961	1261.2861	1391.2103	1417.8894	1479.8729	1502.7588	1856.0676	2146.3528	2434.6778	3044.6856	3106.51	3132.3054	3508.3771
CC1=C(F)ON=NC1=N	C[C](C(=O)F)[C][NH].N#N	
InChI=1S/C4H4FN3O/c1-2-3(5)9-8-7-4(2)6/h6H,1H3	InChI=1S/C4H4FNO.N2/c1-3(2-6)4(5)7;1-2/h6H,1H3;
