15
gdb 42761	2.73191	1.57834	1.27842	2.3691	72.46	-0.2324	-0.0289	0.2036	996.6169	0.111774	-420.573362	-420.565814	-420.564869	-420.60531	29.149	
O	-0.0074574902	-0.0090537027	 0.0416843359	-0.295079
C	-0.0404936598	 1.1764740395	-0.0181389798	 0.416179
C	-1.0716593455	 2.3260382233	 0.0422389388	-0.037778
C	-0.055967239	 2.9911918501	 1.008769708	-0.288124
C	 1.0107214206	 2.3498036862	 0.036713948	 0.048713
C	 0.6075966713	 3.0532769139	-1.2807173341	-0.11586
O	-0.8397040393	 3.0032250326	-1.1987077963	-0.276706
C	 2.3965762331	 2.1810800233	 0.3453570653	 0.066448
C	 3.5613553878	 2.023380666	 0.5989694179	-0.330074
H	-2.134065377	 2.209553136	 0.2341651412	 0.111214
H	-0.0794709269	 4.0817763968	 1.0358138133	 0.127747
H	-0.0328268157	 2.5572150729	 2.0092760832	 0.135576
H	 0.9448693804	 4.0940691967	-1.3256327268	 0.120552
H	 0.9591378464	 2.5168031838	-2.1678728855	 0.128075
H	 4.5883866837	 1.8801055517	 0.8275004311	 0.189117
123.0288	142.4916	172.2767	287.2644	366.3214	449.8469	491.692	494.4759	561.4832	623.8021	649.6748	670.1984	705.9446	762.7497	830.377	880.7428	912.4538	954.066	995.2912	1019.1535	1055.7268	1080.8338	1134.3663	1173.0869	1191.7935	1209.5111	1256.2905	1288.0643	1371.437	1474.3928	1529.0644	1920.8462	2240.0499	3036.9082	3082.2354	3086.097	3156.8034	3179.2996	3502.7874
O=C1C2CC1(CO2)C#C	O=C1[C@H]2C[C@@]1(CO2)C#C	
InChI=1S/C7H6O2/c1-2-7-3-5(6(7)8)9-4-7/h1,5H,3-4H2	InChI=1S/C7H6O2/c1-2-7-3-5(6(7)8)9-4-7/h1,5H,3-4H2/t5-,7-/m1/s1
