18
gdb 68678	2.31126	1.80515	1.51003	2.8003	71.65	-0.241	-0.0187	0.2223	974.1053	0.148323	-439.074577	-439.066656	-439.065711	-439.106707	30.532	
C	 0.0388301315	 1.5739299819	 0.018036453	-0.476185
C	-0.0126066882	 0.0627487915	 0.0164420757	 0.146002
C	 0.4108571068	-0.5936189948	-1.3134801141	-0.108421
O	 0.0185124497	-1.9606269819	-1.3798106692	-0.261953
C	 0.0643674153	-2.6821230764	-0.1532424284	-0.084361
C	-0.3098595018	-1.7744549056	 1.0260350857	-0.146607
N	 0.6697497004	-0.6518965995	 1.1513117785	-0.348649
C	-1.2743587026	-0.7002761317	 0.4826158665	 0.447347
O	-2.4466248482	-0.4915877425	 0.499151272	-0.313174
H	 1.0170620774	 1.9401092769	-0.3136078481	 0.119311
H	-0.7231735095	 1.9813294955	-0.6535029204	 0.135949
H	-0.1443902729	 1.9536162158	 1.0258411793	 0.139069
H	-0.0660622893	-0.1076292207	-2.1705290046	 0.123749
H	 1.50402791	-0.4848141457	-1.4225273195	 0.094083
H	-0.6414063365	-3.5110732366	-0.2663114907	 0.127232
H	 1.0676580414	-3.1054723119	 0.0233592599	 0.09667
H	-0.5427561961	-2.3210825262	 1.9426073472	 0.098253
H	 1.6237563727	-0.9336907081	 0.9263013574	 0.211687
146.5109	159.2568	199.2513	216.3795	255.8116	318.2169	435.1728	486.6554	496.3222	542.8549	681.6442	707.4167	765.4087	849.4926	856.5309	892.3966	915.638	981.83	1002.9536	1012.8585	1047.3238	1065.0501	1120.3346	1146.8062	1170.345	1216.158	1241.7652	1260.8733	1284.1093	1305.9071	1334.0093	1378.304	1406.2797	1411.9379	1481.3955	1493.5181	1497.5989	1504.5711	1927.0489	2953.926	2966.1417	3035.9158	3076.4324	3078.4422	3093.4277	3103.0116	3129.2793	3453.6686
CC12COCC(N1)C2=O	C[C@@]12COC[C@@H](N1)C2=O	
InChI=1S/C6H9NO2/c1-6-3-9-2-4(7-6)5(6)8/h4,7H,2-3H2,1H3	InChI=1S/C6H9NO2/c1-6-3-9-2-4(7-6)5(6)8/h4,7H,2-3H2,1H3/t4-,6+/m1/s1
