19
gdb 67779	2.72093	2.01402	1.55017	1.1461	78.38	-0.2183	0.0126	0.2309	919.2423	0.161446	-385.87157	-385.864591	-385.863647	-385.9023	29.725	
O	-0.0665013807	 1.4425071143	 0.0586130171	-0.502272
C	-0.0007546297	 0.0502641565	 0.0257331865	 0.394215
C	 0.8563481607	-0.7088588785	 1.039516038	-0.187835
C	 0.612711226	-1.9865540659	 0.7433971828	-0.095925
C	-0.3702861254	-1.8988423579	-0.4189172559	-0.089119
C	-1.3511753923	-0.7441997592	 0.0201947585	-0.032023
C	-2.0846898366	-0.3046182638	-1.2443010891	-0.236765
C	-0.8908862716	-0.3048484493	-2.2519222307	-0.232591
C	 0.2291824356	-0.7555743235	-1.3192137168	-0.070094
H	 0.8263074202	 1.792856333	-0.0280257517	 0.280114
H	 1.4787038856	-0.262143599	 1.8024982444	 0.098116
H	 0.9928486458	-2.8913137548	 1.1960588538	 0.102055
H	-0.7562146153	-2.8144591463	-0.8666283598	 0.060948
H	-1.9159224722	-0.8415334799	 0.9491127572	 0.060813
H	-2.8771301314	-1.0043201606	-1.526793023	 0.092967
H	-2.5334295261	 0.6856734777	-1.1310865163	 0.11096
H	-1.0409909703	-0.9929557784	-3.089291899	 0.092832
H	-0.6994377906	 0.6898973814	-2.6645374654	 0.100833
H	 1.2394955581	-0.8635082859	-1.7204256107	 0.052769
221.7489	233.3755	262.763	313.5217	396.0253	416.1408	526.8748	612.6236	650.8711	663.2661	716.647	727.8493	811.113	825.0158	894.6627	906.4756	924.5775	933.063	945.7784	966.9589	996.2101	1019.9514	1032.6491	1043.8215	1071.4773	1107.6779	1130.2676	1187.9534	1215.2689	1229.9127	1247.2732	1254.3068	1260.2845	1278.9958	1310.2655	1323.5728	1334.7516	1374.7934	1478.2303	1502.0323	1634.6339	3048.5802	3057.5453	3087.0917	3092.2211	3103.8686	3106.3877	3118.329	3215.8154	3243.5925	3809.3127
OC12C=CC3C1CCC23	O[C@@]12C=C[C@H]3[C@@H]1CC[C@@H]23	
InChI=1S/C8H10O/c9-8-4-3-5-6(8)1-2-7(5)8/h3-7,9H,1-2H2	InChI=1S/C8H10O/c9-8-4-3-5-6(8)1-2-7(5)8/h3-7,9H,1-2H2/t5-,6-,7+,8-
