18
gdb 104775	2.90705	1.00244	0.86185	1.1949	70.04	-0.2586	-0.0389	0.2197	1346.0303	0.146369	-476.190974	-476.181529	-476.180585	-476.225737	34.093	
O	 0.1463310873	 1.4000227755	 0.0365417786	-0.417465
C	 0.0611260275	 0.0106610066	 0.3602717593	-0.132794
C	-1.3428900446	-0.5069849486	 0.1014934221	 0.260704
C	-2.4265191419	 0.1557853287	 0.9425449607	-0.130476
O	-2.6558639266	 1.4957231467	 0.5513315135	-0.423948
N	-1.6301741823	-0.7587265146	-1.3098597537	-0.367285
C	-1.6043232617	-1.9084142786	-0.3838443518	-0.17652
C	-0.5230360481	-2.9132585247	-0.6053253671	 0.161936
O	-0.5601068813	-4.0330942601	-0.1620323102	-0.25221
H	 0.0016450502	 1.4672358408	-0.9155032653	 0.30126
H	 0.8040885084	-0.5617691488	-0.2059064225	 0.106708
H	 0.3087162488	-0.0664872169	 1.4234092154	 0.126036
H	-3.376652992	-0.3742975205	 0.8117804253	 0.105641
H	-2.1544325879	 0.0820552514	 2.0081836445	 0.098015
H	-1.7900989349	 1.9280236546	 0.5496840617	 0.289829
H	-2.5891892523	-0.500013993	-1.5313149018	 0.251206
H	-2.5424116847	-2.352454703	-0.0578497427	 0.110168
H	 0.3228531162	-2.5537680255	-1.2300404957	 0.089196
74.7245	95.2331	107.4172	141.5836	230.5553	266.4555	327.1754	347.3434	382.0803	423.3825	460.5543	514.7531	583.5817	629.2923	783.2848	888.7079	916.1002	935.1824	969.3577	1012.9359	1032.4455	1048.3448	1064.7594	1087.7086	1103.5274	1187.6478	1216.9041	1220.5852	1288.8469	1350.0566	1366.7558	1385.9095	1399.6545	1423.0343	1457.4098	1466.7772	1491.604	1507.6	1822.7184	2901.1218	2972.8777	3041.603	3060.848	3096.2526	3141.3771	3499.036	3734.8963	3788.6226
OCC1(CO)NC1C=O	OCC1(CO)N[C@H]1C=O	
InChI=1S/C5H9NO3/c7-1-4-5(2-8,3-9)6-4/h1,4,6,8-9H,2-3H2	InChI=1S/C5H9NO3/c7-1-4-5(2-8,3-9)6-4/h1,4,6,8-9H,2-3H2/t4-/m0/s1
