15
gdb 48295	2.6131	0.92302	0.713	1.2606	76.25	-0.2546	-0.0503	0.2043	1508.3861	0.106752	-420.533951	-420.523904	-420.52296	-420.570596	34.273	
O	-0.7006660927	 0.9302274955	 0.7496654749	-0.229887
C	 0.1804057729	 0.9631650923	-0.0643263926	 0.142317
C	 1.4000191463	 1.9062386384	 0.0180031376	-0.112349
O	 2.5911390164	 1.1339345564	-0.0439054975	-0.255646
C	 2.8789306984	 0.4694323331	 1.1866543737	-0.223981
C	 4.1158881247	-0.2818095176	 1.0479819916	 0.29036
C	 5.1339783793	-0.9118498296	 0.9610887722	-0.41027
C	 1.3600511688	 2.8190889012	-1.1148697159	 0.275149
C	 1.2555580139	 3.5476296425	-2.0642238232	-0.388229
H	 0.2167069501	 0.2901256652	-0.947480513	 0.106411
H	 1.3304210091	 2.461361607	 0.9658949631	 0.117152
H	 2.9743412038	 1.2090066172	 1.9978683392	 0.132985
H	 2.0599762952	-0.210041795	 1.4697839779	 0.13848
H	 6.0356840075	-1.4670347183	 0.8785325307	 0.206795
H	 1.1842926464	 4.204689472	-2.8961517989	 0.210713
38.3888	51.2328	88.9799	103.0233	177.9339	202.7495	299.2053	332.7259	356.1946	447.8189	452.5413	491.3704	616.1028	626.3317	642.0361	683.5833	685.6236	932.4279	977.3476	1017.7784	1024.0245	1042.8761	1066.5322	1107.3252	1250.9574	1265.7771	1334.2538	1397.2834	1423.7249	1500.2123	1837.9753	2240.8298	2250.8009	2913.4842	2974.3751	2996.4105	3002.1885	3501.1685	3505.238
O=CC(OCC#C)C#C	O=C[C@@H](OCC#C)C#C	
InChI=1S/C7H6O2/c1-3-5-9-7(4-2)6-8/h1-2,6-7H,5H2	InChI=1S/C7H6O2/c1-3-5-9-7(4-2)6-8/h1-2,6-7H,5H2/t7-/m0/s1
