19
gdb 103678	2.74198	1.15304	0.99295	2.0023	71.64	-0.2498	-0.0376	0.2122	1252.0671	0.156442	-460.153829	-460.144282	-460.143338	-460.188946	34.562	
C	-0.4711885989	 1.6545735553	-0.2930533024	-0.441795
C	-0.0080322013	 0.2198925898	-0.1256469938	 0.399946
C	-1.1066683141	-0.6980975523	 0.4118490805	-0.094115
O	-1.4784912333	-0.3207192173	 1.7214131042	-0.418918
C	 0.8553733079	-0.3824917016	-1.2607766181	-0.364633
C	 1.9492149823	-0.4978720546	-0.1888381866	 0.055748
O	 1.1298796038	 0.145670964	 0.8122035627	-0.353271
C	 2.332852722	-1.8977296361	 0.2533277576	 0.132774
O	 2.3533083067	-2.8581289785	-0.4712730506	-0.234059
H	 0.3693518449	 2.3072318014	-0.5432320156	 0.118125
H	-1.2139439287	 1.719192682	-1.0957231052	 0.120439
H	-0.9337863379	 2.0079787169	 0.6319313367	 0.141425
H	-2.0035718636	-0.6270297922	-0.2134788125	 0.111686
H	-0.7565368393	-1.7422674904	 0.3781923703	 0.090048
H	-0.657771359	-0.2987827591	 2.2299431391	 0.291087
H	 0.5218391015	-1.3372645573	-1.6709814115	 0.132305
H	 1.0807672129	 0.3087750031	-2.0729687992	 0.115585
H	 2.8736632052	 0.0688603792	-0.3755337478	 0.10678
H	 2.5900579788	-1.9639243323	 1.334745782	 0.090841
42.2022	76.5332	130.2294	166.9176	230.9628	246.5942	306.7752	337.3051	355.9796	440.8657	480.5153	518.946	587.217	696.5882	782.2344	873.3756	883.9739	900.1441	934.6323	975.5824	988.8113	1029.7022	1068.4524	1079.5006	1122.6066	1135.6807	1202.8922	1235.7627	1263.3666	1276.0672	1299.4933	1349.8804	1385.4213	1402.1524	1409.3857	1430.6825	1479.1838	1493.0549	1495.7837	1503.2694	1832.1856	2885.8751	2977.372	2996.066	3039.9236	3071.16	3086.0271	3111.8765	3130.3438	3143.5151	3776.9713
CC1(CO)CC(O1)C=O	C[C@@]1(CO)C[C@@H](O1)C=O	
InChI=1S/C6H10O3/c1-6(4-8)2-5(3-7)9-6/h3,5,8H,2,4H2,1H3	InChI=1S/C6H10O3/c1-6(4-8)2-5(3-7)9-6/h3,5,8H,2,4H2,1H3/t5-,6+/m1/s1
