17
gdb 126125	4.4801	1.00405	0.82849	4.1498	76.55	-0.2413	-0.0353	0.2061	1360.6919	0.136868	-418.057523	-418.048959	-418.048015	-418.09178	30.695	
C	-0.0575692425	 1.5053899541	 0.088297301	-0.38333
C	 0.0272353076	-0.0129879103	-0.0405129517	-0.278158
C	 0.7476843453	-0.464996252	-1.300434402	 0.296176
O	 1.2027485131	 0.3185939608	-2.1102319437	-0.324572
C	 0.8861578063	-1.924176911	-1.5246718913	 0.26766
N	 0.4017582917	-2.8248340579	-0.6617539934	-0.287238
N	 0.7186625221	-4.0050264063	-1.2032043171	-0.17803
C	 1.3893297089	-3.8958561383	-2.3829210464	-0.02072
C	 1.5181896314	-2.5504602194	-2.6271770816	-0.267324
H	 0.939222939	 1.9535643333	 0.1100258516	 0.127903
H	-0.5886616497	 1.9421028192	-0.7614900475	 0.127939
H	-0.5830288904	 1.7846848495	 1.005913661	 0.105603
H	 0.5395476611	-0.4643024102	 0.8185630912	 0.129868
H	-0.9677538509	-0.4757426398	-0.039182179	 0.129872
H	 0.4518090584	-4.8489078918	-0.7231815814	 0.280731
H	 1.7088118989	-4.7667236672	-2.9328579436	 0.142713
H	 1.9902748797	-2.0636953128	-3.4631591362	 0.130907
47.6024	73.5357	146.9869	168.0988	213.1595	283.4346	363.8198	503.2885	543.7668	554.4693	666.6115	714.1651	719.8026	782.3555	820.0775	882.0782	926.4986	946.9052	996.7477	1026.8392	1071.8779	1090.2104	1095.3466	1127.4102	1212.9867	1272.2233	1306.1268	1371.5705	1399.6488	1412.5692	1446.6985	1464.4668	1489.8472	1490.8672	1498.6992	1560.0395	1774.9711	3036.7488	3049.2439	3061.813	3119.608	3124.1591	3264.1652	3294.3562	3662.3512
CCC(=O)C1=NNC=C1	CCC(=O)c1n[nH]cc1	
InChI=1S/C6H8N2O/c1-2-6(9)5-3-4-7-8-5/h3-4H,2H2,1H3,(H,7,8)	InChI=1S/C6H8N2O/c1-2-6(9)5-3-4-7-8-5/h3-4H,2H2,1H3,(H,7,8)
