21
gdb 77657	2.07826	1.38038	1.24494	3.5025	85.76	-0.2372	-0.0156	0.2217	1189.3739	0.181073	-387.089849	-387.08042	-387.079476	-387.123649	35.46	
C	-0.0105170894	 1.5577324074	 0.0121863806	-0.422521
C	 0.1072057089	 0.0500246771	-0.077577591	-0.117369
C	 0.6890359841	-0.7290621342	-1.2066638791	 0.284363
C	-0.0328945254	-1.8550374377	-1.8927424123	-0.49161
C	 1.9234403942	-0.0303419858	-1.8011488022	-0.282174
C	 2.6135912659	-0.014270371	-0.4026211376	-0.302471
C	 1.3972127462	-0.7090994011	 0.2073044445	 0.221071
C	 1.4573839929	-1.802432709	 1.1761948386	 0.05308
O	 2.4725251353	-2.2013057319	 1.7029638434	-0.277752
H	 0.8494101288	 2.0719871344	-0.4224743176	 0.126623
H	-0.905110955	 1.9023462555	-0.5177140149	 0.122421
H	-0.0962078849	 1.8774101917	 1.0558194009	 0.126249
H	-0.7497576102	-0.465772762	 0.3569233131	 0.090008
H	-0.5920745374	-1.4764705032	-2.7578564885	 0.126543
H	 0.6647130998	-2.6157096771	-2.2596319893	 0.125939
H	-0.7507889433	-2.3447708371	-1.2280314118	 0.123101
H	 2.4492248182	-0.6693236892	-2.5142900203	 0.108824
H	 1.7397400867	 0.9371119886	-2.2790433454	 0.100625
H	 3.4981077532	-0.6507957421	-0.3571835767	 0.127583
H	 2.8701013045	 0.9643847664	 0.0127215287	 0.102156
H	 0.472350267	-2.2774269298	 1.3989313569	 0.05531
90.2155	162.5019	174.244	198.3796	223.1183	228.6833	249.1493	276.3658	342.9886	460.0711	492.835	531.2974	596.317	696.5106	740.3428	783.157	804.0925	927.1551	951.8945	965.3963	1011.4691	1021.2537	1038.4492	1083.0384	1096.5315	1119.5681	1135.1133	1169.7678	1220.2778	1238.5581	1242.9707	1284.2876	1315.4463	1350.2243	1411.9567	1414.5718	1429.6405	1469.4065	1478.2313	1485.2809	1495.391	1500.2011	1506.6171	1514.6	1788.9923	2844.9277	3021.5459	3038.422	3051.4939	3062.886	3080.0729	3097.2989	3101.6156	3102.9423	3106.834	3127.0506	3130.3981
CC1C2(C)CCC12C=O	C[C@H]1[C@@]2(C)CC[C@@]12C=O	
InChI=1S/C8H12O/c1-6-7(2)3-4-8(6,7)5-9/h5-6H,3-4H2,1-2H3	InChI=1S/C8H12O/c1-6-7(2)3-4-8(6,7)5-9/h5-6H,3-4H2,1-2H3/t6-,7+,8+/m0/s1
