19
gdb 84687	2.21165	1.80972	1.39881	0.7527	75.3	-0.2455	0.0074	0.253	1018.941	0.159287	-423.014379	-423.006168	-423.005224	-423.046937	32.115	
C	-0.6639864519	 1.3603263068	-0.008983594	-0.414942
C	-0.0019939532	-0.0223027503	-0.0540839719	-0.060215
C	 1.0107827304	-0.2046869259	-1.1651950734	-0.073684
C	 2.1522255154	-0.7704092232	-0.7685204891	-0.096813
C	 2.1392225608	-1.0561226415	 0.7054563364	 0.009862
O	 2.914470966	-0.1124880866	 1.4959603089	-0.295176
C	 1.7251978861	 0.6033459234	 1.8876437284	-0.142342
C	 0.7976719784	-0.435179275	 1.1993012333	 0.340184
O	-0.0411255716	-1.1730540443	 2.0515347414	-0.487908
H	 0.074328827	 2.1662596623	 0.0454732843	 0.119893
H	-1.2662700172	 1.5270037898	-0.9078535409	 0.11611
H	-1.3280828816	 1.4419137639	 0.8571020599	 0.127119
H	-0.803248149	-0.7669903097	-0.1619685904	 0.099533
H	 0.7906501849	 0.0986985321	-2.1844923135	 0.098205
H	 3.0009227975	-0.9940604254	-1.4050230111	 0.101606
H	 2.3772594518	-2.0904432167	 0.980963021	 0.07659
H	 1.6119540656	 0.6517176485	 2.9789976543	 0.093648
H	 1.7044966421	 1.6225080805	 1.4854235254	 0.104406
H	 0.4641523784	-1.4342540586	 2.829058371	 0.283924
71.9659	194.1823	215.3376	258.7111	298.2124	308.2678	360.0011	393.5089	495.4317	541.8306	595.1169	652.1368	756.0223	774.0948	857.2256	884.2619	925.4068	961.4875	981.7231	1004.3171	1012.6319	1022.7302	1037.8198	1091.7997	1101.5908	1135.974	1143.0295	1157.859	1202.5965	1251.8547	1294.4913	1323.3559	1335.7203	1357.0987	1370.2196	1400.1652	1413.4966	1496.9888	1501.624	1515.9985	1674.3357	3005.8221	3009.5889	3035.8992	3039.2323	3062.6374	3103.0828	3110.7092	3172.6473	3203.3666	3805.4876
CC1C=CC2OCC12O	C[C@H]1C=C[C@H]2OC[C@@]12O	
InChI=1S/C7H10O2/c1-5-2-3-6-7(5,8)4-9-6/h2-3,5-6,8H,4H2,1H3	InChI=1S/C7H10O2/c1-5-2-3-6-7(5,8)4-9-6/h2-3,5-6,8H,4H2,1H3/t5-,6+,7+/m0/s1
