13
gdb 129384	4.33055	1.14322	0.90534	5.7091	63.42	-0.2572	-0.0587	0.1985	1179.3504	0.090246	-486.070389	-486.062631	-486.061687	-486.102986	28.651	
N	 0.1847509233	 0.4971049894	 1.2265401177	-0.551129
C	-0.0882972789	 0.1421173834	-0.0732174049	 0.243157
N	 0.4744868613	 0.5241013817	-1.1535648431	-0.494324
C	-1.2349745896	-0.7930477578	-0.1679525337	 0.482742
N	-1.8618101317	-1.3465005554	 0.834409193	-0.423011
C	-2.8007163462	-2.1038813432	 0.1847314737	 0.445122
O	-3.6868968812	-2.8619289332	 0.8258864027	-0.399157
N	-2.7723213322	-2.0360905106	-1.1236573788	-0.187157
O	-1.7105307657	-1.1473005919	-1.3552929924	-0.183685
H	 1.0794416411	 0.9146277596	 1.4232655113	 0.257731
H	-0.2243681342	-0.0638565169	 1.9576882233	 0.273649
H	 1.2485705462	 1.1629851241	-0.9633722741	 0.215676
H	-3.5297692621	-2.7549886592	 1.7716936354	 0.320385
65.3561	163.2621	182.614	343.4015	367.6217	383.3011	397.9715	414.0567	457.6758	558.1239	590.7838	639.6127	748.5536	762.3359	805.533	875.388	950.1671	1036.7328	1069.7685	1101.1868	1131.3417	1214.4437	1296.1702	1412.8756	1467.346	1583.0892	1627.1512	1662.3471	1725.8396	3464.6829	3586.3816	3709.974	3818.2331
NC(=N)C1=NC(O)=NO1	NC(=N)c1nc(O)no1	
InChI=1S/C3H4N4O2/c4-1(5)2-6-3(8)7-9-2/h(H3,4,5)(H,7,8)	InChI=1S/C3H4N4O2/c4-1(5)2-6-3(8)7-9-2/h(H3,4,5)(H,7,8)
