18
gdb 5825	2.78508	1.73422	1.37932	5.6228	67.76	-0.2577	0.026	0.2837	971.5312	0.15149	-381.131358	-381.121677	-381.120733	-381.164999	35.378	
C	-0.0944606077	 1.5401063131	-0.0181068162	-0.43492
C	-0.0160745055	 0.0104391086	 0.0367122096	 0.337274
C	 0.7653161036	-0.4490069163	 1.2756095748	-0.42831
O	-1.3229548963	-0.5651176722	 0.0379682463	-0.460954
C	 0.6444163495	-0.5733558564	-1.2557678456	-0.136149
N	 0.6415687471	-2.0300659488	-1.3650373459	-0.505446
C	-0.008814982	-0.0199514664	-2.4580478418	 0.324499
N	-0.5092678862	 0.4284269362	-3.3975077459	-0.33707
H	 0.9014991811	 1.9870640028	-0.104712721	 0.121923
H	-0.6983095388	 1.867675652	-0.8667568213	 0.157944
H	-0.5478008793	 1.927003361	 0.901697133	 0.108752
H	 0.2810806671	-0.0715405585	 2.1823525153	 0.115351
H	 0.7903489488	-1.5393527406	 1.3414785875	 0.117939
H	 1.7928056987	-0.0702820845	 1.2675957102	 0.119489
H	-1.827029544	-0.1777387862	 0.7604903531	 0.285299
H	 1.6867207769	-0.2335433184	-1.2784754297	 0.124691
H	 1.2761350418	-2.42948182	-0.6824026813	 0.236738
H	-0.2917761549	-2.3689403955	-1.1488715112	 0.252949
71.9326	155.3163	198.1548	208.4054	222.2279	244.6999	267.8584	302.145	336.1915	364.9953	397.1812	419.8432	492.0039	589.7316	614.777	773.5791	843.3763	868.9685	924.747	960.705	972.8178	1007.978	1122.7026	1133.972	1181.1761	1203.0968	1238.1178	1313.1585	1359.1625	1395.5931	1405.5972	1419.1169	1479.6475	1484.9207	1498.8117	1509.7289	1658.2907	2363.1108	3031.3739	3037.3083	3049.3997	3093.8319	3103.3947	3121.9648	3136.6554	3502.932	3591.7896	3823.7297
CC(C)(O)C(N)C#N	CC(C)(O)[C@@H](N)C#N	
InChI=1S/C5H10N2O/c1-5(2,8)4(7)3-6/h4,8H,7H2,1-2H3	InChI=1S/C5H10N2O/c1-5(2,8)4(7)3-6/h4,8H,7H2,1-2H3/t4-/m0/s1
