21
gdb 82604	3.92041	1.36738	1.29139	0.9226	82.8	-0.2003	0.0874	0.2877	1084.8683	0.184206	-383.195528	-383.187829	-383.186885	-383.227168	31.471	
C	 0.1824064749	 1.0405804862	-0.5590548213	-0.325955
N	 0.2090328461	-0.3764575396	-0.2157784038	-0.098298
C	-1.0813733041	-0.8948891062	 0.362395989	-0.047493
C	-0.7077722132	-2.3814541273	 0.4658010816	-0.219786
C	 0.383080246	-2.1233814848	 1.5366585068	-0.042473
C	 0.7371791965	-0.621236558	 1.1442388076	-0.007483
C	-0.6189861363	-0.4172780742	 1.8537864652	-0.023465
N	-0.3454064324	-1.5621357791	 2.708374237	-0.063955
C	-1.4132268012	-2.287990629	 3.3729627783	-0.334026
H	 1.201060387	 1.37652792	-0.7806244717	 0.11813
H	-0.4180389176	 1.178105034	-1.464222702	 0.117097
H	-0.2271031007	 1.7020560728	 0.2246391417	 0.09408
H	-2.0074625757	-0.5903151046	-0.123083856	 0.064491
H	-1.4970936239	-3.0497744141	 0.8136793743	 0.093516
H	-0.3087592487	-2.7418823094	-0.4829760615	 0.110066
H	 1.1357673802	-2.8868011018	 1.7331167939	 0.069625
H	 1.6903996808	-0.1949960546	 1.4519839153	 0.076705
H	-1.0168987206	 0.4972451689	 2.2917908444	 0.07722
H	-2.2547952453	-2.5849037136	 2.7270057238	 0.100203
H	-1.0037092366	-3.1930015089	 3.8341390733	 0.120754
H	-1.8163009152	-1.6602693067	 4.175082734	 0.121048
163.4765	180.4133	220.2013	238.843	306.5269	334.689	474.1926	503.3498	567.6697	630.5451	708.3379	757.6945	776.2598	813.3903	843.8794	897.6923	929.5063	936.0934	959.2349	982.1811	997.3038	1015.7925	1080.1631	1115.7024	1133.1603	1146.8745	1156.062	1163.7962	1174.881	1186.1227	1201.1205	1213.3927	1231.241	1248.8208	1276.0667	1288.4138	1325.7502	1337.7337	1447.2679	1454.0722	1473.1459	1492.6571	1494.0087	1501.8609	1513.6264	2950.2068	2974.2359	3057.2856	3058.7403	3085.4226	3096.1142	3096.2968	3116.5956	3118.6263	3130.5528	3139.4899	3140.3563
CN1C2CC3C1C2N3C	CN1[C@H]2C[C@H]3[C@@H]1[C@@H]2N3C	
InChI=1S/C7H12N2/c1-8-4-3-5-6(8)7(4)9(5)2/h4-7H,3H2,1-2H3	InChI=1S/C7H12N2/c1-8-4-3-5-6(8)7(4)9(5)2/h4-7H,3H2,1-2H3/t4-,5-,6+,7+/m0/s1
