18
gdb 88889	3.72007	0.72908	0.67355	3.9595	79.8	-0.2578	-0.0265	0.2314	1678.1434	0.145277	-439.095293	-439.085811	-439.084867	-439.130658	33.293	
C	 0.3320296443	 1.700177197	 0.0505991112	-0.401999
C	 0.2408557743	 0.1914490386	 0.0211691102	-0.010755
C	 1.4607963513	-0.6648867367	 0.222279843	-0.3075
C	 0.3816968697	-0.636587055	 1.2869126833	 0.055035
N	 0.6808057714	 0.0363321348	 2.5018996897	-0.216331
C	 0.2123133962	-0.4191611625	 3.5755598468	 0.122046
O	 0.4374982019	 0.1507368143	 4.8015474533	-0.195879
C	 1.5371593831	 0.9565347882	 4.9708518538	 0.182087
O	 1.6881353268	 1.5824275253	 5.9717649932	-0.252143
H	 1.0546573396	 2.036246821	 0.7971290379	 0.131858
H	 0.6418063643	 2.0866722883	-0.9261989254	 0.117244
H	-0.6355280466	 2.1502627476	 0.2977062877	 0.118882
H	-0.4952713406	-0.2024597987	-0.6749488771	 0.091109
H	 1.5789811583	-1.5744605753	-0.3558895911	 0.116803
H	 2.3874128465	-0.1598121886	 0.4723597284	 0.122486
H	-0.2542239572	-1.5200711935	 1.3666362757	 0.080606
H	-0.439186849	-1.2901237736	 3.6871982012	 0.121986
H	 2.2178267259	 0.9206255088	 4.1102806583	 0.124466
60.4659	80.8172	104.679	136.4082	195.1364	234.7729	286.2232	304.5748	364.4568	419.0372	525.9927	589.9477	723.8086	766.1899	844.6022	885.4953	919.3611	965.4307	991.535	1025.3441	1041.9257	1057.4487	1068.6394	1106.4988	1141.5268	1179.5922	1195.065	1203.6565	1247.0281	1367.4113	1390.1276	1399.7306	1421.8977	1429.9406	1484.7768	1495.0205	1503.4337	1738.175	1873.754	3036.6107	3068.2081	3077.2251	3092.3706	3093.9961	3124.6415	3136.224	3144.4196	3225.749
CC1CC1N=COC=O	C[C@H]1C[C@H]1N=COC=O	
InChI=1S/C6H9NO2/c1-5-2-6(5)7-3-9-4-8/h3-6H,2H2,1H3	InChI=1S/C6H9NO2/c1-5-2-6(5)7-3-9-4-8/h3-6H,2H2,1H3/t5-,6+/m0/s1
