14
gdb 31367	3.1482	1.37408	0.96258	7.3637	67.18	-0.2525	-0.0376	0.215	1145.9291	0.101793	-470.061707	-470.053494	-470.05255	-470.096122	28.228	
C	-0.034963275	 1.4301609354	 0.1405421953	-0.331026
N	 0.0205312066	-0.0097858226	-0.0417111792	-0.36922
C	 0.6301826015	-0.5887744499	-1.0893134969	 0.534756
N	 1.1648912667	 0.0561947664	-2.0625155124	-0.39691
C	 1.7359050335	-0.6628658493	-3.1154551309	 0.390866
O	 2.2198050483	-0.1273005889	-4.0767788988	-0.327517
N	 1.7395908077	-2.1011053292	-3.0212241368	-0.286341
C	 1.1926896802	-2.6220528809	-2.0124407999	 0.124316
O	 0.5881553492	-1.9572091502	-0.9781668543	-0.223462
H	 0.7948087991	 1.7953461828	 0.7566939811	 0.14111
H	 0.0266436455	 1.9038237617	-0.8391188598	 0.186349
H	-0.9799114566	 1.6984521617	 0.6185188117	 0.137457
H	-0.2903200972	-0.6218168714	 0.6945890065	 0.265467
H	 1.1374635204	-3.6948912255	-1.8474696955	 0.154154
33.4649	71.5949	119.792	192.3351	204.7238	415.9825	435.8315	457.8374	541.9739	561.5347	625.5694	743.4035	774.577	822.208	897.5181	938.8702	971.5339	1060.0385	1092.368	1156.4212	1192.0017	1279.1238	1294.8275	1404.0436	1447.7703	1488.7099	1504.9311	1556.5333	1661.4709	1750.0594	1838.2708	3036.7566	3108.425	3163.9144	3181.5345	3655.9342
CNC1=NC(=O)N=CO1	CNc1nc(=O)nco1	
InChI=1S/C4H5N3O2/c1-5-4-7-3(8)6-2-9-4/h2H,1H3,(H,5,7,8)	InChI=1S/C4H5N3O2/c1-5-4-7-3(8)6-2-9-4/h2H,1H3,(H,5,7,8)
