20
gdb 108406	1.95515	1.60841	0.99932	3.9136	81.79	-0.2348	0.0065	0.2413	1240.4925	0.170052	-403.132331	-403.123258	-403.122313	-403.166343	33.548	
C	 0.3561856406	 1.4212739523	 0.2306559012	-0.382443
C	 0.1304079681	-0.0738252123	-0.0403157266	-0.303282
C	 0.6366713745	-0.5178799516	-1.3814522833	 0.336689
C	 0.0504574031	-0.1536293054	-2.7615883461	-0.279176
C	 0.4602209503	-1.5760228531	-3.2835325948	-0.236784
C	 1.047168913	-1.8805425125	-1.8999477976	-0.098659
N	 2.0429068336	-0.8594985465	-1.6276475317	-0.104957
C	 3.0314946756	-0.9968565368	-0.6767760713	 0.12466
O	 3.6422903429	-2.0153284102	-0.4458222533	-0.303145
H	 1.422159601	 1.6692923773	 0.2415040246	 0.127364
H	-0.1203899254	 2.0380671141	-0.5381320267	 0.125348
H	-0.0655882024	 1.7074673208	 1.1983269356	 0.121545
H	 0.6064583011	-0.6756476943	 0.743299631	 0.116866
H	-0.9437416498	-0.2924130633	 0.0082805445	 0.109989
H	-1.0333666279	-0.0187268663	-2.730090351	 0.108323
H	 0.509433311	 0.7050013284	-3.2559125676	 0.111024
H	-0.4070787556	-2.1954688399	-3.5202428401	 0.110746
H	 1.1715800109	-1.6136846098	-4.1111600407	 0.116567
H	 1.1148986829	-2.8281331946	-1.3793336569	 0.119203
H	 3.2735332025	-0.0299318062	-0.1949670991	 0.080121
86.2217	102.1425	156.5834	171.0166	207.764	257.7904	282.1067	325.0125	412.4098	481.7567	595.1414	688.5241	735.2059	780.3786	801.263	839.2274	919.793	940.0752	945.9944	981.703	1002.1777	1028.6393	1039.2885	1063.7901	1118.5933	1136.6436	1182.2071	1218.823	1228.4378	1262.9255	1269.0504	1301.6437	1329.1629	1361.0613	1410.3126	1421.3012	1443.4283	1468.4934	1477.314	1492.5975	1499.1466	1505.9584	1782.75	2945.2289	3025.0019	3039.5682	3061.6519	3066.3981	3075.3004	3109.2511	3114.0863	3118.3917	3135.3523	3200.0355
CCC12CCC1N2C=O	CC[C@]12CC[C@H]1N2C=O	
InChI=1S/C7H11NO/c1-2-7-4-3-6(7)8(7)5-9/h5-6H,2-4H2,1H3	InChI=1S/C7H11NO/c1-2-7-4-3-6(7)8(7)5-9/h5-6H,2-4H2,1H3/t6-,7+,8?/m1/s1
